data_PCOD9505582
_publ_section_title
;
Structure prediction by ZEFSAII (Michael W. Deem and Ramdas Pophale) SiO2 
 PCOD9505582
Probable space group: C C C A
;
_chemical_formula_sum "Si O2"
_cell_formula_units_Z 104
_cell_length_a 20.254277
_cell_length_b 9.307495
_cell_length_c 29.471076
_cell_angle_alpha 90.000000
_cell_angle_beta 90.000000
_cell_angle_gamma 90.000000
_cell_volume 5555.786513
_symmetry_space_group_name_H-M "C C C A"
_symmetry_group_IT_number 68
_space_group.IT_coordinate_system_code '2'
_symmetry_cell_setting 'orthorhombic'
loop_
_space_group_symop_operation_xyz
x,y,z
-x,1/2-y,z
x,1/2-y,1/2-z
-x,y,1/2-z
-x,-y,-z
x,1/2+y,-z
-x,1/2+y,1/2+z
x,-y,1/2+z
1/2+x,1/2+y,z
1/2-x,-y,z
1/2+x,-y,1/2-z
1/2-x,1/2+y,1/2-z
1/2-x,1/2-y,-z
1/2+x,y,-z
1/2-x,y,1/2+z
1/2+x,1/2-y,1/2+z
loop_
_atom_site_type_symbol
_atom_site_label
_atom_site_fract_x
_atom_site_fract_y
_atom_site_fract_z
Si Si1 0.552612 0.879634 0.450993
Si Si2 0.500000 0.250000 0.679983
Si Si3 0.079714 0.235689 0.856570
Si Si4 0.049595 0.619638 0.053187
Si Si5 0.116352 0.431067 0.364382
Si Si6 0.566183 0.024119 0.225423
Si Si7 0.312315 0.101541 0.722082
O O1 0.500000 0.750000 0.450915
O O2 0.575628 0.912493 0.502624
O O3 0.614491 0.883994 0.417030
O O4 0.502559 0.999888 0.432886
O O5 0.449127 0.151343 0.652926
O O6 0.456844 0.368394 0.706445
O O7 0.095986 0.157326 0.904555
O O8 0.109376 0.396295 0.857780
O O9 0.092170 0.132796 0.813325
O O10 0.000000 0.250000 0.856342
O O11 0.000000 0.750000 0.045645
O O12 0.174430 0.376261 0.331568
O O13 0.500000 0.082211 0.250000
O O14 0.623614 0.985824 0.260356
O O15 0.307015 0.250000 0.750000
O O16 0.250000 0.000000 0.729308
#
# Coordination Sequence:
#
# PCOD9505582 Si02
#       7
#    16   8  16  16  16  16  16
#     4  10  18  28  52  79 118 159 187 228 303 356
#     4  12  19  36  56  88 112 148 192 254 293 338
#     4  11  20  33  50  87 123 151 192 244 292 352
#     4   9  17  30  44  80 127 151 178 237 296 359
#     4  12  22  36  58  82 117 157 201 240 296 353
#     4  12  22  38  61  85 115 154 201 247 295 349
#     4  12  28  45  61  85 121 158 200 247 298 356
#
# _framework density 18.719221999999998
#
# number of rings (size 3 to 8) (size 9 to 14) (size 15 to 20)
#    0.000    0.923    8.462    0.231    2.154    1.538 
#    0.000    0.000    0.000    0.000    0.000    2.154 
#    0.000    0.000    0.000    0.000    0.000    0.000 
#
# Total GULP energy -289650.887318 kJ/mol
# GULP energy per Si atom -5570.209371 kJ/mol
# Density = 1.867662 g / cm^3
# Si number density = 18.719222 Si / 1000 Ang^3
#
#
#
# Elastic Constant Matrix: (Units=GPa)
#
#
# Indices 1 2 3 4 5 6 
#
# 1 45.5827 5.2874 15.7597 0.0000 0.0000 0.0000
# 2 5.2874 87.5990 27.1954 0.0000 0.0000 0.0000
# 3 15.7597 27.1954 131.5492 0.0000 0.0000 0.0000
# 4 0.0000 0.0000 0.0000 28.4067 0.0000 0.0000
# 5 0.0000 0.0000 0.0000 0.0000 3.6042 0.0000
# 6 0.0000 0.0000 0.0000 0.0000 0.0000 11.1597
#
#
#
# Elastic Compliance Matrix: (Units=1/GPa)
#
#
# Indices 1 2 3 4 5 6 
#
# 1 0.022912 -0.000567 -0.002628 0.000000 0.000000 0.000000
# 2 -0.000567 0.012213 -0.002457 0.000000 0.000000 0.000000
# 3 -0.002628 -0.002457 0.008424 0.000000 0.000000 0.000000
# 4 0.000000 0.000000 0.000000 0.035203 0.000000 0.000000
# 5 0.000000 0.000000 0.000000 0.000000 0.277452 0.000000
# 6 0.000000 0.000000 0.000000 0.000000 0.000000 0.089608
#
#
# Mechanical properties :
#
#
# Convention : Reuss Voigt Hill
#
# Bulk Modulus (GPa) = 31.01149 40.13512 35.57331
# Shear Modulus (GPa) = 10.68684 23.06667 16.87676
#
# Velocity S-wave (km/s) = 2.39195 3.51414 3.00588
# Velocity P-wave (km/s) = 4.92252 6.16058 5.57602
#
# Compressibility (1/GPa) = 0.03224611
#
# Stress axis : x y z
#
# Youngs Moduli (GPa) = 43.64446 81.88263 118.70267
#
# Poissons Ratio (x) = 0.04644 0.31191
# Poissons Ratio (y) = 0.02476 0.29163
# Poissons Ratio (z) = 0.11468 0.20117
#
# Static dielectric constant tensor:
#      x y z
#    x 1.607230 0.000000 0.000000 
#    y 0.000000 1.640770 0.000000 
#    z 0.000000 0.000000 1.806660 
# 
# From -- ./inp_files/56048.got.cif
#   From: 2010.05.17/outbox.cif.g08.bks.cpg/sg68_29_cif.got.tgz:56048.got - 2010.06.03 18:57:09.
