data_PCOD9505847
_publ_section_title
;
Structure prediction by ZEFSAII (Michael W. Deem and Ramdas Pophale) SiO2 
 PCOD9505847
Probable space group: C C C A
;
_chemical_formula_sum "Si O2"
_cell_formula_units_Z 104
_cell_length_a 16.333957
_cell_length_b 12.439112
_cell_length_c 19.023196
_cell_angle_alpha 90.000000
_cell_angle_beta 90.000000
_cell_angle_gamma 90.000000
_cell_volume 3865.131451
_symmetry_space_group_name_H-M "C C C A"
_symmetry_group_IT_number 68
_space_group.IT_coordinate_system_code '2'
_symmetry_cell_setting 'orthorhombic'
loop_
_space_group_symop_operation_xyz
x,y,z
-x,1/2-y,z
x,1/2-y,1/2-z
-x,y,1/2-z
-x,-y,-z
x,1/2+y,-z
-x,1/2+y,1/2+z
x,-y,1/2+z
1/2+x,1/2+y,z
1/2-x,-y,z
1/2+x,-y,1/2-z
1/2-x,1/2+y,1/2-z
1/2-x,1/2-y,-z
1/2+x,y,-z
1/2-x,y,1/2+z
1/2+x,1/2-y,1/2+z
loop_
_atom_site_type_symbol
_atom_site_label
_atom_site_fract_x
_atom_site_fract_y
_atom_site_fract_z
Si Si1 0.250000 0.000000 0.503179
Si Si2 0.888954 0.614198 0.593682
Si Si3 0.737101 0.839563 0.118141
Si Si4 0.872777 0.753962 0.027509
Si Si5 0.400599 0.862798 0.788935
Si Si6 0.998057 0.913725 0.412688
Si Si7 0.667394 0.431155 0.742672
O O1 0.318449 0.048221 0.553238
O O2 0.286962 0.916252 0.446866
O O3 0.882795 0.731082 0.556448
O O4 0.970264 0.538250 0.589064
O O5 0.858381 0.631698 0.673104
O O6 0.787400 0.749567 0.070543
O O7 0.820463 0.874419 0.161152
O O8 0.822560 0.136813 0.185342
O O9 0.925004 0.655800 0.055505
O O10 0.922403 0.866607 0.046315
O O11 0.389975 0.750000 0.750000
O O12 0.519192 0.868406 0.663901
O O13 0.397763 0.973591 0.747766
O O14 0.750000 0.500000 0.727379
#
# Coordination Sequence:
#
# PCOD9505847 Si02
#       7
#     8  16  16  16  16  16  16
#     4  10  18  38  58  80 118 168 212 244 310 396
#     4  11  22  37  60  88 128 171 205 268 329 389
#     4   9  18  39  59  79 121 169 201 255 314 387
#     4   9  21  40  62  87 129 166 212 266 320 393
#     4  10  21  37  61  93 130 153 204 279 325 378
#     4  10  22  41  59  97 126 164 218 266 329 384
#     4  10  20  38  58  88 125 166 207 255 324 395
#
# _framework density 26.907236000000001
#
# number of rings (size 3 to 8) (size 9 to 14) (size 15 to 20)
#    0.000    2.154    3.077    0.462    6.462    0.615 
#    5.538    6.154    0.000    0.000    0.000    0.000 
#    0.000    0.000    0.000    0.000    0.000    0.000 
#
# Total GULP energy -289988.316263 kJ/mol
# GULP energy per Si atom -5576.698390 kJ/mol
# Density = 2.684599 g / cm^3
# Si number density = 26.907236 Si / 1000 Ang^3
#
#
#
# Elastic Constant Matrix: (Units=GPa)
#
#
# Indices 1 2 3 4 5 6 
#
# 1 56.5162 32.2181 28.7473 0.0000 0.0000 0.0000
# 2 32.2181 124.9986 49.5459 0.0000 0.0000 0.0000
# 3 28.7473 49.5459 184.2563 0.0000 0.0000 0.0000
# 4 0.0000 0.0000 0.0000 32.7928 0.0000 0.0000
# 5 0.0000 0.0000 0.0000 0.0000 24.3096 0.0000
# 6 0.0000 0.0000 0.0000 0.0000 0.0000 31.2807
#
#
#
# Elastic Compliance Matrix: (Units=1/GPa)
#
#
# Indices 1 2 3 4 5 6 
#
# 1 0.021431 -0.004699 -0.002080 0.000000 0.000000 0.000000
# 2 -0.004699 0.009985 -0.001952 0.000000 0.000000 0.000000
# 3 -0.002080 -0.001952 0.006277 0.000000 0.000000 0.000000
# 4 0.000000 0.000000 0.000000 0.030494 0.000000 0.000000
# 5 0.000000 0.000000 0.000000 0.000000 0.041136 0.000000
# 6 0.000000 0.000000 0.000000 0.000000 0.000000 0.031969
#
#
# Mechanical properties :
#
#
# Convention : Reuss Voigt Hill
#
# Bulk Modulus (GPa) = 49.43064 65.19929 57.31497
# Shear Modulus (GPa) = 30.21200 34.69394 32.45297
#
# Velocity S-wave (km/s) = 3.35449 3.59470 3.47667
# Velocity P-wave (km/s) = 5.78049 6.44305 6.12074
#
# Compressibility (1/GPa) = 0.02023037
#
# Stress axis : x y z
#
# Youngs Moduli (GPa) = 46.66141 100.15077 159.32304
#
# Poissons Ratio (x) = 0.47064 0.33139
# Poissons Ratio (y) = 0.21928 0.31096
# Poissons Ratio (z) = 0.09706 0.19547
#
# Static dielectric constant tensor:
#      x y z
#    x 2.257600 0.000000 0.000000 
#    y 0.000000 2.192450 0.000000 
#    z 0.000000 0.000000 2.380800 
# 
# From -- ./inp_files/40967.got.cif
#   From: 2010.05.17/outbox.cif.g08.bks.cpg/sg68_21_cif.got.tgz:40967.got - 2010.06.03 18:57:09.
