data_PCOD9505853
_publ_section_title
;
Structure prediction by ZEFSAII (Michael W. Deem and Ramdas Pophale) SiO2 
 PCOD9505853
Probable space group: C C C A
;
_chemical_formula_sum "Si O2"
_cell_formula_units_Z 116
_cell_length_a 25.258439
_cell_length_b 23.098294
_cell_length_c 10.008307
_cell_angle_alpha 90.000000
_cell_angle_beta 90.000000
_cell_angle_gamma 90.000000
_cell_volume 5839.115027
_symmetry_space_group_name_H-M "C C C A"
_symmetry_group_IT_number 68
_space_group.IT_coordinate_system_code '2'
_symmetry_cell_setting 'orthorhombic'
loop_
_space_group_symop_operation_xyz
x,y,z
-x,1/2-y,z
x,1/2-y,1/2-z
-x,y,1/2-z
-x,-y,-z
x,1/2+y,-z
-x,1/2+y,1/2+z
x,-y,1/2+z
1/2+x,1/2+y,z
1/2-x,-y,z
1/2+x,-y,1/2-z
1/2-x,1/2+y,1/2-z
1/2-x,1/2-y,-z
1/2+x,y,-z
1/2-x,y,1/2+z
1/2+x,1/2-y,1/2+z
loop_
_atom_site_type_symbol
_atom_site_label
_atom_site_fract_x
_atom_site_fract_y
_atom_site_fract_z
Si Si1 0.195428 0.969760 0.842147
Si Si2 0.148267 0.962983 0.564730
Si Si3 0.567454 0.294992 0.475231
Si Si4 0.714923 0.167057 0.675156
Si Si5 0.311606 0.334328 0.985511
Si Si6 0.896671 0.200579 0.136727
Si Si7 0.000000 0.250000 0.750000
Si Si8 0.946673 0.606008 0.682230
O O1 0.178223 0.987804 0.693777
O O2 0.205674 0.901658 0.838138
O O3 0.250000 0.000000 0.881525
O O4 0.151488 0.991095 0.946447
O O5 0.178050 0.903798 0.519922
O O6 0.090863 0.941361 0.614218
O O7 0.630280 0.309413 0.480219
O O8 0.565656 0.228406 0.527028
O O9 0.538093 0.291417 0.336362
O O10 0.542758 0.343073 0.573841
O O11 0.768909 0.181317 0.598474
O O12 0.664707 0.194931 0.600255
O O13 0.708614 0.181052 0.834169
O O14 0.899763 0.250000 0.250000
O O15 0.914132 0.140628 0.203189
O O16 0.000000 0.584086 0.750000
#
# Coordination Sequence:
#
# PCOD9505853 Si02
#       8
#    16  16  16  16  16  16   4  16
#     4  11  20  34  60  86 119 158 201 248 298 364
#     4  10  21  36  56  90 117 153 206 252 299 361
#     4  10  22  39  59  87 121 155 207 253 310 361
#     4  11  21  36  59  90 126 163 202 243 313 368
#     4  10  21  38  56  88 127 161 198 249 297 382
#     4  10  18  38  60  86 113 154 209 242 294 379
#     4  12  24  40  58  92 120 160 204 270 306 360
#     4  10  19  38  65  82 112 156 206 260 300 358
#
# _framework density 19.866023999999999
#
# number of rings (size 3 to 8) (size 9 to 14) (size 15 to 20)
#    0.000    1.655    6.897    1.241    1.931    3.586 
#    1.241    2.069    0.000    0.000    0.000    0.000 
#    0.000    0.000    0.000    0.000    0.000    0.000 
#
# Total GULP energy -323533.649573 kJ/mol
# GULP energy per Si atom -5578.166372 kJ/mol
# Density = 1.982081 g / cm^3
# Si number density = 19.866024 Si / 1000 Ang^3
#
#
#
# Elastic Constant Matrix: (Units=GPa)
#
#
# Indices 1 2 3 4 5 6 
#
# 1 111.5210 16.7002 51.3110 0.0000 0.0000 0.0000
# 2 16.7002 43.4206 22.0625 0.0000 0.0000 0.0000
# 3 51.3110 22.0625 96.0634 0.0000 0.0000 0.0000
# 4 0.0000 0.0000 0.0000 14.4476 0.0000 0.0000
# 5 0.0000 0.0000 0.0000 0.0000 45.9707 0.0000
# 6 0.0000 0.0000 0.0000 0.0000 0.0000 9.2806
#
#
#
# Elastic Compliance Matrix: (Units=1/GPa)
#
#
# Indices 1 2 3 4 5 6 
#
# 1 0.011978 -0.001535 -0.006045 0.000000 0.000000 0.000000
# 2 -0.001535 0.026270 -0.005213 0.000000 0.000000 0.000000
# 3 -0.006045 -0.005213 0.014836 0.000000 0.000000 0.000000
# 4 0.000000 0.000000 0.000000 0.069216 0.000000 0.000000
# 5 0.000000 0.000000 0.000000 0.000000 0.021753 0.000000
# 6 0.000000 0.000000 0.000000 0.000000 0.000000 0.107752
#
#
# Mechanical properties :
#
#
# Convention : Reuss Voigt Hill
#
# Bulk Modulus (GPa) = 36.36830 47.90582 42.13706
# Shear Modulus (GPa) = 17.44841 24.66852 21.05847
#
# Velocity S-wave (km/s) = 2.96683 3.52766 3.25933
# Velocity P-wave (km/s) = 5.48477 6.38430 5.95155
#
# Compressibility (1/GPa) = 0.02749647
#
# Stress axis : x y z
#
# Youngs Moduli (GPa) = 83.48388 38.06634 67.40259
#
# Poissons Ratio (x) = 0.05844 0.40748
# Poissons Ratio (y) = 0.12817 0.35139
# Poissons Ratio (z) = 0.50470 0.19845
#
# Static dielectric constant tensor:
#      x y z
#    x 1.727330 0.000000 0.000000 
#    y 0.000000 1.727400 0.000000 
#    z 0.000000 0.000000 1.737920 
# 
# From -- ./inp_files/9152.got.cif
#   From: 2010.05.17/outbox.cif.g08.bks.cpg/sg68_5_cif.got.tgz:9152.got - 2010.06.03 18:57:09.
