data_PCOD9505067
_publ_section_title
;
Structure prediction by ZEFSAII (Michael W. Deem and Ramdas Pophale) SiO2 
 PCOD9505067
Probable space group: C M M A
;
_chemical_formula_sum "Si O2"
_cell_formula_units_Z 68
_cell_length_a 22.143100
_cell_length_b 17.117349
_cell_length_c 8.151278
_cell_angle_alpha 90.000000
_cell_angle_beta 90.000000
_cell_angle_gamma 90.000000
_cell_volume 3089.588443
_symmetry_space_group_name_H-M "C M M A"
_symmetry_group_IT_number 67
_symmetry_cell_setting 'orthorhombic'
loop_
_space_group_symop_operation_xyz
x,y,z
-x,1/2-y,z
x,-y,-z
-x,1/2+y,-z
-x,-y,-z
x,1/2+y,-z
-x,y,z
x,1/2-y,z
1/2+x,1/2+y,z
1/2-x,-y,z
1/2+x,1/2-y,-z
1/2-x,y,-z
1/2-x,1/2-y,-z
1/2+x,y,-z
1/2-x,1/2+y,z
1/2+x,-y,z
loop_
_atom_site_type_symbol
_atom_site_label
_atom_site_fract_x
_atom_site_fract_y
_atom_site_fract_z
Si Si1 0.500000 0.750000 0.739747
Si Si2 0.734909 0.407932 0.311088
Si Si3 0.602412 0.120838 0.182448
Si Si4 0.349597 0.839247 0.178395
Si Si5 0.566206 0.537448 0.320084
O O1 0.553471 0.818554 0.748889
O O2 0.750000 0.500000 0.283651
O O3 0.750000 0.390432 0.500000
O O4 0.665813 0.386307 0.278218
O O5 0.779262 0.360110 0.192301
O O6 0.575728 0.033605 0.194648
O O7 0.621136 0.144798 0.998727
O O8 0.359682 0.750000 0.223620
O O9 0.383087 0.898286 0.299681
O O10 0.569197 0.500000 0.500000
O O11 0.500000 0.573188 0.296227
#
# Coordination Sequence:
#
# PCOD9505067 Si02
#       5
#     4  16  16  16  16
#     4  12  28  48  72 118 154 200 250 322 368 448
#     4  11  25  48  77 110 152 198 249 312 381 453
#     4  12  25  47  76 105 151 198 250 305 378 448
#     4  12  27  44  73 113 146 188 253 315 373 442
#     4  11  25  47  70 102 146 202 254 300 376 458
#
# _framework density 22.009404
#
# number of rings (size 3 to 8) (size 9 to 14) (size 15 to 20)
#    0.000    0.471    4.706    2.824    3.294    3.765 
#    6.353    0.000    0.000    1.412    0.000    0.000 
#    0.000    0.000    0.000    0.000    0.000    0.000 
#
# Total GULP energy -189812.014625 kJ/mol
# GULP energy per Si atom -5582.706312 kJ/mol
# Density = 2.195931 g / cm^3
# Si number density = 22.009404 Si / 1000 Ang^3
#
#
#
# Elastic Constant Matrix: (Units=GPa)
#
#
# Indices 1 2 3 4 5 6 
#
# 1 186.2284 45.1154 31.9457 0.0000 0.0000 0.0000
# 2 45.1154 127.3254 32.0635 0.0000 0.0000 0.0000
# 3 31.9457 32.0635 25.0236 0.0000 0.0000 0.0000
# 4 0.0000 0.0000 0.0000 -11.1770 0.0000 0.0000
# 5 0.0000 0.0000 0.0000 0.0000 -75.1311 0.0000
# 6 0.0000 0.0000 0.0000 0.0000 0.0000 43.8203
#
#
#
# Elastic Compliance Matrix: (Units=1/GPa)
#
#
# Indices 1 2 3 4 5 6 
#
# 1 0.006885 -0.000334 -0.008362 0.000000 0.000000 0.000000
# 2 -0.000334 0.011612 -0.014452 0.000000 0.000000 0.000000
# 3 -0.008362 -0.014452 0.069155 0.000000 0.000000 0.000000
# 4 0.000000 0.000000 0.000000 -0.089469 0.000000 0.000000
# 5 0.000000 0.000000 0.000000 0.000000 -0.013310 0.000000
# 6 0.000000 0.000000 0.000000 0.000000 0.000000 0.022820
#
#
# Mechanical properties :
#
#
# Convention : Reuss Voigt Hill
#
# Bulk Modulus (GPa) = 24.18021 61.86962 43.02492
# Shear Modulus (GPa) = 73.77578 6.79929 40.28754
#
# Velocity S-wave (km/s) = 5.79594 1.75954 4.28304
# Velocity P-wave (km/s) = 7.46998 5.68327 6.63703
#
# Compressibility (1/GPa) = 0.04135614
#
# Stress axis : x y z
#
# Youngs Moduli (GPa) = 145.24301 86.12131 14.46034
#
# Poissons Ratio (x) = 0.02876 0.12091
# Poissons Ratio (y) = 0.04850 0.20898
# Poissons Ratio (z) = 1.21448 1.24462
#
# Static dielectric constant tensor:
#      x y z
#    x 1.952370 0.000000 0.000000 
#    y 0.000000 1.771270 0.000000 
#    z 0.000000 0.000000 1.824970 
# 
# From -- ./inp_files/10780.got.cif
#   From: 2010.05.17/outbox.cif.g08.bks.cpg/sg67_6_cif.got.tgz:10780.got - 2010.06.03 18:28:57.
