data_PCOD9505415
_publ_section_title
;
Structure prediction by ZEFSAII (Michael W. Deem and Ramdas Pophale) SiO2 
 PCOD9505415
Probable space group: C C C A
;
_chemical_formula_sum "Si O2"
_cell_formula_units_Z 52
_cell_length_a 8.385557
_cell_length_b 11.843529
_cell_length_c 19.583133
_cell_angle_alpha 90.000000
_cell_angle_beta 90.000000
_cell_angle_gamma 90.000000
_cell_volume 1944.890776
_symmetry_space_group_name_H-M "C C C A"
_symmetry_group_IT_number 68
_space_group.IT_coordinate_system_code '2'
_symmetry_cell_setting 'orthorhombic'
loop_
_space_group_symop_operation_xyz
x,y,z
-x,1/2-y,z
x,1/2-y,1/2-z
-x,y,1/2-z
-x,-y,-z
x,1/2+y,-z
-x,1/2+y,1/2+z
x,-y,1/2+z
1/2+x,1/2+y,z
1/2-x,-y,z
1/2+x,-y,1/2-z
1/2-x,1/2+y,1/2-z
1/2-x,1/2-y,-z
1/2+x,y,-z
1/2-x,y,1/2+z
1/2+x,1/2-y,1/2+z
loop_
_atom_site_type_symbol
_atom_site_label
_atom_site_fract_x
_atom_site_fract_y
_atom_site_fract_z
Si Si1 0.768111 0.153068 0.157634
Si Si2 0.609979 0.408652 0.629964
Si Si3 0.877458 0.841064 0.022225
Si Si4 0.000000 0.750000 0.250000
O O1 0.821806 0.283878 0.145466
O O2 0.690847 0.103800 0.088956
O O3 0.623802 0.168003 0.210277
O O4 0.938345 0.090243 0.168403
O O5 0.750000 0.500000 0.643854
O O6 0.578942 0.408804 0.546638
O O7 0.000000 0.750000 0.050429
O O8 0.750000 0.750000 0.000000
#
# Coordination Sequence:
#
# PCOD9505415 Si02
#       4
#    16  16  16   4
#     4  10  22  40  62  96 131 183 248 290 350 449
#     4  10  21  39  65  97 137 177 228 304 378 436
#     4  10  16  34  60  90 137 172 218 300 355 433
#     4  12  24  42  72  84 132 204 248 300 368 404
#
# _framework density 26.736719999999998
#
# number of rings (size 3 to 8) (size 9 to 14) (size 15 to 20)
#    0.000    1.846    7.692    0.000    0.000    3.692 
#    0.000    4.615    0.000    0.000    0.000    0.000 
#    0.000    0.000    0.000    0.000    0.000   24.615 
#
# Total GULP energy -144990.532069 kJ/mol
# GULP energy per Si atom -5576.558926 kJ/mol
# Density = 2.667587 g / cm^3
# Si number density = 26.736720 Si / 1000 Ang^3
#
#
#
# Elastic Constant Matrix: (Units=GPa)
#
#
# Indices 1 2 3 4 5 6 
#
# 1 248.8037 78.8418 90.4907 0.0000 0.0000 0.0000
# 2 78.8418 162.7055 28.8715 0.0000 0.0000 0.0000
# 3 90.4907 28.8715 118.0828 0.0000 0.0000 0.0000
# 4 0.0000 0.0000 0.0000 14.2610 0.0000 0.0000
# 5 0.0000 0.0000 0.0000 0.0000 50.1020 0.0000
# 6 0.0000 0.0000 0.0000 0.0000 0.0000 60.7580
#
#
#
# Elastic Compliance Matrix: (Units=1/GPa)
#
#
# Indices 1 2 3 4 5 6 
#
# 1 0.006298 -0.002295 -0.004265 0.000000 0.000000 0.000000
# 2 -0.002295 0.007261 -0.000017 0.000000 0.000000 0.000000
# 3 -0.004265 -0.000017 0.011741 0.000000 0.000000 0.000000
# 4 0.000000 0.000000 0.000000 0.070121 0.000000 0.000000
# 5 0.000000 0.000000 0.000000 0.000000 0.019959 0.000000
# 6 0.000000 0.000000 0.000000 0.000000 0.000000 0.016459
#
#
# Mechanical properties :
#
#
# Convention : Reuss Voigt Hill
#
# Bulk Modulus (GPa) = 82.32699 102.88892 92.60795
# Shear Modulus (GPa) = 33.54778 47.11672 40.33225
#
# Velocity S-wave (km/s) = 3.54608 4.20247 3.88815
# Velocity P-wave (km/s) = 6.90108 7.88121 7.40737
#
# Compressibility (1/GPa) = 0.01214669
#
# Stress axis : x y z
#
# Youngs Moduli (GPa) = 158.79053 137.72137 85.17079
#
# Poissons Ratio (x) = 0.31604 0.36325
# Poissons Ratio (y) = 0.36439 0.00143
# Poissons Ratio (z) = 0.67724 0.00231
#
# Static dielectric constant tensor:
#      x y z
#    x 2.301370 0.000000 0.000000 
#    y 0.000000 1.805230 0.000000 
#    z 0.000000 0.000000 2.175890 
# 
# From -- ./inp_files/42626.got.cif
#   From: 2010.05.17/outbox.cif.g08.bks.cpg/sg68_22_cif.got.tgz:42626.got - 2010.06.03 18:57:09.
