data_PCOD9505652
_publ_section_title
;
Structure prediction by ZEFSAII (Michael W. Deem and Ramdas Pophale) SiO2 
 PCOD9505652
Probable space group: C C C A
;
_chemical_formula_sum "Si O2"
_cell_formula_units_Z 80
_cell_length_a 30.712635
_cell_length_b 25.332151
_cell_length_c 5.101399
_cell_angle_alpha 90.000000
_cell_angle_beta 90.000000
_cell_angle_gamma 90.000000
_cell_volume 3968.975694
_symmetry_space_group_name_H-M "C C C A"
_symmetry_group_IT_number 68
_space_group.IT_coordinate_system_code '2'
_symmetry_cell_setting 'orthorhombic'
loop_
_space_group_symop_operation_xyz
x,y,z
-x,1/2-y,z
x,1/2-y,1/2-z
-x,y,1/2-z
-x,-y,-z
x,1/2+y,-z
-x,1/2+y,1/2+z
x,-y,1/2+z
1/2+x,1/2+y,z
1/2-x,-y,z
1/2+x,-y,1/2-z
1/2-x,1/2+y,1/2-z
1/2-x,1/2-y,-z
1/2+x,y,-z
1/2-x,y,1/2+z
1/2+x,1/2-y,1/2+z
loop_
_atom_site_type_symbol
_atom_site_label
_atom_site_fract_x
_atom_site_fract_y
_atom_site_fract_z
Si Si1 0.594680 0.639447 0.225590
Si Si2 0.907726 0.474956 0.956915
Si Si3 0.632382 0.810019 0.765699
Si Si4 0.000000 0.626603 0.750000
Si Si5 0.000000 0.553708 0.250000
Si Si6 0.231405 0.309596 0.957625
O O1 0.607492 0.653625 0.522288
O O2 0.544363 0.656669 0.182532
O O3 0.596001 0.579330 0.118059
O O4 0.626655 0.669038 0.027164
O O5 0.889193 0.482394 0.664081
O O6 0.958975 0.477734 0.869421
O O7 0.615800 0.750000 0.750000
O O8 0.682298 0.808502 0.860386
O O9 0.012707 0.591248 0.495702
O O10 0.238423 0.335584 0.237921
O O11 0.250000 0.250000 0.000000
#
# Coordination Sequence:
#
# PCOD9505652 Si02
#       6
#    16  16  16   8   8  16
#     4  11  24  38  55  83 115 159 205 237 290 337
#     4  11  20  34  55  81 114 147 194 253 304 349
#     4  12  23  38  59  85 119 154 187 235 294 353
#     4  10  20  39  53  72 119 158 203 264 275 321
#     4  10  18  31  56  82 102 142 198 258 328 349
#     4  10  19  34  59  87 116 140 163 225 313 362
#
# _framework density 20.156334999999999
#
# number of rings (size 3 to 8) (size 9 to 14) (size 15 to 20)
#    0.000    1.200    2.000    8.400    2.800    0.800 
#    0.000    3.000    0.000    0.000    0.000    0.000 
#    0.000   56.000    0.000    0.000    0.000    0.000 
#
# Total GULP energy -222822.655326 kJ/mol
# GULP energy per Si atom -5570.566383 kJ/mol
# Density = 2.011046 g / cm^3
# Si number density = 20.156335 Si / 1000 Ang^3
#
#
#
# Elastic Constant Matrix: (Units=GPa)
#
#
# Indices 1 2 3 4 5 6 
#
# 1 73.6047 3.6728 -0.3591 0.0000 0.0000 0.0000
# 2 3.6728 36.2606 10.3353 0.0000 0.0000 0.0000
# 3 -0.3591 10.3353 140.8728 0.0000 0.0000 0.0000
# 4 0.0000 0.0000 0.0000 27.4277 0.0000 0.0000
# 5 0.0000 0.0000 0.0000 0.0000 32.9271 0.0000
# 6 0.0000 0.0000 0.0000 0.0000 0.0000 41.0549
#
#
#
# Elastic Compliance Matrix: (Units=1/GPa)
#
#
# Indices 1 2 3 4 5 6 
#
# 1 0.013658 -0.001423 0.000139 0.000000 0.000000 0.000000
# 2 -0.001423 0.028315 -0.002081 0.000000 0.000000 0.000000
# 3 0.000139 -0.002081 0.007252 0.000000 0.000000 0.000000
# 4 0.000000 0.000000 0.000000 0.036459 0.000000 0.000000
# 5 0.000000 0.000000 0.000000 0.000000 0.030370 0.000000
# 6 0.000000 0.000000 0.000000 0.000000 0.000000 0.024358
#
#
# Mechanical properties :
#
#
# Convention : Reuss Voigt Hill
#
# Bulk Modulus (GPa) = 23.53211 30.89289 27.21250
# Shear Modulus (GPa) = 30.99685 36.08790 33.54237
#
# Velocity S-wave (km/s) = 3.92576 4.23590 4.08378
# Velocity P-wave (km/s) = 5.67882 6.26767 5.98050
#
# Compressibility (1/GPa) = 0.04249512
#
# Stress axis : x y z
#
# Youngs Moduli (GPa) = 73.21840 35.31644 137.89990
#
# Poissons Ratio (x) = 0.05026 -0.01920
# Poissons Ratio (y) = 0.10419 0.28697
# Poissons Ratio (z) = -0.01019 0.07349
#
# Static dielectric constant tensor:
#      x y z
#    x 1.748730 0.000000 0.000000 
#    y 0.000000 1.442870 0.000000 
#    z 0.000000 0.000000 1.698130 
# 
# From -- ./inp_files/2754.got.cif
#   From: 2010.05.17/outbox.cif.g08.bks.cpg/sg68_2_cif.got.tgz:2754.got - 2010.06.03 18:57:09.
