data_PCOD9505482
_publ_section_title
;
Structure prediction by ZEFSAII (Michael W. Deem and Ramdas Pophale) SiO2 
 PCOD9505482
Probable space group: C C C A
;
_chemical_formula_sum "Si O2"
_cell_formula_units_Z 116
_cell_length_a 14.476351
_cell_length_b 26.040533
_cell_length_c 14.140098
_cell_angle_alpha 90.000000
_cell_angle_beta 90.000000
_cell_angle_gamma 90.000000
_cell_volume 5330.419552
_symmetry_space_group_name_H-M "C C C A"
_symmetry_group_IT_number 68
_space_group.IT_coordinate_system_code '2'
_symmetry_cell_setting 'orthorhombic'
loop_
_space_group_symop_operation_xyz
x,y,z
-x,1/2-y,z
x,1/2-y,1/2-z
-x,y,1/2-z
-x,-y,-z
x,1/2+y,-z
-x,1/2+y,1/2+z
x,-y,1/2+z
1/2+x,1/2+y,z
1/2-x,-y,z
1/2+x,-y,1/2-z
1/2-x,1/2+y,1/2-z
1/2-x,1/2-y,-z
1/2+x,y,-z
1/2-x,y,1/2+z
1/2+x,1/2-y,1/2+z
loop_
_atom_site_type_symbol
_atom_site_label
_atom_site_fract_x
_atom_site_fract_y
_atom_site_fract_z
Si Si1 0.393679 0.890262 0.847616
Si Si2 0.605645 0.112827 0.743250
Si Si3 0.859320 0.005608 0.736340
Si Si4 0.641414 0.511078 0.549366
Si Si5 0.598502 0.342413 0.157568
Si Si6 0.897499 0.393415 0.049077
Si Si7 0.388682 0.119976 0.960211
Si Si8 0.000000 0.750000 0.250000
O O1 0.393097 0.951389 0.834530
O O2 0.499762 0.871955 0.850133
O O3 0.353118 0.865471 0.751715
O O4 0.351302 0.877159 0.950058
O O5 0.500000 0.131929 0.750000
O O6 0.646999 0.119077 0.848923
O O7 0.649311 0.132083 0.644849
O O8 0.600816 0.051093 0.729180
O O9 0.876534 0.026396 0.841940
O O10 0.750000 0.000000 0.723505
O O11 0.750000 0.500000 0.539719
O O12 0.594301 0.455495 0.541023
O O13 0.621644 0.559307 0.483423
O O14 0.565620 0.285383 0.185186
O O15 0.643902 0.350717 0.055097
O O16 0.000917 0.371255 0.049211
#
# Coordination Sequence:
#
# PCOD9505482 Si02
#       8
#    16  16  16  16  16  16  16   4
#     4   9  16  27  43  60  84 116 151 182 221 263
#     4   9  19  28  40  57  84 124 163 187 208 249
#     4  10  19  28  39  59  92 130 162 193 216 250
#     4  10  19  28  39  59  91 129 163 194 216 247
#     4   9  18  29  50  70  88 110 142 191 243 285
#     4   9  18  28  40  59  83 123 165 188 208 250
#     4  10  17  30  44  61  85 121 156 185 225 266
#     4   8  16  32  48  76  94 100 128 200 258 286
#
# _framework density 21.761887999999999
#
# number of rings (size 3 to 8) (size 9 to 14) (size 15 to 20)
#    0.000    2.759    1.379    1.241    1.931    4.414 
#    0.000    0.000    0.000    0.000    0.000   23.655 
#    0.000   27.586    1.379    0.000    0.828    0.000 
#
# Total GULP energy -323322.185698 kJ/mol
# GULP energy per Si atom -5574.520443 kJ/mol
# Density = 2.171236 g / cm^3
# Si number density = 21.761888 Si / 1000 Ang^3
#
#
#
# Elastic Constant Matrix: (Units=GPa)
#
#
# Indices 1 2 3 4 5 6 
#
# 1 40.7680 6.9671 22.3531 0.0000 0.0000 0.0000
# 2 6.9671 38.5899 29.7430 0.0000 0.0000 0.0000
# 3 22.3531 29.7430 268.2104 0.0000 0.0000 0.0000
# 4 0.0000 0.0000 0.0000 12.6170 0.0000 0.0000
# 5 0.0000 0.0000 0.0000 0.0000 16.0905 0.0000
# 6 0.0000 0.0000 0.0000 0.0000 0.0000 -27.9725
#
#
#
# Elastic Compliance Matrix: (Units=1/GPa)
#
#
# Indices 1 2 3 4 5 6 
#
# 1 0.026086 -0.003318 -0.001806 0.000000 0.000000 0.000000
# 2 -0.003318 0.028757 -0.002913 0.000000 0.000000 0.000000
# 3 -0.001806 -0.002913 0.004202 0.000000 0.000000 0.000000
# 4 0.000000 0.000000 0.000000 0.079258 0.000000 0.000000
# 5 0.000000 0.000000 0.000000 0.000000 0.062149 0.000000
# 6 0.000000 0.000000 0.000000 0.000000 0.000000 -0.035749
#
#
# Mechanical properties :
#
#
# Convention : Reuss Voigt Hill
#
# Bulk Modulus (GPa) = 23.27041 51.74384 37.50713
# Shear Modulus (GPa) = 25.62795 19.38068 22.50431
#
# Velocity S-wave (km/s) = 3.43542 2.98749 3.21926
# Velocity P-wave (km/s) = 5.14320 5.97738 5.57591
#
# Compressibility (1/GPa) = 0.04297302
#
# Stress axis : x y z
#
# Youngs Moduli (GPa) = 38.33431 34.77376 237.98595
#
# Poissons Ratio (x) = 0.11536 0.42984
# Poissons Ratio (y) = 0.12718 0.69314
# Poissons Ratio (z) = 0.06924 0.10128
#
# Static dielectric constant tensor:
#      x y z
#    x 1.817640 0.000000 0.000000 
#    y 0.000000 1.744580 0.000000 
#    z 0.000000 0.000000 1.962910 
# 
# From -- ./inp_files/23983.got.cif
#   From: 2010.05.17/outbox.cif.g08.bks.cpg/sg68_12_cif.got.tgz:23983.got - 2010.06.03 18:57:09.
