data_PCOD9505173
_publ_section_title
;
Structure prediction by ZEFSAII (Michael W. Deem and Ramdas Pophale) SiO2 
 PCOD9505173
Probable space group: C M M A
;
_chemical_formula_sum "Si O2"
_cell_formula_units_Z 44
_cell_length_a 30.000000
_cell_length_b 9.000000
_cell_length_c 18.000000
_cell_angle_alpha 90.000000
_cell_angle_beta 90.000000
_cell_angle_gamma 90.000000
_cell_volume 4860.000000
_symmetry_space_group_name_H-M "C M M A"
_symmetry_group_IT_number 67
_symmetry_cell_setting 'orthorhombic'
loop_
_space_group_symop_operation_xyz
x,y,z
-x,1/2-y,z
x,-y,-z
-x,1/2+y,-z
-x,-y,-z
x,1/2+y,-z
-x,y,z
x,1/2-y,z
1/2+x,1/2+y,z
1/2-x,-y,z
1/2+x,1/2-y,-z
1/2-x,y,-z
1/2-x,1/2-y,-z
1/2+x,y,-z
1/2-x,1/2+y,z
1/2+x,-y,z
loop_
_atom_site_type_symbol
_atom_site_label
_atom_site_fract_x
_atom_site_fract_y
_atom_site_fract_z
Si Si1 0.210781 0.587083 0.320324
Si Si2 0.701950 0.569962 0.081791
Si Si3 0.864554 0.582063 0.195453
Si Si4 0.656070 0.584808 0.429702
Si Si5 0.500000 0.931436 0.417237
Si Si6 0.421438 0.081805 0.691582
O O1 0.226689 0.750000 0.338342
O O2 0.250000 0.500000 0.281469
O O3 0.170127 0.594332 0.263772
O O4 0.196719 0.504470 0.394946
O O5 0.704993 0.750000 0.079658
O O6 0.750000 0.500000 0.105263
O O7 0.661679 0.516545 0.135049
O O8 0.694145 0.500000 0.000000
O O9 0.872954 0.750000 0.167855
O O10 0.907580 0.509597 0.235410
O O11 0.636464 0.500000 0.500000
O O12 0.668346 0.750000 0.452411
O O13 0.621170 0.592271 0.362598
O O14 0.500000 0.750000 0.424855
O O15 0.458562 0.977216 0.365199
O O16 0.500000 0.000000 0.500000
O O17 0.434047 0.250000 0.713595
#
# Coordination Sequence:
#
# PCOD9505173 Si02
#       6
#    16  16  16  16   8  16
#     4  10  20  32  46  64  87 118 158 200 242 288
#     4  11  21  34  53  79 112 146 181 219 259 304
#     4  10  20  34  52  74 101 134 171 211 255 306
#     4  10  19  31  46  63  87 118 155 198 245 294
#     4  10  20  34  54  80 109 138 173 218 272 328
#     4   9  19  34  51  73 100 132 167 207 257 314
#
# _framework density 9.0534979999999994
#
# number of rings (size 3 to 8) (size 9 to 14) (size 15 to 20)
#    0.000    2.000    0.000    4.909    0.000    5.455 
#    0.000    1.818    0.000    0.000    0.000    0.636 
#    0.000    0.000    0.000    0.000    0.000    0.000 
#
# Total GULP energy -244993.850046 kJ/mol
# GULP energy per Si atom -5568.042046 kJ/mol
# Density = 0.903289 g / cm^3
# Si number density = 9.053498 Si / 1000 Ang^3
#
#
#
# Elastic Constant Matrix: (Units=GPa)
#
#
# Indices 1 2 3 4 5 6 
#
# 1 64.5386 35.7694 28.1363 0.0000 0.0000 0.0000
# 2 35.7694 141.7030 53.7852 0.0000 0.0000 0.0000
# 3 28.1363 53.7852 81.7165 0.0000 0.0000 0.0000
# 4 0.0000 0.0000 0.0000 114.9629 0.0000 0.0000
# 5 0.0000 0.0000 0.0000 0.0000 27.1559 0.0000
# 6 0.0000 0.0000 0.0000 0.0000 0.0000 13.2951
#
#
#
# Elastic Compliance Matrix: (Units=1/GPa)
#
#
# Indices 1 2 3 4 5 6 
#
# 1 0.019212 -0.003118 -0.004563 0.000000 0.000000 0.000000
# 2 -0.003118 0.009913 -0.005451 0.000000 0.000000 0.000000
# 3 -0.004563 -0.005451 0.017397 0.000000 0.000000 0.000000
# 4 0.000000 0.000000 0.000000 0.008698 0.000000 0.000000
# 5 0.000000 0.000000 0.000000 0.000000 0.036824 0.000000
# 6 0.000000 0.000000 0.000000 0.000000 0.000000 0.075216
#
#
# Mechanical properties :
#
#
# Convention : Reuss Voigt Hill
#
# Bulk Modulus (GPa) = 49.36392 58.14888 53.75640
# Shear Modulus (GPa) = 24.96553 42.43394 33.69973
#
# Velocity S-wave (km/s) = 3.71722 4.84623 4.31878
# Velocity P-wave (km/s) = 6.76352 7.96859 7.39065
#
# Compressibility (1/GPa) = 0.02025771
#
# Stress axis : x y z
#
# Youngs Moduli (GPa) = 52.05156 100.87689 57.48282
#
# Poissons Ratio (x) = 0.31449 0.26229
# Poissons Ratio (y) = 0.16228 0.31335
# Poissons Ratio (z) = 0.23751 0.54991
#
# Static dielectric constant tensor:
#      x y z
#    x 1.711800 0.000000 0.000000 
#    y 0.000000 1.647470 0.000000 
#    z 0.000000 0.000000 1.605300 
# 
# From -- ./inp_files/36147.got.cif
#   From: 2010.05.17/outbox.ucp.g08.bks.cvg/sg67_19_cif.got.tgz:36147.got - 2010.06.11 16:47:20.
