data_PCOD9505346
_publ_section_title
;
Structure prediction by ZEFSAII (Michael W. Deem and Ramdas Pophale) SiO2 
 PCOD9505346
Probable space group: C C C A
;
_chemical_formula_sum "Si O2"
_cell_formula_units_Z 112
_cell_length_a 19.766919
_cell_length_b 16.931719
_cell_length_c 18.185758
_cell_angle_alpha 90.000000
_cell_angle_beta 90.000000
_cell_angle_gamma 90.000000
_cell_volume 6086.553482
_symmetry_space_group_name_H-M "C C C A"
_symmetry_group_IT_number 68
_space_group.IT_coordinate_system_code '2'
_symmetry_cell_setting 'orthorhombic'
loop_
_space_group_symop_operation_xyz
x,y,z
-x,1/2-y,z
x,1/2-y,1/2-z
-x,y,1/2-z
-x,-y,-z
x,1/2+y,-z
-x,1/2+y,1/2+z
x,-y,1/2+z
1/2+x,1/2+y,z
1/2-x,-y,z
1/2+x,-y,1/2-z
1/2-x,1/2+y,1/2-z
1/2-x,1/2-y,-z
1/2+x,y,-z
1/2-x,y,1/2+z
1/2+x,1/2-y,1/2+z
loop_
_atom_site_type_symbol
_atom_site_label
_atom_site_fract_x
_atom_site_fract_y
_atom_site_fract_z
Si Si1 0.327069 0.380746 0.052716
Si Si2 0.184013 0.053888 0.111059
Si Si3 0.325550 0.159112 0.916100
Si Si4 0.941299 0.943974 0.410205
Si Si5 0.362823 0.294177 0.417895
Si Si6 0.272997 0.797414 0.175414
Si Si7 0.578464 0.476199 0.915725
O O1 0.250900 0.374999 0.083741
O O2 0.367558 0.300475 0.072631
O O3 0.365598 0.455733 0.083829
O O4 0.323461 0.396188 0.964864
O O5 0.194481 0.116072 0.176507
O O6 0.250000 0.000000 0.102316
O O7 0.120639 0.996385 0.119247
O O8 0.320196 0.241045 0.873782
O O9 0.383504 0.101263 0.885726
O O10 0.340472 0.175816 0.001583
O O11 0.924776 0.851527 0.395264
O O12 0.938787 0.954260 0.499143
O O13 0.010718 0.984318 0.383838
O O14 0.299537 0.307219 0.363886
O O15 0.263728 0.750000 0.250000
#
# Coordination Sequence:
#
# PCOD9505346 Si02
#       7
#    16  16  16  16  16  16  16
#     4  10  16  27  53  81 107 137 179 215 277 324
#     4  11  17  32  54  76 103 148 180 214 276 336
#     4  10  17  33  53  76 111 141 176 221 279 320
#     4   9  18  30  50  78 112 139 182 217 267 328
#     4  10  17  32  54  80 109 142 171 226 281 326
#     4  11  21  33  52  85 107 131 186 237 270 317
#     4   9  18  29  47  82 111 140 175 227 259 321
#
# _framework density 18.401218
#
# number of rings (size 3 to 8) (size 9 to 14) (size 15 to 20)
#    0.000    2.000    4.286    3.000    0.000    0.571 
#    0.000    3.571    0.000    1.714    0.000    4.000 
#    0.000    0.000    0.000    0.000    0.000    0.000 
#
# Total GULP energy -311944.948228 kJ/mol
# GULP energy per Si atom -5570.445504 kJ/mol
# Density = 1.835934 g / cm^3
# Si number density = 18.401218 Si / 1000 Ang^3
#
#
#
# Elastic Constant Matrix: (Units=GPa)
#
#
# Indices 1 2 3 4 5 6 
#
# 1 48.8092 32.6620 5.5252 0.0000 0.0000 0.0000
# 2 32.6620 105.7727 14.4538 0.0000 0.0000 0.0000
# 3 5.5252 14.4538 31.8090 0.0000 0.0000 0.0000
# 4 0.0000 0.0000 0.0000 4.5335 0.0000 0.0000
# 5 0.0000 0.0000 0.0000 0.0000 -1.4972 0.0000
# 6 0.0000 0.0000 0.0000 0.0000 0.0000 25.9885
#
#
#
# Elastic Compliance Matrix: (Units=1/GPa)
#
#
# Indices 1 2 3 4 5 6 
#
# 1 0.025849 -0.007856 -0.000920 0.000000 0.000000 0.000000
# 2 -0.007856 0.012468 -0.004301 0.000000 0.000000 0.000000
# 3 -0.000920 -0.004301 0.033552 0.000000 0.000000 0.000000
# 4 0.000000 0.000000 0.000000 0.220580 0.000000 0.000000
# 5 0.000000 0.000000 0.000000 0.000000 -0.667927 0.000000
# 6 0.000000 0.000000 0.000000 0.000000 0.000000 0.038479
#
#
# Mechanical properties :
#
#
# Convention : Reuss Voigt Hill
#
# Bulk Modulus (GPa) = 21.87486 32.40809 27.14148
# Shear Modulus (GPa) = -16.91439 14.72163 -1.09638
#
# Velocity S-wave (km/s) = -3.03512 2.83156 -0.77273
# Velocity P-wave (km/s) = 0.60751 5.32358 3.73975
#
# Compressibility (1/GPa) = 0.04571458
#
# Stress axis : x y z
#
# Youngs Moduli (GPa) = 38.68553 80.20564 29.80477
#
# Poissons Ratio (x) = 0.63013 0.02742
# Poissons Ratio (y) = 0.30393 0.12818
# Poissons Ratio (z) = 0.03560 0.34494
#
# Static dielectric constant tensor:
#      x y z
#    x 1.635500 0.000000 0.000000 
#    y 0.000000 1.672000 0.000000 
#    z 0.000000 0.000000 1.668610 
# 
# From -- ./inp_files/39726.got.cif
#   From: 2010.05.17/outbox.cif.g08.bks.cpg/sg68_20_cif.got.tgz:39726.got - 2010.06.03 18:57:09.
