data_PCOD9505763
_publ_section_title
;
Structure prediction by ZEFSAII (Michael W. Deem and Ramdas Pophale) SiO2 
 PCOD9505763
Probable space group: C C C A
;
_chemical_formula_sum "Si O2"
_cell_formula_units_Z 80
_cell_length_a 8.555350
_cell_length_b 28.757603
_cell_length_c 15.393877
_cell_angle_alpha 90.000000
_cell_angle_beta 90.000000
_cell_angle_gamma 90.000000
_cell_volume 3787.376476
_symmetry_space_group_name_H-M "C C C A"
_symmetry_group_IT_number 68
_space_group.IT_coordinate_system_code '2'
_symmetry_cell_setting 'orthorhombic'
loop_
_space_group_symop_operation_xyz
x,y,z
-x,1/2-y,z
x,1/2-y,1/2-z
-x,y,1/2-z
-x,-y,-z
x,1/2+y,-z
-x,1/2+y,1/2+z
x,-y,1/2+z
1/2+x,1/2+y,z
1/2-x,-y,z
1/2+x,-y,1/2-z
1/2-x,1/2+y,1/2-z
1/2-x,1/2-y,-z
1/2+x,y,-z
1/2-x,y,1/2+z
1/2+x,1/2-y,1/2+z
loop_
_atom_site_type_symbol
_atom_site_label
_atom_site_fract_x
_atom_site_fract_y
_atom_site_fract_z
Si Si1 0.872978 0.816570 0.039349
Si Si2 0.870373 0.163990 0.823161
Si Si3 0.834229 0.594382 0.576080
Si Si4 0.378661 0.533654 0.046289
Si Si5 0.171372 0.254796 0.366394
O O1 0.753219 0.793449 0.107203
O O2 0.036082 0.820818 0.089572
O O3 0.848713 0.867345 0.000330
O O4 0.861478 0.783046 0.956777
O O5 0.753437 0.121565 0.845774
O O6 0.771643 0.210455 0.806971
O O7 0.000000 0.153685 0.750000
O O8 0.716428 0.558142 0.531622
O O9 0.004926 0.571003 0.593337
O O10 0.750000 0.500000 0.906252
O O11 0.500000 0.500000 0.000000
O O12 0.000000 0.250000 0.332519
#
# Coordination Sequence:
#
# PCOD9505763 Si02
#       5
#    16  16  16  16  16
#     4  10  19  33  56  84 116 162 212 256 301 361
#     4  11  23  37  55  85 126 169 205 253 315 369
#     4  10  18  34  59  89 123 158 206 252 303 375
#     4   9  18  32  58  98 117 148 197 260 306 361
#     4  10  20  34  57  81 111 158 220 268 303 350
#
# _framework density 21.122800000000002
#
# number of rings (size 3 to 8) (size 9 to 14) (size 15 to 20)
#    0.000    2.000    2.000    4.200    2.800    1.600 
#    0.000    2.000    0.000    0.000   15.600    0.000 
#    0.000    0.000    0.000    0.000    0.000    1.800 
#
# Total GULP energy -222919.245673 kJ/mol
# GULP energy per Si atom -5572.981142 kJ/mol
# Density = 2.107472 g / cm^3
# Si number density = 21.122800 Si / 1000 Ang^3
#
#
#
# Elastic Constant Matrix: (Units=GPa)
#
#
# Indices 1 2 3 4 5 6 
#
# 1 168.6080 73.0504 35.3810 0.0000 0.0000 0.0000
# 2 73.0504 122.0224 21.8664 0.0000 0.0000 0.0000
# 3 35.3810 21.8664 76.9191 0.0000 0.0000 0.0000
# 4 0.0000 0.0000 0.0000 15.9490 0.0000 0.0000
# 5 0.0000 0.0000 0.0000 0.0000 17.4292 0.0000
# 6 0.0000 0.0000 0.0000 0.0000 0.0000 66.7002
#
#
#
# Elastic Compliance Matrix: (Units=1/GPa)
#
#
# Indices 1 2 3 4 5 6 
#
# 1 0.008470 -0.004607 -0.002586 0.000000 0.000000 0.000000
# 2 -0.004607 0.011141 -0.001048 0.000000 0.000000 0.000000
# 3 -0.002586 -0.001048 0.014488 0.000000 0.000000 0.000000
# 4 0.000000 0.000000 0.000000 0.062700 0.000000 0.000000
# 5 0.000000 0.000000 0.000000 0.000000 0.057375 0.000000
# 6 0.000000 0.000000 0.000000 0.000000 0.000000 0.014992
#
#
# Mechanical properties :
#
#
# Convention : Reuss Voigt Hill
#
# Bulk Modulus (GPa) = 56.76513 69.79389 63.27951
# Shear Modulus (GPa) = 26.10686 35.83248 30.96967
#
# Velocity S-wave (km/s) = 3.51943 4.12319 3.83322
# Velocity P-wave (km/s) = 6.59146 7.46869 7.04375
#
# Compressibility (1/GPa) = 0.01761645
#
# Stress axis : x y z
#
# Youngs Moduli (GPa) = 118.06911 89.75792 69.02184
#
# Poissons Ratio (x) = 0.41352 0.17850
# Poissons Ratio (y) = 0.54395 0.07234
# Poissons Ratio (z) = 0.30534 0.09407
#
# Static dielectric constant tensor:
#      x y z
#    x 1.903440 0.000000 0.000000 
#    y 0.000000 1.978970 0.000000 
#    z 0.000000 0.000000 1.923850 
# 
# From -- ./inp_files/28322.got.cif
#   From: 2010.05.17/outbox.cif.g08.bks.cpg/sg68_15_cif.got.tgz:28322.got - 2010.06.03 18:57:09.
