data_PCOD9505818
_publ_section_title
;
Structure prediction by ZEFSAII (Michael W. Deem and Ramdas Pophale) SiO2 
 PCOD9505818
Probable space group: C C C A
;
_chemical_formula_sum "Si O2"
_cell_formula_units_Z 72
_cell_length_a 9.291352
_cell_length_b 17.158407
_cell_length_c 23.812598
_cell_angle_alpha 90.000000
_cell_angle_beta 90.000000
_cell_angle_gamma 90.000000
_cell_volume 3796.318654
_symmetry_space_group_name_H-M "C C C A"
_symmetry_group_IT_number 68
_space_group.IT_coordinate_system_code '2'
_symmetry_cell_setting 'orthorhombic'
loop_
_space_group_symop_operation_xyz
x,y,z
-x,1/2-y,z
x,1/2-y,1/2-z
-x,y,1/2-z
-x,-y,-z
x,1/2+y,-z
-x,1/2+y,1/2+z
x,-y,1/2+z
1/2+x,1/2+y,z
1/2-x,-y,z
1/2+x,-y,1/2-z
1/2-x,1/2+y,1/2-z
1/2-x,1/2-y,-z
1/2+x,y,-z
1/2-x,y,1/2+z
1/2+x,1/2-y,1/2+z
loop_
_atom_site_type_symbol
_atom_site_label
_atom_site_fract_x
_atom_site_fract_y
_atom_site_fract_z
Si Si1 0.549132 0.433807 0.370404
Si Si2 0.120354 0.057365 0.525310
Si Si3 0.747421 0.750000 0.250000
Si Si4 0.000000 0.375913 0.750000
Si Si5 0.859624 0.109059 0.095940
Si Si6 0.500000 0.250000 0.657332
O O1 0.439535 0.404397 0.418308
O O2 0.494662 0.424460 0.307404
O O3 0.699379 0.388513 0.378607
O O4 0.580798 0.524320 0.384973
O O5 0.156824 0.110514 0.471717
O O6 0.250000 0.000000 0.539880
O O7 0.000000 0.000000 0.500000
O O8 0.856963 0.677390 0.253632
O O9 0.639503 0.760171 0.302639
O O10 0.962816 0.175560 0.119255
#
# Coordination Sequence:
#
# PCOD9505818 Si02
#       6
#    16  16   8   8  16   8
#     4  10  21  39  65  92 125 162 217 265 315 378
#     4  10  18  36  63  90 124 159 202 265 329 368
#     4  10  24  40  60  86 132 166 200 254 334 382
#     4  11  22  42  62  91 122 162 212 267 310 382
#     4  10  20  40  63  93 124 164 211 265 318 387
#     4  11  22  42  62  88 126 173 202 254 330 385
#
# _framework density 18.965741999999999
#
# number of rings (size 3 to 8) (size 9 to 14) (size 15 to 20)
#    0.000    1.778    6.667    0.000    0.000    5.333 
#    4.000    3.333    0.000    0.000    0.000    0.000 
#    0.000    0.000    0.000    0.000    0.000    0.000 
#
# Total GULP energy -200706.492086 kJ/mol
# GULP energy per Si atom -5575.180336 kJ/mol
# Density = 1.892257 g / cm^3
# Si number density = 18.965742 Si / 1000 Ang^3
#
#
#
# Elastic Constant Matrix: (Units=GPa)
#
#
# Indices 1 2 3 4 5 6 
#
# 1 102.6947 28.6203 45.2981 0.0000 0.0000 0.0000
# 2 28.6203 55.8968 40.4459 0.0000 0.0000 0.0000
# 3 45.2981 40.4459 186.5712 0.0000 0.0000 0.0000
# 4 0.0000 0.0000 0.0000 12.3906 0.0000 0.0000
# 5 0.0000 0.0000 0.0000 0.0000 32.4007 0.0000
# 6 0.0000 0.0000 0.0000 0.0000 0.0000 19.8583
#
#
#
# Elastic Compliance Matrix: (Units=1/GPa)
#
#
# Indices 1 2 3 4 5 6 
#
# 1 0.011877 -0.004738 -0.001857 0.000000 0.000000 0.000000
# 2 -0.004738 0.023108 -0.003859 0.000000 0.000000 0.000000
# 3 -0.001857 -0.003859 0.006647 0.000000 0.000000 0.000000
# 4 0.000000 0.000000 0.000000 0.080706 0.000000 0.000000
# 5 0.000000 0.000000 0.000000 0.000000 0.030864 0.000000
# 6 0.000000 0.000000 0.000000 0.000000 0.000000 0.050357
#
#
# Mechanical properties :
#
#
# Convention : Reuss Voigt Hill
#
# Bulk Modulus (GPa) = 48.25011 63.76570 56.00790
# Shear Modulus (GPa) = 21.60994 28.31647 24.96320
#
# Velocity S-wave (km/s) = 3.37919 3.86817 3.63192
# Velocity P-wave (km/s) = 6.38131 7.32426 6.86899
#
# Compressibility (1/GPa) = 0.02072534
#
# Stress axis : x y z
#
# Youngs Moduli (GPa) = 84.19688 43.27417 150.43780
#
# Poissons Ratio (x) = 0.20503 0.27929
# Poissons Ratio (y) = 0.39891 0.58058
# Poissons Ratio (z) = 0.15631 0.16701
#
# Static dielectric constant tensor:
#      x y z
#    x 1.664020 0.000000 0.000000 
#    y 0.000000 1.637550 0.000000 
#    z 0.000000 0.000000 1.696440 
# 
# From -- ./inp_files/36086.got.cif
#   From: 2010.05.17/outbox.cif.g08.bks.cpg/sg68_19_cif.got.tgz:36086.got - 2010.06.03 18:57:09.
