data_PCOD9505999
_publ_section_title
;
Structure prediction by ZEFSAII (Michael W. Deem and Ramdas Pophale) SiO2 
 PCOD9505999
Probable space group: C C C A
;
_chemical_formula_sum "Si O2"
_cell_formula_units_Z 120
_cell_length_a 16.511791
_cell_length_b 27.679290
_cell_length_c 14.280506
_cell_angle_alpha 90.000000
_cell_angle_beta 90.000000
_cell_angle_gamma 90.000000
_cell_volume 6526.686083
_symmetry_space_group_name_H-M "C C C A"
_symmetry_group_IT_number 68
_space_group.IT_coordinate_system_code '2'
_symmetry_cell_setting 'orthorhombic'
loop_
_space_group_symop_operation_xyz
x,y,z
-x,1/2-y,z
x,1/2-y,1/2-z
-x,y,1/2-z
-x,-y,-z
x,1/2+y,-z
-x,1/2+y,1/2+z
x,-y,1/2+z
1/2+x,1/2+y,z
1/2-x,-y,z
1/2+x,-y,1/2-z
1/2-x,1/2+y,1/2-z
1/2-x,1/2-y,-z
1/2+x,y,-z
1/2-x,y,1/2+z
1/2+x,1/2-y,1/2+z
loop_
_atom_site_type_symbol
_atom_site_label
_atom_site_fract_x
_atom_site_fract_y
_atom_site_fract_z
Si Si1 0.403332 0.307063 0.548527
Si Si2 1.000000 0.946937 0.456181
Si Si3 0.826139 0.807419 0.750000
Si Si4 0.000000 0.599517 0.250000
Si Si5 0.673009 0.124572 0.249999
Si Si6 0.333667 0.397386 0.454993
Si Si7 0.166333 0.897387 0.454993
Si Si8 0.596668 0.307063 0.548527
O O1 0.375021 0.319301 0.654739
O O2 0.352821 0.341156 0.478868
O O3 0.500000 0.315108 0.538390
O O4 0.388081 0.250000 0.533236
O O5 0.915369 0.923287 0.488359
O O6 1.000000 0.934115 0.343520
O O7 0.084630 0.923287 0.488358
O O8 0.000000 0.000000 0.500000
O O9 0.814333 0.750000 0.750000
O O10 0.740079 0.834096 0.750000
O O11 0.875020 0.819301 0.845262
O O12 0.922828 0.634958 0.250001
O O13 0.681189 0.095420 0.345374
O O14 0.681190 0.095419 0.154626
O O15 0.250000 0.412668 0.499999
O O16 0.147179 0.841156 0.478868
#
# Coordination Sequence:
#
# PCOD9505999 Si02
#       8
#    16  16  16   8  16  16  16  16
#     4  10  20  35  55  83 117 153 195 237 282 335
#     4  10  22  42  63  87 113 144 190 240 292 346
#     4  10  19  32  54  83 117 153 190 238 284 328
#     4   8  20  40  61  80 114 148 177 232 294 336
#     4  10  20  35  54  80 115 148 185 227 281 338
#     4  11  21  37  62  84 113 154 190 233 289 342
#     4  11  21  37  62  84 113 154 190 233 289 342
#     4  10  20  35  55  83 117 153 195 237 282 335
#
# _framework density 18.386053
#
# number of rings (size 3 to 8) (size 9 to 14) (size 15 to 20)
#    0.000    1.867    4.000    0.400    0.000    3.733 
#    0.000    3.000    0.000    4.800    0.000    0.000 
#    0.000    0.000    0.000    0.000    0.000    0.000 
#
# Total GULP energy -334062.154035 kJ/mol
# GULP energy per Si atom -5567.702567 kJ/mol
# Density = 1.834421 g / cm^3
# Si number density = 18.386053 Si / 1000 Ang^3
#
#
#
# Elastic Constant Matrix: (Units=GPa)
#
#
# Indices 1 2 3 4 5 6 
#
# 1 147.8505 32.8917 41.8854 0.0000 0.0000 0.0000
# 2 32.8917 57.0789 18.5218 0.0000 0.0000 0.0000
# 3 41.8854 18.5218 57.5081 0.0000 0.0000 0.0000
# 4 0.0000 0.0000 0.0000 9.8538 0.0000 0.0000
# 5 0.0000 0.0000 0.0000 0.0000 21.2604 0.0000
# 6 0.0000 0.0000 0.0000 0.0000 0.0000 13.0862
#
#
#
# Elastic Compliance Matrix: (Units=1/GPa)
#
#
# Indices 1 2 3 4 5 6 
#
# 1 0.009093 -0.003451 -0.005511 0.000000 0.000000 0.000000
# 2 -0.003451 0.020874 -0.004209 0.000000 0.000000 0.000000
# 3 -0.005511 -0.004209 0.022758 0.000000 0.000000 0.000000
# 4 0.000000 0.000000 0.000000 0.101484 0.000000 0.000000
# 5 0.000000 0.000000 0.000000 0.000000 0.047036 0.000000
# 6 0.000000 0.000000 0.000000 0.000000 0.000000 0.076416
#
#
# Mechanical properties :
#
#
# Convention : Reuss Voigt Hill
#
# Bulk Modulus (GPa) = 37.90438 49.89282 43.89860
# Shear Modulus (GPa) = 15.98471 20.11598 18.05035
#
# Velocity S-wave (km/s) = 2.95175 3.31129 3.13667
# Velocity P-wave (km/s) = 5.68134 6.46643 6.08656
#
# Compressibility (1/GPa) = 0.02638218
#
# Stress axis : x y z
#
# Youngs Moduli (GPa) = 109.97933 47.90568 43.93982
#
# Poissons Ratio (x) = 0.16534 0.24215
# Poissons Ratio (y) = 0.37958 0.18496
# Poissons Ratio (z) = 0.60609 0.20165
#
# Static dielectric constant tensor:
#      x y z
#    x 1.657340 0.000000 0.000000 
#    y 0.000000 1.609370 0.000000 
#    z 0.000000 0.000000 1.674020 
# 
# From -- ./inp_files/22838.got.cif
#   From: 2010.05.17/outbox.cif.g08.bks.cpg/sg68_12_cif.got.tgz:22838.got - 2010.06.03 18:57:09.
