data_PCOD9505843
_publ_section_title
;
Structure prediction by ZEFSAII (Michael W. Deem and Ramdas Pophale) SiO2 
 PCOD9505843
Probable space group: C C C A
;
_chemical_formula_sum "Si O2"
_cell_formula_units_Z 56
_cell_length_a 12.427183
_cell_length_b 13.613352
_cell_length_c 14.755728
_cell_angle_alpha 90.000000
_cell_angle_beta 90.000000
_cell_angle_gamma 90.000000
_cell_volume 2496.309382
_symmetry_space_group_name_H-M "C C C A"
_symmetry_group_IT_number 68
_space_group.IT_coordinate_system_code '2'
_symmetry_cell_setting 'orthorhombic'
loop_
_space_group_symop_operation_xyz
x,y,z
-x,1/2-y,z
x,1/2-y,1/2-z
-x,y,1/2-z
-x,-y,-z
x,1/2+y,-z
-x,1/2+y,1/2+z
x,-y,1/2+z
1/2+x,1/2+y,z
1/2-x,-y,z
1/2+x,-y,1/2-z
1/2-x,1/2+y,1/2-z
1/2-x,1/2-y,-z
1/2+x,y,-z
1/2-x,y,1/2+z
1/2+x,1/2-y,1/2+z
loop_
_atom_site_type_symbol
_atom_site_label
_atom_site_fract_x
_atom_site_fract_y
_atom_site_fract_z
Si Si1 0.411759 0.001053 0.609573
Si Si2 0.863947 0.541232 0.817365
Si Si3 0.302852 0.750000 0.250000
Si Si4 0.739434 0.837605 0.930429
O O1 0.378743 0.995089 0.716705
O O2 0.538947 0.012916 0.616766
O O3 0.346259 0.094463 0.571711
O O4 0.363377 0.907296 0.558949
O O5 0.750000 0.500000 0.851840
O O6 0.865939 0.658311 0.795434
O O7 0.232758 0.793057 0.169667
O O8 0.750000 0.750000 0.000000
#
# Coordination Sequence:
#
# PCOD9505843 Si02
#       4
#    16  16   8  16
#     4   9  19  38  63 100 136 172 233 283 359 415
#     4  10  18  37  68  95 136 181 226 293 348 428
#     4  10  20  39  69  98 126 182 231 271 364 410
#     4  10  20  40  65  96 136 170 227 295 338 420
#
# _framework density 22.433115000000001
#
# number of rings (size 3 to 8) (size 9 to 14) (size 15 to 20)
#    0.000    2.286    5.714    0.000    0.000    9.143 
#    5.143    4.286    6.286    0.000    0.000    0.000 
#    0.000    0.000    0.000    0.000    0.000    0.000 
#
# Total GULP energy -156482.451132 kJ/mol
# GULP energy per Si atom -5588.658969 kJ/mol
# Density = 2.238206 g / cm^3
# Si number density = 22.433115 Si / 1000 Ang^3
#
#
#
# Elastic Constant Matrix: (Units=GPa)
#
#
# Indices 1 2 3 4 5 6 
#
# 1 212.0783 90.9770 59.1303 0.0000 0.0000 0.0000
# 2 90.9770 177.1304 67.4712 0.0000 0.0000 0.0000
# 3 59.1303 67.4712 87.4519 0.0000 0.0000 0.0000
# 4 0.0000 0.0000 0.0000 39.4186 0.0000 0.0000
# 5 0.0000 0.0000 0.0000 0.0000 30.5764 0.0000
# 6 0.0000 0.0000 0.0000 0.0000 0.0000 3.1287
#
#
#
# Elastic Compliance Matrix: (Units=1/GPa)
#
#
# Indices 1 2 3 4 5 6 
#
# 1 0.006425 -0.002330 -0.002547 0.000000 0.000000 0.000000
# 2 -0.002330 0.008840 -0.005245 0.000000 0.000000 0.000000
# 3 -0.002547 -0.005245 0.017203 0.000000 0.000000 0.000000
# 4 0.000000 0.000000 0.000000 0.025369 0.000000 0.000000
# 5 0.000000 0.000000 0.000000 0.000000 0.032705 0.000000
# 6 0.000000 0.000000 0.000000 0.000000 0.000000 0.319621
#
#
# Mechanical properties :
#
#
# Convention : Reuss Voigt Hill
#
# Bulk Modulus (GPa) = 81.79714 101.31309 91.55512
# Shear Modulus (GPa) = 11.50799 31.89689 21.70244
#
# Velocity S-wave (km/s) = 2.26739 3.77485 3.11373
# Velocity P-wave (km/s) = 6.58761 8.01622 7.33677
#
# Compressibility (1/GPa) = 0.01222537
#
# Stress axis : x y z
#
# Youngs Moduli (GPa) = 155.64965 113.12096 58.12822
#
# Poissons Ratio (x) = 0.26355 0.14802
# Poissons Ratio (y) = 0.36264 0.30488
# Poissons Ratio (z) = 0.39636 0.59332
#
# Static dielectric constant tensor:
#      x y z
#    x 1.828590 0.000000 0.000000 
#    y 0.000000 1.861270 0.000000 
#    z 0.000000 0.000000 1.852230 
# 
# From -- ./inp_files/20082.got.cif
#   From: 2010.05.17/outbox.cif.g08.bks.cpg/sg68_11_cif.got.tgz:20082.got - 2010.06.03 18:57:09.
