data_PCOD9505678
_publ_section_title
;
Structure prediction by ZEFSAII (Michael W. Deem and Ramdas Pophale) SiO2 
 PCOD9505678
Probable space group: C C C A
;
_chemical_formula_sum "Si O2"
_cell_formula_units_Z 48
_cell_length_a 24.201856
_cell_length_b 13.769563
_cell_length_c 5.453023
_cell_angle_alpha 90.000000
_cell_angle_beta 90.000000
_cell_angle_gamma 90.000000
_cell_volume 1817.214358
_symmetry_space_group_name_H-M "C C C A"
_symmetry_group_IT_number 68
_space_group.IT_coordinate_system_code '2'
_symmetry_cell_setting 'orthorhombic'
loop_
_space_group_symop_operation_xyz
x,y,z
-x,1/2-y,z
x,1/2-y,1/2-z
-x,y,1/2-z
-x,-y,-z
x,1/2+y,-z
-x,1/2+y,1/2+z
x,-y,1/2+z
1/2+x,1/2+y,z
1/2-x,-y,z
1/2+x,-y,1/2-z
1/2-x,1/2+y,1/2-z
1/2-x,1/2-y,-z
1/2+x,y,-z
1/2-x,y,1/2+z
1/2+x,1/2-y,1/2+z
loop_
_atom_site_type_symbol
_atom_site_label
_atom_site_fract_x
_atom_site_fract_y
_atom_site_fract_z
Si Si1 0.768863 0.639822 0.560051
Si Si2 0.437153 0.894657 0.659475
Si Si3 0.394020 0.884655 0.154526
O O1 0.750000 0.750000 0.500000
O O2 0.769754 0.598601 0.280222
O O3 0.829143 0.632003 0.680539
O O4 0.500000 0.906408 0.750000
O O5 0.428068 0.850233 0.391278
O O6 0.409624 0.001276 0.633345
O O7 0.408868 0.843291 0.888915
#
# Coordination Sequence:
#
# PCOD9505678 Si02
#       3
#    16  16  16
#     4  10  21  37  54  75 104 147 195 235 269 318
#     4  10  19  33  53  84 117 142 173 224 281 347
#     4  10  18  32  53  79 110 147 180 221 279 333
#
# _framework density 26.414057
#
# number of rings (size 3 to 8) (size 9 to 14) (size 15 to 20)
#    0.000    2.000    0.000    7.000    0.000    0.000 
#    0.000   20.000    0.000    0.000    0.000  112.000 
#    0.000    0.000    0.000    0.000    0.000    0.000 
#
# Total GULP energy -134094.806340 kJ/mol
# GULP energy per Si atom -5587.283597 kJ/mol
# Density = 2.635394 g / cm^3
# Si number density = 26.414057 Si / 1000 Ang^3
#
#
#
# Elastic Constant Matrix: (Units=GPa)
#
#
# Indices 1 2 3 4 5 6 
#
# 1 153.6213 -0.7065 25.0172 0.0000 0.0000 0.0000
# 2 -0.7065 100.2789 22.1519 0.0000 0.0000 0.0000
# 3 25.0172 22.1519 293.7287 0.0000 0.0000 0.0000
# 4 0.0000 0.0000 0.0000 13.6316 0.0000 0.0000
# 5 0.0000 0.0000 0.0000 0.0000 59.5292 0.0000
# 6 0.0000 0.0000 0.0000 0.0000 0.0000-3960.3705
#
#
#
# Elastic Compliance Matrix: (Units=1/GPa)
#
#
# Indices 1 2 3 4 5 6 
#
# 1 0.006604 0.000174 -0.000576 0.000000 0.000000 0.000000
# 2 0.000174 0.010146 -0.000780 0.000000 0.000000 0.000000
# 3 -0.000576 -0.000780 0.003512 0.000000 0.000000 0.000000
# 4 0.000000 0.000000 0.000000 0.073359 0.000000 0.000000
# 5 0.000000 0.000000 0.000000 0.000000 0.016798 0.000000
# 6 0.000000 0.000000 0.000000 0.000000 0.000000 -0.000253
#
#
# Mechanical properties :
#
#
# Convention : Reuss Voigt Hill
#
# Bulk Modulus (GPa) = 55.87088 71.17267 63.52177
# Shear Modulus (GPa) = 42.19513 -744.03087 -350.91787
#
# Velocity S-wave (km/s) = 4.00115 -16.80153 -11.53868
# Velocity P-wave (km/s) = 6.52253 18.69184 12.38632
#
# Compressibility (1/GPa) = 0.01789841
#
# Stress axis : x y z
#
# Youngs Moduli (GPa) = 151.42238 98.56392 284.71007
#
# Poissons Ratio (x) = -0.01712 0.16387
# Poissons Ratio (y) = -0.02630 0.22206
# Poissons Ratio (z) = 0.08715 0.07687
#
# Static dielectric constant tensor:
#      x y z
#    x 2.067730 0.000000 0.000000 
#    y 0.000000 2.598400 0.000000 
#    z 0.000000 0.000000 2.221180 
# 
# From -- ./inp_files/873.got.cif
#   From: 2010.05.17/outbox.cif.g08.bks.cpg/sg68_1_cif.got.tgz:873.got - 2010.06.03 18:57:09.
