data_PCOD9505941
_publ_section_title
;
Structure prediction by ZEFSAII (Michael W. Deem and Ramdas Pophale) SiO2 
 PCOD9505941
Probable space group: C C C A
;
_chemical_formula_sum "Si O2"
_cell_formula_units_Z 80
_cell_length_a 18.186914
_cell_length_b 5.543163
_cell_length_c 31.541262
_cell_angle_alpha 90.000000
_cell_angle_beta 90.000000
_cell_angle_gamma 90.000000
_cell_volume 3179.770153
_symmetry_space_group_name_H-M "C C C A"
_symmetry_group_IT_number 68
_space_group.IT_coordinate_system_code '2'
_symmetry_cell_setting 'orthorhombic'
loop_
_space_group_symop_operation_xyz
x,y,z
-x,1/2-y,z
x,1/2-y,1/2-z
-x,y,1/2-z
-x,-y,-z
x,1/2+y,-z
-x,1/2+y,1/2+z
x,-y,1/2+z
1/2+x,1/2+y,z
1/2-x,-y,z
1/2+x,-y,1/2-z
1/2-x,1/2+y,1/2-z
1/2-x,1/2-y,-z
1/2+x,y,-z
1/2-x,y,1/2+z
1/2+x,1/2-y,1/2+z
loop_
_atom_site_type_symbol
_atom_site_label
_atom_site_fract_x
_atom_site_fract_y
_atom_site_fract_z
Si Si1 0.617425 0.659901 0.390894
Si Si2 0.666196 0.793767 0.015965
Si Si3 0.402759 0.348411 0.363756
Si Si4 0.583024 0.505057 0.732741
Si Si5 0.752774 0.750265 0.675417
O O1 0.659719 0.630344 0.435070
O O2 0.572459 0.418486 0.378437
O O3 0.674862 0.710624 0.352840
O O4 0.580759 0.924574 0.393562
O O5 0.633326 0.525595 0.008601
O O6 0.750000 0.750000 0.000000
O O7 0.424917 0.442189 0.317127
O O8 0.314897 0.290395 0.357547
O O9 0.614347 0.250000 0.750000
O O10 0.500000 0.501152 0.750000
O O11 0.619377 0.750000 0.750000
O O12 0.750000 0.500000 0.699957
O O13 0.750000 0.000000 0.699547
#
# Coordination Sequence:
#
# PCOD9505941 Si02
#       5
#    16  16  16  16  16
#     4  10  19  31  47  72 108 148 200 219 251 323
#     4  10  21  27  43  67 107 153 199 226 272 290
#     4  10  19  31  53  73  99 142 184 223 277 328
#     4  10  21  38  59  82 107 133 166 231 319 364
#     4   8  16  25  44  62  95 130 185 214 246 285
#
# _framework density 25.159053
#
# number of rings (size 3 to 8) (size 9 to 14) (size 15 to 20)
#    0.000    2.400    0.000    2.400   16.800    0.000 
#    0.000    0.000    0.000   21.600    0.000    0.000 
#    0.000    0.000    0.000  252.000    0.000    0.000 
#
# Total GULP energy -222946.053716 kJ/mol
# GULP energy per Si atom -5573.651343 kJ/mol
# Density = 2.510179 g / cm^3
# Si number density = 25.159053 Si / 1000 Ang^3
#
#
#
# Elastic Constant Matrix: (Units=GPa)
#
#
# Indices 1 2 3 4 5 6 
#
# 1 55.9769 22.3806 16.4095 0.0000 0.0000 0.0000
# 2 22.3806 347.1253 62.7491 0.0000 0.0000 0.0000
# 3 16.4095 62.7491 153.1844 0.0000 0.0000 0.0000
# 4 0.0000 0.0000 0.0000 39.6256 0.0000 0.0000
# 5 0.0000 0.0000 0.0000 0.0000 18.0586 0.0000
# 6 0.0000 0.0000 0.0000 0.0000 0.0000 19.4554
#
#
#
# Elastic Compliance Matrix: (Units=1/GPa)
#
#
# Indices 1 2 3 4 5 6 
#
# 1 0.018707 -0.000911 -0.001631 0.000000 0.000000 0.000000
# 2 -0.000911 0.003156 -0.001195 0.000000 0.000000 0.000000
# 3 -0.001631 -0.001195 0.007192 0.000000 0.000000 0.000000
# 4 0.000000 0.000000 0.000000 0.025236 0.000000 0.000000
# 5 0.000000 0.000000 0.000000 0.000000 0.055375 0.000000
# 6 0.000000 0.000000 0.000000 0.000000 0.000000 0.051400
#
#
# Mechanical properties :
#
#
# Convention : Reuss Voigt Hill
#
# Bulk Modulus (GPa) = 46.33742 84.37390 65.35566
# Shear Modulus (GPa) = 28.45217 45.74439 37.09828
#
# Velocity S-wave (km/s) = 3.36652 4.26867 3.84415
# Velocity P-wave (km/s) = 5.79388 7.60949 6.76289
#
# Compressibility (1/GPa) = 0.02158083
#
# Stress axis : x y z
#
# Youngs Moduli (GPa) = 53.45619 316.89892 139.03831
#
# Poissons Ratio (x) = 0.28881 0.22672
# Poissons Ratio (y) = 0.04872 0.16615
# Poissons Ratio (z) = 0.08717 0.37869
#
# Static dielectric constant tensor:
#      x y z
#    x 1.937410 0.000000 0.000000 
#    y 0.000000 2.199710 0.000000 
#    z 0.000000 0.000000 1.961220 
# 
# From -- ./inp_files/55916.got.cif
#   From: 2010.05.17/outbox.cif.g08.bks.cpg/sg68_28_cif.got.tgz:55916.got - 2010.06.03 18:57:09.
