data_PCOD9505221
_publ_section_title
;
Structure prediction by ZEFSAII (Michael W. Deem and Ramdas Pophale) SiO2 
 PCOD9505221
Probable space group: C M M A
;
_chemical_formula_sum "Si O2"
_cell_formula_units_Z 40
_cell_length_a 18.000000
_cell_length_b 9.000000
_cell_length_c 27.000000
_cell_angle_alpha 90.000000
_cell_angle_beta 90.000000
_cell_angle_gamma 90.000000
_cell_volume 4374.000000
_symmetry_space_group_name_H-M "C M M A"
_symmetry_group_IT_number 67
_symmetry_cell_setting 'orthorhombic'
loop_
_space_group_symop_operation_xyz
x,y,z
-x,1/2-y,z
x,-y,-z
-x,1/2+y,-z
-x,-y,-z
x,1/2+y,-z
-x,y,z
x,1/2-y,z
1/2+x,1/2+y,z
1/2-x,-y,z
1/2+x,1/2-y,-z
1/2-x,y,-z
1/2-x,1/2-y,-z
1/2+x,y,-z
1/2-x,1/2+y,z
1/2+x,-y,z
loop_
_atom_site_type_symbol
_atom_site_label
_atom_site_fract_x
_atom_site_fract_y
_atom_site_fract_z
Si Si1 0.087180 0.572878 0.151525
Si Si2 0.589633 0.423493 0.448284
Si Si3 0.590495 0.577414 0.050581
Si Si4 0.168401 0.070549 0.746043
Si Si5 0.832423 0.929009 0.645053
O O1 0.093552 0.750000 0.144502
O O2 0.116914 0.494963 0.101932
O O3 0.125924 0.534925 0.203217
O O4 0.000000 0.536171 0.156012
O O5 0.612589 0.500000 0.500000
O O6 0.500000 0.427737 0.446155
O O7 0.612610 0.250000 0.446648
O O8 0.622233 0.513442 0.402106
O O9 0.500000 0.564141 0.050914
O O10 0.609298 0.750000 0.049409
O O11 0.616445 0.500000 0.000000
O O12 0.171629 0.250000 0.740234
O O13 0.250000 0.000000 0.750523
O O14 0.135364 0.996360 0.696380
O O15 0.828832 0.750000 0.647094
O O16 0.750000 0.000000 0.640936
#
# Coordination Sequence:
#
# PCOD9505221 Si02
#       5
#    16  16  16  16  16
#     4   9  18  32  50  73 100 130 167 209 252 301
#     4  10  21  38  59  83 112 143 175 213 260 312
#     4   9  16  26  43  68  98 130 163 202 249 299
#     4  10  20  35  54  75 102 137 173 211 259 309
#     4  11  22  37  57  80 107 139 179 221 261 308
#
# _framework density 9.1449470000000002
#
# number of rings (size 3 to 8) (size 9 to 14) (size 15 to 20)
#    0.000    2.200    0.000    4.800    0.000    6.400 
#    0.000    4.000    0.000    0.600    0.000    4.200 
#    0.000    0.000    0.000    0.000    0.000    0.000 
#
# Total GULP energy -223176.749614 kJ/mol
# GULP energy per Si atom -5579.418740 kJ/mol
# Density = 0.912413 g / cm^3
# Si number density = 9.144947 Si / 1000 Ang^3
#
#
#
# Elastic Constant Matrix: (Units=GPa)
#
#
# Indices 1 2 3 4 5 6 
#
# 1 14.8644 28.8204 44.7529 0.0000 0.0000 0.0000
# 2 28.8204 130.0881 102.9414 0.0000 0.0000 0.0000
# 3 44.7529 102.9414 228.5827 0.0000 0.0000 0.0000
# 4 0.0000 0.0000 0.0000 41.3867 0.0000 0.0000
# 5 0.0000 0.0000 0.0000 0.0000 117.8839 0.0000
# 6 0.0000 0.0000 0.0000 0.0000 0.0000 20.0155
#
#
#
# Elastic Compliance Matrix: (Units=1/GPa)
#
#
# Indices 1 2 3 4 5 6 
#
# 1 0.192104 -0.019883 -0.028657 0.000000 0.000000 0.000000
# 2 -0.019883 0.014001 -0.002413 0.000000 0.000000 0.000000
# 3 -0.028657 -0.002413 0.011072 0.000000 0.000000 0.000000
# 4 0.000000 0.000000 0.000000 0.024162 0.000000 0.000000
# 5 0.000000 0.000000 0.000000 0.000000 0.008483 0.000000
# 6 0.000000 0.000000 0.000000 0.000000 0.000000 0.049961
#
#
# Mechanical properties :
#
#
# Convention : Reuss Voigt Hill
#
# Bulk Modulus (GPa) = 8.67512 80.72940 44.70226
# Shear Modulus (GPa) = 11.36073 48.99193 30.17633
#
# Velocity S-wave (km/s) = 2.49499 5.18117 4.06629
# Velocity P-wave (km/s) = 3.61294 8.94580 6.82205
#
# Compressibility (1/GPa) = 0.11527222
#
# Stress axis : x y z
#
# Youngs Moduli (GPa) = 5.20551 71.42205 90.31954
#
# Poissons Ratio (x) = 1.42010 2.58825
# Poissons Ratio (y) = 0.10350 0.21790
# Poissons Ratio (z) = 0.14917 0.17231
#
# Static dielectric constant tensor:
#      x y z
#    x 1.629030 0.000000 0.000000 
#    y 0.000000 1.612410 0.000000 
#    z 0.000000 0.000000 1.636360 
# 
# From -- ./inp_files/43328.got.cif
#   From: 2010.05.17/outbox.ucp.g08.bks.cvg/sg67_22_cif.got.tgz:43328.got - 2010.06.11 16:47:20.
