data_PCOD9505302
_publ_section_title
;
Structure prediction by ZEFSAII (Michael W. Deem and Ramdas Pophale) SiO2 
 PCOD9505302
Probable space group: C C C A
;
_chemical_formula_sum "Si O2"
_cell_formula_units_Z 64
_cell_length_a 5.522224
_cell_length_b 30.640370
_cell_length_c 19.147086
_cell_angle_alpha 90.000000
_cell_angle_beta 90.000000
_cell_angle_gamma 90.000000
_cell_volume 3239.744136
_symmetry_space_group_name_H-M "C C C A"
_symmetry_group_IT_number 68
_space_group.IT_coordinate_system_code '2'
_symmetry_cell_setting 'orthorhombic'
loop_
_space_group_symop_operation_xyz
x,y,z
-x,1/2-y,z
x,1/2-y,1/2-z
-x,y,1/2-z
-x,-y,-z
x,1/2+y,-z
-x,1/2+y,1/2+z
x,-y,1/2+z
1/2+x,1/2+y,z
1/2-x,-y,z
1/2+x,-y,1/2-z
1/2-x,1/2+y,1/2-z
1/2-x,1/2-y,-z
1/2+x,y,-z
1/2-x,y,1/2+z
1/2+x,1/2-y,1/2+z
loop_
_atom_site_type_symbol
_atom_site_label
_atom_site_fract_x
_atom_site_fract_y
_atom_site_fract_z
Si Si1 0.247179 0.634834 0.793630
Si Si2 0.444305 0.549481 0.526503
Si Si3 0.901051 0.043122 0.828434
Si Si4 0.749646 0.232332 0.331658
O O1 0.500000 0.635178 0.750000
O O2 0.248736 0.587754 0.829921
O O3 0.252536 0.680141 0.834635
O O4 0.000000 0.636985 0.750000
O O5 0.500000 0.500000 0.500000
O O6 0.207792 0.569784 0.490865
O O7 0.405086 0.548187 0.609810
O O8 0.000000 0.037893 0.750000
O O9 0.750000 0.000000 0.845212
O O10 0.500000 0.250000 0.362538
O O11 0.749569 0.250000 0.250000
O O12 0.000000 0.250000 0.362180
#
# Coordination Sequence:
#
# PCOD9505302 Si02
#       4
#    16  16  16  16
#     4  11  20  32  47  77 109 146 178 220 274 344
#     4  10  21  40  61  75 102 152 200 227 266 330
#     4  11  24  36  56  85 120 152 181 237 288 327
#     4  10  15  27  49  66  99 145 176 209 270 333
#
# _framework density 19.754646000000001
#
# number of rings (size 3 to 8) (size 9 to 14) (size 15 to 20)
#    0.000    1.500    7.500    0.750    3.500    4.000 
#    0.000    0.000    0.000    0.000    0.000    0.000 
#    0.000    6.000    0.000    0.000    0.000    0.000 
#
# Total GULP energy -178227.123640 kJ/mol
# GULP energy per Si atom -5569.597614 kJ/mol
# Density = 1.970968 g / cm^3
# Si number density = 19.754646 Si / 1000 Ang^3
#
#
#
# Elastic Constant Matrix: (Units=GPa)
#
#
# Indices 1 2 3 4 5 6 
#
# 1 166.5445 34.2791 15.8855 0.0000 0.0000 0.0000
# 2 34.2791 156.8427 -11.7341 0.0000 0.0000 0.0000
# 3 15.8855 -11.7341 83.3841 0.0000 0.0000 0.0000
# 4 0.0000 0.0000 0.0000 -6.3204 0.0000 0.0000
# 5 0.0000 0.0000 0.0000 0.0000 1.7948 0.0000
# 6 0.0000 0.0000 0.0000 0.0000 0.0000 24.4852
#
#
#
# Elastic Compliance Matrix: (Units=1/GPa)
#
#
# Indices 1 2 3 4 5 6 
#
# 1 0.006455 -0.001519 -0.001443 0.000000 0.000000 0.000000
# 2 -0.001519 0.006801 0.001246 0.000000 0.000000 0.000000
# 3 -0.001443 0.001246 0.012443 0.000000 0.000000 0.000000
# 4 0.000000 0.000000 0.000000 -0.158218 0.000000 0.000000
# 5 0.000000 0.000000 0.000000 0.000000 0.557155 0.000000
# 6 0.000000 0.000000 0.000000 0.000000 0.000000 0.040841
#
#
# Mechanical properties :
#
#
# Convention : Reuss Voigt Hill
#
# Bulk Modulus (GPa) = 44.90890 53.73692 49.32291
# Shear Modulus (GPa) = 10.49692 28.54799 19.52245
#
# Velocity S-wave (km/s) = 2.30764 3.80561 3.14705
# Velocity P-wave (km/s) = 5.46653 6.82433 6.18281
#
# Compressibility (1/GPa) = 0.02226730
#
# Stress axis : x y z
#
# Youngs Moduli (GPa) = 154.92676 147.03758 80.36598
#
# Poissons Ratio (x) = 0.22331 0.11600
# Poissons Ratio (y) = 0.23529 -0.10017
# Poissons Ratio (z) = 0.22362 -0.18327
#
# Static dielectric constant tensor:
#      x y z
#    x 1.715600 0.000000 0.000000 
#    y 0.000000 1.657950 0.000000 
#    z 0.000000 0.000000 1.706690 
# 
# From -- ./inp_files/27142.got.cif
#   From: 2010.05.17/outbox.cif.g08.bks.cpg/sg68_14_cif.got.tgz:27142.got - 2010.06.03 18:57:09.
