data_PCOD9505774
_publ_section_title
;
Structure prediction by ZEFSAII (Michael W. Deem and Ramdas Pophale) SiO2 
 PCOD9505774
Probable space group: C C C A
;
_chemical_formula_sum "Si O2"
_cell_formula_units_Z 112
_cell_length_a 31.447479
_cell_length_b 13.967376
_cell_length_c 13.244040
_cell_angle_alpha 90.000000
_cell_angle_beta 90.000000
_cell_angle_gamma 90.000000
_cell_volume 5817.295753
_symmetry_space_group_name_H-M "C C C A"
_symmetry_group_IT_number 68
_space_group.IT_coordinate_system_code '2'
_symmetry_cell_setting 'orthorhombic'
loop_
_space_group_symop_operation_xyz
x,y,z
-x,1/2-y,z
x,1/2-y,1/2-z
-x,y,1/2-z
-x,-y,-z
x,1/2+y,-z
-x,1/2+y,1/2+z
x,-y,1/2+z
1/2+x,1/2+y,z
1/2-x,-y,z
1/2+x,-y,1/2-z
1/2-x,1/2+y,1/2-z
1/2-x,1/2-y,-z
1/2+x,y,-z
1/2-x,y,1/2+z
1/2+x,1/2-y,1/2+z
loop_
_atom_site_type_symbol
_atom_site_label
_atom_site_fract_x
_atom_site_fract_y
_atom_site_fract_z
Si Si1 0.298486 0.361447 0.472997
Si Si2 0.976358 0.654894 0.008869
Si Si3 0.249334 0.297807 0.156391
Si Si4 0.527494 0.985085 0.652336
Si Si5 0.119684 0.407445 0.702634
Si Si6 0.295869 0.953234 0.730451
Si Si7 0.384296 0.214553 0.089785
O O1 0.269418 0.285273 0.411765
O O2 0.276814 0.367109 0.582044
O O3 0.300664 0.447428 0.391518
O O4 0.345816 0.320062 0.480660
O O5 0.971863 0.573030 0.925124
O O6 0.000000 0.750000 0.971787
O O7 0.930361 0.688884 0.047359
O O8 0.004401 0.605434 0.097801
O O9 0.223835 0.250000 0.250000
O O10 0.287409 0.352097 0.213101
O O11 0.500000 0.009749 0.750000
O O12 0.575022 0.958788 0.685784
O O13 0.159502 0.479907 0.717467
O O14 0.119733 0.346356 0.806574
O O15 0.122109 0.326388 0.615694
O O16 0.250000 0.000000 0.746934
#
# Coordination Sequence:
#
# PCOD9505774 Si02
#       7
#    16  16  16  16  16  16  16
#     4   9  18  33  56  80 110 151 198 249 292 346
#     4  11  23  38  64  95 123 160 205 254 318 380
#     4   9  17  33  55  76 108 152 196 237 291 353
#     4  11  23  40  63  93 127 160 203 259 314 379
#     4  10  19  35  62  90 115 153 209 262 303 357
#     4  10  20  33  53  87 119 151 193 248 304 357
#     4  10  18  34  63  90 110 152 214 261 300 358
#
# _framework density 19.252932000000001
#
# number of rings (size 3 to 8) (size 9 to 14) (size 15 to 20)
#    0.000    2.000    4.286    0.000    0.000    2.286 
#    0.000    1.429   12.571    0.000    0.000    0.000 
#    0.000    0.000    0.000    0.000    0.000    0.000 
#
# Total GULP energy -311840.298883 kJ/mol
# GULP energy per Si atom -5568.576766 kJ/mol
# Density = 1.920911 g / cm^3
# Si number density = 19.252932 Si / 1000 Ang^3
#
#
#
# Elastic Constant Matrix: (Units=GPa)
#
#
# Indices 1 2 3 4 5 6 
#
# 1 161.0970 28.3750 45.7195 0.0000 0.0000 0.0000
# 2 28.3750 32.0994 3.7916 0.0000 0.0000 0.0000
# 3 45.7195 3.7916 70.4299 0.0000 0.0000 0.0000
# 4 0.0000 0.0000 0.0000 9.7502 0.0000 0.0000
# 5 0.0000 0.0000 0.0000 0.0000 20.5390 0.0000
# 6 0.0000 0.0000 0.0000 0.0000 0.0000 22.3477
#
#
#
# Elastic Compliance Matrix: (Units=1/GPa)
#
#
# Indices 1 2 3 4 5 6 
#
# 1 0.009061 -0.007362 -0.005486 0.000000 0.000000 0.000000
# 2 -0.007362 0.037334 0.002769 0.000000 0.000000 0.000000
# 3 -0.005486 0.002769 0.017610 0.000000 0.000000 0.000000
# 4 0.000000 0.000000 0.000000 0.102562 0.000000 0.000000
# 5 0.000000 0.000000 0.000000 0.000000 0.048688 0.000000
# 6 0.000000 0.000000 0.000000 0.000000 0.000000 0.044747
#
#
# Mechanical properties :
#
#
# Convention : Reuss Voigt Hill
#
# Bulk Modulus (GPa) = 22.80584 46.59984 34.70284
# Shear Modulus (GPa) = 16.96208 22.91006 19.93607
#
# Velocity S-wave (km/s) = 2.97141 3.45331 3.22138
# Velocity P-wave (km/s) = 4.86245 6.33696 5.64803
#
# Compressibility (1/GPa) = 0.04384841
#
# Stress axis : x y z
#
# Youngs Moduli (GPa) = 110.36440 26.78551 56.78462
#
# Poissons Ratio (x) = 0.19718 0.31150
# Poissons Ratio (y) = 0.81246 -0.15723
# Poissons Ratio (z) = 0.60541 -0.07417
#
# Static dielectric constant tensor:
#      x y z
#    x 1.689470 0.000000 0.000000 
#    y 0.000000 1.733370 0.000000 
#    z 0.000000 0.000000 1.698540 
# 
# From -- ./inp_files/13578.got.cif
#   From: 2010.05.17/outbox.cif.g08.bks.cpg/sg68_7_cif.got.tgz:13578.got - 2010.06.03 18:57:09.
