data_PCOD9505434
_publ_section_title
;
Structure prediction by ZEFSAII (Michael W. Deem and Ramdas Pophale) SiO2 
 PCOD9505434
Probable space group: C C C A
;
_chemical_formula_sum "Si O2"
_cell_formula_units_Z 64
_cell_length_a 5.349848
_cell_length_b 14.500224
_cell_length_c 33.203743
_cell_angle_alpha 90.000000
_cell_angle_beta 90.000000
_cell_angle_gamma 90.000000
_cell_volume 2575.746972
_symmetry_space_group_name_H-M "C C C A"
_symmetry_group_IT_number 68
_space_group.IT_coordinate_system_code '2'
_symmetry_cell_setting 'orthorhombic'
loop_
_space_group_symop_operation_xyz
x,y,z
-x,1/2-y,z
x,1/2-y,1/2-z
-x,y,1/2-z
-x,-y,-z
x,1/2+y,-z
-x,1/2+y,1/2+z
x,-y,1/2+z
1/2+x,1/2+y,z
1/2-x,-y,z
1/2+x,-y,1/2-z
1/2-x,1/2+y,1/2-z
1/2-x,1/2-y,-z
1/2+x,y,-z
1/2-x,y,1/2+z
1/2+x,1/2-y,1/2+z
loop_
_atom_site_type_symbol
_atom_site_label
_atom_site_fract_x
_atom_site_fract_y
_atom_site_fract_z
Si Si1 0.754256 0.144592 0.767288
Si Si2 0.426903 0.355908 0.358641
Si Si3 0.069388 0.354090 0.111189
Si Si4 0.748092 0.888341 0.522469
O O1 0.754318 0.250000 0.750000
O O2 0.500000 0.105250 0.750000
O O3 0.798481 0.143494 0.814871
O O4 0.000000 0.098696 0.750000
O O5 0.500000 0.250000 0.369055
O O6 0.706712 0.396784 0.362079
O O7 0.209374 0.396614 0.386956
O O8 0.178607 0.352879 0.066415
O O9 0.000000 0.250000 0.124702
O O10 0.473228 0.860463 0.507484
O O11 0.750000 0.000000 0.524663
#
# Coordination Sequence:
#
# PCOD9505434 Si02
#       4
#    16  16  16  16
#     4  10  17  24  41  63  95 143 170 203 237 302
#     4  10  18  30  43  69 108 141 167 203 262 305
#     4  10  21  32  50  75 107 139 162 214 262 320
#     4  10  21  38  58  77  99 131 176 221 259 311
#
# _framework density 24.847162000000001
#
# number of rings (size 3 to 8) (size 9 to 14) (size 15 to 20)
#    0.000    2.000    2.500    3.000    7.000    1.000 
#    0.000    0.000    0.000    0.000    0.000    0.000 
#    0.000   20.000    0.000    0.000    0.000    0.000 
#
# Total GULP energy -178614.975213 kJ/mol
# GULP energy per Si atom -5581.717975 kJ/mol
# Density = 2.479061 g / cm^3
# Si number density = 24.847162 Si / 1000 Ang^3
#
#
#
# Elastic Constant Matrix: (Units=GPa)
#
#
# Indices 1 2 3 4 5 6 
#
# 1 285.6662 20.8771 71.3999 0.0000 0.0000 0.0000
# 2 20.8771 90.1984 -2.1892 0.0000 0.0000 0.0000
# 3 71.3999 -2.1892 136.5955 0.0000 0.0000 0.0000
# 4 0.0000 0.0000 0.0000 104.2674 0.0000 0.0000
# 5 0.0000 0.0000 0.0000 0.0000 50.4227 0.0000
# 6 0.0000 0.0000 0.0000 0.0000 0.0000 -16.8294
#
#
#
# Elastic Compliance Matrix: (Units=1/GPa)
#
#
# Indices 1 2 3 4 5 6 
#
# 1 0.004116 -0.001005 -0.002167 0.000000 0.000000 0.000000
# 2 -0.001005 0.011337 0.000707 0.000000 0.000000 0.000000
# 3 -0.002167 0.000707 0.008465 0.000000 0.000000 0.000000
# 4 0.000000 0.000000 0.000000 0.009591 0.000000 0.000000
# 5 0.000000 0.000000 0.000000 0.000000 0.019832 0.000000
# 6 0.000000 0.000000 0.000000 0.000000 0.000000 -0.059420
#
#
# Mechanical properties :
#
#
# Convention : Reuss Voigt Hill
#
# Bulk Modulus (GPa) = 52.66948 76.95951 64.81450
# Shear Modulus (GPa) = 965.15393 55.73030 510.44212
#
# Velocity S-wave (km/s) = 19.73017 4.74109 14.34848
# Velocity P-wave (km/s) = 23.24398 7.81095 17.33917
#
# Compressibility (1/GPa) = 0.01898633
#
# Stress axis : x y z
#
# Youngs Moduli (GPa) = 242.96626 88.21057 118.13092
#
# Poissons Ratio (x) = 0.08867 0.25605
# Poissons Ratio (y) = 0.24424 -0.08354
# Poissons Ratio (z) = 0.52662 -0.06238
#
# Static dielectric constant tensor:
#      x y z
#    x 2.097530 0.000000 0.000000 
#    y 0.000000 1.993550 0.000000 
#    z 0.000000 0.000000 1.969710 
# 
# From -- ./inp_files/42144.got.cif
#   From: 2010.05.17/outbox.cif.g08.bks.cpg/sg68_22_cif.got.tgz:42144.got - 2010.06.03 18:57:09.
