data_PCOD9505352
_publ_section_title
;
Structure prediction by ZEFSAII (Michael W. Deem and Ramdas Pophale) SiO2 
 PCOD9505352
Probable space group: C C C A
;
_chemical_formula_sum "Si O2"
_cell_formula_units_Z 116
_cell_length_a 24.565610
_cell_length_b 8.837157
_cell_length_c 29.485039
_cell_angle_alpha 90.000000
_cell_angle_beta 90.000000
_cell_angle_gamma 90.000000
_cell_volume 6400.911609
_symmetry_space_group_name_H-M "C C C A"
_symmetry_group_IT_number 68
_space_group.IT_coordinate_system_code '2'
_symmetry_cell_setting 'orthorhombic'
loop_
_space_group_symop_operation_xyz
x,y,z
-x,1/2-y,z
x,1/2-y,1/2-z
-x,y,1/2-z
-x,-y,-z
x,1/2+y,-z
-x,1/2+y,1/2+z
x,-y,1/2+z
1/2+x,1/2+y,z
1/2-x,-y,z
1/2+x,-y,1/2-z
1/2-x,1/2+y,1/2-z
1/2-x,1/2-y,-z
1/2+x,y,-z
1/2-x,y,1/2+z
1/2+x,1/2-y,1/2+z
loop_
_atom_site_type_symbol
_atom_site_label
_atom_site_fract_x
_atom_site_fract_y
_atom_site_fract_z
Si Si1 0.942114 0.795437 0.675757
Si Si2 0.000000 0.750000 0.250000
Si Si3 0.806074 0.082035 0.730834
Si Si4 0.351465 0.786820 0.940757
Si Si5 0.346870 0.986100 0.367044
Si Si6 0.923498 0.514472 0.734930
Si Si7 0.720028 0.802435 0.058289
Si Si8 0.834330 0.989957 0.980446
O O1 0.896890 0.878441 0.646473
O O2 0.921705 0.637178 0.695702
O O3 0.949143 0.904871 0.720011
O O4 0.000000 0.750000 0.654561
O O5 0.958416 0.635974 0.224654
O O6 0.800686 0.250000 0.750000
O O7 0.750000 0.000000 0.742812
O O8 0.817042 0.053428 0.677212
O O9 0.861356 0.020566 0.753018
O O10 0.285003 0.797036 0.938008
O O11 0.364669 0.612082 0.949269
O O12 0.369755 0.873382 0.896144
O O13 0.368095 0.886617 0.984484
O O14 0.306835 0.885780 0.398715
O O15 0.698195 0.632816 0.049367
O O16 0.700994 0.902323 0.014654
#
# Coordination Sequence:
#
# PCOD9505352 Si02
#       8
#    16   4  16  16  16  16  16  16
#     4  10  19  37  56  76  97 134 172 229 285 325
#     4  12  16  34  60  88  96 110 176 258 292 306
#     4  11  24  39  52  75 110 155 186 216 265 333
#     4  10  16  29  47  77 106 138 171 214 258 316
#     4  10  22  34  50  71 107 139 179 220 264 314
#     4  10  20  35  61  81  99 126 182 237 285 324
#     4  10  16  29  47  75 105 138 169 214 258 318
#     4   9  16  26  50  75 105 136 173 209 261 313
#
# _framework density 18.122419000000001
#
# number of rings (size 3 to 8) (size 9 to 14) (size 15 to 20)
#    0.000    1.931    2.069    5.793    3.862    0.000 
#    2.483    0.000    0.000    0.000    0.000   15.448 
#    0.000    0.000    0.000    0.000    0.000    0.000 
#
# Total GULP energy -323105.552305 kJ/mol
# GULP energy per Si atom -5570.785385 kJ/mol
# Density = 1.808117 g / cm^3
# Si number density = 18.122419 Si / 1000 Ang^3
#
#
#
# Elastic Constant Matrix: (Units=GPa)
#
#
# Indices 1 2 3 4 5 6 
#
# 1 71.0793 39.6052 36.0978 0.0000 0.0000 0.0000
# 2 39.6052 156.8362 52.7275 0.0000 0.0000 0.0000
# 3 36.0978 52.7275 72.8215 0.0000 0.0000 0.0000
# 4 0.0000 0.0000 0.0000 44.1530 0.0000 0.0000
# 5 0.0000 0.0000 0.0000 0.0000 0.1919 0.0000
# 6 0.0000 0.0000 0.0000 0.0000 0.0000 30.0627
#
#
#
# Elastic Compliance Matrix: (Units=1/GPa)
#
#
# Indices 1 2 3 4 5 6 
#
# 1 0.019359 -0.002197 -0.008005 0.000000 0.000000 0.000000
# 2 -0.002197 0.008677 -0.005194 0.000000 0.000000 0.000000
# 3 -0.008005 -0.005194 0.021461 0.000000 0.000000 0.000000
# 4 0.000000 0.000000 0.000000 0.022649 0.000000 0.000000
# 5 0.000000 0.000000 0.000000 0.000000 5.211145 0.000000
# 6 0.000000 0.000000 0.000000 0.000000 0.000000 0.033264
#
#
# Mechanical properties :
#
#
# Convention : Reuss Voigt Hill
#
# Bulk Modulus (GPa) = 53.46294 61.95532 57.70913
# Shear Modulus (GPa) = 0.93395 26.36863 13.65129
#
# Velocity S-wave (km/s) = 0.71866 3.81862 2.74758
# Velocity P-wave (km/s) = 5.50033 7.32829 6.47910
#
# Compressibility (1/GPa) = 0.01870455
#
# Stress axis : x y z
#
# Youngs Moduli (GPa) = 51.65685 115.24762 46.59662
#
# Poissons Ratio (x) = 0.25323 0.37301
# Poissons Ratio (y) = 0.11350 0.24200
# Poissons Ratio (z) = 0.41352 0.59854
#
# Static dielectric constant tensor:
#      x y z
#    x 1.579240 0.000000 0.000000 
#    y 0.000000 1.670930 0.000000 
#    z 0.000000 0.000000 1.656240 
# 
# From -- ./inp_files/52184.got.cif
#   From: 2010.05.17/outbox.cif.g08.bks.cpg/sg68_27_cif.got.tgz:52184.got - 2010.06.03 18:57:09.
