data_PCOD9505696
_publ_section_title
;
Structure prediction by ZEFSAII (Michael W. Deem and Ramdas Pophale) SiO2 
 PCOD9505696
Probable space group: C C C A
;
_chemical_formula_sum "Si O2"
_cell_formula_units_Z 88
_cell_length_a 18.535260
_cell_length_b 14.799422
_cell_length_c 17.090673
_cell_angle_alpha 90.000000
_cell_angle_beta 90.000000
_cell_angle_gamma 90.000000
_cell_volume 4688.161902
_symmetry_space_group_name_H-M "C C C A"
_symmetry_group_IT_number 68
_space_group.IT_coordinate_system_code '2'
_symmetry_cell_setting 'orthorhombic'
loop_
_space_group_symop_operation_xyz
x,y,z
-x,1/2-y,z
x,1/2-y,1/2-z
-x,y,1/2-z
-x,-y,-z
x,1/2+y,-z
-x,1/2+y,1/2+z
x,-y,1/2+z
1/2+x,1/2+y,z
1/2-x,-y,z
1/2+x,-y,1/2-z
1/2-x,1/2+y,1/2-z
1/2-x,1/2-y,-z
1/2+x,y,-z
1/2-x,y,1/2+z
1/2+x,1/2-y,1/2+z
loop_
_atom_site_type_symbol
_atom_site_label
_atom_site_fract_x
_atom_site_fract_y
_atom_site_fract_z
Si Si1 0.613108 0.601213 0.288930
Si Si2 0.060766 0.179685 0.637291
Si Si3 0.000000 0.533589 0.250000
Si Si4 0.722978 0.811155 0.827393
Si Si5 0.500000 0.250000 0.988507
Si Si6 0.250000 0.000000 0.748973
Si Si7 0.122217 0.708580 0.871932
O O1 0.549803 0.531128 0.301400
O O2 0.686975 0.546355 0.298284
O O3 0.609431 0.638102 0.199149
O O4 0.609041 0.690337 0.340015
O O5 0.048198 0.093407 0.691682
O O6 0.142894 0.213335 0.644563
O O7 0.039167 0.177463 0.545895
O O8 0.000000 0.250000 0.666240
O O9 0.739392 0.750000 0.750000
O O10 0.721129 0.916454 0.802564
O O11 0.791220 0.798581 0.885253
O O12 0.562636 0.200910 0.939017
#
# Coordination Sequence:
#
# PCOD9505696 Si02
#       7
#    16  16   8  16   8   8  16
#     4  10  20  33  64  91 111 150 194 259 295 335
#     4  10  24  37  57  88 118 163 194 243 293 361
#     4  12  19  35  62  88 116 148 202 255 293 346
#     4  11  19  37  65  90 117 150 205 258 302 347
#     4  10  24  40  56  84 126 166 200 226 302 376
#     4  10  18  32  56  96 116 134 200 260 306 330
#     4  10  20  41  59  90 117 158 201 244 299 362
#
# _framework density 18.770682999999998
#
# number of rings (size 3 to 8) (size 9 to 14) (size 15 to 20)
#    0.545    1.091    5.455    2.455    0.000    2.182 
#    0.000    3.636    0.000    0.000    0.000    0.000 
#    0.000    0.000    0.000    0.000    0.000    0.000 
#
# Total GULP energy -244957.913409 kJ/mol
# GULP energy per Si atom -5567.225305 kJ/mol
# Density = 1.872796 g / cm^3
# Si number density = 18.770683 Si / 1000 Ang^3
#
#
#
# Elastic Constant Matrix: (Units=GPa)
#
#
# Indices 1 2 3 4 5 6 
#
# 1 136.9281 10.9552 28.3060 0.0000 0.0000 0.0000
# 2 10.9552 73.2923 4.8468 0.0000 0.0000 0.0000
# 3 28.3060 4.8468 50.8474 0.0000 0.0000 0.0000
# 4 0.0000 0.0000 0.0000 -6.1195 0.0000 0.0000
# 5 0.0000 0.0000 0.0000 0.0000 36.2440 0.0000
# 6 0.0000 0.0000 0.0000 0.0000 0.0000 23.0216
#
#
#
# Elastic Compliance Matrix: (Units=1/GPa)
#
#
# Indices 1 2 3 4 5 6 
#
# 1 0.008317 -0.000943 -0.004540 0.000000 0.000000 0.000000
# 2 -0.000943 0.013837 -0.000794 0.000000 0.000000 0.000000
# 3 -0.004540 -0.000794 0.022270 0.000000 0.000000 0.000000
# 4 0.000000 0.000000 0.000000 -0.163411 0.000000 0.000000
# 5 0.000000 0.000000 0.000000 0.000000 0.027591 0.000000
# 6 0.000000 0.000000 0.000000 0.000000 0.000000 0.043437
#
#
# Mechanical properties :
#
#
# Convention : Reuss Voigt Hill
#
# Bulk Modulus (GPa) = 31.37741 38.80932 35.09336
# Shear Modulus (GPa) = -201.76861 25.09320 -88.33771
#
# Velocity S-wave (km/s) = -10.37905 3.66023 -6.86758
# Velocity P-wave (km/s) = 11.26412 6.21156 6.64443
#
# Compressibility (1/GPa) = 0.03187007
#
# Stress axis : x y z
#
# Youngs Moduli (GPa) = 120.23450 72.26767 44.90388
#
# Poissons Ratio (x) = 0.06814 0.20387
# Poissons Ratio (y) = 0.11337 0.03566
# Poissons Ratio (z) = 0.54588 0.05739
#
# Static dielectric constant tensor:
#      x y z
#    x 1.730590 0.000000 0.000000 
#    y 0.000000 1.640720 0.000000 
#    z 0.000000 0.000000 1.668720 
# 
# From -- ./inp_files/31907.got.cif
#   From: 2010.05.17/outbox.cif.g08.bks.cpg/sg68_16_cif.got.tgz:31907.got - 2010.06.03 18:57:09.
