data_PCOD9505914
_publ_section_title
;
Structure prediction by ZEFSAII (Michael W. Deem and Ramdas Pophale) SiO2 
 PCOD9505914
Probable space group: C C C A
;
_chemical_formula_sum "Si O2"
_cell_formula_units_Z 128
_cell_length_a 25.109625
_cell_length_b 25.109626
_cell_length_c 11.471355
_cell_angle_alpha 90.000000
_cell_angle_beta 90.000000
_cell_angle_gamma 90.000000
_cell_volume 7232.612386
_symmetry_space_group_name_H-M "C C C A"
_symmetry_group_IT_number 68
_space_group.IT_coordinate_system_code '2'
_symmetry_cell_setting 'orthorhombic'
loop_
_space_group_symop_operation_xyz
x,y,z
-x,1/2-y,z
x,1/2-y,1/2-z
-x,y,1/2-z
-x,-y,-z
x,1/2+y,-z
-x,1/2+y,1/2+z
x,-y,1/2+z
1/2+x,1/2+y,z
1/2-x,-y,z
1/2+x,-y,1/2-z
1/2-x,1/2+y,1/2-z
1/2-x,1/2-y,-z
1/2+x,y,-z
1/2-x,y,1/2+z
1/2+x,1/2-y,1/2+z
loop_
_atom_site_type_symbol
_atom_site_label
_atom_site_fract_x
_atom_site_fract_y
_atom_site_fract_z
Si Si1 0.248800 0.087999 0.808102
Si Si2 0.056610 0.390554 0.775339
Si Si3 0.900246 0.933194 0.026834
Si Si4 0.359446 0.806610 0.724661
Si Si5 0.662001 0.001200 0.191898
Si Si6 0.683194 0.650246 0.973166
Si Si7 0.243422 0.301563 0.329195
Si Si8 0.551563 0.506578 0.170805
O O1 0.197449 0.052551 0.765708
O O2 0.230456 0.110220 0.934068
O O3 0.262152 0.140612 0.733644
O O4 0.297939 0.047939 0.812770
O O5 0.076697 0.412471 0.649717
O O6 0.100071 0.350071 0.821863
O O7 0.048117 0.443181 0.852430
O O8 0.000000 0.364107 0.750000
O O9 0.860220 0.980456 0.065932
O O10 0.864578 0.885422 0.975612
O O11 0.944129 0.956828 0.942108
O O12 0.385893 0.750000 0.750000
O O13 0.337529 0.826697 0.850283
O O14 0.306819 0.798117 0.647570
O O15 0.609388 0.987848 0.266356
O O16 0.706828 0.694129 0.057892
O O17 0.230710 0.250000 0.250000
O O18 0.500000 0.519290 0.250000
#
# Coordination Sequence:
#
# PCOD9505914 Si02
#       8
#    16  16  16  16  16  16  16  16
#     4   9  18  31  47  70  97 125 161 199 234 278
#     4   9  19  33  49  70  94 120 155 196 234 275
#     4   9  18  33  49  67  94 126 155 188 235 282
#     4   9  19  33  49  70  94 120 155 196 234 275
#     4   9  18  31  47  70  97 125 161 199 234 278
#     4   9  18  33  49  67  94 126 155 188 235 282
#     4  10  19  30  47  69  98 129 156 188 231 280
#     4  10  19  30  47  69  98 129 156 188 231 280
#
# _framework density 17.697617000000001
#
# number of rings (size 3 to 8) (size 9 to 14) (size 15 to 20)
#    0.000    2.750    0.000    3.000    0.000   11.250 
#    0.000    2.500    0.000    1.500    0.000    0.000 
#    0.000    4.500    0.000    0.000    0.000    0.000 
#
# Total GULP energy -356301.857334 kJ/mol
# GULP energy per Si atom -5567.216521 kJ/mol
# Density = 1.765734 g / cm^3
# Si number density = 17.697617 Si / 1000 Ang^3
#
#
#
# Elastic Constant Matrix: (Units=GPa)
#
#
# Indices 1 2 3 4 5 6 
#
# 1 77.4801 28.2580 12.3890 0.0000 0.0000 0.0000
# 2 28.2580 77.4802 12.3890 0.0000 0.0000 0.0000
# 3 12.3890 12.3890 22.3131 0.0000 0.0000 0.0000
# 4 0.0000 0.0000 0.0000 18.8756 0.0000 0.0000
# 5 0.0000 0.0000 0.0000 0.0000 18.8756 0.0000
# 6 0.0000 0.0000 0.0000 0.0000 0.0000 17.7627
#
#
#
# Elastic Compliance Matrix: (Units=1/GPa)
#
#
# Indices 1 2 3 4 5 6 
#
# 1 0.015594 -0.004722 -0.006036 0.000000 0.000000 0.000000
# 2 -0.004722 0.015594 -0.006036 0.000000 0.000000 0.000000
# 3 -0.006036 -0.006036 0.051520 0.000000 0.000000 0.000000
# 4 0.000000 0.000000 0.000000 0.052979 0.000000 0.000000
# 5 0.000000 0.000000 0.000000 0.000000 0.052979 0.000000
# 6 0.000000 0.000000 0.000000 0.000000 0.000000 0.056298
#
#
# Mechanical properties :
#
#
# Convention : Reuss Voigt Hill
#
# Bulk Modulus (GPa) = 20.35912 31.48280 25.92096
# Shear Modulus (GPa) = 16.95346 19.38528 18.16937
#
# Velocity S-wave (km/s) = 3.09844 3.31321 3.20762
# Velocity P-wave (km/s) = 4.93247 5.69776 5.32887
#
# Compressibility (1/GPa) = 0.04911803
#
# Stress axis : x y z
#
# Youngs Moduli (GPa) = 64.12740 64.12742 19.40996
#
# Poissons Ratio (x) = 0.30282 0.11717
# Poissons Ratio (y) = 0.30282 0.11717
# Poissons Ratio (z) = 0.38710 0.38710
#
# Static dielectric constant tensor:
#      x y z
#    x 1.645020 0.000000 0.000000 
#    y 0.000000 1.645020 0.000000 
#    z 0.000000 0.000000 1.636710 
# 
# From -- ./inp_files/16744.got.cif
#   From: 2010.05.17/outbox.cif.g08.bks.cpg/sg68_9_cif.got.tgz:16744.got - 2010.06.03 18:57:09.
