data_PCOD9505957
_publ_section_title
;
Structure prediction by ZEFSAII (Michael W. Deem and Ramdas Pophale) SiO2 
 PCOD9505957
Probable space group: C C C A
;
_chemical_formula_sum "Si O2"
_cell_formula_units_Z 68
_cell_length_a 23.068014
_cell_length_b 5.322246
_cell_length_c 29.028382
_cell_angle_alpha 90.000000
_cell_angle_beta 90.000000
_cell_angle_gamma 90.000000
_cell_volume 3563.920274
_symmetry_space_group_name_H-M "C C C A"
_symmetry_group_IT_number 68
_space_group.IT_coordinate_system_code '2'
_symmetry_cell_setting 'orthorhombic'
loop_
_space_group_symop_operation_xyz
x,y,z
-x,1/2-y,z
x,1/2-y,1/2-z
-x,y,1/2-z
-x,-y,-z
x,1/2+y,-z
-x,1/2+y,1/2+z
x,-y,1/2+z
1/2+x,1/2+y,z
1/2-x,-y,z
1/2+x,-y,1/2-z
1/2-x,1/2+y,1/2-z
1/2-x,1/2-y,-z
1/2+x,y,-z
1/2-x,y,1/2+z
1/2+x,1/2-y,1/2+z
loop_
_atom_site_type_symbol
_atom_site_label
_atom_site_fract_x
_atom_site_fract_y
_atom_site_fract_z
Si Si1 0.000000 0.250000 0.250000
Si Si2 0.433318 0.533994 0.518511
Si Si3 0.276375 0.252036 0.803554
Si Si4 0.907297 0.372247 0.177253
Si Si5 0.935988 0.143649 0.626027
O O1 0.955640 0.403482 0.217330
O O2 0.500000 0.500000 0.500000
O O3 0.406957 0.259167 0.511363
O O4 0.429945 0.618131 0.571179
O O5 0.256991 0.250000 0.750000
O O6 0.250000 0.500000 0.825936
O O7 0.345322 0.278996 0.804480
O O8 0.250000 0.000000 0.824745
O O9 0.898981 0.634847 0.150090
O O10 0.928656 0.134897 0.146698
O O11 0.000000 0.250000 0.634342
#
# Coordination Sequence:
#
# PCOD9505957 Si02
#       5
#     4  16  16  16  16
#     4  12  24  38  52  82 124 166 180 220 284 358
#     4  10  19  31  53  74 109 159 184 224 267 341
#     4  10  21  40  62  80 102 148 210 259 281 313
#     4  12  25  38  55  83 122 155 197 229 287 350
#     4  12  22  35  52  83 120 158 180 229 282 349
#
# _framework density 19.080112
#
# number of rings (size 3 to 8) (size 9 to 14) (size 15 to 20)
#    0.000    0.941    5.882    2.824    3.294    1.882 
#    0.000    0.000    0.000    0.000    0.000    0.000 
#    0.000   65.882    0.000    0.000    0.000    0.000 
#
# Total GULP energy -189481.796448 kJ/mol
# GULP energy per Si atom -5572.994013 kJ/mol
# Density = 1.903668 g / cm^3
# Si number density = 19.080112 Si / 1000 Ang^3
#
#
#
# Elastic Constant Matrix: (Units=GPa)
#
#
# Indices 1 2 3 4 5 6 
#
# 1 59.9718 19.5642 2.2599 0.0000 0.0000 0.0000
# 2 19.5642 154.5045 44.8621 0.0000 0.0000 0.0000
# 3 2.2599 44.8621 82.5180 0.0000 0.0000 0.0000
# 4 0.0000 0.0000 0.0000 -8.9914 0.0000 0.0000
# 5 0.0000 0.0000 0.0000 0.0000 1.1922 0.0000
# 6 0.0000 0.0000 0.0000 0.0000 0.0000 23.7385
#
#
#
# Elastic Compliance Matrix: (Units=1/GPa)
#
#
# Indices 1 2 3 4 5 6 
#
# 1 0.017444 -0.002458 0.000859 0.000000 0.000000 0.000000
# 2 -0.002458 0.008032 -0.004299 0.000000 0.000000 0.000000
# 3 0.000859 -0.004299 0.014432 0.000000 0.000000 0.000000
# 4 0.000000 0.000000 0.000000 -0.111217 0.000000 0.000000
# 5 0.000000 0.000000 0.000000 0.000000 0.838812 0.000000
# 6 0.000000 0.000000 0.000000 0.000000 0.000000 0.042126
#
#
# Mechanical properties :
#
#
# Convention : Reuss Voigt Hill
#
# Bulk Modulus (GPa) = 35.57356 47.81852 41.69604
# Shear Modulus (GPa) = 6.01832 18.54172 12.28002
#
# Velocity S-wave (km/s) = 1.77794 3.12072 2.53969
# Velocity P-wave (km/s) = 4.78535 6.17265 5.52273
#
# Compressibility (1/GPa) = 0.02811076
#
# Stress axis : x y z
#
# Youngs Moduli (GPa) = 57.32607 124.50294 69.28826
#
# Poissons Ratio (x) = 0.30605 -0.05950
# Poissons Ratio (y) = 0.14092 0.29790
# Poissons Ratio (z) = -0.04923 0.53528
#
# Static dielectric constant tensor:
#      x y z
#    x 1.564690 0.000000 0.000000 
#    y 0.000000 0.948650 0.000000 
#    z 0.000000 0.000000 1.680690 
# 
# From -- ./inp_files/48183.got.cif
#   From: 2010.05.17/outbox.cif.g08.bks.cpg/sg68_25_cif.got.tgz:48183.got - 2010.06.03 18:57:09.
