data_PCOD9505650
_publ_section_title
;
Structure prediction by ZEFSAII (Michael W. Deem and Ramdas Pophale) SiO2 
 PCOD9505650
Probable space group: C C C A
;
_chemical_formula_sum "Si O2"
_cell_formula_units_Z 72
_cell_length_a 7.954479
_cell_length_b 22.736442
_cell_length_c 20.803944
_cell_angle_alpha 90.000000
_cell_angle_beta 90.000000
_cell_angle_gamma 90.000000
_cell_volume 3762.529547
_symmetry_space_group_name_H-M "C C C A"
_symmetry_group_IT_number 68
_space_group.IT_coordinate_system_code '2'
_symmetry_cell_setting 'orthorhombic'
loop_
_space_group_symop_operation_xyz
x,y,z
-x,1/2-y,z
x,1/2-y,1/2-z
-x,y,1/2-z
-x,-y,-z
x,1/2+y,-z
-x,1/2+y,1/2+z
x,-y,1/2+z
1/2+x,1/2+y,z
1/2-x,-y,z
1/2+x,-y,1/2-z
1/2-x,1/2+y,1/2-z
1/2-x,1/2-y,-z
1/2+x,y,-z
1/2-x,y,1/2+z
1/2+x,1/2-y,1/2+z
loop_
_atom_site_type_symbol
_atom_site_label
_atom_site_fract_x
_atom_site_fract_y
_atom_site_fract_z
Si Si1 0.161836 0.854034 0.402885
Si Si2 0.750000 0.000000 0.406353
Si Si3 0.305494 0.262152 0.926096
Si Si4 0.425936 0.464806 0.178495
Si Si5 0.817546 0.121356 0.970492
O O1 0.196509 0.785745 0.386670
O O2 0.122643 0.899476 0.346703
O O3 0.308953 0.871613 0.452514
O O4 0.007290 0.863544 0.451378
O O5 0.578060 0.007545 0.364569
O O6 0.746605 0.057611 0.450623
O O7 0.500000 0.250000 0.915814
O O8 0.274019 0.331310 0.923789
O O9 0.250000 0.250000 0.000000
O O10 0.500000 0.463039 0.250000
O O11 0.250000 0.500000 0.175123
#
# Coordination Sequence:
#
# PCOD9505650 Si02
#       5
#    16   8  16  16  16
#     4  10  21  34  58  88 118 161 197 248 308 364
#     4  10  24  38  58  92 118 158 190 256 308 372
#     4  10  18  31  53  82 121 159 188 229 294 361
#     4  11  24  41  62  83 118 161 212 250 300 357
#     4  10  20  34  55  86 129 148 195 239 312 369
#
# _framework density 19.136063
#
# number of rings (size 3 to 8) (size 9 to 14) (size 15 to 20)
#    0.000    1.778    1.111    6.000    7.778    1.778 
#    0.000    0.000    0.000   10.667    0.000    7.778 
#    0.000    0.000    0.000    0.000    0.000    0.000 
#
# Total GULP energy -200452.006523 kJ/mol
# GULP energy per Si atom -5568.111292 kJ/mol
# Density = 1.909251 g / cm^3
# Si number density = 19.136063 Si / 1000 Ang^3
#
#
#
# Elastic Constant Matrix: (Units=GPa)
#
#
# Indices 1 2 3 4 5 6 
#
# 1 77.3929 27.9761 -1.3446 0.0000 0.0000 0.0000
# 2 27.9761 141.3658 5.7276 0.0000 0.0000 0.0000
# 3 -1.3446 5.7276 26.0841 0.0000 0.0000 0.0000
# 4 0.0000 0.0000 0.0000 14.3511 0.0000 0.0000
# 5 0.0000 0.0000 0.0000 0.0000 16.8324 0.0000
# 6 0.0000 0.0000 0.0000 0.0000 0.0000 29.6666
#
#
#
# Elastic Compliance Matrix: (Units=1/GPa)
#
#
# Indices 1 2 3 4 5 6 
#
# 1 0.013963 -0.002817 0.001338 0.000000 0.000000 0.000000
# 2 -0.002817 0.007706 -0.001837 0.000000 0.000000 0.000000
# 3 0.001338 -0.001837 0.038810 0.000000 0.000000 0.000000
# 4 0.000000 0.000000 0.000000 0.069681 0.000000 0.000000
# 5 0.000000 0.000000 0.000000 0.000000 0.059409 0.000000
# 6 0.000000 0.000000 0.000000 0.000000 0.000000 0.033708
#
#
# Mechanical properties :
#
#
# Convention : Reuss Voigt Hill
#
# Bulk Modulus (GPa) = 18.57150 34.39567 26.48359
# Shear Modulus (GPa) = 20.17282 26.33559 23.25420
#
# Velocity S-wave (km/s) = 3.25033 3.71378 3.48976
# Velocity P-wave (km/s) = 4.87978 6.03348 5.48703
#
# Compressibility (1/GPa) = 0.05384595
#
# Stress axis : x y z
#
# Youngs Moduli (GPa) = 71.61891 129.77138 25.76659
#
# Poissons Ratio (x) = 0.36562 -0.03449
# Poissons Ratio (y) = 0.20178 0.04734
# Poissons Ratio (z) = -0.09586 0.23843
#
# Static dielectric constant tensor:
#      x y z
#    x 1.960830 0.000000 0.000000 
#    y 0.000000 1.768550 0.000000 
#    z 0.000000 0.000000 1.657990 
# 
# From -- ./inp_files/36018.got.cif
#   From: 2010.05.17/outbox.cif.g08.bks.cpg/sg68_19_cif.got.tgz:36018.got - 2010.06.03 18:57:09.
