data_PCOD9505902
_publ_section_title
;
Structure prediction by ZEFSAII (Michael W. Deem and Ramdas Pophale) SiO2 
 PCOD9505902
Probable space group: C C C A
;
_chemical_formula_sum "Si O2"
_cell_formula_units_Z 116
_cell_length_a 15.858999
_cell_length_b 24.524164
_cell_length_c 14.049353
_cell_angle_alpha 90.000000
_cell_angle_beta 90.000000
_cell_angle_gamma 90.000000
_cell_volume 5464.196491
_symmetry_space_group_name_H-M "C C C A"
_symmetry_group_IT_number 68
_space_group.IT_coordinate_system_code '2'
_symmetry_cell_setting 'orthorhombic'
loop_
_space_group_symop_operation_xyz
x,y,z
-x,1/2-y,z
x,1/2-y,1/2-z
-x,y,1/2-z
-x,-y,-z
x,1/2+y,-z
-x,1/2+y,1/2+z
x,-y,1/2+z
1/2+x,1/2+y,z
1/2-x,-y,z
1/2+x,-y,1/2-z
1/2-x,1/2+y,1/2-z
1/2-x,1/2-y,-z
1/2+x,y,-z
1/2-x,y,1/2+z
1/2+x,1/2-y,1/2+z
loop_
_atom_site_type_symbol
_atom_site_label
_atom_site_fract_x
_atom_site_fract_y
_atom_site_fract_z
Si Si1 0.846588 0.002133 0.532766
Si Si2 0.377492 0.608311 0.950290
Si Si3 0.312517 0.339627 0.101950
Si Si4 0.953640 0.082865 0.654966
Si Si5 0.500000 0.750000 0.750000
Si Si6 0.642538 0.280668 0.109402
Si Si7 0.807855 0.690274 0.734035
Si Si8 0.303626 0.596182 0.403027
O O1 0.906957 0.033857 0.602974
O O2 0.843104 0.037381 0.432553
O O3 0.750000 0.000000 0.566308
O O4 0.873939 0.939749 0.525648
O O5 0.470207 0.604563 0.908481
O O6 0.364429 0.672316 0.968548
O O7 0.297270 0.591515 0.882313
O O8 0.383560 0.370050 0.164652
O O9 0.346623 0.280268 0.072800
O O10 0.230180 0.332008 0.166861
O O11 0.303276 0.374436 0.006567
O O12 0.000000 0.065801 0.750000
O O13 0.437164 0.717775 0.819755
O O14 0.725719 0.292748 0.171307
O O15 0.851982 0.750000 0.750000
O O16 0.843411 0.638309 0.673504
#
# Coordination Sequence:
#
# PCOD9505902 Si02
#       8
#    16  16  16  16   4  16  16  16
#     4   9  20  40  55  73 110 152 197 240 277 351
#     4  10  20  33  52  76 106 149 184 228 281 342
#     4  10  19  33  51  83 116 148 182 236 297 362
#     4  11  21  33  57  84 109 145 188 242 299 346
#     4  12  16  28  44  84 124 132 162 222 306 356
#     4  10  19  26  48  78 116 141 168 227 290 348
#     4   9  17  30  46  79 109 142 181 232 283 342
#     4   9  19  34  54  75 110 153 192 233 291 339
#
# _framework density 21.229105000000001
#
# number of rings (size 3 to 8) (size 9 to 14) (size 15 to 20)
#    0.000    2.207    2.069    2.897    1.931    4.966 
#    0.000    6.207    0.000    0.000    0.000    0.000 
#    0.000   13.241    0.000    0.000    0.000    0.000 
#
# Total GULP energy -323108.647223 kJ/mol
# GULP energy per Si atom -5570.838745 kJ/mol
# Density = 2.118079 g / cm^3
# Si number density = 21.229105 Si / 1000 Ang^3
#
#
#
# Elastic Constant Matrix: (Units=GPa)
#
#
# Indices 1 2 3 4 5 6 
#
# 1 29.4621 7.9165 14.7052 0.0000 0.0000 0.0000
# 2 7.9165 153.1098 44.2242 0.0000 0.0000 0.0000
# 3 14.7052 44.2242 60.0989 0.0000 0.0000 0.0000
# 4 0.0000 0.0000 0.0000 8.8104 0.0000 0.0000
# 5 0.0000 0.0000 0.0000 0.0000 17.1510 0.0000
# 6 0.0000 0.0000 0.0000 0.0000 0.0000 30.7253
#
#
#
# Elastic Compliance Matrix: (Units=1/GPa)
#
#
# Indices 1 2 3 4 5 6 
#
# 1 0.038769 0.000934 -0.010173 0.000000 0.000000 0.000000
# 2 0.000934 0.008317 -0.006348 0.000000 0.000000 0.000000
# 3 -0.010173 -0.006348 0.023800 0.000000 0.000000 0.000000
# 4 0.000000 0.000000 0.000000 0.113502 0.000000 0.000000
# 5 0.000000 0.000000 0.000000 0.000000 0.058306 0.000000
# 6 0.000000 0.000000 0.000000 0.000000 0.000000 0.032546
#
#
# Mechanical properties :
#
#
# Convention : Reuss Voigt Hill
#
# Bulk Modulus (GPa) = 25.18267 41.81806 33.50037
# Shear Modulus (GPa) = 15.64205 23.05900 19.35052
#
# Velocity S-wave (km/s) = 2.71739 3.29933 3.02240
# Velocity P-wave (km/s) = 4.66194 5.85280 5.29098
#
# Compressibility (1/GPa) = 0.03970985
#
# Stress axis : x y z
#
# Youngs Moduli (GPa) = 25.79401 120.24095 42.01685
#
# Poissons Ratio (x) = -0.11230 0.42745
# Poissons Ratio (y) = -0.02409 0.26674
# Poissons Ratio (z) = 0.26241 0.76333
#
# Static dielectric constant tensor:
#      x y z
#    x 1.801420 0.000000 0.000000 
#    y 0.000000 1.871880 0.000000 
#    z 0.000000 0.000000 1.784340 
# 
# From -- ./inp_files/23941.got.cif
#   From: 2010.05.17/outbox.cif.g08.bks.cpg/sg68_12_cif.got.tgz:23941.got - 2010.06.03 18:57:09.
