data_PCOD9505003
_publ_section_title
;
Structure prediction by ZEFSAII (Michael W. Deem and Ramdas Pophale) SiO2 
 PCOD9505003
Probable space group: C M M A
;
_chemical_formula_sum "Si O2"
_cell_formula_units_Z 88
_cell_length_a 19.442567
_cell_length_b 14.922218
_cell_length_c 14.504817
_cell_angle_alpha 90.000000
_cell_angle_beta 90.000000
_cell_angle_gamma 90.000000
_cell_volume 4208.227775
_symmetry_space_group_name_H-M "C M M A"
_symmetry_group_IT_number 67
_symmetry_cell_setting 'orthorhombic'
loop_
_space_group_symop_operation_xyz
x,y,z
-x,1/2-y,z
x,-y,-z
-x,1/2+y,-z
-x,-y,-z
x,1/2+y,-z
-x,y,z
x,1/2-y,z
1/2+x,1/2+y,z
1/2-x,-y,z
1/2+x,1/2-y,-z
1/2-x,y,-z
1/2-x,1/2-y,-z
1/2+x,y,-z
1/2-x,1/2+y,z
1/2+x,-y,z
loop_
_atom_site_type_symbol
_atom_site_label
_atom_site_fract_x
_atom_site_fract_y
_atom_site_fract_z
Si Si1 0.888849 0.250000 0.962332
Si Si2 0.667353 0.145975 0.512167
Si Si3 0.000000 0.093461 0.946024
Si Si4 0.582918 0.904031 0.302695
Si Si5 0.134380 0.406025 0.678479
Si Si6 0.000000 0.153759 0.759447
Si Si7 0.708586 0.750000 0.779234
Si Si8 0.867362 0.750000 0.824782
O O1 0.934446 0.158622 0.961037
O O2 0.859932 0.250000 0.065461
O O3 0.836407 0.250000 0.874763
O O4 0.653978 0.250000 0.487903
O O5 0.750000 0.134923 0.500000
O O6 0.626940 0.129503 0.607739
O O7 0.640699 0.083732 0.430277
O O8 0.000000 0.077424 0.836291
O O9 0.000000 0.000000 0.000000
O O10 0.500000 0.914172 0.321859
O O11 0.593551 0.834964 0.219179
O O12 0.620758 0.997267 0.278542
O O13 0.190816 0.341044 0.723008
O O14 0.065597 0.352103 0.697816
O O15 0.000000 0.250000 0.808670
O O16 0.789464 0.750000 0.790676
#
# Coordination Sequence:
#
# PCOD9505003 Si02
#       8
#     8  16   8  16  16   8   8   8
#     4  11  25  44  69 102 136 181 228 282 345 415
#     4  11  24  45  69  98 138 187 232 280 344 411
#     4  11  23  40  71 102 139 172 228 288 350 409
#     4  12  28  46  67 104 144 182 233 283 345 421
#     4  12  24  41  75  99 134 177 231 288 344 394
#     4  12  20  43  66 105 134 171 229 291 344 392
#     4  12  24  49  71 103 134 176 239 292 334 415
#     4  12  29  46  69  96 145 190 222 275 356 421
#
# _framework density 20.911415000000002
#
# number of rings (size 3 to 8) (size 9 to 14) (size 15 to 20)
#    0.000    0.364    6.364    2.182    6.364    4.364 
#    0.000    0.000    0.000    3.273    0.000    0.000 
#    0.000    0.000    0.000    0.000    0.000    0.000 
#
# Total GULP energy -245478.702328 kJ/mol
# GULP energy per Si atom -5579.061417 kJ/mol
# Density = 2.086382 g / cm^3
# Si number density = 20.911415 Si / 1000 Ang^3
#
#
#
# Elastic Constant Matrix: (Units=GPa)
#
#
# Indices 1 2 3 4 5 6 
#
# 1 87.3427 9.1721 14.9656 0.0000 0.0000 0.0000
# 2 9.1721 122.3069 20.4971 0.0000 0.0000 0.0000
# 3 14.9656 20.4971 98.0979 0.0000 0.0000 0.0000
# 4 0.0000 0.0000 0.0000 28.6328 0.0000 0.0000
# 5 0.0000 0.0000 0.0000 0.0000 31.2374 0.0000
# 6 0.0000 0.0000 0.0000 0.0000 0.0000 -20.3625
#
#
#
# Elastic Compliance Matrix: (Units=1/GPa)
#
#
# Indices 1 2 3 4 5 6 
#
# 1 0.011799 -0.000604 -0.001674 0.000000 0.000000 0.000000
# 2 -0.000604 0.008504 -0.001685 0.000000 0.000000 0.000000
# 3 -0.001674 -0.001685 0.010801 0.000000 0.000000 0.000000
# 4 0.000000 0.000000 0.000000 0.034925 0.000000 0.000000
# 5 0.000000 0.000000 0.000000 0.000000 0.032013 0.000000
# 6 0.000000 0.000000 0.000000 0.000000 0.000000 -0.049110
#
#
# Mechanical properties :
#
#
# Convention : Reuss Voigt Hill
#
# Bulk Modulus (GPa) = 43.14276 44.11301 43.62788
# Shear Modulus (GPa) = 77.41816 25.44238 51.43027
#
# Velocity S-wave (km/s) = 6.09117 3.49187 4.96465
# Velocity P-wave (km/s) = 8.37531 6.11543 7.33295
#
# Compressibility (1/GPa) = 0.02317886
#
# Stress axis : x y z
#
# Youngs Moduli (GPa) = 84.74992 117.59449 92.58185
#
# Poissons Ratio (x) = 0.07107 0.15497
# Poissons Ratio (y) = 0.05122 0.15597
# Poissons Ratio (z) = 0.14186 0.19810
#
# Static dielectric constant tensor:
#      x y z
#    x 1.746540 0.000000 0.000000 
#    y 0.000000 1.792360 0.000000 
#    z 0.000000 0.000000 2.029670 
# 
# From -- ./inp_files/29232.got.cif
#   From: 2010.05.17/outbox.cif.g08.bks.cpg/sg67_15_cif.got.tgz:29232.got - 2010.06.03 18:28:57.
