data_PCOD9505178
_publ_section_title
;
Structure prediction by ZEFSAII (Michael W. Deem and Ramdas Pophale) SiO2 
 PCOD9505178
Probable space group: C M M A
;
_chemical_formula_sum "Si O2"
_cell_formula_units_Z 56
_cell_length_a 21.000000
_cell_length_b 24.000000
_cell_length_c 12.000000
_cell_angle_alpha 90.000000
_cell_angle_beta 90.000000
_cell_angle_gamma 90.000000
_cell_volume 6048.000000
_symmetry_space_group_name_H-M "C M M A"
_symmetry_group_IT_number 67
_symmetry_cell_setting 'orthorhombic'
loop_
_space_group_symop_operation_xyz
x,y,z
-x,1/2-y,z
x,-y,-z
-x,1/2+y,-z
-x,-y,-z
x,1/2+y,-z
-x,y,z
x,1/2-y,z
1/2+x,1/2+y,z
1/2-x,-y,z
1/2+x,1/2-y,-z
1/2-x,y,-z
1/2-x,1/2-y,-z
1/2+x,y,-z
1/2-x,1/2+y,z
1/2+x,-y,z
loop_
_atom_site_type_symbol
_atom_site_label
_atom_site_fract_x
_atom_site_fract_y
_atom_site_fract_z
Si Si1 0.426418 0.316070 0.714981
Si Si2 0.319841 0.883120 0.881711
Si Si3 0.179346 0.499583 0.780104
Si Si4 0.925975 0.661918 0.467949
Si Si5 0.570270 0.035457 0.388267
Si Si6 0.820472 0.124714 0.141601
Si Si7 0.575845 0.310863 0.230424
O O1 0.500000 0.337614 0.725935
O O2 0.429243 0.250000 0.728563
O O3 0.400275 0.328790 0.590656
O O4 0.376105 0.341553 0.799637
O O5 0.253329 0.862851 0.826257
O O6 0.381733 0.857507 0.825371
O O7 0.319178 0.949896 0.869835
O O8 0.321762 0.866873 0.009881
O O9 0.250000 0.500000 0.727132
O O10 0.125348 0.483815 0.692847
O O11 0.167998 0.559877 0.831105
O O12 0.922248 0.598182 0.430570
O O13 0.901941 0.692412 0.358725
O O14 0.000000 0.678823 0.479591
O O15 0.500000 0.029866 0.335391
O O16 0.571425 0.000000 0.500000
O O17 0.500000 0.323596 0.229532
O O18 0.584517 0.250000 0.177421
#
# Coordination Sequence:
#
# PCOD9505178 Si02
#       7
#    16  16  16  16  16  16  16
#     4  10  21  38  59  83 113 149 190 232 275 329
#     4  10  21  39  58  80 111 148 187 231 281 333
#     4  10  20  36  57  82 109 145 186 230 274 331
#     4   9  17  33  56  81 111 145 179 219 274 333
#     4  10  19  31  52  82 115 146 178 220 271 329
#     4  10  22  38  58  81 110 148 189 231 280 332
#     4  10  20  35  58  85 110 141 185 233 278 327
#
# _framework density 9.2592590000000001
#
# number of rings (size 3 to 8) (size 9 to 14) (size 15 to 20)
#    0.000    2.143    1.429    1.714    0.000    7.143 
#    0.000    3.571    0.000    4.286    0.000    0.000 
#    0.000    0.000    0.000    0.000    0.000    0.000 
#
# Total GULP energy -311869.847483 kJ/mol
# GULP energy per Si atom -5569.104419 kJ/mol
# Density = 0.923818 g / cm^3
# Si number density = 9.259259 Si / 1000 Ang^3
#
#
#
# Elastic Constant Matrix: (Units=GPa)
#
#
# Indices 1 2 3 4 5 6 
#
# 1 103.3436 41.8280 51.6261 0.0000 0.0000 0.0000
# 2 41.8280 40.6431 29.5296 0.0000 0.0000 0.0000
# 3 51.6261 29.5296 62.6908 0.0000 0.0000 0.0000
# 4 0.0000 0.0000 0.0000 2.8702 0.0000 0.0000
# 5 0.0000 0.0000 0.0000 0.0000 26.4781 0.0000
# 6 0.0000 0.0000 0.0000 0.0000 0.0000 21.3173
#
#
#
# Elastic Compliance Matrix: (Units=1/GPa)
#
#
# Indices 1 2 3 4 5 6 
#
# 1 0.020259 -0.013270 -0.010433 0.000000 0.000000 0.000000
# 2 -0.013270 0.046098 -0.010786 0.000000 0.000000 0.000000
# 3 -0.010433 -0.010786 0.029624 0.000000 0.000000 0.000000
# 4 0.000000 0.000000 0.000000 0.348406 0.000000 0.000000
# 5 0.000000 0.000000 0.000000 0.000000 0.037767 0.000000
# 6 0.000000 0.000000 0.000000 0.000000 0.000000 0.046910
#
#
# Mechanical properties :
#
#
# Convention : Reuss Voigt Hill
#
# Bulk Modulus (GPa) = 37.03296 50.29387 43.66342
# Shear Modulus (GPa) = 8.23666 15.71272 11.97469
#
# Velocity S-wave (km/s) = 2.11127 2.91604 2.54566
# Velocity P-wave (km/s) = 5.09750 6.20930 5.68066
#
# Compressibility (1/GPa) = 0.02700297
#
# Stress axis : x y z
#
# Youngs Moduli (GPa) = 49.36017 21.69310 33.75692
#
# Poissons Ratio (x) = 0.28786 0.35219
# Poissons Ratio (y) = 0.65499 0.36410
# Poissons Ratio (z) = 0.51498 0.23398
#
# Static dielectric constant tensor:
#      x y z
#    x 1.637970 0.000000 0.000000 
#    y 0.000000 1.639640 0.000000 
#    z 0.000000 0.000000 1.651360 
# 
# From -- ./inp_files/21077.got.cif
#   From: 2010.05.17/outbox.ucp.g08.bks.cvg/sg67_11_cif.got.tgz:21077.got - 2010.06.11 16:47:20.
