data_PCOD9505567
_publ_section_title
;
Structure prediction by ZEFSAII (Michael W. Deem and Ramdas Pophale) SiO2 
 PCOD9505567
Probable space group: C C C A
;
_chemical_formula_sum "Si O2"
_cell_formula_units_Z 100
_cell_length_a 29.112533
_cell_length_b 13.696395
_cell_length_c 11.301073
_cell_angle_alpha 90.000000
_cell_angle_beta 90.000000
_cell_angle_gamma 90.000000
_cell_volume 4506.153136
_symmetry_space_group_name_H-M "C C C A"
_symmetry_group_IT_number 68
_space_group.IT_coordinate_system_code '2'
_symmetry_cell_setting 'orthorhombic'
loop_
_space_group_symop_operation_xyz
x,y,z
-x,1/2-y,z
x,1/2-y,1/2-z
-x,y,1/2-z
-x,-y,-z
x,1/2+y,-z
-x,1/2+y,1/2+z
x,-y,1/2+z
1/2+x,1/2+y,z
1/2-x,-y,z
1/2+x,-y,1/2-z
1/2-x,1/2+y,1/2-z
1/2-x,1/2-y,-z
1/2+x,y,-z
1/2-x,y,1/2+z
1/2+x,1/2-y,1/2+z
loop_
_atom_site_type_symbol
_atom_site_label
_atom_site_fract_x
_atom_site_fract_y
_atom_site_fract_z
Si Si1 0.268568 0.387048 0.058790
Si Si2 0.968251 0.390520 0.637881
Si Si3 0.500000 0.750000 0.250000
Si Si4 0.037964 0.883278 0.560927
Si Si5 0.370712 0.579518 0.831676
Si Si6 0.734527 0.115417 0.312860
Si Si7 0.627475 0.058637 0.063305
O O1 0.250000 0.500000 0.057255
O O2 0.251021 0.347030 0.184140
O O3 0.323748 0.387659 0.060939
O O4 0.253697 0.343952 0.934437
O O5 0.965053 0.507787 0.616116
O O6 0.916310 0.355291 0.655576
O O7 0.000000 0.369944 0.750000
O O8 0.993967 0.359484 0.519769
O O9 0.465908 0.686824 0.329464
O O10 0.082664 0.881330 0.477390
O O11 0.320452 0.624643 0.821061
O O12 0.377908 0.526173 0.701954
O O13 0.368777 0.519296 0.955376
O O14 0.750000 0.000000 0.311312
#
# Coordination Sequence:
#
# PCOD9505567 Si02
#       7
#    16  16   4  16  16  16  16
#     4   9  15  24  37  61 101 143 176 217 285 340
#     4  10  18  35  54  82 111 148 185 231 303 350
#     4  12  24  44  58  84 116 158 204 250 284 352
#     4  10  22  35  56  80 113 150 189 241 291 348
#     4  10  18  26  47  72 108 148 187 224 288 357
#     4   9  15  24  35  62 102 149 172 222 277 348
#     4  10  18  28  46  72 103 151 182 232 286 351
#
# _framework density 22.191879
#
# number of rings (size 3 to 8) (size 9 to 14) (size 15 to 20)
#    0.000    2.240    5.600    0.000    0.000    0.000 
#    0.000    0.400    0.000    0.000    0.000    0.000 
#    0.000   11.520    0.000    0.000    0.000    0.000 
#
# Total GULP energy -278634.351120 kJ/mol
# GULP energy per Si atom -5572.687022 kJ/mol
# Density = 2.214137 g / cm^3
# Si number density = 22.191879 Si / 1000 Ang^3
#
#
#
# Elastic Constant Matrix: (Units=GPa)
#
#
# Indices 1 2 3 4 5 6 
#
# 1 123.0527 2.1108 27.5306 0.0000 0.0000 0.0000
# 2 2.1108 57.5984 26.8319 0.0000 0.0000 0.0000
# 3 27.5306 26.8319 201.3588 0.0000 0.0000 0.0000
# 4 0.0000 0.0000 0.0000 -49.1308 0.0000 0.0000
# 5 0.0000 0.0000 0.0000 0.0000 42.2593 0.0000
# 6 0.0000 0.0000 0.0000 0.0000 0.0000 -13.6435
#
#
#
# Elastic Compliance Matrix: (Units=1/GPa)
#
#
# Indices 1 2 3 4 5 6 
#
# 1 0.008386 0.000242 -0.001179 0.000000 0.000000 0.000000
# 2 0.000242 0.018518 -0.002501 0.000000 0.000000 0.000000
# 3 -0.001179 -0.002501 0.005461 0.000000 0.000000 0.000000
# 4 0.000000 0.000000 0.000000 -0.020354 0.000000 0.000000
# 5 0.000000 0.000000 0.000000 0.000000 0.023663 0.000000
# 6 0.000000 0.000000 0.000000 0.000000 0.000000 -0.073295
#
#
# Mechanical properties :
#
#
# Convention : Reuss Voigt Hill
#
# Bulk Modulus (GPa) = 39.23224 54.99518 47.11371
# Shear Modulus (GPa) = -224.72821 17.59942 -103.56440
#
# Velocity S-wave (km/s) = -10.07402 2.81918 -6.83879
# Velocity P-wave (km/s) = 10.84423 5.95252 6.40956
#
# Compressibility (1/GPa) = 0.02548924
#
# Stress axis : x y z
#
# Youngs Moduli (GPa) = 119.24363 54.00254 183.12833
#
# Poissons Ratio (x) = -0.01306 0.21588
# Poissons Ratio (y) = -0.02883 0.45793
# Poissons Ratio (z) = 0.14057 0.13504
#
# Static dielectric constant tensor:
#      x y z
#    x 1.813380 0.000000 0.000000 
#    y 0.000000 1.901580 0.000000 
#    z 0.000000 0.000000 1.842000 
# 
# From -- ./inp_files/17739.got.cif
#   From: 2010.05.17/outbox.cif.g08.bks.cpg/sg68_9_cif.got.tgz:17739.got - 2010.06.03 18:57:09.
