data_PCOD9505790
_publ_section_title
;
Structure prediction by ZEFSAII (Michael W. Deem and Ramdas Pophale) SiO2 
 PCOD9505790
Probable space group: C C C A
;
_chemical_formula_sum "Si O2"
_cell_formula_units_Z 84
_cell_length_a 13.800861
_cell_length_b 11.177862
_cell_length_c 23.323292
_cell_angle_alpha 90.000000
_cell_angle_beta 90.000000
_cell_angle_gamma 90.000000
_cell_volume 3597.947110
_symmetry_space_group_name_H-M "C C C A"
_symmetry_group_IT_number 68
_space_group.IT_coordinate_system_code '2'
_symmetry_cell_setting 'orthorhombic'
loop_
_space_group_symop_operation_xyz
x,y,z
-x,1/2-y,z
x,1/2-y,1/2-z
-x,y,1/2-z
-x,-y,-z
x,1/2+y,-z
-x,1/2+y,1/2+z
x,-y,1/2+z
1/2+x,1/2+y,z
1/2-x,-y,z
1/2+x,-y,1/2-z
1/2-x,1/2+y,1/2-z
1/2-x,1/2-y,-z
1/2+x,y,-z
1/2-x,y,1/2+z
1/2+x,1/2-y,1/2+z
loop_
_atom_site_type_symbol
_atom_site_label
_atom_site_fract_x
_atom_site_fract_y
_atom_site_fract_z
Si Si1 0.432406 0.487193 0.118987
Si Si2 0.319670 0.248617 0.089516
Si Si3 0.614478 0.880995 0.234531
Si Si4 0.830309 0.898399 0.517730
Si Si5 0.000000 0.250000 0.750000
Si Si6 0.871871 0.571785 0.174958
O O1 0.385455 0.354220 0.116104
O O2 0.381457 0.565329 0.170074
O O3 0.411186 0.541730 0.056944
O O4 0.545552 0.483099 0.133304
O O5 0.227024 0.310131 0.060930
O O6 0.298508 0.147846 0.136688
O O7 0.366736 0.177071 0.036140
O O8 0.654125 0.750000 0.250000
O O9 0.500000 0.877803 0.250000
O O10 0.656882 0.973135 0.279673
O O11 0.750000 0.000000 0.500846
O O12 0.932561 0.166900 0.787968
#
# Coordination Sequence:
#
# PCOD9505790 Si02
#       6
#    16  16  16  16   4  16
#     4  10  18  35  61  83 114 147 190 246 298 349
#     4  10  19  36  58  82 110 152 199 239 290 355
#     4   9  18  34  56  86 117 148 176 230 310 358
#     4   9  21  38  56  75 116 163 192 237 298 354
#     4  12  16  32  58  96 112 140 180 250 324 344
#     4  11  18  32  62  91 114 146 191 248 306 361
#
# _framework density 23.346647000000001
#
# number of rings (size 3 to 8) (size 9 to 14) (size 15 to 20)
#    0.000    2.095    4.762    0.000    0.000    0.762 
#   10.286    0.000   18.857    0.000    0.000    0.000 
#    0.000    0.000    0.000    0.000    0.000    0.000 
#
# Total GULP energy -234731.038767 kJ/mol
# GULP energy per Si atom -5588.834256 kJ/mol
# Density = 2.329351 g / cm^3
# Si number density = 23.346647 Si / 1000 Ang^3
#
#
#
# Elastic Constant Matrix: (Units=GPa)
#
#
# Indices 1 2 3 4 5 6 
#
# 1 40.4450 12.7146 13.9933 0.0000 0.0000 0.0000
# 2 12.7146 155.0973 68.0876 0.0000 0.0000 0.0000
# 3 13.9933 68.0876 106.0969 0.0000 0.0000 0.0000
# 4 0.0000 0.0000 0.0000 60.3351 0.0000 0.0000
# 5 0.0000 0.0000 0.0000 0.0000 22.7289 0.0000
# 6 0.0000 0.0000 0.0000 0.0000 0.0000 -17.2349
#
#
#
# Elastic Compliance Matrix: (Units=1/GPa)
#
#
# Indices 1 2 3 4 5 6 
#
# 1 0.025991 -0.000871 -0.002869 0.000000 0.000000 0.000000
# 2 -0.000871 0.009006 -0.005664 0.000000 0.000000 0.000000
# 3 -0.002869 -0.005664 0.013439 0.000000 0.000000 0.000000
# 4 0.000000 0.000000 0.000000 0.016574 0.000000 0.000000
# 5 0.000000 0.000000 0.000000 0.000000 0.043997 0.000000
# 6 0.000000 0.000000 0.000000 0.000000 0.000000 -0.058022
#
#
# Mechanical properties :
#
#
# Convention : Reuss Voigt Hill
#
# Bulk Modulus (GPa) = 33.75334 54.58114 44.16724
# Shear Modulus (GPa) = 62.75872 26.95539 44.85706
#
# Velocity S-wave (km/s) = 5.19034 3.40159 4.38807
# Velocity P-wave (km/s) = 7.09988 6.23354 6.68077
#
# Compressibility (1/GPa) = 0.02962670
#
# Stress axis : x y z
#
# Youngs Moduli (GPa) = 38.47421 111.04076 74.41076
#
# Poissons Ratio (x) = 0.09675 0.21348
# Poissons Ratio (y) = 0.03352 0.42150
# Poissons Ratio (z) = 0.11038 0.62899
#
# Static dielectric constant tensor:
#      x y z
#    x 1.927440 0.000000 0.000000 
#    y 0.000000 1.864240 0.000000 
#    z 0.000000 0.000000 1.979690 
# 
# From -- ./inp_files/32734.got.cif
#   From: 2010.05.17/outbox.cif.g08.bks.cpg/sg68_17_cif.got.tgz:32734.got - 2010.06.03 18:57:09.
