data_PCOD9505593
_publ_section_title
;
Structure prediction by ZEFSAII (Michael W. Deem and Ramdas Pophale) SiO2 
 PCOD9505593
Probable space group: C C C A
;
_chemical_formula_sum "Si O2"
_cell_formula_units_Z 128
_cell_length_a 21.984422
_cell_length_b 14.560788
_cell_length_c 20.811236
_cell_angle_alpha 90.000000
_cell_angle_beta 90.000000
_cell_angle_gamma 90.000000
_cell_volume 6661.895329
_symmetry_space_group_name_H-M "C C C A"
_symmetry_group_IT_number 68
_space_group.IT_coordinate_system_code '2'
_symmetry_cell_setting 'orthorhombic'
loop_
_space_group_symop_operation_xyz
x,y,z
-x,1/2-y,z
x,1/2-y,1/2-z
-x,y,1/2-z
-x,-y,-z
x,1/2+y,-z
-x,1/2+y,1/2+z
x,-y,1/2+z
1/2+x,1/2+y,z
1/2-x,-y,z
1/2+x,-y,1/2-z
1/2-x,1/2+y,1/2-z
1/2-x,1/2-y,-z
1/2+x,y,-z
1/2-x,y,1/2+z
1/2+x,1/2-y,1/2+z
loop_
_atom_site_type_symbol
_atom_site_label
_atom_site_fract_x
_atom_site_fract_y
_atom_site_fract_z
Si Si1 0.327850 0.743807 0.455465
Si Si2 0.566193 0.245999 0.637889
Si Si3 0.688297 0.050457 0.162966
Si Si4 0.737596 0.656473 0.713890
Si Si5 0.566148 0.040876 0.833855
Si Si6 0.805293 0.236174 0.596022
Si Si7 0.932044 0.947982 0.686868
Si Si8 0.188205 0.445301 0.389948
O O1 0.382903 0.777961 0.413175
O O2 0.264904 0.779341 0.425584
O O3 0.335171 0.767292 0.529835
O O4 0.323102 0.633679 0.442794
O O5 0.500000 0.250000 0.606382
O O6 0.576134 0.348667 0.662722
O O7 0.565485 0.163073 0.688330
O O8 0.704912 0.092023 0.233989
O O9 0.671837 0.139387 0.121383
O O10 0.750000 0.000000 0.141578
O O11 0.631697 0.982318 0.159806
O O12 0.758387 0.750000 0.750000
O O13 0.695846 0.692594 0.655041
O O14 0.791682 0.603699 0.677563
O O15 0.568694 0.014223 0.759334
O O16 0.494638 0.023818 0.849929
O O17 0.623910 0.004992 0.874870
O O18 0.250000 0.500000 0.407340
#
# Coordination Sequence:
#
# PCOD9505593 Si02
#       8
#    16  16  16  16  16  16  16  16
#     4   9  18  33  52  71  95 128 165 202 244 290
#     4   9  17  30  50  73  99 130 165 201 240 295
#     4  11  20  30  50  77 103 127 160 204 251 296
#     4   9  18  31  48  73  99 126 160 203 250 298
#     4   9  18  29  45  72 104 136 162 191 246 303
#     4   9  19  34  50  70  97 129 164 205 244 289
#     4  10  18  29  47  73 105 131 157 202 252 295
#     4  10  18  29  48  73  98 124 161 205 247 292
#
# _framework density 19.213750999999998
#
# number of rings (size 3 to 8) (size 9 to 14) (size 15 to 20)
#    0.000    2.500    0.000    3.000    0.000    6.000 
#    0.000    1.250    0.000   14.250    0.000   43.750 
#    0.000    0.000    0.000    0.000    0.000    0.000 
#
# Total GULP energy -356379.340139 kJ/mol
# GULP energy per Si atom -5568.427190 kJ/mol
# Density = 1.917002 g / cm^3
# Si number density = 19.213751 Si / 1000 Ang^3
#
#
#
# Elastic Constant Matrix: (Units=GPa)
#
#
# Indices 1 2 3 4 5 6 
#
# 1 98.9226 4.1435 -11.4118 0.0000 0.0000 0.0000
# 2 4.1435 31.4850 -18.0518 0.0000 0.0000 0.0000
# 3 -11.4118 -18.0518 38.0841 0.0000 0.0000 0.0000
# 4 0.0000 0.0000 0.0000 11.8912 0.0000 0.0000
# 5 0.0000 0.0000 0.0000 0.0000 11.7586 0.0000
# 6 0.0000 0.0000 0.0000 0.0000 0.0000 27.4933
#
#
#
# Elastic Compliance Matrix: (Units=1/GPa)
#
#
# Indices 1 2 3 4 5 6 
#
# 1 0.010479 0.000578 0.003414 0.000000 0.000000 0.000000
# 2 0.000578 0.043646 0.020861 0.000000 0.000000 0.000000
# 3 0.003414 0.020861 0.037169 0.000000 0.000000 0.000000
# 4 0.000000 0.000000 0.000000 0.084096 0.000000 0.000000
# 5 0.000000 0.000000 0.000000 0.000000 0.085044 0.000000
# 6 0.000000 0.000000 0.000000 0.000000 0.000000 0.036372
#
#
# Mechanical properties :
#
#
# Convention : Reuss Voigt Hill
#
# Bulk Modulus (GPa) = 7.09215 13.09461 10.09338
# Shear Modulus (GPa) = 17.00112 23.14941 20.07526
#
# Velocity S-wave (km/s) = 2.97785 3.47484 3.23590
# Velocity P-wave (km/s) = 3.93988 4.78846 4.38475
#
# Compressibility (1/GPa) = 0.14100094
#
# Stress axis : x y z
#
# Youngs Moduli (GPa) = 95.43315 22.91171 26.90420
#
# Poissons Ratio (x) = -0.01325 -0.09185
# Poissons Ratio (y) = -0.05520 -0.56126
# Poissons Ratio (z) = -0.32581 -0.47797
#
# Static dielectric constant tensor:
#      x y z
#    x 1.705730 0.000000 0.000000 
#    y 0.000000 1.704990 0.000000 
#    z 0.000000 0.000000 1.671480 
# 
# From -- ./inp_files/40451.got.cif
#   From: 2010.05.17/outbox.cif.g08.bks.cpg/sg68_21_cif.got.tgz:40451.got - 2010.06.03 18:57:09.
