data_PCOD9505063
_publ_section_title
;
Structure prediction by ZEFSAII (Michael W. Deem and Ramdas Pophale) SiO2 
 PCOD9505063
Probable space group: C M M A
;
_chemical_formula_sum "Si O2"
_cell_formula_units_Z 64
_cell_length_a 18.944045
_cell_length_b 13.865336
_cell_length_c 12.117071
_cell_angle_alpha 90.000000
_cell_angle_beta 90.000000
_cell_angle_gamma 90.000000
_cell_volume 3182.737108
_symmetry_space_group_name_H-M "C M M A"
_symmetry_group_IT_number 67
_symmetry_cell_setting 'orthorhombic'
loop_
_space_group_symop_operation_xyz
x,y,z
-x,1/2-y,z
x,-y,-z
-x,1/2+y,-z
-x,-y,-z
x,1/2+y,-z
-x,y,z
x,1/2-y,z
1/2+x,1/2+y,z
1/2-x,-y,z
1/2+x,1/2-y,-z
1/2-x,y,-z
1/2-x,1/2-y,-z
1/2+x,y,-z
1/2-x,1/2+y,z
1/2+x,-y,z
loop_
_atom_site_type_symbol
_atom_site_label
_atom_site_fract_x
_atom_site_fract_y
_atom_site_fract_z
Si Si1 0.140921 0.565647 0.836713
Si Si2 0.736650 0.750000 0.131286
Si Si3 0.250000 0.500000 0.000000
Si Si4 0.000000 0.892432 0.962677
Si Si5 0.000000 0.250000 0.831966
Si Si6 0.831661 0.535709 0.379893
Si Si7 0.357246 0.250000 0.302982
O O1 0.194435 0.655200 0.834886
O O2 0.186434 0.486638 0.907062
O O3 0.127121 0.516798 0.719530
O O4 0.071579 0.612965 0.891770
O O5 0.808673 0.750000 0.195331
O O6 0.750000 0.750000 0.000000
O O7 0.000000 0.835290 0.077508
O O8 0.000000 0.000000 0.000000
O O9 0.934423 0.250000 0.749531
O O10 0.855190 0.500000 0.500000
O O11 0.750000 0.500000 0.367532
O O12 0.840137 0.651008 0.367940
#
# Coordination Sequence:
#
# PCOD9505063 Si02
#       7
#    16   8   4   8   4  16   8
#     4  12  23  40  62 100 135 182 233 289 349 423
#     4  12  22  36  66  95 132 178 224 290 342 417
#     4  12  20  36  62  92 136 168 240 276 356 422
#     4  12  24  40  62  95 146 187 221 282 353 422
#     4  12  28  44  66 112 150 192 226 278 372 428
#     4  11  25  45  72 105 135 183 244 297 350 408
#     4  12  24  48  70 102 141 183 231 293 348 420
#
# _framework density 20.108478999999999
#
# number of rings (size 3 to 8) (size 9 to 14) (size 15 to 20)
#    0.000    0.250    6.250    3.750    0.000    3.000 
#    0.000    2.500    0.000    0.000    0.000    0.000 
#    0.000    0.000    0.000    0.000    0.000    0.000 
#
# Total GULP energy -178147.896155 kJ/mol
# GULP energy per Si atom -5567.121755 kJ/mol
# Density = 2.006271 g / cm^3
# Si number density = 20.108479 Si / 1000 Ang^3
#
#
#
# Elastic Constant Matrix: (Units=GPa)
#
#
# Indices 1 2 3 4 5 6 
#
# 1 133.3467 21.3477 26.6344 0.0000 0.0000 0.0000
# 2 21.3477 154.3209 53.5318 0.0000 0.0000 0.0000
# 3 26.6344 53.5318 141.4847 0.0000 0.0000 0.0000
# 4 0.0000 0.0000 0.0000 35.2870 0.0000 0.0000
# 5 0.0000 0.0000 0.0000 0.0000 16.3475 0.0000
# 6 0.0000 0.0000 0.0000 0.0000 0.0000 0.2666
#
#
#
# Elastic Compliance Matrix: (Units=1/GPa)
#
#
# Indices 1 2 3 4 5 6 
#
# 1 0.007850 -0.000660 -0.001228 0.000000 0.000000 0.000000
# 2 -0.000660 0.007514 -0.002719 0.000000 0.000000 0.000000
# 3 -0.001228 -0.002719 0.008328 0.000000 0.000000 0.000000
# 4 0.000000 0.000000 0.000000 0.028339 0.000000 0.000000
# 5 0.000000 0.000000 0.000000 0.000000 0.061172 0.000000
# 6 0.000000 0.000000 0.000000 0.000000 0.000000 3.750794
#
#
# Mechanical properties :
#
#
# Convention : Reuss Voigt Hill
#
# Bulk Modulus (GPa) = 69.06766 70.24224 69.65495
# Shear Modulus (GPa) = 1.28931 32.22278 16.75605
#
# Velocity S-wave (km/s) = 0.80160 4.00740 2.88980
# Velocity P-wave (km/s) = 5.93960 7.51131 6.77121
#
# Compressibility (1/GPa) = 0.01447856
#
# Stress axis : x y z
#
# Youngs Moduli (GPa) = 127.38532 133.07698 120.07949
#
# Poissons Ratio (x) = 0.08782 0.14747
# Poissons Ratio (y) = 0.08407 0.32649
# Poissons Ratio (z) = 0.15644 0.36183
#
# Static dielectric constant tensor:
#      x y z
#    x 1.648110 0.000000 0.000000 
#    y 0.000000 1.787250 0.000000 
#    z 0.000000 0.000000 1.867250 
# 
# From -- ./inp_files/19059.got.cif
#   From: 2010.05.17/outbox.cif.g08.bks.cpg/sg67_10_cif.got.tgz:19059.got - 2010.06.03 18:28:57.
