data_PCOD9505623
_publ_section_title
;
Structure prediction by ZEFSAII (Michael W. Deem and Ramdas Pophale) SiO2 
 PCOD9505623
Probable space group: C C C A
;
_chemical_formula_sum "Si O2"
_cell_formula_units_Z 80
_cell_length_a 9.180733
_cell_length_b 23.480643
_cell_length_c 15.580461
_cell_angle_alpha 90.000000
_cell_angle_beta 90.000000
_cell_angle_gamma 90.000000
_cell_volume 3358.672406
_symmetry_space_group_name_H-M "C C C A"
_symmetry_group_IT_number 68
_space_group.IT_coordinate_system_code '2'
_symmetry_cell_setting 'orthorhombic'
loop_
_space_group_symop_operation_xyz
x,y,z
-x,1/2-y,z
x,1/2-y,1/2-z
-x,y,1/2-z
-x,-y,-z
x,1/2+y,-z
-x,1/2+y,1/2+z
x,-y,1/2+z
1/2+x,1/2+y,z
1/2-x,-y,z
1/2+x,-y,1/2-z
1/2-x,1/2+y,1/2-z
1/2-x,1/2-y,-z
1/2+x,y,-z
1/2-x,y,1/2+z
1/2+x,1/2-y,1/2+z
loop_
_atom_site_type_symbol
_atom_site_label
_atom_site_fract_x
_atom_site_fract_y
_atom_site_fract_z
Si Si1 0.904195 0.096512 0.438445
Si Si2 0.189803 0.662238 0.534455
Si Si3 0.829051 0.260894 0.635835
Si Si4 0.605120 0.036362 0.669139
Si Si5 0.662640 0.650660 0.239771
O O1 0.022261 0.145498 0.458255
O O2 0.000432 0.041245 0.414305
O O3 0.785611 0.105936 0.512007
O O4 0.834411 0.111560 0.346682
O O5 0.200443 0.700902 0.449048
O O6 0.245499 0.701980 0.612283
O O7 0.775286 0.300679 0.713950
O O8 0.000000 0.250000 0.642384
O O9 0.500000 0.019545 0.750000
O O10 0.662329 0.100902 0.689075
O O11 0.750000 0.000000 0.661746
O O12 0.500000 0.676617 0.250000
#
# Coordination Sequence:
#
# PCOD9505623 Si02
#       5
#    16  16  16  16  16
#     4   9  18  34  55  82 117 152 189 238 291 349
#     4  10  18  31  52  86 123 156 185 225 284 363
#     4  10  18  30  54  88 120 158 194 227 287 357
#     4   9  19  41  62  81 104 152 207 255 303 344
#     4   8  18  35  57  79 113 159 204 242 291 350
#
# _framework density 23.818935
#
# number of rings (size 3 to 8) (size 9 to 14) (size 15 to 20)
#    0.000    3.200    2.000    0.000    0.000    0.000 
#    3.600    9.000    0.000    9.600    0.000    0.000 
#    0.000    0.000    0.000    0.000    0.000    0.000 
#
# Total GULP energy -223046.718749 kJ/mol
# GULP energy per Si atom -5576.167969 kJ/mol
# Density = 2.376472 g / cm^3
# Si number density = 23.818935 Si / 1000 Ang^3
#
#
#
# Elastic Constant Matrix: (Units=GPa)
#
#
# Indices 1 2 3 4 5 6 
#
# 1 123.2164 40.8108 11.8791 0.0000 0.0000 0.0000
# 2 40.8108 66.4528 5.3889 0.0000 0.0000 0.0000
# 3 11.8791 5.3889 108.4731 0.0000 0.0000 0.0000
# 4 0.0000 0.0000 0.0000 24.0198 0.0000 0.0000
# 5 0.0000 0.0000 0.0000 0.0000 31.8800 0.0000
# 6 0.0000 0.0000 0.0000 0.0000 0.0000 48.9329
#
#
#
# Elastic Compliance Matrix: (Units=1/GPa)
#
#
# Indices 1 2 3 4 5 6 
#
# 1 0.010259 -0.006235 -0.000814 0.000000 0.000000 0.000000
# 2 -0.006235 0.018898 -0.000256 0.000000 0.000000 0.000000
# 3 -0.000814 -0.000256 0.009321 0.000000 0.000000 0.000000
# 4 0.000000 0.000000 0.000000 0.041632 0.000000 0.000000
# 5 0.000000 0.000000 0.000000 0.000000 0.031368 0.000000
# 6 0.000000 0.000000 0.000000 0.000000 0.000000 0.020436
#
#
# Mechanical properties :
#
#
# Convention : Reuss Voigt Hill
#
# Bulk Modulus (GPa) = 41.89530 46.03332 43.96431
# Shear Modulus (GPa) = 32.36688 36.97079 34.66883
#
# Velocity S-wave (km/s) = 3.69029 3.94402 3.81926
# Velocity P-wave (km/s) = 5.98205 6.33314 6.16010
#
# Compressibility (1/GPa) = 0.02386903
#
# Stress axis : x y z
#
# Youngs Moduli (GPa) = 97.47337 52.91603 107.28791
#
# Poissons Ratio (x) = 0.32991 0.08731
# Poissons Ratio (y) = 0.60770 0.02747
# Poissons Ratio (z) = 0.07932 0.01355
#
# Static dielectric constant tensor:
#      x y z
#    x 1.870240 0.000000 0.000000 
#    y 0.000000 1.940120 0.000000 
#    z 0.000000 0.000000 2.025740 
# 
# From -- ./inp_files/28335.got.cif
#   From: 2010.05.17/outbox.cif.g08.bks.cpg/sg68_15_cif.got.tgz:28335.got - 2010.06.03 18:57:09.
