data_PCOD9505487
_publ_section_title
;
Structure prediction by ZEFSAII (Michael W. Deem and Ramdas Pophale) SiO2 
 PCOD9505487
Probable space group: C C C A
;
_chemical_formula_sum "Si O2"
_cell_formula_units_Z 96
_cell_length_a 23.758105
_cell_length_b 9.475459
_cell_length_c 23.657765
_cell_angle_alpha 90.000000
_cell_angle_beta 90.000000
_cell_angle_gamma 90.000000
_cell_volume 5325.811212
_symmetry_space_group_name_H-M "C C C A"
_symmetry_group_IT_number 68
_space_group.IT_coordinate_system_code '2'
_symmetry_cell_setting 'orthorhombic'
loop_
_space_group_symop_operation_xyz
x,y,z
-x,1/2-y,z
x,1/2-y,1/2-z
-x,y,1/2-z
-x,-y,-z
x,1/2+y,-z
-x,1/2+y,1/2+z
x,-y,1/2+z
1/2+x,1/2+y,z
1/2-x,-y,z
1/2+x,-y,1/2-z
1/2-x,1/2+y,1/2-z
1/2-x,1/2-y,-z
1/2+x,y,-z
1/2-x,y,1/2+z
1/2+x,1/2-y,1/2+z
loop_
_atom_site_type_symbol
_atom_site_label
_atom_site_fract_x
_atom_site_fract_y
_atom_site_fract_z
Si Si1 0.130817 0.317307 0.870045
Si Si2 0.500000 0.250000 0.990911
Si Si3 0.371560 0.458426 0.248244
Si Si4 0.037118 0.117135 0.838336
Si Si5 0.226405 0.644515 0.161827
Si Si6 0.683466 0.250000 0.750000
Si Si7 0.952127 0.503721 0.072000
O O1 0.125678 0.366442 0.804653
O O2 0.085629 0.190107 0.877098
O O3 0.192603 0.253043 0.877402
O O4 0.109015 0.448213 0.906381
O O5 0.458482 0.348048 0.953599
O O6 0.470137 0.128894 0.028513
O O7 0.429023 0.451862 0.212790
O O8 0.320467 0.404925 0.208143
O O9 0.354689 0.616347 0.263293
O O10 0.000000 0.250000 0.818821
O O11 0.996317 0.020596 0.875831
O O12 0.250000 0.500000 0.135265
O O13 0.276025 0.717306 0.197010
#
# Coordination Sequence:
#
# PCOD9505487 Si02
#       7
#    16   8  16  16  16   8  16
#     4  10  17  30  47  77  96 141 176 205 248 329
#     4  10  20  38  52  74  98 132 162 242 276 314
#     4  10  19  27  48  70 113 135 178 199 252 300
#     4   9  17  31  47  72  95 137 168 206 241 320
#     4   9  16  28  46  69 105 143 170 210 249 295
#     4  10  18  30  42  71 105 156 164 216 242 294
#     4  10  20  34  57  73 102 128 178 214 280 322
#
# _framework density 18.025423
#
# number of rings (size 3 to 8) (size 9 to 14) (size 15 to 20)
#    0.000    2.333    4.167    1.500    0.000    6.000 
#    0.000    0.000    0.000    5.000    0.000    1.167 
#    0.000    0.000    0.000    0.000    0.000    0.000 
#
# Total GULP energy -267376.749339 kJ/mol
# GULP energy per Si atom -5570.348945 kJ/mol
# Density = 1.798440 g / cm^3
# Si number density = 18.025423 Si / 1000 Ang^3
#
#
#
# Elastic Constant Matrix: (Units=GPa)
#
#
# Indices 1 2 3 4 5 6 
#
# 1 78.3803 42.1884 22.4759 0.0000 0.0000 0.0000
# 2 42.1884 103.7227 26.3451 0.0000 0.0000 0.0000
# 3 22.4759 26.3451 37.7795 0.0000 0.0000 0.0000
# 4 0.0000 0.0000 0.0000 3.2567 0.0000 0.0000
# 5 0.0000 0.0000 0.0000 0.0000 7.4407 0.0000
# 6 0.0000 0.0000 0.0000 0.0000 0.0000 27.8432
#
#
#
# Elastic Compliance Matrix: (Units=1/GPa)
#
#
# Indices 1 2 3 4 5 6 
#
# 1 0.017614 -0.005472 -0.006663 0.000000 0.000000 0.000000
# 2 -0.005472 0.013416 -0.006100 0.000000 0.000000 0.000000
# 3 -0.006663 -0.006100 0.034687 0.000000 0.000000 0.000000
# 4 0.000000 0.000000 0.000000 0.307056 0.000000 0.000000
# 5 0.000000 0.000000 0.000000 0.000000 0.134396 0.000000
# 6 0.000000 0.000000 0.000000 0.000000 0.000000 0.035915
#
#
# Mechanical properties :
#
#
# Convention : Reuss Voigt Hill
#
# Bulk Modulus (GPa) = 34.19169 44.65573 39.42371
# Shear Modulus (GPa) = 8.48456 16.29966 12.39211
#
# Velocity S-wave (km/s) = 2.17192 3.01035 2.62483
# Velocity P-wave (km/s) = 5.02985 6.07540 5.57718
#
# Compressibility (1/GPa) = 0.02924687
#
# Stress axis : x y z
#
# Youngs Moduli (GPa) = 56.77168 74.53659 28.82887
#
# Poissons Ratio (x) = 0.40787 0.19210
# Poissons Ratio (y) = 0.31066 0.17586
# Poissons Ratio (z) = 0.37829 0.45469
#
# Static dielectric constant tensor:
#      x y z
#    x 1.653490 0.000000 0.000000 
#    y 0.000000 1.666720 0.000000 
#    z 0.000000 0.000000 1.651110 
# 
# From -- ./inp_files/47218.got.cif
#   From: 2010.05.17/outbox.cif.g08.bks.cpg/sg68_24_cif.got.tgz:47218.got - 2010.06.03 18:57:09.
