data_PCOD9505645
_publ_section_title
;
Structure prediction by ZEFSAII (Michael W. Deem and Ramdas Pophale) SiO2 
 PCOD9505645
Probable space group: C C C A
;
_chemical_formula_sum "Si O2"
_cell_formula_units_Z 128
_cell_length_a 18.219356
_cell_length_b 18.347936
_cell_length_c 14.489446
_cell_angle_alpha 90.000000
_cell_angle_beta 90.000000
_cell_angle_gamma 90.000000
_cell_volume 4843.641808
_symmetry_space_group_name_H-M "C C C A"
_symmetry_group_IT_number 68
_space_group.IT_coordinate_system_code '2'
_symmetry_cell_setting 'orthorhombic'
loop_
_space_group_symop_operation_xyz
x,y,z
-x,1/2-y,z
x,1/2-y,1/2-z
-x,y,1/2-z
-x,-y,-z
x,1/2+y,-z
-x,1/2+y,1/2+z
x,-y,1/2+z
1/2+x,1/2+y,z
1/2-x,-y,z
1/2+x,-y,1/2-z
1/2-x,1/2+y,1/2-z
1/2-x,1/2-y,-z
1/2+x,y,-z
1/2-x,y,1/2+z
1/2+x,1/2-y,1/2+z
loop_
_atom_site_type_symbol
_atom_site_label
_atom_site_fract_x
_atom_site_fract_y
_atom_site_fract_z
Si Si1 0.218383 0.099001 0.345739
Si Si2 0.739964 0.735792 0.607768
Si Si3 0.967755 0.824240 0.950222
Si Si4 0.623685 0.923659 0.648053
Si Si5 0.328693 0.010524 0.026119
Si Si6 0.524117 0.554266 0.579564
Si Si7 0.626931 0.167978 0.791646
Si Si8 0.414021 0.734345 0.627795
O O1 0.241620 0.183956 0.352528
O O2 0.294839 0.060503 0.314418
O O3 0.190076 0.068672 0.444067
O O4 0.147438 0.106162 0.281589
O O5 0.750000 0.750000 0.500000
O O6 0.799561 0.680991 0.647989
O O7 0.656842 0.714840 0.636604
O O8 0.017775 0.869232 0.021936
O O9 0.934283 0.861801 0.861726
O O10 0.000000 0.750000 0.910616
O O11 0.909304 0.790028 0.020789
O O12 0.540785 0.954375 0.653785
O O13 0.605679 0.841065 0.677044
O O14 0.642553 0.942192 0.537761
O O15 0.391316 0.037057 0.095420
O O16 0.250000 0.000000 0.071915
O O17 0.500000 0.500000 0.500000
O O18 0.610438 0.250000 0.750000
O O19 0.500000 0.750000 0.647490
#
# Coordination Sequence:
#
# PCOD9505645 Si02
#       8
#    16  16  16  16  16  16  16  16
#     4   9  19  32  53  81 112 156 198 236 305 371
#     4  10  18  31  52  78 115 151 193 241 299 358
#     4  10  20  32  52  84 124 159 190 250 316 378
#     4   8  16  32  53  82 104 148 199 248 288 365
#     4   9  17  32  54  84 106 155 205 251 299 369
#     4   9  18  32  55  84 118 150 204 261 304 355
#     4  10  21  34  50  83 125 161 198 245 307 383
#     4   9  17  30  52  83 113 142 185 244 310 353
#
# _framework density 26.426397000000001
#
# number of rings (size 3 to 8) (size 9 to 14) (size 15 to 20)
#    0.000    2.750    1.250    0.000    3.500    1.250 
#    0.000    0.000    0.000    9.375   78.000    0.000 
#    0.000    0.000    0.000    0.000    0.000    0.000 
#
# Total GULP energy -356365.077270 kJ/mol
# GULP energy per Si atom -5568.204332 kJ/mol
# Density = 2.636625 g / cm^3
# Si number density = 26.426397 Si / 1000 Ang^3
#
#
#
# Elastic Constant Matrix: (Units=GPa)
#
#
# Indices 1 2 3 4 5 6 
#
# 1 160.3531 34.1518 25.0662 0.0000 0.0000 0.0000
# 2 34.1518 53.9721 -9.0432 0.0000 0.0000 0.0000
# 3 25.0662 -9.0432 70.6962 0.0000 0.0000 0.0000
# 4 0.0000 0.0000 0.0000 6.9648 0.0000 0.0000
# 5 0.0000 0.0000 0.0000 0.0000 17.2878 0.0000
# 6 0.0000 0.0000 0.0000 0.0000 0.0000 35.6121
#
#
#
# Elastic Compliance Matrix: (Units=1/GPa)
#
#
# Indices 1 2 3 4 5 6 
#
# 1 0.007997 -0.005657 -0.003559 0.000000 0.000000 0.000000
# 2 -0.005657 0.022935 0.004939 0.000000 0.000000 0.000000
# 3 -0.003559 0.004939 0.016039 0.000000 0.000000 0.000000
# 4 0.000000 0.000000 0.000000 0.143580 0.000000 0.000000
# 5 0.000000 0.000000 0.000000 0.000000 0.057844 0.000000
# 6 0.000000 0.000000 0.000000 0.000000 0.000000 0.028080
#
#
# Mechanical properties :
#
#
# Convention : Reuss Voigt Hill
#
# Bulk Modulus (GPa) = 26.02924 42.81900 34.42412
# Shear Modulus (GPa) = 16.78780 27.62936 22.20858
#
# Velocity S-wave (km/s) = 2.52318 3.23696 2.90210
# Velocity P-wave (km/s) = 4.28482 5.49626 4.92791
#
# Compressibility (1/GPa) = 0.03841834
#
# Stress axis : x y z
#
# Youngs Moduli (GPa) = 125.04084 43.60113 62.34874
#
# Poissons Ratio (x) = 0.24664 0.22191
# Poissons Ratio (y) = 0.70734 -0.30797
# Poissons Ratio (z) = 0.44504 -0.21537
#
# Static dielectric constant tensor:
#      x y z
#    x 2.216660 0.000000 0.000000 
#    y 0.000000 2.316360 0.000000 
#    z 0.000000 0.000000 2.095950 
# 
# From -- ./inp_files/32389.got.cif
#   From: 2010.05.17/outbox.cif.g08.bks.cpg/sg68_17_cif.got.tgz:32389.got - 2010.06.03 18:57:09.
