data_PCOD9505723
_publ_section_title
;
Structure prediction by ZEFSAII (Michael W. Deem and Ramdas Pophale) SiO2 
 PCOD9505723
Probable space group: C C C A
;
_chemical_formula_sum "Si O2"
_cell_formula_units_Z 80
_cell_length_a 13.963138
_cell_length_b 15.021095
_cell_length_c 15.680607
_cell_angle_alpha 90.000000
_cell_angle_beta 90.000000
_cell_angle_gamma 90.000000
_cell_volume 3288.875952
_symmetry_space_group_name_H-M "C C C A"
_symmetry_group_IT_number 68
_space_group.IT_coordinate_system_code '2'
_symmetry_cell_setting 'orthorhombic'
loop_
_space_group_symop_operation_xyz
x,y,z
-x,1/2-y,z
x,1/2-y,1/2-z
-x,y,1/2-z
-x,-y,-z
x,1/2+y,-z
-x,1/2+y,1/2+z
x,-y,1/2+z
1/2+x,1/2+y,z
1/2-x,-y,z
1/2+x,-y,1/2-z
1/2-x,1/2+y,1/2-z
1/2-x,1/2-y,-z
1/2+x,y,-z
1/2-x,y,1/2+z
1/2+x,1/2-y,1/2+z
loop_
_atom_site_type_symbol
_atom_site_label
_atom_site_fract_x
_atom_site_fract_y
_atom_site_fract_z
Si Si1 0.129215 0.872838 0.473618
Si Si2 0.652721 0.682409 0.514322
Si Si3 0.132675 0.511404 0.390272
Si Si4 0.365617 0.493020 0.196288
Si Si5 0.098779 0.302734 0.176211
O O1 0.237298 0.850946 0.508639
O O2 0.109580 0.771629 0.443967
O O3 0.091048 0.925835 0.557839
O O4 0.117903 0.935865 0.390197
O O5 0.603316 0.596219 0.553332
O O6 0.639858 0.704011 0.416058
O O7 0.250000 0.500000 0.388043
O O8 0.104710 0.533455 0.292770
O O9 0.250000 0.500000 0.197241
O O10 0.406243 0.592992 0.191964
O O11 0.155935 0.250000 0.250000
O O12 0.000000 0.250000 0.171000
#
# Coordination Sequence:
#
# PCOD9505723 Si02
#       5
#    16  16  16  16  16
#     4  10  18  33  57  90 124 159 215 276 332 381
#     4  10  19  35  56  86 125 163 210 277 327 384
#     4   9  18  31  53  88 124 160 207 264 333 388
#     4  11  19  36  61  89 127 165 211 279 332 382
#     4  11  23  39  61  88 128 173 224 262 321 403
#
# _framework density 24.32442
#
# number of rings (size 3 to 8) (size 9 to 14) (size 15 to 20)
#    0.000    1.800    4.000    1.800    0.000    2.400 
#    0.000    1.000    4.400    0.000    0.000    1.400 
#    0.000    0.000    0.000    0.000    0.000    0.000 
#
# Total GULP energy -222693.357991 kJ/mol
# GULP energy per Si atom -5567.333950 kJ/mol
# Density = 2.426906 g / cm^3
# Si number density = 24.324420 Si / 1000 Ang^3
#
#
#
# Elastic Constant Matrix: (Units=GPa)
#
#
# Indices 1 2 3 4 5 6 
#
# 1 54.4597 21.6031 11.1903 0.0000 0.0000 0.0000
# 2 21.6031 189.1154 70.9348 0.0000 0.0000 0.0000
# 3 11.1903 70.9348 170.1890 0.0000 0.0000 0.0000
# 4 0.0000 0.0000 0.0000 39.5386 0.0000 0.0000
# 5 0.0000 0.0000 0.0000 0.0000 26.9405 0.0000
# 6 0.0000 0.0000 0.0000 0.0000 0.0000 0.4901
#
#
#
# Elastic Compliance Matrix: (Units=1/GPa)
#
#
# Indices 1 2 3 4 5 6 
#
# 1 0.019258 -0.002045 -0.000414 0.000000 0.000000 0.000000
# 2 -0.002045 0.006485 -0.002568 0.000000 0.000000 0.000000
# 3 -0.000414 -0.002568 0.006974 0.000000 0.000000 0.000000
# 4 0.000000 0.000000 0.000000 0.025292 0.000000 0.000000
# 5 0.000000 0.000000 0.000000 0.000000 0.037119 0.000000
# 6 0.000000 0.000000 0.000000 0.000000 0.000000 2.040201
#
#
# Mechanical properties :
#
#
# Convention : Reuss Voigt Hill
#
# Bulk Modulus (GPa) = 44.12591 69.02450 56.57520
# Shear Modulus (GPa) = 2.32241 34.06291 18.19266
#
# Velocity S-wave (km/s) = 0.97818 3.74620 2.73777
# Velocity P-wave (km/s) = 4.41087 6.86660 5.77087
#
# Compressibility (1/GPa) = 0.02266242
#
# Stress axis : x y z
#
# Youngs Moduli (GPa) = 51.92558 154.20897 143.39895
#
# Poissons Ratio (x) = 0.31530 0.05938
# Poissons Ratio (y) = 0.10617 0.36830
# Poissons Ratio (z) = 0.02150 0.39607
#
# Static dielectric constant tensor:
#      x y z
#    x 2.042600 0.000000 0.000000 
#    y 0.000000 1.780400 0.000000 
#    z 0.000000 0.000000 2.422410 
# 
# From -- ./inp_files/24306.got.cif
#   From: 2010.05.17/outbox.cif.g08.bks.cpg/sg68_13_cif.got.tgz:24306.got - 2010.06.03 18:57:09.
