data_PCOD9505996
_publ_section_title
;
Structure prediction by ZEFSAII (Michael W. Deem and Ramdas Pophale) SiO2 
 PCOD9505996
Probable space group: C C C A
;
_chemical_formula_sum "Si O2"
_cell_formula_units_Z 104
_cell_length_a 28.347720
_cell_length_b 18.572561
_cell_length_c 9.083829
_cell_angle_alpha 90.000000
_cell_angle_beta 90.000000
_cell_angle_gamma 90.000000
_cell_volume 4782.542940
_symmetry_space_group_name_H-M "C C C A"
_symmetry_group_IT_number 68
_space_group.IT_coordinate_system_code '2'
_symmetry_cell_setting 'orthorhombic'
loop_
_space_group_symop_operation_xyz
x,y,z
-x,1/2-y,z
x,1/2-y,1/2-z
-x,y,1/2-z
-x,-y,-z
x,1/2+y,-z
-x,1/2+y,1/2+z
x,-y,1/2+z
1/2+x,1/2+y,z
1/2-x,-y,z
1/2+x,-y,1/2-z
1/2-x,1/2+y,1/2-z
1/2-x,1/2-y,-z
1/2+x,y,-z
1/2-x,y,1/2+z
1/2+x,1/2-y,1/2+z
loop_
_atom_site_type_symbol
_atom_site_label
_atom_site_fract_x
_atom_site_fract_y
_atom_site_fract_z
Si Si1 0.956296 0.954679 0.648355
Si Si2 0.956388 0.396568 0.679809
Si Si3 0.353722 0.539845 0.249032
Si Si4 0.823520 0.136381 0.481406
Si Si5 0.219538 0.625246 0.551762
Si Si6 0.702739 0.250000 0.750000
Si Si7 0.353031 0.368139 0.294477
O O1 0.965220 0.934494 0.478662
O O2 0.902437 0.931028 0.680062
O O3 0.000000 0.926720 0.750000
O O4 0.951869 0.038187 0.700566
O O5 0.907364 0.354870 0.667194
O O6 0.000000 0.353599 0.750000
O O7 0.353642 0.571575 0.414128
O O8 0.309540 0.570150 0.154665
O O9 0.349648 0.454577 0.264902
O O10 0.770393 0.104179 0.490933
O O11 0.825692 0.199486 0.361164
O O12 0.840092 0.164525 0.637689
O O13 0.231130 0.694975 0.650100
O O14 0.184354 0.647242 0.421326
#
# Coordination Sequence:
#
# PCOD9505996 Si02
#       7
#    16  16  16  16  16   8  16
#     4  10  19  32  54  80 120 165 196 232 277 336
#     4  10  20  32  53  85 119 159 199 233 279 343
#     4  10  22  36  54  90 131 155 191 228 290 368
#     4  11  24  37  62  83 117 157 195 247 290 345
#     4  11  22  41  58  87 115 155 200 243 295 340
#     4  10  24  44  60  80 111 146 215 260 290 328
#     4  11  22  35  59  90 124 157 191 237 290 359
#
# _framework density 21.745754000000002
#
# number of rings (size 3 to 8) (size 9 to 14) (size 15 to 20)
#    0.000    1.538    1.538    5.077    8.615    4.308 
#    0.000    0.000    0.000    0.000    0.000   20.462 
#    0.000    0.000    0.000    0.000    0.000    0.000 
#
# Total GULP energy -290190.221928 kJ/mol
# GULP energy per Si atom -5580.581191 kJ/mol
# Density = 2.169626 g / cm^3
# Si number density = 21.745754 Si / 1000 Ang^3
#
#
#
# Elastic Constant Matrix: (Units=GPa)
#
#
# Indices 1 2 3 4 5 6 
#
# 1 122.7766 0.2436 42.9150 0.0000 0.0000 0.0000
# 2 0.2436 30.8214 1.9660 0.0000 0.0000 0.0000
# 3 42.9150 1.9660 122.1604 0.0000 0.0000 0.0000
# 4 0.0000 0.0000 0.0000 27.5169 0.0000 0.0000
# 5 0.0000 0.0000 0.0000 0.0000 39.1967 0.0000
# 6 0.0000 0.0000 0.0000 0.0000 0.0000 -16.4082
#
#
#
# Elastic Compliance Matrix: (Units=1/GPa)
#
#
# Indices 1 2 3 4 5 6 
#
# 1 0.009286 0.000135 -0.003264 0.000000 0.000000 0.000000
# 2 0.000135 0.032480 -0.000570 0.000000 0.000000 0.000000
# 3 -0.003264 -0.000570 0.009342 0.000000 0.000000 0.000000
# 4 0.000000 0.000000 0.000000 0.036341 0.000000 0.000000
# 5 0.000000 0.000000 0.000000 0.000000 0.025512 0.000000
# 6 0.000000 0.000000 0.000000 0.000000 0.000000 -0.060945
#
#
# Mechanical properties :
#
#
# Convention : Reuss Voigt Hill
#
# Bulk Modulus (GPa) = 22.87871 40.66752 31.77312
# Shear Modulus (GPa) = 67.58150 25.43667 46.50909
#
# Velocity S-wave (km/s) = 5.58081 3.42384 4.62970
# Velocity P-wave (km/s) = 7.21604 5.86278 6.57432
#
# Compressibility (1/GPa) = 0.04370875
#
# Stress axis : x y z
#
# Youngs Moduli (GPa) = 107.69407 30.78793 107.04517
#
# Poissons Ratio (x) = -0.00415 0.34942
# Poissons Ratio (y) = -0.01452 0.06103
# Poissons Ratio (z) = 0.35153 0.01755
#
# Static dielectric constant tensor:
#      x y z
#    x 1.868700 0.000000 0.000000 
#    y 0.000000 1.840450 0.000000 
#    z 0.000000 0.000000 1.831790 
# 
# From -- ./inp_files/9611.got.cif
#   From: 2010.05.17/outbox.cif.g08.bks.cpg/sg68_5_cif.got.tgz:9611.got - 2010.06.03 18:57:09.
