data_PCOD9505845
_publ_section_title
;
Structure prediction by ZEFSAII (Michael W. Deem and Ramdas Pophale) SiO2 
 PCOD9505845
Probable space group: C C C A
;
_chemical_formula_sum "Si O2"
_cell_formula_units_Z 104
_cell_length_a 15.952382
_cell_length_b 15.155307
_cell_length_c 23.175497
_cell_angle_alpha 90.000000
_cell_angle_beta 90.000000
_cell_angle_gamma 90.000000
_cell_volume 5602.983396
_symmetry_space_group_name_H-M "C C C A"
_symmetry_group_IT_number 68
_space_group.IT_coordinate_system_code '2'
_symmetry_cell_setting 'orthorhombic'
loop_
_space_group_symop_operation_xyz
x,y,z
-x,1/2-y,z
x,1/2-y,1/2-z
-x,y,1/2-z
-x,-y,-z
x,1/2+y,-z
-x,1/2+y,1/2+z
x,-y,1/2+z
1/2+x,1/2+y,z
1/2-x,-y,z
1/2+x,-y,1/2-z
1/2-x,1/2+y,1/2-z
1/2-x,1/2-y,-z
1/2+x,y,-z
1/2-x,y,1/2+z
1/2+x,1/2-y,1/2+z
loop_
_atom_site_type_symbol
_atom_site_label
_atom_site_fract_x
_atom_site_fract_y
_atom_site_fract_z
Si Si1 0.750000 0.500000 0.756449
Si Si2 0.957420 0.657711 0.168891
Si Si3 0.169330 0.440828 0.047121
Si Si4 0.387210 0.559046 0.652613
Si Si5 0.921572 0.310873 0.534278
Si Si6 0.769617 0.324151 0.701574
Si Si7 0.715839 0.288773 0.404692
O O1 0.674128 0.522426 0.799170
O O2 0.726937 0.415270 0.718600
O O3 0.943506 0.661447 0.099664
O O4 0.868556 0.652952 0.199476
O O5 0.000000 0.750000 0.185584
O O6 0.021163 0.577597 0.177048
O O7 0.250000 0.500000 0.025710
O O8 0.121977 0.498637 0.095604
O O9 0.213577 0.356910 0.076951
O O10 0.105289 0.396979 0.001856
O O11 0.350564 0.654201 0.632861
O O12 0.837756 0.251499 0.542897
O O13 0.000000 0.250000 0.513310
O O14 0.754010 0.250000 0.750000
O O15 0.749838 0.285505 0.638492
#
# Coordination Sequence:
#
# PCOD9505845 Si02
#       7
#     8  16  16  16  16  16  16
#     4  12  22  34  56  84 112 142 192 228 286 346
#     4  10  19  35  56  80 111 141 182 238 282 323
#     4  10  21  35  57  83 113 154 188 226 284 347
#     4  11  18  36  56  79 113 144 183 231 284 337
#     4  10  19  35  57  83 109 145 193 229 278 336
#     4  11  20  35  58  84 109 141 186 238 281 329
#     4  10  18  38  56  76 115 149 181 229 285 332
#
# _framework density 18.561540000000001
#
# number of rings (size 3 to 8) (size 9 to 14) (size 15 to 20)
#    0.000    1.538    8.462    0.462    0.000    2.769 
#    5.538    1.538    0.000    0.000    0.000    1.077 
#    0.000    0.000    0.000    0.000    0.000    0.000 
#
# Total GULP energy -290041.266176 kJ/mol
# GULP energy per Si atom -5577.716657 kJ/mol
# Density = 1.851929 g / cm^3
# Si number density = 18.561540 Si / 1000 Ang^3
#
#
#
# Elastic Constant Matrix: (Units=GPa)
#
#
# Indices 1 2 3 4 5 6 
#
# 1 39.2476 18.5552 9.1731 0.0000 0.0000 0.0000
# 2 18.5552 105.5726 41.5744 0.0000 0.0000 0.0000
# 3 9.1731 41.5744 57.6960 0.0000 0.0000 0.0000
# 4 0.0000 0.0000 0.0000 41.9295 0.0000 0.0000
# 5 0.0000 0.0000 0.0000 0.0000 17.8696 0.0000
# 6 0.0000 0.0000 0.0000 0.0000 0.0000 34.2515
#
#
#
# Elastic Compliance Matrix: (Units=1/GPa)
#
#
# Indices 1 2 3 4 5 6 
#
# 1 0.027853 -0.004400 -0.001258 0.000000 0.000000 0.000000
# 2 -0.004400 0.013920 -0.009331 0.000000 0.000000 0.000000
# 3 -0.001258 -0.009331 0.024256 0.000000 0.000000 0.000000
# 4 0.000000 0.000000 0.000000 0.023850 0.000000 0.000000
# 5 0.000000 0.000000 0.000000 0.000000 0.055961 0.000000
# 6 0.000000 0.000000 0.000000 0.000000 0.000000 0.029196
#
#
# Mechanical properties :
#
#
# Convention : Reuss Voigt Hill
#
# Bulk Modulus (GPa) = 27.73795 37.90240 32.82018
# Shear Modulus (GPa) = 23.03825 27.69101 25.36463
#
# Velocity S-wave (km/s) = 3.52686 3.86664 3.70065
# Velocity P-wave (km/s) = 5.61794 6.35600 5.99833
#
# Compressibility (1/GPa) = 0.03605170
#
# Stress axis : x y z
#
# Youngs Moduli (GPa) = 35.90217 71.83915 41.22726
#
# Poissons Ratio (x) = 0.31610 0.05186
# Poissons Ratio (y) = 0.15797 0.38469
# Poissons Ratio (z) = 0.04516 0.67032
#
# Static dielectric constant tensor:
#      x y z
#    x 1.688780 0.000000 0.000000 
#    y 0.000000 1.678870 0.000000 
#    z 0.000000 0.000000 1.667670 
# 
# From -- ./inp_files/46119.got.cif
#   From: 2010.05.17/outbox.cif.g08.bks.cpg/sg68_24_cif.got.tgz:46119.got - 2010.06.03 18:57:09.
