data_PCOD9505140
_publ_section_title
;
Structure prediction by ZEFSAII (Michael W. Deem and Ramdas Pophale) SiO2 
 PCOD9505140
Probable space group: C M M A
;
_chemical_formula_sum "Si O2"
_cell_formula_units_Z 96
_cell_length_a 14.529441
_cell_length_b 11.253647
_cell_length_c 26.257791
_cell_angle_alpha 90.000000
_cell_angle_beta 90.000000
_cell_angle_gamma 90.000000
_cell_volume 4293.390403
_symmetry_space_group_name_H-M "C M M A"
_symmetry_group_IT_number 67
_symmetry_cell_setting 'orthorhombic'
loop_
_space_group_symop_operation_xyz
x,y,z
-x,1/2-y,z
x,-y,-z
-x,1/2+y,-z
-x,-y,-z
x,1/2+y,-z
-x,y,z
x,1/2-y,z
1/2+x,1/2+y,z
1/2-x,-y,z
1/2+x,1/2-y,-z
1/2-x,y,-z
1/2-x,1/2-y,-z
1/2+x,y,-z
1/2-x,1/2+y,z
1/2+x,-y,z
loop_
_atom_site_type_symbol
_atom_site_label
_atom_site_fract_x
_atom_site_fract_y
_atom_site_fract_z
Si Si1 0.855316 0.379043 0.186020
Si Si2 0.354243 0.620858 0.978488
Si Si3 0.355734 0.620833 0.308026
Si Si4 0.388398 0.882184 0.530665
Si Si5 0.353876 0.879044 0.856483
Si Si6 0.647998 0.120556 0.351334
O O1 0.894953 0.250000 0.171505
O O2 0.855497 0.386658 0.247028
O O3 0.750168 0.376990 0.165561
O O4 0.896953 0.500043 0.164372
O O5 0.394811 0.750000 0.992158
O O6 0.350876 0.613204 0.917489
O O7 0.396713 0.500000 0.000000
O O8 0.250000 0.623198 0.000000
O O9 0.395648 0.750000 0.322477
O O10 0.396684 0.499774 0.330315
O O11 0.250539 0.623129 0.328004
O O12 0.500000 0.885449 0.534610
O O13 0.364793 0.750000 0.509174
O O14 0.349404 0.888364 0.587700
O O15 0.360231 0.000000 0.500000
O O16 0.394441 0.750000 0.842783
O O17 0.606214 0.250000 0.338917
#
# Coordination Sequence:
#
# PCOD9505140 Si02
#       6
#    16  16  16  16  16  16
#     4   9  15  22  32  45  62  84 109 136 168 208
#     4   9  15  20  25  33  46  66  95 133 176 215
#     4   9  17  27  39  57  79 101 123 147 180 221
#     4   9  18  32  48  64  80  99 125 154 181 210
#     4   9  15  20  27  39  53  73 103 137 174 213
#     4   9  16  27  43  60  78 100 123 147 178 214
#
# _framework density 22.359953000000001
#
# number of rings (size 3 to 8) (size 9 to 14) (size 15 to 20)
#    0.000    3.000    0.000    4.000    0.000    4.667 
#    0.000    1.667    0.000    9.000    0.000    0.000 
#    0.000    0.000    0.000    0.000    0.000    0.000 
#
# Total GULP energy -267560.129290 kJ/mol
# GULP energy per Si atom -5574.169360 kJ/mol
# Density = 2.230906 g / cm^3
# Si number density = 22.359953 Si / 1000 Ang^3
#
#
#
# Elastic Constant Matrix: (Units=GPa)
#
#
# Indices 1 2 3 4 5 6 
#
# 1 85.0573 24.3045 6.0231 0.0000 0.0000 0.0000
# 2 24.3045 335.2394 90.5776 0.0000 0.0000 0.0000
# 3 6.0231 90.5776 72.2703 0.0000 0.0000 0.0000
# 4 0.0000 0.0000 0.0000 45.1730 0.0000 0.0000
# 5 0.0000 0.0000 0.0000 0.0000 -40.1340 0.0000
# 6 0.0000 0.0000 0.0000 0.0000 0.0000 -23.7748
#
#
#
# Elastic Compliance Matrix: (Units=1/GPa)
#
#
# Indices 1 2 3 4 5 6 
#
# 1 0.012006 -0.000907 0.000137 0.000000 0.000000 0.000000
# 2 -0.000907 0.004579 -0.005663 0.000000 0.000000 0.000000
# 3 0.000137 -0.005663 0.020923 0.000000 0.000000 0.000000
# 4 0.000000 0.000000 0.000000 0.022137 0.000000 0.000000
# 5 0.000000 0.000000 0.000000 0.000000 -0.024917 0.000000
# 6 0.000000 0.000000 0.000000 0.000000 0.000000 -0.042061
#
#
# Mechanical properties :
#
#
# Convention : Reuss Voigt Hill
#
# Bulk Modulus (GPa) = 40.58332 81.59749 61.09040
# Shear Modulus (GPa) = 363.66318 21.03030 192.34674
#
# Velocity S-wave (km/s) = 12.76689 3.07014 9.28491
# Velocity P-wave (km/s) = 15.34647 7.00996 11.93008
#
# Compressibility (1/GPa) = 0.02464067
#
# Stress axis : x y z
#
# Youngs Moduli (GPa) = 83.28908 218.39667 47.79379
#
# Poissons Ratio (x) = 0.19816 -0.00653
# Poissons Ratio (y) = 0.07557 0.27066
# Poissons Ratio (z) = -0.01137 1.23680
#
# Static dielectric constant tensor:
#      x y z
#    x 1.770160 0.000000 0.000000 
#    y 0.000000 1.935850 0.000000 
#    z 0.000000 0.000000 1.738980 
# 
# From -- ./inp_files/39305.got.cif
#   From: 2010.05.17/outbox.cif.g08.bks.cpg/sg67_20_cif.got.tgz:39305.got - 2010.06.03 18:28:57.
