data_PCOD9505743
_publ_section_title
;
Structure prediction by ZEFSAII (Michael W. Deem and Ramdas Pophale) SiO2 
 PCOD9505743
Probable space group: C C C A
;
_chemical_formula_sum "Si O2"
_cell_formula_units_Z 104
_cell_length_a 9.869210
_cell_length_b 19.833769
_cell_length_c 26.098018
_cell_angle_alpha 90.000000
_cell_angle_beta 90.000000
_cell_angle_gamma 90.000000
_cell_volume 5108.520814
_symmetry_space_group_name_H-M "C C C A"
_symmetry_group_IT_number 68
_space_group.IT_coordinate_system_code '2'
_symmetry_cell_setting 'orthorhombic'
loop_
_space_group_symop_operation_xyz
x,y,z
-x,1/2-y,z
x,1/2-y,1/2-z
-x,y,1/2-z
-x,-y,-z
x,1/2+y,-z
-x,1/2+y,1/2+z
x,-y,1/2+z
1/2+x,1/2+y,z
1/2-x,-y,z
1/2+x,-y,1/2-z
1/2-x,1/2+y,1/2-z
1/2-x,1/2-y,-z
1/2+x,y,-z
1/2-x,y,1/2+z
1/2+x,1/2-y,1/2+z
loop_
_atom_site_type_symbol
_atom_site_label
_atom_site_fract_x
_atom_site_fract_y
_atom_site_fract_z
Si Si1 0.399531 0.869153 0.976143
Si Si2 0.940358 0.864365 0.622643
Si Si3 0.497939 0.829895 0.633650
Si Si4 0.000000 0.250000 0.451129
Si Si5 0.134967 0.058285 0.471858
Si Si6 0.282925 0.325467 0.820695
Si Si7 0.763412 0.333841 0.795980
O O1 0.430157 0.859716 0.916182
O O2 0.241691 0.882358 0.985619
O O3 0.432667 0.804649 0.011434
O O4 0.504211 0.929255 0.992177
O O5 0.929091 0.926655 0.583781
O O6 0.830713 0.875100 0.666127
O O7 0.913759 0.797287 0.587672
O O8 0.081668 0.848860 0.650898
O O9 0.500000 0.750000 0.625004
O O10 0.342944 0.847951 0.644267
O O11 0.583377 0.842841 0.685226
O O12 0.250000 0.000000 0.471657
O O13 0.274799 0.244465 0.809811
O O14 0.265571 0.351233 0.762573
#
# Coordination Sequence:
#
# PCOD9505743 Si02
#       7
#    16  16  16   8  16  16  16
#     4  11  23  38  63  84 122 156 195 253 297 363
#     4  11  20  35  58  84 120 152 195 248 295 355
#     4  10  20  33  53  87 126 158 187 231 302 364
#     4  10  22  34  55  92 121 148 190 236 314 354
#     4  11  26  43  59  84 116 166 211 249 294 352
#     4  10  20  31  55  87 125 157 187 234 301 377
#     4  10  18  34  52  86 125 157 189 235 300 369
#
# _framework density 20.358142999999998
#
# number of rings (size 3 to 8) (size 9 to 14) (size 15 to 20)
#    0.000    1.538    3.846    1.385    4.308    5.538 
#    0.000    0.000    0.000    0.000    8.000    0.000 
#    0.000    0.000    0.000    0.000    0.000    0.000 
#
# Total GULP energy -289731.273559 kJ/mol
# GULP energy per Si atom -5571.755261 kJ/mol
# Density = 2.031181 g / cm^3
# Si number density = 20.358143 Si / 1000 Ang^3
#
#
#
# Elastic Constant Matrix: (Units=GPa)
#
#
# Indices 1 2 3 4 5 6 
#
# 1 89.4123 -0.7383 6.9515 0.0000 0.0000 0.0000
# 2 -0.7383 13.0005 1.0133 0.0000 0.0000 0.0000
# 3 6.9515 1.0133 91.8664 0.0000 0.0000 0.0000
# 4 0.0000 0.0000 0.0000 3.4856 0.0000 0.0000
# 5 0.0000 0.0000 0.0000 0.0000 30.0456 0.0000
# 6 0.0000 0.0000 0.0000 0.0000 0.0000 15.6063
#
#
#
# Elastic Compliance Matrix: (Units=1/GPa)
#
#
# Indices 1 2 3 4 5 6 
#
# 1 0.011257 0.000706 -0.000860 0.000000 0.000000 0.000000
# 2 0.000706 0.077031 -0.000903 0.000000 0.000000 0.000000
# 3 -0.000860 -0.000903 0.010960 0.000000 0.000000 0.000000
# 4 0.000000 0.000000 0.000000 0.286891 0.000000 0.000000
# 5 0.000000 0.000000 0.000000 0.000000 0.033283 0.000000
# 6 0.000000 0.000000 0.000000 0.000000 0.000000 0.064077
#
#
# Mechanical properties :
#
#
# Convention : Reuss Voigt Hill
#
# Bulk Modulus (GPa) = 10.29493 23.19247 16.74370
# Shear Modulus (GPa) = 9.65270 22.29767 15.97519
#
# Velocity S-wave (km/s) = 2.17985 3.31308 2.80430
# Velocity P-wave (km/s) = 3.37691 5.10414 4.32758
#
# Compressibility (1/GPa) = 0.09713517
#
# Stress axis : x y z
#
# Youngs Moduli (GPa) = 88.83520 12.98181 91.23771
#
# Poissons Ratio (x) = -0.00917 0.07843
# Poissons Ratio (y) = -0.06274 0.08240
# Poissons Ratio (z) = 0.07636 0.01172
#
# Static dielectric constant tensor:
#      x y z
#    x 1.722310 0.000000 0.000000 
#    y 0.000000 1.821620 0.000000 
#    z 0.000000 0.000000 1.716830 
# 
# From -- ./inp_files/49410.got.cif
#   From: 2010.05.17/outbox.cif.g08.bks.cpg/sg68_25_cif.got.tgz:49410.got - 2010.06.03 18:57:09.
