data_PCOD9505934
_publ_section_title
;
Structure prediction by ZEFSAII (Michael W. Deem and Ramdas Pophale) SiO2 
 PCOD9505934
Probable space group: C C C A
;
_chemical_formula_sum "Si O2"
_cell_formula_units_Z 68
_cell_length_a 13.803862
_cell_length_b 5.546560
_cell_length_c 36.095474
_cell_angle_alpha 90.000000
_cell_angle_beta 90.000000
_cell_angle_gamma 90.000000
_cell_volume 2763.612024
_symmetry_space_group_name_H-M "C C C A"
_symmetry_group_IT_number 68
_space_group.IT_coordinate_system_code '2'
_symmetry_cell_setting 'orthorhombic'
loop_
_space_group_symop_operation_xyz
x,y,z
-x,1/2-y,z
x,1/2-y,1/2-z
-x,y,1/2-z
-x,-y,-z
x,1/2+y,-z
-x,1/2+y,1/2+z
x,-y,1/2+z
1/2+x,1/2+y,z
1/2-x,-y,z
1/2+x,-y,1/2-z
1/2-x,1/2+y,1/2-z
1/2-x,1/2-y,-z
1/2+x,y,-z
1/2-x,y,1/2+z
1/2+x,1/2-y,1/2+z
loop_
_atom_site_type_symbol
_atom_site_label
_atom_site_fract_x
_atom_site_fract_y
_atom_site_fract_z
Si Si1 0.598605 0.975994 0.603742
Si Si2 0.500000 0.750000 0.750000
Si Si3 0.633336 0.992179 0.520878
Si Si4 0.619293 0.031625 0.868655
Si Si5 0.107887 0.864805 0.712625
O O1 0.650148 0.738511 0.620367
O O2 0.583334 0.942743 0.560217
O O3 0.645534 0.241346 0.605925
O O4 0.497685 0.003531 0.626320
O O5 0.576930 0.631495 0.722653
O O6 0.610970 0.258127 0.504556
O O7 0.750000 0.000000 0.526907
O O8 0.650226 0.124209 0.827932
O O9 0.154435 0.750000 0.750000
O O10 0.000000 0.750000 0.710283
#
# Coordination Sequence:
#
# PCOD9505934 Si02
#       5
#    16   4  16  16  16
#     4  10  19  32  50  70  99 133 156 194 251 294
#     4   8  14  20  36  54  84 128 166 192 214 256
#     4  10  21  38  57  74  93 122 165 212 245 285
#     4  10  19  31  45  71 108 134 155 195 241 292
#     4   9  16  24  39  62  94 138 166 192 223 276
#
# _framework density 24.605481999999999
#
# number of rings (size 3 to 8) (size 9 to 14) (size 15 to 20)
#    0.000    2.588    2.353    2.824    3.294    0.000 
#    0.000   14.118    0.000    0.000    0.000    0.000 
#    0.000    7.529    0.000    0.000    0.000    0.000 
#
# Total GULP energy -189315.451273 kJ/mol
# GULP energy per Si atom -5568.101508 kJ/mol
# Density = 2.454948 g / cm^3
# Si number density = 24.605482 Si / 1000 Ang^3
#
#
#
# Elastic Constant Matrix: (Units=GPa)
#
#
# Indices 1 2 3 4 5 6 
#
# 1 94.9906 -1.7328 -3.8779 0.0000 0.0000 0.0000
# 2 -1.7328 170.1629 43.1081 0.0000 0.0000 0.0000
# 3 -3.8779 43.1081 173.6665 0.0000 0.0000 0.0000
# 4 0.0000 0.0000 0.0000 64.0919 0.0000 0.0000
# 5 0.0000 0.0000 0.0000 0.0000 -16.7937 0.0000
# 6 0.0000 0.0000 0.0000 0.0000 0.0000 -24.7700
#
#
#
# Elastic Compliance Matrix: (Units=1/GPa)
#
#
# Indices 1 2 3 4 5 6 
#
# 1 0.010537 0.000051 0.000223 0.000000 0.000000 0.000000
# 2 0.000051 0.006271 -0.001556 0.000000 0.000000 0.000000
# 3 0.000223 -0.001556 0.006149 0.000000 0.000000 0.000000
# 4 0.000000 0.000000 0.000000 0.015603 0.000000 0.000000
# 5 0.000000 0.000000 0.000000 0.000000 -0.059546 0.000000
# 6 0.000000 0.000000 0.000000 0.000000 0.000000 -0.040371
#
#
# Mechanical properties :
#
#
# Convention : Reuss Voigt Hill
#
# Bulk Modulus (GPa) = 49.03414 57.09055 53.06234
# Shear Modulus (GPa) = -96.16315 31.26047 -32.45134
#
# Velocity S-wave (km/s) = -6.25834 3.56823 -3.63556
# Velocity P-wave (km/s) = 5.67900 6.34264 1.99725
#
# Compressibility (1/GPa) = 0.02039396
#
# Stress axis : x y z
#
# Youngs Moduli (GPa) = 94.90030 159.45619 162.62123
#
# Poissons Ratio (x) = -0.00812 -0.03621
# Poissons Ratio (y) = -0.00483 0.25297
# Poissons Ratio (z) = -0.02113 0.24804
#
# Static dielectric constant tensor:
#      x y z
#    x 2.048020 0.000000 0.000000 
#    y 0.000000 2.004110 0.000000 
#    z 0.000000 0.000000 2.059760 
# 
# From -- ./inp_files/53035.got.cif
#   From: 2010.05.17/outbox.cif.g08.bks.cpg/sg68_27_cif.got.tgz:53035.got - 2010.06.03 18:57:09.
