data_PCOD9505915
_publ_section_title
;
Structure prediction by ZEFSAII (Michael W. Deem and Ramdas Pophale) SiO2 
 PCOD9505915
Probable space group: C C C A
;
_chemical_formula_sum "Si O2"
_cell_formula_units_Z 96
_cell_length_a 17.393659
_cell_length_b 20.472701
_cell_length_c 12.920076
_cell_angle_alpha 90.000000
_cell_angle_beta 90.000000
_cell_angle_gamma 90.000000
_cell_volume 4600.776789
_symmetry_space_group_name_H-M "C C C A"
_symmetry_group_IT_number 68
_space_group.IT_coordinate_system_code '2'
_symmetry_cell_setting 'orthorhombic'
loop_
_space_group_symop_operation_xyz
x,y,z
-x,1/2-y,z
x,1/2-y,1/2-z
-x,y,1/2-z
-x,-y,-z
x,1/2+y,-z
-x,1/2+y,1/2+z
x,-y,1/2+z
1/2+x,1/2+y,z
1/2-x,-y,z
1/2+x,-y,1/2-z
1/2-x,1/2+y,1/2-z
1/2-x,1/2-y,-z
1/2+x,y,-z
1/2-x,y,1/2+z
1/2+x,1/2-y,1/2+z
loop_
_atom_site_type_symbol
_atom_site_label
_atom_site_fract_x
_atom_site_fract_y
_atom_site_fract_z
Si Si1 0.135020 0.372838 0.727537
Si Si2 0.970716 0.414594 0.039180
Si Si3 0.218494 0.930554 0.883284
Si Si4 0.432979 0.499738 0.657925
Si Si5 0.418492 0.712398 0.534268
Si Si6 0.631442 0.152747 0.464680
O O1 0.218264 0.397684 0.689468
O O2 0.081603 0.437897 0.729807
O O3 0.103780 0.321877 0.642509
O O4 0.136566 0.344860 0.841656
O O5 0.052620 0.386452 0.994854
O O6 0.932052 0.462832 0.955308
O O7 0.922991 0.347916 0.045569
O O8 0.990716 0.456092 0.141062
O O9 0.199151 0.885769 0.980165
O O10 0.250000 0.000000 0.920139
O O11 0.138259 0.950499 0.829229
O O12 0.500000 0.750000 0.547300
O O13 0.366842 0.772403 0.498269
#
# Coordination Sequence:
#
# PCOD9505915 Si02
#       6
#    16  16  16  16  16  16
#     4  10  19  30  47  70 101 134 165 210 258 310
#     4   8  15  29  49  71  97 127 159 203 257 313
#     4   9  19  33  46  66  98 132 170 209 252 312
#     4   8  15  29  47  68  96 129 161 198 251 311
#     4   9  18  30  47  72 100 127 162 210 263 315
#     4  10  19  30  48  73  98 130 168 209 259 310
#
# _framework density 20.866042
#
# number of rings (size 3 to 8) (size 9 to 14) (size 15 to 20)
#    0.000    3.000    0.000    0.500    0.000   10.667 
#    0.000    0.000    0.000    2.000    0.000    0.000 
#    0.000    6.667    0.000    3.333    0.000    0.000 
#
# Total GULP energy -267480.089741 kJ/mol
# GULP energy per Si atom -5572.501870 kJ/mol
# Density = 2.081855 g / cm^3
# Si number density = 20.866042 Si / 1000 Ang^3
#
#
#
# Elastic Constant Matrix: (Units=GPa)
#
#
# Indices 1 2 3 4 5 6 
#
# 1 53.5299 9.0780 -0.6165 0.0000 0.0000 0.0000
# 2 9.0780 107.5980 2.0801 0.0000 0.0000 0.0000
# 3 -0.6165 2.0801 14.8031 0.0000 0.0000 0.0000
# 4 0.0000 0.0000 0.0000 21.3759 0.0000 0.0000
# 5 0.0000 0.0000 0.0000 0.0000 26.8329 0.0000
# 6 0.0000 0.0000 0.0000 0.0000 0.0000 22.0713
#
#
#
# Elastic Compliance Matrix: (Units=1/GPa)
#
#
# Indices 1 2 3 4 5 6 
#
# 1 0.018968 -0.001620 0.001018 0.000000 0.000000 0.000000
# 2 -0.001620 0.009458 -0.001396 0.000000 0.000000 0.000000
# 3 0.001018 -0.001396 0.067792 0.000000 0.000000 0.000000
# 4 0.000000 0.000000 0.000000 0.046782 0.000000 0.000000
# 5 0.000000 0.000000 0.000000 0.000000 0.037268 0.000000
# 6 0.000000 0.000000 0.000000 0.000000 0.000000 0.045308
#
#
# Mechanical properties :
#
#
# Convention : Reuss Voigt Hill
#
# Bulk Modulus (GPa) = 10.84371 21.89046 16.36709
# Shear Modulus (GPa) = 19.20776 25.08197 22.14486
#
# Velocity S-wave (km/s) = 3.03731 3.47082 3.26127
# Velocity P-wave (km/s) = 4.18431 5.15517 4.69490
#
# Compressibility (1/GPa) = 0.09221936
#
# Stress axis : x y z
#
# Youngs Moduli (GPa) = 52.72149 105.73588 14.75103
#
# Poissons Ratio (x) = 0.17129 -0.01501
# Poissons Ratio (y) = 0.08541 0.02060
# Poissons Ratio (z) = -0.05365 0.14765
#
# Static dielectric constant tensor:
#      x y z
#    x 1.837010 0.000000 0.000000 
#    y 0.000000 1.779810 0.000000 
#    z 0.000000 0.000000 1.716950 
# 
# From -- ./inp_files/24721.got.cif
#   From: 2010.05.17/outbox.cif.g08.bks.cpg/sg68_13_cif.got.tgz:24721.got - 2010.06.03 18:57:09.
