data_PCOD9505553
_publ_section_title
;
Structure prediction by ZEFSAII (Michael W. Deem and Ramdas Pophale) SiO2 
 PCOD9505553
Probable space group: C C C A
;
_chemical_formula_sum "Si O2"
_cell_formula_units_Z 56
_cell_length_a 13.303446
_cell_length_b 15.035028
_cell_length_c 10.623316
_cell_angle_alpha 90.000000
_cell_angle_beta 90.000000
_cell_angle_gamma 90.000000
_cell_volume 2124.851053
_symmetry_space_group_name_H-M "C C C A"
_symmetry_group_IT_number 68
_space_group.IT_coordinate_system_code '2'
_symmetry_cell_setting 'orthorhombic'
loop_
_space_group_symop_operation_xyz
x,y,z
-x,1/2-y,z
x,1/2-y,1/2-z
-x,y,1/2-z
-x,-y,-z
x,1/2+y,-z
-x,1/2+y,1/2+z
x,-y,1/2+z
1/2+x,1/2+y,z
1/2-x,-y,z
1/2+x,-y,1/2-z
1/2-x,1/2+y,1/2-z
1/2-x,1/2-y,-z
1/2+x,y,-z
1/2-x,y,1/2+z
1/2+x,1/2-y,1/2+z
loop_
_atom_site_type_symbol
_atom_site_label
_atom_site_fract_x
_atom_site_fract_y
_atom_site_fract_z
Si Si1 0.629733 0.001418 0.974269
Si Si2 0.745689 0.250000 0.750000
Si Si3 0.847507 0.935921 0.721090
Si Si4 0.564893 0.176262 0.118645
O O1 0.587164 0.086234 0.047721
O O2 0.750000 0.000000 0.954373
O O3 0.611652 0.925370 0.078799
O O4 0.593576 0.011776 0.830864
O O5 0.682428 0.160923 0.774241
O O6 0.825706 0.280805 0.855539
O O7 0.750000 0.000000 0.701370
O O8 0.500000 0.250000 0.047075
O O9 0.500000 0.162986 0.250000
#
# Coordination Sequence:
#
# PCOD9505553 Si02
#       4
#    16   8  16  16
#     4  10  19  38  59  91 128 162 213 269 316 377
#     4  10  17  36  60  92 121 172 208 276 315 388
#     4  10  20  35  59  91 128 155 218 267 318 363
#     4   9  19  35  59  86 129 164 216 253 333 388
#
# _framework density 26.354787999999999
#
# number of rings (size 3 to 8) (size 9 to 14) (size 15 to 20)
#    0.000    2.571    5.714    0.000    0.000    1.143 
#    0.000    1.429    0.000    0.000    0.000    2.000 
#    0.000    0.000    0.000    0.000    0.000    0.000 
#
# Total GULP energy -156111.693584 kJ/mol
# GULP energy per Si atom -5575.417628 kJ/mol
# Density = 2.629480 g / cm^3
# Si number density = 26.354788 Si / 1000 Ang^3
#
#
#
# Elastic Constant Matrix: (Units=GPa)
#
#
# Indices 1 2 3 4 5 6 
#
# 1 106.7955 34.0234 33.4677 0.0000 0.0000 0.0000
# 2 34.0234 154.8036 28.4601 0.0000 0.0000 0.0000
# 3 33.4677 28.4601 167.8436 0.0000 0.0000 0.0000
# 4 0.0000 0.0000 0.0000 14.9049 0.0000 0.0000
# 5 0.0000 0.0000 0.0000 0.0000 19.7102 0.0000
# 6 0.0000 0.0000 0.0000 0.0000 0.0000 47.6605
#
#
#
# Elastic Compliance Matrix: (Units=1/GPa)
#
#
# Indices 1 2 3 4 5 6 
#
# 1 0.010553 -0.001995 -0.001766 0.000000 0.000000 0.000000
# 2 -0.001995 0.007045 -0.000797 0.000000 0.000000 0.000000
# 3 -0.001766 -0.000797 0.006445 0.000000 0.000000 0.000000
# 4 0.000000 0.000000 0.000000 0.067092 0.000000 0.000000
# 5 0.000000 0.000000 0.000000 0.000000 0.050735 0.000000
# 6 0.000000 0.000000 0.000000 0.000000 0.000000 0.020982
#
#
# Mechanical properties :
#
#
# Convention : Reuss Voigt Hill
#
# Bulk Modulus (GPa) = 66.98970 69.03835 68.01403
# Shear Modulus (GPa) = 28.25787 38.68789 33.47288
#
# Velocity S-wave (km/s) = 3.27801 3.83556 3.56769
# Velocity P-wave (km/s) = 6.30879 6.77259 6.54480
#
# Compressibility (1/GPa) = 0.01492767
#
# Stress axis : x y z
#
# Youngs Moduli (GPa) = 94.76372 141.95125 155.15514
#
# Poissons Ratio (x) = 0.28314 0.27400
# Poissons Ratio (y) = 0.18902 0.12363
# Poissons Ratio (z) = 0.16735 0.11311
#
# Static dielectric constant tensor:
#      x y z
#    x 2.164100 0.000000 0.000000 
#    y 0.000000 2.109480 0.000000 
#    z 0.000000 0.000000 2.189810 
# 
# From -- ./inp_files/12535.got.cif
#   From: 2010.05.17/outbox.cif.g08.bks.cpg/sg68_7_cif.got.tgz:12535.got - 2010.06.03 18:57:09.
