data_PCOD9505345
_publ_section_title
;
Structure prediction by ZEFSAII (Michael W. Deem and Ramdas Pophale) SiO2 
 PCOD9505345
Probable space group: C C C A
;
_chemical_formula_sum "Si O2"
_cell_formula_units_Z 68
_cell_length_a 17.679676
_cell_length_b 31.526667
_cell_length_c 5.593666
_cell_angle_alpha 90.000000
_cell_angle_beta 90.000000
_cell_angle_gamma 90.000000
_cell_volume 3117.804591
_symmetry_space_group_name_H-M "C C C A"
_symmetry_group_IT_number 68
_space_group.IT_coordinate_system_code '2'
_symmetry_cell_setting 'orthorhombic'
loop_
_space_group_symop_operation_xyz
x,y,z
-x,1/2-y,z
x,1/2-y,1/2-z
-x,y,1/2-z
-x,-y,-z
x,1/2+y,-z
-x,1/2+y,1/2+z
x,-y,1/2+z
1/2+x,1/2+y,z
1/2-x,-y,z
1/2+x,-y,1/2-z
1/2-x,1/2+y,1/2-z
1/2-x,1/2-y,-z
1/2+x,y,-z
1/2-x,y,1/2+z
1/2+x,1/2-y,1/2+z
loop_
_atom_site_type_symbol
_atom_site_label
_atom_site_fract_x
_atom_site_fract_y
_atom_site_fract_z
Si Si1 0.578784 0.813748 0.107933
Si Si2 0.000000 0.963136 0.750000
Si Si3 0.000000 0.750000 0.250000
Si Si4 0.645022 0.484105 0.180614
Si Si5 0.298046 0.250000 0.750000
Si Si6 0.577946 0.599392 0.612564
O O1 0.500000 0.823255 0.250000
O O2 0.645119 0.790634 0.253664
O O3 0.552076 0.779768 0.911723
O O4 0.608539 0.856527 0.984811
O O5 0.950797 0.930169 0.599620
O O6 0.062906 0.993636 0.637500
O O7 0.677085 0.508338 0.413449
O O8 0.633606 0.434152 0.241965
O O9 0.250000 0.250000 0.500000
O O10 0.500000 0.609418 0.750000
#
# Coordination Sequence:
#
# PCOD9505345 Si02
#       6
#    16   8   4  16   8  16
#     4  12  24  39  66  96 125 160 216 275 332 389
#     4  10  16  27  42  73 122 177 184 227 310 386
#     4  12  20  38  64  88 136 154 202 272 350 390
#     4  10  17  27  42  67 119 170 192 218 299 383
#     4  12  28  50  71  89 126 176 220 266 338 410
#     4  11  18  28  48  81 119 165 194 252 306 380
#
# _framework density 21.810217999999999
#
# number of rings (size 3 to 8) (size 9 to 14) (size 15 to 20)
#    0.000    0.941    8.235    2.118    0.000    0.000 
#    0.000    0.000    0.000    0.000    0.000    0.000 
#    0.000   22.588    0.000    0.000    0.000    0.000 
#
# Total GULP energy -189419.653604 kJ/mol
# GULP energy per Si atom -5571.166282 kJ/mol
# Density = 2.176058 g / cm^3
# Si number density = 21.810218 Si / 1000 Ang^3
#
#
#
# Elastic Constant Matrix: (Units=GPa)
#
#
# Indices 1 2 3 4 5 6 
#
# 1 94.0002 20.2464 17.5254 0.0000 0.0000 0.0000
# 2 20.2464 164.3968 28.2057 0.0000 0.0000 0.0000
# 3 17.5254 28.2057 99.4132 0.0000 0.0000 0.0000
# 4 0.0000 0.0000 0.0000 55.5954 0.0000 0.0000
# 5 0.0000 0.0000 0.0000 0.0000 -75.6050 0.0000
# 6 0.0000 0.0000 0.0000 0.0000 0.0000 -7.5498
#
#
#
# Elastic Compliance Matrix: (Units=1/GPa)
#
#
# Indices 1 2 3 4 5 6 
#
# 1 0.011183 -0.001092 -0.001662 0.000000 0.000000 0.000000
# 2 -0.001092 0.006501 -0.001652 0.000000 0.000000 0.000000
# 3 -0.001662 -0.001652 0.010821 0.000000 0.000000 0.000000
# 4 0.000000 0.000000 0.000000 0.017987 0.000000 0.000000
# 5 0.000000 0.000000 0.000000 0.000000 -0.013227 0.000000
# 6 0.000000 0.000000 0.000000 0.000000 0.000000 -0.132454
#
#
# Mechanical properties :
#
#
# Convention : Reuss Voigt Hill
#
# Bulk Modulus (GPa) = 50.77858 54.41835 52.59847
# Shear Modulus (GPa) = -59.65636 13.94366 -22.85635
#
# Velocity S-wave (km/s) = -5.23563 2.53122 -3.24074
# Velocity P-wave (km/s) = 3.63546 5.79204 3.18835
#
# Compressibility (1/GPa) = 0.01969334
#
# Stress axis : x y z
#
# Youngs Moduli (GPa) = 89.41898 153.82805 92.41619
#
# Poissons Ratio (x) = 0.16801 0.15356
# Poissons Ratio (y) = 0.09766 0.15266
# Poissons Ratio (z) = 0.14858 0.25410
#
# Static dielectric constant tensor:
#      x y z
#    x 1.892640 0.000000 0.000000 
#    y 0.000000 1.776340 0.000000 
#    z 0.000000 0.000000 3.162250 
# 
# From -- ./inp_files/1657.got.cif
#   From: 2010.05.17/outbox.cif.g08.bks.cpg/sg68_1_cif.got.tgz:1657.got - 2010.06.03 18:57:09.
