data_PCOD9505658
_publ_section_title
;
Structure prediction by ZEFSAII (Michael W. Deem and Ramdas Pophale) SiO2 
 PCOD9505658
Probable space group: C C C A
;
_chemical_formula_sum "Si O2"
_cell_formula_units_Z 104
_cell_length_a 8.036842
_cell_length_b 29.703020
_cell_length_c 22.221475
_cell_angle_alpha 90.000000
_cell_angle_beta 90.000000
_cell_angle_gamma 90.000000
_cell_volume 5304.676706
_symmetry_space_group_name_H-M "C C C A"
_symmetry_group_IT_number 68
_space_group.IT_coordinate_system_code '2'
_symmetry_cell_setting 'orthorhombic'
loop_
_space_group_symop_operation_xyz
x,y,z
-x,1/2-y,z
x,1/2-y,1/2-z
-x,y,1/2-z
-x,-y,-z
x,1/2+y,-z
-x,1/2+y,1/2+z
x,-y,1/2+z
1/2+x,1/2+y,z
1/2-x,-y,z
1/2+x,-y,1/2-z
1/2-x,1/2+y,1/2-z
1/2-x,1/2-y,-z
1/2+x,y,-z
1/2-x,y,1/2+z
1/2+x,1/2-y,1/2+z
loop_
_atom_site_type_symbol
_atom_site_label
_atom_site_fract_x
_atom_site_fract_y
_atom_site_fract_z
Si Si1 0.681266 0.325570 0.960057
Si Si2 0.295898 0.822434 0.178647
Si Si3 0.567570 0.607282 0.374208
Si Si4 0.500000 0.750000 0.120312
Si Si5 0.039831 0.302906 0.916137
Si Si6 0.690842 0.115008 0.230438
Si Si7 0.117159 0.963513 0.696667
O O1 0.601600 0.373403 0.940634
O O2 0.585671 0.286867 0.922432
O O3 0.870137 0.324848 0.938463
O O4 0.668561 0.311387 0.029297
O O5 0.434801 0.857094 0.153722
O O6 0.365998 0.773822 0.162770
O O7 0.123203 0.825054 0.141935
O O8 0.258889 0.836805 0.246234
O O9 0.740566 0.609587 0.336790
O O10 0.487581 0.559180 0.357314
O O11 0.000000 0.250000 0.907852
O O12 0.500000 0.111228 0.250000
O O13 0.787378 0.076863 0.268821
O O14 0.000000 0.983182 0.750000
O O15 0.250000 0.000000 0.676086
#
# Coordination Sequence:
#
# PCOD9505658 Si02
#       7
#    16  16  16   8  16  16  16
#     4  11  20  33  50  73 103 136 176 232 284 325
#     4  10  20  33  51  69  98 139 177 225 274 319
#     4   9  20  35  52  75 108 143 173 214 275 336
#     4  10  18  32  47  62  92 130 171 220 272 312
#     4  12  21  33  54  78 101 135 190 249 280 310
#     4  10  19  35  54  74 106 141 173 218 269 332
#     4   9  17  31  54  84 109 136 174 217 269 325
#
# _framework density 19.605342
#
# number of rings (size 3 to 8) (size 9 to 14) (size 15 to 20)
#    0.000    1.846    2.308    5.077    0.000    0.000 
#    0.000    6.154    0.000    0.000    0.000    9.692 
#    0.000   11.077    0.000   26.462    0.000   12.000 
#
# Total GULP energy -290002.058753 kJ/mol
# GULP energy per Si atom -5576.962668 kJ/mol
# Density = 1.956072 g / cm^3
# Si number density = 19.605342 Si / 1000 Ang^3
#
#
#
# Elastic Constant Matrix: (Units=GPa)
#
#
# Indices 1 2 3 4 5 6 
#
# 1 82.1620 2.3484 1.7261 0.0000 0.0000 0.0000
# 2 2.3484 48.9636 20.5389 0.0000 0.0000 0.0000
# 3 1.7261 20.5389 29.5015 0.0000 0.0000 0.0000
# 4 0.0000 0.0000 0.0000 11.0788 0.0000 0.0000
# 5 0.0000 0.0000 0.0000 0.0000 17.6640 0.0000
# 6 0.0000 0.0000 0.0000 0.0000 0.0000 22.0327
#
#
#
# Elastic Compliance Matrix: (Units=1/GPa)
#
#
# Indices 1 2 3 4 5 6 
#
# 1 0.012192 -0.000403 -0.000433 0.000000 0.000000 0.000000
# 2 -0.000403 0.028861 -0.020070 0.000000 0.000000 0.000000
# 3 -0.000433 -0.020070 0.047894 0.000000 0.000000 0.000000
# 4 0.000000 0.000000 0.000000 0.090262 0.000000 0.000000
# 5 0.000000 0.000000 0.000000 0.000000 0.056612 0.000000
# 6 0.000000 0.000000 0.000000 0.000000 0.000000 0.045387
#
#
# Mechanical properties :
#
#
# Convention : Reuss Voigt Hill
#
# Bulk Modulus (GPa) = 21.21502 23.31711 22.26607
# Shear Modulus (GPa) = 14.76091 19.22267 16.99179
#
# Velocity S-wave (km/s) = 2.74688 3.13466 2.94716
# Velocity P-wave (km/s) = 4.57220 5.00205 4.79195
#
# Compressibility (1/GPa) = 0.04713641
#
# Stress axis : x y z
#
# Youngs Moduli (GPa) = 82.02307 34.64833 20.87926
#
# Poissons Ratio (x) = 0.01397 0.00903
# Poissons Ratio (y) = 0.03308 0.41904
# Poissons Ratio (z) = 0.03548 0.69538
#
# Static dielectric constant tensor:
#      x y z
#    x 1.755930 0.000000 0.000000 
#    y 0.000000 1.695010 0.000000 
#    z 0.000000 0.000000 1.698880 
# 
# From -- ./inp_files/49696.got.cif
#   From: 2010.05.17/outbox.cif.g08.bks.cpg/sg68_25_cif.got.tgz:49696.got - 2010.06.03 18:57:09.
