data_PCOD9505362
_publ_section_title
;
Structure prediction by ZEFSAII (Michael W. Deem and Ramdas Pophale) SiO2 
 PCOD9505362
Probable space group: C C C A
;
_chemical_formula_sum "Si O2"
_cell_formula_units_Z 88
_cell_length_a 26.531851
_cell_length_b 26.941156
_cell_length_c 5.421157
_cell_angle_alpha 90.000000
_cell_angle_beta 90.000000
_cell_angle_gamma 90.000000
_cell_volume 3875.036175
_symmetry_space_group_name_H-M "C C C A"
_symmetry_group_IT_number 68
_space_group.IT_coordinate_system_code '2'
_symmetry_cell_setting 'orthorhombic'
loop_
_space_group_symop_operation_xyz
x,y,z
-x,1/2-y,z
x,1/2-y,1/2-z
-x,y,1/2-z
-x,-y,-z
x,1/2+y,-z
-x,1/2+y,1/2+z
x,-y,1/2+z
1/2+x,1/2+y,z
1/2-x,-y,z
1/2+x,-y,1/2-z
1/2-x,1/2+y,1/2-z
1/2-x,1/2-y,-z
1/2+x,y,-z
1/2-x,y,1/2+z
1/2+x,1/2-y,1/2+z
loop_
_atom_site_type_symbol
_atom_site_label
_atom_site_fract_x
_atom_site_fract_y
_atom_site_fract_z
Si Si1 0.887471 0.532859 0.252378
Si Si2 0.500000 0.033383 0.250000
Si Si3 0.223769 0.427774 0.809996
Si Si4 0.764535 0.317235 0.126414
Si Si5 0.866955 0.781876 0.000460
Si Si6 0.519887 0.192015 0.001937
O O1 0.885155 0.503637 0.513553
O O2 0.943643 0.557772 0.246701
O O3 0.835792 0.564226 0.227979
O O4 0.500000 0.000000 0.500000
O O5 0.255338 0.446991 0.573329
O O6 0.237883 0.369625 0.827046
O O7 0.764692 0.293358 0.397216
O O8 0.821764 0.319675 0.039175
O O9 0.858935 0.750000 0.250000
O O10 0.920677 0.807230 0.018414
O O11 0.869873 0.750000 0.750000
O O12 0.500000 0.250000 0.000564
O O13 0.500000 0.168303 0.250000
O O14 0.500000 0.169064 0.750000
#
# Coordination Sequence:
#
# PCOD9505362 Si02
#       6
#    16   8  16  16  16  16
#     4  10  19  32  55  88 119 146 184 232 275 330
#     4   8  16  30  48  80 120 144 175 222 279 324
#     4  10  21  37  55  77 111 158 187 226 278 332
#     4  10  23  40  52  74 107 149 189 222 280 334
#     4  12  21  32  56  82 105 138 181 236 279 334
#     4  10  16  30  48  76 109 131 162 215 278 346
#
# _framework density 22.709465999999999
#
# number of rings (size 3 to 8) (size 9 to 14) (size 15 to 20)
#    0.000    1.818    3.636    2.182    0.000    4.364 
#    0.000    0.000    0.000    0.000   28.364    0.000 
#    0.000    0.000    0.000    0.000    0.000    0.000 
#
# Total GULP energy -245432.819501 kJ/mol
# GULP energy per Si atom -5578.018625 kJ/mol
# Density = 2.265778 g / cm^3
# Si number density = 22.709466 Si / 1000 Ang^3
#
#
#
# Elastic Constant Matrix: (Units=GPa)
#
#
# Indices 1 2 3 4 5 6 
#
# 1 266.3104 41.6845 50.8368 0.0000 0.0000 0.0000
# 2 41.6845 54.6922 28.9036 0.0000 0.0000 0.0000
# 3 50.8368 28.9036 223.7612 0.0000 0.0000 0.0000
# 4 0.0000 0.0000 0.0000 -19.4930 0.0000 0.0000
# 5 0.0000 0.0000 0.0000 0.0000 46.0146 0.0000
# 6 0.0000 0.0000 0.0000 0.0000 0.0000 17.1005
#
#
#
# Elastic Compliance Matrix: (Units=1/GPa)
#
#
# Indices 1 2 3 4 5 6 
#
# 1 0.004337 -0.002989 -0.000599 0.000000 0.000000 0.000000
# 2 -0.002989 0.021684 -0.002122 0.000000 0.000000 0.000000
# 3 -0.000599 -0.002122 0.004879 0.000000 0.000000 0.000000
# 4 0.000000 0.000000 0.000000 -0.051300 0.000000 0.000000
# 5 0.000000 0.000000 0.000000 0.000000 0.021732 0.000000
# 6 0.000000 0.000000 0.000000 0.000000 0.000000 0.058478
#
#
# Mechanical properties :
#
#
# Convention : Reuss Voigt Hill
#
# Bulk Modulus (GPa) = 51.33500 87.51261 69.42381
# Shear Modulus (GPa) = 64.33092 36.94703 50.63898
#
# Velocity S-wave (km/s) = 5.32816 4.03792 4.72726
# Velocity P-wave (km/s) = 7.77860 7.76911 7.77386
#
# Compressibility (1/GPa) = 0.01947989
#
# Stress axis : x y z
#
# Youngs Moduli (GPa) = 230.55947 46.11785 204.94806
#
# Poissons Ratio (x) = 0.13785 0.12283
# Poissons Ratio (y) = 0.68914 0.43486
# Poissons Ratio (z) = 0.13817 0.09785
#
# Static dielectric constant tensor:
#      x y z
#    x 1.840330 0.000000 0.000000 
#    y 0.000000 1.827340 0.000000 
#    z 0.000000 0.000000 1.540670 
# 
# From -- ./inp_files/2082.got.cif
#   From: 2010.05.17/outbox.cif.g08.bks.cpg/sg68_2_cif.got.tgz:2082.got - 2010.06.03 18:57:09.
