data_PCOD9505353
_publ_section_title
;
Structure prediction by ZEFSAII (Michael W. Deem and Ramdas Pophale) SiO2 
 PCOD9505353
Probable space group: C C C A
;
_chemical_formula_sum "Si O2"
_cell_formula_units_Z 88
_cell_length_a 15.133278
_cell_length_b 11.132520
_cell_length_c 25.268807
_cell_angle_alpha 90.000000
_cell_angle_beta 90.000000
_cell_angle_gamma 90.000000
_cell_volume 4257.074324
_symmetry_space_group_name_H-M "C C C A"
_symmetry_group_IT_number 68
_space_group.IT_coordinate_system_code '2'
_symmetry_cell_setting 'orthorhombic'
loop_
_space_group_symop_operation_xyz
x,y,z
-x,1/2-y,z
x,1/2-y,1/2-z
-x,y,1/2-z
-x,-y,-z
x,1/2+y,-z
-x,1/2+y,1/2+z
x,-y,1/2+z
1/2+x,1/2+y,z
1/2-x,-y,z
1/2+x,-y,1/2-z
1/2-x,1/2+y,1/2-z
1/2-x,1/2-y,-z
1/2+x,y,-z
1/2-x,y,1/2+z
1/2+x,1/2-y,1/2+z
loop_
_atom_site_type_symbol
_atom_site_label
_atom_site_fract_x
_atom_site_fract_y
_atom_site_fract_z
Si Si1 0.945161 0.924083 0.623864
Si Si2 0.631895 0.339362 0.652693
Si Si3 0.828899 0.403093 0.475699
Si Si4 0.278688 0.750000 0.250000
Si Si5 0.678832 0.604151 0.839608
Si Si6 0.782558 0.698575 0.079117
O O1 0.899197 0.799268 0.642427
O O2 0.908956 0.939831 0.563385
O O3 0.049044 0.913331 0.632051
O O4 0.910096 0.029090 0.661613
O O5 0.660341 0.336308 0.713898
O O6 0.718982 0.370613 0.619476
O O7 0.750000 0.500000 0.473537
O O8 0.841749 0.375044 0.537926
O O9 0.789426 0.278814 0.452937
O O10 0.218026 0.670793 0.211137
O O11 0.750000 0.500000 0.855099
O O12 0.668158 0.703797 0.885036
#
# Coordination Sequence:
#
# PCOD9505353 Si02
#       6
#    16  16  16   8  16  16
#     4  10  17  32  57  76 121 144 190 256 325 351
#     4   9  19  33  52  87 117 142 197 267 302 354
#     4  10  16  29  53  80 107 155 195 239 298 368
#     4  10  20  33  60  92 115 154 218 256 311 366
#     4  11  17  36  54  82 116 158 197 255 319 372
#     4   9  17  30  54  78 111 148 202 239 293 369
#
# _framework density 20.671474
#
# number of rings (size 3 to 8) (size 9 to 14) (size 15 to 20)
#    0.000    2.182    7.273    0.000    0.000    1.455 
#    0.000    4.545    8.000    0.000    0.000    7.636 
#    0.000    0.000    0.000    0.000    0.000    0.000 
#
# Total GULP energy -245072.436236 kJ/mol
# GULP energy per Si atom -5569.828096 kJ/mol
# Density = 2.062442 g / cm^3
# Si number density = 20.671474 Si / 1000 Ang^3
#
#
#
# Elastic Constant Matrix: (Units=GPa)
#
#
# Indices 1 2 3 4 5 6 
#
# 1 57.7392 41.4643 33.5696 0.0000 0.0000 0.0000
# 2 41.4643 59.8785 35.9068 0.0000 0.0000 0.0000
# 3 33.5696 35.9068 130.3240 0.0000 0.0000 0.0000
# 4 0.0000 0.0000 0.0000 -12.7007 0.0000 0.0000
# 5 0.0000 0.0000 0.0000 0.0000 9.0842 0.0000
# 6 0.0000 0.0000 0.0000 0.0000 0.0000 29.8086
#
#
#
# Elastic Compliance Matrix: (Units=1/GPa)
#
#
# Indices 1 2 3 4 5 6 
#
# 1 0.035299 -0.022750 -0.002824 0.000000 0.000000 0.000000
# 2 -0.022750 0.034668 -0.003692 0.000000 0.000000 0.000000
# 3 -0.002824 -0.003692 0.009418 0.000000 0.000000 0.000000
# 4 0.000000 0.000000 0.000000 -0.078736 0.000000 0.000000
# 5 0.000000 0.000000 0.000000 0.000000 0.110081 0.000000
# 6 0.000000 0.000000 0.000000 0.000000 0.000000 0.033547
#
#
# Mechanical properties :
#
#
# Convention : Reuss Voigt Hill
#
# Bulk Modulus (GPa) = 47.95543 52.20259 50.07901
# Shear Modulus (GPa) = 23.83682 14.37182 19.10432
#
# Velocity S-wave (km/s) = 3.39946 2.63962 3.04334
# Velocity P-wave (km/s) = 6.21752 5.88204 6.05211
#
# Compressibility (1/GPa) = 0.02085269
#
# Stress axis : x y z
#
# Youngs Moduli (GPa) = 28.32968 28.84520 106.18141
#
# Poissons Ratio (x) = 0.65622 0.29990
# Poissons Ratio (y) = 0.64449 0.39199
# Poissons Ratio (z) = 0.08002 0.10649
#
# Static dielectric constant tensor:
#      x y z
#    x 1.737700 0.000000 0.000000 
#    y 0.000000 1.801090 0.000000 
#    z 0.000000 0.000000 1.814060 
# 
# From -- ./inp_files/45287.got.cif
#   From: 2010.05.17/outbox.cif.g08.bks.cpg/sg68_23_cif.got.tgz:45287.got - 2010.06.03 18:57:09.
