data_PCOD9505253
_publ_section_title
;
Structure prediction by ZEFSAII (Michael W. Deem and Ramdas Pophale) SiO2 
 PCOD9505253
Probable space group: C M M A
;
_chemical_formula_sum "Si O2"
_cell_formula_units_Z 50
_cell_length_a 27.000000
_cell_length_b 9.000000
_cell_length_c 21.000000
_cell_angle_alpha 90.000000
_cell_angle_beta 90.000000
_cell_angle_gamma 90.000000
_cell_volume 5103.000000
_symmetry_space_group_name_H-M "C M M A"
_symmetry_group_IT_number 67
_symmetry_cell_setting 'orthorhombic'
loop_
_space_group_symop_operation_xyz
x,y,z
-x,1/2-y,z
x,-y,-z
-x,1/2+y,-z
-x,-y,-z
x,1/2+y,-z
-x,y,z
x,1/2-y,z
1/2+x,1/2+y,z
1/2-x,-y,z
1/2+x,1/2-y,-z
1/2-x,y,-z
1/2-x,1/2-y,-z
1/2+x,y,-z
1/2-x,1/2+y,z
1/2+x,-y,z
loop_
_atom_site_type_symbol
_atom_site_label
_atom_site_fract_x
_atom_site_fract_y
_atom_site_fract_z
Si Si1 0.300420 0.580148 0.255903
Si Si2 0.348260 0.919045 0.938371
Si Si3 0.800219 0.419970 0.409037
Si Si4 0.000000 0.927922 0.660140
Si Si5 0.088947 0.571406 0.564561
Si Si6 0.250000 0.500000 0.000000
Si Si7 0.000000 0.926367 0.203939
Si Si8 0.394310 0.572511 0.180772
O O1 0.297641 0.750000 0.232862
O O2 0.250000 0.500000 0.233298
O O3 0.299035 0.580347 0.332228
O O4 0.355100 0.524360 0.235807
O O5 0.364860 0.750000 0.929168
O O6 0.289320 0.917352 0.954436
O O7 0.363209 0.022734 0.880573
O O8 0.370867 0.000000 0.000000
O O9 0.798383 0.250000 0.431632
O O10 0.750000 0.500000 0.429986
O O11 0.854398 0.483525 0.425985
O O12 0.950216 0.959555 0.620194
O O13 0.000000 0.750000 0.675648
O O14 0.000000 0.026711 0.722353
O O15 0.069541 0.500000 0.500000
O O16 0.091123 0.750000 0.559443
O O17 0.000000 0.750000 0.194357
O O18 0.948053 0.995618 0.179204
O O19 0.401860 0.750000 0.185139
#
# Coordination Sequence:
#
# PCOD9505253 Si02
#       8
#    16  16  16   8  16   4   8  16
#     4   9  19  34  55  83 114 150 192 239 295 355
#     4  10  21  37  59  89 124 161 203 246 293 347
#     4   9  18  34  52  74 107 147 188 230 280 341
#     4  10  21  41  65  85 113 150 185 236 299 358
#     4  10  21  36  57  83 112 145 187 235 288 348
#     4   8  22  36  62  86 130 168 206 248 302 344
#     4  12  26  43  64  91 119 154 201 252 298 352
#     4  11  23  40  62  88 121 162 203 247 302 360
#
# _framework density 9.7981580000000008
#
# number of rings (size 3 to 8) (size 9 to 14) (size 15 to 20)
#    0.480    1.600    0.000    3.120    1.120    5.440 
#    0.000    5.200    0.000    0.000    0.000    0.000 
#    0.000    0.000    0.000    0.000    0.000    0.000 
#
# Total GULP energy -278522.208784 kJ/mol
# GULP energy per Si atom -5570.444176 kJ/mol
# Density = 0.977586 g / cm^3
# Si number density = 9.798158 Si / 1000 Ang^3
#
#
#
# Elastic Constant Matrix: (Units=GPa)
#
#
# Indices 1 2 3 4 5 6 
#
# 1 137.6138 38.1153 24.0912 0.0000 0.0000 0.0000
# 2 38.1153 45.1218 13.1988 0.0000 0.0000 0.0000
# 3 24.0912 13.1988 53.2060 0.0000 0.0000 0.0000
# 4 0.0000 0.0000 0.0000 11.8807 0.0000 0.0000
# 5 0.0000 0.0000 0.0000 0.0000 -8.4666 0.0000
# 6 0.0000 0.0000 0.0000 0.0000 0.0000 24.0611
#
#
#
# Elastic Compliance Matrix: (Units=1/GPa)
#
#
# Indices 1 2 3 4 5 6 
#
# 1 0.009802 -0.007528 -0.002571 0.000000 0.000000 0.000000
# 2 -0.007528 0.029678 -0.003954 0.000000 0.000000 0.000000
# 3 -0.002571 -0.003954 0.020940 0.000000 0.000000 0.000000
# 4 0.000000 0.000000 0.000000 0.084170 0.000000 0.000000
# 5 0.000000 0.000000 0.000000 0.000000 -0.118112 0.000000
# 6 0.000000 0.000000 0.000000 0.000000 0.000000 0.041561
#
#
# Mechanical properties :
#
#
# Convention : Reuss Voigt Hill
#
# Bulk Modulus (GPa) = 30.94559 42.97248 36.95903
# Shear Modulus (GPa) = 46.76655 16.19746 31.48200
#
# Velocity S-wave (km/s) = 4.89048 2.87811 4.01250
# Velocity P-wave (km/s) = 6.90759 5.74640 6.35358
#
# Compressibility (1/GPa) = 0.03231478
#
# Stress axis : x y z
#
# Youngs Moduli (GPa) = 102.02274 33.69552 47.75629
#
# Poissons Ratio (x) = 0.25365 0.12277
# Poissons Ratio (y) = 0.76800 0.18881
# Poissons Ratio (z) = 0.26227 0.13322
#
# Static dielectric constant tensor:
#      x y z
#    x 1.689100 0.000000 0.000000 
#    y 0.000000 1.689290 0.000000 
#    z 0.000000 0.000000 1.760660 
# 
# From -- ./inp_files/40016.got.cif
#   From: 2010.05.17/outbox.ucp.g08.bks.cvg/sg67_21_cif.got.tgz:40016.got - 2010.06.11 16:47:20.
