data_PCOD9505017
_publ_section_title
;
Structure prediction by ZEFSAII (Michael W. Deem and Ramdas Pophale) SiO2 
 PCOD9505017
Probable space group: C M M A
;
_chemical_formula_sum "Si O2"
_cell_formula_units_Z 88
_cell_length_a 8.590805
_cell_length_b 15.914513
_cell_length_c 31.767207
_cell_angle_alpha 90.000000
_cell_angle_beta 90.000000
_cell_angle_gamma 90.000000
_cell_volume 4343.164187
_symmetry_space_group_name_H-M "C M M A"
_symmetry_group_IT_number 67
_symmetry_cell_setting 'orthorhombic'
loop_
_space_group_symop_operation_xyz
x,y,z
-x,1/2-y,z
x,-y,-z
-x,1/2+y,-z
-x,-y,-z
x,1/2+y,-z
-x,y,z
x,1/2-y,z
1/2+x,1/2+y,z
1/2-x,-y,z
1/2+x,1/2-y,-z
1/2-x,y,-z
1/2-x,1/2-y,-z
1/2+x,y,-z
1/2-x,1/2+y,z
1/2+x,-y,z
loop_
_atom_site_type_symbol
_atom_site_label
_atom_site_fract_x
_atom_site_fract_y
_atom_site_fract_z
Si Si1 0.312612 0.410482 0.097707
Si Si2 0.688695 0.405401 0.634136
Si Si3 0.813509 0.652233 0.187765
Si Si4 0.822218 0.350632 0.275244
Si Si5 0.813225 0.903754 0.543136
Si Si6 0.813700 0.750000 0.952677
O O1 0.500000 0.409275 0.096318
O O2 0.250000 0.500000 0.082541
O O3 0.260425 0.396599 0.146315
O O4 0.248584 0.332553 0.071175
O O5 0.500000 0.402577 0.635065
O O6 0.750000 0.500000 0.633087
O O7 0.745954 0.369860 0.678701
O O8 0.733170 0.366159 0.588734
O O9 0.761854 0.750000 0.183521
O O10 0.759827 0.618158 0.232967
O O11 0.000000 0.652710 0.187644
O O12 0.824031 0.250000 0.272255
O O13 0.000000 0.381670 0.274416
O O14 0.750000 0.864314 0.500000
O O15 0.000000 0.906115 0.540864
O O16 0.750000 0.000000 0.543685
O O17 0.000000 0.750000 0.952634
O O18 0.750000 0.750000 0.000000
#
# Coordination Sequence:
#
# PCOD9505017 Si02
#       6
#    16  16  16  16  16   8
#     4  11  23  42  66  97 133 170 213 263 313 369
#     4   9  18  30  44  65  93 123 158 205 261 313
#     4   9  18  35  57  80 112 152 191 237 291 344
#     4   9  18  32  50  72  99 135 179 220 261 322
#     4   9  15  24  39  59  83 112 149 196 250 310
#     4  12  26  46  72 100 132 174 216 262 317 370
#
# _framework density 20.261724999999998
#
# number of rings (size 3 to 8) (size 9 to 14) (size 15 to 20)
#    0.000    2.364    0.909    2.455    0.000    4.000 
#    0.000    5.455    0.000    0.545    0.000    0.000 
#    0.000    0.000    0.000    0.000    0.000    4.909 
#
# Total GULP energy -245286.625861 kJ/mol
# GULP energy per Si atom -5574.696042 kJ/mol
# Density = 2.021561 g / cm^3
# Si number density = 20.261725 Si / 1000 Ang^3
#
#
#
# Elastic Constant Matrix: (Units=GPa)
#
#
# Indices 1 2 3 4 5 6 
#
# 1 49.9064 25.1276 45.1894 0.0000 0.0000 0.0000
# 2 25.1276 75.9374 58.6415 0.0000 0.0000 0.0000
# 3 45.1894 58.6415 199.4456 0.0000 0.0000 0.0000
# 4 0.0000 0.0000 0.0000 26.0297 0.0000 0.0000
# 5 0.0000 0.0000 0.0000 0.0000 21.9134 0.0000
# 6 0.0000 0.0000 0.0000 0.0000 0.0000 14.3629
#
#
#
# Elastic Compliance Matrix: (Units=1/GPa)
#
#
# Indices 1 2 3 4 5 6 
#
# 1 0.026825 -0.005411 -0.004487 0.000000 0.000000 0.000000
# 2 -0.005411 0.018129 -0.004104 0.000000 0.000000 0.000000
# 3 -0.004487 -0.004104 0.007237 0.000000 0.000000 0.000000
# 4 0.000000 0.000000 0.000000 0.038418 0.000000 0.000000
# 5 0.000000 0.000000 0.000000 0.000000 0.045634 0.000000
# 6 0.000000 0.000000 0.000000 0.000000 0.000000 0.069624
#
#
# Mechanical properties :
#
#
# Convention : Reuss Voigt Hill
#
# Bulk Modulus (GPa) = 41.34619 64.80070 53.07344
# Shear Modulus (GPa) = 20.66688 25.54994 23.10841
#
# Velocity S-wave (km/s) = 3.19720 3.55490 3.38079
# Velocity P-wave (km/s) = 5.83779 6.99293 6.44131
#
# Compressibility (1/GPa) = 0.02418603
#
# Stress axis : x y z
#
# Youngs Moduli (GPa) = 37.27893 55.16103 138.17514
#
# Poissons Ratio (x) = 0.29850 0.61996
# Poissons Ratio (y) = 0.20173 0.56709
# Poissons Ratio (z) = 0.16726 0.22639
#
# Static dielectric constant tensor:
#      x y z
#    x 1.703540 0.000000 0.000000 
#    y 0.000000 1.717660 0.000000 
#    z 0.000000 0.000000 1.780700 
# 
# From -- ./inp_files/45190.got.cif
#   From: 2010.05.17/outbox.cif.g08.bks.cpg/sg67_23_cif.got.tgz:45190.got - 2010.06.03 18:28:57.
