data_PCOD9505172
_publ_section_title
;
Structure prediction by ZEFSAII (Michael W. Deem and Ramdas Pophale) SiO2 
 PCOD9505172
Probable space group: C M M A
;
_chemical_formula_sum "Si O2"
_cell_formula_units_Z 52
_cell_length_a 27.000000
_cell_length_b 9.000000
_cell_length_c 21.000000
_cell_angle_alpha 90.000000
_cell_angle_beta 90.000000
_cell_angle_gamma 90.000000
_cell_volume 5103.000000
_symmetry_space_group_name_H-M "C M M A"
_symmetry_group_IT_number 67
_symmetry_cell_setting 'orthorhombic'
loop_
_space_group_symop_operation_xyz
x,y,z
-x,1/2-y,z
x,-y,-z
-x,1/2+y,-z
-x,-y,-z
x,1/2+y,-z
-x,y,z
x,1/2-y,z
1/2+x,1/2+y,z
1/2-x,-y,z
1/2+x,1/2-y,-z
1/2-x,y,-z
1/2-x,1/2-y,-z
1/2+x,y,-z
1/2-x,1/2+y,z
1/2+x,-y,z
loop_
_atom_site_type_symbol
_atom_site_label
_atom_site_fract_x
_atom_site_fract_y
_atom_site_fract_z
Si Si1 0.441722 0.416482 0.734805
Si Si2 0.500000 0.429532 0.068983
Si Si3 0.598283 0.925863 0.854084
Si Si4 0.802638 0.074031 0.316573
Si Si5 0.945474 0.083980 0.605645
Si Si6 0.303085 0.926375 0.167120
Si Si7 0.841590 0.582089 0.438563
O O1 0.500000 0.413791 0.750312
O O2 0.421048 0.250000 0.743560
O O3 0.416391 0.530357 0.782244
O O4 0.438492 0.466608 0.662018
O O5 0.500000 0.250000 0.066341
O O6 0.449435 0.474196 0.104926
O O7 0.500000 0.500000 0.000000
O O8 0.604678 0.750000 0.860103
O O9 0.649917 0.006427 0.869480
O O10 0.801734 0.250000 0.325188
O O11 0.813630 0.044080 0.242452
O O12 0.750000 0.000000 0.327479
O O13 0.834200 0.999986 0.371832
O O14 0.944534 0.250000 0.635960
O O15 0.901033 0.085243 0.556653
O O16 0.000000 0.062977 0.577663
O O17 0.299744 0.750000 0.158485
O O18 0.250000 0.000000 0.152177
O O19 0.820277 0.500000 0.500000
O O20 0.822662 0.750000 0.434772
#
# Coordination Sequence:
#
# PCOD9505172 Si02
#       7
#    16   8  16  16  16  16  16
#     4  10  19  30  49  80 112 143 183 232 288 347
#     4  10  24  42  62  90 126 170 213 250 293 338
#     4  11  21  36  58  86 122 162 202 245 292 347
#     4  10  21  38  59  82 110 139 177 225 281 342
#     4   9  19  35  53  73 101 138 177 223 280 342
#     4  10  21  37  60  92 124 157 194 240 298 355
#     4  11  23  37  53  73  99 135 181 229 281 339
#
# _framework density 10.190084000000001
#
# number of rings (size 3 to 8) (size 9 to 14) (size 15 to 20)
#    0.000    1.846    0.769    3.231    0.000    8.000 
#    0.000    1.538    0.000    0.462    0.000    3.231 
#    0.000    0.000    0.000    0.000    0.000    0.000 
#
# Total GULP energy -290034.436771 kJ/mol
# GULP energy per Si atom -5577.585323 kJ/mol
# Density = 1.016689 g / cm^3
# Si number density = 10.190084 Si / 1000 Ang^3
#
#
#
# Elastic Constant Matrix: (Units=GPa)
#
#
# Indices 1 2 3 4 5 6 
#
# 1 143.0054 62.1013 34.4197 0.0000 0.0000 0.0000
# 2 62.1013 63.9981 30.7881 0.0000 0.0000 0.0000
# 3 34.4197 30.7881 8.7356 0.0000 0.0000 0.0000
# 4 0.0000 0.0000 0.0000 19.1038 0.0000 0.0000
# 5 0.0000 0.0000 0.0000 0.0000 16.8328 0.0000
# 6 0.0000 0.0000 0.0000 0.0000 0.0000 27.4050
#
#
#
# Elastic Compliance Matrix: (Units=1/GPa)
#
#
# Indices 1 2 3 4 5 6 
#
# 1 0.011609 -0.015441 0.008682 0.000000 0.000000 0.000000
# 2 -0.015441 -0.001926 0.067630 0.000000 0.000000 0.000000
# 3 0.008682 0.067630 -0.158093 0.000000 0.000000 0.000000
# 4 0.000000 0.000000 0.000000 0.052345 0.000000 0.000000
# 5 0.000000 0.000000 0.000000 0.000000 0.059408 0.000000
# 6 0.000000 0.000000 0.000000 0.000000 0.000000 0.036490
#
#
# Mechanical properties :
#
#
# Convention : Reuss Voigt Hill
#
# Bulk Modulus (GPa) = -37.49747 52.26194 7.38224
# Shear Modulus (GPa) = -38.22654 18.56368 -9.83143
#
# Velocity S-wave (km/s) = -4.33560 3.02134 -2.19875
# Velocity P-wave (km/s) = 6.59562 6.15390 1.67805
#
# Compressibility (1/GPa) = -0.02666847
#
# Stress axis : x y z
#
# Youngs Moduli (GPa) = 86.14323 -519.10744 -6.32540
#
# Poissons Ratio (x) = -8.01567 0.05492
# Poissons Ratio (y) = 1.33016 0.42779
# Poissons Ratio (z) = -0.74790 35.10736
#
# Static dielectric constant tensor:
#      x y z
#    x 1.794570 0.000000 0.000000 
#    y 0.000000 1.725690 0.000000 
#    z 0.000000 0.000000 1.732930 
# 
# From -- ./inp_files/39988.got.cif
#   From: 2010.05.17/outbox.ucp.g08.bks.cvg/sg67_20_cif.got.tgz:39988.got - 2010.06.11 16:47:20.
