data_PCOD9505504
_publ_section_title
;
Structure prediction by ZEFSAII (Michael W. Deem and Ramdas Pophale) SiO2 
 PCOD9505504
Probable space group: C C C A
;
_chemical_formula_sum "Si O2"
_cell_formula_units_Z 72
_cell_length_a 13.675439
_cell_length_b 9.228856
_cell_length_c 27.772016
_cell_angle_alpha 90.000000
_cell_angle_beta 90.000000
_cell_angle_gamma 90.000000
_cell_volume 3505.068849
_symmetry_space_group_name_H-M "C C C A"
_symmetry_group_IT_number 68
_space_group.IT_coordinate_system_code '2'
_symmetry_cell_setting 'orthorhombic'
loop_
_space_group_symop_operation_xyz
x,y,z
-x,1/2-y,z
x,1/2-y,1/2-z
-x,y,1/2-z
-x,-y,-z
x,1/2+y,-z
-x,1/2+y,1/2+z
x,-y,1/2+z
1/2+x,1/2+y,z
1/2-x,-y,z
1/2+x,-y,1/2-z
1/2-x,1/2+y,1/2-z
1/2-x,1/2-y,-z
1/2+x,y,-z
1/2-x,y,1/2+z
1/2+x,1/2-y,1/2+z
loop_
_atom_site_type_symbol
_atom_site_label
_atom_site_fract_x
_atom_site_fract_y
_atom_site_fract_z
Si Si1 0.383936 0.029984 0.313276
Si Si2 0.500000 0.250000 0.134856
Si Si3 0.318463 0.225500 0.064837
Si Si4 0.250000 0.500000 0.776185
Si Si5 0.750000 0.000000 0.510598
Si Si6 0.791501 0.263007 0.346919
O O1 0.479188 0.115310 0.329512
O O2 0.300016 0.128078 0.338596
O O3 0.343352 0.027123 0.258850
O O4 0.381225 0.867459 0.334053
O O5 0.411551 0.209828 0.099173
O O6 0.311936 0.387310 0.042731
O O7 0.222201 0.208952 0.098882
O O8 0.313690 0.105951 0.023237
O O9 0.223573 0.635411 0.809228
#
# Coordination Sequence:
#
# PCOD9505504 Si02
#       6
#    16   8  16   8   8  16
#     4   9  17  31  51  82 115 149 187 228 278 342
#     4  10  20  34  57  86 120 148 184 240 301 338
#     4  10  20  36  56  84 110 146 189 240 293 339
#     4  10  17  31  58  88 110 152 202 237 275 340
#     4  10  21  37  60  80 108 148 202 237 275 364
#     4   9  17  32  56  81 112 147 193 232 277 348
#
# _framework density 20.541679999999999
#
# number of rings (size 3 to 8) (size 9 to 14) (size 15 to 20)
#    0.000    2.667    0.000    6.000    0.000    0.889 
#    0.000    8.889    0.000   21.333    0.000   80.889 
#    0.000    0.000    0.000    0.000    0.000    0.000 
#
# Total GULP energy -200600.275128 kJ/mol
# GULP energy per Si atom -5572.229865 kJ/mol
# Density = 2.049493 g / cm^3
# Si number density = 20.541680 Si / 1000 Ang^3
#
#
#
# Elastic Constant Matrix: (Units=GPa)
#
#
# Indices 1 2 3 4 5 6 
#
# 1 41.0469 50.5645 37.7497 0.0000 0.0000 0.0000
# 2 50.5645 122.1520 66.3593 0.0000 0.0000 0.0000
# 3 37.7497 66.3593 127.5255 0.0000 0.0000 0.0000
# 4 0.0000 0.0000 0.0000 96.9161 0.0000 0.0000
# 5 0.0000 0.0000 0.0000 0.0000 -31.2680 0.0000
# 6 0.0000 0.0000 0.0000 0.0000 0.0000 21.6370
#
#
#
# Elastic Compliance Matrix: (Units=1/GPa)
#
#
# Indices 1 2 3 4 5 6 
#
# 1 0.052741 -0.018612 -0.005927 0.000000 0.000000 0.000000
# 2 -0.018612 0.017981 -0.003847 0.000000 0.000000 0.000000
# 3 -0.005927 -0.003847 0.011598 0.000000 0.000000 0.000000
# 4 0.000000 0.000000 0.000000 0.010318 0.000000 0.000000
# 5 0.000000 0.000000 0.000000 0.000000 -0.031982 0.000000
# 6 0.000000 0.000000 0.000000 0.000000 0.000000 0.046217
#
#
# Mechanical properties :
#
#
# Convention : Reuss Voigt Hill
#
# Bulk Modulus (GPa) = 39.14312 66.67459 52.90885
# Shear Modulus (GPa) = 29.04231 26.52707 27.78469
#
# Velocity S-wave (km/s) = 3.76416 3.59747 3.68176
# Velocity P-wave (km/s) = 6.16350 7.05581 6.62469
#
# Compressibility (1/GPa) = 0.02554728
#
# Stress axis : x y z
#
# Youngs Moduli (GPa) = 18.96048 55.61463 86.22172
#
# Poissons Ratio (x) = 1.03511 0.51106
# Poissons Ratio (y) = 0.35289 0.33170
# Poissons Ratio (z) = 0.11238 0.21395
#
# Static dielectric constant tensor:
#      x y z
#    x 1.848880 0.000000 0.000000 
#    y 0.000000 1.768820 0.000000 
#    z 0.000000 0.000000 1.777630 
# 
# From -- ./inp_files/51242.got.cif
#   From: 2010.05.17/outbox.cif.g08.bks.cpg/sg68_26_cif.got.tgz:51242.got - 2010.06.03 18:57:09.
