data_PCOD9505836
_publ_section_title
;
Structure prediction by ZEFSAII (Michael W. Deem and Ramdas Pophale) SiO2 
 PCOD9505836
Probable space group: C C C A
;
_chemical_formula_sum "Si O2"
_cell_formula_units_Z 104
_cell_length_a 16.738088
_cell_length_b 18.300693
_cell_length_c 15.745239
_cell_angle_alpha 90.000000
_cell_angle_beta 90.000000
_cell_angle_gamma 90.000000
_cell_volume 4823.059723
_symmetry_space_group_name_H-M "C C C A"
_symmetry_group_IT_number 68
_space_group.IT_coordinate_system_code '2'
_symmetry_cell_setting 'orthorhombic'
loop_
_space_group_symop_operation_xyz
x,y,z
-x,1/2-y,z
x,1/2-y,1/2-z
-x,y,1/2-z
-x,-y,-z
x,1/2+y,-z
-x,1/2+y,1/2+z
x,-y,1/2+z
1/2+x,1/2+y,z
1/2-x,-y,z
1/2+x,-y,1/2-z
1/2-x,1/2+y,1/2-z
1/2-x,1/2-y,-z
1/2+x,y,-z
1/2-x,y,1/2+z
1/2+x,1/2-y,1/2+z
loop_
_atom_site_type_symbol
_atom_site_label
_atom_site_fract_x
_atom_site_fract_y
_atom_site_fract_z
Si Si1 0.058289 0.842029 0.328974
Si Si2 0.037848 0.893680 0.019808
Si Si3 0.815667 0.250000 0.750000
Si Si4 0.199488 0.563458 0.130024
Si Si5 0.222357 0.166956 0.115628
Si Si6 0.678742 0.821145 0.057441
Si Si7 0.122041 0.464505 0.449121
O O1 0.123544 0.778577 0.321825
O O2 0.116474 0.912516 0.328089
O O3 0.000000 0.840471 0.250000
O O4 0.004410 0.841873 0.412072
O O5 0.094109 0.952753 0.070117
O O6 0.093173 0.857209 0.950064
O O7 0.962983 0.928941 0.971640
O O8 0.763932 0.187032 0.795273
O O9 0.250000 0.500000 0.173893
O O10 0.258174 0.631791 0.112119
O O11 0.171266 0.533811 0.037525
O O12 0.170873 0.239077 0.091825
O O13 0.173742 0.090807 0.109354
O O14 0.285888 0.172461 0.038232
#
# Coordination Sequence:
#
# PCOD9505836 Si02
#       7
#    16  16   8  16  16  16  16
#     4  11  24  40  58  90 127 165 209 255 328 383
#     4  10  20  38  65  90 123 157 204 273 317 375
#     4  12  23  44  60  89 132 174 206 266 311 398
#     4  10  18  37  64  88 119 163 210 265 316 378
#     4  10  22  37  60  90 125 163 214 253 317 381
#     4  10  19  36  62  92 118 160 210 261 313 378
#     4   9  20  37  62  94 120 153 209 266 319 368
#
# _framework density 21.563075999999999
#
# number of rings (size 3 to 8) (size 9 to 14) (size 15 to 20)
#    0.000    1.846    3.077    1.154    2.154    0.615 
#    2.769    0.000    0.000    0.923    0.000    0.000 
#    0.000    0.000    0.000    0.000    0.000    0.000 
#
# Total GULP energy -290029.218958 kJ/mol
# GULP energy per Si atom -5577.484980 kJ/mol
# Density = 2.151400 g / cm^3
# Si number density = 21.563076 Si / 1000 Ang^3
#
#
#
# Elastic Constant Matrix: (Units=GPa)
#
#
# Indices 1 2 3 4 5 6 
#
# 1 121.8429 43.4637 25.0397 0.0000 0.0000 0.0000
# 2 43.4637 81.9251 14.5532 0.0000 0.0000 0.0000
# 3 25.0397 14.5532 50.9986 0.0000 0.0000 0.0000
# 4 0.0000 0.0000 0.0000 15.0749 0.0000 0.0000
# 5 0.0000 0.0000 0.0000 0.0000 30.1678 0.0000
# 6 0.0000 0.0000 0.0000 0.0000 0.0000 44.5139
#
#
#
# Elastic Compliance Matrix: (Units=1/GPa)
#
#
# Indices 1 2 3 4 5 6 
#
# 1 0.010800 -0.005044 -0.003864 0.000000 0.000000 0.000000
# 2 -0.005044 0.015213 -0.001865 0.000000 0.000000 0.000000
# 3 -0.003864 -0.001865 0.022038 0.000000 0.000000 0.000000
# 4 0.000000 0.000000 0.000000 0.066335 0.000000 0.000000
# 5 0.000000 0.000000 0.000000 0.000000 0.033148 0.000000
# 6 0.000000 0.000000 0.000000 0.000000 0.000000 0.022465
#
#
# Mechanical properties :
#
#
# Convention : Reuss Voigt Hill
#
# Bulk Modulus (GPa) = 37.72604 46.76443 42.24523
# Shear Modulus (GPa) = 24.95263 29.39866 27.17564
#
# Velocity S-wave (km/s) = 3.40544 3.69640 3.55390
# Velocity P-wave (km/s) = 5.74425 6.32078 6.03940
#
# Compressibility (1/GPa) = 0.02650689
#
# Stress axis : x y z
#
# Youngs Moduli (GPa) = 92.58867 65.73168 45.37710
#
# Poissons Ratio (x) = 0.33153 0.17532
# Poissons Ratio (y) = 0.46698 0.08463
# Poissons Ratio (z) = 0.35773 0.12259
#
# Static dielectric constant tensor:
#      x y z
#    x 1.769900 0.000000 0.000000 
#    y 0.000000 1.890200 0.000000 
#    z 0.000000 0.000000 1.792010 
# 
# From -- ./inp_files/32100.got.cif
#   From: 2010.05.17/outbox.cif.g08.bks.cpg/sg68_17_cif.got.tgz:32100.got - 2010.06.03 18:57:09.
