data_PCOD9505518
_publ_section_title
;
Structure prediction by ZEFSAII (Michael W. Deem and Ramdas Pophale) SiO2 
 PCOD9505518
Probable space group: C C C A
;
_chemical_formula_sum "Si O2"
_cell_formula_units_Z 88
_cell_length_a 19.872486
_cell_length_b 14.742864
_cell_length_c 16.180246
_cell_angle_alpha 90.000000
_cell_angle_beta 90.000000
_cell_angle_gamma 90.000000
_cell_volume 4740.445732
_symmetry_space_group_name_H-M "C C C A"
_symmetry_group_IT_number 68
_space_group.IT_coordinate_system_code '2'
_symmetry_cell_setting 'orthorhombic'
loop_
_space_group_symop_operation_xyz
x,y,z
-x,1/2-y,z
x,1/2-y,1/2-z
-x,y,1/2-z
-x,-y,-z
x,1/2+y,-z
-x,1/2+y,1/2+z
x,-y,1/2+z
1/2+x,1/2+y,z
1/2-x,-y,z
1/2+x,-y,1/2-z
1/2-x,1/2+y,1/2-z
1/2-x,1/2-y,-z
1/2+x,y,-z
1/2-x,y,1/2+z
1/2+x,1/2-y,1/2+z
loop_
_atom_site_type_symbol
_atom_site_label
_atom_site_fract_x
_atom_site_fract_y
_atom_site_fract_z
Si Si1 0.376412 0.897022 0.272726
Si Si2 0.577259 0.216466 0.065120
Si Si3 0.934322 0.419409 0.800086
Si Si4 0.250000 0.500000 0.294004
Si Si5 0.323200 0.324489 0.313316
Si Si6 0.920286 0.270841 0.128107
O O1 0.306930 0.951132 0.261460
O O2 0.398494 0.854793 0.184991
O O3 0.378822 0.814905 0.336992
O O4 0.429052 0.973115 0.299915
O O5 0.500000 0.250000 0.075515
O O6 0.574012 0.119035 0.108632
O O7 0.632992 0.275558 0.115223
O O8 0.592282 0.214540 0.968315
O O9 0.875900 0.373290 0.747045
O O10 0.000000 0.390131 0.750000
O O11 0.278952 0.411249 0.342209
O O12 0.289494 0.250000 0.250000
O O13 0.000000 0.250000 0.140516
#
# Coordination Sequence:
#
# PCOD9505518 Si02
#       6
#    16  16  16   8  16  16
#     4  10  21  39  59  81 114 159 204 231 287 348
#     4  10  19  35  58  93 121 146 185 245 308 350
#     4  10  17  32  59  87 114 146 189 239 291 348
#     4  10  22  38  60  82 106 164 208 238 274 352
#     4   9  19  33  58  82 114 149 192 235 292 344
#     4  10  21  39  62  86 122 153 188 241 304 355
#
# _framework density 18.563655000000001
#
# number of rings (size 3 to 8) (size 9 to 14) (size 15 to 20)
#    0.000    2.182    1.818    2.182    2.545    0.000 
#    6.545    4.545    0.000    0.000    0.000    0.000 
#    0.000    0.000    0.000    0.000    0.000    0.000 
#
# Total GULP energy -244961.288784 kJ/mol
# GULP energy per Si atom -5567.302018 kJ/mol
# Density = 1.852140 g / cm^3
# Si number density = 18.563655 Si / 1000 Ang^3
#
#
#
# Elastic Constant Matrix: (Units=GPa)
#
#
# Indices 1 2 3 4 5 6 
#
# 1 60.8569 35.7089 30.8488 0.0000 0.0000 0.0000
# 2 35.7089 142.1427 70.9319 0.0000 0.0000 0.0000
# 3 30.8488 70.9319 145.1940 0.0000 0.0000 0.0000
# 4 0.0000 0.0000 0.0000 14.6434 0.0000 0.0000
# 5 0.0000 0.0000 0.0000 0.0000 9.6440 0.0000
# 6 0.0000 0.0000 0.0000 0.0000 0.0000 31.0263
#
#
#
# Elastic Compliance Matrix: (Units=1/GPa)
#
#
# Indices 1 2 3 4 5 6 
#
# 1 0.019865 -0.003814 -0.002357 0.000000 0.000000 0.000000
# 2 -0.003814 0.010035 -0.004092 0.000000 0.000000 0.000000
# 3 -0.002357 -0.004092 0.009387 0.000000 0.000000 0.000000
# 4 0.000000 0.000000 0.000000 0.068290 0.000000 0.000000
# 5 0.000000 0.000000 0.000000 0.000000 0.103691 0.000000
# 6 0.000000 0.000000 0.000000 0.000000 0.000000 0.032231
#
#
# Mechanical properties :
#
#
# Convention : Reuss Voigt Hill
#
# Bulk Modulus (GPa) = 53.30374 69.24141 61.27257
# Shear Modulus (GPa) = 18.49930 25.10969 21.80449
#
# Velocity S-wave (km/s) = 3.16022 3.68180 3.43093
# Velocity P-wave (km/s) = 6.48786 7.44678 6.98380
#
# Compressibility (1/GPa) = 0.01876041
#
# Stress axis : x y z
#
# Youngs Moduli (GPa) = 50.34004 99.64640 106.52582
#
# Poissons Ratio (x) = 0.38006 0.25111
# Poissons Ratio (y) = 0.19200 0.43593
# Poissons Ratio (z) = 0.11867 0.40778
#
# Static dielectric constant tensor:
#      x y z
#    x 1.727540 0.000000 0.000000 
#    y 0.000000 1.685520 0.000000 
#    z 0.000000 0.000000 1.596940 
# 
# From -- ./inp_files/24365.got.cif
#   From: 2010.05.17/outbox.cif.g08.bks.cpg/sg68_13_cif.got.tgz:24365.got - 2010.06.03 18:57:09.
