data_PCOD9505254
_publ_section_title
;
Structure prediction by ZEFSAII (Michael W. Deem and Ramdas Pophale) SiO2 
 PCOD9505254
Probable space group: C M M A
;
_chemical_formula_sum "Si O2"
_cell_formula_units_Z 56
_cell_length_a 15.000000
_cell_length_b 30.000000
_cell_length_c 12.000000
_cell_angle_alpha 90.000000
_cell_angle_beta 90.000000
_cell_angle_gamma 90.000000
_cell_volume 5400.000000
_symmetry_space_group_name_H-M "C M M A"
_symmetry_group_IT_number 67
_symmetry_cell_setting 'orthorhombic'
loop_
_space_group_symop_operation_xyz
x,y,z
-x,1/2-y,z
x,-y,-z
-x,1/2+y,-z
-x,-y,-z
x,1/2+y,-z
-x,y,z
x,1/2-y,z
1/2+x,1/2+y,z
1/2-x,-y,z
1/2+x,1/2-y,-z
1/2-x,y,-z
1/2-x,1/2-y,-z
1/2+x,y,-z
1/2-x,1/2+y,z
1/2+x,-y,z
loop_
_atom_site_type_symbol
_atom_site_label
_atom_site_fract_x
_atom_site_fract_y
_atom_site_fract_z
Si Si1 0.100890 0.199381 0.699016
Si Si2 0.099836 0.404573 0.291639
Si Si3 0.902167 0.882034 0.948486
Si Si4 0.106751 0.038683 0.907860
Si Si5 0.283611 0.455055 0.319460
Si Si6 0.349831 0.124727 0.470156
Si Si7 0.158665 0.800055 0.068364
O O1 0.116595 0.250000 0.658999
O O2 0.108154 0.162482 0.605558
O O3 0.166894 0.189258 0.801043
O O4 0.000000 0.197853 0.745193
O O5 0.116906 0.375140 0.181263
O O6 0.188035 0.434156 0.288474
O O7 0.102297 0.382113 0.412485
O O8 0.000000 0.425284 0.281758
O O9 0.000000 0.902780 0.946013
O O10 0.854835 0.917336 0.029009
O O11 0.901864 0.835941 0.010764
O O12 0.159995 0.034428 0.792004
O O13 0.000000 0.040633 0.880129
O O14 0.118832 0.000000 0.000000
O O15 0.250000 0.500000 0.376734
O O16 0.337137 0.420972 0.399115
O O17 0.250000 0.139327 0.500000
O O18 0.123660 0.750000 0.062877
O O19 0.250000 0.802225 0.000000
#
# Coordination Sequence:
#
# PCOD9505254 Si02
#       7
#    16  16  16  16  16  16  16
#     4  10  21  40  65  90 119 159 207 259 313 372
#     4  10  23  41  59  85 124 163 204 255 307 363
#     4  10  21  36  59  86 117 160 198 237 301 368
#     4  10  22  40  62  94 127 157 201 256 315 376
#     4  11  24  40  62  91 120 159 208 255 311 375
#     4  10  23  40  62  90 120 161 209 262 307 364
#     4  10  22  36  57  89 123 153 192 244 303 368
#
# _framework density 10.370369999999999
#
# number of rings (size 3 to 8) (size 9 to 14) (size 15 to 20)
#    0.000    1.857    0.000    2.571    6.000    9.143 
#    0.000    1.429    0.000    1.286    0.000    0.000 
#    0.000    0.000    0.000    0.000    0.000    0.000 
#
# Total GULP energy -311824.195432 kJ/mol
# GULP energy per Si atom -5568.289204 kJ/mol
# Density = 1.034677 g / cm^3
# Si number density = 10.370370 Si / 1000 Ang^3
#
#
#
# Elastic Constant Matrix: (Units=GPa)
#
#
# Indices 1 2 3 4 5 6 
#
# 1 63.8136 27.6918 30.4656 0.0000 0.0000 0.0000
# 2 27.6918 82.0534 85.4628 0.0000 0.0000 0.0000
# 3 30.4656 85.4628 153.6009 0.0000 0.0000 0.0000
# 4 0.0000 0.0000 0.0000 -5.9847 0.0000 0.0000
# 5 0.0000 0.0000 0.0000 0.0000 31.3548 0.0000
# 6 0.0000 0.0000 0.0000 0.0000 0.0000 12.1674
#
#
#
# Elastic Compliance Matrix: (Units=1/GPa)
#
#
# Indices 1 2 3 4 5 6 
#
# 1 0.018373 -0.005720 -0.000462 0.000000 0.000000 0.000000
# 2 -0.005720 0.030764 -0.015983 0.000000 0.000000 0.000000
# 3 -0.000462 -0.015983 0.015495 0.000000 0.000000 0.000000
# 4 0.000000 0.000000 0.000000 -0.167092 0.000000 0.000000
# 5 0.000000 0.000000 0.000000 0.000000 0.031893 0.000000
# 6 0.000000 0.000000 0.000000 0.000000 0.000000 0.082187
#
#
# Mechanical properties :
#
#
# Convention : Reuss Voigt Hill
#
# Bulk Modulus (GPa) = 49.25182 65.18981 57.22082
# Shear Modulus (GPa) = 79.72395 17.89733 48.81064
#
# Velocity S-wave (km/s) = 6.20659 2.94071 4.85642
# Velocity P-wave (km/s) = 8.66951 6.55968 7.68732
#
# Compressibility (1/GPa) = 0.02030382
#
# Stress axis : x y z
#
# Youngs Moduli (GPa) = 54.42727 32.50537 64.53866
#
# Poissons Ratio (x) = 0.18592 0.02980
# Poissons Ratio (y) = 0.31131 1.03149
# Poissons Ratio (z) = 0.02513 0.51952
#
# Static dielectric constant tensor:
#      x y z
#    x 1.859680 0.000000 0.000000 
#    y 0.000000 1.807090 0.000000 
#    z 0.000000 0.000000 1.747470 
# 
# From -- ./inp_files/18582.got.cif
#   From: 2010.05.17/outbox.ucp.g08.bks.cvg/sg67_10_cif.got.tgz:18582.got - 2010.06.11 16:47:20.
