data_PCOD9505235
_publ_section_title
;
Structure prediction by ZEFSAII (Michael W. Deem and Ramdas Pophale) SiO2 
 PCOD9505235
Probable space group: C M M A
;
_chemical_formula_sum "Si O2"
_cell_formula_units_Z 56
_cell_length_a 30.000000
_cell_length_b 15.000000
_cell_length_c 12.000000
_cell_angle_alpha 90.000000
_cell_angle_beta 90.000000
_cell_angle_gamma 90.000000
_cell_volume 5400.000000
_symmetry_space_group_name_H-M "C M M A"
_symmetry_group_IT_number 67
_symmetry_cell_setting 'orthorhombic'
loop_
_space_group_symop_operation_xyz
x,y,z
-x,1/2-y,z
x,-y,-z
-x,1/2+y,-z
-x,-y,-z
x,1/2+y,-z
-x,y,z
x,1/2-y,z
1/2+x,1/2+y,z
1/2-x,-y,z
1/2+x,1/2-y,-z
1/2-x,y,-z
1/2-x,1/2-y,-z
1/2+x,y,-z
1/2-x,1/2+y,z
1/2+x,-y,z
loop_
_atom_site_type_symbol
_atom_site_label
_atom_site_fract_x
_atom_site_fract_y
_atom_site_fract_z
Si Si1 0.285307 0.142268 0.904417
Si Si2 0.868574 0.149829 0.468927
Si Si3 0.126081 0.087091 0.710992
Si Si4 0.048688 0.142631 0.107261
Si Si5 0.446943 0.450661 0.657572
Si Si6 0.871143 0.356551 0.963882
Si Si7 0.705588 0.949076 0.330990
O O1 0.284737 0.250000 0.894050
O O2 0.279789 0.102806 0.781374
O O3 0.250000 0.118135 0.000000
O O4 0.331274 0.109835 0.958836
O O5 0.874188 0.250000 0.426527
O O6 0.866922 0.147606 0.602439
O O7 0.912077 0.092703 0.430606
O O8 0.822149 0.110938 0.419340
O O9 0.130142 0.126275 0.833427
O O10 0.077567 0.041847 0.693274
O O11 0.166270 0.016459 0.703409
O O12 0.049910 0.250000 0.107947
O O13 0.056291 0.110262 0.232464
O O14 0.000000 0.112781 0.072302
O O15 0.084483 0.108492 0.020855
O O16 0.500000 0.457242 0.627340
O O17 0.869718 0.250000 0.976616
O O18 0.750000 0.000000 0.371458
#
# Coordination Sequence:
#
# PCOD9505235 Si02
#       7
#    16  16  16  16  16  16  16
#     4  10  21  37  59  88 119 152 194 241 289 349
#     4  11  24  43  64  86 116 156 204 250 294 355
#     4  11  24  38  57  86 120 156 197 245 296 354
#     4   9  18  33  55  83 113 149 194 238 284 348
#     4  10  21  38  62  90 119 153 198 254 308 354
#     4  10  20  36  56  80 117 159 195 237 292 350
#     4  11  23  40  63  88 117 151 192 244 301 352
#
# _framework density 10.370369999999999
#
# number of rings (size 3 to 8) (size 9 to 14) (size 15 to 20)
#    0.000    1.714    0.000    5.571    0.000    8.571 
#    0.000    4.286    0.000    2.571    0.000    0.000 
#    0.000    0.000    0.000    0.000    0.000    0.000 
#
# Total GULP energy -312528.608494 kJ/mol
# GULP energy per Si atom -5580.868009 kJ/mol
# Density = 1.034677 g / cm^3
# Si number density = 10.370370 Si / 1000 Ang^3
#
#
#
# Elastic Constant Matrix: (Units=GPa)
#
#
# Indices 1 2 3 4 5 6 
#
# 1 107.1717 28.2764 41.8478 0.0000 0.0000 0.0000
# 2 28.2764 49.7235 11.5223 0.0000 0.0000 0.0000
# 3 41.8478 11.5223 105.5018 0.0000 0.0000 0.0000
# 4 0.0000 0.0000 0.0000 30.2271 0.0000 0.0000
# 5 0.0000 0.0000 0.0000 0.0000 18.6880 0.0000
# 6 0.0000 0.0000 0.0000 0.0000 0.0000 -81.3070
#
#
#
# Elastic Compliance Matrix: (Units=1/GPa)
#
#
# Indices 1 2 3 4 5 6 
#
# 1 0.012662 -0.006193 -0.004346 0.000000 0.000000 0.000000
# 2 -0.006193 0.023663 -0.000128 0.000000 0.000000 0.000000
# 3 -0.004346 -0.000128 0.011216 0.000000 0.000000 0.000000
# 4 0.000000 0.000000 0.000000 0.033083 0.000000 0.000000
# 5 0.000000 0.000000 0.000000 0.000000 0.053510 0.000000
# 6 0.000000 0.000000 0.000000 0.000000 0.000000 -0.012299
#
#
# Mechanical properties :
#
#
# Convention : Reuss Voigt Hill
#
# Bulk Modulus (GPa) = 38.15788 47.29887 42.72838
# Shear Modulus (GPa) = 32.91532 5.57164 19.24348
#
# Velocity S-wave (km/s) = 3.98802 1.64078 3.04930
# Velocity P-wave (km/s) = 6.29629 5.14236 5.74835
#
# Compressibility (1/GPa) = 0.02620690
#
# Stress axis : x y z
#
# Youngs Moduli (GPa) = 78.97716 42.26039 89.15584
#
# Poissons Ratio (x) = 0.26173 0.38747
# Poissons Ratio (y) = 0.48914 0.01138
# Poissons Ratio (z) = 0.34323 0.00540
#
# Static dielectric constant tensor:
#      x y z
#    x 1.692380 0.000000 0.000000 
#    y 0.000000 1.773460 0.000000 
#    z 0.000000 0.000000 1.732690 
# 
# From -- ./inp_files/18574.got.cif
#   From: 2010.05.17/outbox.ucp.g08.bks.cvg/sg67_10_cif.got.tgz:18574.got - 2010.06.11 16:47:20.
