data_PCOD9505075
_publ_section_title
;
Structure prediction by ZEFSAII (Michael W. Deem and Ramdas Pophale) SiO2 
 PCOD9505075
Probable space group: C M M A
;
_chemical_formula_sum "Si O2"
_cell_formula_units_Z 68
_cell_length_a 9.587696
_cell_length_b 14.021034
_cell_length_c 23.760500
_cell_angle_alpha 90.000000
_cell_angle_beta 90.000000
_cell_angle_gamma 90.000000
_cell_volume 3194.110034
_symmetry_space_group_name_H-M "C M M A"
_symmetry_group_IT_number 67
_symmetry_cell_setting 'orthorhombic'
loop_
_space_group_symop_operation_xyz
x,y,z
-x,1/2-y,z
x,-y,-z
-x,1/2+y,-z
-x,-y,-z
x,1/2+y,-z
-x,y,z
x,1/2-y,z
1/2+x,1/2+y,z
1/2-x,-y,z
1/2+x,1/2-y,-z
1/2-x,y,-z
1/2-x,1/2-y,-z
1/2+x,y,-z
1/2-x,1/2+y,z
1/2+x,-y,z
loop_
_atom_site_type_symbol
_atom_site_label
_atom_site_fract_x
_atom_site_fract_y
_atom_site_fract_z
Si Si1 0.664270 0.643306 0.905250
Si Si2 0.161876 0.633895 0.338246
Si Si3 0.840928 0.366254 0.445848
Si Si4 0.250000 0.500000 0.000000
Si Si5 0.839134 0.365757 0.784799
O O1 0.500000 0.652681 0.894078
O O2 0.718965 0.750000 0.918714
O O3 0.676226 0.571523 0.956698
O O4 0.726609 0.608729 0.845226
O O5 0.156668 0.750000 0.339212
O O6 0.261087 0.605249 0.389095
O O7 0.219690 0.607597 0.276216
O O8 0.000000 0.602575 0.345023
O O9 0.846496 0.250000 0.445864
O O10 0.750000 0.393175 0.500000
O O11 0.000000 0.401017 0.448439
O O12 0.841560 0.250000 0.786455
O O13 0.000000 0.399216 0.782712
#
# Coordination Sequence:
#
# PCOD9505075 Si02
#       5
#    16  16  16   4  16
#     4   9  18  32  48  68  96 128 164 206 250 299
#     4   8  12  19  33  50  66  91 136 190 236 278
#     4   9  15  20  26  40  67 103 141 181 227 279
#     4  12  20  28  48  76 100 128 162 200 248 300
#     4   7  11  22  40  58  75 101 141 189 237 284
#
# _framework density 21.289186000000001
#
# number of rings (size 3 to 8) (size 9 to 14) (size 15 to 20)
#    0.000    3.529    0.000    4.235    0.000    2.824 
#    0.000    0.000    0.000    2.824    0.000    9.882 
#    0.000    0.000    0.000    1.059    0.000   20.941 
#
# Total GULP energy -189299.484933 kJ/mol
# GULP energy per Si atom -5567.631910 kJ/mol
# Density = 2.124073 g / cm^3
# Si number density = 21.289186 Si / 1000 Ang^3
#
#
#
# Elastic Constant Matrix: (Units=GPa)
#
#
# Indices 1 2 3 4 5 6 
#
# 1 71.6472 17.4522 70.6239 0.0000 0.0000 0.0000
# 2 17.4522 88.4509 35.2587 0.0000 0.0000 0.0000
# 3 70.6239 35.2587 244.1561 0.0000 0.0000 0.0000
# 4 0.0000 0.0000 0.0000 -57.3821 0.0000 0.0000
# 5 0.0000 0.0000 0.0000 0.0000 3.7612 0.0000
# 6 0.0000 0.0000 0.0000 0.0000 0.0000 47.7290
#
#
#
# Elastic Compliance Matrix: (Units=1/GPa)
#
#
# Indices 1 2 3 4 5 6 
#
# 1 0.019768 -0.001720 -0.005470 0.000000 0.000000 0.000000
# 2 -0.001720 0.012146 -0.001256 0.000000 0.000000 0.000000
# 3 -0.005470 -0.001256 0.005859 0.000000 0.000000 0.000000
# 4 0.000000 0.000000 0.000000 -0.017427 0.000000 0.000000
# 5 0.000000 0.000000 0.000000 0.000000 0.265874 0.000000
# 6 0.000000 0.000000 0.000000 0.000000 0.000000 0.020952
#
#
# Mechanical properties :
#
#
# Convention : Reuss Voigt Hill
#
# Bulk Modulus (GPa) = 47.89089 72.32486 60.10788
# Shear Modulus (GPa) = 15.10467 17.54958 16.32712
#
# Velocity S-wave (km/s) = 2.66653 2.87425 2.77234
# Velocity P-wave (km/s) = 5.65904 6.71278 6.20831
#
# Compressibility (1/GPa) = 0.02088080
#
# Stress axis : x y z
#
# Youngs Moduli (GPa) = 50.58759 82.33200 170.66901
#
# Poissons Ratio (x) = 0.14162 0.93348
# Poissons Ratio (y) = 0.08701 0.21444
# Poissons Ratio (z) = 0.27669 0.10345
#
# Static dielectric constant tensor:
#      x y z
#    x 1.721970 0.000000 0.000000 
#    y 0.000000 1.902520 0.000000 
#    z 0.000000 0.000000 1.818800 
# 
# From -- ./inp_files/37707.got.cif
#   From: 2010.05.17/outbox.cif.g08.bks.cpg/sg67_19_cif.got.tgz:37707.got - 2010.06.03 18:28:57.
