data_PCOD9505744
_publ_section_title
;
Structure prediction by ZEFSAII (Michael W. Deem and Ramdas Pophale) SiO2 
 PCOD9505744
Probable space group: C C C A
;
_chemical_formula_sum "Si O2"
_cell_formula_units_Z 104
_cell_length_a 17.247949
_cell_length_b 17.547844
_cell_length_c 18.480162
_cell_angle_alpha 90.000000
_cell_angle_beta 90.000000
_cell_angle_gamma 90.000000
_cell_volume 5593.285635
_symmetry_space_group_name_H-M "C C C A"
_symmetry_group_IT_number 68
_space_group.IT_coordinate_system_code '2'
_symmetry_cell_setting 'orthorhombic'
loop_
_space_group_symop_operation_xyz
x,y,z
-x,1/2-y,z
x,1/2-y,1/2-z
-x,y,1/2-z
-x,-y,-z
x,1/2+y,-z
-x,1/2+y,1/2+z
x,-y,1/2+z
1/2+x,1/2+y,z
1/2-x,-y,z
1/2+x,-y,1/2-z
1/2-x,1/2+y,1/2-z
1/2-x,1/2-y,-z
1/2+x,y,-z
1/2-x,y,1/2+z
1/2+x,1/2-y,1/2+z
loop_
_atom_site_type_symbol
_atom_site_label
_atom_site_fract_x
_atom_site_fract_y
_atom_site_fract_z
Si Si1 0.616943 0.837591 0.754827
Si Si2 0.364917 0.650770 0.587301
Si Si3 0.189028 0.431466 0.452478
Si Si4 0.311573 0.185988 0.094653
Si Si5 0.027393 0.876806 0.031490
Si Si6 0.979128 0.957853 0.896978
Si Si7 0.000000 0.528940 0.250000
O O1 0.584238 0.750000 0.750000
O O2 0.638540 0.861417 0.673242
O O3 0.678474 0.827730 0.819061
O O4 0.563371 0.908948 0.777023
O O5 0.339204 0.582378 0.535003
O O6 0.312763 0.725167 0.576623
O O7 0.453624 0.669347 0.562857
O O8 0.250000 0.500000 0.446782
O O9 0.235942 0.356877 0.430612
O O10 0.113181 0.441789 0.402835
O O11 0.389505 0.152630 0.056955
O O12 0.013302 0.960077 0.065271
O O13 0.019651 0.892756 0.945703
O O14 0.013397 0.973569 0.817960
#
# Coordination Sequence:
#
# PCOD9505744 Si02
#       7
#    16  16  16  16  16  16   8
#     4  10  19  30  49  78 105 128 165 226 277 321
#     4  10  21  34  55  81 106 136 182 228 270 325
#     4  11  21  37  52  74 110 151 178 219 271 330
#     4  11  20  35  56  78 108 143 179 219 282 326
#     4  10  18  34  53  78 105 135 175 223 266 311
#     4  10  21  32  53  78 109 140 179 222 264 320
#     4  12  17  32  52  78 103 138 170 216 276 328
#
# _framework density 18.593723000000001
#
# number of rings (size 3 to 8) (size 9 to 14) (size 15 to 20)
#    0.000    1.538    4.615    1.154    0.000    2.462 
#    0.000    3.846    0.000    0.000    0.000    7.538 
#    0.000    0.000    0.000    0.000    0.000    0.000 
#
# Total GULP energy -289560.065747 kJ/mol
# GULP energy per Si atom -5568.462803 kJ/mol
# Density = 1.855140 g / cm^3
# Si number density = 18.593723 Si / 1000 Ang^3
#
#
#
# Elastic Constant Matrix: (Units=GPa)
#
#
# Indices 1 2 3 4 5 6 
#
# 1 41.8544 8.6490 8.5443 0.0000 0.0000 0.0000
# 2 8.6490 35.0182 6.5514 0.0000 0.0000 0.0000
# 3 8.5443 6.5514 92.9265 0.0000 0.0000 0.0000
# 4 0.0000 0.0000 0.0000 23.9043 0.0000 0.0000
# 5 0.0000 0.0000 0.0000 0.0000 16.9357 0.0000
# 6 0.0000 0.0000 0.0000 0.0000 0.0000 29.5803
#
#
#
# Elastic Compliance Matrix: (Units=1/GPa)
#
#
# Indices 1 2 3 4 5 6 
#
# 1 0.025513 -0.005941 -0.001927 0.000000 0.000000 0.000000
# 2 -0.005941 0.030322 -0.001591 0.000000 0.000000 0.000000
# 3 -0.001927 -0.001591 0.011051 0.000000 0.000000 0.000000
# 4 0.000000 0.000000 0.000000 0.041833 0.000000 0.000000
# 5 0.000000 0.000000 0.000000 0.000000 0.059047 0.000000
# 6 0.000000 0.000000 0.000000 0.000000 0.000000 0.033806
#
#
# Mechanical properties :
#
#
# Convention : Reuss Voigt Hill
#
# Bulk Modulus (GPa) = 20.84776 24.14317 22.49546
# Shear Modulus (GPa) = 21.14342 23.82100 22.48221
#
# Velocity S-wave (km/s) = 3.37579 3.58317 3.48103
# Velocity P-wave (km/s) = 5.14113 5.48923 5.31803
#
# Compressibility (1/GPa) = 0.04796679
#
# Stress axis : x y z
#
# Youngs Moduli (GPa) = 39.19506 32.97973 90.49296
#
# Poissons Ratio (x) = 0.19593 0.17438
# Poissons Ratio (y) = 0.23286 0.14402
# Poissons Ratio (z) = 0.07553 0.05249
#
# Static dielectric constant tensor:
#      x y z
#    x 1.675940 0.000000 0.000000 
#    y 0.000000 1.665140 0.000000 
#    z 0.000000 0.000000 1.725900 
# 
# From -- ./inp_files/32086.got.cif
#   From: 2010.05.17/outbox.cif.g08.bks.cpg/sg68_17_cif.got.tgz:32086.got - 2010.06.03 18:57:09.
