data_PCOD9505657
_publ_section_title
;
Structure prediction by ZEFSAII (Michael W. Deem and Ramdas Pophale) SiO2 
 PCOD9505657
Probable space group: C C C A
;
_chemical_formula_sum "Si O2"
_cell_formula_units_Z 88
_cell_length_a 5.654475
_cell_length_b 32.236203
_cell_length_c 20.410693
_cell_angle_alpha 90.000000
_cell_angle_beta 90.000000
_cell_angle_gamma 90.000000
_cell_volume 3720.436708
_symmetry_space_group_name_H-M "C C C A"
_symmetry_group_IT_number 68
_space_group.IT_coordinate_system_code '2'
_symmetry_cell_setting 'orthorhombic'
loop_
_space_group_symop_operation_xyz
x,y,z
-x,1/2-y,z
x,1/2-y,1/2-z
-x,y,1/2-z
-x,-y,-z
x,1/2+y,-z
-x,1/2+y,1/2+z
x,-y,1/2+z
1/2+x,1/2+y,z
1/2-x,-y,z
1/2+x,-y,1/2-z
1/2-x,1/2+y,1/2-z
1/2-x,1/2-y,-z
1/2+x,y,-z
1/2-x,y,1/2+z
1/2+x,1/2-y,1/2+z
loop_
_atom_site_type_symbol
_atom_site_label
_atom_site_fract_x
_atom_site_fract_y
_atom_site_fract_z
Si Si1 0.382467 0.632334 0.522477
Si Si2 0.274536 0.331834 0.159994
Si Si3 0.244870 0.079214 0.314926
Si Si4 0.000000 0.750000 0.338139
Si Si5 0.383098 0.291480 0.929410
Si Si6 0.746577 0.951881 0.831560
O O1 0.623378 0.612020 0.493446
O O2 0.411047 0.646785 0.597937
O O3 0.334498 0.675855 0.485141
O O4 0.245145 0.372070 0.204807
O O5 0.367077 0.289494 0.193126
O O6 0.042104 0.315935 0.123218
O O7 0.248346 0.053372 0.247626
O O8 0.490326 0.066886 0.350799
O O9 0.996267 0.069629 0.351199
O O10 0.823769 0.773482 0.386077
O O11 0.500000 0.250000 0.958229
O O12 0.750000 0.000000 0.849416
#
# Coordination Sequence:
#
# PCOD9505657 Si02
#       6
#    16  16  16   8  16  16
#     4  10  19  30  44  65 102 138 187 220 261 293
#     4  10  21  30  47  76 108 146 183 223 262 295
#     4  10  20  33  58  86 114 131 162 211 273 326
#     4  10  18  32  46  67 106 150 196 225 252 288
#     4   9  19  30  45  67 100 145 193 229 262 289
#     4  10  20  39  64  88 108 126 153 212 287 350
#
# _framework density 23.653136
#
# number of rings (size 3 to 8) (size 9 to 14) (size 15 to 20)
#    0.000    2.182    1.818    2.727    3.818    2.182 
#    0.000    0.000    0.000    2.182    0.000    0.000 
#    0.000   98.909    0.000    0.000    0.000    0.000 
#
# Total GULP energy -245184.680479 kJ/mol
# GULP energy per Si atom -5572.379102 kJ/mol
# Density = 2.359930 g / cm^3
# Si number density = 23.653136 Si / 1000 Ang^3
#
#
#
# Elastic Constant Matrix: (Units=GPa)
#
#
# Indices 1 2 3 4 5 6 
#
# 1 172.4721 56.6196 3.0026 0.0000 0.0000 0.0000
# 2 56.6196 137.3025 -13.4932 0.0000 0.0000 0.0000
# 3 3.0026 -13.4932 28.8772 0.0000 0.0000 0.0000
# 4 0.0000 0.0000 0.0000 22.4661 0.0000 0.0000
# 5 0.0000 0.0000 0.0000 0.0000 7.6117 0.0000
# 6 0.0000 0.0000 0.0000 0.0000 0.0000 530.3491
#
#
#
# Elastic Compliance Matrix: (Units=1/GPa)
#
#
# Indices 1 2 3 4 5 6 
#
# 1 0.006828 -0.003024 -0.002123 0.000000 0.000000 0.000000
# 2 -0.003024 0.008973 0.004507 0.000000 0.000000 0.000000
# 3 -0.002123 0.004507 0.036956 0.000000 0.000000 0.000000
# 4 0.000000 0.000000 0.000000 0.044511 0.000000 0.000000
# 5 0.000000 0.000000 0.000000 0.000000 0.131376 0.000000
# 6 0.000000 0.000000 0.000000 0.000000 0.000000 0.001886
#
#
# Mechanical properties :
#
#
# Convention : Reuss Voigt Hill
#
# Bulk Modulus (GPa) = 19.42603 47.87888 33.65245
# Shear Modulus (GPa) = 20.08275 131.58690 75.83483
#
# Velocity S-wave (km/s) = 2.91701 7.46677 5.66841
# Velocity P-wave (km/s) = 4.42448 9.72743 7.55642
#
# Compressibility (1/GPa) = 0.05147733
#
# Stress axis : x y z
#
# Youngs Moduli (GPa) = 146.45998 111.44238 27.05904
#
# Poissons Ratio (x) = 0.33703 0.05745
# Poissons Ratio (y) = 0.44293 -0.12196
# Poissons Ratio (z) = 0.31094 -0.50231
#
# Static dielectric constant tensor:
#      x y z
#    x 2.094950 0.000000 0.000000 
#    y 0.000000 1.921220 0.000000 
#    z 0.000000 0.000000 2.004780 
# 
# From -- ./inp_files/48548.got.cif
#   From: 2010.05.17/outbox.cif.g08.bks.cpg/sg68_25_cif.got.tgz:48548.got - 2010.06.03 18:57:09.
