data_PCOD9505849
_publ_section_title
;
Structure prediction by ZEFSAII (Michael W. Deem and Ramdas Pophale) SiO2 
 PCOD9505849
Probable space group: C C C A
;
_chemical_formula_sum "Si O2"
_cell_formula_units_Z 112
_cell_length_a 19.555459
_cell_length_b 17.268323
_cell_length_c 18.933908
_cell_angle_alpha 90.000000
_cell_angle_beta 90.000000
_cell_angle_gamma 90.000000
_cell_volume 6393.791060
_symmetry_space_group_name_H-M "C C C A"
_symmetry_group_IT_number 68
_space_group.IT_coordinate_system_code '2'
_symmetry_cell_setting 'orthorhombic'
loop_
_space_group_symop_operation_xyz
x,y,z
-x,1/2-y,z
x,1/2-y,1/2-z
-x,y,1/2-z
-x,-y,-z
x,1/2+y,-z
-x,1/2+y,1/2+z
x,-y,1/2+z
1/2+x,1/2+y,z
1/2-x,-y,z
1/2+x,-y,1/2-z
1/2-x,1/2+y,1/2-z
1/2-x,1/2-y,-z
1/2+x,y,-z
1/2-x,y,1/2+z
1/2+x,1/2-y,1/2+z
loop_
_atom_site_type_symbol
_atom_site_label
_atom_site_fract_x
_atom_site_fract_y
_atom_site_fract_z
Si Si1 0.893087 0.936230 0.504805
Si Si2 0.508228 0.831731 0.911339
Si Si3 0.366509 0.808009 0.684062
Si Si4 0.722272 0.319894 0.045079
Si Si5 0.817405 0.447272 0.094582
Si Si6 0.397040 0.483574 0.291244
Si Si7 0.450895 0.523989 0.639550
O O1 0.950764 0.890395 0.461515
O O2 0.828234 0.876975 0.500167
O O3 0.867740 0.010810 0.460600
O O4 0.925597 0.968060 0.577112
O O5 0.500000 0.750000 0.950392
O O6 0.556061 0.805839 0.845674
O O7 0.446281 0.885141 0.883754
O O8 0.356511 0.750000 0.750000
O O9 0.318948 0.794046 0.615538
O O10 0.360314 0.899914 0.700444
O O11 0.789143 0.366441 0.069583
O O12 0.750000 0.250000 0.000000
O O13 0.750000 0.500000 0.098606
O O14 0.853240 0.451462 0.170029
O O15 0.470452 0.482343 0.332065
O O16 0.407983 0.494343 0.208986
#
# Coordination Sequence:
#
# PCOD9505849 Si02
#       7
#    16  16  16  16  16  16  16
#     4  10  20  37  56  84 113 152 199 234 284 353
#     4  10  19  32  53  86 121 149 177 236 295 338
#     4  10  19  35  54  83 116 147 188 231 295 351
#     4  10  22  40  59  81 114 151 200 250 294 337
#     4  10  18  38  59  75 114 156 191 231 292 348
#     4  10  19  35  57  84 117 154 178 240 292 343
#     4  10  20  34  56  89 117 142 201 229 281 358
#
# _framework density 17.516994
#
# number of rings (size 3 to 8) (size 9 to 14) (size 15 to 20)
#    0.000    2.000    5.714    1.286    0.000    4.857 
#    2.571    2.143    0.000    0.000    0.000    0.000 
#    0.000    0.000    0.000    0.000    0.000    0.000 
#
# Total GULP energy -311755.139693 kJ/mol
# GULP energy per Si atom -5567.056066 kJ/mol
# Density = 1.747712 g / cm^3
# Si number density = 17.516994 Si / 1000 Ang^3
#
#
#
# Elastic Constant Matrix: (Units=GPa)
#
#
# Indices 1 2 3 4 5 6 
#
# 1 43.5341 42.4322 54.9769 0.0000 0.0000 0.0000
# 2 42.4322 109.9735 76.6115 0.0000 0.0000 0.0000
# 3 54.9769 76.6115 147.5623 0.0000 0.0000 0.0000
# 4 0.0000 0.0000 0.0000 25.5402 0.0000 0.0000
# 5 0.0000 0.0000 0.0000 0.0000 24.3078 0.0000
# 6 0.0000 0.0000 0.0000 0.0000 0.0000 25.6219
#
#
#
# Elastic Compliance Matrix: (Units=1/GPa)
#
#
# Indices 1 2 3 4 5 6 
#
# 1 0.049253 -0.009745 -0.013291 0.000000 0.000000 0.000000
# 2 -0.009745 0.016173 -0.004766 0.000000 0.000000 0.000000
# 3 -0.013291 -0.004766 0.014203 0.000000 0.000000 0.000000
# 4 0.000000 0.000000 0.000000 0.039154 0.000000 0.000000
# 5 0.000000 0.000000 0.000000 0.000000 0.041139 0.000000
# 6 0.000000 0.000000 0.000000 0.000000 0.000000 0.039029
#
#
# Mechanical properties :
#
#
# Convention : Reuss Voigt Hill
#
# Bulk Modulus (GPa) = 41.62231 72.12345 56.87288
# Shear Modulus (GPa) = 19.04296 23.56391 21.30344
#
# Velocity S-wave (km/s) = 3.30072 3.67168 3.49113
# Velocity P-wave (km/s) = 6.19185 7.69661 6.98487
#
# Compressibility (1/GPa) = 0.02402557
#
# Stress axis : x y z
#
# Youngs Moduli (GPa) = 20.30333 61.82955 70.40766
#
# Poissons Ratio (x) = 0.60253 0.93576
# Poissons Ratio (y) = 0.19786 0.33558
# Poissons Ratio (z) = 0.26984 0.29470
#
# Static dielectric constant tensor:
#      x y z
#    x 1.639960 0.000000 0.000000 
#    y 0.000000 1.691490 0.000000 
#    z 0.000000 0.000000 1.597410 
# 
# From -- ./inp_files/33127.got.cif
#   From: 2010.05.17/outbox.cif.g08.bks.cpg/sg68_17_cif.got.tgz:33127.got - 2010.06.03 18:57:09.
