data_PCOD9505540
_publ_section_title
;
Structure prediction by ZEFSAII (Michael W. Deem and Ramdas Pophale) SiO2 
 PCOD9505540
Probable space group: C C C A
;
_chemical_formula_sum "Si O2"
_cell_formula_units_Z 88
_cell_length_a 18.589824
_cell_length_b 19.800944
_cell_length_c 10.744485
_cell_angle_alpha 90.000000
_cell_angle_beta 90.000000
_cell_angle_gamma 90.000000
_cell_volume 3955.002638
_symmetry_space_group_name_H-M "C C C A"
_symmetry_group_IT_number 68
_space_group.IT_coordinate_system_code '2'
_symmetry_cell_setting 'orthorhombic'
loop_
_space_group_symop_operation_xyz
x,y,z
-x,1/2-y,z
x,1/2-y,1/2-z
-x,y,1/2-z
-x,-y,-z
x,1/2+y,-z
-x,1/2+y,1/2+z
x,-y,1/2+z
1/2+x,1/2+y,z
1/2-x,-y,z
1/2+x,-y,1/2-z
1/2-x,1/2+y,1/2-z
1/2-x,1/2-y,-z
1/2+x,y,-z
1/2-x,y,1/2+z
1/2+x,1/2-y,1/2+z
loop_
_atom_site_type_symbol
_atom_site_label
_atom_site_fract_x
_atom_site_fract_y
_atom_site_fract_z
Si Si1 0.557968 0.538793 0.349774
Si Si2 0.213506 0.598764 0.674859
Si Si3 0.190215 0.117141 0.049844
Si Si4 0.359975 0.237993 0.889294
Si Si5 0.500000 0.250000 0.447012
Si Si6 0.464094 0.898507 0.944220
O O1 0.500000 0.565075 0.250000
O O2 0.640128 0.557391 0.331922
O O3 0.531694 0.572567 0.478711
O O4 0.553276 0.457913 0.349464
O O5 0.230386 0.596382 0.822263
O O6 0.273602 0.584363 0.571844
O O7 0.189604 0.673559 0.631278
O O8 0.185676 0.198723 0.060365
O O9 0.104938 0.101497 0.037779
O O10 0.388960 0.250000 0.750000
O O11 0.429562 0.229416 0.974448
O O12 0.524025 0.322957 0.391436
#
# Coordination Sequence:
#
# PCOD9505540 Si02
#       6
#    16  16  16  16   8  16
#     4  11  22  42  67  92 132 172 221 278 335 395
#     4  11  21  40  64  96 135 177 220 273 336 398
#     4  10  22  39  62  96 134 173 223 272 336 403
#     4   9  18  31  60  94 131 169 216 278 333 392
#     4  10  17  34  63  96 126 160 229 280 329 388
#     4  10  22  40  64  97 128 169 219 281 334 391
#
# _framework density 22.250302000000001
#
# number of rings (size 3 to 8) (size 9 to 14) (size 15 to 20)
#    0.000    1.818    3.636    0.818    0.000    0.727 
#    6.545    2.273    0.000    4.364    0.000    0.000 
#    0.000    0.000    0.000    0.000    0.000    0.000 
#
# Total GULP energy -245159.661077 kJ/mol
# GULP energy per Si atom -5571.810479 kJ/mol
# Density = 2.219966 g / cm^3
# Si number density = 22.250302 Si / 1000 Ang^3
#
#
#
# Elastic Constant Matrix: (Units=GPa)
#
#
# Indices 1 2 3 4 5 6 
#
# 1 65.3223 23.1881 47.8990 0.0000 0.0000 0.0000
# 2 23.1881 87.6985 18.3806 0.0000 0.0000 0.0000
# 3 47.8990 18.3806 87.3935 0.0000 0.0000 0.0000
# 4 0.0000 0.0000 0.0000 -25.8046 0.0000 0.0000
# 5 0.0000 0.0000 0.0000 0.0000 -15.5056 0.0000
# 6 0.0000 0.0000 0.0000 0.0000 0.0000 14.7154
#
#
#
# Elastic Compliance Matrix: (Units=1/GPa)
#
#
# Indices 1 2 3 4 5 6 
#
# 1 0.027014 -0.004226 -0.013917 0.000000 0.000000 0.000000
# 2 -0.004226 0.012590 -0.000332 0.000000 0.000000 0.000000
# 3 -0.013917 -0.000332 0.019140 0.000000 0.000000 0.000000
# 4 0.000000 0.000000 0.000000 -0.038753 0.000000 0.000000
# 5 0.000000 0.000000 0.000000 0.000000 -0.064493 0.000000
# 6 0.000000 0.000000 0.000000 0.000000 0.000000 0.067956
#
#
# Mechanical properties :
#
#
# Convention : Reuss Voigt Hill
#
# Bulk Modulus (GPa) = 45.88389 46.59441 46.23915
# Shear Modulus (GPa) = 73.89051 4.74414 39.31732
#
# Velocity S-wave (km/s) = 5.76896 1.46178 4.20819
# Velocity P-wave (km/s) = 8.06480 4.88217 6.66620
#
# Compressibility (1/GPa) = 0.02179414
#
# Stress axis : x y z
#
# Youngs Moduli (GPa) = 37.01820 79.43092 52.24662
#
# Poissons Ratio (x) = 0.33566 0.72712
# Poissons Ratio (y) = 0.15643 0.01733
# Poissons Ratio (z) = 0.51518 0.02635
#
# Static dielectric constant tensor:
#      x y z
#    x 1.884690 0.000000 0.000000 
#    y 0.000000 1.890270 0.000000 
#    z 0.000000 0.000000 1.879670 
# 
# From -- ./inp_files/14463.got.cif
#   From: 2010.05.17/outbox.cif.g08.bks.cpg/sg68_8_cif.got.tgz:14463.got - 2010.06.03 18:57:09.
