data_PCOD9505577
_publ_section_title
;
Structure prediction by ZEFSAII (Michael W. Deem and Ramdas Pophale) SiO2 
 PCOD9505577
Probable space group: C C C A
;
_chemical_formula_sum "Si O2"
_cell_formula_units_Z 96
_cell_length_a 23.563109
_cell_length_b 12.144930
_cell_length_c 20.050902
_cell_angle_alpha 90.000000
_cell_angle_beta 90.000000
_cell_angle_gamma 90.000000
_cell_volume 5738.012931
_symmetry_space_group_name_H-M "C C C A"
_symmetry_group_IT_number 68
_space_group.IT_coordinate_system_code '2'
_symmetry_cell_setting 'orthorhombic'
loop_
_space_group_symop_operation_xyz
x,y,z
-x,1/2-y,z
x,1/2-y,1/2-z
-x,y,1/2-z
-x,-y,-z
x,1/2+y,-z
-x,1/2+y,1/2+z
x,-y,1/2+z
1/2+x,1/2+y,z
1/2-x,-y,z
1/2+x,-y,1/2-z
1/2-x,1/2+y,1/2-z
1/2-x,1/2-y,-z
1/2+x,y,-z
1/2-x,y,1/2+z
1/2+x,1/2-y,1/2+z
loop_
_atom_site_type_symbol
_atom_site_label
_atom_site_fract_x
_atom_site_fract_y
_atom_site_fract_z
Si Si1 0.340693 0.441027 0.330173
Si Si2 0.302924 0.071899 0.540205
Si Si3 0.149407 0.401218 0.597199
Si Si4 0.250086 0.739505 0.360660
Si Si5 0.190413 0.565450 0.699936
Si Si6 0.066406 0.238306 0.670414
O O1 0.326664 0.503792 0.397700
O O2 0.288586 0.352060 0.322406
O O3 0.339847 0.525333 0.268090
O O4 0.398867 0.374545 0.341110
O O5 0.348341 0.086586 0.482040
O O6 0.279168 0.181547 0.575773
O O7 0.250000 0.000000 0.512224
O O8 0.204900 0.327768 0.613143
O O9 0.156495 0.514619 0.637287
O O10 0.098447 0.332677 0.629177
O O11 0.294263 0.808241 0.316030
O O12 0.250000 0.500000 0.702390
O O13 0.073479 0.250000 0.750000
O O14 0.000000 0.250000 0.655457
#
# Coordination Sequence:
#
# PCOD9505577 Si02
#       6
#    16  16  16  16  16  16
#     4  10  20  33  49  76 107 133 174 214 256 300
#     4  10  19  32  48  76 113 149 164 196 251 318
#     4  10  19  31  51  76 104 134 176 206 250 299
#     4   9  19  30  47  73 112 145 168 193 248 311
#     4  10  18  28  46  72 105 136 168 204 239 300
#     4  10  20  37  58  75  94 126 178 233 270 292
#
# _framework density 16.730530000000002
#
# number of rings (size 3 to 8) (size 9 to 14) (size 15 to 20)
#    0.000    2.167    1.667    3.500    0.000    6.000 
#    0.000    0.833    0.000    0.000    0.000    0.000 
#    0.000    0.000    0.000    0.000    0.000    0.000 
#
# Total GULP energy -267519.875007 kJ/mol
# GULP energy per Si atom -5573.330729 kJ/mol
# Density = 1.669245 g / cm^3
# Si number density = 16.730530 Si / 1000 Ang^3
#
#
#
# Elastic Constant Matrix: (Units=GPa)
#
#
# Indices 1 2 3 4 5 6 
#
# 1 77.8355 34.3490 43.5829 0.0000 0.0000 0.0000
# 2 34.3490 80.5979 54.1562 0.0000 0.0000 0.0000
# 3 43.5829 54.1562 96.8957 0.0000 0.0000 0.0000
# 4 0.0000 0.0000 0.0000 16.5434 0.0000 0.0000
# 5 0.0000 0.0000 0.0000 0.0000 11.6224 0.0000
# 6 0.0000 0.0000 0.0000 0.0000 0.0000 9.1717
#
#
#
# Elastic Compliance Matrix: (Units=1/GPa)
#
#
# Indices 1 2 3 4 5 6 
#
# 1 0.017778 -0.003529 -0.006024 0.000000 0.000000 0.000000
# 2 -0.003529 0.020570 -0.009909 0.000000 0.000000 0.000000
# 3 -0.006024 -0.009909 0.018568 0.000000 0.000000 0.000000
# 4 0.000000 0.000000 0.000000 0.060447 0.000000 0.000000
# 5 0.000000 0.000000 0.000000 0.000000 0.086041 0.000000
# 6 0.000000 0.000000 0.000000 0.000000 0.000000 0.109031
#
#
# Mechanical properties :
#
#
# Convention : Reuss Voigt Hill
#
# Bulk Modulus (GPa) = 55.58193 57.72281 56.65237
# Shear Modulus (GPa) = 13.99165 15.68358 14.83762
#
# Velocity S-wave (km/s) = 2.89501 3.06506 2.98125
# Velocity P-wave (km/s) = 6.66849 6.86313 6.76651
#
# Compressibility (1/GPa) = 0.01799146
#
# Stress axis : x y z
#
# Youngs Moduli (GPa) = 56.24936 48.61557 53.85494
#
# Poissons Ratio (x) = 0.17155 0.32443
# Poissons Ratio (y) = 0.19849 0.53367
# Poissons Ratio (z) = 0.33885 0.48175
#
# Static dielectric constant tensor:
#      x y z
#    x 1.543910 0.000000 0.000000 
#    y 0.000000 1.615830 0.000000 
#    z 0.000000 0.000000 1.597790 
# 
# From -- ./inp_files/29816.got.cif
#   From: 2010.05.17/outbox.cif.g08.bks.cpg/sg68_15_cif.got.tgz:29816.got - 2010.06.03 18:57:09.
