data_PCOD9505542
_publ_section_title
;
Structure prediction by ZEFSAII (Michael W. Deem and Ramdas Pophale) SiO2 
 PCOD9505542
Probable space group: C C C A
;
_chemical_formula_sum "Si O2"
_cell_formula_units_Z 68
_cell_length_a 11.871106
_cell_length_b 16.936874
_cell_length_c 14.023246
_cell_angle_alpha 90.000000
_cell_angle_beta 90.000000
_cell_angle_gamma 90.000000
_cell_volume 2819.505799
_symmetry_space_group_name_H-M "C C C A"
_symmetry_group_IT_number 68
_space_group.IT_coordinate_system_code '2'
_symmetry_cell_setting 'orthorhombic'
loop_
_space_group_symop_operation_xyz
x,y,z
-x,1/2-y,z
x,1/2-y,1/2-z
-x,y,1/2-z
-x,-y,-z
x,1/2+y,-z
-x,1/2+y,1/2+z
x,-y,1/2+z
1/2+x,1/2+y,z
1/2-x,-y,z
1/2+x,-y,1/2-z
1/2-x,1/2+y,1/2-z
1/2-x,1/2-y,-z
1/2+x,y,-z
1/2-x,y,1/2+z
1/2+x,1/2-y,1/2+z
loop_
_atom_site_type_symbol
_atom_site_label
_atom_site_fract_x
_atom_site_fract_y
_atom_site_fract_z
Si Si1 0.773990 0.910647 0.095106
Si Si2 0.856662 0.037670 0.385238
Si Si3 0.500000 0.750000 0.750000
Si Si4 0.020642 0.629140 0.396487
Si Si5 0.036577 0.835939 0.882191
O O1 0.666937 0.860243 0.127750
O O2 0.891095 0.879911 0.134625
O O3 0.750000 0.000000 0.123028
O O4 0.800838 0.920726 0.979947
O O5 0.944278 0.100897 0.345221
O O6 0.750000 0.000000 0.331263
O O7 0.930321 0.959150 0.404592
O O8 0.431178 0.807545 0.677866
O O9 0.025379 0.661609 0.502694
O O10 0.000000 0.750000 0.850416
#
# Coordination Sequence:
#
# PCOD9505542 Si02
#       5
#    16  16   4  16  16
#     4  10  17  34  64  90 116 151 198 255 315 348
#     4  10  19  33  61  91 119 154 195 255 317 360
#     4  12  28  40  52  84 132 168 204 238 280 374
#     4  11  21  38  57  85 126 162 202 237 303 370
#     4  11  20  33  61  99 125 147 190 268 317 345
#
# _framework density 24.117701
#
# number of rings (size 3 to 8) (size 9 to 14) (size 15 to 20)
#    0.000    1.412    8.235    1.412    0.000    5.647 
#    0.000    1.176    0.000    0.000    0.000    0.000 
#    0.000    0.000    0.000    0.000    0.000    0.000 
#
# Total GULP energy -189738.421783 kJ/mol
# GULP energy per Si atom -5580.541817 kJ/mol
# Density = 2.406281 g / cm^3
# Si number density = 24.117701 Si / 1000 Ang^3
#
#
#
# Elastic Constant Matrix: (Units=GPa)
#
#
# Indices 1 2 3 4 5 6 
#
# 1 201.8186 77.6586 10.3097 0.0000 0.0000 0.0000
# 2 77.6586 171.3201 8.2277 0.0000 0.0000 0.0000
# 3 10.3097 8.2277 94.8908 0.0000 0.0000 0.0000
# 4 0.0000 0.0000 0.0000 673.4199 0.0000 0.0000
# 5 0.0000 0.0000 0.0000 0.0000 11.2840 0.0000
# 6 0.0000 0.0000 0.0000 0.0000 0.0000 29.4390
#
#
#
# Elastic Compliance Matrix: (Units=1/GPa)
#
#
# Indices 1 2 3 4 5 6 
#
# 1 0.006018 -0.002708 -0.000419 0.000000 0.000000 0.000000
# 2 -0.002708 0.007080 -0.000320 0.000000 0.000000 0.000000
# 3 -0.000419 -0.000320 0.010612 0.000000 0.000000 0.000000
# 4 0.000000 0.000000 0.000000 0.001485 0.000000 0.000000
# 5 0.000000 0.000000 0.000000 0.000000 0.088621 0.000000
# 6 0.000000 0.000000 0.000000 0.000000 0.000000 0.033969
#
#
# Mechanical properties :
#
#
# Convention : Reuss Voigt Hill
#
# Bulk Modulus (GPa) = 59.46538 73.38016 66.42277
# Shear Modulus (GPa) = 31.19469 167.61748 99.40609
#
# Velocity S-wave (km/s) = 3.60034 8.34570 6.42702
# Velocity P-wave (km/s) = 6.48021 11.10673 9.09265
#
# Compressibility (1/GPa) = 0.01681651
#
# Stress axis : x y z
#
# Youngs Moduli (GPa) = 166.15817 141.24519 94.23581
#
# Poissons Ratio (x) = 0.38249 0.03949
# Poissons Ratio (y) = 0.44995 0.03012
# Poissons Ratio (z) = 0.06963 0.04515
#
# Static dielectric constant tensor:
#      x y z
#    x 2.137700 0.000000 0.000000 
#    y 0.000000 1.872710 0.000000 
#    z 0.000000 0.000000 1.973480 
# 
# From -- ./inp_files/37221.got.cif
#   From: 2010.05.17/outbox.cif.g08.bks.cpg/sg68_19_cif.got.tgz:37221.got - 2010.06.03 18:57:09.
