data_PCOD9505985
_publ_section_title
;
Structure prediction by ZEFSAII (Michael W. Deem and Ramdas Pophale) SiO2 
 PCOD9505985
Probable space group: C C C A
;
_chemical_formula_sum "Si O2"
_cell_formula_units_Z 128
_cell_length_a 24.492040
_cell_length_b 9.809956
_cell_length_c 28.527225
_cell_angle_alpha 90.000000
_cell_angle_beta 90.000000
_cell_angle_gamma 90.000000
_cell_volume 6854.117528
_symmetry_space_group_name_H-M "C C C A"
_symmetry_group_IT_number 68
_space_group.IT_coordinate_system_code '2'
_symmetry_cell_setting 'orthorhombic'
loop_
_space_group_symop_operation_xyz
x,y,z
-x,1/2-y,z
x,1/2-y,1/2-z
-x,y,1/2-z
-x,-y,-z
x,1/2+y,-z
-x,1/2+y,1/2+z
x,-y,1/2+z
1/2+x,1/2+y,z
1/2-x,-y,z
1/2+x,-y,1/2-z
1/2-x,1/2+y,1/2-z
1/2-x,1/2-y,-z
1/2+x,y,-z
1/2-x,y,1/2+z
1/2+x,1/2-y,1/2+z
loop_
_atom_site_type_symbol
_atom_site_label
_atom_site_fract_x
_atom_site_fract_y
_atom_site_fract_z
Si Si1 0.154643 0.674403 0.976647
Si Si2 0.394549 0.952618 0.367761
Si Si3 0.402373 0.632761 0.378567
Si Si4 0.692912 0.951208 0.049786
Si Si5 0.197468 0.095686 0.187223
Si Si6 0.451075 0.841633 0.500046
Si Si7 0.303146 0.914322 0.299461
Si Si8 0.006549 0.981177 0.417231
O O1 0.130534 0.623364 0.927531
O O2 0.197149 0.794630 0.966288
O O3 0.176021 0.550863 0.007420
O O4 0.104322 0.758126 0.999590
O O5 0.412286 0.793052 0.367645
O O6 0.352025 0.961782 0.410321
O O7 0.358241 0.973857 0.321994
O O8 0.446210 0.047558 0.379402
O O9 0.359754 0.570834 0.340459
O O10 0.461418 0.568917 0.389240
O O11 0.750000 0.000000 0.069113
O O12 0.191059 0.080805 0.243250
O O13 0.206128 0.259506 0.181820
O O14 0.250000 0.000000 0.173365
O O15 0.500000 0.750000 0.481149
O O16 0.456136 0.960296 0.461204
O O17 0.468164 0.882019 0.552319
O O18 0.250000 0.000000 0.312172
#
# Coordination Sequence:
#
# PCOD9505985 Si02
#       8
#    16  16  16  16  16  16  16  16
#     4  11  21  35  51  74 105 144 184 222 268 315
#     4  10  19  33  53  77 103 137 178 223 264 319
#     4  10  19  32  52  78 105 137 174 215 270 321
#     4  11  22  35  50  72 106 144 181 222 270 318
#     4   9  19  36  58  83 109 135 174 223 271 333
#     4  11  19  31  52  72  99 143 188 224 255 309
#     4   9  18  36  60  82 105 139 178 219 273 330
#     4  11  19  32  51  75 104 141 184 221 264 312
#
# _framework density 18.674904999999999
#
# number of rings (size 3 to 8) (size 9 to 14) (size 15 to 20)
#    0.000    1.750    3.750    2.625    0.000    0.500 
#    0.000    9.375    0.000    3.000    0.000    0.000 
#    0.000    7.000    0.000    0.000    0.000    0.000 
#
# Total GULP energy -356387.324067 kJ/mol
# GULP energy per Si atom -5568.551939 kJ/mol
# Density = 1.863240 g / cm^3
# Si number density = 18.674905 Si / 1000 Ang^3
#
#
#
# Elastic Constant Matrix: (Units=GPa)
#
#
# Indices 1 2 3 4 5 6 
#
# 1 104.6981 18.9932 37.3131 0.0000 0.0000 0.0000
# 2 18.9932 27.4230 19.0746 0.0000 0.0000 0.0000
# 3 37.3131 19.0746 55.5217 0.0000 0.0000 0.0000
# 4 0.0000 0.0000 0.0000 18.9798 0.0000 0.0000
# 5 0.0000 0.0000 0.0000 0.0000 31.5026 0.0000
# 6 0.0000 0.0000 0.0000 0.0000 0.0000 23.4679
#
#
#
# Elastic Compliance Matrix: (Units=1/GPa)
#
#
# Indices 1 2 3 4 5 6 
#
# 1 0.012854 -0.003803 -0.007332 0.000000 0.000000 0.000000
# 2 -0.003803 0.049041 -0.014292 0.000000 0.000000 0.000000
# 3 -0.007332 -0.014292 0.027849 0.000000 0.000000 0.000000
# 4 0.000000 0.000000 0.000000 0.052688 0.000000 0.000000
# 5 0.000000 0.000000 0.000000 0.000000 0.031743 0.000000
# 6 0.000000 0.000000 0.000000 0.000000 0.000000 0.042611
#
#
# Mechanical properties :
#
#
# Convention : Reuss Voigt Hill
#
# Bulk Modulus (GPa) = 25.71418 37.60051 31.65735
# Shear Modulus (GPa) = 17.81871 22.27419 20.04645
#
# Velocity S-wave (km/s) = 3.09229 3.45734 3.27990
# Velocity P-wave (km/s) = 5.15256 6.00963 5.59752
#
# Compressibility (1/GPa) = 0.03888905
#
# Stress axis : x y z
#
# Youngs Moduli (GPa) = 77.79534 20.39114 35.90839
#
# Poissons Ratio (x) = 0.07755 0.26329
# Poissons Ratio (y) = 0.29585 0.51322
# Poissons Ratio (z) = 0.57041 0.29144
#
# Static dielectric constant tensor:
#      x y z
#    x 1.600950 0.000000 0.000000 
#    y 0.000000 1.741070 0.000000 
#    z 0.000000 0.000000 1.652290 
# 
# From -- ./inp_files/52254.got.cif
#   From: 2010.05.17/outbox.cif.g08.bks.cpg/sg68_27_cif.got.tgz:52254.got - 2010.06.03 18:57:09.
