data_PCOD9505646
_publ_section_title
;
Structure prediction by ZEFSAII (Michael W. Deem and Ramdas Pophale) SiO2 
 PCOD9505646
Probable space group: C C C A
;
_chemical_formula_sum "Si O2"
_cell_formula_units_Z 48
_cell_length_a 4.978204
_cell_length_b 28.075474
_cell_length_c 14.024521
_cell_angle_alpha 90.000000
_cell_angle_beta 90.000000
_cell_angle_gamma 90.000000
_cell_volume 1960.143306
_symmetry_space_group_name_H-M "C C C A"
_symmetry_group_IT_number 68
_space_group.IT_coordinate_system_code '2'
_symmetry_cell_setting 'orthorhombic'
loop_
_space_group_symop_operation_xyz
x,y,z
-x,1/2-y,z
x,1/2-y,1/2-z
-x,y,1/2-z
-x,-y,-z
x,1/2+y,-z
-x,1/2+y,1/2+z
x,-y,1/2+z
1/2+x,1/2+y,z
1/2-x,-y,z
1/2+x,-y,1/2-z
1/2-x,1/2+y,1/2-z
1/2-x,1/2-y,-z
1/2+x,y,-z
1/2-x,y,1/2+z
1/2+x,1/2-y,1/2+z
loop_
_atom_site_type_symbol
_atom_site_label
_atom_site_fract_x
_atom_site_fract_y
_atom_site_fract_z
Si Si1 0.025219 0.801789 0.564198
Si Si2 0.521386 0.096358 0.637244
Si Si3 0.039105 0.041732 0.635014
O O1 0.831418 0.802874 0.471622
O O2 0.927311 0.848466 0.619558
O O3 0.000000 0.750000 0.612496
O O4 0.500000 0.088233 0.750000
O O5 0.218502 0.086698 0.604342
O O6 0.739996 0.057032 0.602246
O O7 0.000000 0.036251 0.750000
O O8 0.250000 0.000000 0.607415
#
# Coordination Sequence:
#
# PCOD9505646 Si02
#       3
#    16  16  16
#     4  10  21  38  58  78 106 147 185 220 276 342
#     4  10  20  33  55  84 109 138 182 231 271 312
#     4  10  18  31  52  80 112 143 178 221 270 325
#
# _framework density 24.488007
#
# number of rings (size 3 to 8) (size 9 to 14) (size 15 to 20)
#    0.000    2.000    0.000    6.000    0.000    0.667 
#    0.000    0.000    0.000   32.000    0.000    0.000 
#    0.000    0.000    0.000    0.000    0.000    0.000 
#
# Total GULP energy -133672.748475 kJ/mol
# GULP energy per Si atom -5569.697853 kJ/mol
# Density = 2.443227 g / cm^3
# Si number density = 24.488007 Si / 1000 Ang^3
#
#
#
# Elastic Constant Matrix: (Units=GPa)
#
#
# Indices 1 2 3 4 5 6 
#
# 1 166.9149 53.5059 -2.0277 0.0000 0.0000 0.0000
# 2 53.5059 177.7172 9.7472 0.0000 0.0000 0.0000
# 3 -2.0277 9.7472 59.3716 0.0000 0.0000 0.0000
# 4 0.0000 0.0000 0.0000 29.9445 0.0000 0.0000
# 5 0.0000 0.0000 0.0000 0.0000 -1.6733 0.0000
# 6 0.0000 0.0000 0.0000 0.0000 0.0000 41.5456
#
#
#
# Elastic Compliance Matrix: (Units=1/GPa)
#
#
# Indices 1 2 3 4 5 6 
#
# 1 0.006650 -0.002033 0.000561 0.000000 0.000000 0.000000
# 2 -0.002033 0.006299 -0.001104 0.000000 0.000000 0.000000
# 3 0.000561 -0.001104 0.017043 0.000000 0.000000 0.000000
# 4 0.000000 0.000000 0.000000 0.033395 0.000000 0.000000
# 5 0.000000 0.000000 0.000000 0.000000 -0.597607 0.000000
# 6 0.000000 0.000000 0.000000 0.000000 0.000000 0.024070
#
#
# Mechanical properties :
#
#
# Convention : Reuss Voigt Hill
#
# Bulk Modulus (GPa) = 40.25561 58.49494 49.37528
# Shear Modulus (GPa) = -10.06608 36.81523 13.37458
#
# Velocity S-wave (km/s) = -2.02966 3.88157 2.33956
# Velocity P-wave (km/s) = 3.31389 6.63535 5.24451
#
# Compressibility (1/GPa) = 0.02484126
#
# Stress axis : x y z
#
# Youngs Moduli (GPa) = 150.38721 158.74394 58.67375
#
# Poissons Ratio (x) = 0.32269 -0.03291
# Poissons Ratio (y) = 0.30570 0.06475
# Poissons Ratio (z) = -0.08434 0.17519
#
# Static dielectric constant tensor:
#      x y z
#    x 1.954330 0.000000 0.000000 
#    y 0.000000 2.026380 0.000000 
#    z 0.000000 0.000000 1.978640 
# 
# From -- ./inp_files/25686.got.cif
#   From: 2010.05.17/outbox.cif.g08.bks.cpg/sg68_13_cif.got.tgz:25686.got - 2010.06.03 18:57:09.
