data_PCOD9505375
_publ_section_title
;
Structure prediction by ZEFSAII (Michael W. Deem and Ramdas Pophale) SiO2 
 PCOD9505375
Probable space group: C C C A
;
_chemical_formula_sum "Si O2"
_cell_formula_units_Z 104
_cell_length_a 15.945224
_cell_length_b 17.316626
_cell_length_c 21.150641
_cell_angle_alpha 90.000000
_cell_angle_beta 90.000000
_cell_angle_gamma 90.000000
_cell_volume 5840.061704
_symmetry_space_group_name_H-M "C C C A"
_symmetry_group_IT_number 68
_space_group.IT_coordinate_system_code '2'
_symmetry_cell_setting 'orthorhombic'
loop_
_space_group_symop_operation_xyz
x,y,z
-x,1/2-y,z
x,1/2-y,1/2-z
-x,y,1/2-z
-x,-y,-z
x,1/2+y,-z
-x,1/2+y,1/2+z
x,-y,1/2+z
1/2+x,1/2+y,z
1/2-x,-y,z
1/2+x,-y,1/2-z
1/2-x,1/2+y,1/2-z
1/2-x,1/2-y,-z
1/2+x,y,-z
1/2-x,y,1/2+z
1/2+x,1/2-y,1/2+z
loop_
_atom_site_type_symbol
_atom_site_label
_atom_site_fract_x
_atom_site_fract_y
_atom_site_fract_z
Si Si1 0.193825 0.192768 0.540764
Si Si2 0.345002 0.173889 0.373373
Si Si3 0.616947 0.985339 0.802212
Si Si4 0.805986 0.575409 0.934275
Si Si5 0.723132 0.750000 0.750000
Si Si6 0.572370 0.481430 0.344571
Si Si7 0.760917 0.121978 0.337928
O O1 0.250000 0.250000 0.500000
O O2 0.136974 0.252481 0.581477
O O3 0.161365 0.125844 0.493767
O O4 0.254577 0.152150 0.591430
O O5 0.258227 0.131466 0.395779
O O6 0.331049 0.206503 0.303065
O O7 0.410726 0.104342 0.371564
O O8 0.611315 0.986917 0.726092
O O9 0.526090 0.991709 0.833418
O O10 0.667720 0.909092 0.821669
O O11 0.673690 0.054909 0.826885
O O12 0.750000 0.500000 0.953599
O O13 0.879608 0.542046 0.889702
O O14 0.778455 0.690224 0.710738
#
# Coordination Sequence:
#
# PCOD9505375 Si02
#       7
#    16  16  16  16   8  16  16
#     4   9  19  35  56  79 105 146 190 227 267 334
#     4   9  17  31  54  81 109 139 181 223 278 333
#     4  10  21  34  56  85 116 139 184 234 283 336
#     4   9  18  31  57  79 106 146 189 224 268 332
#     4  10  16  30  55  83 106 140 178 232 280 333
#     4  10  19  35  55  84 115 144 179 230 287 333
#     4  10  20  34  58  80 109 144 189 230 282 330
#
# _framework density 17.808031
#
# number of rings (size 3 to 8) (size 9 to 14) (size 15 to 20)
#    0.000    2.462    1.538    0.923    6.462    0.000 
#    0.000    4.615    3.385   21.231    0.000    0.000 
#    0.000    0.000    0.000    0.000    0.000    0.000 
#
# Total GULP energy -289618.677582 kJ/mol
# GULP energy per Si atom -5569.589953 kJ/mol
# Density = 1.776750 g / cm^3
# Si number density = 17.808031 Si / 1000 Ang^3
#
#
#
# Elastic Constant Matrix: (Units=GPa)
#
#
# Indices 1 2 3 4 5 6 
#
# 1 58.5591 33.7815 38.2057 0.0000 0.0000 0.0000
# 2 33.7815 112.3155 62.8684 0.0000 0.0000 0.0000
# 3 38.2057 62.8684 116.7867 0.0000 0.0000 0.0000
# 4 0.0000 0.0000 0.0000 46.5474 0.0000 0.0000
# 5 0.0000 0.0000 0.0000 0.0000 12.7078 0.0000
# 6 0.0000 0.0000 0.0000 0.0000 0.0000 7.4892
#
#
#
# Elastic Compliance Matrix: (Units=1/GPa)
#
#
# Indices 1 2 3 4 5 6 
#
# 1 0.022813 -0.003842 -0.005395 0.000000 0.000000 0.000000
# 2 -0.003842 0.013390 -0.005951 0.000000 0.000000 0.000000
# 3 -0.005395 -0.005951 0.013531 0.000000 0.000000 0.000000
# 4 0.000000 0.000000 0.000000 0.021483 0.000000 0.000000
# 5 0.000000 0.000000 0.000000 0.000000 0.078692 0.000000
# 6 0.000000 0.000000 0.000000 0.000000 0.000000 0.133526
#
#
# Mechanical properties :
#
#
# Convention : Reuss Voigt Hill
#
# Bulk Modulus (GPa) = 51.65771 61.93027 56.79399
# Shear Modulus (GPa) = 15.61209 23.53592 19.57400
#
# Velocity S-wave (km/s) = 2.96410 3.63939 3.31897
# Velocity P-wave (km/s) = 6.38636 7.24654 6.83000
#
# Compressibility (1/GPa) = 0.01935820
#
# Stress axis : x y z
#
# Youngs Moduli (GPa) = 43.83516 74.68100 73.90273
#
# Poissons Ratio (x) = 0.28690 0.39870
# Poissons Ratio (y) = 0.16840 0.43983
# Poissons Ratio (z) = 0.23649 0.44446
#
# Static dielectric constant tensor:
#      x y z
#    x 1.575500 0.000000 0.000000 
#    y 0.000000 1.654390 0.000000 
#    z 0.000000 0.000000 1.624920 
# 
# From -- ./inp_files/38800.got.cif
#   From: 2010.05.17/outbox.cif.g08.bks.cpg/sg68_20_cif.got.tgz:38800.got - 2010.06.03 18:57:09.
