data_PCOD9505054
_publ_section_title
;
Structure prediction by ZEFSAII (Michael W. Deem and Ramdas Pophale) SiO2 
 PCOD9505054
Probable space group: C M M A
;
_chemical_formula_sum "Si O2"
_cell_formula_units_Z 68
_cell_length_a 14.736675
_cell_length_b 22.188124
_cell_length_c 10.004118
_cell_angle_alpha 90.000000
_cell_angle_beta 90.000000
_cell_angle_gamma 90.000000
_cell_volume 3271.138223
_symmetry_space_group_name_H-M "C M M A"
_symmetry_group_IT_number 67
_symmetry_cell_setting 'orthorhombic'
loop_
_space_group_symop_operation_xyz
x,y,z
-x,1/2-y,z
x,-y,-z
-x,1/2+y,-z
-x,-y,-z
x,1/2+y,-z
-x,y,z
x,1/2-y,z
1/2+x,1/2+y,z
1/2-x,-y,z
1/2+x,1/2-y,-z
1/2-x,y,-z
1/2-x,1/2-y,-z
1/2+x,y,-z
1/2-x,1/2+y,z
1/2+x,-y,z
loop_
_atom_site_type_symbol
_atom_site_label
_atom_site_fract_x
_atom_site_fract_y
_atom_site_fract_z
Si Si1 0.607886 0.681537 0.161824
Si Si2 0.856250 0.932306 0.028204
Si Si3 0.750000 0.500000 0.500000
Si Si4 0.607231 0.578291 0.661143
Si Si5 0.890174 0.317598 0.459932
O O1 0.500000 0.688362 0.173185
O O2 0.642439 0.750000 0.126764
O O3 0.642408 0.664671 0.311098
O O4 0.618969 0.625412 0.062682
O O5 0.879234 0.917140 0.180895
O O6 0.750000 0.937597 0.000000
O O7 0.894618 0.000000 0.000000
O O8 0.679499 0.532549 0.599429
O O9 0.500000 0.563597 0.635472
O O10 0.631582 0.638629 0.580188
O O11 0.859343 0.250000 0.485698
O O12 0.000000 0.317229 0.454354
#
# Coordination Sequence:
#
# PCOD9505054 Si02
#       5
#    16  16   4  16  16
#     4   9  19  38  64  91 125 170 216 265 326 392
#     4  11  25  42  61  93 133 173 214 271 327 390
#     4  12  26  44  64  94 136 172 216 270 324 390
#     4  11  25  43  68  97 128 173 220 268 326 386
#     4   8  17  37  65  95 125 163 214 268 324 388
#
# _framework density 20.787870999999999
#
# number of rings (size 3 to 8) (size 9 to 14) (size 15 to 20)
#    0.000    2.118    0.000    3.882    6.588    3.294 
#    0.000    2.941    0.000    0.000    0.000    0.000 
#    0.000    0.000    0.000    0.000    0.000    0.000 
#
# Total GULP energy -189447.316422 kJ/mol
# GULP energy per Si atom -5571.979895 kJ/mol
# Density = 2.074056 g / cm^3
# Si number density = 20.787871 Si / 1000 Ang^3
#
#
#
# Elastic Constant Matrix: (Units=GPa)
#
#
# Indices 1 2 3 4 5 6 
#
# 1 90.4035 34.4318 40.7875 0.0000 0.0000 0.0000
# 2 34.4318 167.9877 141.9059 0.0000 0.0000 0.0000
# 3 40.7875 141.9059 197.9686 0.0000 0.0000 0.0000
# 4 0.0000 0.0000 0.0000 43.2910 0.0000 0.0000
# 5 0.0000 0.0000 0.0000 0.0000 18.3550 0.0000
# 6 0.0000 0.0000 0.0000 0.0000 0.0000 37.6822
#
#
#
# Elastic Compliance Matrix: (Units=1/GPa)
#
#
# Indices 1 2 3 4 5 6 
#
# 1 0.012256 -0.000961 -0.001836 0.000000 0.000000 0.000000
# 2 -0.000961 0.015166 -0.010673 0.000000 0.000000 0.000000
# 3 -0.001836 -0.010673 0.013080 0.000000 0.000000 0.000000
# 4 0.000000 0.000000 0.000000 0.023099 0.000000 0.000000
# 5 0.000000 0.000000 0.000000 0.000000 0.054481 0.000000
# 6 0.000000 0.000000 0.000000 0.000000 0.000000 0.026538
#
#
# Mechanical properties :
#
#
# Convention : Reuss Voigt Hill
#
# Bulk Modulus (GPa) = 73.73812 98.95669 86.34741
# Shear Modulus (GPa) = 28.39610 35.81460 32.10535
#
# Velocity S-wave (km/s) = 3.69994 4.15524 3.93418
# Velocity P-wave (km/s) = 7.33495 8.40998 7.89079
#
# Compressibility (1/GPa) = 0.01356151
#
# Stress axis : x y z
#
# Youngs Moduli (GPa) = 81.59279 65.93895 76.45212
#
# Poissons Ratio (x) = 0.06335 0.14040
# Poissons Ratio (y) = 0.07839 0.81596
# Poissons Ratio (z) = 0.14984 0.70376
#
# Static dielectric constant tensor:
#      x y z
#    x 1.762790 0.000000 0.000000 
#    y 0.000000 1.777500 0.000000 
#    z 0.000000 0.000000 1.724890 
# 
# From -- ./inp_files/9473.got.cif
#   From: 2010.05.17/outbox.cif.g08.bks.cpg/sg67_5_cif.got.tgz:9473.got - 2010.06.03 18:28:57.
