data_PCOD9505390
_publ_section_title
;
Structure prediction by ZEFSAII (Michael W. Deem and Ramdas Pophale) SiO2 
 PCOD9505390
Probable space group: C C C A
;
_chemical_formula_sum "Si O2"
_cell_formula_units_Z 128
_cell_length_a 17.559535
_cell_length_b 19.306165
_cell_length_c 20.441085
_cell_angle_alpha 90.000000
_cell_angle_beta 90.000000
_cell_angle_gamma 90.000000
_cell_volume 6929.676627
_symmetry_space_group_name_H-M "C C C A"
_symmetry_group_IT_number 68
_space_group.IT_coordinate_system_code '2'
_symmetry_cell_setting 'orthorhombic'
loop_
_space_group_symop_operation_xyz
x,y,z
-x,1/2-y,z
x,1/2-y,1/2-z
-x,y,1/2-z
-x,-y,-z
x,1/2+y,-z
-x,1/2+y,1/2+z
x,-y,1/2+z
1/2+x,1/2+y,z
1/2-x,-y,z
1/2+x,-y,1/2-z
1/2-x,1/2+y,1/2-z
1/2-x,1/2-y,-z
1/2+x,y,-z
1/2-x,y,1/2+z
1/2+x,1/2-y,1/2+z
loop_
_atom_site_type_symbol
_atom_site_label
_atom_site_fract_x
_atom_site_fract_y
_atom_site_fract_z
Si Si1 0.897681 0.906861 0.467836
Si Si2 0.316309 0.056362 0.167452
Si Si3 0.007618 0.846079 0.178157
Si Si4 0.569985 0.136880 0.055324
Si Si5 0.677231 0.207011 0.318070
Si Si6 0.430268 0.509047 0.716257
Si Si7 0.826863 0.254816 0.539504
Si Si8 0.841118 0.501100 0.911535
O O1 0.864166 0.941471 0.401013
O O2 0.863276 0.829996 0.471139
O O3 0.869236 0.950407 0.529597
O O4 0.989729 0.897173 0.466622
O O5 0.279866 0.132589 0.182564
O O6 0.371423 0.036071 0.228445
O O7 0.250000 0.000000 0.161733
O O8 0.955086 0.820671 0.120458
O O9 0.976859 0.925110 0.185301
O O10 0.000000 0.818385 0.250000
O O11 0.093835 0.825634 0.166658
O O12 0.614748 0.195292 0.016026
O O13 0.628710 0.075913 0.071382
O O14 0.680116 0.250000 0.250000
O O15 0.694764 0.250885 0.382947
O O16 0.500000 0.467527 0.750000
O O17 0.382199 0.478172 0.656649
O O18 0.750000 0.250000 0.500000
O O19 0.750000 0.500000 0.905335
#
# Coordination Sequence:
#
# PCOD9505390 Si02
#       8
#    16  16  16  16  16  16  16  16
#     4  11  22  41  60  92 120 167 220 254 313 388
#     4  11  21  37  58  88 131 167 198 256 323 384
#     4  10  16  32  56  90 121 143 190 254 307 366
#     4  11  21  37  62  87 121 163 210 254 310 383
#     4  11  22  36  62  94 125 160 203 253 323 379
#     4  10  19  37  56  86 124 154 211 253 310 376
#     4  11  24  39  58  90 135 163 204 265 328 382
#     4  11  23  37  58  89 127 163 205 262 322 378
#
# _framework density 18.47128
#
# number of rings (size 3 to 8) (size 9 to 14) (size 15 to 20)
#    0.000    1.250    5.000    3.750    1.750    2.250 
#    2.250    0.000    0.000    0.000    0.000    0.000 
#    0.000    0.000    0.000    0.000    0.000    0.000 
#
# Total GULP energy -356296.425570 kJ/mol
# GULP energy per Si atom -5567.131650 kJ/mol
# Density = 1.842924 g / cm^3
# Si number density = 18.471280 Si / 1000 Ang^3
#
#
#
# Elastic Constant Matrix: (Units=GPa)
#
#
# Indices 1 2 3 4 5 6 
#
# 1 136.6806 48.3305 61.3306 0.0000 0.0000 0.0000
# 2 48.3305 82.3546 32.9036 0.0000 0.0000 0.0000
# 3 61.3306 32.9036 134.2497 0.0000 0.0000 0.0000
# 4 0.0000 0.0000 0.0000 76.2204 0.0000 0.0000
# 5 0.0000 0.0000 0.0000 0.0000 28.4278 0.0000
# 6 0.0000 0.0000 0.0000 0.0000 0.0000 33.9572
#
#
#
# Elastic Compliance Matrix: (Units=1/GPa)
#
#
# Indices 1 2 3 4 5 6 
#
# 1 0.010668 -0.004782 -0.003702 0.000000 0.000000 0.000000
# 2 -0.004782 0.015604 -0.001640 0.000000 0.000000 0.000000
# 3 -0.003702 -0.001640 0.009542 0.000000 0.000000 0.000000
# 4 0.000000 0.000000 0.000000 0.013120 0.000000 0.000000
# 5 0.000000 0.000000 0.000000 0.000000 0.035177 0.000000
# 6 0.000000 0.000000 0.000000 0.000000 0.000000 0.029449
#
#
# Mechanical properties :
#
#
# Convention : Reuss Voigt Hill
#
# Bulk Modulus (GPa) = 64.23723 70.93490 67.58607
# Shear Modulus (GPa) = 35.97243 41.76909 38.87076
#
# Velocity S-wave (km/s) = 4.41781 4.76047 4.59234
# Velocity P-wave (km/s) = 7.80225 8.28868 8.04914
#
# Compressibility (1/GPa) = 0.01556730
#
# Stress axis : x y z
#
# Youngs Moduli (GPa) = 93.73700 64.08602 104.80192
#
# Poissons Ratio (x) = 0.30644 0.38794
# Poissons Ratio (y) = 0.44823 0.17187
# Poissons Ratio (z) = 0.34698 0.10510
#
# Static dielectric constant tensor:
#      x y z
#    x 1.633690 0.000000 0.000000 
#    y 0.000000 1.737500 0.000000 
#    z 0.000000 0.000000 1.688810 
# 
# From -- ./inp_files/39875.got.cif
#   From: 2010.05.17/outbox.cif.g08.bks.cpg/sg68_20_cif.got.tgz:39875.got - 2010.06.03 18:57:09.
