data_PCOD9505324
_publ_section_title
;
Structure prediction by ZEFSAII (Michael W. Deem and Ramdas Pophale) SiO2 
 PCOD9505324
Probable space group: C C C A
;
_chemical_formula_sum "Si O2"
_cell_formula_units_Z 96
_cell_length_a 18.040642
_cell_length_b 9.105232
_cell_length_c 29.421225
_cell_angle_alpha 90.000000
_cell_angle_beta 90.000000
_cell_angle_gamma 90.000000
_cell_volume 4832.854895
_symmetry_space_group_name_H-M "C C C A"
_symmetry_group_IT_number 68
_space_group.IT_coordinate_system_code '2'
_symmetry_cell_setting 'orthorhombic'
loop_
_space_group_symop_operation_xyz
x,y,z
-x,1/2-y,z
x,1/2-y,1/2-z
-x,y,1/2-z
-x,-y,-z
x,1/2+y,-z
-x,1/2+y,1/2+z
x,-y,1/2+z
1/2+x,1/2+y,z
1/2-x,-y,z
1/2+x,-y,1/2-z
1/2-x,1/2+y,1/2-z
1/2-x,1/2-y,-z
1/2+x,y,-z
1/2-x,y,1/2+z
1/2+x,1/2-y,1/2+z
loop_
_atom_site_type_symbol
_atom_site_label
_atom_site_fract_x
_atom_site_fract_y
_atom_site_fract_z
Si Si1 0.900049 0.080908 0.340413
Si Si2 0.119758 0.755184 0.999167
Si Si3 0.424043 0.070223 0.843057
Si Si4 0.634012 0.000820 0.936481
Si Si5 0.670643 0.927472 0.245192
Si Si6 0.546067 0.990930 0.559257
O O1 0.902304 0.257588 0.348622
O O2 0.864648 0.030850 0.293376
O O3 0.987881 0.049730 0.336317
O O4 0.855696 0.010990 0.382682
O O5 0.159207 0.644503 0.964239
O O6 0.073541 0.865499 0.967425
O O7 0.160977 0.860651 0.035059
O O8 0.071002 0.648601 0.030609
O O9 0.379769 0.027189 0.797871
O O10 0.414141 0.991624 0.891614
O O11 0.542915 0.997790 0.937900
O O12 0.675622 0.750000 0.250000
O O13 0.750000 0.000000 0.239432
#
# Coordination Sequence:
#
# PCOD9505324 Si02
#       6
#    16  16  16  16  16  16
#     4   9  17  31  54  81 105 133 172 216 257 303
#     4  10  17  24  40  68 107 142 165 200 247 302
#     4   9  17  31  54  81 105 133 172 216 257 303
#     4  10  16  25  41  69 106 138 166 200 251 302
#     4  10  21  39  59  77  99 134 176 216 262 314
#     4  10  16  25  41  69 106 138 166 200 251 302
#
# _framework density 19.864034
#
# number of rings (size 3 to 8) (size 9 to 14) (size 15 to 20)
#    0.000    2.333    1.667    4.500    0.000    2.000 
#    3.000    0.000    0.000    1.000    0.000    7.000 
#    0.000    0.000    0.000    0.000    0.000    0.000 
#
# Total GULP energy -267505.979783 kJ/mol
# GULP energy per Si atom -5573.041245 kJ/mol
# Density = 1.981882 g / cm^3
# Si number density = 19.864034 Si / 1000 Ang^3
#
#
#
# Elastic Constant Matrix: (Units=GPa)
#
#
# Indices 1 2 3 4 5 6 
#
# 1 36.1594 10.2000 39.2143 0.0000 0.0000 0.0000
# 2 10.2000 66.4359 40.2608 0.0000 0.0000 0.0000
# 3 39.2143 40.2608 206.8209 0.0000 0.0000 0.0000
# 4 0.0000 0.0000 0.0000 17.7988 0.0000 0.0000
# 5 0.0000 0.0000 0.0000 0.0000 -23.5265 0.0000
# 6 0.0000 0.0000 0.0000 0.0000 0.0000 7.6188
#
#
#
# Elastic Compliance Matrix: (Units=1/GPa)
#
#
# Indices 1 2 3 4 5 6 
#
# 1 0.034951 -0.001531 -0.006329 0.000000 0.000000 0.000000
# 2 -0.001531 0.017132 -0.003045 0.000000 0.000000 0.000000
# 3 -0.006329 -0.003045 0.006628 0.000000 0.000000 0.000000
# 4 0.000000 0.000000 0.000000 0.056184 0.000000 0.000000
# 5 0.000000 0.000000 0.000000 0.000000 -0.042505 0.000000
# 6 0.000000 0.000000 0.000000 0.000000 0.000000 0.131255
#
#
# Mechanical properties :
#
#
# Convention : Reuss Voigt Hill
#
# Bulk Modulus (GPa) = 27.09876 54.30738 40.70307
# Shear Modulus (GPa) = 21.03020 15.02762 18.02891
#
# Velocity S-wave (km/s) = 3.25731 2.75348 3.01593
# Velocity P-wave (km/s) = 5.27432 6.12436 5.71517
#
# Compressibility (1/GPa) = 0.03690205
#
# Stress axis : x y z
#
# Youngs Moduli (GPa) = 28.61172 58.36926 150.87942
#
# Poissons Ratio (x) = 0.08935 0.95490
# Poissons Ratio (y) = 0.04380 0.45940
# Poissons Ratio (z) = 0.18108 0.17772
#
# Static dielectric constant tensor:
#      x y z
#    x 1.699510 0.000000 0.000000 
#    y 0.000000 1.716520 0.000000 
#    z 0.000000 0.000000 1.739790 
# 
# From -- ./inp_files/51755.got.cif
#   From: 2010.05.17/outbox.cif.g08.bks.cpg/sg68_26_cif.got.tgz:51755.got - 2010.06.03 18:57:09.
