data_PCOD9505023
_publ_section_title
;
Structure prediction by ZEFSAII (Michael W. Deem and Ramdas Pophale) SiO2 
 PCOD9505023
Probable space group: C M M A
;
_chemical_formula_sum "Si O2"
_cell_formula_units_Z 72
_cell_length_a 25.121816
_cell_length_b 15.703268
_cell_length_c 8.982604
_cell_angle_alpha 90.000000
_cell_angle_beta 90.000000
_cell_angle_gamma 90.000000
_cell_volume 3543.588855
_symmetry_space_group_name_H-M "C M M A"
_symmetry_group_IT_number 67
_symmetry_cell_setting 'orthorhombic'
loop_
_space_group_symop_operation_xyz
x,y,z
-x,1/2-y,z
x,-y,-z
-x,1/2+y,-z
-x,-y,-z
x,1/2+y,-z
-x,y,z
x,1/2-y,z
1/2+x,1/2+y,z
1/2-x,-y,z
1/2+x,1/2-y,-z
1/2-x,y,-z
1/2-x,1/2-y,-z
1/2+x,y,-z
1/2-x,1/2+y,z
1/2+x,-y,z
loop_
_atom_site_type_symbol
_atom_site_label
_atom_site_fract_x
_atom_site_fract_y
_atom_site_fract_z
Si Si1 0.274940 0.085760 0.835993
Si Si2 0.099989 0.917449 0.900723
Si Si3 0.391270 0.750000 0.606818
Si Si4 0.562653 0.750000 0.929684
Si Si5 0.267503 0.250000 0.331173
Si Si6 0.937913 0.907901 0.567041
O O1 0.337965 0.077881 0.855834
O O2 0.256998 0.167415 0.745950
O O3 0.250000 0.000000 0.768088
O O4 0.250000 0.093945 0.000000
O O5 0.068995 0.911642 0.744846
O O6 0.088683 0.833604 0.997529
O O7 0.086203 0.000000 0.000000
O O8 0.428241 0.750000 0.752804
O O9 0.331394 0.750000 0.669514
O O10 0.403427 0.666978 0.506931
O O11 0.500000 0.750000 0.963229
O O12 0.250000 0.250000 0.500000
O O13 0.000000 0.891680 0.531259
O O14 0.923149 0.000000 0.500000
#
# Coordination Sequence:
#
# PCOD9505023 Si02
#       6
#    16  16   8   8   8  16
#     4  11  23  44  69 100 136 181 220 275 346 407
#     4  12  24  44  70 101 135 177 234 284 341 409
#     4  12  25  45  70  98 139 181 224 282 345 414
#     4  12  26  42  70 102 135 180 231 290 339 402
#     4  12  26  43  67 104 134 177 225 278 337 408
#     4  11  25  43  66  95 136 181 225 281 345 407
#
# _framework density 20.318384999999999
#
# number of rings (size 3 to 8) (size 9 to 14) (size 15 to 20)
#    0.000    0.444    2.222    7.333    3.111    4.000 
#    0.000    0.000    0.000    0.000    0.000    0.000 
#    0.000    0.000    0.000    0.000    0.000    0.000 
#
# Total GULP energy -201551.761479 kJ/mol
# GULP energy per Si atom -5598.660041 kJ/mol
# Density = 2.027214 g / cm^3
# Si number density = 20.318385 Si / 1000 Ang^3
#
#
#
# Elastic Constant Matrix: (Units=GPa)
#
#
# Indices 1 2 3 4 5 6 
#
# 1 53.0994 6.2972 -16.9129 0.0000 0.0000 0.0000
# 2 6.2972 181.0794 67.1827 0.0000 0.0000 0.0000
# 3 -16.9129 67.1827 106.1973 0.0000 0.0000 0.0000
# 4 0.0000 0.0000 0.0000 97.3739 0.0000 0.0000
# 5 0.0000 0.0000 0.0000 0.0000 31.9541 0.0000
# 6 0.0000 0.0000 0.0000 0.0000 0.0000 31.1254
#
#
#
# Elastic Compliance Matrix: (Units=1/GPa)
#
#
# Indices 1 2 3 4 5 6 
#
# 1 0.020695 -0.002538 0.004902 0.000000 0.000000 0.000000
# 2 -0.002538 0.007527 -0.005166 0.000000 0.000000 0.000000
# 3 0.004902 -0.005166 0.013465 0.000000 0.000000 0.000000
# 4 0.000000 0.000000 0.000000 0.010270 0.000000 0.000000
# 5 0.000000 0.000000 0.000000 0.000000 0.031295 0.000000
# 6 0.000000 0.000000 0.000000 0.000000 0.000000 0.032128
#
#
# Mechanical properties :
#
#
# Convention : Reuss Voigt Hill
#
# Bulk Modulus (GPa) = 27.71477 50.39000 39.05238
# Shear Modulus (GPa) = 37.59016 51.01128 44.30072
#
# Velocity S-wave (km/s) = 4.30589 5.01602 4.67446
# Velocity P-wave (km/s) = 6.19603 7.64208 6.95673
#
# Compressibility (1/GPa) = 0.03608185
#
# Stress axis : x y z
#
# Youngs Moduli (GPa) = 48.32121 132.84702 74.26466
#
# Poissons Ratio (x) = 0.33720 -0.36401
# Poissons Ratio (y) = 0.12265 0.38367
# Poissons Ratio (z) = -0.23685 0.68632
#
# Static dielectric constant tensor:
#      x y z
#    x 1.725510 0.000000 0.000000 
#    y 0.000000 1.868440 0.000000 
#    z 0.000000 0.000000 1.680690 
# 
# From -- ./inp_files/13375.got.cif
#   From: 2010.05.17/outbox.cif.g08.bks.cpg/sg67_7_cif.got.tgz:13375.got - 2010.06.03 18:28:57.
