data_PCOD9505091
_publ_section_title
;
Structure prediction by ZEFSAII (Michael W. Deem and Ramdas Pophale) SiO2 
 PCOD9505091
Probable space group: C M M A
;
_chemical_formula_sum "Si O2"
_cell_formula_units_Z 72
_cell_length_a 32.323568
_cell_length_b 9.070161
_cell_length_c 13.752514
_cell_angle_alpha 90.000000
_cell_angle_beta 90.000000
_cell_angle_gamma 90.000000
_cell_volume 4031.961585
_symmetry_space_group_name_H-M "C M M A"
_symmetry_group_IT_number 67
_symmetry_cell_setting 'orthorhombic'
loop_
_space_group_symop_operation_xyz
x,y,z
-x,1/2-y,z
x,-y,-z
-x,1/2+y,-z
-x,-y,-z
x,1/2+y,-z
-x,y,z
x,1/2-y,z
1/2+x,1/2+y,z
1/2-x,-y,z
1/2+x,1/2-y,-z
1/2-x,y,-z
1/2-x,1/2-y,-z
1/2+x,y,-z
1/2-x,1/2+y,z
1/2+x,-y,z
loop_
_atom_site_type_symbol
_atom_site_label
_atom_site_fract_x
_atom_site_fract_y
_atom_site_fract_z
Si Si1 0.000000 0.573924 0.894144
Si Si2 0.419795 0.073148 0.195421
Si Si3 0.707234 0.072299 0.305924
Si Si4 0.831474 0.426425 0.898490
Si Si5 0.879084 0.426528 0.600140
O O1 0.959193 0.516118 0.839674
O O2 0.000000 0.750000 0.902004
O O3 0.000000 0.500000 0.000000
O O4 0.427157 0.250000 0.188214
O O5 0.379074 0.039513 0.130831
O O6 0.407316 0.038648 0.306545
O O7 0.710152 0.250000 0.308663
O O8 0.696001 0.029124 0.194587
O O9 0.667756 0.028528 0.370801
O O10 0.750000 0.000000 0.336548
O O11 0.828476 0.250000 0.907380
O O12 0.820171 0.500000 0.000000
O O13 0.892009 0.500000 0.500000
O O14 0.879178 0.250000 0.589938
#
# Coordination Sequence:
#
# PCOD9505091 Si02
#       5
#     8  16  16  16  16
#     4  12  24  36  55  84 113 140 171 208 250 302
#     4   9  19  37  56  76 105 138 172 214 258 302
#     4   9  19  34  49  71 102 134 169 212 258 305
#     4   9  18  32  50  71  98 133 172 210 253 304
#     4   9  19  36  57  78 103 135 172 215 262 308
#
# _framework density 17.857313000000001
#
# number of rings (size 3 to 8) (size 9 to 14) (size 15 to 20)
#    0.000    2.667    0.000    4.333    0.000    6.222 
#    0.000    9.444    0.000    0.000    0.000    0.000 
#    0.000    0.000    0.000    0.000    0.000    0.000 
#
# Total GULP energy -200871.661058 kJ/mol
# GULP energy per Si atom -5579.768363 kJ/mol
# Density = 1.781667 g / cm^3
# Si number density = 17.857313 Si / 1000 Ang^3
#
#
#
# Elastic Constant Matrix: (Units=GPa)
#
#
# Indices 1 2 3 4 5 6 
#
# 1 86.6833 38.5575 19.9454 0.0000 0.0000 0.0000
# 2 38.5575 35.7048 29.5262 0.0000 0.0000 0.0000
# 3 19.9454 29.5262 93.8968 0.0000 0.0000 0.0000
# 4 0.0000 0.0000 0.0000 29.8875 0.0000 0.0000
# 5 0.0000 0.0000 0.0000 0.0000 4.3053 0.0000
# 6 0.0000 0.0000 0.0000 0.0000 0.0000 21.3224
#
#
#
# Elastic Compliance Matrix: (Units=1/GPa)
#
#
# Indices 1 2 3 4 5 6 
#
# 1 0.023259 -0.028423 0.003997 0.000000 0.000000 0.000000
# 2 -0.028423 0.072583 -0.016786 0.000000 0.000000 0.000000
# 3 0.003997 -0.016786 0.015079 0.000000 0.000000 0.000000
# 4 0.000000 0.000000 0.000000 0.033459 0.000000 0.000000
# 5 0.000000 0.000000 0.000000 0.000000 0.232272 0.000000
# 6 0.000000 0.000000 0.000000 0.000000 0.000000 0.046899
#
#
# Mechanical properties :
#
#
# Convention : Reuss Voigt Hill
#
# Bulk Modulus (GPa) = 35.09148 43.59366 39.34257
# Shear Modulus (GPa) = 9.69979 19.65344 14.67662
#
# Velocity S-wave (km/s) = 2.33316 3.32110 2.86996
# Velocity P-wave (km/s) = 5.19152 6.25871 5.74993
#
# Compressibility (1/GPa) = 0.02849694
#
# Stress axis : x y z
#
# Youngs Moduli (GPa) = 42.99346 13.77736 66.31521
#
# Poissons Ratio (x) = 0.39159 -0.26506
# Poissons Ratio (y) = 1.22200 1.11319
# Poissons Ratio (z) = -0.17185 0.23127
#
# Static dielectric constant tensor:
#      x y z
#    x 1.598960 0.000000 0.000000 
#    y 0.000000 1.591250 0.000000 
#    z 0.000000 0.000000 1.600960 
# 
# From -- ./inp_files/25265.got.cif
#   From: 2010.05.17/outbox.cif.g08.bks.cpg/sg67_13_cif.got.tgz:25265.got - 2010.06.03 18:28:57.
