data_PCOD9505339
_publ_section_title
;
Structure prediction by ZEFSAII (Michael W. Deem and Ramdas Pophale) SiO2 
 PCOD9505339
Probable space group: C C C A
;
_chemical_formula_sum "Si O2"
_cell_formula_units_Z 76
_cell_length_a 13.985978
_cell_length_b 17.502073
_cell_length_c 10.519403
_cell_angle_alpha 90.000000
_cell_angle_beta 90.000000
_cell_angle_gamma 90.000000
_cell_volume 2574.977420
_symmetry_space_group_name_H-M "C C C A"
_symmetry_group_IT_number 68
_space_group.IT_coordinate_system_code '2'
_symmetry_cell_setting 'orthorhombic'
loop_
_space_group_symop_operation_xyz
x,y,z
-x,1/2-y,z
x,1/2-y,1/2-z
-x,y,1/2-z
-x,-y,-z
x,1/2+y,-z
-x,1/2+y,1/2+z
x,-y,1/2+z
1/2+x,1/2+y,z
1/2-x,-y,z
1/2+x,-y,1/2-z
1/2-x,1/2+y,1/2-z
1/2-x,1/2-y,-z
1/2+x,y,-z
1/2-x,y,1/2+z
1/2+x,1/2-y,1/2+z
loop_
_atom_site_type_symbol
_atom_site_label
_atom_site_fract_x
_atom_site_fract_y
_atom_site_fract_z
Si Si1 0.919131 0.050585 0.908600
Si Si2 0.912500 0.606799 0.600579
Si Si3 0.103807 0.710866 0.414055
Si Si4 0.250000 0.500000 0.601584
Si Si5 0.000000 0.750000 0.750000
Si Si6 0.755508 0.156085 0.592047
O O1 0.900931 0.131035 0.840345
O O2 0.915726 0.973765 0.823069
O O3 0.838783 0.025131 0.011379
O O4 0.758747 0.920306 0.175483
O O5 0.942343 0.685536 0.668005
O O6 0.812631 0.627433 0.534375
O O7 0.987684 0.578992 0.490075
O O8 0.000000 0.750000 0.415604
O O9 0.818818 0.727651 0.370706
O O10 0.349561 0.316406 0.549720
#
# Coordination Sequence:
#
# PCOD9505339 Si02
#       6
#    16  16  16   8   4  16
#     4   9  17  31  53  80 119 148 197 244 302 348
#     4  10  19  33  52  80 116 154 186 252 301 367
#     4  10  16  26  48  83 112 150 192 254 295 351
#     4   8  16  28  48  82 112 154 194 250 296 348
#     4  12  24  36  60  88 120 154 200 240 324 372
#     4   9  17  28  46  78 120 147 191 243 312 345
#
# _framework density 29.514824000000001
#
# number of rings (size 3 to 8) (size 9 to 14) (size 15 to 20)
#    0.000    2.526    2.105    1.263    0.000    0.000 
#    0.000    0.000    0.000    7.579    0.000    0.000 
#    0.000    0.000    0.000    0.000    0.000    0.000 
#
# Total GULP energy -212045.992991 kJ/mol
# GULP energy per Si atom -5580.157710 kJ/mol
# Density = 2.944765 g / cm^3
# Si number density = 29.514824 Si / 1000 Ang^3
#
#
#
# Elastic Constant Matrix: (Units=GPa)
#
#
# Indices 1 2 3 4 5 6 
#
# 1 205.0830 58.5827 45.1655 0.0000 0.0000 0.0000
# 2 58.5827 399.7008 44.4025 0.0000 0.0000 0.0000
# 3 45.1655 44.4025 65.5162 0.0000 0.0000 0.0000
# 4 0.0000 0.0000 0.0000 19.6470 0.0000 0.0000
# 5 0.0000 0.0000 0.0000 0.0000 35.5805 0.0000
# 6 0.0000 0.0000 0.0000 0.0000 0.0000 62.0442
#
#
#
# Elastic Compliance Matrix: (Units=1/GPa)
#
#
# Indices 1 2 3 4 5 6 
#
# 1 0.005820 -0.000440 -0.003713 0.000000 0.000000 0.000000
# 2 -0.000440 0.002739 -0.001553 0.000000 0.000000 0.000000
# 3 -0.003713 -0.001553 0.018876 0.000000 0.000000 0.000000
# 4 0.000000 0.000000 0.000000 0.050898 0.000000 0.000000
# 5 0.000000 0.000000 0.000000 0.000000 0.028105 0.000000
# 6 0.000000 0.000000 0.000000 0.000000 0.000000 0.016118
#
#
# Mechanical properties :
#
#
# Convention : Reuss Voigt Hill
#
# Bulk Modulus (GPa) = 62.41731 107.40014 84.90873
# Shear Modulus (GPa) = 35.89146 58.26429 47.07787
#
# Velocity S-wave (km/s) = 3.49097 4.44787 3.99815
# Velocity P-wave (km/s) = 6.11906 7.92752 7.08126
#
# Compressibility (1/GPa) = 0.01602120
#
# Stress axis : x y z
#
# Youngs Moduli (GPa) = 171.82983 365.10944 52.97824
#
# Poissons Ratio (x) = 0.16081 0.19673
# Poissons Ratio (y) = 0.07568 0.08225
# Poissons Ratio (z) = 0.63809 0.56687
#
# Static dielectric constant tensor:
#      x y z
#    x 2.492290 0.000000 0.000000 
#    y 0.000000 2.071830 0.000000 
#    z 0.000000 0.000000 2.394200 
# 
# From -- ./inp_files/24326.got.cif
#   From: 2010.05.17/outbox.cif.g08.bks.cpg/sg68_13_cif.got.tgz:24326.got - 2010.06.03 18:57:09.
