data_PCOD9505072
_publ_section_title
;
Structure prediction by ZEFSAII (Michael W. Deem and Ramdas Pophale) SiO2 
 PCOD9505072
Probable space group: C M M A
;
_chemical_formula_sum "Si O2"
_cell_formula_units_Z 120
_cell_length_a 18.875546
_cell_length_b 14.472884
_cell_length_c 20.689703
_cell_angle_alpha 90.000000
_cell_angle_beta 90.000000
_cell_angle_gamma 90.000000
_cell_volume 5652.087294
_symmetry_space_group_name_H-M "C M M A"
_symmetry_group_IT_number 67
_symmetry_cell_setting 'orthorhombic'
loop_
_space_group_symop_operation_xyz
x,y,z
-x,1/2-y,z
x,-y,-z
-x,1/2+y,-z
-x,-y,-z
x,1/2+y,-z
-x,y,z
x,1/2-y,z
1/2+x,1/2+y,z
1/2-x,-y,z
1/2+x,1/2-y,-z
1/2-x,y,-z
1/2-x,1/2-y,-z
1/2+x,y,-z
1/2-x,1/2+y,z
1/2+x,-y,z
loop_
_atom_site_type_symbol
_atom_site_label
_atom_site_fract_x
_atom_site_fract_y
_atom_site_fract_z
Si Si1 0.852839 0.363054 0.253063
Si Si2 0.619488 0.641522 0.395855
Si Si3 0.808692 0.361998 0.734339
Si Si4 0.419658 0.107096 0.014773
Si Si5 0.418731 0.860998 0.841087
Si Si6 0.079011 0.642451 0.878009
Si Si7 0.291029 0.643209 0.589678
Si Si8 0.128962 0.500000 0.500000
O O1 0.851384 0.250000 0.253726
O O2 0.891560 0.386137 0.320607
O O3 0.771359 0.394323 0.253704
O O4 0.886013 0.396882 0.186015
O O5 0.598475 0.750000 0.405401
O O6 0.705816 0.638831 0.403551
O O7 0.590844 0.567499 0.447770
O O8 0.806611 0.250000 0.739393
O O9 0.866476 0.395306 0.785260
O O10 0.823836 0.380855 0.659479
O O11 0.500000 0.147069 0.018293
O O12 0.384273 0.140826 0.948336
O O13 0.389970 0.120417 0.086365
O O14 0.424589 0.000000 0.000000
O O15 0.500000 0.895273 0.836011
O O16 0.421955 0.750000 0.834990
O O17 0.071549 0.750000 0.863489
O O18 0.000000 0.602227 0.886266
O O19 0.307970 0.750000 0.572513
O O20 0.322920 0.571306 0.540219
#
# Coordination Sequence:
#
# PCOD9505072 Si02
#       8
#    16  16  16  16  16  16  16   8
#     4   8  15  29  46  65  94 126 150 183 236 284
#     4   9  17  28  42  63  93 125 156 194 238 283
#     4   8  15  29  46  65  94 126 150 183 236 284
#     4   9  17  29  44  65  94 122 148 187 238 276
#     4   9  16  28  49  72  89 113 156 199 228 267
#     4   9  16  28  49  72  89 113 156 199 228 267
#     4   9  17  28  42  63  93 125 156 194 238 283
#     4  12  19  26  44  70  95 122 159 196 237 286
#
# _framework density 21.231095
#
# number of rings (size 3 to 8) (size 9 to 14) (size 15 to 20)
#    0.000    3.067    0.000    3.600    0.000    2.667 
#    2.400    0.667    0.000    4.000    0.000    1.867 
#    0.000    6.400    0.000    0.000    0.000    0.000 
#
# Total GULP energy -334355.008990 kJ/mol
# GULP energy per Si atom -5572.583483 kJ/mol
# Density = 2.118277 g / cm^3
# Si number density = 21.231095 Si / 1000 Ang^3
#
#
#
# Elastic Constant Matrix: (Units=GPa)
#
#
# Indices 1 2 3 4 5 6 
#
# 1 27.7670 10.7638 48.7178 0.0000 0.0000 0.0000
# 2 10.7638 79.8080 37.9553 0.0000 0.0000 0.0000
# 3 48.7178 37.9553 199.1871 0.0000 0.0000 0.0000
# 4 0.0000 0.0000 0.0000 -199.5760 0.0000 0.0000
# 5 0.0000 0.0000 0.0000 0.0000 48.0879 0.0000
# 6 0.0000 0.0000 0.0000 0.0000 0.0000 0.3650
#
#
#
# Elastic Compliance Matrix: (Units=1/GPa)
#
#
# Indices 1 2 3 4 5 6 
#
# 1 0.063206 -0.001289 -0.015213 0.000000 0.000000 0.000000
# 2 -0.001289 0.013805 -0.002315 0.000000 0.000000 0.000000
# 3 -0.015213 -0.002315 0.009183 0.000000 0.000000 0.000000
# 4 0.000000 0.000000 0.000000 -0.005011 0.000000 0.000000
# 5 0.000000 0.000000 0.000000 0.000000 0.020795 0.000000
# 6 0.000000 0.000000 0.000000 0.000000 0.000000 2.739818
#
#
# Mechanical properties :
#
#
# Convention : Reuss Voigt Hill
#
# Bulk Modulus (GPa) = 20.59415 55.73733 38.16574
# Shear Modulus (GPa) = 1.72675 -16.26961 -7.27143
#
# Velocity S-wave (km/s) = 0.90282 -2.77123 -1.85266
# Velocity P-wave (km/s) = 3.28753 4.00874 3.66591
#
# Compressibility (1/GPa) = 0.04855747
#
# Stress axis : x y z
#
# Youngs Moduli (GPa) = 15.82129 72.43731 108.90275
#
# Poissons Ratio (x) = 0.09340 1.65678
# Poissons Ratio (y) = 0.02040 0.25213
# Poissons Ratio (z) = 0.24070 0.16771
#
# Static dielectric constant tensor:
#      x y z
#    x 1.757530 0.000000 0.000000 
#    y 0.000000 1.833330 0.000000 
#    z 0.000000 0.000000 1.845760 
# 
# From -- ./inp_files/39367.got.cif
#   From: 2010.05.17/outbox.cif.g08.bks.cpg/sg67_20_cif.got.tgz:39367.got - 2010.06.03 18:28:57.
