data_PCOD9505134
_publ_section_title
;
Structure prediction by ZEFSAII (Michael W. Deem and Ramdas Pophale) SiO2 
 PCOD9505134
Probable space group: C M M A
;
_chemical_formula_sum "Si O2"
_cell_formula_units_Z 96
_cell_length_a 11.946721
_cell_length_b 14.152460
_cell_length_c 26.156779
_cell_angle_alpha 90.000000
_cell_angle_beta 90.000000
_cell_angle_gamma 90.000000
_cell_volume 4422.470255
_symmetry_space_group_name_H-M "C M M A"
_symmetry_group_IT_number 67
_symmetry_cell_setting 'orthorhombic'
loop_
_space_group_symop_operation_xyz
x,y,z
-x,1/2-y,z
x,-y,-z
-x,1/2+y,-z
-x,-y,-z
x,1/2+y,-z
-x,y,z
x,1/2-y,z
1/2+x,1/2+y,z
1/2-x,-y,z
1/2+x,1/2-y,-z
1/2-x,y,-z
1/2-x,1/2-y,-z
1/2+x,y,-z
1/2-x,1/2+y,z
1/2+x,-y,z
loop_
_atom_site_type_symbol
_atom_site_label
_atom_site_fract_x
_atom_site_fract_y
_atom_site_fract_z
Si Si1 0.130192 0.105479 0.478007
Si Si2 0.872001 0.364628 0.358668
Si Si3 0.630407 0.864583 0.840245
Si Si4 0.500000 0.864947 0.099307
Si Si5 0.238415 0.364152 0.259802
Si Si6 0.763878 0.865052 0.941472
Si Si7 0.000000 0.864302 0.785510
O O1 0.250000 0.145623 0.500000
O O2 0.144994 0.105074 0.416857
O O3 0.000000 0.143502 0.487156
O O4 0.125947 0.000000 0.500000
O O5 0.873472 0.250000 0.357835
O O6 0.773552 0.393564 0.319146
O O7 0.000000 0.394096 0.343954
O O8 0.500000 0.884403 0.842349
O O9 0.645468 0.750000 0.839736
O O10 0.680598 0.898229 0.785721
O O11 0.688854 0.896599 0.893077
O O12 0.500000 0.750000 0.100680
O O13 0.611208 0.894129 0.071907
O O14 0.500000 0.898630 0.156947
O O15 0.252055 0.250000 0.260673
O O16 0.114886 0.389522 0.240460
O O17 0.754738 0.750000 0.941531
O O18 0.750000 0.894527 0.000000
O O19 0.000000 0.750000 0.786479
#
# Coordination Sequence:
#
# PCOD9505134 Si02
#       7
#    16  16  16   8  16  16   8
#     4   9  18  33  51  70  94 124 154 183 219 266
#     4   9  16  26  44  69  91 112 145 189 229 266
#     4   9  16  23  29  39  61  93 123 157 212 274
#     4   9  14  20  28  38  50  71 111 160 207 251
#     4   9  14  22  35  51  70  92 122 163 212 261
#     4   9  16  21  26  36  51  76 115 164 211 256
#     4   9  12  18  32  46  59  79 111 154 205 253
#
# _framework density 21.707325000000001
#
# number of rings (size 3 to 8) (size 9 to 14) (size 15 to 20)
#    0.000    3.000    2.500    0.000    1.167    0.333 
#    0.000    0.833    0.000    1.000    0.000    0.000 
#    0.000    0.000    0.000    0.000    0.000    0.000 
#
# Total GULP energy -267271.551662 kJ/mol
# GULP energy per Si atom -5568.157326 kJ/mol
# Density = 2.165792 g / cm^3
# Si number density = 21.707325 Si / 1000 Ang^3
#
#
#
# Elastic Constant Matrix: (Units=GPa)
#
#
# Indices 1 2 3 4 5 6 
#
# 1 120.7728 -0.7711 88.4991 0.0000 0.0000 0.0000
# 2 -0.7711 82.9997 13.5409 0.0000 0.0000 0.0000
# 3 88.4991 13.5409 198.3331 0.0000 0.0000 0.0000
# 4 0.0000 0.0000 0.0000 107.4102 0.0000 0.0000
# 5 0.0000 0.0000 0.0000 0.0000 94.7472 0.0000
# 6 0.0000 0.0000 0.0000 0.0000 0.0000 19.3799
#
#
#
# Elastic Compliance Matrix: (Units=1/GPa)
#
#
# Indices 1 2 3 4 5 6 
#
# 1 0.012389 0.001028 -0.005598 0.000000 0.000000 0.000000
# 2 0.001028 0.012269 -0.001297 0.000000 0.000000 0.000000
# 3 -0.005598 -0.001297 0.007629 0.000000 0.000000 0.000000
# 4 0.000000 0.000000 0.000000 0.009310 0.000000 0.000000
# 5 0.000000 0.000000 0.000000 0.000000 0.010554 0.000000
# 6 0.000000 0.000000 0.000000 0.000000 0.000000 0.051600
#
#
# Mechanical properties :
#
#
# Convention : Reuss Voigt Hill
#
# Bulk Modulus (GPa) = 48.65262 67.18259 57.91761
# Shear Modulus (GPa) = 40.87129 64.36324 52.61726
#
# Velocity S-wave (km/s) = 4.34387 5.45113 4.92869
# Velocity P-wave (km/s) = 6.90077 8.40454 7.68950
#
# Compressibility (1/GPa) = 0.02055388
#
# Stress axis : x y z
#
# Youngs Moduli (GPa) = 80.71758 81.50416 131.08576
#
# Poissons Ratio (x) = -0.08382 0.73386
# Poissons Ratio (y) = -0.08301 0.16996
# Poissons Ratio (z) = 0.45188 0.10568
#
# Static dielectric constant tensor:
#      x y z
#    x 1.787860 0.000000 0.000000 
#    y 0.000000 1.834050 0.000000 
#    z 0.000000 0.000000 1.855780 
# 
# From -- ./inp_files/44091.got.cif
#   From: 2010.05.17/outbox.cif.g08.bks.cpg/sg67_23_cif.got.tgz:44091.got - 2010.06.03 18:28:57.
