data_PCOD9505497
_publ_section_title
;
Structure prediction by ZEFSAII (Michael W. Deem and Ramdas Pophale) SiO2 
 PCOD9505497
Probable space group: C C C A
;
_chemical_formula_sum "Si O2"
_cell_formula_units_Z 72
_cell_length_a 10.928843
_cell_length_b 15.581269
_cell_length_c 22.170122
_cell_angle_alpha 90.000000
_cell_angle_beta 90.000000
_cell_angle_gamma 90.000000
_cell_volume 3775.244604
_symmetry_space_group_name_H-M "C C C A"
_symmetry_group_IT_number 68
_space_group.IT_coordinate_system_code '2'
_symmetry_cell_setting 'orthorhombic'
loop_
_space_group_symop_operation_xyz
x,y,z
-x,1/2-y,z
x,1/2-y,1/2-z
-x,y,1/2-z
-x,-y,-z
x,1/2+y,-z
-x,1/2+y,1/2+z
x,-y,1/2+z
1/2+x,1/2+y,z
1/2-x,-y,z
1/2+x,-y,1/2-z
1/2-x,1/2+y,1/2-z
1/2-x,1/2-y,-z
1/2+x,y,-z
1/2-x,y,1/2+z
1/2+x,1/2-y,1/2+z
loop_
_atom_site_type_symbol
_atom_site_label
_atom_site_fract_x
_atom_site_fract_y
_atom_site_fract_z
Si Si1 0.812658 0.413342 0.120635
Si Si2 0.500000 0.750000 0.596154
Si Si3 0.280479 0.762112 0.819829
Si Si4 0.182630 0.159265 0.511353
Si Si5 0.933139 0.842905 0.613696
O O1 0.750000 0.500000 0.141928
O O2 0.759011 0.330954 0.154915
O O3 0.958100 0.407963 0.127998
O O4 0.773824 0.398303 0.050700
O O5 0.395915 0.711245 0.639515
O O6 0.565478 0.680823 0.553165
O O7 0.308426 0.750000 0.750000
O O8 0.165336 0.823626 0.834236
O O9 0.250000 0.250000 0.500000
O O10 0.137468 0.128946 0.446528
O O11 0.000000 0.750000 0.600951
#
# Coordination Sequence:
#
# PCOD9505497 Si02
#       5
#    16   8  16  16  16
#     4  10  22  35  55  85 118 146 186 254 310 336
#     4  10  17  30  58  88 107 140 200 248 282 336
#     4  10  21  36  61  82 109 159 210 236 282 368
#     4  11  16  32  58  85 111 151 192 236 290 367
#     4  10  18  32  56  85 107 149 201 233 288 361
#
# _framework density 19.071611000000001
#
# number of rings (size 3 to 8) (size 9 to 14) (size 15 to 20)
#    0.000    1.778    7.778    0.333    0.000    4.889 
#    0.000    0.000   19.556    0.000    0.000    0.000 
#    0.000    0.000    0.000    0.000    0.000    0.000 
#
# Total GULP energy -200780.995237 kJ/mol
# GULP energy per Si atom -5577.249868 kJ/mol
# Density = 1.902820 g / cm^3
# Si number density = 19.071611 Si / 1000 Ang^3
#
#
#
# Elastic Constant Matrix: (Units=GPa)
#
#
# Indices 1 2 3 4 5 6 
#
# 1 105.6491 31.0437 12.1081 0.0000 0.0000 0.0000
# 2 31.0437 45.2297 0.4865 0.0000 0.0000 0.0000
# 3 12.1081 0.4865 73.3288 0.0000 0.0000 0.0000
# 4 0.0000 0.0000 0.0000 9.2106 0.0000 0.0000
# 5 0.0000 0.0000 0.0000 0.0000 22.3664 0.0000
# 6 0.0000 0.0000 0.0000 0.0000 0.0000 26.4638
#
#
#
# Elastic Compliance Matrix: (Units=1/GPa)
#
#
# Indices 1 2 3 4 5 6 
#
# 1 0.012128 -0.008303 -0.001948 0.000000 0.000000 0.000000
# 2 -0.008303 0.027796 0.001187 0.000000 0.000000 0.000000
# 3 -0.001948 0.001187 0.013951 0.000000 0.000000 0.000000
# 4 0.000000 0.000000 0.000000 0.108571 0.000000 0.000000
# 5 0.000000 0.000000 0.000000 0.000000 0.044710 0.000000
# 6 0.000000 0.000000 0.000000 0.000000 0.000000 0.037787
#
#
# Mechanical properties :
#
#
# Convention : Reuss Voigt Hill
#
# Bulk Modulus (GPa) = 27.97491 34.60936 31.29213
# Shear Modulus (GPa) = 18.18264 23.64611 20.91437
#
# Velocity S-wave (km/s) = 3.09105 3.52498 3.31512
# Velocity P-wave (km/s) = 5.23828 5.89523 5.57644
#
# Compressibility (1/GPa) = 0.03574632
#
# Stress axis : x y z
#
# Youngs Moduli (GPa) = 82.45127 35.97672 71.67993
#
# Poissons Ratio (x) = 0.29873 0.13960
# Poissons Ratio (y) = 0.68463 -0.08506
# Poissons Ratio (z) = 0.16058 -0.04269
#
# Static dielectric constant tensor:
#      x y z
#    x 1.709990 0.000000 0.000000 
#    y 0.000000 1.653110 0.000000 
#    z 0.000000 0.000000 1.670990 
# 
# From -- ./inp_files/44022.got.cif
#   From: 2010.05.17/outbox.cif.g08.bks.cpg/sg68_23_cif.got.tgz:44022.got - 2010.06.03 18:57:09.
