data_PCOD9505777
_publ_section_title
;
Structure prediction by ZEFSAII (Michael W. Deem and Ramdas Pophale) SiO2 
 PCOD9505777
Probable space group: C C C A
;
_chemical_formula_sum "Si O2"
_cell_formula_units_Z 92
_cell_length_a 9.629788
_cell_length_b 27.076128
_cell_length_c 14.590154
_cell_angle_alpha 90.000000
_cell_angle_beta 90.000000
_cell_angle_gamma 90.000000
_cell_volume 3804.198418
_symmetry_space_group_name_H-M "C C C A"
_symmetry_group_IT_number 68
_space_group.IT_coordinate_system_code '2'
_symmetry_cell_setting 'orthorhombic'
loop_
_space_group_symop_operation_xyz
x,y,z
-x,1/2-y,z
x,1/2-y,1/2-z
-x,y,1/2-z
-x,-y,-z
x,1/2+y,-z
-x,1/2+y,1/2+z
x,-y,1/2+z
1/2+x,1/2+y,z
1/2-x,-y,z
1/2+x,-y,1/2-z
1/2-x,1/2+y,1/2-z
1/2-x,1/2-y,-z
1/2+x,y,-z
1/2-x,y,1/2+z
1/2+x,1/2-y,1/2+z
loop_
_atom_site_type_symbol
_atom_site_label
_atom_site_fract_x
_atom_site_fract_y
_atom_site_fract_z
Si Si1 0.500000 0.750000 0.750000
Si Si2 0.750000 0.500000 0.532266
Si Si3 0.516642 0.412743 0.356604
Si Si4 0.986663 0.028123 0.111132
Si Si5 0.480547 0.804970 0.137333
Si Si6 0.812264 0.335544 0.657303
Si Si7 0.689486 0.884308 0.157146
O O1 0.403240 0.787860 0.690507
O O2 0.872471 0.474878 0.471936
O O3 0.649576 0.462406 0.588589
O O4 0.500000 0.399072 0.250000
O O5 0.504758 0.471588 0.356581
O O6 0.402965 0.375943 0.396669
O O7 0.669077 0.400257 0.392096
O O8 0.909037 0.068270 0.172380
O O9 0.500000 0.750000 0.103746
O O10 0.500000 0.803786 0.250000
O O11 0.327103 0.819664 0.107286
O O12 0.596108 0.843819 0.107875
O O13 0.744909 0.361226 0.748114
#
# Coordination Sequence:
#
# PCOD9505777 Si02
#       7
#     4   8  16  16  16  16  16
#     4  12  16  32  54  72 124 160 190 220 262 356
#     4  10  24  40  60  80 104 156 198 248 284 334
#     4  10  20  35  52  85 117 153 180 222 291 351
#     4  11  22  41  60  80 118 144 200 240 291 345
#     4   9  18  30  47  75 114 149 186 225 271 333
#     4  10  20  30  52  82 116 154 191 218 281 350
#     4  10  18  35  51  78 109 150 177 231 277 334
#
# _framework density 24.183807999999999
#
# number of rings (size 3 to 8) (size 9 to 14) (size 15 to 20)
#    0.000    1.913    4.348    2.087    2.435    2.087 
#    3.130    0.000    0.000    0.000    0.000    1.217 
#   10.435    0.174    0.000    0.000    0.000    0.000 
#
# Total GULP energy -256403.381078 kJ/mol
# GULP energy per Si atom -5573.986545 kJ/mol
# Density = 2.412876 g / cm^3
# Si number density = 24.183808 Si / 1000 Ang^3
#
#
#
# Elastic Constant Matrix: (Units=GPa)
#
#
# Indices 1 2 3 4 5 6 
#
# 1 243.1449 109.4362 21.4867 0.0000 0.0000 0.0000
# 2 109.4362 187.6368 12.1505 0.0000 0.0000 0.0000
# 3 21.4867 12.1505 33.4375 0.0000 0.0000 0.0000
# 4 0.0000 0.0000 0.0000 58.1408 0.0000 0.0000
# 5 0.0000 0.0000 0.0000 0.0000 -1.4429 0.0000
# 6 0.0000 0.0000 0.0000 0.0000 0.0000 56.8708
#
#
#
# Elastic Compliance Matrix: (Units=1/GPa)
#
#
# Indices 1 2 3 4 5 6 
#
# 1 0.005781 -0.003207 -0.002550 0.000000 0.000000 0.000000
# 2 -0.003207 0.007237 -0.000569 0.000000 0.000000 0.000000
# 3 -0.002550 -0.000569 0.031752 0.000000 0.000000 0.000000
# 4 0.000000 0.000000 0.000000 0.017200 0.000000 0.000000
# 5 0.000000 0.000000 0.000000 0.000000 -0.693070 0.000000
# 6 0.000000 0.000000 0.000000 0.000000 0.000000 0.017584
#
#
# Mechanical properties :
#
#
# Convention : Reuss Voigt Hill
#
# Bulk Modulus (GPa) = 31.13459 83.37400 57.25429
# Shear Modulus (GPa) = -8.47229 44.12349 17.82560
#
# Velocity S-wave (km/s) = -1.87374 4.27606 2.71788
# Velocity P-wave (km/s) = 2.86721 7.67656 5.79441
#
# Compressibility (1/GPa) = 0.03211862
#
# Stress axis : x y z
#
# Youngs Moduli (GPa) = 172.96706 138.18610 31.49432
#
# Poissons Ratio (x) = 0.44314 0.08030
# Poissons Ratio (y) = 0.55467 0.01792
# Poissons Ratio (z) = 0.44103 0.07862
#
# Static dielectric constant tensor:
#      x y z
#    x 1.969120 0.000000 0.000000 
#    y 0.000000 1.977910 0.000000 
#    z 0.000000 0.000000 2.071140 
# 
# From -- ./inp_files/36318.got.cif
#   From: 2010.05.17/outbox.cif.g08.bks.cpg/sg68_19_cif.got.tgz:36318.got - 2010.06.03 18:57:09.
