data_PCOD9505052
_publ_section_title
;
Structure prediction by ZEFSAII (Michael W. Deem and Ramdas Pophale) SiO2 
 PCOD9505052
Probable space group: C M M A
;
_chemical_formula_sum "Si O2"
_cell_formula_units_Z 88
_cell_length_a 24.912974
_cell_length_b 14.481422
_cell_length_c 12.534293
_cell_angle_alpha 90.000000
_cell_angle_beta 90.000000
_cell_angle_gamma 90.000000
_cell_volume 4522.063189
_symmetry_space_group_name_H-M "C M M A"
_symmetry_group_IT_number 67
_symmetry_cell_setting 'orthorhombic'
loop_
_space_group_symop_operation_xyz
x,y,z
-x,1/2-y,z
x,-y,-z
-x,1/2+y,-z
-x,-y,-z
x,1/2+y,-z
-x,y,z
x,1/2-y,z
1/2+x,1/2+y,z
1/2-x,-y,z
1/2+x,1/2-y,-z
1/2-x,y,-z
1/2-x,1/2-y,-z
1/2+x,y,-z
1/2-x,1/2+y,z
1/2+x,-y,z
loop_
_atom_site_type_symbol
_atom_site_label
_atom_site_fract_x
_atom_site_fract_y
_atom_site_fract_z
Si Si1 0.564737 0.858578 0.850478
Si Si2 0.440480 0.360120 0.390810
Si Si3 0.293786 0.647931 0.092984
Si Si4 0.871495 0.000000 0.000000
Si Si5 0.168099 0.891043 0.493845
Si Si6 0.253455 0.611463 0.324241
O O1 0.500000 0.862073 0.862953
O O2 0.580654 0.750000 0.863027
O O3 0.576177 0.890561 0.728438
O O4 0.593717 0.927532 0.931366
O O5 0.500000 0.396751 0.416297
O O6 0.444956 0.250000 0.381182
O O7 0.394520 0.377176 0.476598
O O8 0.319661 0.750000 0.083743
O O9 0.262988 0.643854 0.205171
O O10 0.250000 0.639680 0.000000
O O11 0.334614 0.563461 0.076970
O O12 0.200869 0.857280 0.389901
O O13 0.196746 0.857451 0.601048
O O14 0.177348 0.000000 0.500000
O O15 0.250000 0.500000 0.318481
#
# Coordination Sequence:
#
# PCOD9505052 Si02
#       6
#    16  16  16   8  16  16
#     4   9  20  38  60  88 117 149 198 249 292 351
#     4   9  19  35  55  82 113 146 191 244 293 346
#     4  11  25  39  55  85 120 157 199 239 288 354
#     4  12  22  36  62  84 114 160 194 242 302 344
#     4   9  19  33  59  84 111 149 188 237 291 346
#     4   9  19  37  55  83 117 149 191 240 290 350
#
# _framework density 19.460142999999999
#
# number of rings (size 3 to 8) (size 9 to 14) (size 15 to 20)
#    0.000    2.364    0.000    4.364    7.636    1.818 
#    0.000    1.818    0.000    0.000    0.000    2.545 
#    0.000    0.000    0.000    0.000    0.000    0.000 
#
# Total GULP energy -245403.078866 kJ/mol
# GULP energy per Si atom -5577.342701 kJ/mol
# Density = 1.941585 g / cm^3
# Si number density = 19.460143 Si / 1000 Ang^3
#
#
#
# Elastic Constant Matrix: (Units=GPa)
#
#
# Indices 1 2 3 4 5 6 
#
# 1 88.3016 18.6404 61.4209 0.0000 0.0000 0.0000
# 2 18.6404 94.3626 17.6321 0.0000 0.0000 0.0000
# 3 61.4209 17.6321 126.6818 0.0000 0.0000 0.0000
# 4 0.0000 0.0000 0.0000 -629.0137 0.0000 0.0000
# 5 0.0000 0.0000 0.0000 0.0000 19.3626 0.0000
# 6 0.0000 0.0000 0.0000 0.0000 0.0000 29.5163
#
#
#
# Elastic Compliance Matrix: (Units=1/GPa)
#
#
# Indices 1 2 3 4 5 6 
#
# 1 0.017417 -0.001912 -0.008179 0.000000 0.000000 0.000000
# 2 -0.001912 0.011090 -0.000616 0.000000 0.000000 0.000000
# 3 -0.008179 -0.000616 0.011945 0.000000 0.000000 0.000000
# 4 0.000000 0.000000 0.000000 -0.001590 0.000000 0.000000
# 5 0.000000 0.000000 0.000000 0.000000 0.051646 0.000000
# 6 0.000000 0.000000 0.000000 0.000000 0.000000 0.033880
#
#
# Mechanical properties :
#
#
# Convention : Reuss Voigt Hill
#
# Bulk Modulus (GPa) = 52.52661 56.08142 54.30401
# Shear Modulus (GPa) = 32.86256 -101.91676 -34.52710
#
# Velocity S-wave (km/s) = 4.11385 -7.24470 -4.21675
# Velocity P-wave (km/s) = 7.04383 6.41091 2.06346
#
# Compressibility (1/GPa) = 0.01903797
#
# Stress axis : x y z
#
# Youngs Moduli (GPa) = 57.41404 90.16830 83.71792
#
# Poissons Ratio (x) = 0.17244 0.68469
# Poissons Ratio (y) = 0.10980 0.05160
# Poissons Ratio (z) = 0.46956 0.05558
#
# Static dielectric constant tensor:
#      x y z
#    x 1.738380 0.000000 0.000000 
#    y 0.000000 1.707640 0.000000 
#    z 0.000000 0.000000 1.678240 
# 
# From -- ./inp_files/21752.got.cif
#   From: 2010.05.17/outbox.cif.g08.bks.cpg/sg67_11_cif.got.tgz:21752.got - 2010.06.03 18:28:57.
