data_PCOD9505791
_publ_section_title
;
Structure prediction by ZEFSAII (Michael W. Deem and Ramdas Pophale) SiO2 
 PCOD9505791
Probable space group: C C C A
;
_chemical_formula_sum "Si O2"
_cell_formula_units_Z 100
_cell_length_a 15.410422
_cell_length_b 29.936966
_cell_length_c 11.599079
_cell_angle_alpha 90.000000
_cell_angle_beta 90.000000
_cell_angle_gamma 90.000000
_cell_volume 5351.133946
_symmetry_space_group_name_H-M "C C C A"
_symmetry_group_IT_number 68
_space_group.IT_coordinate_system_code '2'
_symmetry_cell_setting 'orthorhombic'
loop_
_space_group_symop_operation_xyz
x,y,z
-x,1/2-y,z
x,1/2-y,1/2-z
-x,y,1/2-z
-x,-y,-z
x,1/2+y,-z
-x,1/2+y,1/2+z
x,-y,1/2+z
1/2+x,1/2+y,z
1/2-x,-y,z
1/2+x,-y,1/2-z
1/2-x,1/2+y,1/2-z
1/2-x,1/2-y,-z
1/2+x,y,-z
1/2-x,y,1/2+z
1/2+x,1/2-y,1/2+z
loop_
_atom_site_type_symbol
_atom_site_label
_atom_site_fract_x
_atom_site_fract_y
_atom_site_fract_z
Si Si1 0.428035 0.669297 0.878982
Si Si2 0.593787 0.078329 0.228628
Si Si3 0.247232 0.450731 0.885866
Si Si4 0.899150 0.099777 0.278274
Si Si5 0.500000 0.750000 0.750000
Si Si6 0.108270 0.363151 0.526072
Si Si7 0.796580 0.632786 0.946565
O O1 0.410612 0.627358 0.792272
O O2 0.437053 0.716601 0.818917
O O3 0.522725 0.661897 0.934139
O O4 0.355961 0.664338 0.975930
O O5 0.500000 0.056784 0.250000
O O6 0.673332 0.053219 0.286903
O O7 0.602345 0.089113 0.093537
O O8 0.250000 0.500000 0.937268
O O9 0.338996 0.440318 0.824867
O O10 0.222545 0.412367 0.978462
O O11 0.895357 0.132492 0.388844
O O12 0.848229 0.119896 0.168586
O O13 0.000000 0.090074 0.250000
O O14 0.201498 0.345934 0.568883
#
# Coordination Sequence:
#
# PCOD9505791 Si02
#       7
#    16  16  16  16   4  16  16
#     4  10  20  35  61  90 116 148 196 244 293 359
#     4   9  17  35  59  83 113 157 201 241 295 361
#     4  10  22  37  56  84 118 159 205 259 300 342
#     4  11  21  35  58  83 115 155 206 245 296 359
#     4  12  20  36  68  94 120 142 196 252 302 348
#     4  10  18  35  61  85 111 160 202 235 290 361
#     4  10  21  38  58  83 117 160 202 240 296 367
#
# _framework density 18.687626999999999
#
# number of rings (size 3 to 8) (size 9 to 14) (size 15 to 20)
#    0.000    1.920    5.600    0.000    0.000    1.280 
#    0.000    1.600    0.000    1.920    0.000    0.000 
#    0.000    0.000    0.000    0.000    0.000    0.000 
#
# Total GULP energy -278534.998347 kJ/mol
# GULP energy per Si atom -5570.699967 kJ/mol
# Density = 1.864509 g / cm^3
# Si number density = 18.687627 Si / 1000 Ang^3
#
#
#
# Elastic Constant Matrix: (Units=GPa)
#
#
# Indices 1 2 3 4 5 6 
#
# 1 169.2559 24.0974 44.7974 0.0000 0.0000 0.0000
# 2 24.0974 71.8162 17.9494 0.0000 0.0000 0.0000
# 3 44.7974 17.9494 98.9348 0.0000 0.0000 0.0000
# 4 0.0000 0.0000 0.0000 8.8751 0.0000 0.0000
# 5 0.0000 0.0000 0.0000 0.0000 37.8522 0.0000
# 6 0.0000 0.0000 0.0000 0.0000 0.0000 11.4559
#
#
#
# Elastic Compliance Matrix: (Units=1/GPa)
#
#
# Indices 1 2 3 4 5 6 
#
# 1 0.006885 -0.001604 -0.002826 0.000000 0.000000 0.000000
# 2 -0.001604 0.014959 -0.001988 0.000000 0.000000 0.000000
# 3 -0.002826 -0.001988 0.011748 0.000000 0.000000 0.000000
# 4 0.000000 0.000000 0.000000 0.112675 0.000000 0.000000
# 5 0.000000 0.000000 0.000000 0.000000 0.026419 0.000000
# 6 0.000000 0.000000 0.000000 0.000000 0.000000 0.087291
#
#
# Mechanical properties :
#
#
# Convention : Reuss Voigt Hill
#
# Bulk Modulus (GPa) = 48.17839 57.07726 52.62782
# Shear Modulus (GPa) = 17.87428 28.51415 23.19422
#
# Velocity S-wave (km/s) = 3.09605 3.91043 3.52682
# Velocity P-wave (km/s) = 6.21430 7.14127 6.69385
#
# Compressibility (1/GPa) = 0.02075620
#
# Stress axis : x y z
#
# Youngs Moduli (GPa) = 145.25182 66.84767 85.12021
#
# Poissons Ratio (x) = 0.10720 0.24058
# Poissons Ratio (y) = 0.23294 0.16921
# Poissons Ratio (z) = 0.41054 0.13289
#
# Static dielectric constant tensor:
#      x y z
#    x 1.681550 0.000000 0.000000 
#    y 0.000000 1.628140 0.000000 
#    z 0.000000 0.000000 1.691900 
# 
# From -- ./inp_files/13552.got.cif
#   From: 2010.05.17/outbox.cif.g08.bks.cpg/sg68_7_cif.got.tgz:13552.got - 2010.06.03 18:57:09.
