data_PCOD9505056
_publ_section_title
;
Structure prediction by ZEFSAII (Michael W. Deem and Ramdas Pophale) SiO2 
 PCOD9505056
Probable space group: C M M A
;
_chemical_formula_sum "Si O2"
_cell_formula_units_Z 72
_cell_length_a 14.877707
_cell_length_b 27.402345
_cell_length_c 8.968947
_cell_angle_alpha 90.000000
_cell_angle_beta 90.000000
_cell_angle_gamma 90.000000
_cell_volume 3656.496727
_symmetry_space_group_name_H-M "C M M A"
_symmetry_group_IT_number 67
_symmetry_cell_setting 'orthorhombic'
loop_
_space_group_symop_operation_xyz
x,y,z
-x,1/2-y,z
x,-y,-z
-x,1/2+y,-z
-x,-y,-z
x,1/2+y,-z
-x,y,z
x,1/2-y,z
1/2+x,1/2+y,z
1/2-x,-y,z
1/2+x,1/2-y,-z
1/2-x,y,-z
1/2-x,1/2-y,-z
1/2+x,y,-z
1/2-x,1/2+y,z
1/2+x,-y,z
loop_
_atom_site_type_symbol
_atom_site_label
_atom_site_fract_x
_atom_site_fract_y
_atom_site_fract_z
Si Si1 0.832619 0.560168 0.385531
Si Si2 0.157528 0.806855 0.594010
Si Si3 0.392669 0.023207 0.837463
Si Si4 0.500000 0.619407 0.501884
Si Si5 0.220456 0.621463 0.832703
O O1 0.750000 0.556388 0.500000
O O2 0.853297 0.511841 0.289862
O O3 0.920955 0.578186 0.468891
O O4 0.803590 0.600900 0.263834
O O5 0.134249 0.750000 0.605548
O O6 0.250000 0.810939 0.500000
O O7 0.079002 0.838950 0.522944
O O8 0.178609 0.831976 0.752379
O O9 0.500000 0.025918 0.823038
O O10 0.350147 0.076697 0.830879
O O11 0.371370 0.000000 0.000000
O O12 0.250000 0.631301 0.000000
#
# Coordination Sequence:
#
# PCOD9505056 Si02
#       5
#    16  16  16   8  16
#     4  12  24  43  68 102 138 186 234 282 341 416
#     4  11  25  47  72  97 129 176 232 290 351 409
#     4  11  25  42  66 101 142 191 231 279 341 413
#     4  12  21  46  70 100 133 168 234 289 349 399
#     4  12  24  43  67  99 141 183 224 283 350 413
#
# _framework density 19.690978999999999
#
# number of rings (size 3 to 8) (size 9 to 14) (size 15 to 20)
#    0.000    0.444    7.778    1.000    1.556    3.111 
#    0.000    2.222    0.000    0.000    0.000    0.000 
#    0.000    0.000    0.000    0.000    0.000    0.000 
#
# Total GULP energy -200522.388091 kJ/mol
# GULP energy per Si atom -5570.066336 kJ/mol
# Density = 1.964616 g / cm^3
# Si number density = 19.690979 Si / 1000 Ang^3
#
#
#
# Elastic Constant Matrix: (Units=GPa)
#
#
# Indices 1 2 3 4 5 6 
#
# 1 164.8649 57.0082 62.4286 0.0000 0.0000 0.0000
# 2 57.0082 137.5408 70.9172 0.0000 0.0000 0.0000
# 3 62.4286 70.9172 116.5112 0.0000 0.0000 0.0000
# 4 0.0000 0.0000 0.0000 27.1455 0.0000 0.0000
# 5 0.0000 0.0000 0.0000 0.0000 13.6984 0.0000
# 6 0.0000 0.0000 0.0000 0.0000 0.0000 35.0139
#
#
#
# Elastic Compliance Matrix: (Units=1/GPa)
#
#
# Indices 1 2 3 4 5 6 
#
# 1 0.007838 -0.001579 -0.003239 0.000000 0.000000 0.000000
# 2 -0.001579 0.010914 -0.005797 0.000000 0.000000 0.000000
# 3 -0.003239 -0.005797 0.013847 0.000000 0.000000 0.000000
# 4 0.000000 0.000000 0.000000 0.036838 0.000000 0.000000
# 5 0.000000 0.000000 0.000000 0.000000 0.073001 0.000000
# 6 0.000000 0.000000 0.000000 0.000000 0.000000 0.028560
#
#
# Mechanical properties :
#
#
# Convention : Reuss Voigt Hill
#
# Bulk Modulus (GPa) = 87.95504 88.84723 88.40113
# Shear Modulus (GPa) = 25.50795 30.40910 27.95852
#
# Velocity S-wave (km/s) = 3.60309 3.93404 3.77220
# Velocity P-wave (km/s) = 7.87873 8.11507 7.99777
#
# Compressibility (1/GPa) = 0.01136945
#
# Stress axis : x y z
#
# Youngs Moduli (GPa) = 127.58562 91.62554 72.21893
#
# Poissons Ratio (x) = 0.14465 0.23390
# Poissons Ratio (y) = 0.20143 0.41866
# Poissons Ratio (z) = 0.41321 0.53117
#
# Static dielectric constant tensor:
#      x y z
#    x 1.685570 0.000000 0.000000 
#    y 0.000000 1.684110 0.000000 
#    z 0.000000 0.000000 1.727450 
# 
# From -- ./inp_files/8266.got.cif
#   From: 2010.05.17/outbox.cif.g08.bks.cpg/sg67_5_cif.got.tgz:8266.got - 2010.06.03 18:28:57.
