data_PCOD9505314
_publ_section_title
;
Structure prediction by ZEFSAII (Michael W. Deem and Ramdas Pophale) SiO2 
 PCOD9505314
Probable space group: C C C A
;
_chemical_formula_sum "Si O2"
_cell_formula_units_Z 80
_cell_length_a 8.043688
_cell_length_b 29.859651
_cell_length_c 13.979878
_cell_angle_alpha 90.000000
_cell_angle_beta 90.000000
_cell_angle_gamma 90.000000
_cell_volume 3357.711094
_symmetry_space_group_name_H-M "C C C A"
_symmetry_group_IT_number 68
_space_group.IT_coordinate_system_code '2'
_symmetry_cell_setting 'orthorhombic'
loop_
_space_group_symop_operation_xyz
x,y,z
-x,1/2-y,z
x,1/2-y,1/2-z
-x,y,1/2-z
-x,-y,-z
x,1/2+y,-z
-x,1/2+y,1/2+z
x,-y,1/2+z
1/2+x,1/2+y,z
1/2-x,-y,z
1/2+x,-y,1/2-z
1/2-x,1/2+y,1/2-z
1/2-x,1/2-y,-z
1/2+x,y,-z
1/2-x,y,1/2+z
1/2+x,1/2-y,1/2+z
loop_
_atom_site_type_symbol
_atom_site_label
_atom_site_fract_x
_atom_site_fract_y
_atom_site_fract_z
Si Si1 0.262037 0.906469 0.181319
Si Si2 0.724014 0.688634 0.914780
Si Si3 0.500000 0.250000 0.946889
Si Si4 0.250000 0.500000 0.593284
Si Si5 0.879014 0.593945 0.902947
Si Si6 0.500000 0.975166 0.750000
Si Si7 0.500000 0.660379 0.750000
O O1 0.419265 0.906130 0.109676
O O2 0.325863 0.903971 0.291305
O O3 0.142996 0.949410 0.190343
O O4 0.121916 0.867894 0.179464
O O5 0.796624 0.639619 0.943929
O O6 0.614695 0.686269 0.821107
O O7 0.881077 0.718410 0.888913
O O8 0.614305 0.715651 0.991674
O O9 0.207784 0.549329 0.549640
O O10 0.405996 0.501109 0.664918
#
# Coordination Sequence:
#
# PCOD9505314 Si02
#       7
#    16  16   8   8  16   8   8
#     4   8  15  27  47  81 121 157 192 241 303 355
#     4  10  22  42  65  89 119 157 204 254 301 358
#     4  10  24  45  66  87 118 164 206 242 308 376
#     4  10  16  24  44  78 118 158 198 238 294 356
#     4   9  17  30  51  81 118 156 197 245 297 357
#     4   9  14  22  38  69 122 168 190 225 294 371
#     4   9  18  35  62  93 122 152 200 261 306 344
#
# _framework density 23.825755000000001
#
# number of rings (size 3 to 8) (size 9 to 14) (size 15 to 20)
#    0.000    2.800    0.000    3.600    0.000    3.600 
#    0.000    6.000    0.000    1.200    0.000    0.000 
#    0.000    0.000    0.000    0.000    0.000    0.000 
#
# Total GULP energy -222789.340070 kJ/mol
# GULP energy per Si atom -5569.733502 kJ/mol
# Density = 2.377153 g / cm^3
# Si number density = 23.825755 Si / 1000 Ang^3
#
#
#
# Elastic Constant Matrix: (Units=GPa)
#
#
# Indices 1 2 3 4 5 6 
#
# 1 167.8551 82.2293 36.2053 0.0000 0.0000 0.0000
# 2 82.2293 158.8487 30.2012 0.0000 0.0000 0.0000
# 3 36.2053 30.2012 35.3993 0.0000 0.0000 0.0000
# 4 0.0000 0.0000 0.0000 16.2355 0.0000 0.0000
# 5 0.0000 0.0000 0.0000 0.0000 8.7481 0.0000
# 6 0.0000 0.0000 0.0000 0.0000 0.0000 30.0701
#
#
#
# Elastic Compliance Matrix: (Units=1/GPa)
#
#
# Indices 1 2 3 4 5 6 
#
# 1 0.009007 -0.003475 -0.006248 0.000000 0.000000 0.000000
# 2 -0.003475 0.008855 -0.004000 0.000000 0.000000 0.000000
# 3 -0.006248 -0.004000 0.038052 0.000000 0.000000 0.000000
# 4 0.000000 0.000000 0.000000 0.061593 0.000000 0.000000
# 5 0.000000 0.000000 0.000000 0.000000 0.114311 0.000000
# 6 0.000000 0.000000 0.000000 0.000000 0.000000 0.033256
#
#
# Mechanical properties :
#
#
# Convention : Reuss Voigt Hill
#
# Bulk Modulus (GPa) = 35.12717 73.26386 54.19552
# Shear Modulus (GPa) = 16.55575 25.24189 20.89882
#
# Velocity S-wave (km/s) = 2.63889 3.25843 2.96489
# Velocity P-wave (km/s) = 4.90514 6.70620 5.87510
#
# Compressibility (1/GPa) = 0.02846799
#
# Stress axis : x y z
#
# Youngs Moduli (GPa) = 111.01933 112.93441 26.27959
#
# Poissons Ratio (x) = 0.39243 0.16419
# Poissons Ratio (y) = 0.38578 0.10513
# Poissons Ratio (z) = 0.69364 0.45179
#
# Static dielectric constant tensor:
#      x y z
#    x 1.925560 0.000000 0.000000 
#    y 0.000000 2.031340 0.000000 
#    z 0.000000 0.000000 1.960460 
# 
# From -- ./inp_files/36653.got.cif
#   From: 2010.05.17/outbox.cif.g08.bks.cpg/sg68_19_cif.got.tgz:36653.got - 2010.06.03 18:57:09.
