data_PCOD9505229
_publ_section_title
;
Structure prediction by ZEFSAII (Michael W. Deem and Ramdas Pophale) SiO2 
 PCOD9505229
Probable space group: C M M A
;
_chemical_formula_sum "Si O2"
_cell_formula_units_Z 44
_cell_length_a 9.000000
_cell_length_b 30.000000
_cell_length_c 18.000000
_cell_angle_alpha 90.000000
_cell_angle_beta 90.000000
_cell_angle_gamma 90.000000
_cell_volume 4860.000000
_symmetry_space_group_name_H-M "C M M A"
_symmetry_group_IT_number 67
_symmetry_cell_setting 'orthorhombic'
loop_
_space_group_symop_operation_xyz
x,y,z
-x,1/2-y,z
x,-y,-z
-x,1/2+y,-z
-x,-y,-z
x,1/2+y,-z
-x,y,z
x,1/2-y,z
1/2+x,1/2+y,z
1/2-x,-y,z
1/2+x,1/2-y,-z
1/2-x,y,-z
1/2-x,1/2-y,-z
1/2+x,y,-z
1/2-x,1/2+y,z
1/2+x,-y,z
loop_
_atom_site_type_symbol
_atom_site_label
_atom_site_fract_x
_atom_site_fract_y
_atom_site_fract_z
Si Si1 0.173527 0.929822 0.424103
Si Si2 0.173990 0.250000 0.421365
Si Si3 0.677859 0.200108 0.920468
Si Si4 0.679263 0.545823 0.743877
Si Si5 0.321165 0.131624 0.792797
Si Si6 0.674415 0.664910 0.642169
O O1 0.250000 0.944766 0.500000
O O2 0.225340 0.947331 0.343414
O O3 0.190167 0.876460 0.414293
O O4 0.000000 0.940592 0.429868
O O5 0.250000 0.250000 0.500000
O O6 0.230550 0.206472 0.381176
O O7 0.000000 0.250000 0.428953
O O8 0.500000 0.199562 0.928345
O O9 0.720797 0.250000 0.894556
O O10 0.718043 0.162697 0.861662
O O11 0.750000 0.192554 0.000000
O O12 0.500000 0.548023 0.746009
O O13 0.750000 0.500000 0.767523
O O14 0.753228 0.582736 0.795743
O O15 0.500000 0.131042 0.783452
O O16 0.239126 0.150284 0.720578
O O17 0.500000 0.675360 0.646975
#
# Coordination Sequence:
#
# PCOD9505229 Si02
#       6
#    16   8  16  16  16  16
#     4   9  19  33  50  71  99 132 172 222 273 327
#     4  12  24  36  50  70  99 138 183 232 280 328
#     4   9  19  35  56  85 119 151 183 218 259 316
#     4  10  21  37  55  78 107 140 183 231 279 335
#     4  10  20  35  57  83 112 146 181 223 273 323
#     4  10  21  36  51  73 102 138 184 228 272 325
#
# _framework density 9.0534979999999994
#
# number of rings (size 3 to 8) (size 9 to 14) (size 15 to 20)
#    0.000    2.182    0.000    4.091    1.273    7.636 
#    0.000    1.818    0.000    0.545    0.000    3.818 
#    0.000    0.000    0.000    0.000    0.000    0.000 
#
# Total GULP energy -245285.910360 kJ/mol
# GULP energy per Si atom -5574.679781 kJ/mol
# Density = 0.903289 g / cm^3
# Si number density = 9.053498 Si / 1000 Ang^3
#
#
#
# Elastic Constant Matrix: (Units=GPa)
#
#
# Indices 1 2 3 4 5 6 
#
# 1 72.0602 58.3410 33.9030 0.0000 0.0000 0.0000
# 2 58.3410 96.8526 59.2904 0.0000 0.0000 0.0000
# 3 33.9030 59.2904 72.3375 0.0000 0.0000 0.0000
# 4 0.0000 0.0000 0.0000 36.7339 0.0000 0.0000
# 5 0.0000 0.0000 0.0000 0.0000 27.7811 0.0000
# 6 0.0000 0.0000 0.0000 0.0000 0.0000 16.4549
#
#
#
# Elastic Compliance Matrix: (Units=1/GPa)
#
#
# Indices 1 2 3 4 5 6 
#
# 1 0.027154 -0.017193 0.001365 0.000000 0.000000 0.000000
# 2 -0.017193 0.031608 -0.017849 0.000000 0.000000 0.000000
# 3 0.001365 -0.017849 0.027814 0.000000 0.000000 0.000000
# 4 0.000000 0.000000 0.000000 0.027223 0.000000 0.000000
# 5 0.000000 0.000000 0.000000 0.000000 0.035996 0.000000
# 6 0.000000 0.000000 0.000000 0.000000 0.000000 0.060772
#
#
# Mechanical properties :
#
#
# Convention : Reuss Voigt Hill
#
# Bulk Modulus (GPa) = 52.02117 60.47988 56.25053
# Shear Modulus (GPa) = 17.58525 22.17505 19.88015
#
# Velocity S-wave (km/s) = 3.11977 3.50332 3.31709
# Velocity P-wave (km/s) = 6.46293 7.05962 6.76786
#
# Compressibility (1/GPa) = 0.01922294
#
# Stress axis : x y z
#
# Youngs Moduli (GPa) = 36.82639 31.63747 35.95270
#
# Poissons Ratio (x) = 0.54393 -0.04907
# Poissons Ratio (y) = 0.63314 0.64173
# Poissons Ratio (z) = -0.05027 0.56471
#
# Static dielectric constant tensor:
#      x y z
#    x 1.598340 0.000000 0.000000 
#    y 0.000000 1.654910 0.000000 
#    z 0.000000 0.000000 1.576020 
# 
# From -- ./inp_files/32427.got.cif
#   From: 2010.05.17/outbox.ucp.g08.bks.cvg/sg67_17_cif.got.tgz:32427.got - 2010.06.11 16:47:20.
