data_PCOD9505037
_publ_section_title
;
Structure prediction by ZEFSAII (Michael W. Deem and Ramdas Pophale) SiO2 
 PCOD9505037
Probable space group: C M M A
;
_chemical_formula_sum "Si O2"
_cell_formula_units_Z 56
_cell_length_a 34.099371
_cell_length_b 14.733969
_cell_length_c 5.129678
_cell_angle_alpha 90.000000
_cell_angle_beta 90.000000
_cell_angle_gamma 90.000000
_cell_volume 2577.248077
_symmetry_space_group_name_H-M "C M M A"
_symmetry_group_IT_number 67
_symmetry_cell_setting 'orthorhombic'
loop_
_space_group_symop_operation_xyz
x,y,z
-x,1/2-y,z
x,-y,-z
-x,1/2+y,-z
-x,-y,-z
x,1/2+y,-z
-x,y,z
x,1/2-y,z
1/2+x,1/2+y,z
1/2-x,-y,z
1/2+x,1/2-y,-z
1/2-x,y,-z
1/2-x,1/2-y,-z
1/2+x,y,-z
1/2-x,1/2+y,z
1/2+x,-y,z
loop_
_atom_site_type_symbol
_atom_site_label
_atom_site_fract_x
_atom_site_fract_y
_atom_site_fract_z
Si Si1 0.094096 0.648281 0.101078
Si Si2 0.455384 0.104128 0.590544
Si Si3 0.777676 0.750000 0.251609
Si Si4 0.675678 0.439544 0.239599
O O1 0.108721 0.750000 0.041318
O O2 0.065628 0.651955 0.349377
O O3 0.130544 0.585378 0.176195
O O4 0.069994 0.614556 0.851140
O O5 0.500000 0.135278 0.635739
O O6 0.456748 0.000000 0.500000
O O7 0.750000 0.750000 0.500000
O O8 0.802794 0.657235 0.259201
O O9 0.750000 0.750000 0.000000
O O10 0.678393 0.500000 0.500000
O O11 0.691288 0.500000 0.000000
#
# Coordination Sequence:
#
# PCOD9505037 Si02
#       4
#    16  16   8  16
#     4  12  24  42  67  98 137 181 239 293 343 413
#     4  11  24  41  63  94 135 183 237 294 352 412
#     4  12  28  50  76 112 149 178 231 288 344 426
#     4  12  26  47  76 106 144 190 234 283 351 416
#
# _framework density 21.728603
#
# number of rings (size 3 to 8) (size 9 to 14) (size 15 to 20)
#    0.000    0.286    1.429    8.571    0.000    9.143 
#    0.000    0.000    0.000    0.000    0.000    0.000 
#    0.000    0.000    0.000    0.000    0.000    0.000 
#
# Total GULP energy -156830.518368 kJ/mol
# GULP energy per Si atom -5601.089942 kJ/mol
# Density = 2.167915 g / cm^3
# Si number density = 21.728603 Si / 1000 Ang^3
#
#
#
# Elastic Constant Matrix: (Units=GPa)
#
#
# Indices 1 2 3 4 5 6 
#
# 1 118.0465 73.7454 90.2126 0.0000 0.0000 0.0000
# 2 73.7454 188.3966 79.0354 0.0000 0.0000 0.0000
# 3 90.2126 79.0354 224.4807 0.0000 0.0000 0.0000
# 4 0.0000 0.0000 0.0000 57.2745 0.0000 0.0000
# 5 0.0000 0.0000 0.0000 0.0000 26.8900 0.0000
# 6 0.0000 0.0000 0.0000 0.0000 0.0000 35.2938
#
#
#
# Elastic Compliance Matrix: (Units=1/GPa)
#
#
# Indices 1 2 3 4 5 6 
#
# 1 0.014121 -0.003692 -0.004375 0.000000 0.000000 0.000000
# 2 -0.003692 0.007193 -0.001049 0.000000 0.000000 0.000000
# 3 -0.004375 -0.001049 0.006582 0.000000 0.000000 0.000000
# 4 0.000000 0.000000 0.000000 0.017460 0.000000 0.000000
# 5 0.000000 0.000000 0.000000 0.000000 0.037189 0.000000
# 6 0.000000 0.000000 0.000000 0.000000 0.000000 0.028334
#
#
# Mechanical properties :
#
#
# Convention : Reuss Voigt Hill
#
# Bulk Modulus (GPa) = 103.46987 112.99008 108.22997
# Shear Modulus (GPa) = 37.78374 43.08700 40.43537
#
# Velocity S-wave (km/s) = 4.17453 4.45788 4.31853
# Velocity P-wave (km/s) = 8.42367 8.86625 8.64779
#
# Compressibility (1/GPa) = 0.00966465
#
# Stress axis : x y z
#
# Youngs Moduli (GPa) = 70.81542 139.02016 151.92558
#
# Poissons Ratio (x) = 0.51329 0.66467
# Poissons Ratio (y) = 0.26146 0.15934
# Poissons Ratio (z) = 0.30982 0.14580
#
# Static dielectric constant tensor:
#      x y z
#    x 1.776330 0.000000 0.000000 
#    y 0.000000 1.827670 0.000000 
#    z 0.000000 0.000000 1.722730 
# 
# From -- ./inp_files/4459.got.cif
#   From: 2010.05.17/outbox.cif.g08.bks.cpg/sg67_3_cif.got.tgz:4459.got - 2010.06.03 18:28:57.
