data_PCOD9505966
_publ_section_title
;
Structure prediction by ZEFSAII (Michael W. Deem and Ramdas Pophale) SiO2 
 PCOD9505966
Probable space group: C C C A
;
_chemical_formula_sum "Si O2"
_cell_formula_units_Z 60
_cell_length_a 5.197187
_cell_length_b 17.254376
_cell_length_c 29.415683
_cell_angle_alpha 90.000000
_cell_angle_beta 90.000000
_cell_angle_gamma 90.000000
_cell_volume 2637.828389
_symmetry_space_group_name_H-M "C C C A"
_symmetry_group_IT_number 68
_space_group.IT_coordinate_system_code '2'
_symmetry_cell_setting 'orthorhombic'
loop_
_space_group_symop_operation_xyz
x,y,z
-x,1/2-y,z
x,1/2-y,1/2-z
-x,y,1/2-z
-x,-y,-z
x,1/2+y,-z
-x,1/2+y,1/2+z
x,-y,1/2+z
1/2+x,1/2+y,z
1/2-x,-y,z
1/2+x,-y,1/2-z
1/2-x,1/2+y,1/2-z
1/2-x,1/2-y,-z
1/2+x,y,-z
1/2-x,y,1/2+z
1/2+x,1/2-y,1/2+z
loop_
_atom_site_type_symbol
_atom_site_label
_atom_site_fract_x
_atom_site_fract_y
_atom_site_fract_z
Si Si1 0.310919 0.643248 0.672132
Si Si2 0.038271 0.588830 0.981373
Si Si3 0.000000 0.750000 0.250000
Si Si4 0.250000 0.000000 0.272484
Si Si5 0.291126 0.907668 0.122988
O O1 0.326655 0.703798 0.713341
O O2 0.384641 0.564767 0.698172
O O3 0.539689 0.643958 0.634832
O O4 0.033296 0.628634 0.650050
O O5 0.135234 0.591889 0.930109
O O6 0.258578 0.625024 0.012659
O O7 0.000000 0.500000 0.000000
O O8 0.500000 0.960824 0.250000
O O9 0.250000 0.000000 0.133230
#
# Coordination Sequence:
#
# PCOD9505966 Si02
#       5
#    16  16   4   8  16
#     4  12  27  42  69  92 139 182 242 298 348 424
#     4  10  19  31  58  99 150 172 200 272 365 441
#     4  12  32  54  68  98 140 212 256 294 368 418
#     4  12  22  40  64  96 118 168 226 298 356 410
#     4  12  22  39  65 107 141 171 225 291 363 405
#
# _framework density 22.745982000000001
#
# number of rings (size 3 to 8) (size 9 to 14) (size 15 to 20)
#    0.000    0.533    6.667    3.200    3.733    2.133 
#    0.000    0.000    0.000    0.000    0.000   18.667 
#    0.000    0.000    0.000    0.000    0.000    0.000 
#
# Total GULP energy -167201.692753 kJ/mol
# GULP energy per Si atom -5573.389758 kJ/mol
# Density = 2.269421 g / cm^3
# Si number density = 22.745982 Si / 1000 Ang^3
#
#
#
# Elastic Constant Matrix: (Units=GPa)
#
#
# Indices 1 2 3 4 5 6 
#
# 1 188.7423 13.5579 59.4442 0.0000 0.0000 0.0000
# 2 13.5579 37.9560 37.7061 0.0000 0.0000 0.0000
# 3 59.4442 37.7061 149.2425 0.0000 0.0000 0.0000
# 4 0.0000 0.0000 0.0000 32.5907 0.0000 0.0000
# 5 0.0000 0.0000 0.0000 0.0000 45.3205 0.0000
# 6 0.0000 0.0000 0.0000 0.0000 0.0000 13.4639
#
#
#
# Elastic Compliance Matrix: (Units=1/GPa)
#
#
# Indices 1 2 3 4 5 6 
#
# 1 0.006061 0.000311 -0.002493 0.000000 0.000000 0.000000
# 2 0.000311 0.035191 -0.009015 0.000000 0.000000 0.000000
# 3 -0.002493 -0.009015 0.009971 0.000000 0.000000 0.000000
# 4 0.000000 0.000000 0.000000 0.030684 0.000000 0.000000
# 5 0.000000 0.000000 0.000000 0.000000 0.022065 0.000000
# 6 0.000000 0.000000 0.000000 0.000000 0.000000 0.074273
#
#
# Mechanical properties :
#
#
# Convention : Reuss Voigt Hill
#
# Bulk Modulus (GPa) = 34.68609 66.37301 50.52955
# Shear Modulus (GPa) = 23.78156 35.95720 29.86938
#
# Velocity S-wave (km/s) = 3.23697 3.98026 3.62770
# Velocity P-wave (km/s) = 5.40861 7.09695 6.30951
#
# Compressibility (1/GPa) = 0.02883000
#
# Stress axis : x y z
#
# Youngs Moduli (GPa) = 164.99026 28.41660 100.29059
#
# Poissons Ratio (x) = -0.00885 0.25000
# Poissons Ratio (y) = -0.05138 0.90412
# Poissons Ratio (z) = 0.41129 0.25617
#
# Static dielectric constant tensor:
#      x y z
#    x -1.311510 0.000000 0.000000 
#    y 0.000000 -3.524900 0.000000 
#    z 0.000000 0.000000 1.892280 
# 
# From -- ./inp_files/48019.got.cif
#   From: 2010.05.17/outbox.cif.g08.bks.cpg/sg68_25_cif.got.tgz:48019.got - 2010.06.03 18:57:09.
