data_PCOD9505608
_publ_section_title
;
Structure prediction by ZEFSAII (Michael W. Deem and Ramdas Pophale) SiO2 
 PCOD9505608
Probable space group: C C C A
;
_chemical_formula_sum "Si O2"
_cell_formula_units_Z 80
_cell_length_a 17.839982
_cell_length_b 5.510794
_cell_length_c 32.540065
_cell_angle_alpha 90.000000
_cell_angle_beta 90.000000
_cell_angle_gamma 90.000000
_cell_volume 3199.094026
_symmetry_space_group_name_H-M "C C C A"
_symmetry_group_IT_number 68
_space_group.IT_coordinate_system_code '2'
_symmetry_cell_setting 'orthorhombic'
loop_
_space_group_symop_operation_xyz
x,y,z
-x,1/2-y,z
x,1/2-y,1/2-z
-x,y,1/2-z
-x,-y,-z
x,1/2+y,-z
-x,1/2+y,1/2+z
x,-y,1/2+z
1/2+x,1/2+y,z
1/2-x,-y,z
1/2+x,-y,1/2-z
1/2-x,1/2+y,1/2-z
1/2-x,1/2-y,-z
1/2+x,y,-z
1/2-x,y,1/2+z
1/2+x,1/2-y,1/2+z
loop_
_atom_site_type_symbol
_atom_site_label
_atom_site_fract_x
_atom_site_fract_y
_atom_site_fract_z
Si Si1 0.751277 0.750638 0.668840
Si Si2 0.104273 0.635586 0.612038
Si Si3 0.159443 0.496735 0.522854
Si Si4 0.414754 0.001472 0.233571
Si Si5 0.089658 0.866631 0.139276
O O1 0.750000 0.500000 0.693460
O O2 0.822555 0.801299 0.639761
O O3 0.679508 0.701486 0.639359
O O4 0.750000 0.000000 0.693316
O O5 0.125096 0.536153 0.567622
O O6 0.060438 0.410382 0.633825
O O7 0.072622 0.910336 0.608756
O O8 0.138466 0.234316 0.504151
O O9 0.250000 0.500000 0.526390
O O10 0.381460 0.750000 0.250000
O O11 0.500000 0.000260 0.250000
O O12 0.379534 0.250000 0.250000
O O13 0.421422 0.026748 0.184813
#
# Coordination Sequence:
#
# PCOD9505608 Si02
#       5
#    16  16  16  16  16
#     4   8  15  25  42  63  88 120 166 211 234 267
#     4  10  18  30  47  70  99 136 182 216 238 290
#     4  10  19  28  41  65 100 141 180 217 256 287
#     4  10  21  37  55  76 102 130 157 208 282 335
#     4  10  18  30  51  71  92 131 174 206 254 308
#
# _framework density 25.007078
#
# number of rings (size 3 to 8) (size 9 to 14) (size 15 to 20)
#    0.000    2.400    0.000    4.200    0.000    5.600 
#    0.000    0.000    0.000   21.600    0.000    0.000 
#    0.000    0.000    0.000  252.000    0.000   16.000 
#
# Total GULP energy -223191.961472 kJ/mol
# GULP energy per Si atom -5579.799037 kJ/mol
# Density = 2.495016 g / cm^3
# Si number density = 25.007078 Si / 1000 Ang^3
#
#
#
# Elastic Constant Matrix: (Units=GPa)
#
#
# Indices 1 2 3 4 5 6 
#
# 1 33.8641 27.2898 22.2818 0.0000 0.0000 0.0000
# 2 27.2898 330.3206 70.4872 0.0000 0.0000 0.0000
# 3 22.2818 70.4872 134.1944 0.0000 0.0000 0.0000
# 4 0.0000 0.0000 0.0000 47.9235 0.0000 0.0000
# 5 0.0000 0.0000 0.0000 0.0000 22.6702 0.0000
# 6 0.0000 0.0000 0.0000 0.0000 0.0000 31.3180
#
#
#
# Elastic Compliance Matrix: (Units=1/GPa)
#
#
# Indices 1 2 3 4 5 6 
#
# 1 0.034088 -0.001811 -0.004708 0.000000 0.000000 0.000000
# 2 -0.001811 0.003506 -0.001541 0.000000 0.000000 0.000000
# 3 -0.004708 -0.001541 0.009043 0.000000 0.000000 0.000000
# 4 0.000000 0.000000 0.000000 0.020867 0.000000 0.000000
# 5 0.000000 0.000000 0.000000 0.000000 0.044111 0.000000
# 6 0.000000 0.000000 0.000000 0.000000 0.000000 0.031931
#
#
# Mechanical properties :
#
#
# Convention : Reuss Voigt Hill
#
# Bulk Modulus (GPa) = 32.77058 82.05520 57.41289
# Shear Modulus (GPa) = 29.43995 45.60369 37.52182
#
# Velocity S-wave (km/s) = 3.43485 4.27503 3.87776
# Velocity P-wave (km/s) = 5.37251 7.56650 6.56185
#
# Compressibility (1/GPa) = 0.03051517
#
# Stress axis : x y z
#
# Youngs Moduli (GPa) = 29.33615 285.24299 110.58355
#
# Poissons Ratio (x) = 0.51670 0.52068
# Poissons Ratio (y) = 0.05314 0.17037
# Poissons Ratio (z) = 0.13813 0.43947
#
# Static dielectric constant tensor:
#      x y z
#    x 2.218630 0.000000 0.000000 
#    y 0.000000 2.244780 0.000000 
#    z 0.000000 0.000000 1.871610 
# 
# From -- ./inp_files/56129.got.cif
#   From: 2010.05.17/outbox.cif.g08.bks.cpg/sg68_29_cif.got.tgz:56129.got - 2010.06.03 18:57:09.
