data_PCOD9505444
_publ_section_title
;
Structure prediction by ZEFSAII (Michael W. Deem and Ramdas Pophale) SiO2 
 PCOD9505444
Probable space group: C C C A
;
_chemical_formula_sum "Si O2"
_cell_formula_units_Z 104
_cell_length_a 17.586795
_cell_length_b 31.174079
_cell_length_c 8.636401
_cell_angle_alpha 90.000000
_cell_angle_beta 90.000000
_cell_angle_gamma 90.000000
_cell_volume 4734.925302
_symmetry_space_group_name_H-M "C C C A"
_symmetry_group_IT_number 68
_space_group.IT_coordinate_system_code '2'
_symmetry_cell_setting 'orthorhombic'
loop_
_space_group_symop_operation_xyz
x,y,z
-x,1/2-y,z
x,1/2-y,1/2-z
-x,y,1/2-z
-x,-y,-z
x,1/2+y,-z
-x,1/2+y,1/2+z
x,-y,1/2+z
1/2+x,1/2+y,z
1/2-x,-y,z
1/2+x,-y,1/2-z
1/2-x,1/2+y,1/2-z
1/2-x,1/2-y,-z
1/2+x,y,-z
1/2-x,y,1/2+z
1/2+x,1/2-y,1/2+z
loop_
_atom_site_type_symbol
_atom_site_label
_atom_site_fract_x
_atom_site_fract_y
_atom_site_fract_z
Si Si1 0.728945 0.152415 0.311292
Si Si2 0.412616 0.738036 0.077785
Si Si3 0.786181 0.559264 0.312474
Si Si4 0.329595 0.250000 0.250000
Si Si5 0.900081 0.943283 0.659585
Si Si6 0.864410 0.645619 0.881543
Si Si7 0.131670 0.507933 0.921967
O O1 0.695159 0.109208 0.226386
O O2 0.708599 0.201877 0.263239
O O3 0.818894 0.148680 0.279659
O O4 0.701206 0.145347 0.486519
O O5 0.500000 0.750000 0.072303
O O6 0.380128 0.750000 0.250000
O O7 0.410583 0.687131 0.079481
O O8 0.371720 0.752966 0.918765
O O9 0.694296 0.557014 0.323161
O O10 0.817416 0.539485 0.472249
O O11 0.821969 0.526570 0.185093
O O12 0.917391 0.895404 0.616310
O O13 0.916107 0.977536 0.531203
O O14 0.922198 0.961416 0.823492
#
# Coordination Sequence:
#
# PCOD9505444 Si02
#       7
#    16  16  16   8  16  16  16
#     4  10  22  33  50  80 115 151 185 227 287 349
#     4  10  23  42  63  83 106 142 193 244 285 335
#     4  10  17  26  39  64 102 145 194 217 255 329
#     4  10  23  40  62  84 113 150 186 236 294 346
#     4  10  17  26  40  66 102 148 186 221 262 318
#     4  10  22  34  52  79 117 148 185 235 282 339
#     4  10  17  25  41  62 101 155 191 218 257 321
#
# _framework density 21.964444
#
# number of rings (size 3 to 8) (size 9 to 14) (size 15 to 20)
#    0.000    2.000    1.538    3.923    9.692    1.231 
#    0.000    0.000    0.000    0.000    0.000    0.000 
#    0.000   22.154    0.000    0.000    0.000    0.000 
#
# Total GULP energy -289705.996768 kJ/mol
# GULP energy per Si atom -5571.269169 kJ/mol
# Density = 2.191445 g / cm^3
# Si number density = 21.964444 Si / 1000 Ang^3
#
#
#
# Elastic Constant Matrix: (Units=GPa)
#
#
# Indices 1 2 3 4 5 6 
#
# 1 31.3848 18.9680 14.0124 0.0000 0.0000 0.0000
# 2 18.9680 155.8457 35.2100 0.0000 0.0000 0.0000
# 3 14.0124 35.2100 107.3954 0.0000 0.0000 0.0000
# 4 0.0000 0.0000 0.0000 12.5568 0.0000 0.0000
# 5 0.0000 0.0000 0.0000 0.0000 15.2327 0.0000
# 6 0.0000 0.0000 0.0000 0.0000 0.0000 8.8363
#
#
#
# Elastic Compliance Matrix: (Units=1/GPa)
#
#
# Indices 1 2 3 4 5 6 
#
# 1 0.035556 -0.003542 -0.003478 0.000000 0.000000 0.000000
# 2 -0.003542 0.007283 -0.001926 0.000000 0.000000 0.000000
# 3 -0.003478 -0.001926 0.010396 0.000000 0.000000 0.000000
# 4 0.000000 0.000000 0.000000 0.079638 0.000000 0.000000
# 5 0.000000 0.000000 0.000000 0.000000 0.065648 0.000000
# 6 0.000000 0.000000 0.000000 0.000000 0.000000 0.113170
#
#
# Mechanical properties :
#
#
# Convention : Reuss Voigt Hill
#
# Bulk Modulus (GPa) = 28.29289 47.88961 38.09125
# Shear Modulus (GPa) = 14.64712 22.42084 18.53398
#
# Velocity S-wave (km/s) = 2.58516 3.19843 2.90801
# Velocity P-wave (km/s) = 4.67118 5.95739 5.35306
#
# Compressibility (1/GPa) = 0.03534457
#
# Stress axis : x y z
#
# Youngs Moduli (GPa) = 28.12471 137.31159 96.18649
#
# Poissons Ratio (x) = 0.48632 0.33453
# Poissons Ratio (y) = 0.09961 0.18521
# Poissons Ratio (z) = 0.09782 0.26440
#
# Static dielectric constant tensor:
#      x y z
#    x 1.844510 0.000000 0.000000 
#    y 0.000000 1.845830 0.000000 
#    z 0.000000 0.000000 1.885790 
# 
# From -- ./inp_files/8412.got.cif
#   From: 2010.05.17/outbox.cif.g08.bks.cpg/sg68_5_cif.got.tgz:8412.got - 2010.06.03 18:57:09.
