data_PCOD9505780
_publ_section_title
;
Structure prediction by ZEFSAII (Michael W. Deem and Ramdas Pophale) SiO2 
 PCOD9505780
Probable space group: C C C A
;
_chemical_formula_sum "Si O2"
_cell_formula_units_Z 120
_cell_length_a 18.799535
_cell_length_b 20.398977
_cell_length_c 16.703471
_cell_angle_alpha 90.000000
_cell_angle_beta 90.000000
_cell_angle_gamma 90.000000
_cell_volume 6405.635509
_symmetry_space_group_name_H-M "C C C A"
_symmetry_group_IT_number 68
_space_group.IT_coordinate_system_code '2'
_symmetry_cell_setting 'orthorhombic'
loop_
_space_group_symop_operation_xyz
x,y,z
-x,1/2-y,z
x,1/2-y,1/2-z
-x,y,1/2-z
-x,-y,-z
x,1/2+y,-z
-x,1/2+y,1/2+z
x,-y,1/2+z
1/2+x,1/2+y,z
1/2-x,-y,z
1/2+x,-y,1/2-z
1/2-x,1/2+y,1/2-z
1/2-x,1/2-y,-z
1/2+x,y,-z
1/2-x,y,1/2+z
1/2+x,1/2-y,1/2+z
loop_
_atom_site_type_symbol
_atom_site_label
_atom_site_fract_x
_atom_site_fract_y
_atom_site_fract_z
Si Si1 0.728075 0.924061 0.031514
Si Si2 0.794218 0.623150 0.307655
Si Si3 0.553354 0.574305 0.824723
Si Si4 0.345609 0.676359 0.253506
Si Si5 0.829662 0.408937 0.095550
Si Si6 0.750000 0.000000 0.298832
Si Si7 0.914191 0.922563 0.625476
Si Si8 0.028401 0.925665 0.502817
O O1 0.771629 0.888336 0.101105
O O2 0.646897 0.922080 0.057689
O O3 0.750000 0.000000 0.030618
O O4 0.754536 0.895096 0.947867
O O5 0.879214 0.620749 0.304874
O O6 0.737917 0.675451 0.273553
O O7 0.771959 0.559093 0.257277
O O8 0.500000 0.574358 0.750000
O O9 0.576878 0.497415 0.841058
O O10 0.521900 0.597439 0.910900
O O11 0.373133 0.750000 0.250000
O O12 0.349450 0.647107 0.342372
O O13 0.387467 0.625972 0.195181
O O14 0.814746 0.474558 0.146838
O O15 0.889908 0.421016 0.030053
O O16 0.983529 0.897772 0.577776
O O17 0.000000 0.000000 0.500000
#
# Coordination Sequence:
#
# PCOD9505780 Si02
#       8
#    16  16  16  16  16   8  16  16
#     4  11  16  33  55  82 116 156 190 242 305 358
#     4  10  18  35  54  83 118 152 195 253 301 352
#     4  11  21  33  60  93 130 158 187 239 319 390
#     4  10  24  42  61  86 114 160 219 258 288 340
#     4  11  21  33  58  84 121 154 204 241 308 363
#     4  10  20  26  54  86 112 154 196 238 298 376
#     4  10  22  36  58  83 132 158 196 243 306 361
#     4  10  22  34  51  89 126 158 183 237 299 377
#
# _framework density 18.733504
#
# number of rings (size 3 to 8) (size 9 to 14) (size 15 to 20)
#    0.000    1.600    4.000    2.400    7.467    1.067 
#    0.000    4.000    0.000    0.400    3.467    0.000 
#    0.000    0.000    0.000    0.000    0.000    0.000 
#
# Total GULP energy -334331.699866 kJ/mol
# GULP energy per Si atom -5572.194998 kJ/mol
# Density = 1.869087 g / cm^3
# Si number density = 18.733504 Si / 1000 Ang^3
#
#
#
# Elastic Constant Matrix: (Units=GPa)
#
#
# Indices 1 2 3 4 5 6 
#
# 1 64.0651 -7.2630 10.8446 0.0000 0.0000 0.0000
# 2 -7.2630 42.0509 14.8103 0.0000 0.0000 0.0000
# 3 10.8446 14.8103 88.0262 0.0000 0.0000 0.0000
# 4 0.0000 0.0000 0.0000 58.2365 0.0000 0.0000
# 5 0.0000 0.0000 0.0000 0.0000 33.7928 0.0000
# 6 0.0000 0.0000 0.0000 0.0000 0.0000 10.3361
#
#
#
# Elastic Compliance Matrix: (Units=1/GPa)
#
#
# Indices 1 2 3 4 5 6 
#
# 1 0.016490 0.003788 -0.002669 0.000000 0.000000 0.000000
# 2 0.003788 0.026149 -0.004866 0.000000 0.000000 0.000000
# 3 -0.002669 -0.004866 0.012508 0.000000 0.000000 0.000000
# 4 0.000000 0.000000 0.000000 0.017171 0.000000 0.000000
# 5 0.000000 0.000000 0.000000 0.000000 0.029592 0.000000
# 6 0.000000 0.000000 0.000000 0.000000 0.000000 0.096748
#
#
# Mechanical properties :
#
#
# Convention : Reuss Voigt Hill
#
# Bulk Modulus (GPa) = 20.98495 25.65844 23.32170
# Shear Modulus (GPa) = 22.51876 32.18977 27.35426
#
# Velocity S-wave (km/s) = 3.47083 4.14973 3.82537
# Velocity P-wave (km/s) = 5.22383 6.05695 5.65575
#
# Compressibility (1/GPa) = 0.04765320
#
# Stress axis : x y z
#
# Youngs Moduli (GPa) = 60.64147 38.24252 79.95019
#
# Poissons Ratio (x) = -0.14487 0.21338
# Poissons Ratio (y) = -0.22972 0.38905
# Poissons Ratio (z) = 0.16185 0.18610
#
# Static dielectric constant tensor:
#      x y z
#    x 1.743880 0.000000 0.000000 
#    y 0.000000 1.623550 0.000000 
#    z 0.000000 0.000000 1.695290 
# 
# From -- ./inp_files/24836.got.cif
#   From: 2010.05.17/outbox.cif.g08.bks.cpg/sg68_13_cif.got.tgz:24836.got - 2010.06.03 18:57:09.
