data_PCOD9505833
_publ_section_title
;
Structure prediction by ZEFSAII (Michael W. Deem and Ramdas Pophale) SiO2 
 PCOD9505833
Probable space group: C C C A
;
_chemical_formula_sum "Si O2"
_cell_formula_units_Z 72
_cell_length_a 9.072732
_cell_length_b 15.304091
_cell_length_c 23.659847
_cell_angle_alpha 90.000000
_cell_angle_beta 90.000000
_cell_angle_gamma 90.000000
_cell_volume 3285.167772
_symmetry_space_group_name_H-M "C C C A"
_symmetry_group_IT_number 68
_space_group.IT_coordinate_system_code '2'
_symmetry_cell_setting 'orthorhombic'
loop_
_space_group_symop_operation_xyz
x,y,z
-x,1/2-y,z
x,1/2-y,1/2-z
-x,y,1/2-z
-x,-y,-z
x,1/2+y,-z
-x,1/2+y,1/2+z
x,-y,1/2+z
1/2+x,1/2+y,z
1/2-x,-y,z
1/2+x,-y,1/2-z
1/2-x,1/2+y,1/2-z
1/2-x,1/2-y,-z
1/2+x,y,-z
1/2-x,y,1/2+z
1/2+x,1/2-y,1/2+z
loop_
_atom_site_type_symbol
_atom_site_label
_atom_site_fract_x
_atom_site_fract_y
_atom_site_fract_z
Si Si1 0.854279 0.641701 0.059373
Si Si2 0.075072 0.835049 0.851604
Si Si3 0.743055 0.750000 0.750000
Si Si4 0.763573 0.094466 0.320131
Si Si5 0.305608 0.147044 0.443291
O O1 0.793849 0.598841 0.116017
O O2 0.826583 0.747067 0.063137
O O3 0.026040 0.616796 0.057044
O O4 0.769535 0.619628 0.001891
O O5 0.161149 0.797188 0.798004
O O6 0.192465 0.878339 0.893396
O O7 0.000000 0.750000 0.882116
O O8 0.937616 0.887445 0.827287
O O9 0.676777 0.669416 0.714909
O O10 0.750000 0.000000 0.293376
#
# Coordination Sequence:
#
# PCOD9505833 Si02
#       5
#    16  16   8  16  16
#     4  10  20  34  58  95 124 166 214 261 320 380
#     4  10  18  37  62  87 116 169 219 259 318 384
#     4  10  21  42  69  88 121 176 221 262 331 390
#     4  11  22  40  65  94 126 163 221 274 320 387
#     4  10  19  34  61  90 126 166 217 258 316 391
#
# _framework density 21.916689999999999
#
# number of rings (size 3 to 8) (size 9 to 14) (size 15 to 20)
#    0.000    1.778    4.444    4.333    3.111    0.000 
#    0.000   12.222    0.000    0.000    0.000    0.000 
#    0.000    0.000    0.000    0.000    0.000    0.000 
#
# Total GULP energy -200831.632120 kJ/mol
# GULP energy per Si atom -5578.656448 kJ/mol
# Density = 2.186681 g / cm^3
# Si number density = 21.916690 Si / 1000 Ang^3
#
#
#
# Elastic Constant Matrix: (Units=GPa)
#
#
# Indices 1 2 3 4 5 6 
#
# 1 54.2248 8.3051 18.4357 0.0000 0.0000 0.0000
# 2 8.3051 74.9783 13.3495 0.0000 0.0000 0.0000
# 3 18.4357 13.3495 113.9566 0.0000 0.0000 0.0000
# 4 0.0000 0.0000 0.0000 0.2294 0.0000 0.0000
# 5 0.0000 0.0000 0.0000 0.0000 -55.0523 0.0000
# 6 0.0000 0.0000 0.0000 0.0000 0.0000 9.8953
#
#
#
# Elastic Compliance Matrix: (Units=1/GPa)
#
#
# Indices 1 2 3 4 5 6 
#
# 1 0.019713 -0.001650 -0.002996 0.000000 0.000000 0.000000
# 2 -0.001650 0.013759 -0.001345 0.000000 0.000000 0.000000
# 3 -0.002996 -0.001345 0.009417 0.000000 0.000000 0.000000
# 4 0.000000 0.000000 0.000000 4.359175 0.000000 0.000000
# 5 0.000000 0.000000 0.000000 0.000000 -0.018165 0.000000
# 6 0.000000 0.000000 0.000000 0.000000 0.000000 0.101058
#
#
# Mechanical properties :
#
#
# Convention : Reuss Voigt Hill
#
# Bulk Modulus (GPa) = 32.35388 35.92668 34.14028
# Shear Modulus (GPa) = 1.10933 4.55244 2.83089
#
# Velocity S-wave (km/s) = 0.71222 1.44280 1.13774
# Velocity P-wave (km/s) = 3.93327 4.38218 4.16378
#
# Compressibility (1/GPa) = 0.03090819
#
# Stress axis : x y z
#
# Youngs Moduli (GPa) = 50.72789 72.67742 106.18549
#
# Poissons Ratio (x) = 0.11993 0.31811
# Poissons Ratio (y) = 0.08371 0.14281
# Poissons Ratio (z) = 0.15197 0.09774
#
# Static dielectric constant tensor:
#      x y z
#    x 1.792750 0.000000 0.000000 
#    y 0.000000 1.894540 0.000000 
#    z 0.000000 0.000000 1.770380 
# 
# From -- ./inp_files/42951.got.cif
#   From: 2010.05.17/outbox.cif.g08.bks.cpg/sg68_22_cif.got.tgz:42951.got - 2010.06.03 18:57:09.
