data_PCOD9505601
_publ_section_title
;
Structure prediction by ZEFSAII (Michael W. Deem and Ramdas Pophale) SiO2 
 PCOD9505601
Probable space group: C C C A
;
_chemical_formula_sum "Si O2"
_cell_formula_units_Z 80
_cell_length_a 16.549175
_cell_length_b 8.696442
_cell_length_c 29.423401
_cell_angle_alpha 90.000000
_cell_angle_beta 90.000000
_cell_angle_gamma 90.000000
_cell_volume 4234.584699
_symmetry_space_group_name_H-M "C C C A"
_symmetry_group_IT_number 68
_space_group.IT_coordinate_system_code '2'
_symmetry_cell_setting 'orthorhombic'
loop_
_space_group_symop_operation_xyz
x,y,z
-x,1/2-y,z
x,1/2-y,1/2-z
-x,y,1/2-z
-x,-y,-z
x,1/2+y,-z
-x,1/2+y,1/2+z
x,-y,1/2+z
1/2+x,1/2+y,z
1/2-x,-y,z
1/2+x,-y,1/2-z
1/2-x,1/2+y,1/2-z
1/2-x,1/2-y,-z
1/2+x,y,-z
1/2-x,y,1/2+z
1/2+x,1/2-y,1/2+z
loop_
_atom_site_type_symbol
_atom_site_label
_atom_site_fract_x
_atom_site_fract_y
_atom_site_fract_z
Si Si1 0.761061 0.182023 0.550081
Si Si2 0.169685 0.105111 0.119588
Si Si3 0.156887 0.317446 0.201787
Si Si4 0.589805 0.697783 0.605842
Si Si5 0.146608 0.172198 0.798023
O O1 0.750000 0.250000 0.500000
O O2 0.698761 0.270886 0.582934
O O3 0.847546 0.220417 0.572135
O O4 0.750000 0.000000 0.550169
O O5 0.136035 0.198758 0.162196
O O6 0.250000 0.000000 0.131105
O O7 0.105475 0.983637 0.101250
O O8 0.131989 0.250000 0.250000
O O9 0.125948 0.491611 0.197932
O O10 0.255392 0.321473 0.200354
O O11 0.500000 0.750000 0.596377
O O12 0.612140 0.741930 0.657981
O O13 0.122181 0.250000 0.750000
#
# Coordination Sequence:
#
# PCOD9505601 Si02
#       5
#    16  16  16  16  16
#     4  11  22  42  67  90 114 151 197 243 297 360
#     4  10  19  35  57  85 117 154 198 244 295 352
#     4  10  18  29  55  86 114 155 213 254 282 339
#     4  11  23  39  60  90 125 157 195 245 303 357
#     4  10  19  32  54  84 122 161 201 248 296 347
#
# _framework density 18.892054000000002
#
# number of rings (size 3 to 8) (size 9 to 14) (size 15 to 20)
#    0.000    1.600    4.000    4.200    2.800    0.400 
#    0.000    8.000    0.000    1.200    0.000    0.000 
#    0.000    0.000    0.000    0.000    0.000    0.000 
#
# Total GULP energy -223380.239410 kJ/mol
# GULP energy per Si atom -5584.505985 kJ/mol
# Density = 1.884906 g / cm^3
# Si number density = 18.892054 Si / 1000 Ang^3
#
#
#
# Elastic Constant Matrix: (Units=GPa)
#
#
# Indices 1 2 3 4 5 6 
#
# 1 73.0253 47.2799 46.0729 0.0000 0.0000 0.0000
# 2 47.2799 187.9220 70.5565 0.0000 0.0000 0.0000
# 3 46.0729 70.5565 144.3076 0.0000 0.0000 0.0000
# 4 0.0000 0.0000 0.0000 39.2620 0.0000 0.0000
# 5 0.0000 0.0000 0.0000 0.0000 5.1974 0.0000
# 6 0.0000 0.0000 0.0000 0.0000 0.0000 15.4252
#
#
#
# Elastic Compliance Matrix: (Units=1/GPa)
#
#
# Indices 1 2 3 4 5 6 
#
# 1 0.018409 -0.002970 -0.004425 0.000000 0.000000 0.000000
# 2 -0.002970 0.006997 -0.002473 0.000000 0.000000 0.000000
# 3 -0.004425 -0.002473 0.009552 0.000000 0.000000 0.000000
# 4 0.000000 0.000000 0.000000 0.025470 0.000000 0.000000
# 5 0.000000 0.000000 0.000000 0.000000 0.192404 0.000000
# 6 0.000000 0.000000 0.000000 0.000000 0.000000 0.064829
#
#
# Mechanical properties :
#
#
# Convention : Reuss Voigt Hill
#
# Bulk Modulus (GPa) = 65.69796 81.45258 73.57527
# Shear Modulus (GPa) = 14.59982 28.06663 21.33322
#
# Velocity S-wave (km/s) = 2.78295 3.85857 3.36403
# Velocity P-wave (km/s) = 6.72141 7.94102 7.35653
#
# Compressibility (1/GPa) = 0.01522117
#
# Stress axis : x y z
#
# Youngs Moduli (GPa) = 54.32198 142.91757 104.69553
#
# Poissons Ratio (x) = 0.42447 0.46330
# Poissons Ratio (y) = 0.16134 0.25889
# Poissons Ratio (z) = 0.24038 0.35341
#
# Static dielectric constant tensor:
#      x y z
#    x 1.660310 0.000000 0.000000 
#    y 0.000000 1.660330 0.000000 
#    z 0.000000 0.000000 1.663550 
# 
# From -- ./inp_files/49123.got.cif
#   From: 2010.05.17/outbox.cif.g08.bks.cpg/sg68_25_cif.got.tgz:49123.got - 2010.06.03 18:57:09.
