data_PCOD9505804
_publ_section_title
;
Structure prediction by ZEFSAII (Michael W. Deem and Ramdas Pophale) SiO2 
 PCOD9505804
Probable space group: C C C A
;
_chemical_formula_sum "Si O2"
_cell_formula_units_Z 96
_cell_length_a 22.528136
_cell_length_b 12.691043
_cell_length_c 15.328768
_cell_angle_alpha 90.000000
_cell_angle_beta 90.000000
_cell_angle_gamma 90.000000
_cell_volume 4382.579734
_symmetry_space_group_name_H-M "C C C A"
_symmetry_group_IT_number 68
_space_group.IT_coordinate_system_code '2'
_symmetry_cell_setting 'orthorhombic'
loop_
_space_group_symop_operation_xyz
x,y,z
-x,1/2-y,z
x,1/2-y,1/2-z
-x,y,1/2-z
-x,-y,-z
x,1/2+y,-z
-x,1/2+y,1/2+z
x,-y,1/2+z
1/2+x,1/2+y,z
1/2-x,-y,z
1/2+x,-y,1/2-z
1/2-x,1/2+y,1/2-z
1/2-x,1/2-y,-z
1/2+x,y,-z
1/2-x,y,1/2+z
1/2+x,1/2-y,1/2+z
loop_
_atom_site_type_symbol
_atom_site_label
_atom_site_fract_x
_atom_site_fract_y
_atom_site_fract_z
Si Si1 0.876637 0.566861 0.026543
Si Si2 0.500000 0.575608 0.250000
Si Si3 0.429789 0.854988 0.101359
Si Si4 0.612457 0.493028 0.335393
Si Si5 0.815910 0.643851 0.711579
Si Si6 0.250000 0.500000 0.421639
Si Si7 0.932335 0.773619 0.092921
O O1 0.910532 0.473261 0.075563
O O2 0.806563 0.541506 0.025799
O O3 0.892890 0.669188 0.082375
O O4 0.895358 0.558755 0.925393
O O5 0.514588 0.640745 0.164325
O O6 0.556816 0.508066 0.272387
O O7 0.374841 0.815380 0.159897
O O8 0.440458 0.804081 0.008686
O O9 0.664950 0.552231 0.281056
O O10 0.605305 0.369470 0.362977
O O11 0.788562 0.750000 0.750000
O O12 0.774024 0.591726 0.640406
O O13 0.000000 0.750000 0.127301
#
# Coordination Sequence:
#
# PCOD9505804 Si02
#       7
#    16   8  16  16  16   8  16
#     4  10  21  41  60  84 122 161 205 255 307 370
#     4  10  18  36  58  82 126 162 190 250 298 356
#     4   9  20  36  56  85 119 158 205 245 294 372
#     4  10  22  38  60  92 123 157 208 251 302 380
#     4  10  21  40  61  85 118 156 202 258 308 356
#     4  10  24  42  62  86 118 160 208 260 308 366
#     4  11  21  36  62  93 124 162 198 249 319 379
#
# _framework density 21.904904999999999
#
# number of rings (size 3 to 8) (size 9 to 14) (size 15 to 20)
#    0.000    2.000    0.000    3.000    0.000    6.000 
#    0.000   29.167    0.000    0.000    0.000    0.000 
#    0.000    0.000    0.000    0.000    0.000    0.000 
#
# Total GULP energy -267734.013103 kJ/mol
# GULP energy per Si atom -5577.791940 kJ/mol
# Density = 2.185505 g / cm^3
# Si number density = 21.904905 Si / 1000 Ang^3
#
#
#
# Elastic Constant Matrix: (Units=GPa)
#
#
# Indices 1 2 3 4 5 6 
#
# 1 61.9527 27.9195 15.6290 0.0000 0.0000 0.0000
# 2 27.9195 104.9378 1.5344 0.0000 0.0000 0.0000
# 3 15.6290 1.5344 74.8116 0.0000 0.0000 0.0000
# 4 0.0000 0.0000 0.0000 9.9020 0.0000 0.0000
# 5 0.0000 0.0000 0.0000 0.0000 -29.1274 0.0000
# 6 0.0000 0.0000 0.0000 0.0000 0.0000 -7.6525
#
#
#
# Elastic Compliance Matrix: (Units=1/GPa)
#
#
# Indices 1 2 3 4 5 6 
#
# 1 0.019445 -0.005116 -0.003957 0.000000 0.000000 0.000000
# 2 -0.005116 0.010878 0.000846 0.000000 0.000000 0.000000
# 3 -0.003957 0.000846 0.014176 0.000000 0.000000 0.000000
# 4 0.000000 0.000000 0.000000 0.100990 0.000000 0.000000
# 5 0.000000 0.000000 0.000000 0.000000 -0.034332 0.000000
# 6 0.000000 0.000000 0.000000 0.000000 0.000000 -0.130676
#
#
# Mechanical properties :
#
#
# Convention : Reuss Voigt Hill
#
# Bulk Modulus (GPa) = 35.65737 36.87422 36.26580
# Shear Modulus (GPa) = 795.56530 7.73235 401.64883
#
# Velocity S-wave (km/s) = 19.07823 1.88086 13.55575
# Velocity P-wave (km/s) = 22.39685 4.64620 16.17415
#
# Compressibility (1/GPa) = 0.02804469
#
# Stress axis : x y z
#
# Youngs Moduli (GPa) = 51.42683 91.92737 70.54023
#
# Poissons Ratio (x) = 0.47027 0.27915
# Poissons Ratio (y) = 0.26308 -0.05965
# Poissons Ratio (z) = 0.20352 -0.07773
#
# Static dielectric constant tensor:
#      x y z
#    x 1.838800 0.000000 0.000000 
#    y 0.000000 1.923390 0.000000 
#    z 0.000000 0.000000 1.819660 
# 
# From -- ./inp_files/29871.got.cif
#   From: 2010.05.17/outbox.cif.g08.bks.cpg/sg68_15_cif.got.tgz:29871.got - 2010.06.03 18:57:09.
