data_PCOD9505683
_publ_section_title
;
Structure prediction by ZEFSAII (Michael W. Deem and Ramdas Pophale) SiO2 
 PCOD9505683
Probable space group: C C C A
;
_chemical_formula_sum "Si O2"
_cell_formula_units_Z 92
_cell_length_a 21.792647
_cell_length_b 23.596487
_cell_length_c 8.826654
_cell_angle_alpha 90.000000
_cell_angle_beta 90.000000
_cell_angle_gamma 90.000000
_cell_volume 4538.929506
_symmetry_space_group_name_H-M "C C C A"
_symmetry_group_IT_number 68
_space_group.IT_coordinate_system_code '2'
_symmetry_cell_setting 'orthorhombic'
loop_
_space_group_symop_operation_xyz
x,y,z
-x,1/2-y,z
x,1/2-y,1/2-z
-x,y,1/2-z
-x,-y,-z
x,1/2+y,-z
-x,1/2+y,1/2+z
x,-y,1/2+z
1/2+x,1/2+y,z
1/2-x,-y,z
1/2+x,-y,1/2-z
1/2-x,1/2+y,1/2-z
1/2-x,1/2-y,-z
1/2+x,y,-z
1/2-x,y,1/2+z
1/2+x,1/2-y,1/2+z
loop_
_atom_site_type_symbol
_atom_site_label
_atom_site_fract_x
_atom_site_fract_y
_atom_site_fract_z
Si Si1 0.529030 0.447619 0.916557
Si Si2 0.500000 0.750000 0.250000
Si Si3 0.904668 0.250000 0.750000
Si Si4 0.337960 0.915184 0.448909
Si Si5 0.242016 0.618876 0.815521
Si Si6 0.560499 0.828997 0.002171
Si Si7 0.795656 0.701104 0.436102
O O1 0.500000 0.443989 0.750000
O O2 0.603017 0.454744 0.927958
O O3 0.500000 0.500000 0.000000
O O4 0.519797 0.386128 0.994139
O O5 0.539927 0.711088 0.361613
O O6 0.940864 0.202592 0.842663
O O7 0.860390 0.225064 0.618854
O O8 0.293907 0.916316 0.594617
O O9 0.297249 0.918051 0.299519
O O10 0.371165 0.853355 0.464094
O O11 0.269580 0.669237 0.712026
O O12 0.201149 0.651778 0.938874
O O13 0.750000 0.750000 0.500000
#
# Coordination Sequence:
#
# PCOD9505683 Si02
#       7
#    16   4   8  16  16  16  16
#     4  10  22  49  74  96 125 174 255 296 339 411
#     4  12  24  46  66  88 152 180 220 302 342 422
#     4  12  20  33  53  96 144 177 231 260 336 418
#     4   9  20  39  63 100 134 182 225 283 345 412
#     4  10  18  32  54  89 144 176 224 258 344 423
#     4  10  23  41  63 100 137 185 230 282 355 395
#     4  11  17  27  44  83 134 195 215 245 300 412
#
# _framework density 20.269096000000001
#
# number of rings (size 3 to 8) (size 9 to 14) (size 15 to 20)
#    1.043    0.696    4.348    1.043    2.435    0.348 
#    3.130    3.478    0.000    3.130    0.000    0.000 
#    0.000    0.000    0.000    0.000    0.000    0.348 
#
# Total GULP energy -256413.742171 kJ/mol
# GULP energy per Si atom -5574.211786 kJ/mol
# Density = 2.022296 g / cm^3
# Si number density = 20.269096 Si / 1000 Ang^3
#
#
#
# Elastic Constant Matrix: (Units=GPa)
#
#
# Indices 1 2 3 4 5 6 
#
# 1 117.0454 53.4829 74.5488 0.0000 0.0000 0.0000
# 2 53.4829 91.6916 60.8936 0.0000 0.0000 0.0000
# 3 74.5488 60.8936 147.4333 0.0000 0.0000 0.0000
# 4 0.0000 0.0000 0.0000 16.0716 0.0000 0.0000
# 5 0.0000 0.0000 0.0000 0.0000 39.2194 0.0000
# 6 0.0000 0.0000 0.0000 0.0000 0.0000 26.5545
#
#
#
# Elastic Compliance Matrix: (Units=1/GPa)
#
#
# Indices 1 2 3 4 5 6 
#
# 1 0.013964 -0.004762 -0.005094 0.000000 0.000000 0.000000
# 2 -0.004762 0.016652 -0.004470 0.000000 0.000000 0.000000
# 3 -0.005094 -0.004470 0.011205 0.000000 0.000000 0.000000
# 4 0.000000 0.000000 0.000000 0.062222 0.000000 0.000000
# 5 0.000000 0.000000 0.000000 0.000000 0.025498 0.000000
# 6 0.000000 0.000000 0.000000 0.000000 0.000000 0.037658
#
#
# Mechanical properties :
#
#
# Convention : Reuss Voigt Hill
#
# Bulk Modulus (GPa) = 75.93542 81.55787 78.74664
# Shear Modulus (GPa) = 24.96993 27.51876 26.24435
#
# Velocity S-wave (km/s) = 3.51368 3.68866 3.60223
# Velocity P-wave (km/s) = 7.34889 7.64634 7.49909
#
# Compressibility (1/GPa) = 0.01316908
#
# Stress axis : x y z
#
# Youngs Moduli (GPa) = 71.61150 60.05148 89.24858
#
# Poissons Ratio (x) = 0.28598 0.45463
# Poissons Ratio (y) = 0.34103 0.39893
# Poissons Ratio (z) = 0.36479 0.26842
#
# Static dielectric constant tensor:
#      x y z
#    x 1.844870 0.000000 0.000000 
#    y 0.000000 1.824770 0.000000 
#    z 0.000000 0.000000 1.694360 
# 
# From -- ./inp_files/7327.got.cif
#   From: 2010.05.17/outbox.cif.g08.bks.cpg/sg68_4_cif.got.tgz:7327.got - 2010.06.03 18:57:09.
