data_PCOD9505283
_publ_section_title
;
Structure prediction by ZEFSAII (Michael W. Deem and Ramdas Pophale) SiO2 
 PCOD9505283
Probable space group: C M M A
;
_chemical_formula_sum "Si O2"
_cell_formula_units_Z 40
_cell_length_a 21.000000
_cell_length_b 24.000000
_cell_length_c 9.000000
_cell_angle_alpha 90.000000
_cell_angle_beta 90.000000
_cell_angle_gamma 90.000000
_cell_volume 4536.000000
_symmetry_space_group_name_H-M "C M M A"
_symmetry_group_IT_number 67
_symmetry_cell_setting 'orthorhombic'
loop_
_space_group_symop_operation_xyz
x,y,z
-x,1/2-y,z
x,-y,-z
-x,1/2+y,-z
-x,-y,-z
x,1/2+y,-z
-x,y,z
x,1/2-y,z
1/2+x,1/2+y,z
1/2-x,-y,z
1/2+x,1/2-y,-z
1/2-x,y,-z
1/2-x,1/2-y,-z
1/2+x,y,-z
1/2-x,1/2+y,z
1/2+x,-y,z
loop_
_atom_site_type_symbol
_atom_site_label
_atom_site_fract_x
_atom_site_fract_y
_atom_site_fract_z
Si Si1 0.297631 0.250000 0.210611
Si Si2 0.833332 0.566442 0.850072
Si Si3 0.851810 0.250000 0.122384
Si Si4 0.421137 0.347704 0.699849
Si Si5 0.177793 0.148737 0.568872
Si Si6 0.684617 0.433929 0.186464
O O1 0.220462 0.250000 0.189742
O O2 0.316258 0.196923 0.308633
O O3 0.335045 0.250000 0.053353
O O4 0.890341 0.594354 0.759266
O O5 0.760001 0.582747 0.812703
O O6 0.828186 0.500169 0.820323
O O7 0.841003 0.583058 0.023663
O O8 0.893051 0.197750 0.183069
O O9 0.500000 0.346409 0.687297
O O10 0.378338 0.337992 0.549836
O O11 0.250000 0.143197 0.500000
O O12 0.159311 0.093963 0.664100
#
# Coordination Sequence:
#
# PCOD9505283 Si02
#       6
#     8  16   8  16  16  16
#     4  11  22  38  68  95 116 146 213 263 287 348
#     4   9  18  37  60  88 116 152 207 260 298 352
#     4  11  22  41  65  92 117 156 204 256 304 360
#     4  12  25  40  57  88 130 166 195 246 320 383
#     4  12  21  37  60  93 124 158 201 254 311 362
#     4   9  18  35  63  89 113 150 210 264 296 342
#
# _framework density 8.8183419999999995
#
# number of rings (size 3 to 8) (size 9 to 14) (size 15 to 20)
#    0.000    1.400    4.000    3.600    0.000    4.000 
#    0.000    9.000    0.000    0.000    0.000    0.000 
#    0.000    0.000    0.000    0.000    0.000    0.000 
#
# Total GULP energy -222735.771864 kJ/mol
# GULP energy per Si atom -5568.394297 kJ/mol
# Density = 0.879827 g / cm^3
# Si number density = 8.818342 Si / 1000 Ang^3
#
#
#
# Elastic Constant Matrix: (Units=GPa)
#
#
# Indices 1 2 3 4 5 6 
#
# 1 142.6075 34.4504 61.2557 0.0000 0.0000 0.0000
# 2 34.4504 59.9835 47.5113 0.0000 0.0000 0.0000
# 3 61.2557 47.5113 132.7796 0.0000 0.0000 0.0000
# 4 0.0000 0.0000 0.0000 34.6991 0.0000 0.0000
# 5 0.0000 0.0000 0.0000 0.0000 27.3742 0.0000
# 6 0.0000 0.0000 0.0000 0.0000 0.0000 24.3963
#
#
#
# Elastic Compliance Matrix: (Units=1/GPa)
#
#
# Indices 1 2 3 4 5 6 
#
# 1 0.009034 -0.002634 -0.003225 0.000000 0.000000 0.000000
# 2 -0.002634 0.024033 -0.007384 0.000000 0.000000 0.000000
# 3 -0.003225 -0.007384 0.011661 0.000000 0.000000 0.000000
# 4 0.000000 0.000000 0.000000 0.028819 0.000000 0.000000
# 5 0.000000 0.000000 0.000000 0.000000 0.036531 0.000000
# 6 0.000000 0.000000 0.000000 0.000000 0.000000 0.040990
#
#
# Mechanical properties :
#
#
# Convention : Reuss Voigt Hill
#
# Bulk Modulus (GPa) = 54.82035 69.08947 61.95491
# Shear Modulus (GPa) = 27.22786 30.10413 28.66599
#
# Velocity S-wave (km/s) = 3.93341 4.13595 4.03595
# Velocity P-wave (km/s) = 7.19580 7.87825 7.54475
#
# Compressibility (1/GPa) = 0.01824140
#
# Stress axis : x y z
#
# Youngs Moduli (GPa) = 110.69445 41.60954 85.75265
#
# Poissons Ratio (x) = 0.10959 0.27657
# Poissons Ratio (y) = 0.29155 0.63323
# Poissons Ratio (z) = 0.35701 0.30726
#
# Static dielectric constant tensor:
#      x y z
#    x 1.563150 0.000000 0.000000 
#    y 0.000000 1.693460 0.000000 
#    z 0.000000 0.000000 1.643970 
# 
# From -- ./inp_files/11167.got.cif
#   From: 2010.05.17/outbox.ucp.g08.bks.cvg/sg67_6_cif.got.tgz:11167.got - 2010.06.11 16:47:20.
