data_PCOD9505525
_publ_section_title
;
Structure prediction by ZEFSAII (Michael W. Deem and Ramdas Pophale) SiO2 
 PCOD9505525
Probable space group: C C C A
;
_chemical_formula_sum "Si O2"
_cell_formula_units_Z 104
_cell_length_a 11.394397
_cell_length_b 17.341187
_cell_length_c 26.000012
_cell_angle_alpha 90.000000
_cell_angle_beta 90.000000
_cell_angle_gamma 90.000000
_cell_volume 5137.403968
_symmetry_space_group_name_H-M "C C C A"
_symmetry_group_IT_number 68
_space_group.IT_coordinate_system_code '2'
_symmetry_cell_setting 'orthorhombic'
loop_
_space_group_symop_operation_xyz
x,y,z
-x,1/2-y,z
x,1/2-y,1/2-z
-x,y,1/2-z
-x,-y,-z
x,1/2+y,-z
-x,1/2+y,1/2+z
x,-y,1/2+z
1/2+x,1/2+y,z
1/2-x,-y,z
1/2+x,-y,1/2-z
1/2-x,1/2+y,1/2-z
1/2-x,1/2-y,-z
1/2+x,y,-z
1/2-x,y,1/2+z
1/2+x,1/2-y,1/2+z
loop_
_atom_site_type_symbol
_atom_site_label
_atom_site_fract_x
_atom_site_fract_y
_atom_site_fract_z
Si Si1 0.621096 0.729490 0.055779
Si Si2 0.739137 0.631818 0.967151
Si Si3 0.876829 0.038443 0.615159
Si Si4 0.413819 0.582002 0.383083
Si Si5 0.870678 0.415735 0.235968
Si Si6 0.250000 0.500000 0.466218
Si Si7 0.120060 0.406538 0.725201
O O1 0.500000 0.750000 0.028331
O O2 0.687540 0.809213 0.067783
O O3 0.585561 0.672170 0.101715
O O4 0.695187 0.681538 0.014974
O O5 0.635303 0.590978 0.935507
O O6 0.808299 0.562242 0.995155
O O7 0.896941 0.092827 0.664128
O O8 0.750000 0.000000 0.621679
O O9 0.967680 0.968061 0.615896
O O10 0.362733 0.576735 0.325657
O O11 0.338062 0.541734 0.427718
O O12 0.875966 0.502546 0.258854
O O13 0.750014 0.377900 0.257593
O O14 0.000000 0.381043 0.250000
O O15 0.000000 0.373736 0.750000
#
# Coordination Sequence:
#
# PCOD9505525 Si02
#       7
#    16  16  16  16  16   8  16
#     4  10  23  41  56  79 122 164 194 243 309 370
#     4  10  23  39  57  85 118 156 202 246 306 360
#     4  12  20  33  59  92 116 152 203 253 299 365
#     4  11  22  35  63  90 118 156 203 252 301 364
#     4  10  17  33  53  86 123 153 189 247 311 359
#     4  10  22  36  60  90 118 148 208 256 294 356
#     4  10  18  31  53  89 128 149 188 258 315 351
#
# _framework density 20.243687000000001
#
# number of rings (size 3 to 8) (size 9 to 14) (size 15 to 20)
#    0.000    1.538    5.385    1.846    2.154    1.231 
#    0.000    0.000    0.000    3.231    0.000    1.077 
#    0.000    0.000    0.000    0.000    0.000    0.000 
#
# Total GULP energy -289549.251469 kJ/mol
# GULP energy per Si atom -5568.254836 kJ/mol
# Density = 2.019761 g / cm^3
# Si number density = 20.243687 Si / 1000 Ang^3
#
#
#
# Elastic Constant Matrix: (Units=GPa)
#
#
# Indices 1 2 3 4 5 6 
#
# 1 107.4595 24.4849 6.3887 0.0000 0.0000 0.0000
# 2 24.4849 75.5210 28.6627 0.0000 0.0000 0.0000
# 3 6.3887 28.6627 97.4500 0.0000 0.0000 0.0000
# 4 0.0000 0.0000 0.0000 52.4355 0.0000 0.0000
# 5 0.0000 0.0000 0.0000 0.0000 18.3694 0.0000
# 6 0.0000 0.0000 0.0000 0.0000 0.0000 13.0629
#
#
#
# Elastic Compliance Matrix: (Units=1/GPa)
#
#
# Indices 1 2 3 4 5 6 
#
# 1 0.010058 -0.003389 0.000337 0.000000 0.000000 0.000000
# 2 -0.003389 0.016047 -0.004498 0.000000 0.000000 0.000000
# 3 0.000337 -0.004498 0.011562 0.000000 0.000000 0.000000
# 4 0.000000 0.000000 0.000000 0.019071 0.000000 0.000000
# 5 0.000000 0.000000 0.000000 0.000000 0.054438 0.000000
# 6 0.000000 0.000000 0.000000 0.000000 0.000000 0.076553
#
#
# Mechanical properties :
#
#
# Convention : Reuss Voigt Hill
#
# Bulk Modulus (GPa) = 44.30864 44.38922 44.34893
# Shear Modulus (GPa) = 23.76978 31.49984 27.63481
#
# Velocity S-wave (km/s) = 3.43035 3.94894 3.69874
# Velocity P-wave (km/s) = 6.13391 6.53966 6.34004
#
# Compressibility (1/GPa) = 0.02256896
#
# Stress axis : x y z
#
# Youngs Moduli (GPa) = 99.42381 62.31645 86.48679
#
# Poissons Ratio (x) = 0.21119 -0.02918
# Poissons Ratio (y) = 0.33694 0.38899
# Poissons Ratio (z) = -0.03355 0.28028
#
# Static dielectric constant tensor:
#      x y z
#    x 1.767200 0.000000 0.000000 
#    y 0.000000 1.764290 0.000000 
#    z 0.000000 0.000000 1.737850 
# 
# From -- ./inp_files/50322.got.cif
#   From: 2010.05.17/outbox.cif.g08.bks.cpg/sg68_26_cif.got.tgz:50322.got - 2010.06.03 18:57:09.
