data_PCOD9505882
_publ_section_title
;
Structure prediction by ZEFSAII (Michael W. Deem and Ramdas Pophale) SiO2 
 PCOD9505882
Probable space group: C C C A
;
_chemical_formula_sum "Si O2"
_cell_formula_units_Z 72
_cell_length_a 7.754539
_cell_length_b 21.682174
_cell_length_c 18.413693
_cell_angle_alpha 90.000000
_cell_angle_beta 90.000000
_cell_angle_gamma 90.000000
_cell_volume 3095.991132
_symmetry_space_group_name_H-M "C C C A"
_symmetry_group_IT_number 68
_space_group.IT_coordinate_system_code '2'
_symmetry_cell_setting 'orthorhombic'
loop_
_space_group_symop_operation_xyz
x,y,z
-x,1/2-y,z
x,1/2-y,1/2-z
-x,y,1/2-z
-x,-y,-z
x,1/2+y,-z
-x,1/2+y,1/2+z
x,-y,1/2+z
1/2+x,1/2+y,z
1/2-x,-y,z
1/2+x,-y,1/2-z
1/2-x,1/2+y,1/2-z
1/2-x,1/2-y,-z
1/2+x,y,-z
1/2-x,y,1/2+z
1/2+x,1/2-y,1/2+z
loop_
_atom_site_type_symbol
_atom_site_label
_atom_site_fract_x
_atom_site_fract_y
_atom_site_fract_z
Si Si1 0.348457 0.792969 0.057989
Si Si2 0.295777 0.185152 0.720007
Si Si3 0.250000 0.000000 0.049105
Si Si4 0.464079 0.413488 0.558342
Si Si5 0.822076 0.431594 0.293523
O O1 0.500000 0.750000 0.087031
O O2 0.264761 0.814515 0.133209
O O3 0.441166 0.853841 0.025649
O O4 0.250000 0.750000 0.000000
O O5 0.227475 0.250000 0.750000
O O6 0.500000 0.183716 0.750000
O O7 0.220950 0.120828 0.749204
O O8 0.109444 0.040080 0.089529
O O9 0.354596 0.048407 0.999425
O O10 0.350033 0.399596 0.627921
O O11 0.750000 0.500000 0.304580
O O12 0.000000 0.440605 0.250000
#
# Coordination Sequence:
#
# PCOD9505882 Si02
#       5
#    16  16   8  16  16
#     4  12  23  39  67 100 131 174 230 287 349 420
#     4  10  18  39  68  90 123 177 232 275 338 428
#     4  10  24  38  60  88 142 168 226 282 352 418
#     4  11  21  41  60  95 130 184 221 285 354 427
#     4  11  22  38  67  95 129 175 238 291 353 423
#
# _framework density 23.255880000000001
#
# number of rings (size 3 to 8) (size 9 to 14) (size 15 to 20)
#    0.000    1.111    7.778    1.333    1.556    0.000 
#    0.000    0.000    0.000    0.000    0.000    0.000 
#    0.000    0.000    0.000    0.000    0.000    0.000 
#
# Total GULP energy -200766.077203 kJ/mol
# GULP energy per Si atom -5576.835478 kJ/mol
# Density = 2.320295 g / cm^3
# Si number density = 23.255880 Si / 1000 Ang^3
#
#
#
# Elastic Constant Matrix: (Units=GPa)
#
#
# Indices 1 2 3 4 5 6 
#
# 1 29.0831 32.0770 15.4014 0.0000 0.0000 0.0000
# 2 32.0770 175.9676 49.4347 0.0000 0.0000 0.0000
# 3 15.4014 49.4347 126.8808 0.0000 0.0000 0.0000
# 4 0.0000 0.0000 0.0000 36.0432 0.0000 0.0000
# 5 0.0000 0.0000 0.0000 0.0000 5.1803 0.0000
# 6 0.0000 0.0000 0.0000 0.0000 0.0000 40.4478
#
#
#
# Elastic Compliance Matrix: (Units=1/GPa)
#
#
# Indices 1 2 3 4 5 6 
#
# 1 0.043717 -0.007275 -0.002472 0.000000 0.000000 0.000000
# 2 -0.007275 0.007592 -0.002075 0.000000 0.000000 0.000000
# 3 -0.002472 -0.002075 0.008990 0.000000 0.000000 0.000000
# 4 0.000000 0.000000 0.000000 0.027744 0.000000 0.000000
# 5 0.000000 0.000000 0.000000 0.000000 0.193039 0.000000
# 6 0.000000 0.000000 0.000000 0.000000 0.000000 0.024723
#
#
# Mechanical properties :
#
#
# Convention : Reuss Voigt Hill
#
# Bulk Modulus (GPa) = 27.28127 58.41753 42.84940
# Shear Modulus (GPa) = 14.63413 32.00215 23.31814
#
# Velocity S-wave (km/s) = 2.51124 3.71359 3.16994
# Velocity P-wave (km/s) = 4.49052 6.60013 5.64475
#
# Compressibility (1/GPa) = 0.03665518
#
# Stress axis : x y z
#
# Youngs Moduli (GPa) = 22.87445 131.72037 111.23585
#
# Poissons Ratio (x) = 0.95821 0.27500
# Poissons Ratio (y) = 0.16640 0.23080
# Poissons Ratio (z) = 0.05655 0.27330
#
# Static dielectric constant tensor:
#      x y z
#    x 2.012620 0.000000 0.000000 
#    y 0.000000 2.068890 0.000000 
#    z 0.000000 0.000000 1.875430 
# 
# From -- ./inp_files/36137.got.cif
#   From: 2010.05.17/outbox.cif.g08.bks.cpg/sg68_19_cif.got.tgz:36137.got - 2010.06.03 18:57:09.
