data_PCOD9505401
_publ_section_title
;
Structure prediction by ZEFSAII (Michael W. Deem and Ramdas Pophale) SiO2 
 PCOD9505401
Probable space group: C C C A
;
_chemical_formula_sum "Si O2"
_cell_formula_units_Z 60
_cell_length_a 26.674423
_cell_length_b 9.217007
_cell_length_c 11.805185
_cell_angle_alpha 90.000000
_cell_angle_beta 90.000000
_cell_angle_gamma 90.000000
_cell_volume 2902.403229
_symmetry_space_group_name_H-M "C C C A"
_symmetry_group_IT_number 68
_space_group.IT_coordinate_system_code '2'
_symmetry_cell_setting 'orthorhombic'
loop_
_space_group_symop_operation_xyz
x,y,z
-x,1/2-y,z
x,1/2-y,1/2-z
-x,y,1/2-z
-x,-y,-z
x,1/2+y,-z
-x,1/2+y,1/2+z
x,-y,1/2+z
1/2+x,1/2+y,z
1/2-x,-y,z
1/2+x,-y,1/2-z
1/2-x,1/2+y,1/2-z
1/2-x,1/2-y,-z
1/2+x,y,-z
1/2-x,y,1/2+z
1/2+x,1/2-y,1/2+z
loop_
_atom_site_type_symbol
_atom_site_label
_atom_site_fract_x
_atom_site_fract_y
_atom_site_fract_z
Si Si1 0.580349 0.883980 0.088070
Si Si2 0.817369 0.750302 0.560630
Si Si3 0.250000 0.500000 0.479659
Si Si4 0.500000 0.750000 0.250000
Si Si5 0.894595 0.717573 0.381293
O O1 0.631446 0.796858 0.122398
O O2 0.535442 0.843796 0.169356
O O3 0.589987 0.053996 0.091055
O O4 0.573319 0.827696 0.959250
O O5 0.779899 0.884781 0.555976
O O6 0.789266 0.600956 0.589597
O O7 0.838376 0.733925 0.431423
O O8 0.898054 0.750000 0.250000
#
# Coordination Sequence:
#
# PCOD9505401 Si02
#       5
#    16  16   8   4  16
#     4  10  24  45  67 103 136 185 234 300 347 418
#     4   9  18  36  63  99 140 181 229 276 340 422
#     4  10  16  32  70  96 140 190 214 278 346 420
#     4  12  28  44  80  96 136 180 254 290 380 406
#     4  10  22  44  70  97 148 183 229 289 352 410
#
# _framework density 20.672523999999999
#
# number of rings (size 3 to 8) (size 9 to 14) (size 15 to 20)
#    1.600    0.533    2.667    0.000    3.733    1.067 
#    0.000    1.333   11.733    0.000    0.000    0.000 
#    0.000    0.000    0.000    0.000    0.000    0.000 
#
# Total GULP energy -167110.114726 kJ/mol
# GULP energy per Si atom -5570.337158 kJ/mol
# Density = 2.062547 g / cm^3
# Si number density = 20.672524 Si / 1000 Ang^3
#
#
#
# Elastic Constant Matrix: (Units=GPa)
#
#
# Indices 1 2 3 4 5 6 
#
# 1 100.4931 50.4185 42.4926 0.0000 0.0000 0.0000
# 2 50.4185 159.6054 64.8725 0.0000 0.0000 0.0000
# 3 42.4926 64.8725 137.0760 0.0000 0.0000 0.0000
# 4 0.0000 0.0000 0.0000 -5.0036 0.0000 0.0000
# 5 0.0000 0.0000 0.0000 0.0000 23.0019 0.0000
# 6 0.0000 0.0000 0.0000 0.0000 0.0000 44.8690
#
#
#
# Elastic Compliance Matrix: (Units=1/GPa)
#
#
# Indices 1 2 3 4 5 6 
#
# 1 0.012470 -0.002932 -0.002478 0.000000 0.000000 0.000000
# 2 -0.002932 0.008447 -0.003089 0.000000 0.000000 0.000000
# 3 -0.002478 -0.003089 0.009525 0.000000 0.000000 0.000000
# 4 0.000000 0.000000 0.000000 -0.199855 0.000000 0.000000
# 5 0.000000 0.000000 0.000000 0.000000 0.043475 0.000000
# 6 0.000000 0.000000 0.000000 0.000000 0.000000 0.022287
#
#
# Mechanical properties :
#
#
# Convention : Reuss Voigt Hill
#
# Bulk Modulus (GPa) = 74.37923 79.19351 76.78637
# Shear Modulus (GPa) = -60.84753 28.53285 -16.15734
#
# Velocity S-wave (km/s) = -5.43120 3.71918 -2.79872
# Velocity P-wave (km/s) = 1.80906 7.53888 5.17504
#
# Compressibility (1/GPa) = 0.01344461
#
# Stress axis : x y z
#
# Youngs Moduli (GPa) = 80.19442 118.38393 104.98496
#
# Poissons Ratio (x) = 0.34709 0.26015
# Poissons Ratio (y) = 0.23512 0.32428
# Poissons Ratio (z) = 0.19872 0.36566
#
# Static dielectric constant tensor:
#      x y z
#    x 1.792130 0.000000 0.000000 
#    y 0.000000 1.737610 0.000000 
#    z 0.000000 0.000000 1.750030 
# 
# From -- ./inp_files/16881.got.cif
#   From: 2010.05.17/outbox.cif.g08.bks.cpg/sg68_9_cif.got.tgz:16881.got - 2010.06.03 18:57:09.
