data_PCOD9505202
_publ_section_title
;
Structure prediction by ZEFSAII (Michael W. Deem and Ramdas Pophale) SiO2 
 PCOD9505202
Probable space group: C M M A
;
_chemical_formula_sum "Si O2"
_cell_formula_units_Z 40
_cell_length_a 27.000000
_cell_length_b 9.000000
_cell_length_c 18.000000
_cell_angle_alpha 90.000000
_cell_angle_beta 90.000000
_cell_angle_gamma 90.000000
_cell_volume 4374.000000
_symmetry_space_group_name_H-M "C M M A"
_symmetry_group_IT_number 67
_symmetry_cell_setting 'orthorhombic'
loop_
_space_group_symop_operation_xyz
x,y,z
-x,1/2-y,z
x,-y,-z
-x,1/2+y,-z
-x,-y,-z
x,1/2+y,-z
-x,y,z
x,1/2-y,z
1/2+x,1/2+y,z
1/2-x,-y,z
1/2+x,1/2-y,-z
1/2-x,y,-z
1/2-x,1/2-y,-z
1/2+x,y,-z
1/2-x,1/2+y,z
1/2+x,-y,z
loop_
_atom_site_type_symbol
_atom_site_label
_atom_site_fract_x
_atom_site_fract_y
_atom_site_fract_z
Si Si1 0.559650 0.918952 0.073904
Si Si2 0.054428 0.928805 0.627855
Si Si3 0.298617 0.925543 0.723769
Si Si4 0.591132 0.075384 0.223168
Si Si5 0.337420 0.571912 0.424797
O O1 0.500000 0.913881 0.070305
O O2 0.577812 0.750000 0.078918
O O3 0.574103 0.011483 0.145533
O O4 0.577886 0.000000 0.000000
O O5 0.054192 0.750000 0.629766
O O6 0.104307 0.972798 0.584496
O O7 0.000000 0.978702 0.600518
O O8 0.063480 0.990458 0.710413
O O9 0.290956 0.750000 0.713001
O O10 0.349848 0.946346 0.767815
O O11 0.250000 0.000000 0.758063
O O12 0.308987 0.005881 0.645452
O O13 0.580641 0.250000 0.229945
O O14 0.318353 0.500000 0.500000
O O15 0.334121 0.750000 0.425913
#
# Coordination Sequence:
#
# PCOD9505202 Si02
#       5
#    16  16  16  16  16
#     4  10  20  33  51  77 109 143 175 205 240 285
#     4   9  18  32  49  70  98 134 172 206 244 293
#     4  10  21  37  56  77  99 126 164 208 255 304
#     4  10  20  33  51  76 104 132 165 207 251 296
#     4  10  20  34  51  72 100 131 165 207 253 301
#
# _framework density 9.1449470000000002
#
# number of rings (size 3 to 8) (size 9 to 14) (size 15 to 20)
#    0.000    2.200    0.000    3.000    0.000    8.000 
#    0.000    2.000    0.000    0.600    0.000    4.200 
#    0.000    0.000    0.000    0.000    0.000    0.000 
#
# Total GULP energy -223205.076703 kJ/mol
# GULP energy per Si atom -5580.126918 kJ/mol
# Density = 0.912413 g / cm^3
# Si number density = 9.144947 Si / 1000 Ang^3
#
#
#
# Elastic Constant Matrix: (Units=GPa)
#
#
# Indices 1 2 3 4 5 6 
#
# 1 48.2211 16.9506 -19.4874 0.0000 0.0000 0.0000
# 2 16.9506 -1.2841 -6.5697 0.0000 0.0000 0.0000
# 3 -19.4874 -6.5697 57.3734 0.0000 0.0000 0.0000
# 4 0.0000 0.0000 0.0000 18.3950 0.0000 0.0000
# 5 0.0000 0.0000 0.0000 0.0000 -51.9561 0.0000
# 6 0.0000 0.0000 0.0000 0.0000 0.0000 23.4688
#
#
#
# Elastic Compliance Matrix: (Units=1/GPa)
#
#
# Indices 1 2 3 4 5 6 
#
# 1 0.006757 0.048841 0.007888 0.000000 0.000000 0.000000
# 2 0.048841 -0.138043 0.000782 0.000000 0.000000 0.000000
# 3 0.007888 0.000782 0.020198 0.000000 0.000000 0.000000
# 4 0.000000 0.000000 0.000000 0.054363 0.000000 0.000000
# 5 0.000000 0.000000 0.000000 0.000000 -0.019247 0.000000
# 6 0.000000 0.000000 0.000000 0.000000 0.000000 0.042610
#
#
# Mechanical properties :
#
#
# Convention : Reuss Voigt Hill
#
# Bulk Modulus (GPa) = 254.19068 9.56640 131.87854
# Shear Modulus (GPa) = -33.99672 5.54267 -14.22703
#
# Velocity S-wave (km/s) = -4.31602 1.74271 -2.79204
# Velocity P-wave (km/s) = 10.69781 3.04814 7.86556
#
# Compressibility (1/GPa) = 0.00393405
#
# Stress axis : x y z
#
# Youngs Moduli (GPa) = 147.99630 -7.24412 49.50889
#
# Poissons Ratio (x) = 0.35381 -0.39051
# Poissons Ratio (y) = -7.22827 -0.03873
# Poissons Ratio (z) = -1.16735 0.00567
#
# Static dielectric constant tensor:
#      x y z
#    x 1.665660 0.000000 0.000000 
#    y 0.000000 1.607250 0.000000 
#    z 0.000000 0.000000 1.583070 
# 
# From -- ./inp_files/32122.got.cif
#   From: 2010.05.17/outbox.ucp.g08.bks.cvg/sg67_17_cif.got.tgz:32122.got - 2010.06.11 16:47:20.
