data_PCOD9505088
_publ_section_title
;
Structure prediction by ZEFSAII (Michael W. Deem and Ramdas Pophale) SiO2 
 PCOD9505088
Probable space group: C M M A
;
_chemical_formula_sum "Si O2"
_cell_formula_units_Z 104
_cell_length_a 31.082783
_cell_length_b 9.180284
_cell_length_c 23.687614
_cell_angle_alpha 90.000000
_cell_angle_beta 90.000000
_cell_angle_gamma 90.000000
_cell_volume 6759.231648
_symmetry_space_group_name_H-M "C M M A"
_symmetry_group_IT_number 67
_symmetry_cell_setting 'orthorhombic'
loop_
_space_group_symop_operation_xyz
x,y,z
-x,1/2-y,z
x,-y,-z
-x,1/2+y,-z
-x,-y,-z
x,1/2+y,-z
-x,y,z
x,1/2-y,z
1/2+x,1/2+y,z
1/2-x,-y,z
1/2+x,1/2-y,-z
1/2-x,y,-z
1/2-x,1/2-y,-z
1/2+x,y,-z
1/2-x,1/2+y,z
1/2+x,-y,z
loop_
_atom_site_type_symbol
_atom_site_label
_atom_site_fract_x
_atom_site_fract_y
_atom_site_fract_z
Si Si1 0.794304 0.572944 0.817354
Si Si2 0.081184 0.419291 0.104767
Si Si3 0.383636 0.577826 0.231144
Si Si4 0.947826 0.082872 0.556134
Si Si5 0.674675 0.576736 0.057462
Si Si6 0.000000 0.421196 0.940250
Si Si7 0.949801 0.073498 0.326427
O O1 0.792423 0.750000 0.815405
O O2 0.750000 0.500000 0.799435
O O3 0.835107 0.522751 0.779629
O O4 0.803276 0.532953 0.883280
O O5 0.069010 0.250000 0.094481
O O6 0.094152 0.433390 0.170060
O O7 0.123826 0.450790 0.068227
O O8 0.042451 0.524413 0.091101
O O9 0.378922 0.750000 0.243084
O O10 0.415864 0.521284 0.279128
O O11 0.932852 0.250000 0.558034
O O12 0.000000 0.086567 0.552913
O O13 0.932476 0.000000 0.500000
O O14 0.938094 0.996128 0.613389
O O15 0.680342 0.750000 0.051494
O O16 0.689128 0.500000 0.000000
O O17 0.000000 0.250000 0.947330
O O18 0.000000 0.500000 0.000000
O O19 0.948333 0.250000 0.330008
O O20 0.000000 0.035767 0.313217
#
# Coordination Sequence:
#
# PCOD9505088 Si02
#       7
#    16  16  16  16  16   8  16
#     4   9  18  33  49  67  89 113 144 181 225 272
#     4   9  18  33  50  64  82 112 146 183 224 266
#     4   8  16  31  50  69  90 117 151 187 221 267
#     4   9  16  26  40  60  90 127 161 194 226 255
#     4   9  18  31  47  66  86 108 137 177 222 272
#     4  12  24  34  44  62  84 110 145 186 225 268
#     4   9  16  26  44  69  92 121 159 190 219 261
#
# _framework density 15.386364
#
# number of rings (size 3 to 8) (size 9 to 14) (size 15 to 20)
#    0.000    2.923    0.000    3.462    1.077    4.615 
#    0.000    5.385    0.000    0.000    0.000    0.000 
#    0.000    0.615    0.000    7.077    0.000    2.462 
#
# Total GULP energy -289599.224632 kJ/mol
# GULP energy per Si atom -5569.215858 kJ/mol
# Density = 1.535134 g / cm^3
# Si number density = 15.386364 Si / 1000 Ang^3
#
#
#
# Elastic Constant Matrix: (Units=GPa)
#
#
# Indices 1 2 3 4 5 6 
#
# 1 88.7253 36.4843 44.8041 0.0000 0.0000 0.0000
# 2 36.4843 37.6733 20.6397 0.0000 0.0000 0.0000
# 3 44.8041 20.6397 87.7362 0.0000 0.0000 0.0000
# 4 0.0000 0.0000 0.0000 20.0969 0.0000 0.0000
# 5 0.0000 0.0000 0.0000 0.0000 -3.5905 0.0000
# 6 0.0000 0.0000 0.0000 0.0000 0.0000 18.3269
#
#
#
# Elastic Compliance Matrix: (Units=1/GPa)
#
#
# Indices 1 2 3 4 5 6 
#
# 1 0.022058 -0.017438 -0.007162 0.000000 0.000000 0.000000
# 2 -0.017438 0.044257 -0.001506 0.000000 0.000000 0.000000
# 3 -0.007162 -0.001506 0.015410 0.000000 0.000000 0.000000
# 4 0.000000 0.000000 0.000000 0.049759 0.000000 0.000000
# 5 0.000000 0.000000 0.000000 0.000000 -0.278510 0.000000
# 6 0.000000 0.000000 0.000000 0.000000 0.000000 0.054565
#
#
# Mechanical properties :
#
#
# Convention : Reuss Voigt Hill
#
# Bulk Modulus (GPa) = 33.88480 46.44344 40.16412
# Shear Modulus (GPa) = -164.40690 14.44710 -74.97990
#
# Velocity S-wave (km/s) = -10.34815 3.06756 -6.98836
# Velocity P-wave (km/s) = 10.98675 6.54193 6.24146
#
# Compressibility (1/GPa) = 0.02951175
#
# Stress axis : x y z
#
# Youngs Moduli (GPa) = 45.33496 22.59537 64.89468
#
# Poissons Ratio (x) = 0.39402 0.46478
# Poissons Ratio (y) = 0.79055 0.09775
# Poissons Ratio (z) = 0.32469 0.03403
#
# Static dielectric constant tensor:
#      x y z
#    x 1.517070 0.000000 0.000000 
#    y 0.000000 1.515500 0.000000 
#    z 0.000000 0.000000 1.527470 
# 
# From -- ./inp_files/41137.got.cif
#   From: 2010.05.17/outbox.cif.g08.bks.cpg/sg67_21_cif.got.tgz:41137.got - 2010.06.03 18:28:57.
