data_PCOD9505576
_publ_section_title
;
Structure prediction by ZEFSAII (Michael W. Deem and Ramdas Pophale) SiO2 
 PCOD9505576
Probable space group: C C C A
;
_chemical_formula_sum "Si O2"
_cell_formula_units_Z 100
_cell_length_a 27.216697
_cell_length_b 9.500350
_cell_length_c 21.555032
_cell_angle_alpha 90.000000
_cell_angle_beta 90.000000
_cell_angle_gamma 90.000000
_cell_volume 5573.444690
_symmetry_space_group_name_H-M "C C C A"
_symmetry_group_IT_number 68
_space_group.IT_coordinate_system_code '2'
_symmetry_cell_setting 'orthorhombic'
loop_
_space_group_symop_operation_xyz
x,y,z
-x,1/2-y,z
x,1/2-y,1/2-z
-x,y,1/2-z
-x,-y,-z
x,1/2+y,-z
-x,1/2+y,1/2+z
x,-y,1/2+z
1/2+x,1/2+y,z
1/2-x,-y,z
1/2+x,-y,1/2-z
1/2-x,1/2+y,1/2-z
1/2-x,1/2-y,-z
1/2+x,y,-z
1/2-x,y,1/2+z
1/2+x,1/2-y,1/2+z
loop_
_atom_site_type_symbol
_atom_site_label
_atom_site_fract_x
_atom_site_fract_y
_atom_site_fract_z
Si Si1 0.653748 0.750000 0.250000
Si Si2 0.212541 0.716622 0.870630
Si Si3 0.500000 0.750000 0.250000
Si Si4 0.676065 0.701821 0.862770
Si Si5 0.393771 0.250000 0.250000
Si Si6 0.356025 0.481823 0.416028
Si Si7 0.577441 0.539526 0.193864
Si Si8 0.304795 0.036874 0.959560
O O1 0.685533 0.779257 0.189351
O O2 0.620267 0.617222 0.232757
O O3 0.269706 0.731884 0.855386
O O4 0.189286 0.564240 0.883121
O O5 0.199368 0.806070 0.932395
O O6 0.531899 0.642697 0.207535
O O7 0.643388 0.688261 0.801761
O O8 0.647702 0.816529 0.903633
O O9 0.684780 0.560383 0.900490
O O10 0.424535 0.379392 0.280036
O O11 0.403589 0.535314 0.377706
O O12 0.345620 0.494476 0.488906
O O13 0.250000 0.000000 0.984442
#
# Coordination Sequence:
#
# PCOD9505576 Si02
#       8
#     8  16   4  16   8  16  16  16
#     4   9  17  31  46  72 100 134 178 211 251 295
#     4  10  18  28  45  67 101 148 184 213 239 277
#     4  10  20  42  62  80  96 118 162 210 268 344
#     4  10  19  29  45  70 106 144 176 211 243 281
#     4  10  19  33  49  80 108 128 163 209 263 308
#     4  10  19  31  45  69  99 133 178 215 249 293
#     4   9  20  34  55  76  98 124 158 212 267 316
#     4  10  19  29  43  68 103 148 192 217 240 281
#
# _framework density 17.942225000000001
#
# number of rings (size 3 to 8) (size 9 to 14) (size 15 to 20)
#    0.000    2.240    0.000    3.840    0.000    2.880 
#    0.000    4.800    0.000    0.000    0.000   40.320 
#    0.000    0.000    0.000    0.000    0.000    0.000 
#
# Total GULP energy -278412.375090 kJ/mol
# GULP energy per Si atom -5568.247502 kJ/mol
# Density = 1.790139 g / cm^3
# Si number density = 17.942225 Si / 1000 Ang^3
#
#
#
# Elastic Constant Matrix: (Units=GPa)
#
#
# Indices 1 2 3 4 5 6 
#
# 1 67.3149 27.8717 31.0992 0.0000 0.0000 0.0000
# 2 27.8717 84.3003 18.3054 0.0000 0.0000 0.0000
# 3 31.0992 18.3054 72.3306 0.0000 0.0000 0.0000
# 4 0.0000 0.0000 0.0000 10.8396 0.0000 0.0000
# 5 0.0000 0.0000 0.0000 0.0000 17.6907 0.0000
# 6 0.0000 0.0000 0.0000 0.0000 0.0000 10.6927
#
#
#
# Elastic Compliance Matrix: (Units=1/GPa)
#
#
# Indices 1 2 3 4 5 6 
#
# 1 0.020441 -0.005132 -0.007490 0.000000 0.000000 0.000000
# 2 -0.005132 0.013841 -0.001296 0.000000 0.000000 0.000000
# 3 -0.007490 -0.001296 0.017374 0.000000 0.000000 0.000000
# 4 0.000000 0.000000 0.000000 0.092254 0.000000 0.000000
# 5 0.000000 0.000000 0.000000 0.000000 0.056527 0.000000
# 6 0.000000 0.000000 0.000000 0.000000 0.000000 0.093522
#
#
# Mechanical properties :
#
#
# Convention : Reuss Voigt Hill
#
# Bulk Modulus (GPa) = 41.98320 42.05539 42.01930
# Shear Modulus (GPa) = 15.16374 17.62256 16.39315
#
# Velocity S-wave (km/s) = 2.91029 3.13738 3.02597
# Velocity P-wave (km/s) = 5.89431 6.05099 5.97316
#
# Compressibility (1/GPa) = 0.02381905
#
# Stress axis : x y z
#
# Youngs Moduli (GPa) = 48.92210 72.25157 57.55788
#
# Poissons Ratio (x) = 0.37078 0.43110
# Poissons Ratio (y) = 0.25106 0.07461
# Poissons Ratio (z) = 0.36642 0.09366
#
# Static dielectric constant tensor:
#      x y z
#    x 1.613220 0.000000 0.000000 
#    y 0.000000 1.642930 0.000000 
#    z 0.000000 0.000000 1.638910 
# 
# From -- ./inp_files/41364.got.cif
#   From: 2010.05.17/outbox.cif.g08.bks.cpg/sg68_21_cif.got.tgz:41364.got - 2010.06.03 18:57:09.
