data_PCOD9505635
_publ_section_title
;
Structure prediction by ZEFSAII (Michael W. Deem and Ramdas Pophale) SiO2 
 PCOD9505635
Probable space group: C C C A
;
_chemical_formula_sum "Si O2"
_cell_formula_units_Z 80
_cell_length_a 33.223179
_cell_length_b 25.061314
_cell_length_c 5.136582
_cell_angle_alpha 90.000000
_cell_angle_beta 90.000000
_cell_angle_gamma 90.000000
_cell_volume 4276.803035
_symmetry_space_group_name_H-M "C C C A"
_symmetry_group_IT_number 68
_space_group.IT_coordinate_system_code '2'
_symmetry_cell_setting 'orthorhombic'
loop_
_space_group_symop_operation_xyz
x,y,z
-x,1/2-y,z
x,1/2-y,1/2-z
-x,y,1/2-z
-x,-y,-z
x,1/2+y,-z
-x,1/2+y,1/2+z
x,-y,1/2+z
1/2+x,1/2+y,z
1/2-x,-y,z
1/2+x,-y,1/2-z
1/2-x,1/2+y,1/2-z
1/2-x,1/2-y,-z
1/2+x,y,-z
1/2-x,y,1/2+z
1/2+x,1/2-y,1/2+z
loop_
_atom_site_type_symbol
_atom_site_label
_atom_site_fract_x
_atom_site_fract_y
_atom_site_fract_z
Si Si1 0.587968 0.642047 0.311404
Si Si2 0.915127 0.476233 0.534047
Si Si3 0.633600 0.813440 0.694341
Si Si4 0.000000 0.626857 0.750000
Si Si5 0.000000 0.553199 0.250000
Si Si6 0.273917 0.185104 0.254945
O O1 0.587546 0.578373 0.370599
O O2 0.611379 0.663472 0.557788
O O3 0.540919 0.658034 0.310115
O O4 0.610168 0.664932 0.058149
O O5 0.897495 0.518651 0.325984
O O6 0.962155 0.478935 0.631063
O O7 0.633135 0.750000 0.750000
O O8 0.680371 0.830496 0.685388
O O9 0.988995 0.591592 0.493925
O O10 0.273568 0.250000 0.250000
O O11 0.243035 0.167392 0.477624
#
# Coordination Sequence:
#
# PCOD9505635 Si02
#       6
#    16  16  16   8   8  16
#     4  11  22  37  52  75 108 143 185 226 262 307
#     4  11  20  32  51  76 104 135 175 224 282 330
#     4  11  22  37  56  78 108 144 177 213 262 316
#     4  10  20  35  51  70 103 146 187 234 267 295
#     4  10  18  31  50  74  98 130 176 230 292 339
#     4   9  17  31  53  80 106 129 157 204 269 333
#
# _framework density 18.705562
#
# number of rings (size 3 to 8) (size 9 to 14) (size 15 to 20)
#    0.000    1.600    0.000    8.400    0.000    4.000 
#    0.000    3.000    0.000    0.000    0.000    0.000 
#    0.000   56.000    0.000    0.000    0.000    0.000 
#
# Total GULP energy -222780.493986 kJ/mol
# GULP energy per Si atom -5569.512350 kJ/mol
# Density = 1.866299 g / cm^3
# Si number density = 18.705562 Si / 1000 Ang^3
#
#
#
# Elastic Constant Matrix: (Units=GPa)
#
#
# Indices 1 2 3 4 5 6 
#
# 1 116.6750 26.9015 45.9937 0.0000 0.0000 0.0000
# 2 26.9015 33.7896 30.3356 0.0000 0.0000 0.0000
# 3 45.9937 30.3356 176.9789 0.0000 0.0000 0.0000
# 4 0.0000 0.0000 0.0000 32.4919 0.0000 0.0000
# 5 0.0000 0.0000 0.0000 0.0000 21.9110 0.0000
# 6 0.0000 0.0000 0.0000 0.0000 0.0000 -161.3491
#
#
#
# Elastic Compliance Matrix: (Units=1/GPa)
#
#
# Indices 1 2 3 4 5 6 
#
# 1 0.010861 -0.007225 -0.001584 0.000000 0.000000 0.000000
# 2 -0.007225 0.039783 -0.004942 0.000000 0.000000 0.000000
# 3 -0.001584 -0.004942 0.006909 0.000000 0.000000 0.000000
# 4 0.000000 0.000000 0.000000 0.030777 0.000000 0.000000
# 5 0.000000 0.000000 0.000000 0.000000 0.045639 0.000000
# 6 0.000000 0.000000 0.000000 0.000000 0.000000 -0.006198
#
#
# Mechanical properties :
#
#
# Convention : Reuss Voigt Hill
#
# Bulk Modulus (GPa) = 33.27523 59.32279 46.29901
# Shear Modulus (GPa) = 30.24975 -6.44174 11.90401
#
# Velocity S-wave (km/s) = 4.02575 -1.85775 2.52541
# Velocity P-wave (km/s) = 6.27984 5.21356 5.77138
#
# Compressibility (1/GPa) = 0.03005239
#
# Stress axis : x y z
#
# Youngs Moduli (GPa) = 92.07148 25.13619 144.73600
#
# Poissons Ratio (x) = 0.18160 0.22930
# Poissons Ratio (y) = 0.66519 0.71522
# Poissons Ratio (z) = 0.14586 0.12421
#
# Static dielectric constant tensor:
#      x y z
#    x 1.656060 0.000000 0.000000 
#    y 0.000000 1.751560 0.000000 
#    z 0.000000 0.000000 1.697250 
# 
# From -- ./inp_files/2755.got.cif
#   From: 2010.05.17/outbox.cif.g08.bks.cpg/sg68_2_cif.got.tgz:2755.got - 2010.06.03 18:57:09.
