data_PCOD9505929
_publ_section_title
;
Structure prediction by ZEFSAII (Michael W. Deem and Ramdas Pophale) SiO2 
 PCOD9505929
Probable space group: C C C A
;
_chemical_formula_sum "Si O2"
_cell_formula_units_Z 52
_cell_length_a 26.194616
_cell_length_b 14.432907
_cell_length_c 5.134395
_cell_angle_alpha 90.000000
_cell_angle_beta 90.000000
_cell_angle_gamma 90.000000
_cell_volume 1941.132256
_symmetry_space_group_name_H-M "C C C A"
_symmetry_group_IT_number 68
_space_group.IT_coordinate_system_code '2'
_symmetry_cell_setting 'orthorhombic'
loop_
_space_group_symop_operation_xyz
x,y,z
-x,1/2-y,z
x,1/2-y,1/2-z
-x,y,1/2-z
-x,-y,-z
x,1/2+y,-z
-x,1/2+y,1/2+z
x,-y,1/2+z
1/2+x,1/2+y,z
1/2-x,-y,z
1/2+x,-y,1/2-z
1/2-x,1/2+y,1/2-z
1/2-x,1/2-y,-z
1/2+x,y,-z
1/2-x,y,1/2+z
1/2+x,1/2-y,1/2+z
loop_
_atom_site_type_symbol
_atom_site_label
_atom_site_fract_x
_atom_site_fract_y
_atom_site_fract_z
Si Si1 0.113736 0.639488 0.688708
Si Si2 0.000000 0.250000 0.750000
Si Si3 0.553964 0.083621 0.163750
Si Si4 0.770336 0.895323 0.771559
O O1 0.114336 0.750000 0.750000
O O2 0.083808 0.616709 0.422994
O O3 0.172654 0.609713 0.667471
O O4 0.090276 0.570074 0.913035
O O5 0.969641 0.318451 0.932208
O O6 0.500000 0.033693 0.250000
O O7 0.733376 0.851682 0.556617
O O8 0.750000 0.000000 0.818447
#
# Coordination Sequence:
#
# PCOD9505929 Si02
#       4
#    16   4  16  16
#     4  12  19  33  56  86 114 150 183 227 274 321
#     4   8  16  30  48  74 136 150 172 202 274 334
#     4  10  19  30  51  84 127 150 174 213 272 341
#     4  10  23  41  57  77 105 147 197 236 280 327
#
# _framework density 26.788488999999998
#
# number of rings (size 3 to 8) (size 9 to 14) (size 15 to 20)
#    0.923    0.615    3.077    2.769    0.000    3.692 
#    0.000    0.000    0.000    0.000    0.000   86.154 
#    0.000    0.000    0.000    0.000    0.000    1.846 
#
# Total GULP energy -144932.752729 kJ/mol
# GULP energy per Si atom -5574.336643 kJ/mol
# Density = 2.672752 g / cm^3
# Si number density = 26.788489 Si / 1000 Ang^3
#
#
#
# Elastic Constant Matrix: (Units=GPa)
#
#
# Indices 1 2 3 4 5 6 
#
# 1 155.3843 5.8519 38.8254 0.0000 0.0000 0.0000
# 2 5.8519 136.0571 -18.6014 0.0000 0.0000 0.0000
# 3 38.8254 -18.6014 201.8773 0.0000 0.0000 0.0000
# 4 0.0000 0.0000 0.0000 57.1077 0.0000 0.0000
# 5 0.0000 0.0000 0.0000 0.0000 41.8642 0.0000
# 6 0.0000 0.0000 0.0000 0.0000 0.0000 55.6535
#
#
#
# Elastic Compliance Matrix: (Units=1/GPa)
#
#
# Indices 1 2 3 4 5 6 
#
# 1 0.006791 -0.000477 -0.001350 0.000000 0.000000 0.000000
# 2 -0.000477 0.007477 0.000781 0.000000 0.000000 0.000000
# 3 -0.001350 0.000781 0.005285 0.000000 0.000000 0.000000
# 4 0.000000 0.000000 0.000000 0.017511 0.000000 0.000000
# 5 0.000000 0.000000 0.000000 0.000000 0.023887 0.000000
# 6 0.000000 0.000000 0.000000 0.000000 0.000000 0.017968
#
#
# Mechanical properties :
#
#
# Convention : Reuss Voigt Hill
#
# Bulk Modulus (GPa) = 57.27017 60.60782 58.93899
# Shear Modulus (GPa) = 57.58299 62.07463 59.82881
#
# Velocity S-wave (km/s) = 4.64135 4.81897 4.73099
# Velocity P-wave (km/s) = 7.08151 7.32372 7.20364
#
# Compressibility (1/GPa) = 0.01746110
#
# Stress axis : x y z
#
# Youngs Moduli (GPa) = 147.25548 133.74206 189.21270
#
# Poissons Ratio (x) = 0.06375 0.25543
# Poissons Ratio (y) = 0.07019 -0.14770
# Poissons Ratio (z) = 0.19879 -0.10440
#
# Static dielectric constant tensor:
#      x y z
#    x 2.087030 0.000000 0.000000 
#    y 0.000000 2.734110 0.000000 
#    z 0.000000 0.000000 2.228180 
# 
# From -- ./inp_files/1283.got.cif
#   From: 2010.05.17/outbox.cif.g08.bks.cpg/sg68_1_cif.got.tgz:1283.got - 2010.06.03 18:57:09.
