data_PCOD9505238
_publ_section_title
;
Structure prediction by ZEFSAII (Michael W. Deem and Ramdas Pophale) SiO2 
 PCOD9505238
Probable space group: C M M A
;
_chemical_formula_sum "Si O2"
_cell_formula_units_Z 32
_cell_length_a 9.000000
_cell_length_b 15.000000
_cell_length_c 24.000000
_cell_angle_alpha 90.000000
_cell_angle_beta 90.000000
_cell_angle_gamma 90.000000
_cell_volume 3240.000000
_symmetry_space_group_name_H-M "C M M A"
_symmetry_group_IT_number 67
_symmetry_cell_setting 'orthorhombic'
loop_
_space_group_symop_operation_xyz
x,y,z
-x,1/2-y,z
x,-y,-z
-x,1/2+y,-z
-x,-y,-z
x,1/2+y,-z
-x,y,z
x,1/2-y,z
1/2+x,1/2+y,z
1/2-x,-y,z
1/2+x,1/2-y,-z
1/2-x,y,-z
1/2-x,1/2-y,-z
1/2+x,y,-z
1/2-x,1/2+y,z
1/2+x,-y,z
loop_
_atom_site_type_symbol
_atom_site_label
_atom_site_fract_x
_atom_site_fract_y
_atom_site_fract_z
Si Si1 0.177838 0.411195 0.678226
Si Si2 0.323041 0.644635 0.556079
Si Si3 0.171674 0.750000 0.144603
Si Si4 0.174619 0.094175 0.943199
Si Si5 0.325695 0.750000 0.258490
O O1 0.250000 0.500000 0.700558
O O2 0.224318 0.399023 0.613689
O O3 0.245805 0.332747 0.713361
O O4 0.000000 0.411198 0.680447
O O5 0.500000 0.636804 0.551196
O O6 0.286688 0.750000 0.560564
O O7 0.250000 0.609277 0.500000
O O8 0.191782 0.835861 0.105952
O O9 0.287920 0.750000 0.193834
O O10 0.000000 0.750000 0.165778
O O11 0.000000 0.081370 0.953206
O O12 0.250000 0.000000 0.929917
O O13 0.250000 0.127775 0.000000
O O14 0.500000 0.750000 0.269484
#
# Coordination Sequence:
#
# PCOD9505238 Si02
#       5
#    16  16   8  16   8
#     4  11  23  42  64  88 120 157 200 249 303 362
#     4   9  18  34  57  85 117 154 190 237 298 356
#     4  10  23  41  61  85 119 162 201 246 298 350
#     4  10  20  36  60  90 124 160 196 239 293 347
#     4  12  26  43  64  89 117 158 206 254 307 358
#
# _framework density 9.8765429999999999
#
# number of rings (size 3 to 8) (size 9 to 14) (size 15 to 20)
#    0.000    1.750    1.250    3.750    0.000    5.500 
#    0.000    5.000    0.000    0.000    0.000    0.000 
#    0.000    0.000    0.000    0.000    0.000    0.000 
#
# Total GULP energy -178697.802920 kJ/mol
# GULP energy per Si atom -5584.306341 kJ/mol
# Density = 0.985406 g / cm^3
# Si number density = 9.876543 Si / 1000 Ang^3
#
#
#
# Elastic Constant Matrix: (Units=GPa)
#
#
# Indices 1 2 3 4 5 6 
#
# 1 82.7768 50.9199 54.9056 0.0000 0.0000 0.0000
# 2 50.9199 110.4940 52.0832 0.0000 0.0000 0.0000
# 3 54.9056 52.0832 72.4532 0.0000 0.0000 0.0000
# 4 0.0000 0.0000 0.0000 90.3001 0.0000 0.0000
# 5 0.0000 0.0000 0.0000 0.0000 33.4126 0.0000
# 6 0.0000 0.0000 0.0000 0.0000 0.0000 35.8820
#
#
#
# Elastic Compliance Matrix: (Units=1/GPa)
#
#
# Indices 1 2 3 4 5 6 
#
# 1 0.025397 -0.003981 -0.016385 0.000000 0.000000 0.000000
# 2 -0.003981 0.014313 -0.007272 0.000000 0.000000 0.000000
# 3 -0.016385 -0.007272 0.031446 0.000000 0.000000 0.000000
# 4 0.000000 0.000000 0.000000 0.011074 0.000000 0.000000
# 5 0.000000 0.000000 0.000000 0.000000 0.029929 0.000000
# 6 0.000000 0.000000 0.000000 0.000000 0.000000 0.027869
#
#
# Mechanical properties :
#
#
# Convention : Reuss Voigt Hill
#
# Bulk Modulus (GPa) = 62.96859 64.61571 63.79215
# Shear Modulus (GPa) = 24.92568 39.10662 32.01615
#
# Velocity S-wave (km/s) = 3.55612 4.45429 4.03031
# Velocity P-wave (km/s) = 6.98630 7.69656 7.35001
#
# Compressibility (1/GPa) = 0.01588093
#
# Stress axis : x y z
#
# Youngs Moduli (GPa) = 39.37414 69.86887 31.80073
#
# Poissons Ratio (x) = 0.27814 0.52104
# Poissons Ratio (y) = 0.15674 0.23125
# Poissons Ratio (z) = 0.64513 0.50808
#
# Static dielectric constant tensor:
#      x y z
#    x 1.656520 0.000000 0.000000 
#    y 0.000000 1.672340 0.000000 
#    z 0.000000 0.000000 1.689240 
# 
# From -- ./inp_files/40425.got.cif
#   From: 2010.05.17/outbox.ucp.g08.bks.cvg/sg67_21_cif.got.tgz:40425.got - 2010.06.11 16:47:20.
