data_PCOD9505622
_publ_section_title
;
Structure prediction by ZEFSAII (Michael W. Deem and Ramdas Pophale) SiO2 
 PCOD9505622
Probable space group: C C C A
;
_chemical_formula_sum "Si O2"
_cell_formula_units_Z 80
_cell_length_a 8.564891
_cell_length_b 17.743957
_cell_length_c 25.541540
_cell_angle_alpha 90.000000
_cell_angle_beta 90.000000
_cell_angle_gamma 90.000000
_cell_volume 3881.677013
_symmetry_space_group_name_H-M "C C C A"
_symmetry_group_IT_number 68
_space_group.IT_coordinate_system_code '2'
_symmetry_cell_setting 'orthorhombic'
loop_
_space_group_symop_operation_xyz
x,y,z
-x,1/2-y,z
x,1/2-y,1/2-z
-x,y,1/2-z
-x,-y,-z
x,1/2+y,-z
-x,1/2+y,1/2+z
x,-y,1/2+z
1/2+x,1/2+y,z
1/2-x,-y,z
1/2+x,-y,1/2-z
1/2-x,1/2+y,1/2-z
1/2-x,1/2-y,-z
1/2+x,y,-z
1/2-x,y,1/2+z
1/2+x,1/2-y,1/2+z
loop_
_atom_site_type_symbol
_atom_site_label
_atom_site_fract_x
_atom_site_fract_y
_atom_site_fract_z
Si Si1 0.459380 0.931411 0.837952
Si Si2 0.250000 0.000000 0.993250
Si Si3 0.828716 0.776836 0.189128
Si Si4 0.006848 0.550186 0.575217
Si Si5 0.000000 0.552271 0.750000
Si Si6 0.185097 0.134610 0.163601
O O1 0.337952 0.864816 0.824260
O O2 0.639327 0.900832 0.837062
O O3 0.451114 0.973716 0.893004
O O4 0.437352 0.995040 0.793905
O O5 0.375985 0.963608 0.031659
O O6 0.163576 0.936957 0.957818
O O7 0.820458 0.750000 0.250000
O O8 0.702389 0.724527 0.161500
O O9 0.000000 0.750000 0.171098
O O10 0.928038 0.603935 0.618279
O O11 0.882750 0.605692 0.718679
#
# Coordination Sequence:
#
# PCOD9505622 Si02
#       6
#    16   8  16  16   8  16
#     4  10  18  34  56  87 114 160 200 244 300 367
#     4  10  20  36  60  84 112 140 204 268 328 348
#     4   9  18  33  55  79 118 165 198 229 291 369
#     4  10  19  36  60  86 110 150 197 265 309 366
#     4  10  18  30  54  86 120 150 206 246 284 356
#     4  10  19  35  55  86 119 158 200 248 300 362
#
# _framework density 20.609649999999998
#
# number of rings (size 3 to 8) (size 9 to 14) (size 15 to 20)
#    0.000    2.200    2.000    4.200    0.000    0.000 
#   21.600    0.500    0.000    7.200    0.000    0.000 
#    0.000    0.000    0.000    0.000    0.000    0.000 
#
# Total GULP energy -222994.727275 kJ/mol
# GULP energy per Si atom -5574.868182 kJ/mol
# Density = 2.056274 g / cm^3
# Si number density = 20.609650 Si / 1000 Ang^3
#
#
#
# Elastic Constant Matrix: (Units=GPa)
#
#
# Indices 1 2 3 4 5 6 
#
# 1 79.7638 45.8523 69.2759 0.0000 0.0000 0.0000
# 2 45.8523 125.2716 45.8829 0.0000 0.0000 0.0000
# 3 69.2759 45.8829 111.1402 0.0000 0.0000 0.0000
# 4 0.0000 0.0000 0.0000 39.8475 0.0000 0.0000
# 5 0.0000 0.0000 0.0000 0.0000 36.3058 0.0000
# 6 0.0000 0.0000 0.0000 0.0000 0.0000 28.4271
#
#
#
# Elastic Compliance Matrix: (Units=1/GPa)
#
#
# Indices 1 2 3 4 5 6 
#
# 1 0.029600 -0.004803 -0.016468 0.000000 0.000000 0.000000
# 2 -0.004803 0.010184 -0.001211 0.000000 0.000000 0.000000
# 3 -0.016468 -0.001211 0.019762 0.000000 0.000000 0.000000
# 4 0.000000 0.000000 0.000000 0.025096 0.000000 0.000000
# 5 0.000000 0.000000 0.000000 0.000000 0.027544 0.000000
# 6 0.000000 0.000000 0.000000 0.000000 0.000000 0.035178
#
#
# Mechanical properties :
#
#
# Convention : Reuss Voigt Hill
#
# Bulk Modulus (GPa) = 68.56780 70.91086 69.73933
# Shear Modulus (GPa) = 25.35662 31.26040 28.30851
#
# Velocity S-wave (km/s) = 3.51141 3.89882 3.71017
# Velocity P-wave (km/s) = 7.05563 7.39926 7.22949
#
# Compressibility (1/GPa) = 0.01458411
#
# Stress axis : x y z
#
# Youngs Moduli (GPa) = 33.78344 98.19307 50.60200
#
# Poissons Ratio (x) = 0.47160 0.83330
# Poissons Ratio (y) = 0.16226 0.06126
# Poissons Ratio (z) = 0.55633 0.11888
#
# Static dielectric constant tensor:
#      x y z
#    x 1.785290 0.000000 0.000000 
#    y 0.000000 1.760330 0.000000 
#    z 0.000000 0.000000 1.736210 
# 
# From -- ./inp_files/49188.got.cif
#   From: 2010.05.17/outbox.cif.g08.bks.cpg/sg68_25_cif.got.tgz:49188.got - 2010.06.03 18:57:09.
