data_PCOD9505414
_publ_section_title
;
Structure prediction by ZEFSAII (Michael W. Deem and Ramdas Pophale) SiO2 
 PCOD9505414
Probable space group: C C C A
;
_chemical_formula_sum "Si O2"
_cell_formula_units_Z 88
_cell_length_a 36.221562
_cell_length_b 23.304497
_cell_length_c 5.549357
_cell_angle_alpha 90.000000
_cell_angle_beta 90.000000
_cell_angle_gamma 90.000000
_cell_volume 4684.352548
_symmetry_space_group_name_H-M "C C C A"
_symmetry_group_IT_number 68
_space_group.IT_coordinate_system_code '2'
_symmetry_cell_setting 'orthorhombic'
loop_
_space_group_symop_operation_xyz
x,y,z
-x,1/2-y,z
x,1/2-y,1/2-z
-x,y,1/2-z
-x,-y,-z
x,1/2+y,-z
-x,1/2+y,1/2+z
x,-y,1/2+z
1/2+x,1/2+y,z
1/2-x,-y,z
1/2+x,-y,1/2-z
1/2-x,1/2+y,1/2-z
1/2-x,1/2-y,-z
1/2+x,y,-z
1/2-x,y,1/2+z
1/2+x,1/2-y,1/2+z
loop_
_atom_site_type_symbol
_atom_site_label
_atom_site_fract_x
_atom_site_fract_y
_atom_site_fract_z
Si Si1 0.600672 0.963866 0.025359
Si Si2 0.660797 0.250000 0.250000
Si Si3 0.713367 0.806649 0.358264
Si Si4 0.660277 0.134419 0.469519
Si Si5 0.484906 0.934293 0.498651
Si Si6 0.263911 0.913039 0.620854
O O1 0.559089 0.939251 0.013633
O O2 0.605088 0.000201 0.274370
O O3 0.629807 0.912177 0.030764
O O4 0.687358 0.279221 0.442840
O O5 0.642261 0.192404 0.356700
O O6 0.731887 0.750000 0.250000
O O7 0.743987 0.851870 0.429958
O O8 0.684500 0.840471 0.188668
O O9 0.693049 0.100172 0.325685
O O10 0.500000 0.907626 0.250000
O O11 0.500000 0.000000 0.500000
O O12 0.500000 0.908621 0.750000
O O13 0.256550 0.939643 0.354469
#
# Coordination Sequence:
#
# PCOD9505414 Si02
#       6
#    16   8  16  16  16  16
#     4  12  24  38  61  86 124 155 185 236 294 352
#     4  10  18  36  54  84 115 146 192 250 303 344
#     4   9  19  32  53  80 108 144 192 252 296 331
#     4  10  23  34  54  84 118 151 192 241 300 349
#     4  10  16  34  59  89 112 136 177 238 285 333
#     4  10  19  32  51  75 106 141 190 245 285 334
#
# _framework density 18.785947
#
# number of rings (size 3 to 8) (size 9 to 14) (size 15 to 20)
#    0.000    1.818    5.455    0.000    3.818    2.182 
#    0.000    0.000    0.000   13.091    0.000    0.636 
#    0.000    0.000    0.000    0.000    0.000    0.000 
#
# Total GULP energy -244970.830633 kJ/mol
# GULP energy per Si atom -5567.518878 kJ/mol
# Density = 1.874319 g / cm^3
# Si number density = 18.785947 Si / 1000 Ang^3
#
#
#
# Elastic Constant Matrix: (Units=GPa)
#
#
# Indices 1 2 3 4 5 6 
#
# 1 116.5276 55.4489 24.9774 0.0000 0.0000 0.0000
# 2 55.4489 94.8948 34.9758 0.0000 0.0000 0.0000
# 3 24.9774 34.9758 134.3968 0.0000 0.0000 0.0000
# 4 0.0000 0.0000 0.0000 -9.7247 0.0000 0.0000
# 5 0.0000 0.0000 0.0000 0.0000 19.4836 0.0000
# 6 0.0000 0.0000 0.0000 0.0000 0.0000 34.1937
#
#
#
# Elastic Compliance Matrix: (Units=1/GPa)
#
#
# Indices 1 2 3 4 5 6 
#
# 1 0.011911 -0.006796 -0.000445 0.000000 0.000000 0.000000
# 2 -0.006796 0.015533 -0.002779 0.000000 0.000000 0.000000
# 3 -0.000445 -0.002779 0.008247 0.000000 0.000000 0.000000
# 4 0.000000 0.000000 0.000000 -0.102831 0.000000 0.000000
# 5 0.000000 0.000000 0.000000 0.000000 0.051325 0.000000
# 6 0.000000 0.000000 0.000000 0.000000 0.000000 0.029245
#
#
# Mechanical properties :
#
#
# Convention : Reuss Voigt Hill
#
# Bulk Modulus (GPa) = 63.89636 64.06928 63.98282
# Shear Modulus (GPa) = 129.24124 24.15165 76.69644
#
# Velocity S-wave (km/s) = 8.30338 3.58945 6.39649
# Velocity P-wave (km/s) = 11.22563 7.16644 9.41734
#
# Compressibility (1/GPa) = 0.01565034
#
# Stress axis : x y z
#
# Youngs Moduli (GPa) = 83.95802 64.37805 121.26057
#
# Poissons Ratio (x) = 0.43749 0.05397
# Poissons Ratio (y) = 0.57055 0.33704
# Poissons Ratio (z) = 0.03737 0.17894
#
# Static dielectric constant tensor:
#      x y z
#    x 1.621440 0.000000 0.000000 
#    y 0.000000 1.701010 0.000000 
#    z 0.000000 0.000000 1.859670 
# 
# From -- ./inp_files/2785.got.cif
#   From: 2010.05.17/outbox.cif.g08.bks.cpg/sg68_2_cif.got.tgz:2785.got - 2010.06.03 18:57:09.
