data_PCOD9505944
_publ_section_title
;
Structure prediction by ZEFSAII (Michael W. Deem and Ramdas Pophale) SiO2 
 PCOD9505944
Probable space group: C C C A
;
_chemical_formula_sum "Si O2"
_cell_formula_units_Z 88
_cell_length_a 5.683874
_cell_length_b 28.905632
_cell_length_c 21.480268
_cell_angle_alpha 90.000000
_cell_angle_beta 90.000000
_cell_angle_gamma 90.000000
_cell_volume 3529.121471
_symmetry_space_group_name_H-M "C C C A"
_symmetry_group_IT_number 68
_space_group.IT_coordinate_system_code '2'
_symmetry_cell_setting 'orthorhombic'
loop_
_space_group_symop_operation_xyz
x,y,z
-x,1/2-y,z
x,1/2-y,1/2-z
-x,y,1/2-z
-x,-y,-z
x,1/2+y,-z
-x,1/2+y,1/2+z
x,-y,1/2+z
1/2+x,1/2+y,z
1/2-x,-y,z
1/2+x,-y,1/2-z
1/2-x,1/2+y,1/2-z
1/2-x,1/2-y,-z
1/2+x,y,-z
1/2-x,y,1/2+z
1/2+x,1/2-y,1/2+z
loop_
_atom_site_type_symbol
_atom_site_label
_atom_site_fract_x
_atom_site_fract_y
_atom_site_fract_z
Si Si1 0.649365 0.885173 0.147891
Si Si2 0.999214 0.483540 0.320754
Si Si3 0.500000 0.750000 0.436294
Si Si4 0.239055 0.925027 0.478686
Si Si5 0.231543 0.336548 0.439287
Si Si6 0.616142 0.204154 0.152892
O O1 0.527569 0.928146 0.181965
O O2 0.802064 0.910770 0.093383
O O3 0.448891 0.859822 0.108600
O O4 0.780435 0.843173 0.184329
O O5 0.750000 0.500000 0.349749
O O6 0.000000 0.503100 0.250000
O O7 0.250000 0.500000 0.348855
O O8 0.617964 0.791935 0.472659
O O9 0.318161 0.773539 0.389144
O O10 0.502222 0.946847 0.490398
O O11 0.290360 0.876180 0.512842
O O12 0.432862 0.317133 0.395563
O O13 0.500000 0.250000 0.184068
#
# Coordination Sequence:
#
# PCOD9505944 Si02
#       6
#    16  16   8  16  16  16
#     4  10  20  34  59  84 118 163 192 248 311 353
#     4  10  24  45  70  98 120 139 192 264 327 385
#     4   8  16  28  44  70 115 166 206 255 278 320
#     4  10  19  31  48  78 114 161 204 235 275 348
#     4   9  17  30  48  77 116 164 209 238 286 341
#     4   9  16  30  49  81 118 164 205 243 282 345
#
# _framework density 24.935386999999999
#
# number of rings (size 3 to 8) (size 9 to 14) (size 15 to 20)
#    0.000    2.545    1.818    0.000    2.545    0.000 
#    1.636    3.636    0.000   13.091    0.000   29.273 
#    0.000    0.000    0.000    0.000    0.000    0.000 
#
# Total GULP energy -245225.734910 kJ/mol
# GULP energy per Si atom -5573.312157 kJ/mol
# Density = 2.487863 g / cm^3
# Si number density = 24.935387 Si / 1000 Ang^3
#
#
#
# Elastic Constant Matrix: (Units=GPa)
#
#
# Indices 1 2 3 4 5 6 
#
# 1 149.8353 55.5825 4.7631 0.0000 0.0000 0.0000
# 2 55.5825 182.9348 16.0379 0.0000 0.0000 0.0000
# 3 4.7631 16.0379 32.6872 0.0000 0.0000 0.0000
# 4 0.0000 0.0000 0.0000 1.7981 0.0000 0.0000
# 5 0.0000 0.0000 0.0000 0.0000 -10.9402 0.0000
# 6 0.0000 0.0000 0.0000 0.0000 0.0000 12.5800
#
#
#
# Elastic Compliance Matrix: (Units=1/GPa)
#
#
# Indices 1 2 3 4 5 6 
#
# 1 0.007522 -0.002288 0.000026 0.000000 0.000000 0.000000
# 2 -0.002288 0.006408 -0.002811 0.000000 0.000000 0.000000
# 3 0.000026 -0.002811 0.031968 0.000000 0.000000 0.000000
# 4 0.000000 0.000000 0.000000 0.556155 0.000000 0.000000
# 5 0.000000 0.000000 0.000000 0.000000 -0.091406 0.000000
# 6 0.000000 0.000000 0.000000 0.000000 0.000000 0.079491
#
#
# Mechanical properties :
#
#
# Convention : Reuss Voigt Hill
#
# Bulk Modulus (GPa) = 27.96890 57.58046 42.77468
# Shear Modulus (GPa) = 8.16727 19.95916 14.06322
#
# Velocity S-wave (km/s) = 1.81176 2.83227 2.37742
# Velocity P-wave (km/s) = 3.95190 5.81701 4.97268
#
# Compressibility (1/GPa) = 0.03575399
#
# Stress axis : x y z
#
# Youngs Moduli (GPa) = 132.94685 156.05644 31.28105
#
# Poissons Ratio (x) = 0.35701 -0.00083
# Poissons Ratio (y) = 0.30415 0.08792
# Poissons Ratio (z) = -0.00351 0.43862
#
# Static dielectric constant tensor:
#      x y z
#    x 2.103880 0.000000 0.000000 
#    y 0.000000 2.036960 0.000000 
#    z 0.000000 0.000000 1.920610 
# 
# From -- ./inp_files/47479.got.cif
#   From: 2010.05.17/outbox.cif.g08.bks.cpg/sg68_24_cif.got.tgz:47479.got - 2010.06.03 18:57:09.
