data_PCOD9505512
_publ_section_title
;
Structure prediction by ZEFSAII (Michael W. Deem and Ramdas Pophale) SiO2 
 PCOD9505512
Probable space group: C C C A
;
_chemical_formula_sum "Si O2"
_cell_formula_units_Z 100
_cell_length_a 33.499950
_cell_length_b 11.490063
_cell_length_c 13.471976
_cell_angle_alpha 90.000000
_cell_angle_beta 90.000000
_cell_angle_gamma 90.000000
_cell_volume 5185.586335
_symmetry_space_group_name_H-M "C C C A"
_symmetry_group_IT_number 68
_space_group.IT_coordinate_system_code '2'
_symmetry_cell_setting 'orthorhombic'
loop_
_space_group_symop_operation_xyz
x,y,z
-x,1/2-y,z
x,1/2-y,1/2-z
-x,y,1/2-z
-x,-y,-z
x,1/2+y,-z
-x,1/2+y,1/2+z
x,-y,1/2+z
1/2+x,1/2+y,z
1/2-x,-y,z
1/2+x,-y,1/2-z
1/2-x,1/2+y,1/2-z
1/2-x,1/2-y,-z
1/2+x,y,-z
1/2-x,y,1/2+z
1/2+x,1/2-y,1/2+z
loop_
_atom_site_type_symbol
_atom_site_label
_atom_site_fract_x
_atom_site_fract_y
_atom_site_fract_z
Si Si1 0.922693 0.169315 0.660186
Si Si2 0.805666 0.598365 0.470119
Si Si3 0.627714 0.292096 0.005064
Si Si4 0.236741 0.366984 0.717398
Si Si5 0.133927 0.952768 0.832735
Si Si6 0.172954 0.537594 0.353051
Si Si7 0.000000 0.250000 0.750000
O O1 0.905408 0.250000 0.750000
O O2 0.909172 0.227316 0.557241
O O3 0.969761 0.174819 0.682620
O O4 0.902271 0.044572 0.667571
O O5 0.835194 0.703974 0.493505
O O6 0.770026 0.640987 0.400874
O O7 0.830409 0.511613 0.397462
O O8 0.798221 0.529875 0.571050
O O9 0.640559 0.397531 0.078368
O O10 0.621654 0.340320 0.894832
O O11 0.259712 0.250000 0.750000
O O12 0.250000 0.500000 0.733381
O O13 0.196785 0.369132 0.786304
O O14 0.151487 0.948687 0.722276
#
# Coordination Sequence:
#
# PCOD9505512 Si02
#       7
#    16  16  16  16  16  16   4
#     4   9  16  30  53  74 110 151 186 226 274 333
#     4   9  20  34  57  79 105 138 183 233 292 342
#     4  10  17  32  56  82 103 140 181 241 288 338
#     4  11  23  42  60  79 112 153 192 233 289 357
#     4   9  18  29  54  83 105 130 186 234 292 326
#     4  10  18  36  56  79 103 141 179 238 291 345
#     4   8  16  28  52  76 108 164 200 216 260 340
#
# _framework density 19.284222
#
# number of rings (size 3 to 8) (size 9 to 14) (size 15 to 20)
#    0.480    1.920    3.200    0.000    0.000    1.280 
#    8.640    2.400    0.000    0.000    0.000    0.000 
#    0.000    3.840    0.000    0.000    0.000    0.000 
#
# Total GULP energy -278528.455432 kJ/mol
# GULP energy per Si atom -5570.569109 kJ/mol
# Density = 1.924033 g / cm^3
# Si number density = 19.284222 Si / 1000 Ang^3
#
#
#
# Elastic Constant Matrix: (Units=GPa)
#
#
# Indices 1 2 3 4 5 6 
#
# 1 49.0637 18.9199 17.9265 0.0000 0.0000 0.0000
# 2 18.9199 72.3205 41.4369 0.0000 0.0000 0.0000
# 3 17.9265 41.4369 103.6988 0.0000 0.0000 0.0000
# 4 0.0000 0.0000 0.0000 34.3366 0.0000 0.0000
# 5 0.0000 0.0000 0.0000 0.0000 6.8095 0.0000
# 6 0.0000 0.0000 0.0000 0.0000 0.0000 9.3154
#
#
#
# Elastic Compliance Matrix: (Units=1/GPa)
#
#
# Indices 1 2 3 4 5 6 
#
# 1 0.022996 -0.004848 -0.002038 0.000000 0.000000 0.000000
# 2 -0.004848 0.018955 -0.006736 0.000000 0.000000 0.000000
# 3 -0.002038 -0.006736 0.012687 0.000000 0.000000 0.000000
# 4 0.000000 0.000000 0.000000 0.029123 0.000000 0.000000
# 5 0.000000 0.000000 0.000000 0.000000 0.146854 0.000000
# 6 0.000000 0.000000 0.000000 0.000000 0.000000 0.107349
#
#
# Mechanical properties :
#
#
# Convention : Reuss Voigt Hill
#
# Bulk Modulus (GPa) = 36.50497 42.40551 39.45524
# Shear Modulus (GPa) = 13.35682 19.87894 16.61788
#
# Velocity S-wave (km/s) = 2.63464 3.21415 2.93872
# Velocity P-wave (km/s) = 5.31283 5.98430 5.65853
#
# Compressibility (1/GPa) = 0.02739353
#
# Stress axis : x y z
#
# Youngs Moduli (GPa) = 43.48598 52.75572 78.81882
#
# Poissons Ratio (x) = 0.25578 0.16063
# Poissons Ratio (y) = 0.21083 0.53094
# Poissons Ratio (z) = 0.08862 0.35537
#
# Static dielectric constant tensor:
#      x y z
#    x 1.682320 0.000000 0.000000 
#    y 0.000000 1.744570 0.000000 
#    z 0.000000 0.000000 1.712000 
# 
# From -- ./inp_files/26364.got.cif
#   From: 2010.05.17/outbox.cif.g08.bks.cpg/sg68_14_cif.got.tgz:26364.got - 2010.06.03 18:57:09.
