data_PCOD9505453
_publ_section_title
;
Structure prediction by ZEFSAII (Michael W. Deem and Ramdas Pophale) SiO2 
 PCOD9505453
Probable space group: C C C A
;
_chemical_formula_sum "Si O2"
_cell_formula_units_Z 80
_cell_length_a 17.666929
_cell_length_b 22.435811
_cell_length_c 9.076939
_cell_angle_alpha 90.000000
_cell_angle_beta 90.000000
_cell_angle_gamma 90.000000
_cell_volume 3597.843376
_symmetry_space_group_name_H-M "C C C A"
_symmetry_group_IT_number 68
_space_group.IT_coordinate_system_code '2'
_symmetry_cell_setting 'orthorhombic'
loop_
_space_group_symop_operation_xyz
x,y,z
-x,1/2-y,z
x,1/2-y,1/2-z
-x,y,1/2-z
-x,-y,-z
x,1/2+y,-z
-x,1/2+y,1/2+z
x,-y,1/2+z
1/2+x,1/2+y,z
1/2-x,-y,z
1/2+x,-y,1/2-z
1/2-x,1/2+y,1/2-z
1/2-x,1/2-y,-z
1/2+x,y,-z
1/2-x,y,1/2+z
1/2+x,1/2-y,1/2+z
loop_
_atom_site_type_symbol
_atom_site_label
_atom_site_fract_x
_atom_site_fract_y
_atom_site_fract_z
Si Si1 0.838290 0.795876 0.123453
Si Si2 0.720760 0.933552 0.952774
Si Si3 0.924335 0.789075 0.565318
Si Si4 0.810386 0.859190 0.730482
Si Si5 0.421908 0.613851 0.798927
O O1 0.862520 0.750000 0.250000
O O2 0.858932 0.758811 0.979838
O O3 0.754394 0.814900 0.168532
O O4 0.891003 0.852147 0.154641
O O5 0.781372 0.885431 0.885759
O O6 0.645999 0.927180 0.853248
O O7 0.750000 0.000000 0.949505
O O8 0.696964 0.913891 0.115922
O O9 0.890555 0.827253 0.701344
O O10 0.933395 0.837477 0.431646
O O11 0.000000 0.750000 0.582036
O O12 0.500000 0.584804 0.750000
#
# Coordination Sequence:
#
# PCOD9505453 Si02
#       5
#    16  16  16  16  16
#     4   9  17  29  53  83 114 148 177 229 274 338
#     4  10  21  38  61  80 110 150 197 250 280 321
#     4  10  17  27  51  82 114 145 178 227 277 338
#     4  10  21  35  56  86 111 150 194 231 280 341
#     4   9  16  29  53  85 106 136 196 239 266 324
#
# _framework density 22.235543
#
# number of rings (size 3 to 8) (size 9 to 14) (size 15 to 20)
#    0.000    2.400    2.000    2.400    0.000    0.000 
#    0.000    0.000    4.400    9.000    0.000    0.000 
#    0.000    0.000    0.000    0.000    0.000    0.000 
#
# Total GULP energy -223199.515506 kJ/mol
# GULP energy per Si atom -5579.987888 kJ/mol
# Density = 2.218493 g / cm^3
# Si number density = 22.235543 Si / 1000 Ang^3
#
#
#
# Elastic Constant Matrix: (Units=GPa)
#
#
# Indices 1 2 3 4 5 6 
#
# 1 68.2425 22.6506 -9.7517 0.0000 0.0000 0.0000
# 2 22.6506 77.2256 12.6521 0.0000 0.0000 0.0000
# 3 -9.7517 12.6521 72.9367 0.0000 0.0000 0.0000
# 4 0.0000 0.0000 0.0000 2.8279 0.0000 0.0000
# 5 0.0000 0.0000 0.0000 0.0000 16.9899 0.0000
# 6 0.0000 0.0000 0.0000 0.0000 0.0000 31.8185
#
#
#
# Elastic Compliance Matrix: (Units=1/GPa)
#
#
# Indices 1 2 3 4 5 6 
#
# 1 0.016937 -0.005495 0.003218 0.000000 0.000000 0.000000
# 2 -0.005495 0.015111 -0.003356 0.000000 0.000000 0.000000
# 3 0.003218 -0.003356 0.014723 0.000000 0.000000 0.000000
# 4 0.000000 0.000000 0.000000 0.353613 0.000000 0.000000
# 5 0.000000 0.000000 0.000000 0.000000 0.058859 0.000000
# 6 0.000000 0.000000 0.000000 0.000000 0.000000 0.031428
#
#
# Mechanical properties :
#
#
# Convention : Reuss Voigt Hill
#
# Bulk Modulus (GPa) = 28.16544 29.94521 29.05533
# Shear Modulus (GPa) = 9.73195 23.18419 16.45807
#
# Velocity S-wave (km/s) = 2.09434 3.23253 2.72356
# Velocity P-wave (km/s) = 4.30612 5.23726 4.79435
#
# Compressibility (1/GPa) = 0.03550450
#
# Stress axis : x y z
#
# Youngs Moduli (GPa) = 59.04141 66.17891 67.92166
#
# Poissons Ratio (x) = 0.36365 -0.21855
# Poissons Ratio (y) = 0.32443 0.22793
# Poissons Ratio (z) = -0.18998 0.22209
#
# Static dielectric constant tensor:
#      x y z
#    x 1.847420 0.000000 0.000000 
#    y 0.000000 1.810300 0.000000 
#    z 0.000000 0.000000 1.876380 
# 
# From -- ./inp_files/13218.got.cif
#   From: 2010.05.17/outbox.cif.g08.bks.cpg/sg68_7_cif.got.tgz:13218.got - 2010.06.03 18:57:09.
