data_PCOD9505231
_publ_section_title
;
Structure prediction by ZEFSAII (Michael W. Deem and Ramdas Pophale) SiO2 
 PCOD9505231
Probable space group: C M M A
;
_chemical_formula_sum "Si O2"
_cell_formula_units_Z 52
_cell_length_a 9.000000
_cell_length_b 27.000000
_cell_length_c 21.000000
_cell_angle_alpha 90.000000
_cell_angle_beta 90.000000
_cell_angle_gamma 90.000000
_cell_volume 5103.000000
_symmetry_space_group_name_H-M "C M M A"
_symmetry_group_IT_number 67
_symmetry_cell_setting 'orthorhombic'
loop_
_space_group_symop_operation_xyz
x,y,z
-x,1/2-y,z
x,-y,-z
-x,1/2+y,-z
-x,-y,-z
x,1/2+y,-z
-x,y,z
x,1/2-y,z
1/2+x,1/2+y,z
1/2-x,-y,z
1/2+x,1/2-y,-z
1/2-x,y,-z
1/2-x,1/2-y,-z
1/2+x,y,-z
1/2-x,1/2+y,z
1/2+x,-y,z
loop_
_atom_site_type_symbol
_atom_site_label
_atom_site_fract_x
_atom_site_fract_y
_atom_site_fract_z
Si Si1 0.176981 0.750000 0.068700
Si Si2 0.675387 0.134790 0.203901
Si Si3 0.333260 0.308408 0.692790
Si Si4 0.177333 0.859747 0.068806
Si Si5 0.667576 0.048509 0.732923
Si Si6 0.823056 0.653647 0.435285
Si Si7 0.167809 0.049890 0.419162
O O1 0.216704 0.803854 0.093522
O O2 0.000000 0.750000 0.063832
O O3 0.250000 0.750000 0.000000
O O4 0.500000 0.145535 0.201120
O O5 0.760838 0.179215 0.238807
O O6 0.719604 0.113237 0.134016
O O7 0.719529 0.092077 0.252219
O O8 0.500000 0.331019 0.689423
O O9 0.345225 0.250000 0.688331
O O10 0.239683 0.325061 0.631235
O O11 0.000000 0.863127 0.058861
O O12 0.250000 0.869302 0.000000
O O13 0.500000 0.055057 0.758866
O O14 0.654214 0.046361 0.657153
O O15 0.750000 0.000000 0.757436
O O16 0.750000 0.675718 0.500000
O O17 0.769277 0.596834 0.433748
O O18 0.000000 0.658389 0.437878
O O19 0.000000 0.055355 0.445076
O O20 0.250000 0.000000 0.437596
#
# Coordination Sequence:
#
# PCOD9505231 Si02
#       7
#     8  16  16  16  16  16  16
#     4   8  14  28  46  68 102 142 185 228 273 326
#     4  11  22  36  60  90 121 156 197 243 296 352
#     4  11  25  44  63  87 119 155 200 249 295 346
#     4   9  19  33  52  79 114 155 197 241 289 348
#     4  10  20  35  59  87 120 154 192 240 292 350
#     4  12  25  42  65  89 119 157 198 244 297 352
#     4  10  20  36  59  88 123 156 194 239 292 353
#
# _framework density 10.190084000000001
#
# number of rings (size 3 to 8) (size 9 to 14) (size 15 to 20)
#    0.000    1.692    1.538    3.231    1.077    4.308 
#    0.000    1.538    0.000    0.462    0.000    3.231 
#    0.000    0.000    0.000    0.000    0.000    0.000 
#
# Total GULP energy -289552.852972 kJ/mol
# GULP energy per Si atom -5568.324096 kJ/mol
# Density = 1.016689 g / cm^3
# Si number density = 10.190084 Si / 1000 Ang^3
#
#
#
# Elastic Constant Matrix: (Units=GPa)
#
#
# Indices 1 2 3 4 5 6 
#
# 1 132.3941 12.3848 69.6129 0.0000 0.0000 0.0000
# 2 12.3848 47.6958 9.9364 0.0000 0.0000 0.0000
# 3 69.6129 9.9364 139.8920 0.0000 0.0000 0.0000
# 4 0.0000 0.0000 0.0000 -4.2344 0.0000 0.0000
# 5 0.0000 0.0000 0.0000 0.0000 45.5915 0.0000
# 6 0.0000 0.0000 0.0000 0.0000 0.0000 5.6437
#
#
#
# Elastic Compliance Matrix: (Units=1/GPa)
#
#
# Indices 1 2 3 4 5 6 
#
# 1 0.010355 -0.001640 -0.005036 0.000000 0.000000 0.000000
# 2 -0.001640 0.021541 -0.000714 0.000000 0.000000 0.000000
# 3 -0.005036 -0.000714 0.009705 0.000000 0.000000 0.000000
# 4 0.000000 0.000000 0.000000 -0.236160 0.000000 0.000000
# 5 0.000000 0.000000 0.000000 0.000000 0.021934 0.000000
# 6 0.000000 0.000000 0.000000 0.000000 0.000000 0.177188
#
#
# Mechanical properties :
#
#
# Convention : Reuss Voigt Hill
#
# Bulk Modulus (GPa) = 37.28455 55.98335 46.63395
# Shear Modulus (GPa) = 176.78296 24.60335 100.69315
#
# Velocity S-wave (km/s) = 9.32368 3.47828 7.03667
# Velocity P-wave (km/s) = 11.58629 6.60760 9.43140
#
# Compressibility (1/GPa) = 0.02682076
#
# Stress axis : x y z
#
# Youngs Moduli (GPa) = 96.57533 46.42374 103.03754
#
# Poissons Ratio (x) = 0.07611 0.51892
# Poissons Ratio (y) = 0.15834 0.07358
# Poissons Ratio (z) = 0.48637 0.03315
#
# Static dielectric constant tensor:
#      x y z
#    x 1.731500 0.000000 0.000000 
#    y 0.000000 2.700770 0.000000 
#    z 0.000000 0.000000 1.759190 
# 
# From -- ./inp_files/37337.got.cif
#   From: 2010.05.17/outbox.ucp.g08.bks.cvg/sg67_19_cif.got.tgz:37337.got - 2010.06.11 16:47:20.
