data_PCOD9505561
_publ_section_title
;
Structure prediction by ZEFSAII (Michael W. Deem and Ramdas Pophale) SiO2 
 PCOD9505561
Probable space group: C C C A
;
_chemical_formula_sum "Si O2"
_cell_formula_units_Z 96
_cell_length_a 18.688224
_cell_length_b 22.556174
_cell_length_c 10.406189
_cell_angle_alpha 90.000000
_cell_angle_beta 90.000000
_cell_angle_gamma 90.000000
_cell_volume 4386.571135
_symmetry_space_group_name_H-M "C C C A"
_symmetry_group_IT_number 68
_space_group.IT_coordinate_system_code '2'
_symmetry_cell_setting 'orthorhombic'
loop_
_space_group_symop_operation_xyz
x,y,z
-x,1/2-y,z
x,1/2-y,1/2-z
-x,y,1/2-z
-x,-y,-z
x,1/2+y,-z
-x,1/2+y,1/2+z
x,-y,1/2+z
1/2+x,1/2+y,z
1/2-x,-y,z
1/2+x,-y,1/2-z
1/2-x,1/2+y,1/2-z
1/2-x,1/2-y,-z
1/2+x,y,-z
1/2-x,y,1/2+z
1/2+x,1/2-y,1/2+z
loop_
_atom_site_type_symbol
_atom_site_label
_atom_site_fract_x
_atom_site_fract_y
_atom_site_fract_z
Si Si1 0.948686 0.910257 0.124214
Si Si2 0.685105 0.970762 0.869736
Si Si3 0.912980 0.626172 0.989638
Si Si4 0.080318 0.037951 0.293193
Si Si5 0.785662 0.810320 0.452731
Si Si6 0.707812 0.628290 0.817370
O O1 0.876974 0.872706 0.147093
O O2 0.000000 0.909241 0.250000
O O3 0.923290 0.979371 0.112578
O O4 0.003536 0.883998 0.019711
O O5 0.720074 0.935811 0.748517
O O6 0.750000 0.000000 0.946907
O O7 0.632543 0.020749 0.819744
O O8 0.632808 0.921739 0.928121
O O9 0.898850 0.600999 0.849376
O O10 0.871507 0.686275 0.021145
O O11 0.000000 0.043191 0.250000
O O12 0.750000 0.750000 0.500000
O O13 0.750358 0.857636 0.552546
O O14 0.775575 0.826835 0.302154
#
# Coordination Sequence:
#
# PCOD9505561 Si02
#       6
#    16  16  16  16  16  16
#     4  10  17  38  61  88 124 163 205 248 300 382
#     4  10  20  33  53  88 128 158 202 236 300 379
#     4  11  21  37  58  84 127 165 209 256 303 375
#     4  10  19  33  54  87 125 166 195 234 307 380
#     4  11  23  42  64  87 117 157 212 268 323 359
#     4  10  22  40  65  90 121 160 205 262 314 378
#
# _framework density 21.884976000000002
#
# number of rings (size 3 to 8) (size 9 to 14) (size 15 to 20)
#    0.000    1.667    6.667    2.000    0.000    6.000 
#    3.000    0.833    0.000    0.000    0.000    0.000 
#    0.000    0.000    0.000    0.000    0.000    0.000 
#
# Total GULP energy -267481.796302 kJ/mol
# GULP energy per Si atom -5572.537423 kJ/mol
# Density = 2.183516 g / cm^3
# Si number density = 21.884976 Si / 1000 Ang^3
#
#
#
# Elastic Constant Matrix: (Units=GPa)
#
#
# Indices 1 2 3 4 5 6 
#
# 1 126.6134 22.9792 21.7439 0.0000 0.0000 0.0000
# 2 22.9792 40.5007 10.1924 0.0000 0.0000 0.0000
# 3 21.7439 10.1924 64.9892 0.0000 0.0000 0.0000
# 4 0.0000 0.0000 0.0000 84.3073 0.0000 0.0000
# 5 0.0000 0.0000 0.0000 0.0000 23.3092 0.0000
# 6 0.0000 0.0000 0.0000 0.0000 0.0000 31.6961
#
#
#
# Elastic Compliance Matrix: (Units=1/GPa)
#
#
# Indices 1 2 3 4 5 6 
#
# 1 0.009133 -0.004594 -0.002335 0.000000 0.000000 0.000000
# 2 -0.004594 0.028017 -0.002857 0.000000 0.000000 0.000000
# 3 -0.002335 -0.002857 0.016616 0.000000 0.000000 0.000000
# 4 0.000000 0.000000 0.000000 0.011861 0.000000 0.000000
# 5 0.000000 0.000000 0.000000 0.000000 0.042902 0.000000
# 6 0.000000 0.000000 0.000000 0.000000 0.000000 0.031550
#
#
# Mechanical properties :
#
#
# Convention : Reuss Voigt Hill
#
# Bulk Modulus (GPa) = 29.24513 37.99270 33.61892
# Shear Modulus (GPa) = 29.23147 39.67503 34.45325
#
# Velocity S-wave (km/s) = 3.65867 4.26242 3.97203
# Velocity P-wave (km/s) = 5.58927 6.45153 6.03582
#
# Compressibility (1/GPa) = 0.03419373
#
# Stress axis : x y z
#
# Youngs Moduli (GPa) = 109.49451 35.69324 60.18116
#
# Poissons Ratio (x) = 0.16398 0.14053
# Poissons Ratio (y) = 0.50303 0.17193
# Poissons Ratio (z) = 0.25569 0.10197
#
# Static dielectric constant tensor:
#      x y z
#    x 1.832420 0.000000 0.000000 
#    y 0.000000 1.890700 0.000000 
#    z 0.000000 0.000000 1.930450 
# 
# From -- ./inp_files/14606.got.cif
#   From: 2010.05.17/outbox.cif.g08.bks.cpg/sg68_8_cif.got.tgz:14606.got - 2010.06.03 18:57:09.
