data_PCOD9505197
_publ_section_title
;
Structure prediction by ZEFSAII (Michael W. Deem and Ramdas Pophale) SiO2 
 PCOD9505197
Probable space group: C M M A
;
_chemical_formula_sum "Si O2"
_cell_formula_units_Z 32
_cell_length_a 9.000000
_cell_length_b 15.000000
_cell_length_c 24.000000
_cell_angle_alpha 90.000000
_cell_angle_beta 90.000000
_cell_angle_gamma 90.000000
_cell_volume 3240.000000
_symmetry_space_group_name_H-M "C M M A"
_symmetry_group_IT_number 67
_symmetry_cell_setting 'orthorhombic'
loop_
_space_group_symop_operation_xyz
x,y,z
-x,1/2-y,z
x,-y,-z
-x,1/2+y,-z
-x,-y,-z
x,1/2+y,-z
-x,y,z
x,1/2-y,z
1/2+x,1/2+y,z
1/2-x,-y,z
1/2+x,1/2-y,-z
1/2-x,y,-z
1/2-x,1/2-y,-z
1/2+x,y,-z
1/2-x,1/2+y,z
1/2+x,-y,z
loop_
_atom_site_type_symbol
_atom_site_label
_atom_site_fract_x
_atom_site_fract_y
_atom_site_fract_z
Si Si1 0.179541 0.250000 0.060027
Si Si2 0.828506 0.856353 0.732714
Si Si3 0.824881 0.910298 0.375165
Si Si4 0.677716 0.593362 0.140890
Si Si5 0.676818 0.750000 0.439875
O O1 0.226789 0.165309 0.096136
O O2 0.000000 0.250000 0.056311
O O3 0.250000 0.250000 0.000000
O O4 0.826442 0.750000 0.725094
O O5 0.715071 0.899404 0.689864
O O6 0.787695 0.877333 0.796090
O O7 0.000000 0.886169 0.722025
O O8 0.738371 0.833206 0.406275
O O9 0.000000 0.906682 0.384335
O O10 0.750000 0.000000 0.395687
O O11 0.500000 0.587561 0.138225
O O12 0.750000 0.500000 0.128959
O O13 0.500000 0.750000 0.442861
O O14 0.750000 0.750000 0.500000
#
# Coordination Sequence:
#
# PCOD9505197 Si02
#       5
#     8  16  16  16   8
#     4  10  22  41  60  81 113 154 200 248 303 360
#     4  10  19  36  63  91 124 164 200 246 309 368
#     4  12  25  42  65  97 131 168 210 255 308 370
#     4  10  21  38  60  87 119 157 198 245 301 363
#     4  12  26  47  70  95 127 166 212 264 313 366
#
# _framework density 9.8765429999999999
#
# number of rings (size 3 to 8) (size 9 to 14) (size 15 to 20)
#    0.000    1.250    2.500    4.125    0.000    5.000 
#    0.000    5.000    0.000    0.000    0.000    0.000 
#    0.000    0.000    0.000    0.000    0.000    0.000 
#
# Total GULP energy -178807.544133 kJ/mol
# GULP energy per Si atom -5587.735754 kJ/mol
# Density = 0.985406 g / cm^3
# Si number density = 9.876543 Si / 1000 Ang^3
#
#
#
# Elastic Constant Matrix: (Units=GPa)
#
#
# Indices 1 2 3 4 5 6 
#
# 1 118.5955 68.2432 64.4613 0.0000 0.0000 0.0000
# 2 68.2432 149.5200 56.7448 0.0000 0.0000 0.0000
# 3 64.4613 56.7448 105.8395 0.0000 0.0000 0.0000
# 4 0.0000 0.0000 0.0000-1889.8030 0.0000 0.0000
# 5 0.0000 0.0000 0.0000 0.0000 37.4944 0.0000
# 6 0.0000 0.0000 0.0000 0.0000 0.0000 27.7278
#
#
#
# Elastic Compliance Matrix: (Units=1/GPa)
#
#
# Indices 1 2 3 4 5 6 
#
# 1 0.014325 -0.004051 -0.006552 0.000000 0.000000 0.000000
# 2 -0.004051 0.009542 -0.002649 0.000000 0.000000 0.000000
# 3 -0.006552 -0.002649 0.014859 0.000000 0.000000 0.000000
# 4 0.000000 0.000000 0.000000 -0.000529 0.000000 0.000000
# 5 0.000000 0.000000 0.000000 0.000000 0.026671 0.000000
# 6 0.000000 0.000000 0.000000 0.000000 0.000000 0.036065
#
#
# Mechanical properties :
#
#
# Convention : Reuss Voigt Hill
#
# Bulk Modulus (GPa) = 81.82295 83.65039 82.73667
# Shear Modulus (GPa) = 38.01971 -352.61577 -157.29803
#
# Velocity S-wave (km/s) = 4.39195 -13.37532 -8.93336
# Velocity P-wave (km/s) = 8.19950 14.00330 8.02685
#
# Compressibility (1/GPa) = 0.01222151
#
# Stress axis : x y z
#
# Youngs Moduli (GPa) = 69.80932 104.79632 67.29937
#
# Poissons Ratio (x) = 0.42456 0.44097
# Poissons Ratio (y) = 0.28282 0.17825
# Poissons Ratio (z) = 0.45742 0.27756
#
# Static dielectric constant tensor:
#      x y z
#    x 1.651250 0.000000 0.000000 
#    y 0.000000 1.677760 0.000000 
#    z 0.000000 0.000000 1.752060 
# 
# From -- ./inp_files/40416.got.cif
#   From: 2010.05.17/outbox.ucp.g08.bks.cvg/sg67_21_cif.got.tgz:40416.got - 2010.06.11 16:47:20.
