data_PCOD9505761
_publ_section_title
;
Structure prediction by ZEFSAII (Michael W. Deem and Ramdas Pophale) SiO2 
 PCOD9505761
Probable space group: C C C A
;
_chemical_formula_sum "Si O2"
_cell_formula_units_Z 108
_cell_length_a 30.356989
_cell_length_b 5.425438
_cell_length_c 29.194076
_cell_angle_alpha 90.000000
_cell_angle_beta 90.000000
_cell_angle_gamma 90.000000
_cell_volume 4808.263199
_symmetry_space_group_name_H-M "C C C A"
_symmetry_group_IT_number 68
_space_group.IT_coordinate_system_code '2'
_symmetry_cell_setting 'orthorhombic'
loop_
_space_group_symop_operation_xyz
x,y,z
-x,1/2-y,z
x,1/2-y,1/2-z
-x,y,1/2-z
-x,-y,-z
x,1/2+y,-z
-x,1/2+y,1/2+z
x,-y,1/2+z
1/2+x,1/2+y,z
1/2-x,-y,z
1/2+x,-y,1/2-z
1/2-x,1/2+y,1/2-z
1/2-x,1/2-y,-z
1/2+x,y,-z
1/2-x,y,1/2+z
1/2+x,1/2-y,1/2+z
loop_
_atom_site_type_symbol
_atom_site_label
_atom_site_fract_x
_atom_site_fract_y
_atom_site_fract_z
Si Si1 0.051357 0.197384 0.104261
Si Si2 0.081280 0.390760 0.975324
Si Si3 0.571354 0.075109 0.792959
Si Si4 0.318173 0.380185 0.511825
Si Si5 0.223380 0.250000 0.750000
Si Si6 0.156150 0.367549 0.830899
Si Si7 0.500000 0.250000 0.250000
Si Si8 0.144031 0.626508 0.610776
O O1 0.065431 0.949675 0.076361
O O2 0.058838 0.198183 0.158961
O O3 0.093250 0.370836 0.092208
O O4 0.000000 0.250000 0.094491
O O5 0.065054 0.134282 0.996827
O O6 0.134755 0.388067 0.982699
O O7 0.581850 0.250000 0.750000
O O8 0.611503 0.892932 0.801952
O O9 0.529307 0.920769 0.780598
O O10 0.295207 0.634444 0.503036
O O11 0.328158 0.364181 0.565064
O O12 0.250000 0.500000 0.737820
O O13 0.194787 0.330947 0.794232
O O14 0.155396 0.626785 0.859468
O O15 0.153017 0.124365 0.861975
#
# Coordination Sequence:
#
# PCOD9505761 Si02
#       8
#    16  16  16  16   8  16   4  16
#     4  11  24  39  59  85 125 185 246 303 358 394
#     4  10  21  38  55  80 120 165 232 297 363 402
#     4  11  27  43  65  90 135 179 250 294 350 407
#     4  10  18  34  59  84 126 178 229 293 345 394
#     4  12  27  50  82 113 148 171 210 270 355 450
#     4  11  27  43  73 103 136 182 217 277 351 417
#     4  12  24  44  64  86 120 192 246 320 328 400
#     4  11  23  41  62  93 140 182 233 291 333 423
#
# _framework density 22.461334000000001
#
# number of rings (size 3 to 8) (size 9 to 14) (size 15 to 20)
#    0.000    1.185    2.963    3.333   17.630    0.593 
#    0.000    0.000    0.000    0.000    0.000    0.000 
#    0.000   41.481    0.000    0.000    0.000    0.000 
#
# Total GULP energy -301572.921108 kJ/mol
# GULP energy per Si atom -5584.683724 kJ/mol
# Density = 2.241021 g / cm^3
# Si number density = 22.461334 Si / 1000 Ang^3
#
#
#
# Elastic Constant Matrix: (Units=GPa)
#
#
# Indices 1 2 3 4 5 6 
#
# 1 88.2587 42.0053 34.2836 0.0000 0.0000 0.0000
# 2 42.0053 179.2104 67.5072 0.0000 0.0000 0.0000
# 3 34.2836 67.5072 126.6606 0.0000 0.0000 0.0000
# 4 0.0000 0.0000 0.0000 52.4877 0.0000 0.0000
# 5 0.0000 0.0000 0.0000 0.0000 -11.9022 0.0000
# 6 0.0000 0.0000 0.0000 0.0000 0.0000 21.2550
#
#
#
# Elastic Compliance Matrix: (Units=1/GPa)
#
#
# Indices 1 2 3 4 5 6 
#
# 1 0.013325 -0.002208 -0.002430 0.000000 0.000000 0.000000
# 2 -0.002208 0.007348 -0.003318 0.000000 0.000000 0.000000
# 3 -0.002430 -0.003318 0.010322 0.000000 0.000000 0.000000
# 4 0.000000 0.000000 0.000000 0.019052 0.000000 0.000000
# 5 0.000000 0.000000 0.000000 0.000000 -0.084018 0.000000
# 6 0.000000 0.000000 0.000000 0.000000 0.000000 0.047048
#
#
# Mechanical properties :
#
#
# Convention : Reuss Voigt Hill
#
# Bulk Modulus (GPa) = 66.30663 75.74686 71.02674
# Shear Modulus (GPa) = 146.98949 29.05701 88.02325
#
# Velocity S-wave (km/s) = 8.09834 3.60063 6.26689
# Velocity P-wave (km/s) = 10.81798 7.14720 9.16818
#
# Compressibility (1/GPa) = 0.01508145
#
# Stress axis : x y z
#
# Youngs Moduli (GPa) = 75.04662 136.09890 96.88502
#
# Poissons Ratio (x) = 0.30050 0.23543
# Poissons Ratio (y) = 0.16570 0.32151
# Poissons Ratio (z) = 0.18236 0.45164
#
# Static dielectric constant tensor:
#      x y z
#    x 1.837330 0.000000 0.000000 
#    y 0.000000 2.077560 0.000000 
#    z 0.000000 0.000000 0.589070 
# 
# From -- ./inp_files/56306.got.cif
#   From: 2010.05.17/outbox.cif.g08.bks.cpg/sg68_29_cif.got.tgz:56306.got - 2010.06.03 18:57:09.
