data_PCOD9505506
_publ_section_title
;
Structure prediction by ZEFSAII (Michael W. Deem and Ramdas Pophale) SiO2 
 PCOD9505506
Probable space group: C C C A
;
_chemical_formula_sum "Si O2"
_cell_formula_units_Z 120
_cell_length_a 23.534784
_cell_length_b 22.157534
_cell_length_c 15.150787
_cell_angle_alpha 90.000000
_cell_angle_beta 90.000000
_cell_angle_gamma 90.000000
_cell_volume 7900.722966
_symmetry_space_group_name_H-M "C C C A"
_symmetry_group_IT_number 68
_space_group.IT_coordinate_system_code '2'
_symmetry_cell_setting 'orthorhombic'
loop_
_space_group_symop_operation_xyz
x,y,z
-x,1/2-y,z
x,1/2-y,1/2-z
-x,y,1/2-z
-x,-y,-z
x,1/2+y,-z
-x,1/2+y,1/2+z
x,-y,1/2+z
1/2+x,1/2+y,z
1/2-x,-y,z
1/2+x,-y,1/2-z
1/2-x,1/2+y,1/2-z
1/2-x,1/2-y,-z
1/2+x,y,-z
1/2-x,y,1/2+z
1/2+x,1/2-y,1/2+z
loop_
_atom_site_type_symbol
_atom_site_label
_atom_site_fract_x
_atom_site_fract_y
_atom_site_fract_z
Si Si1 0.296203 0.946756 0.546302
Si Si2 0.197615 0.377967 0.774898
Si Si3 0.213618 0.937945 0.846805
Si Si4 0.611076 0.514865 0.782577
Si Si5 0.641517 0.250000 0.250000
Si Si6 0.035014 0.569954 0.064966
Si Si7 0.420422 0.001669 0.085953
Si Si8 0.964782 0.803600 0.157320
O O1 0.289188 0.900761 0.626627
O O2 0.290486 0.919282 0.448816
O O3 0.358643 0.975659 0.556134
O O4 0.250000 0.000000 0.556380
O O5 0.251996 0.391105 0.713167
O O6 0.147917 0.423844 0.738730
O O7 0.177570 0.308805 0.776088
O O8 0.250000 0.000000 0.845739
O O9 0.153628 0.961081 0.809508
O O10 0.568514 0.530000 0.861979
O O11 0.580883 0.497140 0.691444
O O12 0.597076 0.222912 0.178821
O O13 0.038405 0.637335 0.099852
O O14 0.969767 0.549080 0.061868
O O15 0.063592 0.557043 0.970758
O O16 0.000000 0.750000 0.113187
O O17 0.000000 0.816470 0.250000
#
# Coordination Sequence:
#
# PCOD9505506 Si02
#       8
#    16  16  16  16   8  16  16  16
#     4  10  19  33  51  73  99 131 172 209 256 316
#     4  10  19  31  50  72  99 131 174 215 248 301
#     4   9  18  32  50  73  95 132 170 207 260 304
#     4  10  17  32  50  72 105 137 161 208 266 311
#     4  10  19  32  48  74  98 136 173 206 256 302
#     4  11  19  32  47  78 108 134 167 214 256 310
#     4  10  21  28  49  77 105 133 165 211 264 303
#     4   9  19  30  47  69  99 143 170 200 254 307
#
# _framework density 15.188483
#
# number of rings (size 3 to 8) (size 9 to 14) (size 15 to 20)
#    0.000    2.267    2.667    3.200    5.600    0.000 
#    0.000    0.667    0.000    0.000    0.000    0.000 
#    0.000    8.533    0.000    0.000    0.000    0.000 
#
# Total GULP energy -334222.446140 kJ/mol
# GULP energy per Si atom -5570.374102 kJ/mol
# Density = 1.515391 g / cm^3
# Si number density = 15.188483 Si / 1000 Ang^3
#
#
#
# Elastic Constant Matrix: (Units=GPa)
#
#
# Indices 1 2 3 4 5 6 
#
# 1 79.2763 40.8834 25.2884 0.0000 0.0000 0.0000
# 2 40.8834 103.5727 42.4001 0.0000 0.0000 0.0000
# 3 25.2884 42.4001 66.3920 0.0000 0.0000 0.0000
# 4 0.0000 0.0000 0.0000 20.3790 0.0000 0.0000
# 5 0.0000 0.0000 0.0000 0.0000 15.6259 0.0000
# 6 0.0000 0.0000 0.0000 0.0000 0.0000 8.1237
#
#
#
# Elastic Compliance Matrix: (Units=1/GPa)
#
#
# Indices 1 2 3 4 5 6 
#
# 1 0.016221 -0.005245 -0.002829 0.000000 0.000000 0.000000
# 2 -0.005245 0.014769 -0.007434 0.000000 0.000000 0.000000
# 3 -0.002829 -0.007434 0.020887 0.000000 0.000000 0.000000
# 4 0.000000 0.000000 0.000000 0.049070 0.000000 0.000000
# 5 0.000000 0.000000 0.000000 0.000000 0.063997 0.000000
# 6 0.000000 0.000000 0.000000 0.000000 0.000000 0.123096
#
#
# Mechanical properties :
#
#
# Convention : Reuss Voigt Hill
#
# Bulk Modulus (GPa) = 47.93564 51.82055 49.87809
# Shear Modulus (GPa) = 15.33695 18.20365 16.77030
#
# Velocity S-wave (km/s) = 3.18114 3.46572 3.32647
# Velocity P-wave (km/s) = 6.71729 7.08571 6.90396
#
# Compressibility (1/GPa) = 0.02086131
#
# Stress axis : x y z
#
# Youngs Moduli (GPa) = 61.64693 67.71081 47.87618
#
# Poissons Ratio (x) = 0.35514 0.13544
# Poissons Ratio (y) = 0.32333 0.35591
# Poissons Ratio (z) = 0.17440 0.50336
#
# Static dielectric constant tensor:
#      x y z
#    x 1.531110 0.000000 0.000000 
#    y 0.000000 1.475330 0.000000 
#    z 0.000000 0.000000 1.515870 
# 
# From -- ./inp_files/24837.got.cif
#   From: 2010.05.17/outbox.cif.g08.bks.cpg/sg68_13_cif.got.tgz:24837.got - 2010.06.03 18:57:09.
