data_PCOD9505042
_publ_section_title
;
Structure prediction by ZEFSAII (Michael W. Deem and Ramdas Pophale) SiO2 
 PCOD9505042
Probable space group: C M M A
;
_chemical_formula_sum "Si O2"
_cell_formula_units_Z 56
_cell_length_a 14.769174
_cell_length_b 12.094202
_cell_length_c 12.747895
_cell_angle_alpha 90.000000
_cell_angle_beta 90.000000
_cell_angle_gamma 90.000000
_cell_volume 2277.046517
_symmetry_space_group_name_H-M "C M M A"
_symmetry_group_IT_number 67
_symmetry_cell_setting 'orthorhombic'
loop_
_space_group_symop_operation_xyz
x,y,z
-x,1/2-y,z
x,-y,-z
-x,1/2+y,-z
-x,-y,-z
x,1/2+y,-z
-x,y,z
x,1/2-y,z
1/2+x,1/2+y,z
1/2-x,-y,z
1/2+x,1/2-y,-z
1/2-x,y,-z
1/2-x,1/2-y,-z
1/2+x,y,-z
1/2-x,1/2+y,z
1/2+x,-y,z
loop_
_atom_site_type_symbol
_atom_site_label
_atom_site_fract_x
_atom_site_fract_y
_atom_site_fract_z
Si Si1 0.762172 0.250000 0.873794
Si Si2 0.856205 0.517096 0.674090
Si Si3 0.895492 0.750000 0.698838
Si Si4 0.000000 0.381566 0.563828
Si Si5 0.397123 0.445916 0.111212
O O1 0.678027 0.250000 0.794086
O O2 0.824192 0.143773 0.856255
O O3 0.750000 0.250000 0.000000
O O4 0.750000 0.500000 0.663992
O O5 0.880263 0.638627 0.629937
O O6 0.910446 0.411157 0.632390
O O7 0.890173 0.531195 0.794072
O O8 0.000000 0.750000 0.733938
O O9 0.000000 0.500000 0.500000
O O10 0.000000 0.250000 0.536851
O O11 0.500000 0.402963 0.103102
O O12 0.374091 0.500000 0.000000
#
# Coordination Sequence:
#
# PCOD9505042 Si02
#       5
#     8  16   8   8  16
#     4  12  25  37  64  99 157 210 273 327 389 442
#     4  12  26  47  80 115 155 207 261 319 391 470
#     4  12  24  43  72 106 158 206 261 322 396 454
#     4  12  32  58  89 120 158 198 257 330 413 488
#     4  11  24  42  66 105 154 211 270 324 379 458
#
# _framework density 24.593260999999998
#
# number of rings (size 3 to 8) (size 9 to 14) (size 15 to 20)
#    0.000    0.286    5.714    2.143    6.000    4.000 
#    0.000    1.429    0.000    0.857    0.000    0.000 
#    0.000    0.000    0.000    0.000    0.000    0.000 
#
# Total GULP energy -156463.561920 kJ/mol
# GULP energy per Si atom -5587.984354 kJ/mol
# Density = 2.453729 g / cm^3
# Si number density = 24.593261 Si / 1000 Ang^3
#
#
#
# Elastic Constant Matrix: (Units=GPa)
#
#
# Indices 1 2 3 4 5 6 
#
# 1 220.9297 76.4438 20.2845 0.0000 0.0000 0.0000
# 2 76.4438 190.8061 40.1475 0.0000 0.0000 0.0000
# 3 20.2845 40.1475 64.8385 0.0000 0.0000 0.0000
# 4 0.0000 0.0000 0.0000 35.8055 0.0000 0.0000
# 5 0.0000 0.0000 0.0000 0.0000 -27.4549 0.0000
# 6 0.0000 0.0000 0.0000 0.0000 0.0000 40.0419
#
#
#
# Elastic Compliance Matrix: (Units=1/GPa)
#
#
# Indices 1 2 3 4 5 6 
#
# 1 0.005263 -0.002026 -0.000392 0.000000 0.000000 0.000000
# 2 -0.002026 0.006806 -0.003580 0.000000 0.000000 0.000000
# 3 -0.000392 -0.003580 0.017762 0.000000 0.000000 0.000000
# 4 0.000000 0.000000 0.000000 0.027929 0.000000 0.000000
# 5 0.000000 0.000000 0.000000 0.000000 -0.036423 0.000000
# 6 0.000000 0.000000 0.000000 0.000000 0.000000 0.024974
#
#
# Mechanical properties :
#
#
# Convention : Reuss Voigt Hill
#
# Bulk Modulus (GPa) = 56.07026 83.36954 69.71990
# Shear Modulus (GPa) = 77.81710 32.32507 55.07109
#
# Velocity S-wave (km/s) = 5.63119 3.62938 4.73723
# Velocity P-wave (km/s) = 8.07025 7.17887 7.63758
#
# Compressibility (1/GPa) = 0.01783477
#
# Stress axis : x y z
#
# Youngs Moduli (GPa) = 189.99077 146.92824 56.29841
#
# Poissons Ratio (x) = 0.29771 0.02207
# Poissons Ratio (y) = 0.38496 0.20157
# Poissons Ratio (z) = 0.07448 0.52605
#
# Static dielectric constant tensor:
#      x y z
#    x 1.954460 0.000000 0.000000 
#    y 0.000000 2.086370 0.000000 
#    z 0.000000 0.000000 2.115450 
# 
# From -- ./inp_files/25578.got.cif
#   From: 2010.05.17/outbox.cif.g08.bks.cpg/sg67_13_cif.got.tgz:25578.got - 2010.06.03 18:28:57.
