data_PCOD9505021
_publ_section_title
;
Structure prediction by ZEFSAII (Michael W. Deem and Ramdas Pophale) SiO2 
 PCOD9505021
Probable space group: C M M A
;
_chemical_formula_sum "Si O2"
_cell_formula_units_Z 64
_cell_length_a 17.637895
_cell_length_b 10.464192
_cell_length_c 19.495676
_cell_angle_alpha 90.000000
_cell_angle_beta 90.000000
_cell_angle_gamma 90.000000
_cell_volume 3598.245170
_symmetry_space_group_name_H-M "C M M A"
_symmetry_group_IT_number 67
_symmetry_cell_setting 'orthorhombic'
loop_
_space_group_symop_operation_xyz
x,y,z
-x,1/2-y,z
x,-y,-z
-x,1/2+y,-z
-x,-y,-z
x,1/2+y,-z
-x,y,z
x,1/2-y,z
1/2+x,1/2+y,z
1/2-x,-y,z
1/2+x,1/2-y,-z
1/2-x,y,-z
1/2-x,1/2-y,-z
1/2+x,y,-z
1/2-x,1/2+y,z
1/2+x,-y,z
loop_
_atom_site_type_symbol
_atom_site_label
_atom_site_fract_x
_atom_site_fract_y
_atom_site_fract_z
Si Si1 0.590297 0.750000 0.085668
Si Si2 0.340147 0.496827 0.151780
Si Si3 0.907563 0.103876 0.555096
Si Si4 0.090136 0.597592 0.288051
Si Si5 0.090583 0.250000 0.922720
O O1 0.500000 0.750000 0.095659
O O2 0.625360 0.624550 0.119695
O O3 0.604729 0.750000 0.004085
O O4 0.250000 0.500000 0.146050
O O5 0.365245 0.479127 0.230605
O O6 0.373841 0.375396 0.111354
O O7 0.883451 0.250000 0.540364
O O8 0.886871 0.070418 0.633447
O O9 0.000000 0.104722 0.553704
O O10 0.881244 0.000000 0.500000
O O11 0.100831 0.750000 0.276961
O O12 0.000000 0.572637 0.281062
O O13 0.000000 0.250000 0.910848
#
# Coordination Sequence:
#
# PCOD9505021 Si02
#       5
#     8  16  16  16   8
#     4  11  25  41  59  89 118 141 186 249 293 328
#     4  12  24  38  59  87 118 152 189 237 287 337
#     4   8  14  26  47  77 108 138 181 233 276 319
#     4   9  17  33  58  80 106 153 199 226 266 343
#     4  11  23  43  67  81 106 157 198 225 281 362
#
# _framework density 17.786446999999999
#
# number of rings (size 3 to 8) (size 9 to 14) (size 15 to 20)
#    0.000    2.000    1.250    5.250    0.000    5.000 
#    2.250    0.000    0.000    0.750    0.000    3.500 
#    0.000    0.000    0.000    0.000    0.000    0.000 
#
# Total GULP energy -178677.870795 kJ/mol
# GULP energy per Si atom -5583.683462 kJ/mol
# Density = 1.774596 g / cm^3
# Si number density = 17.786447 Si / 1000 Ang^3
#
#
#
# Elastic Constant Matrix: (Units=GPa)
#
#
# Indices 1 2 3 4 5 6 
#
# 1 67.1437 59.4992 74.1664 0.0000 0.0000 0.0000
# 2 59.4992 157.6533 109.8247 0.0000 0.0000 0.0000
# 3 74.1664 109.8247 161.5549 0.0000 0.0000 0.0000
# 4 0.0000 0.0000 0.0000 36.1443 0.0000 0.0000
# 5 0.0000 0.0000 0.0000 0.0000 -16.6224 0.0000
# 6 0.0000 0.0000 0.0000 0.0000 0.0000 28.9389
#
#
#
# Elastic Compliance Matrix: (Units=1/GPa)
#
#
# Indices 1 2 3 4 5 6 
#
# 1 0.031151 -0.003408 -0.011984 0.000000 0.000000 0.000000
# 2 -0.003408 0.012422 -0.006880 0.000000 0.000000 0.000000
# 3 -0.011984 -0.006880 0.016368 0.000000 0.000000 0.000000
# 4 0.000000 0.000000 0.000000 0.027667 0.000000 0.000000
# 5 0.000000 0.000000 0.000000 0.000000 -0.060160 0.000000
# 6 0.000000 0.000000 0.000000 0.000000 0.000000 0.034556
#
#
# Mechanical properties :
#
#
# Convention : Reuss Voigt Hill
#
# Bulk Modulus (GPa) = 64.94627 97.03696 80.99162
# Shear Modulus (GPa) = 44.77109 19.21627 31.99368
#
# Velocity S-wave (km/s) = 5.02256 3.29049 4.24579
# Velocity P-wave (km/s) = 8.38025 8.31334 8.34686
#
# Compressibility (1/GPa) = 0.01539734
#
# Stress axis : x y z
#
# Youngs Moduli (GPa) = 32.10192 80.50297 61.09473
#
# Poissons Ratio (x) = 0.27439 0.73213
# Poissons Ratio (y) = 0.10942 0.42031
# Poissons Ratio (z) = 0.38470 0.55383
#
# Static dielectric constant tensor:
#      x y z
#    x 1.579120 0.000000 0.000000 
#    y 0.000000 1.580970 0.000000 
#    z 0.000000 0.000000 1.609950 
# 
# From -- ./inp_files/32677.got.cif
#   From: 2010.05.17/outbox.cif.g08.bks.cpg/sg67_17_cif.got.tgz:32677.got - 2010.06.03 18:28:57.
