data_PCOD9505387
_publ_section_title
;
Structure prediction by ZEFSAII (Michael W. Deem and Ramdas Pophale) SiO2 
 PCOD9505387
Probable space group: C C C A
;
_chemical_formula_sum "Si O2"
_cell_formula_units_Z 56
_cell_length_a 21.638448
_cell_length_b 23.199051
_cell_length_c 5.304366
_cell_angle_alpha 90.000000
_cell_angle_beta 90.000000
_cell_angle_gamma 90.000000
_cell_volume 2662.746426
_symmetry_space_group_name_H-M "C C C A"
_symmetry_group_IT_number 68
_space_group.IT_coordinate_system_code '2'
_symmetry_cell_setting 'orthorhombic'
loop_
_space_group_symop_operation_xyz
x,y,z
-x,1/2-y,z
x,1/2-y,1/2-z
-x,y,1/2-z
-x,-y,-z
x,1/2+y,-z
-x,1/2+y,1/2+z
x,-y,1/2+z
1/2+x,1/2+y,z
1/2-x,-y,z
1/2+x,-y,1/2-z
1/2-x,1/2+y,1/2-z
1/2-x,1/2-y,-z
1/2+x,y,-z
1/2-x,y,1/2+z
1/2+x,1/2-y,1/2+z
loop_
_atom_site_type_symbol
_atom_site_label
_atom_site_fract_x
_atom_site_fract_y
_atom_site_fract_z
Si Si1 0.500000 0.122779 0.750000
Si Si2 0.584462 0.962861 0.537698
Si Si3 0.430323 0.223874 0.992875
Si Si4 0.224741 0.065915 0.065845
O O1 0.463629 0.085270 0.545939
O O2 0.448741 0.159072 0.911065
O O3 0.653606 0.938422 0.508121
O O4 0.577674 0.988654 0.817170
O O5 0.500000 0.250000 0.998363
O O6 0.396737 0.250000 0.750000
O O7 0.402676 0.250000 0.250000
O O8 0.236834 0.093107 0.337662
O O9 0.250000 0.000000 0.098133
#
# Coordination Sequence:
#
# PCOD9505387 Si02
#       4
#     8  16  16  16
#     4  10  23  34  50  82 112 132 179 206 266 334
#     4  12  22  33  48  74 113 153 168 209 253 302
#     4   8  16  32  51  64  88 127 162 209 250 294
#     4  10  16  32  51  63  90 144 191 215 232 272
#
# _framework density 21.030915
#
# number of rings (size 3 to 8) (size 9 to 14) (size 15 to 20)
#    0.000    2.286    5.714    0.857    0.000    9.143 
#    0.000    0.000    0.000    0.000    0.000    0.000 
#    0.000   59.429    0.000    0.000    0.000    0.000 
#
# Total GULP energy -155914.864097 kJ/mol
# GULP energy per Si atom -5568.388003 kJ/mol
# Density = 2.098305 g / cm^3
# Si number density = 21.030915 Si / 1000 Ang^3
#
#
#
# Elastic Constant Matrix: (Units=GPa)
#
#
# Indices 1 2 3 4 5 6 
#
# 1 48.3120 15.5861 -9.7985 0.0000 0.0000 0.0000
# 2 15.5861 41.1161 11.3889 0.0000 0.0000 0.0000
# 3 -9.7985 11.3889 153.9083 0.0000 0.0000 0.0000
# 4 0.0000 0.0000 0.0000 16.4093 0.0000 0.0000
# 5 0.0000 0.0000 0.0000 0.0000 11.5399 0.0000
# 6 0.0000 0.0000 0.0000 0.0000 0.0000 1.6672
#
#
#
# Elastic Compliance Matrix: (Units=1/GPa)
#
#
# Indices 1 2 3 4 5 6 
#
# 1 0.024342 -0.009859 0.002279 0.000000 0.000000 0.000000
# 2 -0.009859 0.028823 -0.002761 0.000000 0.000000 0.000000
# 3 0.002279 -0.002761 0.006847 0.000000 0.000000 0.000000
# 4 0.000000 0.000000 0.000000 0.060941 0.000000 0.000000
# 5 0.000000 0.000000 0.000000 0.000000 0.086656 0.000000
# 6 0.000000 0.000000 0.000000 0.000000 0.000000 0.599823
#
#
# Mechanical properties :
#
#
# Convention : Reuss Voigt Hill
#
# Bulk Modulus (GPa) = 25.42482 30.85441 28.13962
# Shear Modulus (GPa) = 5.94373 21.00059 13.47216
#
# Velocity S-wave (km/s) = 1.68295 3.16343 2.53373
# Velocity P-wave (km/s) = 3.98647 5.29583 4.68710
#
# Compressibility (1/GPa) = 0.03933164
#
# Stress axis : x y z
#
# Youngs Moduli (GPa) = 41.08199 34.69434 146.05470
#
# Poissons Ratio (x) = 0.34204 -0.33289
# Poissons Ratio (y) = 0.40501 0.40318
# Poissons Ratio (z) = -0.09363 0.09577
#
# Static dielectric constant tensor:
#      x y z
#    x 1.708520 0.000000 0.000000 
#    y 0.000000 1.867690 0.000000 
#    z 0.000000 0.000000 2.082470 
# 
# From -- ./inp_files/1361.got.cif
#   From: 2010.05.17/outbox.cif.g08.bks.cpg/sg68_1_cif.got.tgz:1361.got - 2010.06.03 18:57:09.
