data_PCOD9505355
_publ_section_title
;
Structure prediction by ZEFSAII (Michael W. Deem and Ramdas Pophale) SiO2 
 PCOD9505355
Probable space group: C C C A
;
_chemical_formula_sum "Si O2"
_cell_formula_units_Z 52
_cell_length_a 20.359580
_cell_length_b 28.329158
_cell_length_c 5.328820
_cell_angle_alpha 90.000000
_cell_angle_beta 90.000000
_cell_angle_gamma 90.000000
_cell_volume 3073.502225
_symmetry_space_group_name_H-M "C C C A"
_symmetry_group_IT_number 68
_space_group.IT_coordinate_system_code '2'
_symmetry_cell_setting 'orthorhombic'
loop_
_space_group_symop_operation_xyz
x,y,z
-x,1/2-y,z
x,1/2-y,1/2-z
-x,y,1/2-z
-x,-y,-z
x,1/2+y,-z
-x,1/2+y,1/2+z
x,-y,1/2+z
1/2+x,1/2+y,z
1/2-x,-y,z
1/2+x,-y,1/2-z
1/2-x,1/2+y,1/2-z
1/2-x,1/2-y,-z
1/2+x,y,-z
1/2-x,y,1/2+z
1/2+x,1/2-y,1/2+z
loop_
_atom_site_type_symbol
_atom_site_label
_atom_site_fract_x
_atom_site_fract_y
_atom_site_fract_z
Si Si1 0.372505 0.278442 0.991813
Si Si2 0.325349 0.480129 0.968571
Si Si3 0.207476 0.627224 0.055544
Si Si4 0.500000 0.750000 0.250000
O O1 0.362566 0.250000 0.250000
O O2 0.343249 0.250000 0.750000
O O3 0.342189 0.329854 0.016412
O O4 0.449954 0.279530 0.922239
O O5 0.356064 0.492156 0.701237
O O6 0.250000 0.500000 0.945749
O O7 0.322735 0.424882 0.025261
O O8 0.260674 0.630730 0.831131
#
# Coordination Sequence:
#
# PCOD9505355 Si02
#       4
#    16  16  16   4
#     4  10  22  38  56  73 103 141 170 223 252 306
#     4  10  16  30  46  68 107 146 163 198 234 308
#     4  12  21  31  52  82 112 137 171 199 264 319
#     4   8  22  44  54  68  98 136 190 218 258 284
#
# _framework density 16.918810000000001
#
# number of rings (size 3 to 8) (size 9 to 14) (size 15 to 20)
#    0.923    0.615    6.154    2.308    0.000    3.692 
#    0.000    0.000    0.000    0.000    0.000    2.154 
#    0.000    0.000    0.000    0.000    0.000    0.000 
#
# Total GULP energy -144755.787175 kJ/mol
# GULP energy per Si atom -5567.530276 kJ/mol
# Density = 1.688030 g / cm^3
# Si number density = 16.918810 Si / 1000 Ang^3
#
#
#
# Elastic Constant Matrix: (Units=GPa)
#
#
# Indices 1 2 3 4 5 6 
#
# 1 12.9021 22.1013 -9.3727 0.0000 0.0000 0.0000
# 2 22.1013 106.4393 -10.1797 0.0000 0.0000 0.0000
# 3 -9.3727 -10.1797 88.6500 0.0000 0.0000 0.0000
# 4 0.0000 0.0000 0.0000 6.1509 0.0000 0.0000
# 5 0.0000 0.0000 0.0000 0.0000 20.1073 0.0000
# 6 0.0000 0.0000 0.0000 0.0000 0.0000 -3.6439
#
#
#
# Elastic Compliance Matrix: (Units=1/GPa)
#
#
# Indices 1 2 3 4 5 6 
#
# 1 0.129669 -0.025898 0.010736 0.000000 0.000000 0.000000
# 2 -0.025898 0.014672 -0.001053 0.000000 0.000000 0.000000
# 3 0.010736 -0.001053 0.012294 0.000000 0.000000 0.000000
# 4 0.000000 0.000000 0.000000 0.162577 0.000000 0.000000
# 5 0.000000 0.000000 0.000000 0.000000 0.049733 0.000000
# 6 0.000000 0.000000 0.000000 0.000000 0.000000 -0.274433
#
#
# Mechanical properties :
#
#
# Convention : Reuss Voigt Hill
#
# Bulk Modulus (GPa) = 8.05127 23.67657 15.86392
# Shear Modulus (GPa) = 29.70070 18.21903 23.95987
#
# Velocity S-wave (km/s) = 4.19440 3.28510 3.76728
# Velocity P-wave (km/s) = 5.31285 5.33046 5.32166
#
# Compressibility (1/GPa) = 0.12420401
#
# Stress axis : x y z
#
# Youngs Moduli (GPa) = 7.71192 68.15790 81.33785
#
# Poissons Ratio (x) = 1.76516 -0.87321
# Poissons Ratio (y) = 0.19972 0.08568
# Poissons Ratio (z) = -0.08279 0.07179
#
# Static dielectric constant tensor:
#      x y z
#    x 1.595640 0.000000 0.000000 
#    y 0.000000 1.551510 0.000000 
#    z 0.000000 0.000000 1.646940 
# 
# From -- ./inp_files/928.got.cif
#   From: 2010.05.17/outbox.cif.g08.bks.cpg/sg68_1_cif.got.tgz:928.got - 2010.06.03 18:57:09.
