data_PCOD9505128
_publ_section_title
;
Structure prediction by ZEFSAII (Michael W. Deem and Ramdas Pophale) SiO2 
 PCOD9505128
Probable space group: C M M A
;
_chemical_formula_sum "Si O2"
_cell_formula_units_Z 104
_cell_length_a 30.765042
_cell_length_b 8.552224
_cell_length_c 20.979633
_cell_angle_alpha 90.000000
_cell_angle_beta 90.000000
_cell_angle_gamma 90.000000
_cell_volume 5519.941390
_symmetry_space_group_name_H-M "C M M A"
_symmetry_group_IT_number 67
_symmetry_cell_setting 'orthorhombic'
loop_
_space_group_symop_operation_xyz
x,y,z
-x,1/2-y,z
x,-y,-z
-x,1/2+y,-z
-x,-y,-z
x,1/2+y,-z
-x,y,z
x,1/2-y,z
1/2+x,1/2+y,z
1/2-x,-y,z
1/2+x,1/2-y,-z
1/2-x,y,-z
1/2-x,1/2-y,-z
1/2+x,y,-z
1/2-x,1/2+y,z
1/2+x,-y,z
loop_
_atom_site_type_symbol
_atom_site_label
_atom_site_fract_x
_atom_site_fract_y
_atom_site_fract_z
Si Si1 0.200401 0.936499 0.935612
Si Si2 0.595553 0.938705 0.428445
Si Si3 0.000000 0.562171 0.571792
Si Si4 0.947030 0.929307 0.067399
Si Si5 0.126921 0.058547 0.297113
Si Si6 0.950177 0.938086 0.795661
Si Si7 0.298869 0.438762 0.796495
O O1 0.201600 0.750000 0.939669
O O2 0.182655 0.983528 0.866482
O O3 0.250000 0.000000 0.934755
O O4 0.179116 0.000000 0.000000
O O5 0.596373 0.750000 0.432679
O O6 0.547108 0.986868 0.403916
O O7 0.626333 0.990182 0.370911
O O8 0.602911 0.000000 0.500000
O O9 0.000000 0.500000 0.500000
O O10 0.000000 0.750000 0.573618
O O11 0.933249 0.750000 0.071654
O O12 0.000000 0.933749 0.065575
O O13 0.935477 0.016711 0.132831
O O14 0.932086 0.000000 0.000000
O O15 0.126265 0.250000 0.296841
O O16 0.084352 0.008145 0.257125
O O17 0.169174 0.006517 0.258638
O O18 0.951544 0.750000 0.792293
O O19 0.000000 0.994957 0.785558
O O20 0.297300 0.250000 0.795402
O O21 0.250000 0.500000 0.789955
#
# Coordination Sequence:
#
# PCOD9505128 Si02
#       7
#    16  16   8  16  16  16  16
#     4   9  15  24  42  66  91 118 149 187 233 284
#     4   9  17  30  49  72  99 129 160 196 236 285
#     4   8  14  24  42  68  96 124 155 186 223 274
#     4   9  16  27  44  64  89 124 166 208 246 282
#     4   9  18  32  51  73  98 128 161 198 241 291
#     4   9  17  29  47  70  95 125 161 198 238 287
#     4   9  18  33  51  71  96 127 162 202 244 286
#
# _framework density 18.840779999999999
#
# number of rings (size 3 to 8) (size 9 to 14) (size 15 to 20)
#    0.000    3.077    0.000    1.385    1.077    2.462 
#    0.000    3.077    0.000    2.308    0.000    3.231 
#    0.000    0.000    0.000    0.000    0.000    0.000 
#
# Total GULP energy -289564.365283 kJ/mol
# GULP energy per Si atom -5568.545486 kJ/mol
# Density = 1.879790 g / cm^3
# Si number density = 18.840780 Si / 1000 Ang^3
#
#
#
# Elastic Constant Matrix: (Units=GPa)
#
#
# Indices 1 2 3 4 5 6 
#
# 1 66.7432 11.2842 68.5634 0.0000 0.0000 0.0000
# 2 11.2842 10.2450 21.9484 0.0000 0.0000 0.0000
# 3 68.5634 21.9484 175.5488 0.0000 0.0000 0.0000
# 4 0.0000 0.0000 0.0000 11.1516 0.0000 0.0000
# 5 0.0000 0.0000 0.0000 0.0000 -86.6955 0.0000
# 6 0.0000 0.0000 0.0000 0.0000 0.0000 7.9346
#
#
#
# Elastic Compliance Matrix: (Units=1/GPa)
#
#
# Indices 1 2 3 4 5 6 
#
# 1 0.025651 -0.009274 -0.008859 0.000000 0.000000 0.000000
# 2 -0.009274 0.136671 -0.013465 0.000000 0.000000 0.000000
# 3 -0.008859 -0.013465 0.010840 0.000000 0.000000 0.000000
# 4 0.000000 0.000000 0.000000 0.089673 0.000000 0.000000
# 5 0.000000 0.000000 0.000000 0.000000 -0.011535 0.000000
# 6 0.000000 0.000000 0.000000 0.000000 0.000000 0.126030
#
#
# Mechanical properties :
#
#
# Convention : Reuss Voigt Hill
#
# Bulk Modulus (GPa) = 9.09381 50.68100 29.88741
# Shear Modulus (GPa) = 10.47816 -3.47244 3.50286
#
# Velocity S-wave (km/s) = 2.36083 -1.35906 1.36500
# Velocity P-wave (km/s) = 3.50264 4.94927 4.28741
#
# Compressibility (1/GPa) = 0.10996491
#
# Stress axis : x y z
#
# Youngs Moduli (GPa) = 38.98422 7.31685 92.25102
#
# Poissons Ratio (x) = 0.06786 0.81725
# Poissons Ratio (y) = 0.36155 1.24219
# Poissons Ratio (z) = 0.34536 0.09852
#
# Static dielectric constant tensor:
#      x y z
#    x 1.686100 0.000000 0.000000 
#    y 0.000000 1.654670 0.000000 
#    z 0.000000 0.000000 1.674280 
# 
# From -- ./inp_files/40187.got.cif
#   From: 2010.05.17/outbox.cif.g08.bks.cpg/sg67_21_cif.got.tgz:40187.got - 2010.06.03 18:28:57.
