data_PCOD9505798
_publ_section_title
;
Structure prediction by ZEFSAII (Michael W. Deem and Ramdas Pophale) SiO2 
 PCOD9505798
Probable space group: C C C A
;
_chemical_formula_sum "Si O2"
_cell_formula_units_Z 104
_cell_length_a 18.668101
_cell_length_b 13.852147
_cell_length_c 19.906308
_cell_angle_alpha 90.000000
_cell_angle_beta 90.000000
_cell_angle_gamma 90.000000
_cell_volume 5147.637464
_symmetry_space_group_name_H-M "C C C A"
_symmetry_group_IT_number 68
_space_group.IT_coordinate_system_code '2'
_symmetry_cell_setting 'orthorhombic'
loop_
_space_group_symop_operation_xyz
x,y,z
-x,1/2-y,z
x,1/2-y,1/2-z
-x,y,1/2-z
-x,-y,-z
x,1/2+y,-z
-x,1/2+y,1/2+z
x,-y,1/2+z
1/2+x,1/2+y,z
1/2-x,-y,z
1/2+x,-y,1/2-z
1/2-x,1/2+y,1/2-z
1/2-x,1/2-y,-z
1/2+x,y,-z
1/2-x,y,1/2+z
1/2+x,1/2-y,1/2+z
loop_
_atom_site_type_symbol
_atom_site_label
_atom_site_fract_x
_atom_site_fract_y
_atom_site_fract_z
Si Si1 0.678009 0.191330 0.992898
Si Si2 0.391267 0.250000 0.250000
Si Si3 0.250000 0.000000 0.983590
Si Si4 0.063478 0.320133 0.606557
Si Si5 0.826289 0.750000 0.750000
Si Si6 0.083630 0.731457 0.628461
Si Si7 0.212786 0.588898 0.244163
Si Si8 0.873315 0.985259 0.622728
O O1 0.625112 0.232685 0.937246
O O2 0.750000 0.250000 0.000000
O O3 0.708370 0.084192 0.977701
O O4 0.635301 0.197657 0.063364
O O5 0.429729 0.207228 0.314936
O O6 0.343657 0.339234 0.278208
O O7 0.314157 0.036211 0.934784
O O8 0.064201 0.437564 0.602760
O O9 0.000000 0.250000 0.580288
O O10 0.877160 0.715952 0.690315
O O11 0.774851 0.664437 0.776252
O O12 0.093974 0.617233 0.640893
O O13 0.000000 0.750000 0.623996
O O14 0.250000 0.500000 0.282311
O O15 0.171624 0.538467 0.181927
#
# Coordination Sequence:
#
# PCOD9505798 Si02
#       8
#    16   8   8  16   8  16  16  16
#     4  11  24  41  68  95 129 168 223 279 322 387
#     4   9  21  34  66  98 122 158 210 264 312 378
#     4  10  18  40  66  96 118 166 224 264 326 378
#     4  10  22  43  65  94 129 169 212 268 329 393
#     4  11  23  40  68  94 128 164 224 272 316 392
#     4  12  25  45  63  94 136 180 216 265 336 408
#     4  10  18  35  64  93 119 163 211 258 313 377
#     4  10  19  39  69  87 126 179 213 246 338 415
#
# _framework density 20.203441999999999
#
# number of rings (size 3 to 8) (size 9 to 14) (size 15 to 20)
#    0.000    1.538    3.846    0.923    6.462    0.000 
#    6.923    3.846    0.000    0.000    0.000    0.000 
#    0.000    0.000    0.000    0.000    0.000    0.000 
#
# Total GULP energy -289589.030556 kJ/mol
# GULP energy per Si atom -5569.019818 kJ/mol
# Density = 2.015746 g / cm^3
# Si number density = 20.203442 Si / 1000 Ang^3
#
#
#
# Elastic Constant Matrix: (Units=GPa)
#
#
# Indices 1 2 3 4 5 6 
#
# 1 118.7169 59.4746 18.3168 0.0000 0.0000 0.0000
# 2 59.4746 122.8498 11.8458 0.0000 0.0000 0.0000
# 3 18.3168 11.8458 61.0378 0.0000 0.0000 0.0000
# 4 0.0000 0.0000 0.0000 20.4410 0.0000 0.0000
# 5 0.0000 0.0000 0.0000 0.0000 8.3447 0.0000
# 6 0.0000 0.0000 0.0000 0.0000 0.0000 29.4031
#
#
#
# Elastic Compliance Matrix: (Units=1/GPa)
#
#
# Indices 1 2 3 4 5 6 
#
# 1 0.011457 -0.005315 -0.002407 0.000000 0.000000 0.000000
# 2 -0.005315 0.010761 -0.000493 0.000000 0.000000 0.000000
# 3 -0.002407 -0.000493 0.017201 0.000000 0.000000 0.000000
# 4 0.000000 0.000000 0.000000 0.048921 0.000000 0.000000
# 5 0.000000 0.000000 0.000000 0.000000 0.119837 0.000000
# 6 0.000000 0.000000 0.000000 0.000000 0.000000 0.034010
#
#
# Mechanical properties :
#
#
# Convention : Reuss Voigt Hill
#
# Bulk Modulus (GPa) = 43.49844 53.54211 48.52027
# Shear Modulus (GPa) = 18.77720 25.83558 22.30639
#
# Velocity S-wave (km/s) = 3.05192 3.57987 3.32639
# Velocity P-wave (km/s) = 5.83060 6.60654 6.23066
#
# Compressibility (1/GPa) = 0.02298933
#
# Stress axis : x y z
#
# Youngs Moduli (GPa) = 87.28077 92.93189 58.13517
#
# Poissons Ratio (x) = 0.49390 0.13992
# Poissons Ratio (y) = 0.46387 0.02869
# Poissons Ratio (z) = 0.21006 0.04586
#
# Static dielectric constant tensor:
#      x y z
#    x 1.742500 0.000000 0.000000 
#    y 0.000000 1.781260 0.000000 
#    z 0.000000 0.000000 1.745430 
# 
# From -- ./inp_files/39652.got.cif
#   From: 2010.05.17/outbox.cif.g08.bks.cpg/sg68_20_cif.got.tgz:39652.got - 2010.06.03 18:57:09.
