data_PCOD9505232
_publ_section_title
;
Structure prediction by ZEFSAII (Michael W. Deem and Ramdas Pophale) SiO2 
 PCOD9505232
Probable space group: C M M A
;
_chemical_formula_sum "Si O2"
_cell_formula_units_Z 48
_cell_length_a 27.000000
_cell_length_b 21.000000
_cell_length_c 9.000000
_cell_angle_alpha 90.000000
_cell_angle_beta 90.000000
_cell_angle_gamma 90.000000
_cell_volume 5103.000000
_symmetry_space_group_name_H-M "C M M A"
_symmetry_group_IT_number 67
_symmetry_cell_setting 'orthorhombic'
loop_
_space_group_symop_operation_xyz
x,y,z
-x,1/2-y,z
x,-y,-z
-x,1/2+y,-z
-x,-y,-z
x,1/2+y,-z
-x,y,z
x,1/2-y,z
1/2+x,1/2+y,z
1/2-x,-y,z
1/2+x,1/2-y,-z
1/2-x,y,-z
1/2-x,1/2-y,-z
1/2+x,y,-z
1/2-x,1/2+y,z
1/2+x,-y,z
loop_
_atom_site_type_symbol
_atom_site_label
_atom_site_fract_x
_atom_site_fract_y
_atom_site_fract_z
Si Si1 0.443529 0.321949 0.673296
Si Si2 0.945408 0.570185 0.422191
Si Si3 0.351064 0.485484 0.327010
Si Si4 0.204829 0.903430 0.110323
Si Si5 0.141826 0.616436 0.829146
Si Si6 0.762945 0.174503 0.333046
O O1 0.500000 0.325995 0.726747
O O2 0.434663 0.250000 0.618596
O O3 0.438779 0.373909 0.542300
O O4 0.404856 0.339112 0.800656
O O5 0.946097 0.500000 0.500000
O O6 0.895862 0.565554 0.326035
O O7 0.000000 0.578272 0.352188
O O8 0.338400 0.500000 0.500000
O O9 0.307020 0.458501 0.227538
O O10 0.369550 0.548116 0.242742
O O11 0.221168 0.844692 0.213744
O O12 0.250000 0.919263 0.000000
O O13 0.159944 0.889923 0.997838
O O14 0.187271 0.643204 0.730381
O O15 0.769321 0.250000 0.337812
O O16 0.750000 0.152149 0.500000
#
# Coordination Sequence:
#
# PCOD9505232 Si02
#       6
#    16  16  16  16  16  16
#     4  10  20  35  59  91 122 158 200 243 297 360
#     4   9  17  33  58  86 118 151 193 248 298 347
#     4  11  20  36  61  86 114 151 202 248 299 352
#     4  10  24  40  56  82 121 159 199 246 307 359
#     4  11  21  36  57  84 119 156 192 243 299 362
#     4  10  22  39  59  83 112 152 203 248 295 356
#
# _framework density 9.4062319999999993
#
# number of rings (size 3 to 8) (size 9 to 14) (size 15 to 20)
#    0.000    1.833    3.333    2.000    0.000    8.333 
#    0.000    5.000    0.000    2.000    0.000    2.333 
#    0.000    0.000    0.000    0.000    0.000    0.000 
#
# Total GULP energy -267612.916262 kJ/mol
# GULP energy per Si atom -5575.269089 kJ/mol
# Density = 0.938482 g / cm^3
# Si number density = 9.406232 Si / 1000 Ang^3
#
#
#
# Elastic Constant Matrix: (Units=GPa)
#
#
# Indices 1 2 3 4 5 6 
#
# 1 70.2435 36.0297 56.0263 0.0000 0.0000 0.0000
# 2 36.0297 70.7538 26.9427 0.0000 0.0000 0.0000
# 3 56.0263 26.9427 118.5226 0.0000 0.0000 0.0000
# 4 0.0000 0.0000 0.0000 15.6514 0.0000 0.0000
# 5 0.0000 0.0000 0.0000 0.0000 24.8674 0.0000
# 6 0.0000 0.0000 0.0000 0.0000 0.0000 31.4523
#
#
#
# Elastic Compliance Matrix: (Units=1/GPa)
#
#
# Indices 1 2 3 4 5 6 
#
# 1 0.028277 -0.010192 -0.011050 0.000000 0.000000 0.000000
# 2 -0.010192 0.019146 0.000465 0.000000 0.000000 0.000000
# 3 -0.011050 0.000465 0.013555 0.000000 0.000000 0.000000
# 4 0.000000 0.000000 0.000000 0.063892 0.000000 0.000000
# 5 0.000000 0.000000 0.000000 0.000000 0.040213 0.000000
# 6 0.000000 0.000000 0.000000 0.000000 0.000000 0.031794
#
#
# Mechanical properties :
#
#
# Convention : Reuss Voigt Hill
#
# Bulk Modulus (GPa) = 51.47870 55.27968 53.37919
# Shear Modulus (GPa) = 20.41599 23.76229 22.08914
#
# Velocity S-wave (km/s) = 3.29787 3.55789 3.43034
# Velocity P-wave (km/s) = 6.47494 6.80636 6.64271
#
# Compressibility (1/GPa) = 0.01942551
#
# Stress axis : x y z
#
# Youngs Moduli (GPa) = 35.36398 52.22962 73.77433
#
# Poissons Ratio (x) = 0.53231 0.81521
# Poissons Ratio (y) = 0.36042 -0.03433
# Poissons Ratio (z) = 0.39077 -0.02431
#
# Static dielectric constant tensor:
#      x y z
#    x 1.723810 0.000000 0.000000 
#    y 0.000000 1.675160 0.000000 
#    z 0.000000 0.000000 1.617490 
# 
# From -- ./inp_files/11492.got.cif
#   From: 2010.05.17/outbox.ucp.g08.bks.cvg/sg67_6_cif.got.tgz:11492.got - 2010.06.11 16:47:20.
