data_PCOD9505361
_publ_section_title
;
Structure prediction by ZEFSAII (Michael W. Deem and Ramdas Pophale) SiO2 
 PCOD9505361
Probable space group: C C C A
;
_chemical_formula_sum "Si O2"
_cell_formula_units_Z 88
_cell_length_a 5.428202
_cell_length_b 27.248600
_cell_length_c 26.593431
_cell_angle_alpha 90.000000
_cell_angle_beta 90.000000
_cell_angle_gamma 90.000000
_cell_volume 3933.458447
_symmetry_space_group_name_H-M "C C C A"
_symmetry_group_IT_number 68
_space_group.IT_coordinate_system_code '2'
_symmetry_cell_setting 'orthorhombic'
loop_
_space_group_symop_operation_xyz
x,y,z
-x,1/2-y,z
x,1/2-y,1/2-z
-x,y,1/2-z
-x,-y,-z
x,1/2+y,-z
-x,1/2+y,1/2+z
x,-y,1/2+z
1/2+x,1/2+y,z
1/2-x,-y,z
1/2+x,-y,1/2-z
1/2-x,1/2+y,1/2-z
1/2-x,1/2-y,-z
1/2+x,y,-z
1/2-x,y,1/2+z
1/2+x,1/2-y,1/2+z
loop_
_atom_site_type_symbol
_atom_site_label
_atom_site_fract_x
_atom_site_fract_y
_atom_site_fract_z
Si Si1 0.000000 0.032935 0.250000
Si Si2 0.000640 0.032522 0.136824
Si Si3 0.248710 0.281099 0.880889
Si Si4 0.752099 0.807722 0.269169
Si Si5 0.922716 0.065466 0.476135
Si Si6 0.122549 0.820848 0.517632
O O1 0.996616 0.057098 0.193325
O O2 0.250000 0.000000 0.249913
O O3 0.018851 0.061903 0.083650
O O4 0.250000 0.000000 0.136532
O O5 0.750000 0.000000 0.133533
O O6 0.500000 0.250000 0.879395
O O7 0.237441 0.307832 0.828284
O O8 0.269580 0.316941 0.927096
O O9 0.000000 0.250000 0.885784
O O10 0.753086 0.750000 0.250000
O O11 0.500000 0.829690 0.250000
O O12 0.000000 0.831781 0.250000
O O13 0.652457 0.045739 0.491208
O O14 0.912190 0.122314 0.493708
O O15 0.346338 0.798908 0.484536
#
# Coordination Sequence:
#
# PCOD9505361 Si02
#       6
#     8  16  16  16  16  16
#     4   8  16  30  48  76 110 142 169 208 261 302
#     4  10  19  32  55  85 109 139 180 219 256 312
#     4  12  21  32  56  79  97 132 174 222 260 307
#     4  10  16  30  48  73 101 126 153 202 267 323
#     4  10  21  37  55  75 109 147 172 217 274 318
#     4  10  23  40  52  72 105 142 175 209 268 323
#
# _framework density 22.372171999999999
#
# number of rings (size 3 to 8) (size 9 to 14) (size 15 to 20)
#    0.000    1.818    3.636    2.182    0.000    4.364 
#    0.000    0.000    2.000    0.000    9.455    0.000 
#    0.000    0.000    0.000    0.000    0.000    0.000 
#
# Total GULP energy -245266.545761 kJ/mol
# GULP energy per Si atom -5574.239676 kJ/mol
# Density = 2.232125 g / cm^3
# Si number density = 22.372172 Si / 1000 Ang^3
#
#
#
# Elastic Constant Matrix: (Units=GPa)
#
#
# Indices 1 2 3 4 5 6 
#
# 1 232.2659 33.6275 44.8227 0.0000 0.0000 0.0000
# 2 33.6275 19.5420 0.3644 0.0000 0.0000 0.0000
# 3 44.8227 0.3644 164.1606 0.0000 0.0000 0.0000
# 4 0.0000 0.0000 0.0000 12.2844 0.0000 0.0000
# 5 0.0000 0.0000 0.0000 0.0000 45.0220 0.0000
# 6 0.0000 0.0000 0.0000 0.0000 0.0000 15.3490
#
#
#
# Elastic Compliance Matrix: (Units=1/GPa)
#
#
# Indices 1 2 3 4 5 6 
#
# 1 0.006154 -0.010558 -0.001657 0.000000 0.000000 0.000000
# 2 -0.010558 0.069290 0.002729 0.000000 0.000000 0.000000
# 3 -0.001657 0.002729 0.006538 0.000000 0.000000 0.000000
# 4 0.000000 0.000000 0.000000 0.081404 0.000000 0.000000
# 5 0.000000 0.000000 0.000000 0.000000 0.022211 0.000000
# 6 0.000000 0.000000 0.000000 0.000000 0.000000 0.065151
#
#
# Mechanical properties :
#
#
# Convention : Reuss Voigt Hill
#
# Bulk Modulus (GPa) = 15.87070 63.73309 39.80189
# Shear Modulus (GPa) = 17.19849 37.00800 27.10324
#
# Velocity S-wave (km/s) = 2.77563 4.07160 3.48440
# Velocity P-wave (km/s) = 4.16912 7.11712 5.83245
#
# Compressibility (1/GPa) = 0.06300919
#
# Stress axis : x y z
#
# Youngs Moduli (GPa) = 162.50137 14.43214 152.95396
#
# Poissons Ratio (x) = 0.15238 0.25342
# Poissons Ratio (y) = 1.71576 -0.41742
# Poissons Ratio (z) = 0.26923 -0.03939
#
# Static dielectric constant tensor:
#      x y z
#    x 3.105360 0.000000 0.000000 
#    y 0.000000 1.811070 0.000000 
#    z 0.000000 0.000000 1.907300 
# 
# From -- ./inp_files/42400.got.cif
#   From: 2010.05.17/outbox.cif.g08.bks.cpg/sg68_22_cif.got.tgz:42400.got - 2010.06.03 18:57:09.
