data_PCOD9505630
_publ_section_title
;
Structure prediction by ZEFSAII (Michael W. Deem and Ramdas Pophale) SiO2 
 PCOD9505630
Probable space group: C C C A
;
_chemical_formula_sum "Si O2"
_cell_formula_units_Z 104
_cell_length_a 23.599557
_cell_length_b 15.426457
_cell_length_c 16.935313
_cell_angle_alpha 90.000000
_cell_angle_beta 90.000000
_cell_angle_gamma 90.000000
_cell_volume 6165.428581
_symmetry_space_group_name_H-M "C C C A"
_symmetry_group_IT_number 68
_space_group.IT_coordinate_system_code '2'
_symmetry_cell_setting 'orthorhombic'
loop_
_space_group_symop_operation_xyz
x,y,z
-x,1/2-y,z
x,1/2-y,1/2-z
-x,y,1/2-z
-x,-y,-z
x,1/2+y,-z
-x,1/2+y,1/2+z
x,-y,1/2+z
1/2+x,1/2+y,z
1/2-x,-y,z
1/2+x,-y,1/2-z
1/2-x,1/2+y,1/2-z
1/2-x,1/2-y,-z
1/2+x,y,-z
1/2-x,y,1/2+z
1/2+x,1/2-y,1/2+z
loop_
_atom_site_type_symbol
_atom_site_label
_atom_site_fract_x
_atom_site_fract_y
_atom_site_fract_z
Si Si1 0.750000 0.500000 0.441176
Si Si2 0.737686 0.646317 0.658479
Si Si3 0.937446 0.146998 0.232127
Si Si4 0.366428 0.614030 0.382867
Si Si5 0.253958 0.162559 0.845230
Si Si6 0.121099 0.311146 0.079656
Si Si7 0.649438 0.561942 0.552706
O O1 0.770837 0.579682 0.388404
O O2 0.699247 0.533766 0.493632
O O3 0.797481 0.616982 0.620246
O O4 0.749128 0.647806 0.751871
O O5 0.726195 0.745731 0.633660
O O6 0.683817 0.592299 0.630393
O O7 0.937391 0.250000 0.250000
O O8 0.891532 0.110815 0.293991
O O9 0.922062 0.142868 0.140149
O O10 0.000000 0.112436 0.250000
O O11 0.385879 0.706366 0.420373
O O12 0.383998 0.525954 0.427167
O O13 0.318522 0.174431 0.875330
O O14 0.120602 0.359078 0.995232
#
# Coordination Sequence:
#
# PCOD9505630 Si02
#       7
#     8  16  16  16  16  16  16
#     4  10  20  26  40  68  90 134 162 194 220 280
#     4  10  18  31  44  64  95 136 164 192 231 283
#     4   9  17  33  56  75  89 119 164 211 258 291
#     4  10  18  31  49  69  97 128 159 199 243 286
#     4   9  19  29  44  61  95 130 167 193 226 273
#     4   9  19  32  47  70  99 123 160 208 240 286
#     4  11  21  28  45  71 100 133 159 189 241 290
#
# _framework density 16.868251000000001
#
# number of rings (size 3 to 8) (size 9 to 14) (size 15 to 20)
#    0.000    2.308    3.077    0.000    4.308    1.846 
#    0.000    0.769    0.000    0.000    0.000    0.000 
#    0.000    1.231    0.000    0.000    0.000    0.000 
#
# Total GULP energy -289472.739732 kJ/mol
# GULP energy per Si atom -5566.783456 kJ/mol
# Density = 1.682986 g / cm^3
# Si number density = 16.868251 Si / 1000 Ang^3
#
#
#
# Elastic Constant Matrix: (Units=GPa)
#
#
# Indices 1 2 3 4 5 6 
#
# 1 30.1448 7.6878 6.9961 0.0000 0.0000 0.0000
# 2 7.6878 89.3835 35.9065 0.0000 0.0000 0.0000
# 3 6.9961 35.9065 48.6920 0.0000 0.0000 0.0000
# 4 0.0000 0.0000 0.0000 28.9365 0.0000 0.0000
# 5 0.0000 0.0000 0.0000 0.0000 5.4174 0.0000
# 6 0.0000 0.0000 0.0000 0.0000 0.0000 5.8136
#
#
#
# Elastic Compliance Matrix: (Units=1/GPa)
#
#
# Indices 1 2 3 4 5 6 
#
# 1 0.034438 -0.001384 -0.003927 0.000000 0.000000 0.000000
# 2 -0.001384 0.015953 -0.011565 0.000000 0.000000 0.000000
# 3 -0.003927 -0.011565 0.029630 0.000000 0.000000 0.000000
# 4 0.000000 0.000000 0.000000 0.034558 0.000000 0.000000
# 5 0.000000 0.000000 0.000000 0.000000 0.184589 0.000000
# 6 0.000000 0.000000 0.000000 0.000000 0.000000 0.172010
#
#
# Mechanical properties :
#
#
# Convention : Reuss Voigt Hill
#
# Bulk Modulus (GPa) = 21.61361 29.93348 25.77355
# Shear Modulus (GPa) = 9.60885 15.87549 12.74217
#
# Velocity S-wave (km/s) = 2.38931 3.07114 2.75142
# Velocity P-wave (km/s) = 4.52247 5.50998 5.04046
#
# Compressibility (1/GPa) = 0.04626715
#
# Stress axis : x y z
#
# Youngs Moduli (GPa) = 29.03792 62.68584 33.74994
#
# Poissons Ratio (x) = 0.08678 0.13254
# Poissons Ratio (y) = 0.04020 0.39031
# Poissons Ratio (z) = 0.11404 0.72495
#
# Static dielectric constant tensor:
#      x y z
#    x 1.562000 0.000000 0.000000 
#    y 0.000000 1.615570 0.000000 
#    z 0.000000 0.000000 1.598550 
# 
# From -- ./inp_files/26118.got.cif
#   From: 2010.05.17/outbox.cif.g08.bks.cpg/sg68_14_cif.got.tgz:26118.got - 2010.06.03 18:57:09.
