data_PCOD9505200
_publ_section_title
;
Structure prediction by ZEFSAII (Michael W. Deem and Ramdas Pophale) SiO2 
 PCOD9505200
Probable space group: C M M A
;
_chemical_formula_sum "Si O2"
_cell_formula_units_Z 52
_cell_length_a 24.000000
_cell_length_b 9.000000
_cell_length_c 27.000000
_cell_angle_alpha 90.000000
_cell_angle_beta 90.000000
_cell_angle_gamma 90.000000
_cell_volume 5832.000000
_symmetry_space_group_name_H-M "C M M A"
_symmetry_group_IT_number 67
_symmetry_cell_setting 'orthorhombic'
loop_
_space_group_symop_operation_xyz
x,y,z
-x,1/2-y,z
x,-y,-z
-x,1/2+y,-z
-x,-y,-z
x,1/2+y,-z
-x,y,z
x,1/2-y,z
1/2+x,1/2+y,z
1/2-x,-y,z
1/2+x,1/2-y,-z
1/2-x,y,-z
1/2-x,1/2-y,-z
1/2+x,y,-z
1/2-x,1/2+y,z
1/2+x,-y,z
loop_
_atom_site_type_symbol
_atom_site_label
_atom_site_fract_x
_atom_site_fract_y
_atom_site_fract_z
Si Si1 0.065497 0.928283 0.226581
Si Si2 0.146409 0.420490 0.148243
Si Si3 0.750000 0.000000 0.215518
Si Si4 0.811652 0.071339 0.948870
Si Si5 0.335633 0.083161 0.298518
Si Si6 0.189153 0.072632 0.398941
Si Si7 0.064684 0.429508 0.445304
O O1 0.068936 0.750000 0.217875
O O2 0.104289 0.956869 0.274830
O O3 0.000000 0.967038 0.231689
O O4 0.097323 0.013974 0.182600
O O5 0.135156 0.250000 0.134786
O O6 0.204581 0.423654 0.179596
O O7 0.154871 0.519937 0.099510
O O8 0.708833 0.084842 0.253439
O O9 0.808095 0.250000 0.952310
O O10 0.750000 0.000000 0.943175
O O11 0.834116 0.000000 0.000000
O O12 0.338453 0.250000 0.319585
O O13 0.316883 0.971509 0.341121
O O14 0.194575 0.250000 0.405532
O O15 0.126406 0.029383 0.420967
O O16 0.250000 0.000000 0.415500
O O17 0.066119 0.500000 0.500000
O O18 0.065258 0.250000 0.446973
O O19 0.000000 0.468297 0.425571
#
# Coordination Sequence:
#
# PCOD9505200 Si02
#       7
#    16  16   8  16  16  16  16
#     4   9  20  38  56  77 108 145 186 232 278 326
#     4  11  21  33  54  81 109 142 182 226 274 328
#     4  10  20  32  53  76 111 140 182 222 272 318
#     4  11  21  34  52  77 111 144 178 221 274 333
#     4  10  20  34  54  79 109 146 186 226 271 325
#     4  11  23  37  56  84 119 153 188 234 287 343
#     4   9  20  40  63  86 112 146 190 238 287 340
#
# _framework density 8.9163239999999995
#
# number of rings (size 3 to 8) (size 9 to 14) (size 15 to 20)
#    0.000    1.846    1.538    3.231    0.000    6.154 
#    0.000    1.538    0.000    0.462    0.000    0.000 
#    0.000    0.000    0.000    0.000    0.000    0.000 
#
# Total GULP energy -289531.785594 kJ/mol
# GULP energy per Si atom -5567.918954 kJ/mol
# Density = 0.889603 g / cm^3
# Si number density = 8.916324 Si / 1000 Ang^3
#
#
#
# Elastic Constant Matrix: (Units=GPa)
#
#
# Indices 1 2 3 4 5 6 
#
# 1 158.5134 30.9723 32.6568 0.0000 0.0000 0.0000
# 2 30.9723 83.0408 20.8188 0.0000 0.0000 0.0000
# 3 32.6568 20.8188 59.1804 0.0000 0.0000 0.0000
# 4 0.0000 0.0000 0.0000 22.8558 0.0000 0.0000
# 5 0.0000 0.0000 0.0000 0.0000 27.6630 0.0000
# 6 0.0000 0.0000 0.0000 0.0000 0.0000 26.9313
#
#
#
# Elastic Compliance Matrix: (Units=1/GPa)
#
#
# Indices 1 2 3 4 5 6 
#
# 1 0.007381 -0.001899 -0.003405 0.000000 0.000000 0.000000
# 2 -0.001899 0.013696 -0.003770 0.000000 0.000000 0.000000
# 3 -0.003405 -0.003770 0.020103 0.000000 0.000000 0.000000
# 4 0.000000 0.000000 0.000000 0.043753 0.000000 0.000000
# 5 0.000000 0.000000 0.000000 0.000000 0.036149 0.000000
# 6 0.000000 0.000000 0.000000 0.000000 0.000000 0.037132
#
#
# Mechanical properties :
#
#
# Convention : Reuss Voigt Hill
#
# Bulk Modulus (GPa) = 43.41925 52.18114 47.80019
# Shear Modulus (GPa) = 27.16822 29.90913 28.53868
#
# Velocity S-wave (km/s) = 3.90745 4.09982 4.00479
# Velocity P-wave (km/s) = 6.69019 7.19281 6.94605
#
# Compressibility (1/GPa) = 0.02303126
#
# Stress axis : x y z
#
# Youngs Moduli (GPa) = 135.47910 73.01488 49.74494
#
# Poissons Ratio (x) = 0.13868 0.16938
# Poissons Ratio (y) = 0.25733 0.18753
# Poissons Ratio (z) = 0.46129 0.27526
#
# Static dielectric constant tensor:
#      x y z
#    x 1.636940 0.000000 0.000000 
#    y 0.000000 1.617440 0.000000 
#    z 0.000000 0.000000 1.615730 
# 
# From -- ./inp_files/44824.got.cif
#   From: 2010.05.17/outbox.ucp.g08.bks.cvg/sg67_23_cif.got.tgz:44824.got - 2010.06.11 16:47:20.
