data_PCOD9505125
_publ_section_title
;
Structure prediction by ZEFSAII (Michael W. Deem and Ramdas Pophale) SiO2 
 PCOD9505125
Probable space group: C M M A
;
_chemical_formula_sum "Si O2"
_cell_formula_units_Z 128
_cell_length_a 14.807773
_cell_length_b 19.042405
_cell_length_c 21.931260
_cell_angle_alpha 90.000000
_cell_angle_beta 90.000000
_cell_angle_gamma 90.000000
_cell_volume 6184.080430
_symmetry_space_group_name_H-M "C M M A"
_symmetry_group_IT_number 67
_symmetry_cell_setting 'orthorhombic'
loop_
_space_group_symop_operation_xyz
x,y,z
-x,1/2-y,z
x,-y,-z
-x,1/2+y,-z
-x,-y,-z
x,1/2+y,-z
-x,y,z
x,1/2-y,z
1/2+x,1/2+y,z
1/2-x,-y,z
1/2+x,1/2-y,-z
1/2-x,y,-z
1/2-x,1/2-y,-z
1/2+x,y,-z
1/2-x,1/2+y,z
1/2+x,-y,z
loop_
_atom_site_type_symbol
_atom_site_label
_atom_site_fract_x
_atom_site_fract_y
_atom_site_fract_z
Si Si1 0.139536 0.080308 0.998877
Si Si2 0.143965 0.477518 0.687633
Si Si3 0.133969 0.618494 0.751602
Si Si4 0.854894 0.671036 0.114359
Si Si5 0.104704 0.825163 0.618590
Si Si6 0.634554 0.830919 0.115908
Si Si7 0.156003 0.833546 0.252218
Si Si8 0.394690 0.462304 0.558965
O O1 0.112359 0.117262 0.936057
O O2 0.250000 0.081665 0.000000
O O3 0.107748 0.122479 0.058238
O O4 0.111181 0.000000 0.000000
O O5 0.250000 0.500000 0.683674
O O6 0.113878 0.536596 0.736980
O O7 0.121303 0.397891 0.706409
O O8 0.107587 0.491967 0.620291
O O9 0.101329 0.657021 0.690383
O O10 0.102436 0.640807 0.818491
O O11 0.238948 0.642889 0.752046
O O12 0.879392 0.750000 0.095704
O O13 0.744890 0.667743 0.116018
O O14 0.883761 0.659880 0.184073
O O15 0.149497 0.750000 0.609531
O O16 0.147989 0.888662 0.580916
O O17 0.000000 0.820728 0.600028
O O18 0.608061 0.750000 0.108712
O O19 0.149119 0.750000 0.269502
O O20 0.354976 0.500000 0.500000
O O21 0.500000 0.448680 0.544599
#
# Coordination Sequence:
#
# PCOD9505125 Si02
#       8
#    16  16  16  16  16  16  16  16
#     4   9  16  21  28  44  69 101 137 175 207 243
#     4   9  18  29  45  68  89 114 146 182 216 254
#     4   9  16  26  41  60  85 112 141 174 216 263
#     4   8  14  23  33  45  68 104 140 170 207 252
#     4   9  16  27  45  67  88 109 137 172 210 256
#     4   9  15  22  33  48  70 102 136 169 208 255
#     4   9  16  26  41  59  84 115 145 178 216 257
#     4   9  18  33  50  67  91 121 147 173 210 256
#
# _framework density 20.698308000000001
#
# number of rings (size 3 to 8) (size 9 to 14) (size 15 to 20)
#    0.000    3.125    0.000    2.250    1.750    1.750 
#    0.000    0.625    0.000    1.125    0.000    5.250 
#    0.000    1.500    0.000    3.250    0.000    1.500 
#
# Total GULP energy -356432.966299 kJ/mol
# GULP energy per Si atom -5569.265098 kJ/mol
# Density = 2.065120 g / cm^3
# Si number density = 20.698308 Si / 1000 Ang^3
#
#
#
# Elastic Constant Matrix: (Units=GPa)
#
#
# Indices 1 2 3 4 5 6 
#
# 1 41.2282 3.4719 5.8606 0.0000 0.0000 0.0000
# 2 3.4719 199.0742 112.1248 0.0000 0.0000 0.0000
# 3 5.8606 112.1248 140.0939 0.0000 0.0000 0.0000
# 4 0.0000 0.0000 0.0000 19.7644 0.0000 0.0000
# 5 0.0000 0.0000 0.0000 0.0000 -2.0941 0.0000
# 6 0.0000 0.0000 0.0000 0.0000 0.0000 6.0698
#
#
#
# Elastic Compliance Matrix: (Units=1/GPa)
#
#
# Indices 1 2 3 4 5 6 
#
# 1 0.024408 0.000272 -0.001239 0.000000 0.000000 0.000000
# 2 0.000272 0.009149 -0.007334 0.000000 0.000000 0.000000
# 3 -0.001239 -0.007334 0.013060 0.000000 0.000000 0.000000
# 4 0.000000 0.000000 0.000000 0.050596 0.000000 0.000000
# 5 0.000000 0.000000 0.000000 0.000000 -0.477537 0.000000
# 6 0.000000 0.000000 0.000000 0.000000 0.000000 0.164751
#
#
# Mechanical properties :
#
#
# Convention : Reuss Voigt Hill
#
# Bulk Modulus (GPa) = 33.31577 69.25677 51.28627
# Shear Modulus (GPa) = -26.45988 22.01062 -2.22463
#
# Velocity S-wave (km/s) = -3.57929 3.26452 -1.03784
# Velocity P-wave (km/s) = 0.97517 6.90957 4.83690
#
# Compressibility (1/GPa) = 0.03001582
#
# Stress axis : x y z
#
# Youngs Moduli (GPa) = 40.96944 109.29835 76.57126
#
# Poissons Ratio (x) = -0.02973 0.09486
# Poissons Ratio (y) = -0.01115 0.56158
# Poissons Ratio (z) = 0.05075 0.80160
#
# Static dielectric constant tensor:
#      x y z
#    x 1.836940 0.000000 0.000000 
#    y 0.000000 1.766530 0.000000 
#    z 0.000000 0.000000 1.706410 
# 
# From -- ./inp_files/39428.got.cif
#   From: 2010.05.17/outbox.cif.g08.bks.cpg/sg67_20_cif.got.tgz:39428.got - 2010.06.03 18:28:57.
