data_PCOD9505959
_publ_section_title
;
Structure prediction by ZEFSAII (Michael W. Deem and Ramdas Pophale) SiO2 
 PCOD9505959
Probable space group: C C C A
;
_chemical_formula_sum "Si O2"
_cell_formula_units_Z 128
_cell_length_a 25.967660
_cell_length_b 12.727352
_cell_length_c 22.283822
_cell_angle_alpha 90.000000
_cell_angle_beta 90.000000
_cell_angle_gamma 90.000000
_cell_volume 7364.793131
_symmetry_space_group_name_H-M "C C C A"
_symmetry_group_IT_number 68
_space_group.IT_coordinate_system_code '2'
_symmetry_cell_setting 'orthorhombic'
loop_
_space_group_symop_operation_xyz
x,y,z
-x,1/2-y,z
x,1/2-y,1/2-z
-x,y,1/2-z
-x,-y,-z
x,1/2+y,-z
-x,1/2+y,1/2+z
x,-y,1/2+z
1/2+x,1/2+y,z
1/2-x,-y,z
1/2+x,-y,1/2-z
1/2-x,1/2+y,1/2-z
1/2-x,1/2-y,-z
1/2+x,y,-z
1/2-x,y,1/2+z
1/2+x,1/2-y,1/2+z
loop_
_atom_site_type_symbol
_atom_site_label
_atom_site_fract_x
_atom_site_fract_y
_atom_site_fract_z
Si Si1 0.695332 0.442618 0.175862
Si Si2 0.207491 0.247932 0.072333
Si Si3 0.939585 0.748786 0.594805
Si Si4 0.647159 0.194301 0.685741
Si Si5 0.376163 0.849562 0.504489
Si Si6 0.135703 0.560388 0.922196
Si Si7 0.808483 0.534155 0.315791
Si Si8 0.179327 0.230966 0.898465
O O1 0.750000 0.500000 0.163497
O O2 0.652675 0.514937 0.142768
O O3 0.691648 0.427880 0.246928
O O4 0.689298 0.329548 0.145406
O O5 0.191854 0.258697 0.142645
O O6 0.183142 0.134540 0.055873
O O7 0.267193 0.269271 0.064418
O O8 0.173050 0.334383 0.038909
O O9 0.906729 0.785692 0.652349
O O10 0.923854 0.821123 0.537858
O O11 0.913751 0.635495 0.581345
O O12 0.000000 0.750000 0.604411
O O13 0.649455 0.250000 0.750000
O O14 0.657688 0.070695 0.686316
O O15 0.366667 0.763995 0.557245
O O16 0.374569 0.962923 0.534474
O O17 0.750000 0.500000 0.331564
O O18 0.826394 0.624030 0.361567
#
# Coordination Sequence:
#
# PCOD9505959 Si02
#       8
#    16  16  16  16  16  16  16  16
#     4  10  19  31  53  77 114 159 189 213 265 340
#     4  10  19  33  50  76 112 152 186 222 265 333
#     4  10  23  42  61  81 104 139 193 252 299 334
#     4  10  21  36  56  81 116 146 186 232 284 335
#     4   9  21  34  53  77 107 142 184 237 283 336
#     4   9  18  36  55  79 108 145 186 227 281 341
#     4  11  21  30  50  81 115 154 184 228 267 325
#     4  11  20  33  47  80 114 153 197 216 263 332
#
# _framework density 17.379985999999999
#
# number of rings (size 3 to 8) (size 9 to 14) (size 15 to 20)
#    0.000    2.250    2.500    2.250    1.750    4.750 
#    0.000    0.000    0.000    0.000    0.000    0.000 
#    0.000    3.000    0.000    0.000    0.000    0.000 
#
# Total GULP energy -356952.862645 kJ/mol
# GULP energy per Si atom -5577.388479 kJ/mol
# Density = 1.734043 g / cm^3
# Si number density = 17.379986 Si / 1000 Ang^3
#
#
#
# Elastic Constant Matrix: (Units=GPa)
#
#
# Indices 1 2 3 4 5 6 
#
# 1 70.8361 20.8945 19.1935 0.0000 0.0000 0.0000
# 2 20.8945 105.4391 43.6896 0.0000 0.0000 0.0000
# 3 19.1935 43.6896 86.8418 0.0000 0.0000 0.0000
# 4 0.0000 0.0000 0.0000 27.3309 0.0000 0.0000
# 5 0.0000 0.0000 0.0000 0.0000 14.1087 0.0000
# 6 0.0000 0.0000 0.0000 0.0000 0.0000 10.7505
#
#
#
# Elastic Compliance Matrix: (Units=1/GPa)
#
#
# Indices 1 2 3 4 5 6 
#
# 1 0.015366 -0.002069 -0.002355 0.000000 0.000000 0.000000
# 2 -0.002069 0.012261 -0.005711 0.000000 0.000000 0.000000
# 3 -0.002355 -0.005711 0.014909 0.000000 0.000000 0.000000
# 4 0.000000 0.000000 0.000000 0.036589 0.000000 0.000000
# 5 0.000000 0.000000 0.000000 0.000000 0.070878 0.000000
# 6 0.000000 0.000000 0.000000 0.000000 0.000000 0.093019
#
#
# Mechanical properties :
#
#
# Convention : Reuss Voigt Hill
#
# Bulk Modulus (GPa) = 44.91409 47.85248 46.38329
# Shear Modulus (GPa) = 18.46978 22.39397 20.43187
#
# Velocity S-wave (km/s) = 3.26345 3.59345 3.43242
# Velocity P-wave (km/s) = 6.33235 6.69403 6.51570
#
# Compressibility (1/GPa) = 0.02226473
#
# Stress axis : x y z
#
# Youngs Moduli (GPa) = 65.08069 81.56253 67.07431
#
# Poissons Ratio (x) = 0.16876 0.15797
# Poissons Ratio (y) = 0.13466 0.38305
# Poissons Ratio (z) = 0.15327 0.46580
#
# Static dielectric constant tensor:
#      x y z
#    x 1.564570 0.000000 0.000000 
#    y 0.000000 1.618670 0.000000 
#    z 0.000000 0.000000 1.640830 
# 
# From -- ./inp_files/47362.got.cif
#   From: 2010.05.17/outbox.cif.g08.bks.cpg/sg68_24_cif.got.tgz:47362.got - 2010.06.03 18:57:09.
