data_PCOD9505441
_publ_section_title
;
Structure prediction by ZEFSAII (Michael W. Deem and Ramdas Pophale) SiO2 
 PCOD9505441
Probable space group: C C C A
;
_chemical_formula_sum "Si O2"
_cell_formula_units_Z 64
_cell_length_a 5.355998
_cell_length_b 14.402494
_cell_length_c 33.322199
_cell_angle_alpha 90.000000
_cell_angle_beta 90.000000
_cell_angle_gamma 90.000000
_cell_volume 2570.465403
_symmetry_space_group_name_H-M "C C C A"
_symmetry_group_IT_number 68
_space_group.IT_coordinate_system_code '2'
_symmetry_cell_setting 'orthorhombic'
loop_
_space_group_symop_operation_xyz
x,y,z
-x,1/2-y,z
x,1/2-y,1/2-z
-x,y,1/2-z
-x,-y,-z
x,1/2+y,-z
-x,1/2+y,1/2+z
x,-y,1/2+z
1/2+x,1/2+y,z
1/2-x,-y,z
1/2+x,-y,1/2-z
1/2-x,1/2+y,1/2-z
1/2-x,1/2-y,-z
1/2+x,y,-z
1/2-x,y,1/2+z
1/2+x,1/2-y,1/2+z
loop_
_atom_site_type_symbol
_atom_site_label
_atom_site_fract_x
_atom_site_fract_y
_atom_site_fract_z
Si Si1 0.069114 0.146414 0.362022
Si Si2 0.731735 0.856710 0.983875
Si Si3 0.064871 0.142559 0.607824
Si Si4 0.247650 0.612260 0.725968
O O1 0.287872 0.100910 0.388109
O O2 0.196504 0.150762 0.318350
O O3 0.000000 0.250000 0.376946
O O4 0.789684 0.104306 0.364298
O O5 0.661490 0.860328 0.937435
O O6 0.750000 0.750000 0.000000
O O7 0.502669 0.898030 0.008651
O O8 0.000000 0.250000 0.618226
O O9 0.500000 0.638815 0.750000
O O10 0.250000 0.500000 0.722082
O O11 0.000000 0.638417 0.750000
#
# Coordination Sequence:
#
# PCOD9505441 Si02
#       4
#    16  16  16  16
#     4  10  21  33  50  77 109 141 163 218 273 331
#     4  10  17  24  41  64  96 145 173 210 244 313
#     4  10  18  29  44  69 109 143 167 206 268 316
#     4  10  21  39  61  80 102 138 188 233 267 321
#
# _framework density 24.898216000000001
#
# number of rings (size 3 to 8) (size 9 to 14) (size 15 to 20)
#    0.000    2.000    2.500    3.000    7.000    0.500 
#    0.000    1.250    0.000    0.000    0.000    0.000 
#    0.000   20.000    0.000    0.000    0.000    0.000 
#
# Total GULP energy -178654.919351 kJ/mol
# GULP energy per Si atom -5582.966230 kJ/mol
# Density = 2.484155 g / cm^3
# Si number density = 24.898216 Si / 1000 Ang^3
#
#
#
# Elastic Constant Matrix: (Units=GPa)
#
#
# Indices 1 2 3 4 5 6 
#
# 1 299.6646 18.1060 81.5518 0.0000 0.0000 0.0000
# 2 18.1060 89.4258 -5.5658 0.0000 0.0000 0.0000
# 3 81.5518 -5.5658 142.9266 0.0000 0.0000 0.0000
# 4 0.0000 0.0000 0.0000 49.5553 0.0000 0.0000
# 5 0.0000 0.0000 0.0000 0.0000 58.8209 0.0000
# 6 0.0000 0.0000 0.0000 0.0000 0.0000 -28.8108
#
#
#
# Elastic Compliance Matrix: (Units=1/GPa)
#
#
# Indices 1 2 3 4 5 6 
#
# 1 0.004031 -0.000962 -0.002338 0.000000 0.000000 0.000000
# 2 -0.000962 0.011439 0.000994 0.000000 0.000000 0.000000
# 3 -0.002338 0.000994 0.008369 0.000000 0.000000 0.000000
# 4 0.000000 0.000000 0.000000 0.020179 0.000000 0.000000
# 5 0.000000 0.000000 0.000000 0.000000 0.017001 0.000000
# 6 0.000000 0.000000 0.000000 0.000000 0.000000 -0.034709
#
#
# Mechanical properties :
#
#
# Convention : Reuss Voigt Hill
#
# Bulk Modulus (GPa) = 52.00434 80.02232 66.01333
# Shear Modulus (GPa) = 133.93801 45.10809 89.52305
#
# Velocity S-wave (km/s) = 7.34241 4.26102 6.00280
# Velocity P-wave (km/s) = 9.63397 7.51119 8.63804
#
# Compressibility (1/GPa) = 0.01922917
#
# Stress axis : x y z
#
# Youngs Moduli (GPa) = 248.05536 87.41980 119.48627
#
# Poissons Ratio (x) = 0.08407 0.27932
# Poissons Ratio (y) = 0.23856 -0.11879
# Poissons Ratio (z) = 0.57988 -0.08691
#
# Static dielectric constant tensor:
#      x y z
#    x 2.111270 0.000000 0.000000 
#    y 0.000000 1.974070 0.000000 
#    z 0.000000 0.000000 1.974010 
# 
# From -- ./inp_files/48101.got.cif
#   From: 2010.05.17/outbox.cif.g08.bks.cpg/sg68_25_cif.got.tgz:48101.got - 2010.06.03 18:57:09.
