data_PCOD9505405
_publ_section_title
;
Structure prediction by ZEFSAII (Michael W. Deem and Ramdas Pophale) SiO2 
 PCOD9505405
Probable space group: C C C A
;
_chemical_formula_sum "Si O2"
_cell_formula_units_Z 56
_cell_length_a 23.148072
_cell_length_b 21.578196
_cell_length_c 5.417030
_cell_angle_alpha 90.000000
_cell_angle_beta 90.000000
_cell_angle_gamma 90.000000
_cell_volume 2705.772004
_symmetry_space_group_name_H-M "C C C A"
_symmetry_group_IT_number 68
_space_group.IT_coordinate_system_code '2'
_symmetry_cell_setting 'orthorhombic'
loop_
_space_group_symop_operation_xyz
x,y,z
-x,1/2-y,z
x,1/2-y,1/2-z
-x,y,1/2-z
-x,-y,-z
x,1/2+y,-z
-x,1/2+y,1/2+z
x,-y,1/2+z
1/2+x,1/2+y,z
1/2-x,-y,z
1/2+x,-y,1/2-z
1/2-x,1/2+y,1/2-z
1/2-x,1/2-y,-z
1/2+x,y,-z
1/2-x,y,1/2+z
1/2+x,1/2-y,1/2+z
loop_
_atom_site_type_symbol
_atom_site_label
_atom_site_fract_x
_atom_site_fract_y
_atom_site_fract_z
Si Si1 0.726804 0.679513 0.542430
Si Si2 0.876043 0.750000 0.250000
Si Si3 0.537133 0.167683 0.995428
Si Si4 0.933378 0.025699 0.491076
O O1 0.750000 0.750000 0.500000
O O2 0.738235 0.650679 0.273482
O O3 0.662249 0.694505 0.633077
O O4 0.914848 0.780649 0.039834
O O5 0.500000 0.167857 0.250000
O O6 0.500000 0.177788 0.750000
O O7 0.563746 0.099262 0.972863
O O8 0.906336 0.003714 0.747190
O O9 0.000000 0.000000 0.500000
#
# Coordination Sequence:
#
# PCOD9505405 Si02
#       4
#    16   8  16  16
#     4   8  16  33  54  68  90 129 168 214 255 304
#     4  10  23  34  48  76 112 132 171 204 266 336
#     4  12  23  34  48  72 106 149 168 205 255 306
#     4  10  16  33  54  64  84 131 189 222 234 267
#
# _framework density 20.696497999999998
#
# number of rings (size 3 to 8) (size 9 to 14) (size 15 to 20)
#    0.000    2.286    5.714    0.429    0.000   11.429 
#    0.000    0.000    0.000    0.000    0.000    0.000 
#    0.000   61.714    0.000    0.000    0.000    0.000 
#
# Total GULP energy -156126.683133 kJ/mol
# GULP energy per Si atom -5575.952969 kJ/mol
# Density = 2.064939 g / cm^3
# Si number density = 20.696498 Si / 1000 Ang^3
#
#
#
# Elastic Constant Matrix: (Units=GPa)
#
#
# Indices 1 2 3 4 5 6 
#
# 1 53.2992 24.8509 53.1680 0.0000 0.0000 0.0000
# 2 24.8509 78.0698 34.0563 0.0000 0.0000 0.0000
# 3 53.1680 34.0563 239.9553 0.0000 0.0000 0.0000
# 4 0.0000 0.0000 0.0000 24.7518 0.0000 0.0000
# 5 0.0000 0.0000 0.0000 0.0000 22.9656 0.0000
# 6 0.0000 0.0000 0.0000 0.0000 0.0000 -8.0409
#
#
#
# Elastic Compliance Matrix: (Units=1/GPa)
#
#
# Indices 1 2 3 4 5 6 
#
# 1 0.026717 -0.006313 -0.005024 0.000000 0.000000 0.000000
# 2 -0.006313 0.015146 -0.000751 0.000000 0.000000 0.000000
# 3 -0.005024 -0.000751 0.005387 0.000000 0.000000 0.000000
# 4 0.000000 0.000000 0.000000 0.040401 0.000000 0.000000
# 5 0.000000 0.000000 0.000000 0.000000 0.043543 0.000000
# 6 0.000000 0.000000 0.000000 0.000000 0.000000 -0.124364
#
#
# Mechanical properties :
#
#
# Convention : Reuss Voigt Hill
#
# Bulk Modulus (GPa) = 43.33700 66.16385 54.75042
# Shear Modulus (GPa) = 129.20627 25.21856 77.21241
#
# Velocity S-wave (km/s) = 7.90978 3.49448 6.11457
# Velocity P-wave (km/s) = 10.21784 6.95125 8.73854
#
# Compressibility (1/GPa) = 0.02307497
#
# Stress axis : x y z
#
# Youngs Moduli (GPa) = 37.42955 66.02354 185.62654
#
# Poissons Ratio (x) = 0.41680 0.93255
# Poissons Ratio (y) = 0.23629 0.13938
# Poissons Ratio (z) = 0.18804 0.04958
#
# Static dielectric constant tensor:
#      x y z
#    x 1.811590 0.000000 0.000000 
#    y 0.000000 1.970750 0.000000 
#    z 0.000000 0.000000 2.150100 
# 
# From -- ./inp_files/1842.got.cif
#   From: 2010.05.17/outbox.cif.g08.bks.cpg/sg68_1_cif.got.tgz:1842.got - 2010.06.03 18:57:09.
