data_PCOD9505466
_publ_section_title
;
Structure prediction by ZEFSAII (Michael W. Deem and Ramdas Pophale) SiO2 
 PCOD9505466
Probable space group: C C C A
;
_chemical_formula_sum "Si O2"
_cell_formula_units_Z 128
_cell_length_a 24.429033
_cell_length_b 11.058249
_cell_length_c 19.254681
_cell_angle_alpha 90.000000
_cell_angle_beta 90.000000
_cell_angle_gamma 90.000000
_cell_volume 5201.504384
_symmetry_space_group_name_H-M "C C C A"
_symmetry_group_IT_number 68
_space_group.IT_coordinate_system_code '2'
_symmetry_cell_setting 'orthorhombic'
loop_
_space_group_symop_operation_xyz
x,y,z
-x,1/2-y,z
x,1/2-y,1/2-z
-x,y,1/2-z
-x,-y,-z
x,1/2+y,-z
-x,1/2+y,1/2+z
x,-y,1/2+z
1/2+x,1/2+y,z
1/2-x,-y,z
1/2+x,-y,1/2-z
1/2-x,1/2+y,1/2-z
1/2-x,1/2-y,-z
1/2+x,y,-z
1/2-x,y,1/2+z
1/2+x,1/2-y,1/2+z
loop_
_atom_site_type_symbol
_atom_site_label
_atom_site_fract_x
_atom_site_fract_y
_atom_site_fract_z
Si Si1 0.435532 0.273451 0.362542
Si Si2 0.555820 0.281738 0.878767
Si Si3 0.718299 0.386529 0.668807
Si Si4 0.905623 0.461046 0.149190
Si Si5 0.716048 0.608609 0.328202
Si Si6 0.143215 0.782230 0.002159
Si Si7 0.642503 0.032845 0.998739
Si Si8 0.900082 0.516153 0.347988
O O1 0.500000 0.250000 0.375882
O O2 0.427832 0.407712 0.329607
O O3 0.397622 0.280634 0.431717
O O4 0.413425 0.152082 0.323503
O O5 0.500000 0.250000 0.917746
O O6 0.564829 0.163907 0.831168
O O7 0.554707 0.411366 0.841342
O O8 0.605228 0.285994 0.933730
O O9 0.750000 0.500000 0.635118
O O10 0.656538 0.435049 0.670194
O O11 0.719342 0.246282 0.642941
O O12 0.737485 0.378774 0.749090
O O13 0.900412 0.464326 0.064879
O O14 0.750000 0.500000 0.363499
O O15 0.655169 0.551771 0.323900
O O16 0.174514 0.907876 0.005126
O O17 0.175170 0.657225 0.999181
O O18 0.608447 0.032777 0.069450
#
# Coordination Sequence:
#
# PCOD9505466 Si02
#       8
#    16  16  16  16  16  16  16  16
#     4  10  19  30  48  78 116 153 187 219 257 311
#     4  10  17  28  50  76 108 151 189 221 263 315
#     4  10  22  41  65  87 103 129 178 235 286 331
#     4  10  19  34  53  80 115 147 181 226 268 318
#     4  10  22  41  65  87 103 129 178 235 286 331
#     4   8  15  26  42  70 105 146 191 226 254 294
#     4   8  16  28  48  74 110 148 178 214 266 320
#     4  10  19  34  53  80 115 147 181 226 268 318
#
# _framework density 24.608264999999999
#
# number of rings (size 3 to 8) (size 9 to 14) (size 15 to 20)
#    0.000    2.500    1.250    1.125    1.750    0.000 
#    0.000    8.125    0.000    6.000    0.000    0.000 
#    0.000    0.000    0.000    0.000    0.000    0.000 
#
# Total GULP energy -356307.305799 kJ/mol
# GULP energy per Si atom -5567.301653 kJ/mol
# Density = 2.455226 g / cm^3
# Si number density = 24.608265 Si / 1000 Ang^3
#
#
#
# Elastic Constant Matrix: (Units=GPa)
#
#
# Indices 1 2 3 4 5 6 
#
# 1 37.2142 29.1750 -1.9853 0.0000 0.0000 0.0000
# 2 29.1750 334.6813 8.7779 0.0000 0.0000 0.0000
# 3 -1.9853 8.7779 63.6529 0.0000 0.0000 0.0000
# 4 0.0000 0.0000 0.0000 0.1211 0.0000 0.0000
# 5 0.0000 0.0000 0.0000 0.0000 17.3757 0.0000
# 6 0.0000 0.0000 0.0000 0.0000 0.0000 29.4200
#
#
#
# Elastic Compliance Matrix: (Units=1/GPa)
#
#
# Indices 1 2 3 4 5 6 
#
# 1 0.028942 -0.002556 0.001255 0.000000 0.000000 0.000000
# 2 -0.002556 0.003224 -0.000524 0.000000 0.000000 0.000000
# 3 0.001255 -0.000524 0.015822 0.000000 0.000000 0.000000
# 4 0.000000 0.000000 0.000000 8.254314 0.000000 0.000000
# 5 0.000000 0.000000 0.000000 0.000000 0.057552 0.000000
# 6 0.000000 0.000000 0.000000 0.000000 0.000000 0.033990
#
#
# Mechanical properties :
#
#
# Convention : Reuss Voigt Hill
#
# Bulk Modulus (GPa) = 22.55398 56.38706 39.47052
# Shear Modulus (GPa) = 0.59437 36.02210 18.30823
#
# Velocity S-wave (km/s) = 0.49199 3.83014 2.73057
# Velocity P-wave (km/s) = 3.08348 6.52101 5.10056
#
# Compressibility (1/GPa) = 0.04433808
#
# Stress axis : x y z
#
# Youngs Moduli (GPa) = 34.55170 310.12831 63.20449
#
# Poissons Ratio (x) = 0.79265 -0.07933
# Poissons Ratio (y) = 0.08831 0.03314
# Poissons Ratio (z) = -0.04337 0.16263
#
# Static dielectric constant tensor:
#      x y z
#    x 1.988660 0.000000 0.000000 
#    y 0.000000 2.090870 0.000000 
#    z 0.000000 0.000000 2.017430 
# 
# From -- ./inp_files/47075.got.cif
#   From: 2010.05.17/outbox.cif.g08.bks.cpg/sg68_24_cif.got.tgz:47075.got - 2010.06.03 18:57:09.
