data_PCOD9505801
_publ_section_title
;
Structure prediction by ZEFSAII (Michael W. Deem and Ramdas Pophale) SiO2 
 PCOD9505801
Probable space group: C C C A
;
_chemical_formula_sum "Si O2"
_cell_formula_units_Z 116
_cell_length_a 28.931063
_cell_length_b 9.832835
_cell_length_c 21.753322
_cell_angle_alpha 90.000000
_cell_angle_beta 90.000000
_cell_angle_gamma 90.000000
_cell_volume 6188.262546
_symmetry_space_group_name_H-M "C C C A"
_symmetry_group_IT_number 68
_space_group.IT_coordinate_system_code '2'
_symmetry_cell_setting 'orthorhombic'
loop_
_space_group_symop_operation_xyz
x,y,z
-x,1/2-y,z
x,1/2-y,1/2-z
-x,y,1/2-z
-x,-y,-z
x,1/2+y,-z
-x,1/2+y,1/2+z
x,-y,1/2+z
1/2+x,1/2+y,z
1/2-x,-y,z
1/2+x,-y,1/2-z
1/2-x,1/2+y,1/2-z
1/2-x,1/2-y,-z
1/2+x,y,-z
1/2-x,y,1/2+z
1/2+x,1/2-y,1/2+z
loop_
_atom_site_type_symbol
_atom_site_label
_atom_site_fract_x
_atom_site_fract_y
_atom_site_fract_z
Si Si1 0.173528 0.263357 0.823285
Si Si2 0.720844 0.266563 0.676379
Si Si3 0.551522 0.212156 0.507843
Si Si4 0.000000 0.750000 0.750000
Si Si5 0.361615 0.542816 0.361636
Si Si6 0.387697 0.038779 0.499988
Si Si7 0.841150 0.464843 0.376215
Si Si8 0.927099 0.217011 0.152377
O O1 0.171493 0.250000 0.750000
O O2 0.226539 0.297235 0.841344
O O3 0.140370 0.385456 0.843983
O O4 0.163214 0.116491 0.851409
O O5 0.719714 0.250000 0.750000
O O6 0.684989 0.385361 0.661271
O O7 0.702012 0.130388 0.642379
O O8 0.500000 0.250000 0.488030
O O9 0.589044 0.318634 0.481895
O O10 0.554147 0.219158 0.582490
O O11 0.569305 0.063577 0.490257
O O12 0.034616 0.821932 0.797904
O O13 0.363165 0.557150 0.435118
O O14 0.404289 0.633883 0.336392
O O15 0.354178 0.977211 0.448254
O O16 0.884845 0.388007 0.346249
#
# Coordination Sequence:
#
# PCOD9505801 Si02
#       8
#    16  16  16   4  16  16  16  16
#     4  11  22  35  57  84 116 144 182 228 281 335
#     4  10  21  38  59  83 108 147 194 229 260 333
#     4  10  18  36  54  81 103 141 185 232 274 322
#     4  12  20  36  60  86 108 144 204 234 258 320
#     4  10  21  38  57  82 113 149 182 227 285 325
#     4  10  21  36  57  78 110 144 186 226 277 337
#     4  10  21  38  57  82 113 149 182 227 285 325
#     4   9  22  34  59  82 110 145 190 229 269 325
#
# _framework density 18.745165
#
# number of rings (size 3 to 8) (size 9 to 14) (size 15 to 20)
#    0.000    1.931    0.690    3.724    5.793    2.207 
#    0.000    4.138    0.000    0.828    0.000    0.000 
#    0.000    0.000    0.000    0.000    0.000    0.000 
#
# Total GULP energy -323589.794475 kJ/mol
# GULP energy per Si atom -5579.134388 kJ/mol
# Density = 1.870250 g / cm^3
# Si number density = 18.745165 Si / 1000 Ang^3
#
#
#
# Elastic Constant Matrix: (Units=GPa)
#
#
# Indices 1 2 3 4 5 6 
#
# 1 52.2196 -2.4792 18.6062 0.0000 0.0000 0.0000
# 2 -2.4792 77.8912 -3.3204 0.0000 0.0000 0.0000
# 3 18.6062 -3.3204 49.2431 0.0000 0.0000 0.0000
# 4 0.0000 0.0000 0.0000 16.4038 0.0000 0.0000
# 5 0.0000 0.0000 0.0000 0.0000 -81.8773 0.0000
# 6 0.0000 0.0000 0.0000 0.0000 0.0000 3.4471
#
#
#
# Elastic Compliance Matrix: (Units=1/GPa)
#
#
# Indices 1 2 3 4 5 6 
#
# 1 0.022139 0.000349 -0.008341 0.000000 0.000000 0.000000
# 2 0.000349 0.012881 0.000737 0.000000 0.000000 0.000000
# 3 -0.008341 0.000737 0.023509 0.000000 0.000000 0.000000
# 4 0.000000 0.000000 0.000000 0.060962 0.000000 0.000000
# 5 0.000000 0.000000 0.000000 0.000000 -0.012213 0.000000
# 6 0.000000 0.000000 0.000000 0.000000 0.000000 0.290097
#
#
# Mechanical properties :
#
#
# Convention : Reuss Voigt Hill
#
# Bulk Modulus (GPa) = 22.71850 22.77413 22.74631
# Shear Modulus (GPa) = 11.72175 -1.30212 5.20981
#
# Velocity S-wave (km/s) = 2.50336 -0.83436 1.66893
# Velocity P-wave (km/s) = 4.52788 3.35373 3.98429
#
# Compressibility (1/GPa) = 0.04401699
#
# Stress axis : x y z
#
# Youngs Moduli (GPa) = 45.17006 77.63415 42.53722
#
# Poissons Ratio (x) = -0.02710 0.35482
# Poissons Ratio (y) = -0.01577 -0.03134
# Poissons Ratio (z) = 0.37678 -0.05719
#
# Static dielectric constant tensor:
#      x y z
#    x 1.655520 0.000000 0.000000 
#    y 0.000000 1.643840 0.000000 
#    z 0.000000 0.000000 1.641750 
# 
# From -- ./inp_files/47581.got.cif
#   From: 2010.05.17/outbox.cif.g08.bks.cpg/sg68_24_cif.got.tgz:47581.got - 2010.06.03 18:57:09.
