data_PCOD9505468
_publ_section_title
;
Structure prediction by ZEFSAII (Michael W. Deem and Ramdas Pophale) SiO2 
 PCOD9505468
Probable space group: C C C A
;
_chemical_formula_sum "Si O2"
_cell_formula_units_Z 80
_cell_length_a 8.014029
_cell_length_b 13.275339
_cell_length_c 27.580311
_cell_angle_alpha 90.000000
_cell_angle_beta 90.000000
_cell_angle_gamma 90.000000
_cell_volume 2934.240376
_symmetry_space_group_name_H-M "C C C A"
_symmetry_group_IT_number 68
_space_group.IT_coordinate_system_code '2'
_symmetry_cell_setting 'orthorhombic'
loop_
_space_group_symop_operation_xyz
x,y,z
-x,1/2-y,z
x,1/2-y,1/2-z
-x,y,1/2-z
-x,-y,-z
x,1/2+y,-z
-x,1/2+y,1/2+z
x,-y,1/2+z
1/2+x,1/2+y,z
1/2-x,-y,z
1/2+x,-y,1/2-z
1/2-x,1/2+y,1/2-z
1/2-x,1/2-y,-z
1/2+x,y,-z
1/2-x,y,1/2+z
1/2+x,1/2-y,1/2+z
loop_
_atom_site_type_symbol
_atom_site_label
_atom_site_fract_x
_atom_site_fract_y
_atom_site_fract_z
Si Si1 0.828435 0.205860 0.070919
Si Si2 0.066460 0.940986 0.128221
Si Si3 0.144446 0.399185 0.973571
Si Si4 0.740170 0.757705 0.827851
Si Si5 0.052235 0.904430 0.800834
O O1 0.734159 0.298405 0.045200
O O2 0.738018 0.193240 0.121702
O O3 0.000000 0.250000 0.089645
O O4 0.886964 0.127946 0.029641
O O5 0.019679 0.918135 0.071656
O O6 0.100245 0.842029 0.161151
O O7 0.250000 0.000000 0.124742
O O8 0.945184 0.015311 0.156197
O O9 0.250000 0.500000 0.976508
O O10 0.898389 0.831131 0.816203
O O11 0.783434 0.664643 0.792263
O O12 0.000000 0.953003 0.750000
#
# Coordination Sequence:
#
# PCOD9505468 Si02
#       5
#    16  16  16  16  16
#     4  10  18  31  51  78 106 144 188 217 269 349
#     4   8  16  30  47  73 107 138 173 231 279 322
#     4   9  19  32  48  76 111 145 179 224 279 329
#     4   9  16  29  48  75 109 133 174 235 279 314
#     4  10  17  28  51  81  97 130 192 228 267 341
#
# _framework density 27.264295000000001
#
# number of rings (size 3 to 8) (size 9 to 14) (size 15 to 20)
#    0.000    2.800    2.000    2.400    0.000    0.800 
#    0.000    0.000    0.000    6.000   31.200    0.000 
#    0.000    0.000    0.000    0.000    0.000    0.000 
#
# Total GULP energy -222861.604329 kJ/mol
# GULP energy per Si atom -5571.540108 kJ/mol
# Density = 2.720224 g / cm^3
# Si number density = 27.264295 Si / 1000 Ang^3
#
#
#
# Elastic Constant Matrix: (Units=GPa)
#
#
# Indices 1 2 3 4 5 6 
#
# 1 54.0484 17.6936 17.8943 0.0000 0.0000 0.0000
# 2 17.6936 121.6635 46.0802 0.0000 0.0000 0.0000
# 3 17.8943 46.0802 136.4802 0.0000 0.0000 0.0000
# 4 0.0000 0.0000 0.0000 80.3361 0.0000 0.0000
# 5 0.0000 0.0000 0.0000 0.0000 36.0104 0.0000
# 6 0.0000 0.0000 0.0000 0.0000 0.0000 47.3608
#
#
#
# Elastic Compliance Matrix: (Units=1/GPa)
#
#
# Indices 1 2 3 4 5 6 
#
# 1 0.019832 -0.002178 -0.001865 0.000000 0.000000 0.000000
# 2 -0.002178 0.009664 -0.002977 0.000000 0.000000 0.000000
# 3 -0.001865 -0.002977 0.008577 0.000000 0.000000 0.000000
# 4 0.000000 0.000000 0.000000 0.012448 0.000000 0.000000
# 5 0.000000 0.000000 0.000000 0.000000 0.027770 0.000000
# 6 0.000000 0.000000 0.000000 0.000000 0.000000 0.021115
#
#
# Mechanical properties :
#
#
# Convention : Reuss Voigt Hill
#
# Bulk Modulus (GPa) = 41.60989 52.83647 47.22318
# Shear Modulus (GPa) = 41.16717 48.10973 44.63845
#
# Velocity S-wave (km/s) = 3.89000 4.20523 4.05068
# Velocity P-wave (km/s) = 5.95575 6.55745 6.26382
#
# Compressibility (1/GPa) = 0.02403275
#
# Stress axis : x y z
#
# Youngs Moduli (GPa) = 50.42265 103.47934 116.59346
#
# Poissons Ratio (x) = 0.22537 0.21744
# Poissons Ratio (y) = 0.10981 0.34713
# Poissons Ratio (z) = 0.09404 0.30808
#
# Static dielectric constant tensor:
#      x y z
#    x 2.259320 0.000000 0.000000 
#    y 0.000000 2.144600 0.000000 
#    z 0.000000 0.000000 2.182050 
# 
# From -- ./inp_files/44080.got.cif
#   From: 2010.05.17/outbox.cif.g08.bks.cpg/sg68_23_cif.got.tgz:44080.got - 2010.06.03 18:57:09.
