data_PCOD9505603
_publ_section_title
;
Structure prediction by ZEFSAII (Michael W. Deem and Ramdas Pophale) SiO2 
 PCOD9505603
Probable space group: C C C A
;
_chemical_formula_sum "Si O2"
_cell_formula_units_Z 88
_cell_length_a 37.200480
_cell_length_b 5.549647
_cell_length_c 18.323592
_cell_angle_alpha 90.000000
_cell_angle_beta 90.000000
_cell_angle_gamma 90.000000
_cell_volume 3782.896997
_symmetry_space_group_name_H-M "C C C A"
_symmetry_group_IT_number 68
_space_group.IT_coordinate_system_code '2'
_symmetry_cell_setting 'orthorhombic'
loop_
_space_group_symop_operation_xyz
x,y,z
-x,1/2-y,z
x,1/2-y,1/2-z
-x,y,1/2-z
-x,-y,-z
x,1/2+y,-z
-x,1/2+y,1/2+z
x,-y,1/2+z
1/2+x,1/2+y,z
1/2-x,-y,z
1/2+x,-y,1/2-z
1/2-x,1/2+y,1/2-z
1/2-x,1/2-y,-z
1/2+x,y,-z
1/2-x,y,1/2+z
1/2+x,1/2-y,1/2+z
loop_
_atom_site_type_symbol
_atom_site_label
_atom_site_fract_x
_atom_site_fract_y
_atom_site_fract_z
Si Si1 0.594464 0.180151 0.995176
Si Si2 0.829046 0.020851 0.338042
Si Si3 0.142999 0.027576 0.828625
Si Si4 0.250000 0.000000 0.204090
Si Si5 0.963281 0.169558 0.368457
Si Si6 0.939079 0.344695 0.847723
O O1 0.566685 0.167977 0.063866
O O2 0.614918 0.430014 0.000835
O O3 0.570518 0.175232 0.922956
O O4 0.839402 0.757740 0.368079
O O5 0.839944 0.998115 0.252002
O O6 0.849937 0.262600 0.362626
O O7 0.786324 0.049372 0.340555
O O8 0.101585 0.108035 0.821211
O O9 0.255886 0.250000 0.250000
O O10 0.959010 0.414044 0.322208
O O11 0.000000 0.250000 0.409174
O O12 0.958974 0.907128 0.332304
#
# Coordination Sequence:
#
# PCOD9505603 Si02
#       6
#    16  16  16   8  16  16
#     4   8  16  27  41  61  86 115 142 178 229 278
#     4  10  19  30  48  69  93 128 147 181 219 269
#     4  10  18  30  43  66  94 122 156 176 222 272
#     4  12  16  30  48  74  98 120 154 178 222 276
#     4  10  19  31  46  66  90 118 150 191 246 289
#     4  10  19  29  44  65  90 120 150 191 223 282
#
# _framework density 23.262595999999998
#
# number of rings (size 3 to 8) (size 9 to 14) (size 15 to 20)
#    0.000    2.182    3.636    1.636    0.000    6.545 
#    0.000    0.000    0.000    0.000    0.000   38.182 
#    0.000    0.000    0.000  250.364    0.000    0.000 
#
# Total GULP energy -245012.510785 kJ/mol
# GULP energy per Si atom -5568.466154 kJ/mol
# Density = 2.320965 g / cm^3
# Si number density = 23.262596 Si / 1000 Ang^3
#
#
#
# Elastic Constant Matrix: (Units=GPa)
#
#
# Indices 1 2 3 4 5 6 
#
# 1 109.2190 40.8955 -7.8684 0.0000 0.0000 0.0000
# 2 40.8955 315.2967 18.9130 0.0000 0.0000 0.0000
# 3 -7.8684 18.9130 43.4299 0.0000 0.0000 0.0000
# 4 0.0000 0.0000 0.0000 10.6823 0.0000 0.0000
# 5 0.0000 0.0000 0.0000 0.0000 8.2874 0.0000
# 6 0.0000 0.0000 0.0000 0.0000 0.0000 28.7163
#
#
#
# Elastic Compliance Matrix: (Units=1/GPa)
#
#
# Indices 1 2 3 4 5 6 
#
# 1 0.009862 -0.001424 0.002407 0.000000 0.000000 0.000000
# 2 -0.001424 0.003462 -0.001766 0.000000 0.000000 0.000000
# 3 0.002407 -0.001766 0.024231 0.000000 0.000000 0.000000
# 4 0.000000 0.000000 0.000000 0.093613 0.000000 0.000000
# 5 0.000000 0.000000 0.000000 0.000000 0.120666 0.000000
# 6 0.000000 0.000000 0.000000 0.000000 0.000000 0.034823
#
#
# Mechanical properties :
#
#
# Convention : Reuss Voigt Hill
#
# Bulk Modulus (GPa) = 27.78539 63.53620 45.66080
# Shear Modulus (GPa) = 16.65454 37.27090 26.96272
#
# Velocity S-wave (km/s) = 2.67860 4.00707 3.40819
# Velocity P-wave (km/s) = 4.64077 6.98432 5.92948
#
# Compressibility (1/GPa) = 0.03599013
#
# Stress axis : x y z
#
# Youngs Moduli (GPa) = 101.39590 288.83626 41.27024
#
# Poissons Ratio (x) = 0.41118 -0.09933
# Poissons Ratio (y) = 0.14434 0.07287
# Poissons Ratio (z) = -0.24403 0.50998
#
# Static dielectric constant tensor:
#      x y z
#    x 1.914550 0.000000 0.000000 
#    y 0.000000 2.082990 0.000000 
#    z 0.000000 0.000000 1.931500 
# 
# From -- ./inp_files/56235.got.cif
#   From: 2010.05.17/outbox.cif.g08.bks.cpg/sg68_29_cif.got.tgz:56235.got - 2010.06.03 18:57:09.
