data_PCOD9505284
_publ_section_title
;
Structure prediction by ZEFSAII (Michael W. Deem and Ramdas Pophale) SiO2 
 PCOD9505284
Probable space group: C M M A
;
_chemical_formula_sum "Si O2"
_cell_formula_units_Z 58
_cell_length_a 24.000000
_cell_length_b 15.000000
_cell_length_c 18.000000
_cell_angle_alpha 90.000000
_cell_angle_beta 90.000000
_cell_angle_gamma 90.000000
_cell_volume 6480.000000
_symmetry_space_group_name_H-M "C M M A"
_symmetry_group_IT_number 67
_symmetry_cell_setting 'orthorhombic'
loop_
_space_group_symop_operation_xyz
x,y,z
-x,1/2-y,z
x,-y,-z
-x,1/2+y,-z
-x,-y,-z
x,1/2+y,-z
-x,y,z
x,1/2-y,z
1/2+x,1/2+y,z
1/2-x,-y,z
1/2+x,1/2-y,-z
1/2-x,y,-z
1/2-x,1/2-y,-z
1/2+x,y,-z
1/2-x,1/2+y,z
1/2+x,-y,z
loop_
_atom_site_type_symbol
_atom_site_label
_atom_site_fract_x
_atom_site_fract_y
_atom_site_fract_z
Si Si1 0.184702 0.641882 0.506798
Si Si2 0.500000 0.750000 0.934901
Si Si3 0.933035 0.992216 0.245434
Si Si4 0.415748 0.570835 0.929724
Si Si5 0.245675 0.606508 0.239114
Si Si6 0.361228 0.145331 0.342414
Si Si7 0.358711 0.645974 0.325366
Si Si8 0.709561 0.855988 0.930981
O O1 0.185424 0.750000 0.507086
O O2 0.250000 0.612841 0.500000
O O3 0.153347 0.616731 0.428547
O O4 0.157443 0.617708 0.588176
O O5 0.451310 0.665588 0.934367
O O6 0.923808 0.971349 0.155420
O O7 0.906750 0.912834 0.296817
O O8 0.000000 0.998943 0.254901
O O9 0.901253 0.079453 0.281101
O O10 0.350068 0.594871 0.935028
O O11 0.428449 0.500000 0.000000
O O12 0.250000 0.500000 0.243172
O O13 0.194395 0.636549 0.291540
O O14 0.301973 0.643212 0.276603
O O15 0.235530 0.629979 0.152097
O O16 0.377034 0.250000 0.344982
O O17 0.377870 0.750000 0.328375
O O18 0.700107 0.750000 0.939039
O O19 0.750000 0.883071 0.000000
#
# Coordination Sequence:
#
# PCOD9505284 Si02
#       8
#    16   4  16  16  16  16  16  16
#     4   9  18  35  64 100 136 176 220 275 349 425
#     4  12  26  52  82  98 132 190 230 296 330 380
#     4  12  28  47  68  96 131 180 238 284 329 395
#     4  12  27  49  74 105 136 176 234 286 334 403
#     4  12  22  38  63 100 138 175 219 278 342 417
#     4  11  22  39  67 101 134 171 227 288 344 407
#     4  11  23  43  66  98 140 180 225 281 349 414
#     4  11  25  41  64 101 139 178 214 268 354 420
#
# _framework density 8.9506169999999994
#
# number of rings (size 3 to 8) (size 9 to 14) (size 15 to 20)
#    0.000    0.828    5.517    1.448    4.828    1.103 
#    1.241    2.759    0.000    2.483    0.000    0.000 
#    0.000    0.000    0.000    0.000    0.000    0.000 
#
# Total GULP energy -322928.336237 kJ/mol
# GULP energy per Si atom -5567.729935 kJ/mol
# Density = 0.893025 g / cm^3
# Si number density = 8.950617 Si / 1000 Ang^3
#
#
#
# Elastic Constant Matrix: (Units=GPa)
#
#
# Indices 1 2 3 4 5 6 
#
# 1 152.6858 42.0890 68.4739 0.0000 0.0000 0.0000
# 2 42.0890 126.3341 49.0119 0.0000 0.0000 0.0000
# 3 68.4739 49.0119 189.6520 0.0000 0.0000 0.0000
# 4 0.0000 0.0000 0.0000 34.9922 0.0000 0.0000
# 5 0.0000 0.0000 0.0000 0.0000 31.3420 0.0000
# 6 0.0000 0.0000 0.0000 0.0000 0.0000 28.3360
#
#
#
# Elastic Compliance Matrix: (Units=1/GPa)
#
#
# Indices 1 2 3 4 5 6 
#
# 1 0.008148 -0.001749 -0.002490 0.000000 0.000000 0.000000
# 2 -0.001749 0.009173 -0.001739 0.000000 0.000000 0.000000
# 3 -0.002490 -0.001739 0.006621 0.000000 0.000000 0.000000
# 4 0.000000 0.000000 0.000000 0.028578 0.000000 0.000000
# 5 0.000000 0.000000 0.000000 0.000000 0.031906 0.000000
# 6 0.000000 0.000000 0.000000 0.000000 0.000000 0.035291
#
#
# Mechanical properties :
#
#
# Convention : Reuss Voigt Hill
#
# Bulk Modulus (GPa) = 83.42631 87.53573 85.48102
# Shear Modulus (GPa) = 36.85470 39.54051 38.19760
#
# Velocity S-wave (km/s) = 4.54230 4.70490 4.62432
# Velocity P-wave (km/s) = 8.61480 8.86116 8.73885
#
# Compressibility (1/GPa) = 0.01198663
#
# Stress axis : x y z
#
# Youngs Moduli (GPa) = 122.72846 109.01785 151.02801
#
# Poissons Ratio (x) = 0.19063 0.37606
# Poissons Ratio (y) = 0.21460 0.26267
# Poissons Ratio (z) = 0.30559 0.18960
#
# Static dielectric constant tensor:
#      x y z
#    x 1.619380 0.000000 0.000000 
#    y 0.000000 1.663740 0.000000 
#    z 0.000000 0.000000 1.625120 
# 
# From -- ./inp_files/35559.got.cif
#   From: 2010.05.17/outbox.ucp.g08.bks.cvg/sg67_18_cif.got.tgz:35559.got - 2010.06.11 16:47:20.
