data_PCOD9505354
_publ_section_title
;
Structure prediction by ZEFSAII (Michael W. Deem and Ramdas Pophale) SiO2 
 PCOD9505354
Probable space group: C C C A
;
_chemical_formula_sum "Si O2"
_cell_formula_units_Z 84
_cell_length_a 14.511605
_cell_length_b 9.869286
_cell_length_c 25.281003
_cell_angle_alpha 90.000000
_cell_angle_beta 90.000000
_cell_angle_gamma 90.000000
_cell_volume 3620.724521
_symmetry_space_group_name_H-M "C C C A"
_symmetry_group_IT_number 68
_space_group.IT_coordinate_system_code '2'
_symmetry_cell_setting 'orthorhombic'
loop_
_space_group_symop_operation_xyz
x,y,z
-x,1/2-y,z
x,1/2-y,1/2-z
-x,y,1/2-z
-x,-y,-z
x,1/2+y,-z
-x,1/2+y,1/2+z
x,-y,1/2+z
1/2+x,1/2+y,z
1/2-x,-y,z
1/2+x,-y,1/2-z
1/2-x,1/2+y,1/2-z
1/2-x,1/2-y,-z
1/2+x,y,-z
1/2-x,y,1/2+z
1/2+x,1/2-y,1/2+z
loop_
_atom_site_type_symbol
_atom_site_label
_atom_site_fract_x
_atom_site_fract_y
_atom_site_fract_z
Si Si1 0.214542 0.152587 0.417316
Si Si2 0.717990 0.227327 0.188857
Si Si3 0.937348 0.507946 0.296813
Si Si4 0.435609 0.117310 0.124187
Si Si5 0.000000 0.750000 0.750000
Si Si6 0.670387 0.385066 0.024975
O O1 0.207303 0.210352 0.358190
O O2 0.290039 0.248668 0.446861
O O3 0.140328 0.143984 0.464729
O O4 0.250000 0.000000 0.410481
O O5 0.742962 0.250000 0.250000
O O6 0.653587 0.092763 0.192740
O O7 0.649281 0.342191 0.163419
O O8 0.932707 0.354656 0.278788
O O9 0.000000 0.576576 0.250000
O O10 0.000927 0.508645 0.347915
O O11 0.500000 0.250000 0.119707
O O12 0.404516 0.069519 0.066982
O O13 0.750000 0.500000 0.023844
#
# Coordination Sequence:
#
# PCOD9505354 Si02
#       6
#    16  16  16  16   4  16
#     4   9  19  35  55  78 110 156 191 240 294 347
#     4  10  16  29  54  79 108 143 190 230 281 357
#     4   9  16  28  48  77 112 145 180 233 295 350
#     4   9  17  29  56  86 109 144 196 246 287 361
#     4   8  16  28  42  72 120 156 168 226 310 362
#     4   9  18  36  58  81 110 153 202 247 297 347
#
# _framework density 23.199777000000001
#
# number of rings (size 3 to 8) (size 9 to 14) (size 15 to 20)
#    0.571    2.286    1.905    0.000    0.000    0.000 
#    3.429    3.810    2.095   56.000    0.000    0.000 
#    0.000    0.000    0.000    0.000    0.000    0.000 
#
# Total GULP energy -233921.989604 kJ/mol
# GULP energy per Si atom -5569.571181 kJ/mol
# Density = 2.314697 g / cm^3
# Si number density = 23.199777 Si / 1000 Ang^3
#
#
#
# Elastic Constant Matrix: (Units=GPa)
#
#
# Indices 1 2 3 4 5 6 
#
# 1 45.6423 5.5571 58.4660 0.0000 0.0000 0.0000
# 2 5.5571 88.4119 13.9180 0.0000 0.0000 0.0000
# 3 58.4660 13.9180 255.4823 0.0000 0.0000 0.0000
# 4 0.0000 0.0000 0.0000 69.4271 0.0000 0.0000
# 5 0.0000 0.0000 0.0000 0.0000 -8.6186 0.0000
# 6 0.0000 0.0000 0.0000 0.0000 0.0000 0.8038
#
#
#
# Elastic Compliance Matrix: (Units=1/GPa)
#
#
# Indices 1 2 3 4 5 6 
#
# 1 0.031057 -0.000840 -0.007062 0.000000 0.000000 0.000000
# 2 -0.000840 0.011431 -0.000430 0.000000 0.000000 0.000000
# 3 -0.007062 -0.000430 0.005554 0.000000 0.000000 0.000000
# 4 0.000000 0.000000 0.000000 0.014404 0.000000 0.000000
# 5 0.000000 0.000000 0.000000 0.000000 -0.116028 0.000000
# 6 0.000000 0.000000 0.000000 0.000000 0.000000 1.244153
#
#
# Mechanical properties :
#
#
# Convention : Reuss Voigt Hill
#
# Bulk Modulus (GPa) = 31.87000 60.60205 46.23602
# Shear Modulus (GPa) = 4.10612 33.09548 18.60080
#
# Velocity S-wave (km/s) = 1.33182 3.78106 2.83462
# Velocity P-wave (km/s) = 4.01647 6.72610 5.53951
#
# Compressibility (1/GPa) = 0.03137747
#
# Stress axis : x y z
#
# Youngs Moduli (GPa) = 32.19840 87.47934 180.06269
#
# Poissons Ratio (x) = 0.07352 1.27153
# Poissons Ratio (y) = 0.02706 0.07750
# Poissons Ratio (z) = 0.22737 0.03765
#
# Static dielectric constant tensor:
#      x y z
#    x 1.909910 0.000000 0.000000 
#    y 0.000000 2.004070 0.000000 
#    z 0.000000 0.000000 1.951420 
# 
# From -- ./inp_files/46578.got.cif
#   From: 2010.05.17/outbox.cif.g08.bks.cpg/sg68_24_cif.got.tgz:46578.got - 2010.06.03 18:57:09.
