data_PCOD9505464
_publ_section_title
;
Structure prediction by ZEFSAII (Michael W. Deem and Ramdas Pophale) SiO2 
 PCOD9505464
Probable space group: C C C A
;
_chemical_formula_sum "Si O2"
_cell_formula_units_Z 64
_cell_length_a 18.258171
_cell_length_b 12.939570
_cell_length_c 12.622780
_cell_angle_alpha 90.000000
_cell_angle_beta 90.000000
_cell_angle_gamma 90.000000
_cell_volume 2982.168150
_symmetry_space_group_name_H-M "C C C A"
_symmetry_group_IT_number 68
_space_group.IT_coordinate_system_code '2'
_symmetry_cell_setting 'orthorhombic'
loop_
_space_group_symop_operation_xyz
x,y,z
-x,1/2-y,z
x,1/2-y,1/2-z
-x,y,1/2-z
-x,-y,-z
x,1/2+y,-z
-x,1/2+y,1/2+z
x,-y,1/2+z
1/2+x,1/2+y,z
1/2-x,-y,z
1/2+x,-y,1/2-z
1/2-x,1/2+y,1/2-z
1/2-x,1/2-y,-z
1/2+x,y,-z
1/2-x,y,1/2+z
1/2+x,1/2-y,1/2+z
loop_
_atom_site_type_symbol
_atom_site_label
_atom_site_fract_x
_atom_site_fract_y
_atom_site_fract_z
Si Si1 0.079330 0.500068 0.553673
Si Si2 0.083968 0.212846 0.859793
Si Si3 0.832097 0.691746 0.938917
Si Si4 0.708188 0.093649 0.918860
O O1 0.082142 0.410186 0.639444
O O2 0.109611 0.607352 0.599875
O O3 0.135533 0.460513 0.463313
O O4 0.000000 0.500000 0.500000
O O5 0.116593 0.250000 0.750000
O O6 0.128543 0.259576 0.957193
O O7 0.000000 0.250000 0.868803
O O8 0.761438 0.628797 0.982569
O O9 0.810813 0.793543 0.871712
O O10 0.750000 0.000000 0.859398
#
# Coordination Sequence:
#
# PCOD9505464 Si02
#       4
#    16  16  16  16
#     4  10  17  28  48  75 100 134 179 220 268 324
#     4  10  19  30  47  76 105 131 170 228 282 326
#     4   9  16  30  48  70 102 134 174 220 261 323
#     4   8  16  27  46  70  98 131 170 218 259 299
#
# _framework density 21.460895000000001
#
# number of rings (size 3 to 8) (size 9 to 14) (size 15 to 20)
#    0.000    2.750    2.500    0.000    0.000    0.000 
#    0.000    0.000    0.000   45.000    0.000    8.750 
#    0.000    0.000    0.000    0.000    0.000    0.000 
#
# Total GULP energy -178227.610756 kJ/mol
# GULP energy per Si atom -5569.612836 kJ/mol
# Density = 2.141205 g / cm^3
# Si number density = 21.460895 Si / 1000 Ang^3
#
#
#
# Elastic Constant Matrix: (Units=GPa)
#
#
# Indices 1 2 3 4 5 6 
#
# 1 115.8929 43.4944 -4.4779 0.0000 0.0000 0.0000
# 2 43.4944 215.9163 22.2637 0.0000 0.0000 0.0000
# 3 -4.4779 22.2637 27.9208 0.0000 0.0000 0.0000
# 4 0.0000 0.0000 0.0000 13.6064 0.0000 0.0000
# 5 0.0000 0.0000 0.0000 0.0000 2.2881 0.0000
# 6 0.0000 0.0000 0.0000 0.0000 0.0000 50.4775
#
#
#
# Elastic Compliance Matrix: (Units=1/GPa)
#
#
# Indices 1 2 3 4 5 6 
#
# 1 0.009616 -0.002284 0.003363 0.000000 0.000000 0.000000
# 2 -0.002284 0.005589 -0.004823 0.000000 0.000000 0.000000
# 3 0.003363 -0.004823 0.040200 0.000000 0.000000 0.000000
# 4 0.000000 0.000000 0.000000 0.073495 0.000000 0.000000
# 5 0.000000 0.000000 0.000000 0.000000 0.437042 0.000000
# 6 0.000000 0.000000 0.000000 0.000000 0.000000 0.019811
#
#
# Mechanical properties :
#
#
# Convention : Reuss Voigt Hill
#
# Bulk Modulus (GPa) = 20.86879 53.58783 37.22831
# Shear Modulus (GPa) = 8.20733 33.17107 20.68920
#
# Velocity S-wave (km/s) = 1.95771 3.93574 3.10827
# Velocity P-wave (km/s) = 3.85427 6.75852 5.50150
#
# Compressibility (1/GPa) = 0.04791845
#
# Stress axis : x y z
#
# Youngs Moduli (GPa) = 103.99650 178.93088 24.87533
#
# Poissons Ratio (x) = 0.40864 -0.08366
# Poissons Ratio (y) = 0.23751 0.11997
# Poissons Ratio (z) = -0.34976 0.86292
#
# Static dielectric constant tensor:
#      x y z
#    x 1.808150 0.000000 0.000000 
#    y 0.000000 1.873430 0.000000 
#    z 0.000000 0.000000 1.759690 
# 
# From -- ./inp_files/32636.got.cif
#   From: 2010.05.17/outbox.cif.g08.bks.cpg/sg68_17_cif.got.tgz:32636.got - 2010.06.03 18:57:09.
