data_PCOD9505036
_publ_section_title
;
Structure prediction by ZEFSAII (Michael W. Deem and Ramdas Pophale) SiO2 
 PCOD9505036
Probable space group: C M M A
;
_chemical_formula_sum "Si O2"
_cell_formula_units_Z 60
_cell_length_a 19.585361
_cell_length_b 8.990213
_cell_length_c 17.482427
_cell_angle_alpha 90.000000
_cell_angle_beta 90.000000
_cell_angle_gamma 90.000000
_cell_volume 3078.245730
_symmetry_space_group_name_H-M "C M M A"
_symmetry_group_IT_number 67
_symmetry_cell_setting 'orthorhombic'
loop_
_space_group_symop_operation_xyz
x,y,z
-x,1/2-y,z
x,-y,-z
-x,1/2+y,-z
-x,-y,-z
x,1/2+y,-z
-x,y,z
x,1/2-y,z
1/2+x,1/2+y,z
1/2-x,-y,z
1/2+x,1/2-y,-z
1/2-x,y,-z
1/2-x,1/2-y,-z
1/2+x,y,-z
1/2-x,1/2+y,z
1/2+x,-y,z
loop_
_atom_site_type_symbol
_atom_site_label
_atom_site_fract_x
_atom_site_fract_y
_atom_site_fract_z
Si Si1 0.921365 0.428167 0.421992
Si Si2 0.000000 0.428837 0.083341
Si Si3 0.358564 0.577390 0.868653
Si Si4 0.750000 0.000000 0.000000
Si Si5 0.682209 0.928268 0.289103
O O1 0.893934 0.500000 0.500000
O O2 0.919974 0.250000 0.430638
O O3 0.879526 0.464205 0.346087
O O4 0.000000 0.476434 0.413293
O O5 0.070927 0.488653 0.117868
O O6 0.000000 0.250000 0.082477
O O7 0.000000 0.500000 0.000000
O O8 0.374264 0.750000 0.855442
O O9 0.327298 0.502761 0.793410
O O10 0.304548 0.571351 0.939623
O O11 0.687954 0.750000 0.281126
O O12 0.750000 0.000000 0.323784
#
# Coordination Sequence:
#
# PCOD9505036 Si02
#       5
#    16   8  16   4  16
#     4   9  20  40  65  93 124 166 211 261 321 385
#     4  12  26  44  66  92 127 166 215 270 324 384
#     4  12  26  44  67  96 129 170 220 269 327 387
#     4  12  26  42  72  94 132 170 218 268 330 374
#     4  11  24  41  63  93 131 169 212 266 325 384
#
# _framework density 19.491620000000001
#
# number of rings (size 3 to 8) (size 9 to 14) (size 15 to 20)
#    0.000    1.067    2.667    3.200    1.867    4.800 
#    0.000    2.667    0.000    0.000    0.000    0.000 
#    0.000    0.000    0.000    0.000    0.000    0.000 
#
# Total GULP energy -167404.807135 kJ/mol
# GULP energy per Si atom -5580.160238 kJ/mol
# Density = 1.944726 g / cm^3
# Si number density = 19.491620 Si / 1000 Ang^3
#
#
#
# Elastic Constant Matrix: (Units=GPa)
#
#
# Indices 1 2 3 4 5 6 
#
# 1 117.9031 56.5743 45.0043 0.0000 0.0000 0.0000
# 2 56.5743 123.4059 49.5225 0.0000 0.0000 0.0000
# 3 45.0043 49.5225 118.4157 0.0000 0.0000 0.0000
# 4 0.0000 0.0000 0.0000 24.1997 0.0000 0.0000
# 5 0.0000 0.0000 0.0000 0.0000 24.6633 0.0000
# 6 0.0000 0.0000 0.0000 0.0000 0.0000 19.2948
#
#
#
# Elastic Compliance Matrix: (Units=1/GPa)
#
#
# Indices 1 2 3 4 5 6 
#
# 1 0.011505 -0.004229 -0.002604 0.000000 0.000000 0.000000
# 2 -0.004229 0.011292 -0.003115 0.000000 0.000000 0.000000
# 3 -0.002604 -0.003115 0.010737 0.000000 0.000000 0.000000
# 4 0.000000 0.000000 0.000000 0.041323 0.000000 0.000000
# 5 0.000000 0.000000 0.000000 0.000000 0.040546 0.000000
# 6 0.000000 0.000000 0.000000 0.000000 0.000000 0.051827
#
#
# Mechanical properties :
#
#
# Convention : Reuss Voigt Hill
#
# Bulk Modulus (GPa) = 73.32543 73.54744 73.43643
# Shear Modulus (GPa) = 26.08608 27.53981 26.81294
#
# Velocity S-wave (km/s) = 3.66228 3.76294 3.71295
# Velocity P-wave (km/s) = 7.45545 7.52957 7.49260
#
# Compressibility (1/GPa) = 0.01363783
#
# Stress axis : x y z
#
# Youngs Moduli (GPa) = 86.92012 88.55523 93.13460
#
# Poissons Ratio (x) = 0.37454 0.24249
# Poissons Ratio (y) = 0.36762 0.29013
# Poissons Ratio (z) = 0.22631 0.27586
#
# Static dielectric constant tensor:
#      x y z
#    x 1.603420 0.000000 0.000000 
#    y 0.000000 1.656560 0.000000 
#    z 0.000000 0.000000 1.644050 
# 
# From -- ./inp_files/33936.got.cif
#   From: 2010.05.17/outbox.cif.g08.bks.cpg/sg67_17_cif.got.tgz:33936.got - 2010.06.03 18:28:57.
