data_PCOD9505142
_publ_section_title
;
Structure prediction by ZEFSAII (Michael W. Deem and Ramdas Pophale) SiO2 
 PCOD9505142
Probable space group: C M M A
;
_chemical_formula_sum "Si O2"
_cell_formula_units_Z 96
_cell_length_a 9.311251
_cell_length_b 14.432330
_cell_length_c 32.548520
_cell_angle_alpha 90.000000
_cell_angle_beta 90.000000
_cell_angle_gamma 90.000000
_cell_volume 4373.969298
_symmetry_space_group_name_H-M "C M M A"
_symmetry_group_IT_number 67
_symmetry_cell_setting 'orthorhombic'
loop_
_space_group_symop_operation_xyz
x,y,z
-x,1/2-y,z
x,-y,-z
-x,1/2+y,-z
-x,-y,-z
x,1/2+y,-z
-x,y,z
x,1/2-y,z
1/2+x,1/2+y,z
1/2-x,-y,z
1/2+x,1/2-y,-z
1/2-x,y,-z
1/2-x,1/2-y,-z
1/2+x,y,-z
1/2-x,1/2+y,z
1/2+x,-y,z
loop_
_atom_site_type_symbol
_atom_site_label
_atom_site_fract_x
_atom_site_fract_y
_atom_site_fract_z
Si Si1 0.162096 0.363419 0.202214
Si Si2 0.827996 0.902269 0.370738
Si Si3 0.839448 0.858127 0.279145
Si Si4 0.336604 0.863147 0.878330
Si Si5 0.163863 0.363226 0.040625
Si Si6 0.826104 0.398457 0.539705
O O1 0.156565 0.250000 0.202005
O O2 0.229658 0.394483 0.245426
O O3 0.261126 0.390505 0.164032
O O4 0.000000 0.396911 0.197109
O O5 0.789746 0.860897 0.326500
O O6 0.797345 0.856330 0.415061
O O7 0.000000 0.913166 0.370441
O O8 0.750000 0.000000 0.371183
O O9 0.854417 0.750000 0.269021
O O10 0.000000 0.900055 0.276248
O O11 0.500000 0.896116 0.880758
O O12 0.340191 0.750000 0.878572
O O13 0.245185 0.891078 0.917960
O O14 0.160347 0.250000 0.040603
O O15 0.000000 0.395933 0.039864
O O16 0.250000 0.390964 0.000000
O O17 0.750000 0.500000 0.541918
O O18 0.750000 0.354502 0.500000
O O19 0.000000 0.404719 0.534062
#
# Coordination Sequence:
#
# PCOD9505142 Si02
#       6
#    16  16  16  16  16  16
#     4   9  16  25  37  54  74  96 126 165 206 245
#     4   9  18  30  45  66  89 113 141 174 212 252
#     4   9  17  30  46  62  82 110 143 176 210 251
#     4   9  15  22  32  45  62  87 120 158 199 242
#     4   9  15  21  28  39  57  82 114 154 199 245
#     4   9  15  24  39  60  84 108 136 169 205 244
#
# _framework density 21.948028000000001
#
# number of rings (size 3 to 8) (size 9 to 14) (size 15 to 20)
#    0.000    3.000    0.000    2.500    0.000    7.333 
#    0.000    0.000    0.000    0.500    0.000    0.000 
#    0.000    0.000    0.000    0.000    0.000    5.333 
#
# Total GULP energy -267739.614225 kJ/mol
# GULP energy per Si atom -5577.908630 kJ/mol
# Density = 2.189807 g / cm^3
# Si number density = 21.948028 Si / 1000 Ang^3
#
#
#
# Elastic Constant Matrix: (Units=GPa)
#
#
# Indices 1 2 3 4 5 6 
#
# 1 163.0808 11.2503 127.3877 0.0000 0.0000 0.0000
# 2 11.2503 57.2307 0.9344 0.0000 0.0000 0.0000
# 3 127.3877 0.9344 222.9067 0.0000 0.0000 0.0000
# 4 0.0000 0.0000 0.0000 12.0391 0.0000 0.0000
# 5 0.0000 0.0000 0.0000 0.0000 38.4996 0.0000
# 6 0.0000 0.0000 0.0000 0.0000 0.0000 -2.7957
#
#
#
# Elastic Compliance Matrix: (Units=1/GPa)
#
#
# Indices 1 2 3 4 5 6 
#
# 1 0.011328 -0.002121 -0.006465 0.000000 0.000000 0.000000
# 2 -0.002121 0.017872 0.001137 0.000000 0.000000 0.000000
# 3 -0.006465 0.001137 0.008176 0.000000 0.000000 0.000000
# 4 0.000000 0.000000 0.000000 0.083063 0.000000 0.000000
# 5 0.000000 0.000000 0.000000 0.000000 0.025974 0.000000
# 6 0.000000 0.000000 0.000000 0.000000 0.000000 -0.357697
#
#
# Mechanical properties :
#
#
# Convention : Reuss Voigt Hill
#
# Bulk Modulus (GPa) = 44.48800 80.26256 62.37528
# Shear Modulus (GPa) = -26.46998 29.79165 1.66084
#
# Velocity S-wave (km/s) = -3.47656 3.68825 0.87084
# Velocity P-wave (km/s) = 2.04900 7.40178 5.43069
#
# Compressibility (1/GPa) = 0.02247797
#
# Stress axis : x y z
#
# Youngs Moduli (GPa) = 88.27398 55.95480 122.30745
#
# Poissons Ratio (x) = 0.11870 0.79073
# Poissons Ratio (y) = 0.18726 -0.13911
# Poissons Ratio (z) = 0.57070 -0.06364
#
# Static dielectric constant tensor:
#      x y z
#    x 1.751430 0.000000 0.000000 
#    y 0.000000 1.911540 0.000000 
#    z 0.000000 0.000000 1.813100 
# 
# From -- ./inp_files/43665.got.cif
#   From: 2010.05.17/outbox.cif.g08.bks.cpg/sg67_22_cif.got.tgz:43665.got - 2010.06.03 18:28:57.
