data_PCOD9505619
_publ_section_title
;
Structure prediction by ZEFSAII (Michael W. Deem and Ramdas Pophale) SiO2 
 PCOD9505619
Probable space group: C C C A
;
_chemical_formula_sum "Si O2"
_cell_formula_units_Z 88
_cell_length_a 17.992629
_cell_length_b 10.095145
_cell_length_c 24.875278
_cell_angle_alpha 90.000000
_cell_angle_beta 90.000000
_cell_angle_gamma 90.000000
_cell_volume 4518.300688
_symmetry_space_group_name_H-M "C C C A"
_symmetry_group_IT_number 68
_space_group.IT_coordinate_system_code '2'
_symmetry_cell_setting 'orthorhombic'
loop_
_space_group_symop_operation_xyz
x,y,z
-x,1/2-y,z
x,1/2-y,1/2-z
-x,y,1/2-z
-x,-y,-z
x,1/2+y,-z
-x,1/2+y,1/2+z
x,-y,1/2+z
1/2+x,1/2+y,z
1/2-x,-y,z
1/2+x,-y,1/2-z
1/2-x,1/2+y,1/2-z
1/2-x,1/2-y,-z
1/2+x,y,-z
1/2-x,y,1/2+z
1/2+x,1/2-y,1/2+z
loop_
_atom_site_type_symbol
_atom_site_label
_atom_site_fract_x
_atom_site_fract_y
_atom_site_fract_z
Si Si1 0.191493 0.121432 0.109301
Si Si2 0.250000 0.000000 0.793686
Si Si3 0.195983 0.624404 0.008185
Si Si4 0.176665 0.813451 0.377933
Si Si5 0.620001 0.883039 0.277559
Si Si6 0.077752 0.827277 0.201328
O O1 0.242806 0.250810 0.111981
O O2 0.138056 0.135449 0.159665
O O3 0.250000 0.000000 0.116122
O O4 0.156764 0.107513 0.049797
O O5 0.307357 0.925527 0.833729
O O6 0.197325 0.913050 0.754648
O O7 0.250000 0.500000 0.015918
O O8 0.150138 0.640798 0.063172
O O9 0.250000 0.750000 0.000000
O O10 0.124765 0.701262 0.351854
O O11 0.588883 0.750000 0.250000
O O12 0.574554 0.021084 0.279953
O O13 0.118039 0.750000 0.250000
O O14 0.000000 0.750000 0.194590
#
# Coordination Sequence:
#
# PCOD9505619 Si02
#       6
#    16   8  16  16  16  16
#     4  10  18  30  52  88 123 150 187 238 314 351
#     4  12  20  28  52  94 118 144 190 240 308 364
#     4   9  19  31  49  84 121 158 185 234 304 360
#     4  11  19  34  56  83 123 155 196 240 289 364
#     4  12  22  34  58  90 119 150 191 252 300 359
#     4  11  24  41  58  80 114 165 206 238 285 356
#
# _framework density 19.47635
#
# number of rings (size 3 to 8) (size 9 to 14) (size 15 to 20)
#    0.000    1.273    7.273    0.000    0.000    0.000 
#    0.000    1.818    0.000    1.091    0.000    0.000 
#    0.000    0.000    0.000    0.000    0.000    0.000 
#
# Total GULP energy -245024.546270 kJ/mol
# GULP energy per Si atom -5568.739688 kJ/mol
# Density = 1.943202 g / cm^3
# Si number density = 19.476350 Si / 1000 Ang^3
#
#
#
# Elastic Constant Matrix: (Units=GPa)
#
#
# Indices 1 2 3 4 5 6 
#
# 1 39.7142 20.4449 31.5820 0.0000 0.0000 0.0000
# 2 20.4449 126.5724 43.3521 0.0000 0.0000 0.0000
# 3 31.5820 43.3521 177.4601 0.0000 0.0000 0.0000
# 4 0.0000 0.0000 0.0000 28.9591 0.0000 0.0000
# 5 0.0000 0.0000 0.0000 0.0000 8.7273 0.0000
# 6 0.0000 0.0000 0.0000 0.0000 0.0000 15.1624
#
#
#
# Elastic Compliance Matrix: (Units=1/GPa)
#
#
# Indices 1 2 3 4 5 6 
#
# 1 0.030584 -0.003357 -0.004623 0.000000 0.000000 0.000000
# 2 -0.003357 0.008990 -0.001599 0.000000 0.000000 0.000000
# 3 -0.004623 -0.001599 0.006848 0.000000 0.000000 0.000000
# 4 0.000000 0.000000 0.000000 0.034531 0.000000 0.000000
# 5 0.000000 0.000000 0.000000 0.000000 0.114583 0.000000
# 6 0.000000 0.000000 0.000000 0.000000 0.000000 0.065952
#
#
# Mechanical properties :
#
#
# Convention : Reuss Voigt Hill
#
# Bulk Modulus (GPa) = 36.67592 59.38941 48.03266
# Shear Modulus (GPa) = 17.25711 27.12763 22.19237
#
# Velocity S-wave (km/s) = 2.97990 3.73614 3.37924
# Velocity P-wave (km/s) = 5.54180 7.01220 6.31991
#
# Compressibility (1/GPa) = 0.02726585
#
# Stress axis : x y z
#
# Youngs Moduli (GPa) = 32.69654 111.22890 146.01962
#
# Poissons Ratio (x) = 0.37337 0.67504
# Poissons Ratio (y) = 0.10976 0.23347
# Poissons Ratio (z) = 0.15115 0.17784
#
# Static dielectric constant tensor:
#      x y z
#    x 1.656150 0.000000 0.000000 
#    y 0.000000 1.752670 0.000000 
#    z 0.000000 0.000000 1.789070 
# 
# From -- ./inp_files/46498.got.cif
#   From: 2010.05.17/outbox.cif.g08.bks.cpg/sg68_24_cif.got.tgz:46498.got - 2010.06.03 18:57:09.
