data_PCOD9505741
_publ_section_title
;
Structure prediction by ZEFSAII (Michael W. Deem and Ramdas Pophale) SiO2 
 PCOD9505741
Probable space group: C C C A
;
_chemical_formula_sum "Si O2"
_cell_formula_units_Z 88
_cell_length_a 14.851095
_cell_length_b 9.127744
_cell_length_c 25.050686
_cell_angle_alpha 90.000000
_cell_angle_beta 90.000000
_cell_angle_gamma 90.000000
_cell_volume 3395.795674
_symmetry_space_group_name_H-M "C C C A"
_symmetry_group_IT_number 68
_space_group.IT_coordinate_system_code '2'
_symmetry_cell_setting 'orthorhombic'
loop_
_space_group_symop_operation_xyz
x,y,z
-x,1/2-y,z
x,1/2-y,1/2-z
-x,y,1/2-z
-x,-y,-z
x,1/2+y,-z
-x,1/2+y,1/2+z
x,-y,1/2+z
1/2+x,1/2+y,z
1/2-x,-y,z
1/2+x,-y,1/2-z
1/2-x,1/2+y,1/2-z
1/2-x,1/2-y,-z
1/2+x,y,-z
1/2-x,y,1/2+z
1/2+x,1/2-y,1/2+z
loop_
_atom_site_type_symbol
_atom_site_label
_atom_site_fract_x
_atom_site_fract_y
_atom_site_fract_z
Si Si1 0.750000 0.500000 0.614270
Si Si2 0.500000 0.250000 0.750000
Si Si3 0.420948 0.995687 0.939198
Si Si4 0.294141 0.765198 0.811977
Si Si5 0.500000 0.750000 0.750000
Si Si6 0.531057 0.523231 0.823381
Si Si7 0.153944 0.305311 0.473026
Si Si8 0.750000 0.500000 0.877055
O O1 0.704913 0.619055 0.653187
O O2 0.815969 0.587538 0.574548
O O3 0.537935 0.369829 0.792774
O O4 0.396710 0.161072 0.953385
O O5 0.484641 0.985042 0.887154
O O6 0.326574 0.938057 0.914341
O O7 0.419689 0.894669 0.991329
O O8 0.271855 0.750000 0.750000
O O9 0.379673 0.876244 0.814443
O O10 0.218927 0.865051 0.841373
O O11 0.460392 0.627419 0.791271
O O12 0.250000 0.250000 0.500000
#
# Coordination Sequence:
#
# PCOD9505741 Si02
#       8
#     8   4  16  16   4  16  16   8
#     4  12  22  34  60  92 138 190 200 240 312 400
#     4  10  24  50  76  86 120 170 236 306 354 368
#     4  11  21  35  59  91 130 164 218 251 311 390
#     4  11  22  37  54  96 136 172 210 253 320 391
#     4  10  20  50  72  86 120 158 224 294 346 376
#     4  10  23  43  69  96 116 165 224 286 335 393
#     4  12  19  35  57  88 134 180 212 242 300 389
#     4  10  18  34  50  80 140 168 196 256 282 402
#
# _framework density 25.914396
#
# number of rings (size 3 to 8) (size 9 to 14) (size 15 to 20)
#    0.000    1.091    6.364    1.636    0.000    1.455 
#    6.545    0.000    0.000    3.273    0.000    0.000 
#    0.000    0.000    0.000    0.000    0.000    0.000 
#
# Total GULP energy -245244.470342 kJ/mol
# GULP energy per Si atom -5573.737962 kJ/mol
# Density = 2.585541 g / cm^3
# Si number density = 25.914396 Si / 1000 Ang^3
#
#
#
# Elastic Constant Matrix: (Units=GPa)
#
#
# Indices 1 2 3 4 5 6 
#
# 1 65.5201 43.4680 38.2310 0.0000 0.0000 0.0000
# 2 43.4680 240.4114 123.4025 0.0000 0.0000 0.0000
# 3 38.2310 123.4025 207.5975 0.0000 0.0000 0.0000
# 4 0.0000 0.0000 0.0000 76.1096 0.0000 0.0000
# 5 0.0000 0.0000 0.0000 0.0000 7.3353 0.0000
# 6 0.0000 0.0000 0.0000 0.0000 0.0000 21.7903
#
#
#
# Elastic Compliance Matrix: (Units=1/GPa)
#
#
# Indices 1 2 3 4 5 6 
#
# 1 0.017888 -0.002221 -0.001974 0.000000 0.000000 0.000000
# 2 -0.002221 0.006262 -0.003313 0.000000 0.000000 0.000000
# 3 -0.001974 -0.003313 0.007150 0.000000 0.000000 0.000000
# 4 0.000000 0.000000 0.000000 0.013139 0.000000 0.000000
# 5 0.000000 0.000000 0.000000 0.000000 0.136328 0.000000
# 6 0.000000 0.000000 0.000000 0.000000 0.000000 0.045892
#
#
# Mechanical properties :
#
#
# Convention : Reuss Voigt Hill
#
# Bulk Modulus (GPa) = 61.41276 102.63689 82.02483
# Shear Modulus (GPa) = 20.23454 41.60886 30.92170
#
# Velocity S-wave (km/s) = 2.79735 4.01137 3.45806
# Velocity P-wave (km/s) = 5.84665 7.81965 6.90399
#
# Compressibility (1/GPa) = 0.01628326
#
# Stress axis : x y z
#
# Youngs Moduli (GPa) = 55.90405 159.69987 139.86035
#
# Poissons Ratio (x) = 0.35469 0.27608
# Poissons Ratio (y) = 0.12416 0.46338
# Poissons Ratio (z) = 0.11035 0.52911
#
# Static dielectric constant tensor:
#      x y z
#    x 2.614490 0.000000 0.000000 
#    y 0.000000 2.071770 0.000000 
#    z 0.000000 0.000000 2.226110 
# 
# From -- ./inp_files/46574.got.cif
#   From: 2010.05.17/outbox.cif.g08.bks.cpg/sg68_24_cif.got.tgz:46574.got - 2010.06.03 18:57:09.
