data_PCOD9505406
_publ_section_title
;
Structure prediction by ZEFSAII (Michael W. Deem and Ramdas Pophale) SiO2 
 PCOD9505406
Probable space group: C C C A
;
_chemical_formula_sum "Si O2"
_cell_formula_units_Z 96
_cell_length_a 17.017379
_cell_length_b 15.810586
_cell_length_c 18.739813
_cell_angle_alpha 90.000000
_cell_angle_beta 90.000000
_cell_angle_gamma 90.000000
_cell_volume 5042.035405
_symmetry_space_group_name_H-M "C C C A"
_symmetry_group_IT_number 68
_space_group.IT_coordinate_system_code '2'
_symmetry_cell_setting 'orthorhombic'
loop_
_space_group_symop_operation_xyz
x,y,z
-x,1/2-y,z
x,1/2-y,1/2-z
-x,y,1/2-z
-x,-y,-z
x,1/2+y,-z
-x,1/2+y,1/2+z
x,-y,1/2+z
1/2+x,1/2+y,z
1/2-x,-y,z
1/2+x,-y,1/2-z
1/2-x,1/2+y,1/2-z
1/2-x,1/2-y,-z
1/2+x,y,-z
1/2-x,y,1/2+z
1/2+x,1/2-y,1/2+z
loop_
_atom_site_type_symbol
_atom_site_label
_atom_site_fract_x
_atom_site_fract_y
_atom_site_fract_z
Si Si1 0.387371 0.005254 0.817714
Si Si2 0.419098 0.697833 0.918111
Si Si3 0.085658 0.541607 0.983979
Si Si4 0.573638 0.482692 0.161132
Si Si5 0.829261 0.352703 0.910164
Si Si6 0.654273 0.383948 0.947033
O O1 0.480117 0.988187 0.827221
O O2 0.378780 0.003519 0.732601
O O3 0.339565 0.926515 0.851561
O O4 0.370519 0.088289 0.866341
O O5 0.500000 0.750000 0.909779
O O6 0.416225 0.610250 0.873822
O O7 0.352808 0.759720 0.886487
O O8 0.398773 0.674855 0.001240
O O9 0.093415 0.549972 0.900313
O O10 0.105591 0.622953 0.029753
O O11 0.148368 0.473609 0.012264
O O12 0.000000 0.500000 0.000000
O O13 0.742877 0.352948 0.942604
#
# Coordination Sequence:
#
# PCOD9505406 Si02
#       6
#    16  16  16  16  16  16
#     4  10  19  35  54  83 112 145 191 236 281 338
#     4  11  21  36  58  89 113 147 194 244 287 342
#     4  10  16  33  56  82 107 143 198 239 267 329
#     4  10  20  33  56  86 107 144 195 241 278 327
#     4  11  20  35  55  84 117 151 180 237 299 344
#     4  10  21  35  56  81 116 152 186 230 292 341
#
# _framework density 19.039928
#
# number of rings (size 3 to 8) (size 9 to 14) (size 15 to 20)
#    0.000    1.667    5.000    3.500    0.000    0.667 
#    0.000    6.667    0.000    3.000    0.000    0.000 
#    0.000    0.000    0.000    0.000    0.000    0.000 
#
# Total GULP energy -267274.723803 kJ/mol
# GULP energy per Si atom -5568.223413 kJ/mol
# Density = 1.899659 g / cm^3
# Si number density = 19.039928 Si / 1000 Ang^3
#
#
#
# Elastic Constant Matrix: (Units=GPa)
#
#
# Indices 1 2 3 4 5 6 
#
# 1 61.9772 1.4368 7.9619 0.0000 0.0000 0.0000
# 2 1.4368 26.7598 -2.7142 0.0000 0.0000 0.0000
# 3 7.9619 -2.7142 134.4452 0.0000 0.0000 0.0000
# 4 0.0000 0.0000 0.0000 19.1091 0.0000 0.0000
# 5 0.0000 0.0000 0.0000 0.0000 17.4211 0.0000
# 6 0.0000 0.0000 0.0000 0.0000 0.0000 20.2427
#
#
#
# Elastic Compliance Matrix: (Units=1/GPa)
#
#
# Indices 1 2 3 4 5 6 
#
# 1 0.016284 -0.000974 -0.000984 0.000000 0.000000 0.000000
# 2 -0.000974 0.037504 0.000815 0.000000 0.000000 0.000000
# 3 -0.000984 0.000815 0.007513 0.000000 0.000000 0.000000
# 4 0.000000 0.000000 0.000000 0.052331 0.000000 0.000000
# 5 0.000000 0.000000 0.000000 0.000000 0.057402 0.000000
# 6 0.000000 0.000000 0.000000 0.000000 0.000000 0.049401
#
#
# Mechanical properties :
#
#
# Convention : Reuss Voigt Hill
#
# Bulk Modulus (GPa) = 16.94499 26.28345 21.61422
# Shear Modulus (GPa) = 20.62769 25.78774 23.20772
#
# Velocity S-wave (km/s) = 3.29506 3.68421 3.49506
# Velocity P-wave (km/s) = 4.83690 5.65086 5.25965
#
# Compressibility (1/GPa) = 0.05901451
#
# Stress axis : x y z
#
# Youngs Moduli (GPa) = 61.41009 26.66352 133.10795
#
# Poissons Ratio (x) = 0.02597 0.13098
# Poissons Ratio (y) = 0.05982 -0.10846
# Poissons Ratio (z) = 0.06043 -0.02173
#
# Static dielectric constant tensor:
#      x y z
#    x 1.695210 0.000000 0.000000 
#    y 0.000000 1.674420 0.000000 
#    z 0.000000 0.000000 1.724490 
# 
# From -- ./inp_files/31996.got.cif
#   From: 2010.05.17/outbox.cif.g08.bks.cpg/sg68_16_cif.got.tgz:31996.got - 2010.06.03 18:57:09.
