data_PCOD9505000
_publ_section_title
;
Structure prediction by ZEFSAII (Michael W. Deem and Ramdas Pophale) SiO2 
 PCOD9505000
Probable space group: C M M A
;
_chemical_formula_sum "Si O2"
_cell_formula_units_Z 64
_cell_length_a 17.967421
_cell_length_b 23.841507
_cell_length_c 7.683019
_cell_angle_alpha 90.000000
_cell_angle_beta 90.000000
_cell_angle_gamma 90.000000
_cell_volume 3291.177873
_symmetry_space_group_name_H-M "C M M A"
_symmetry_group_IT_number 67
_symmetry_cell_setting 'orthorhombic'
loop_
_space_group_symop_operation_xyz
x,y,z
-x,1/2-y,z
x,-y,-z
-x,1/2+y,-z
-x,-y,-z
x,1/2+y,-z
-x,y,z
x,1/2-y,z
1/2+x,1/2+y,z
1/2-x,-y,z
1/2+x,1/2-y,-z
1/2-x,y,-z
1/2-x,1/2-y,-z
1/2+x,y,-z
1/2-x,1/2+y,z
1/2+x,-y,z
loop_
_atom_site_type_symbol
_atom_site_label
_atom_site_fract_x
_atom_site_fract_y
_atom_site_fract_z
Si Si1 0.678511 0.129463 0.771278
Si Si2 0.915373 0.066696 0.516052
Si Si3 0.646820 0.628049 0.840568
Si Si4 0.827306 0.250000 0.389195
Si Si5 0.588141 0.250000 0.262643
O O1 0.642242 0.095731 0.614069
O O2 0.766759 0.120221 0.788834
O O3 0.669071 0.194885 0.727004
O O4 0.641103 0.114759 0.955467
O O5 0.899856 0.089594 0.709736
O O6 0.000000 0.082168 0.467624
O O7 0.907698 0.000000 0.500000
O O8 0.623963 0.692973 0.811810
O O9 0.750000 0.250000 0.500000
O O10 0.892204 0.250000 0.532442
O O11 0.500000 0.250000 0.233093
#
# Coordination Sequence:
#
# PCOD9505000 Si02
#       5
#    16  16  16   8   8
#     4  11  23  40  67  94 126 164 210 257 317 372
#     4  11  25  44  64  89 125 167 211 264 322 376
#     4  11  23  41  64  96 126 164 210 260 308 378
#     4  12  19  37  66  94 128 168 202 250 310 378
#     4  12  23  37  61  94 132 165 199 247 309 372
#
# _framework density 19.445926
#
# number of rings (size 3 to 8) (size 9 to 14) (size 15 to 20)
#    0.000    0.750    5.000    2.250    0.000    7.000 
#    0.000    6.250    0.000    0.000    0.000    0.000 
#    0.000    0.000    0.000    0.000    0.000    0.000 
#
# Total GULP energy -178942.053670 kJ/mol
# GULP energy per Si atom -5591.939177 kJ/mol
# Density = 1.940167 g / cm^3
# Si number density = 19.445926 Si / 1000 Ang^3
#
#
#
# Elastic Constant Matrix: (Units=GPa)
#
#
# Indices 1 2 3 4 5 6 
#
# 1 78.5273 21.0012 32.1496 0.0000 0.0000 0.0000
# 2 21.0012 66.0914 21.3350 0.0000 0.0000 0.0000
# 3 32.1496 21.3350 106.4540 0.0000 0.0000 0.0000
# 4 0.0000 0.0000 0.0000 -2.1409 0.0000 0.0000
# 5 0.0000 0.0000 0.0000 0.0000 16.5757 0.0000
# 6 0.0000 0.0000 0.0000 0.0000 0.0000 16.8740
#
#
#
# Elastic Compliance Matrix: (Units=1/GPa)
#
#
# Indices 1 2 3 4 5 6 
#
# 1 0.015293 -0.003602 -0.003897 0.000000 0.000000 0.000000
# 2 -0.003602 0.017025 -0.002324 0.000000 0.000000 0.000000
# 3 -0.003897 -0.002324 0.011036 0.000000 0.000000 0.000000
# 4 0.000000 0.000000 0.000000 -0.467103 0.000000 0.000000
# 5 0.000000 0.000000 0.000000 0.000000 0.060329 0.000000
# 6 0.000000 0.000000 0.000000 0.000000 0.000000 0.059263
#
#
# Mechanical properties :
#
#
# Convention : Reuss Voigt Hill
#
# Bulk Modulus (GPa) = 42.17770 44.44937 43.31353
# Shear Modulus (GPa) = -18.07614 18.03423 -0.02095
#
# Velocity S-wave (km/s) = -3.05218 3.04864 -0.10392
# Velocity P-wave (km/s) = 3.05218 5.94136 4.72311
#
# Compressibility (1/GPa) = 0.02370921
#
# Stress axis : x y z
#
# Youngs Moduli (GPa) = 65.38950 58.73591 90.60914
#
# Poissons Ratio (x) = 0.21154 0.35308
# Poissons Ratio (y) = 0.23551 0.21062
# Poissons Ratio (z) = 0.25481 0.13653
#
# Static dielectric constant tensor:
#      x y z
#    x 1.683300 0.000000 0.000000 
#    y 0.000000 1.652310 0.000000 
#    z 0.000000 0.000000 1.669070 
# 
# From -- ./inp_files/8045.got.cif
#   From: 2010.05.17/outbox.cif.g08.bks.cpg/sg67_5_cif.got.tgz:8045.got - 2010.06.03 18:28:57.
