data_PCOD9505316
_publ_section_title
;
Structure prediction by ZEFSAII (Michael W. Deem and Ramdas Pophale) SiO2 
 PCOD9505316
Probable space group: C C C A
;
_chemical_formula_sum "Si O2"
_cell_formula_units_Z 108
_cell_length_a 18.908300
_cell_length_b 21.432847
_cell_length_c 15.323096
_cell_angle_alpha 90.000000
_cell_angle_beta 90.000000
_cell_angle_gamma 90.000000
_cell_volume 6209.817979
_symmetry_space_group_name_H-M "C C C A"
_symmetry_group_IT_number 68
_space_group.IT_coordinate_system_code '2'
_symmetry_cell_setting 'orthorhombic'
loop_
_space_group_symop_operation_xyz
x,y,z
-x,1/2-y,z
x,1/2-y,1/2-z
-x,y,1/2-z
-x,-y,-z
x,1/2+y,-z
-x,1/2+y,1/2+z
x,-y,1/2+z
1/2+x,1/2+y,z
1/2-x,-y,z
1/2+x,-y,1/2-z
1/2-x,1/2+y,1/2-z
1/2-x,1/2-y,-z
1/2+x,y,-z
1/2-x,y,1/2+z
1/2+x,1/2-y,1/2+z
loop_
_atom_site_type_symbol
_atom_site_label
_atom_site_fract_x
_atom_site_fract_y
_atom_site_fract_z
Si Si1 0.333025 0.072215 0.218764
Si Si2 0.565733 0.841533 0.382600
Si Si3 0.500000 0.750000 0.250000
Si Si4 0.077483 0.134132 0.573435
Si Si5 0.000000 0.750000 0.475270
Si Si6 0.925423 0.080806 0.113647
Si Si7 0.455629 0.054546 0.338784
Si Si8 0.332653 0.076529 0.714466
O O1 0.362741 0.113467 0.140331
O O2 0.383650 0.084700 0.301877
O O3 0.250477 0.084352 0.231411
O O4 0.343146 0.997919 0.197915
O O5 0.551316 0.792065 0.307017
O O6 0.546149 0.799584 0.467138
O O7 0.503332 0.891865 0.372071
O O8 0.636949 0.880020 0.363264
O O9 0.098724 0.112920 0.475986
O O10 0.054775 0.206197 0.575321
O O11 0.007101 0.096681 0.603871
O O12 0.876521 0.092623 0.197717
O O13 0.933879 0.006597 0.108144
O O14 0.500000 0.037812 0.250000
#
# Coordination Sequence:
#
# PCOD9505316 Si02
#       8
#    16  16   4  16   8  16  16  16
#     4   9  20  35  54  79 107 144 170 205 262 323
#     4  10  17  30  51  77 103 135 168 209 266 307
#     4  10  16  24  48  76 102 128 168 196 248 312
#     4  10  19  35  52  74 104 135 178 220 258 294
#     4   9  22  33  51  76 105 136 180 231 253 288
#     4  10  17  29  53  83 102 127 167 226 268 304
#     4   9  17  31  54  76 101 133 175 213 256 312
#     4  10  18  34  55  79 111 134 167 211 267 323
#
# _framework density 17.391814
#
# number of rings (size 3 to 8) (size 9 to 14) (size 15 to 20)
#    0.000    2.370    1.481    3.111    0.000    1.185 
#    0.000   12.963    3.259    0.000    0.000    0.000 
#    0.000    0.000    0.000    0.000    0.000    0.000 
#
# Total GULP energy -300719.250817 kJ/mol
# GULP energy per Si atom -5568.875015 kJ/mol
# Density = 1.735223 g / cm^3
# Si number density = 17.391814 Si / 1000 Ang^3
#
#
#
# Elastic Constant Matrix: (Units=GPa)
#
#
# Indices 1 2 3 4 5 6 
#
# 1 100.0349 25.3291 14.9867 0.0000 0.0000 0.0000
# 2 25.3291 54.7672 26.0410 0.0000 0.0000 0.0000
# 3 14.9867 26.0410 41.0854 0.0000 0.0000 0.0000
# 4 0.0000 0.0000 0.0000 22.0246 0.0000 0.0000
# 5 0.0000 0.0000 0.0000 0.0000 3.8344 0.0000
# 6 0.0000 0.0000 0.0000 0.0000 0.0000 26.8629
#
#
#
# Elastic Compliance Matrix: (Units=1/GPa)
#
#
# Indices 1 2 3 4 5 6 
#
# 1 0.011361 -0.004701 -0.001165 0.000000 0.000000 0.000000
# 2 -0.004701 0.028081 -0.016084 0.000000 0.000000 0.000000
# 3 -0.001165 -0.016084 0.034959 0.000000 0.000000 0.000000
# 4 0.000000 0.000000 0.000000 0.045404 0.000000 0.000000
# 5 0.000000 0.000000 0.000000 0.000000 0.260799 0.000000
# 6 0.000000 0.000000 0.000000 0.000000 0.000000 0.037226
#
#
# Mechanical properties :
#
#
# Convention : Reuss Voigt Hill
#
# Bulk Modulus (GPa) = 32.78430 36.51124 34.64777
# Shear Modulus (GPa) = 10.59559 19.17977 14.88768
#
# Velocity S-wave (km/s) = 2.47093 3.32445 2.92895
# Velocity P-wave (km/s) = 5.19923 5.98121 5.60388
#
# Compressibility (1/GPa) = 0.03050241
#
# Stress axis : x y z
#
# Youngs Moduli (GPa) = 88.01881 35.61185 28.60519
#
# Poissons Ratio (x) = 0.16739 0.03332
# Poissons Ratio (y) = 0.41373 0.46007
# Poissons Ratio (z) = 0.10253 0.57277
#
# Static dielectric constant tensor:
#      x y z
#    x 1.580880 0.000000 0.000000 
#    y 0.000000 1.613460 0.000000 
#    z 0.000000 0.000000 1.614690 
# 
# From -- ./inp_files/24788.got.cif
#   From: 2010.05.17/outbox.cif.g08.bks.cpg/sg68_13_cif.got.tgz:24788.got - 2010.06.03 18:57:09.
