data_PCOD9505666
_publ_section_title
;
Structure prediction by ZEFSAII (Michael W. Deem and Ramdas Pophale) SiO2 
 PCOD9505666
Probable space group: C C C A
;
_chemical_formula_sum "Si O2"
_cell_formula_units_Z 72
_cell_length_a 8.327063
_cell_length_b 21.537242
_cell_length_c 18.312774
_cell_angle_alpha 90.000000
_cell_angle_beta 90.000000
_cell_angle_gamma 90.000000
_cell_volume 3284.248983
_symmetry_space_group_name_H-M "C C C A"
_symmetry_group_IT_number 68
_space_group.IT_coordinate_system_code '2'
_symmetry_cell_setting 'orthorhombic'
loop_
_space_group_symop_operation_xyz
x,y,z
-x,1/2-y,z
x,1/2-y,1/2-z
-x,y,1/2-z
-x,-y,-z
x,1/2+y,-z
-x,1/2+y,1/2+z
x,-y,1/2+z
1/2+x,1/2+y,z
1/2-x,-y,z
1/2+x,-y,1/2-z
1/2-x,1/2+y,1/2-z
1/2-x,1/2-y,-z
1/2+x,y,-z
1/2-x,y,1/2+z
1/2+x,1/2-y,1/2+z
loop_
_atom_site_type_symbol
_atom_site_label
_atom_site_fract_x
_atom_site_fract_y
_atom_site_fract_z
Si Si1 0.150011 0.616093 0.079980
Si Si2 0.750000 0.500000 0.019756
Si Si3 0.235087 0.426925 0.221788
Si Si4 0.452364 0.179651 0.974349
Si Si5 0.904263 0.087151 0.367863
O O1 0.139147 0.601519 0.165219
O O2 0.277388 0.670464 0.060672
O O3 0.230993 0.557293 0.037452
O O4 0.981529 0.636684 0.045496
O O5 0.879782 0.473290 0.079713
O O6 0.250000 0.500000 0.228441
O O7 0.226618 0.404135 0.304654
O O8 0.068724 0.417382 0.177637
O O9 0.500000 0.250000 0.986942
O O10 0.576246 0.147020 0.918333
#
# Coordination Sequence:
#
# PCOD9505666 Si02
#       5
#    16   8  16  16  16
#     4  10  21  32  57  81 110 138 183 228 280 319
#     4  10  18  32  50  84 110 132 172 228 280 330
#     4  10  18  32  50  79 110 139 172 221 280 336
#     4  10  21  38  56  78 109 149 189 225 262 321
#     4   9  20  32  51  77 110 141 178 217 278 327
#
# _framework density 21.922819
#
# number of rings (size 3 to 8) (size 9 to 14) (size 15 to 20)
#    0.000    2.222    2.222    0.667    3.111    2.667 
#    0.000    8.889    0.000    0.000    0.000    6.222 
#    0.000    0.000    0.000    0.000    0.000    0.000 
#
# Total GULP energy -200557.987886 kJ/mol
# GULP energy per Si atom -5571.055219 kJ/mol
# Density = 2.187292 g / cm^3
# Si number density = 21.922819 Si / 1000 Ang^3
#
#
#
# Elastic Constant Matrix: (Units=GPa)
#
#
# Indices 1 2 3 4 5 6 
#
# 1 35.0843 0.1348 6.8386 0.0000 0.0000 0.0000
# 2 0.1348 79.9658 15.1294 0.0000 0.0000 0.0000
# 3 6.8386 15.1294 143.3600 0.0000 0.0000 0.0000
# 4 0.0000 0.0000 0.0000 14.3561 0.0000 0.0000
# 5 0.0000 0.0000 0.0000 0.0000 42.6372 0.0000
# 6 0.0000 0.0000 0.0000 0.0000 0.0000 17.1716
#
#
#
# Elastic Compliance Matrix: (Units=1/GPa)
#
#
# Indices 1 2 3 4 5 6 
#
# 1 0.028774 0.000215 -0.001395 0.000000 0.000000 0.000000
# 2 0.000215 0.012762 -0.001357 0.000000 0.000000 0.000000
# 3 -0.001395 -0.001357 0.007185 0.000000 0.000000 0.000000
# 4 0.000000 0.000000 0.000000 0.069657 0.000000 0.000000
# 5 0.000000 0.000000 0.000000 0.000000 0.023454 0.000000
# 6 0.000000 0.000000 0.000000 0.000000 0.000000 0.058236
#
#
# Mechanical properties :
#
#
# Convention : Reuss Voigt Hill
#
# Bulk Modulus (GPa) = 22.91106 33.62397 28.26752
# Shear Modulus (GPa) = 22.75933 30.58679 26.67306
#
# Velocity S-wave (km/s) = 3.22554 3.73929 3.49188
# Velocity P-wave (km/s) = 4.93413 5.83214 5.40183
#
# Compressibility (1/GPa) = 0.04364704
#
# Stress axis : x y z
#
# Youngs Moduli (GPa) = 34.75371 78.35923 139.17450
#
# Poissons Ratio (x) = -0.01689 0.19419
# Poissons Ratio (y) = -0.00749 0.18887
# Poissons Ratio (z) = 0.04849 0.10634
#
# Static dielectric constant tensor:
#      x y z
#    x 1.962610 0.000000 0.000000 
#    y 0.000000 1.774010 0.000000 
#    z 0.000000 0.000000 1.938650 
# 
# From -- ./inp_files/28167.got.cif
#   From: 2010.05.17/outbox.cif.g08.bks.cpg/sg68_15_cif.got.tgz:28167.got - 2010.06.03 18:57:09.
