data_PCOD9505850
_publ_section_title
;
Structure prediction by ZEFSAII (Michael W. Deem and Ramdas Pophale) SiO2 
 PCOD9505850
Probable space group: C C C A
;
_chemical_formula_sum "Si O2"
_cell_formula_units_Z 116
_cell_length_a 27.648049
_cell_length_b 17.998225
_cell_length_c 12.937805
_cell_angle_alpha 90.000000
_cell_angle_beta 90.000000
_cell_angle_gamma 90.000000
_cell_volume 6438.056272
_symmetry_space_group_name_H-M "C C C A"
_symmetry_group_IT_number 68
_space_group.IT_coordinate_system_code '2'
_symmetry_cell_setting 'orthorhombic'
loop_
_space_group_symop_operation_xyz
x,y,z
-x,1/2-y,z
x,1/2-y,1/2-z
-x,y,1/2-z
-x,-y,-z
x,1/2+y,-z
-x,1/2+y,1/2+z
x,-y,1/2+z
1/2+x,1/2+y,z
1/2-x,-y,z
1/2+x,-y,1/2-z
1/2-x,1/2+y,1/2-z
1/2-x,1/2-y,-z
1/2+x,y,-z
1/2-x,y,1/2+z
1/2+x,1/2-y,1/2+z
loop_
_atom_site_type_symbol
_atom_site_label
_atom_site_fract_x
_atom_site_fract_y
_atom_site_fract_z
Si Si1 0.804162 0.627001 0.961337
Si Si2 0.000000 0.750000 0.750000
Si Si3 0.359293 0.043174 0.118364
Si Si4 0.556803 0.013692 0.999610
Si Si5 0.578831 0.349404 0.638428
Si Si6 0.680554 0.220127 0.865251
Si Si7 0.280725 0.065922 0.572289
Si Si8 0.121361 0.459598 0.186552
O O1 0.800645 0.713278 0.936159
O O2 0.837909 0.585375 0.877342
O O3 0.831166 0.612800 0.071309
O O4 0.752141 0.587685 0.974241
O O5 0.034503 0.800677 0.679079
O O6 0.332267 0.973884 0.059135
O O7 0.356603 0.022686 0.238254
O O8 0.414403 0.039863 0.080790
O O9 0.582496 0.994623 0.108192
O O10 0.565298 0.096239 0.955227
O O11 0.500000 0.000000 0.000000
O O12 0.624770 0.298749 0.609987
O O13 0.596383 0.401444 0.734382
O O14 0.682465 0.250000 0.750000
O O15 0.709743 0.143309 0.872268
O O16 0.250000 0.000000 0.627060
#
# Coordination Sequence:
#
# PCOD9505850 Si02
#       8
#    16   4  16  16  16  16  16  16
#     4  10  20  33  60  86 114 158 198 252 305 354
#     4  12  20  32  56  96 120 158 200 250 308 368
#     4   9  19  37  56  82 119 153 205 244 293 364
#     4  10  20  33  57  87 118 150 196 249 299 360
#     4  11  21  36  60  89 123 153 198 250 305 363
#     4  12  20  38  59  86 122 162 192 251 310 353
#     4  10  20  37  58  82 115 157 201 246 292 360
#     4  10  18  38  59  86 115 160 198 252 307 355
#
# _framework density 18.017859999999999
#
# number of rings (size 3 to 8) (size 9 to 14) (size 15 to 20)
#    0.000    1.655    4.828    1.241    0.000    2.759 
#    0.000   23.448    0.000    0.000    0.000    0.000 
#    0.000    0.000    0.000    0.000    0.000    0.000 
#
# Total GULP energy -323186.854607 kJ/mol
# GULP energy per Si atom -5572.187148 kJ/mol
# Density = 1.797685 g / cm^3
# Si number density = 18.017860 Si / 1000 Ang^3
#
#
#
# Elastic Constant Matrix: (Units=GPa)
#
#
# Indices 1 2 3 4 5 6 
#
# 1 112.6544 37.7571 32.4071 0.0000 0.0000 0.0000
# 2 37.7571 102.1050 31.5946 0.0000 0.0000 0.0000
# 3 32.4071 31.5946 60.4767 0.0000 0.0000 0.0000
# 4 0.0000 0.0000 0.0000 32.6778 0.0000 0.0000
# 5 0.0000 0.0000 0.0000 0.0000 21.0601 0.0000
# 6 0.0000 0.0000 0.0000 0.0000 0.0000 33.4639
#
#
#
# Elastic Compliance Matrix: (Units=1/GPa)
#
#
# Indices 1 2 3 4 5 6 
#
# 1 0.011084 -0.002697 -0.004531 0.000000 0.000000 0.000000
# 2 -0.002697 0.012339 -0.005001 0.000000 0.000000 0.000000
# 3 -0.004531 -0.005001 0.021576 0.000000 0.000000 0.000000
# 4 0.000000 0.000000 0.000000 0.030602 0.000000 0.000000
# 5 0.000000 0.000000 0.000000 0.000000 0.047483 0.000000
# 6 0.000000 0.000000 0.000000 0.000000 0.000000 0.029883
#
#
# Mechanical properties :
#
#
# Convention : Reuss Voigt Hill
#
# Bulk Modulus (GPa) = 48.68166 53.19487 50.93827
# Shear Modulus (GPa) = 27.13421 29.00553 28.06987
#
# Velocity S-wave (km/s) = 3.88488 4.01661 3.95130
# Velocity P-wave (km/s) = 6.87025 7.14831 7.01066
#
# Compressibility (1/GPa) = 0.02054162
#
# Stress axis : x y z
#
# Youngs Moduli (GPa) = 90.22145 81.04709 46.34865
#
# Poissons Ratio (x) = 0.21857 0.20998
# Poissons Ratio (y) = 0.24331 0.23178
# Poissons Ratio (z) = 0.40875 0.40531
#
# Static dielectric constant tensor:
#      x y z
#    x 1.656410 0.000000 0.000000 
#    y 0.000000 1.635970 0.000000 
#    z 0.000000 0.000000 1.637600 
# 
# From -- ./inp_files/26550.got.cif
#   From: 2010.05.17/outbox.cif.g08.bks.cpg/sg68_14_cif.got.tgz:26550.got - 2010.06.03 18:57:09.
