data_PCOD9505344
_publ_section_title
;
Structure prediction by ZEFSAII (Michael W. Deem and Ramdas Pophale) SiO2 
 PCOD9505344
Probable space group: C C C A
;
_chemical_formula_sum "Si O2"
_cell_formula_units_Z 88
_cell_length_a 21.219994
_cell_length_b 35.654729
_cell_length_c 5.566067
_cell_angle_alpha 90.000000
_cell_angle_beta 90.000000
_cell_angle_gamma 90.000000
_cell_volume 4211.248084
_symmetry_space_group_name_H-M "C C C A"
_symmetry_group_IT_number 68
_space_group.IT_coordinate_system_code '2'
_symmetry_cell_setting 'orthorhombic'
loop_
_space_group_symop_operation_xyz
x,y,z
-x,1/2-y,z
x,1/2-y,1/2-z
-x,y,1/2-z
-x,-y,-z
x,1/2+y,-z
-x,1/2+y,1/2+z
x,-y,1/2+z
1/2+x,1/2+y,z
1/2-x,-y,z
1/2+x,-y,1/2-z
1/2-x,1/2+y,1/2-z
1/2-x,1/2-y,-z
1/2+x,y,-z
1/2-x,y,1/2+z
1/2+x,1/2-y,1/2+z
loop_
_atom_site_type_symbol
_atom_site_label
_atom_site_fract_x
_atom_site_fract_y
_atom_site_fract_z
Si Si1 0.397982 0.712804 0.642569
Si Si2 0.068680 0.634151 0.005182
Si Si3 0.925678 0.895717 0.506664
Si Si4 0.771445 0.176781 0.748046
Si Si5 0.809686 0.750000 0.750000
Si Si6 0.072704 0.485077 0.010427
O O1 0.429728 0.750000 0.750000
O O2 0.438652 0.678908 0.538274
O O3 0.343877 0.689914 0.791689
O O4 0.355632 0.732349 0.442778
O O5 0.100182 0.616922 0.246008
O O6 0.100158 0.623662 0.750097
O O7 0.998972 0.616684 0.998947
O O8 0.924876 0.940366 0.528892
O O9 0.760064 0.157946 0.483857
O O10 0.734898 0.215580 0.684962
O O11 0.100750 0.502191 0.254907
O O12 0.000000 0.500000 0.000000
#
# Coordination Sequence:
#
# PCOD9505344 Si02
#       6
#    16  16  16  16   8  16
#     4  11  20  31  49  68  86 115 175 206 233 287
#     4  10  21  32  51  59  92 132 156 194 242 275
#     4  10  20  38  45  67 100 126 155 186 236 286
#     4  10  17  30  47  68  89 108 132 208 255 283
#     4  10  18  32  48  67  90 109 144 226 246 282
#     4  10  16  26  52  75  86 111 155 187 214 273
#
# _framework density 20.896417
#
# number of rings (size 3 to 8) (size 9 to 14) (size 15 to 20)
#    0.000    1.818    2.727    6.545    2.545    0.000 
#    0.000    1.818    0.000    0.000    0.000    0.000 
#    0.000    0.000    0.000    0.000    0.000  887.273 
#
# Total GULP energy -244950.486035 kJ/mol
# GULP energy per Si atom -5567.056501 kJ/mol
# Density = 2.084886 g / cm^3
# Si number density = 20.896417 Si / 1000 Ang^3
#
#
#
# Elastic Constant Matrix: (Units=GPa)
#
#
# Indices 1 2 3 4 5 6 
#
# 1 25.1983 15.0846 6.5765 0.0000 0.0000 0.0000
# 2 15.0846 158.2909 54.6599 0.0000 0.0000 0.0000
# 3 6.5765 54.6599 189.6038 0.0000 0.0000 0.0000
# 4 0.0000 0.0000 0.0000 26.5457 0.0000 0.0000
# 5 0.0000 0.0000 0.0000 0.0000 0.2513 0.0000
# 6 0.0000 0.0000 0.0000 0.0000 0.0000 1.0833
#
#
#
# Elastic Compliance Matrix: (Units=1/GPa)
#
#
# Indices 1 2 3 4 5 6 
#
# 1 0.042106 -0.003896 -0.000337 0.000000 0.000000 0.000000
# 2 -0.003896 0.007376 -0.001991 0.000000 0.000000 0.000000
# 3 -0.000337 -0.001991 0.005860 0.000000 0.000000 0.000000
# 4 0.000000 0.000000 0.000000 0.037671 0.000000 0.000000
# 5 0.000000 0.000000 0.000000 0.000000 3.978646 0.000000
# 6 0.000000 0.000000 0.000000 0.000000 0.000000 0.923124
#
#
# Mechanical properties :
#
#
# Convention : Reuss Voigt Hill
#
# Bulk Modulus (GPa) = 23.31412 58.41500 40.86456
# Shear Modulus (GPa) = 0.99571 25.36087 13.17829
#
# Velocity S-wave (km/s) = 0.69104 3.48752 2.51400
# Velocity P-wave (km/s) = 3.43772 6.65074 5.29388
#
# Compressibility (1/GPa) = 0.04289247
#
# Stress axis : x y z
#
# Youngs Moduli (GPa) = 23.74986 135.56732 170.65035
#
# Poissons Ratio (x) = 0.52818 0.05756
# Poissons Ratio (y) = 0.09253 0.33983
# Poissons Ratio (z) = 0.00801 0.26996
#
# Static dielectric constant tensor:
#      x y z
#    x 2.141690 0.000000 0.000000 
#    y 0.000000 1.770130 0.000000 
#    z 0.000000 0.000000 2.031980 
# 
# From -- ./inp_files/2459.got.cif
#   From: 2010.05.17/outbox.cif.g08.bks.cpg/sg68_2_cif.got.tgz:2459.got - 2010.06.03 18:57:09.
