data_PCOD9505688
_publ_section_title
;
Structure prediction by ZEFSAII (Michael W. Deem and Ramdas Pophale) SiO2 
 PCOD9505688
Probable space group: C C C A
;
_chemical_formula_sum "Si O2"
_cell_formula_units_Z 88
_cell_length_a 10.661152
_cell_length_b 21.372710
_cell_length_c 19.305667
_cell_angle_alpha 90.000000
_cell_angle_beta 90.000000
_cell_angle_gamma 90.000000
_cell_volume 4398.945072
_symmetry_space_group_name_H-M "C C C A"
_symmetry_group_IT_number 68
_space_group.IT_coordinate_system_code '2'
_symmetry_cell_setting 'orthorhombic'
loop_
_space_group_symop_operation_xyz
x,y,z
-x,1/2-y,z
x,1/2-y,1/2-z
-x,y,1/2-z
-x,-y,-z
x,1/2+y,-z
-x,1/2+y,1/2+z
x,-y,1/2+z
1/2+x,1/2+y,z
1/2-x,-y,z
1/2+x,-y,1/2-z
1/2-x,1/2+y,1/2-z
1/2-x,1/2-y,-z
1/2+x,y,-z
1/2-x,y,1/2+z
1/2+x,1/2-y,1/2+z
loop_
_atom_site_type_symbol
_atom_site_label
_atom_site_fract_x
_atom_site_fract_y
_atom_site_fract_z
Si Si1 0.549325 0.958884 0.063410
Si Si2 0.616229 0.146059 0.473962
Si Si3 0.500000 0.750000 0.431203
Si Si4 0.352424 0.362237 0.873985
Si Si5 0.798272 0.571380 0.236236
Si Si6 0.955219 0.419727 0.861042
O O1 0.437305 0.918115 0.095444
O O2 0.591545 0.011779 0.115847
O O3 0.642619 0.908868 0.029927
O O4 0.500000 0.000000 0.000000
O O5 0.585026 0.208002 0.516992
O O6 0.732421 0.148952 0.422909
O O7 0.497113 0.123383 0.426101
O O8 0.570543 0.799020 0.382471
O O9 0.305635 0.385303 0.799656
O O10 0.750000 0.500000 0.243542
O O11 0.850527 0.601876 0.306811
O O12 0.916452 0.569872 0.182880
#
# Coordination Sequence:
#
# PCOD9505688 Si02
#       6
#    16  16   8  16  16  16
#     4   9  17  31  51  84 120 140 180 240 303 361
#     4   9  19  33  56  84 118 145 195 249 300 343
#     4  10  20  36  56  89 115 154 206 254 286 344
#     4  10  19  34  57  81 114 162 191 241 300 351
#     4  10  18  32  55  79 114 157 190 232 300 363
#     4   9  18  32  51  85 114 149 189 240 295 364
#
# _framework density 20.004797
#
# number of rings (size 3 to 8) (size 9 to 14) (size 15 to 20)
#    0.000    2.545    1.818    0.545    0.000    0.000 
#    9.818    0.000    0.000    8.727    4.727    0.000 
#    0.000    0.000    0.000    0.000    0.000    0.000 
#
# Total GULP energy -245298.970825 kJ/mol
# GULP energy per Si atom -5574.976610 kJ/mol
# Density = 1.995926 g / cm^3
# Si number density = 20.004797 Si / 1000 Ang^3
#
#
#
# Elastic Constant Matrix: (Units=GPa)
#
#
# Indices 1 2 3 4 5 6 
#
# 1 57.1687 32.4679 30.8800 0.0000 0.0000 0.0000
# 2 32.4679 100.8365 37.3158 0.0000 0.0000 0.0000
# 3 30.8800 37.3158 80.9072 0.0000 0.0000 0.0000
# 4 0.0000 0.0000 0.0000 21.3117 0.0000 0.0000
# 5 0.0000 0.0000 0.0000 0.0000 29.3395 0.0000
# 6 0.0000 0.0000 0.0000 0.0000 0.0000 12.0490
#
#
#
# Elastic Compliance Matrix: (Units=1/GPa)
#
#
# Indices 1 2 3 4 5 6 
#
# 1 0.024148 -0.005263 -0.006789 0.000000 0.000000 0.000000
# 2 -0.005263 0.013105 -0.004036 0.000000 0.000000 0.000000
# 3 -0.006789 -0.004036 0.016812 0.000000 0.000000 0.000000
# 4 0.000000 0.000000 0.000000 0.046923 0.000000 0.000000
# 5 0.000000 0.000000 0.000000 0.000000 0.034084 0.000000
# 6 0.000000 0.000000 0.000000 0.000000 0.000000 0.082994
#
#
# Mechanical properties :
#
#
# Convention : Reuss Voigt Hill
#
# Bulk Modulus (GPa) = 45.68279 48.91552 47.29916
# Shear Modulus (GPa) = 19.41453 21.75663 20.58558
#
# Velocity S-wave (km/s) = 3.11865 3.30141 3.21133
# Velocity P-wave (km/s) = 5.98778 6.24799 6.11927
#
# Compressibility (1/GPa) = 0.02189008
#
# Stress axis : x y z
#
# Youngs Moduli (GPa) = 41.41062 76.30653 59.47981
#
# Poissons Ratio (x) = 0.40160 0.40383
# Poissons Ratio (y) = 0.21794 0.24003
# Poissons Ratio (z) = 0.28115 0.30794
#
# Static dielectric constant tensor:
#      x y z
#    x 1.746250 0.000000 0.000000 
#    y 0.000000 1.657440 0.000000 
#    z 0.000000 0.000000 1.721050 
# 
# From -- ./inp_files/29660.got.cif
#   From: 2010.05.17/outbox.cif.g08.bks.cpg/sg68_15_cif.got.tgz:29660.got - 2010.06.03 18:57:09.
