data_PCOD9505246
_publ_section_title
;
Structure prediction by ZEFSAII (Michael W. Deem and Ramdas Pophale) SiO2 
 PCOD9505246
Probable space group: C M M A
;
_chemical_formula_sum "Si O2"
_cell_formula_units_Z 40
_cell_length_a 18.000000
_cell_length_b 27.000000
_cell_length_c 9.000000
_cell_angle_alpha 90.000000
_cell_angle_beta 90.000000
_cell_angle_gamma 90.000000
_cell_volume 4374.000000
_symmetry_space_group_name_H-M "C M M A"
_symmetry_group_IT_number 67
_symmetry_cell_setting 'orthorhombic'
loop_
_space_group_symop_operation_xyz
x,y,z
-x,1/2-y,z
x,-y,-z
-x,1/2+y,-z
-x,-y,-z
x,1/2+y,-z
-x,y,z
x,1/2-y,z
1/2+x,1/2+y,z
1/2-x,-y,z
1/2+x,1/2-y,-z
1/2-x,y,-z
1/2-x,1/2-y,-z
1/2+x,y,-z
1/2-x,1/2+y,z
1/2+x,-y,z
loop_
_atom_site_type_symbol
_atom_site_label
_atom_site_fract_x
_atom_site_fract_y
_atom_site_fract_z
Si Si1 0.324509 0.807172 0.600268
Si Si2 0.329356 0.401966 0.188185
Si Si3 0.911664 0.502760 0.322830
Si Si4 0.588152 0.194005 0.693468
Si Si5 0.347041 0.905132 0.159098
O O1 0.318998 0.750000 0.656928
O O2 0.250000 0.816329 0.500000
O O3 0.336430 0.849764 0.722931
O O4 0.390578 0.809305 0.480136
O O5 0.369622 0.448284 0.265608
O O6 0.240999 0.411385 0.183661
O O7 0.358450 0.401316 0.018474
O O8 0.897914 0.500000 0.500000
O O9 0.885465 0.452655 0.237458
O O10 0.000000 0.508063 0.299609
O O11 0.500000 0.190614 0.714761
O O12 0.612470 0.250000 0.741800
O O13 0.626489 0.147227 0.772033
#
# Coordination Sequence:
#
# PCOD9505246 Si02
#       5
#    16  16  16  16  16
#     4  10  20  38  63  91 121 159 205 253 306 363
#     4  11  24  38  61  91 121 158 201 251 307 368
#     4  11  25  42  62  87 117 159 208 255 305 367
#     4  10  21  38  62  90 121 160 204 249 301 365
#     4  11  23  40  59  89 126 158 199 252 308 368
#
# _framework density 9.1449470000000002
#
# number of rings (size 3 to 8) (size 9 to 14) (size 15 to 20)
#    0.000    1.400    2.000    3.000    0.000    8.000 
#    0.000    2.000    0.000    2.400    0.000    0.000 
#    0.000    0.000    0.000    0.000    0.000    0.000 
#
# Total GULP energy -223325.986373 kJ/mol
# GULP energy per Si atom -5583.149659 kJ/mol
# Density = 0.912413 g / cm^3
# Si number density = 9.144947 Si / 1000 Ang^3
#
#
#
# Elastic Constant Matrix: (Units=GPa)
#
#
# Indices 1 2 3 4 5 6 
#
# 1 71.5979 64.7042 56.4946 0.0000 0.0000 0.0000
# 2 64.7042 214.0868 113.1779 0.0000 0.0000 0.0000
# 3 56.4946 113.1779 137.2100 0.0000 0.0000 0.0000
# 4 0.0000 0.0000 0.0000 30.9095 0.0000 0.0000
# 5 0.0000 0.0000 0.0000 0.0000 23.7893 0.0000
# 6 0.0000 0.0000 0.0000 0.0000 0.0000 35.3119
#
#
#
# Elastic Compliance Matrix: (Units=1/GPa)
#
#
# Indices 1 2 3 4 5 6 
#
# 1 0.021919 -0.003287 -0.006314 0.000000 0.000000 0.000000
# 2 -0.003287 0.008776 -0.005885 0.000000 0.000000 0.000000
# 3 -0.006314 -0.005885 0.014742 0.000000 0.000000 0.000000
# 4 0.000000 0.000000 0.000000 0.032353 0.000000 0.000000
# 5 0.000000 0.000000 0.000000 0.000000 0.042036 0.000000
# 6 0.000000 0.000000 0.000000 0.000000 0.000000 0.028319
#
#
# Mechanical properties :
#
#
# Convention : Reuss Voigt Hill
#
# Bulk Modulus (GPa) = 69.13150 99.07199 84.10175
# Shear Modulus (GPa) = 27.18305 30.57002 28.87654
#
# Velocity S-wave (km/s) = 3.85935 4.09273 3.97775
# Velocity P-wave (km/s) = 7.59863 8.75324 8.19629
#
# Compressibility (1/GPa) = 0.01446518
#
# Stress axis : x y z
#
# Youngs Moduli (GPa) = 45.62203 113.95089 67.83250
#
# Poissons Ratio (x) = 0.37455 0.42828
# Poissons Ratio (y) = 0.14996 0.39921
# Poissons Ratio (z) = 0.28805 0.67063
#
# Static dielectric constant tensor:
#      x y z
#    x 1.637250 0.000000 0.000000 
#    y 0.000000 1.615610 0.000000 
#    z 0.000000 0.000000 1.624980 
# 
# From -- ./inp_files/9978.got.cif
#   From: 2010.05.17/outbox.ucp.g08.bks.cvg/sg67_5_cif.got.tgz:9978.got - 2010.06.11 16:47:20.
