data_PCOD9505566
_publ_section_title
;
Structure prediction by ZEFSAII (Michael W. Deem and Ramdas Pophale) SiO2 
 PCOD9505566
Probable space group: C C C A
;
_chemical_formula_sum "Si O2"
_cell_formula_units_Z 64
_cell_length_a 13.990499
_cell_length_b 5.315169
_cell_length_c 33.927777
_cell_angle_alpha 90.000000
_cell_angle_beta 90.000000
_cell_angle_gamma 90.000000
_cell_volume 2522.932827
_symmetry_space_group_name_H-M "C C C A"
_symmetry_group_IT_number 68
_space_group.IT_coordinate_system_code '2'
_symmetry_cell_setting 'orthorhombic'
loop_
_space_group_symop_operation_xyz
x,y,z
-x,1/2-y,z
x,1/2-y,1/2-z
-x,y,1/2-z
-x,-y,-z
x,1/2+y,-z
-x,1/2+y,1/2+z
x,-y,1/2+z
1/2+x,1/2+y,z
1/2-x,-y,z
1/2+x,-y,1/2-z
1/2-x,1/2+y,1/2-z
1/2-x,1/2-y,-z
1/2+x,y,-z
1/2-x,y,1/2+z
1/2+x,1/2-y,1/2+z
loop_
_atom_site_type_symbol
_atom_site_label
_atom_site_fract_x
_atom_site_fract_y
_atom_site_fract_z
Si Si1 0.634528 0.700248 0.640194
Si Si2 0.648902 0.290064 0.889835
Si Si3 0.134548 0.503911 0.272899
Si Si4 0.115445 0.763524 0.977653
O O1 0.602889 0.486910 0.609892
O O2 0.748272 0.747126 0.631545
O O3 0.612660 0.568180 0.681773
O O4 0.598515 0.983071 0.633665
O O5 0.656424 0.349791 0.935618
O O6 0.104319 0.250000 0.250000
O O7 0.250000 0.500000 0.271608
O O8 0.102513 0.750000 0.250000
O O9 0.000000 0.750000 0.974072
O O10 0.142158 0.482951 0.991518
#
# Coordination Sequence:
#
# PCOD9505566 Si02
#       4
#    16  16  16  16
#     4  10  19  32  46  73 109 132 160 199 245 300
#     4  10  19  32  50  70 100 135 158 201 256 294
#     4  10  18  26  43  66 100 138 165 190 226 281
#     4  10  21  38  56  73  94 125 171 218 252 292
#
# _framework density 25.367303
#
# number of rings (size 3 to 8) (size 9 to 14) (size 15 to 20)
#    0.000    2.000    2.500    3.000    7.000    0.000 
#    0.000   15.000    0.000    0.000    0.000    0.000 
#    0.000   28.000    0.000    0.000    0.000    0.000 
#
# Total GULP energy -178634.991693 kJ/mol
# GULP energy per Si atom -5582.343490 kJ/mol
# Density = 2.530957 g / cm^3
# Si number density = 25.367303 Si / 1000 Ang^3
#
#
#
# Elastic Constant Matrix: (Units=GPa)
#
#
# Indices 1 2 3 4 5 6 
#
# 1 112.2045 -1.1652 2.2545 0.0000 0.0000 0.0000
# 2 -1.1652 242.7420 50.2648 0.0000 0.0000 0.0000
# 3 2.2545 50.2648 149.8897 0.0000 0.0000 0.0000
# 4 0.0000 0.0000 0.0000 63.2564 0.0000 0.0000
# 5 0.0000 0.0000 0.0000 0.0000 32.3432 0.0000
# 6 0.0000 0.0000 0.0000 0.0000 0.0000 -38.8162
#
#
#
# Elastic Compliance Matrix: (Units=1/GPa)
#
#
# Indices 1 2 3 4 5 6 
#
# 1 0.008916 0.000076 -0.000160 0.000000 0.000000 0.000000
# 2 0.000076 0.004428 -0.001486 0.000000 0.000000 0.000000
# 3 -0.000160 -0.001486 0.007172 0.000000 0.000000 0.000000
# 4 0.000000 0.000000 0.000000 0.015809 0.000000 0.000000
# 5 0.000000 0.000000 0.000000 0.000000 0.030918 0.000000
# 6 0.000000 0.000000 0.000000 0.000000 0.000000 -0.025762
#
#
# Mechanical properties :
#
#
# Convention : Reuss Voigt Hill
#
# Bulk Modulus (GPa) = 57.54751 67.50491 62.52621
# Shear Modulus (GPa) = 99.18177 41.58881 70.38529
#
# Velocity S-wave (km/s) = 6.25964 4.05342 5.27321
# Velocity P-wave (km/s) = 8.65905 6.96963 7.85986
#
# Compressibility (1/GPa) = 0.01737695
#
# Stress axis : x y z
#
# Youngs Moduli (GPa) = 112.15425 225.85301 139.42580
#
# Poissons Ratio (x) = -0.01713 0.02224
# Poissons Ratio (y) = -0.00851 0.20718
# Poissons Ratio (z) = 0.01789 0.33560
#
# Static dielectric constant tensor:
#      x y z
#    x -1.271120 0.000000 0.000000 
#    y 0.000000 2.089880 0.000000 
#    z 0.000000 0.000000 2.099300 
# 
# From -- ./inp_files/48102.got.cif
#   From: 2010.05.17/outbox.cif.g08.bks.cpg/sg68_25_cif.got.tgz:48102.got - 2010.06.03 18:57:09.
