data_PCOD9505484
_publ_section_title
;
Structure prediction by ZEFSAII (Michael W. Deem and Ramdas Pophale) SiO2 
 PCOD9505484
Probable space group: C C C A
;
_chemical_formula_sum "Si O2"
_cell_formula_units_Z 92
_cell_length_a 19.076520
_cell_length_b 10.279140
_cell_length_c 26.013774
_cell_angle_alpha 90.000000
_cell_angle_beta 90.000000
_cell_angle_gamma 90.000000
_cell_volume 5101.046661
_symmetry_space_group_name_H-M "C C C A"
_symmetry_group_IT_number 68
_space_group.IT_coordinate_system_code '2'
_symmetry_cell_setting 'orthorhombic'
loop_
_space_group_symop_operation_xyz
x,y,z
-x,1/2-y,z
x,1/2-y,1/2-z
-x,y,1/2-z
-x,-y,-z
x,1/2+y,-z
-x,1/2+y,1/2+z
x,-y,1/2+z
1/2+x,1/2+y,z
1/2-x,-y,z
1/2+x,-y,1/2-z
1/2-x,1/2+y,1/2-z
1/2-x,1/2-y,-z
1/2+x,y,-z
1/2-x,y,1/2+z
1/2+x,1/2-y,1/2+z
loop_
_atom_site_type_symbol
_atom_site_label
_atom_site_fract_x
_atom_site_fract_y
_atom_site_fract_z
Si Si1 0.699583 0.876931 0.502955
Si Si2 0.306963 0.158438 0.845475
Si Si3 0.000000 0.750000 0.250000
Si Si4 0.737124 0.250000 0.250000
Si Si5 0.114104 0.840324 0.176992
Si Si6 0.152288 0.104903 0.888035
Si Si7 0.828159 0.063434 0.388384
O O1 0.750000 0.750000 0.500000
O O2 0.646923 0.875063 0.551086
O O3 0.662882 0.902054 0.448345
O O4 0.750000 0.000000 0.512480
O O5 0.284660 0.157472 0.785675
O O6 0.233529 0.142870 0.876053
O O7 0.333520 0.301778 0.857960
O O8 0.354351 0.040670 0.865863
O O9 0.049838 0.840221 0.215630
O O10 0.685066 0.327364 0.211603
O O11 0.108524 0.707344 0.144451
O O12 0.121869 0.957859 0.137529
O O13 0.750000 0.000000 0.384941
#
# Coordination Sequence:
#
# PCOD9505484 Si02
#       7
#    16  16   4   8  16  16  16
#     4  11  17  27  46  76 120 152 164 199 273 348
#     4  10  18  27  43  73 114 138 167 206 268 328
#     4  10  24  44  60  74  96 152 202 244 280 308
#     4   9  18  29  44  68  98 137 169 218 260 307
#     4  10  21  35  55  72  99 140 195 233 264 322
#     4  10  17  30  46  76 108 146 166 208 264 332
#     4  11  18  29  49  83 114 142 176 220 269 343
#
# _framework density 18.035513999999999
#
# number of rings (size 3 to 8) (size 9 to 14) (size 15 to 20)
#    0.000    1.739    6.957    1.043    0.000    6.957 
#    0.000    0.000    0.000    3.130    0.000    0.000 
#    0.000    0.000    0.000    0.000    0.000    0.000 
#
# Total GULP energy -256449.865214 kJ/mol
# GULP energy per Si atom -5574.997070 kJ/mol
# Density = 1.799446 g / cm^3
# Si number density = 18.035514 Si / 1000 Ang^3
#
#
#
# Elastic Constant Matrix: (Units=GPa)
#
#
# Indices 1 2 3 4 5 6 
#
# 1 27.3634 22.1757 32.4870 0.0000 0.0000 0.0000
# 2 22.1757 136.3184 54.0349 0.0000 0.0000 0.0000
# 3 32.4870 54.0349 156.4552 0.0000 0.0000 0.0000
# 4 0.0000 0.0000 0.0000 -20.0490 0.0000 0.0000
# 5 0.0000 0.0000 0.0000 0.0000 19.9462 0.0000
# 6 0.0000 0.0000 0.0000 0.0000 0.0000 4.6477
#
#
#
# Elastic Compliance Matrix: (Units=1/GPa)
#
#
# Indices 1 2 3 4 5 6 
#
# 1 0.051027 -0.004751 -0.008954 0.000000 0.000000 0.000000
# 2 -0.004751 0.008942 -0.002102 0.000000 0.000000 0.000000
# 3 -0.008954 -0.002102 0.008977 0.000000 0.000000 0.000000
# 4 0.000000 0.000000 0.000000 -0.049878 0.000000 0.000000
# 5 0.000000 0.000000 0.000000 0.000000 0.050135 0.000000
# 6 0.000000 0.000000 0.000000 0.000000 0.000000 0.215162
#
#
# Mechanical properties :
#
#
# Convention : Reuss Voigt Hill
#
# Bulk Modulus (GPa) = 26.78774 59.72579 43.25676
# Shear Modulus (GPa) = 15.22426 15.00495 15.11460
#
# Velocity S-wave (km/s) = 2.90854 2.88751 2.89804
# Velocity P-wave (km/s) = 5.11512 6.65616 5.93587
#
# Compressibility (1/GPa) = 0.03733051
#
# Stress axis : x y z
#
# Youngs Moduli (GPa) = 19.59750 111.83484 111.39872
#
# Poissons Ratio (x) = 0.53138 0.99751
# Poissons Ratio (y) = 0.09312 0.23412
# Poissons Ratio (z) = 0.17548 0.23503
#
# Static dielectric constant tensor:
#      x y z
#    x 1.586050 0.000000 0.000000 
#    y 0.000000 1.640220 0.000000 
#    z 0.000000 0.000000 1.693470 
# 
# From -- ./inp_files/46035.got.cif
#   From: 2010.05.17/outbox.cif.g08.bks.cpg/sg68_24_cif.got.tgz:46035.got - 2010.06.03 18:57:09.
