data_PCOD9505953
_publ_section_title
;
Structure prediction by ZEFSAII (Michael W. Deem and Ramdas Pophale) SiO2 
 PCOD9505953
Probable space group: C C C A
;
_chemical_formula_sum "Si O2"
_cell_formula_units_Z 64
_cell_length_a 23.587309
_cell_length_b 18.929379
_cell_length_c 5.565022
_cell_angle_alpha 90.000000
_cell_angle_beta 90.000000
_cell_angle_gamma 90.000000
_cell_volume 2484.743989
_symmetry_space_group_name_H-M "C C C A"
_symmetry_group_IT_number 68
_space_group.IT_coordinate_system_code '2'
_symmetry_cell_setting 'orthorhombic'
loop_
_space_group_symop_operation_xyz
x,y,z
-x,1/2-y,z
x,1/2-y,1/2-z
-x,y,1/2-z
-x,-y,-z
x,1/2+y,-z
-x,1/2+y,1/2+z
x,-y,1/2+z
1/2+x,1/2+y,z
1/2-x,-y,z
1/2+x,-y,1/2-z
1/2-x,1/2+y,1/2-z
1/2-x,1/2-y,-z
1/2+x,y,-z
1/2-x,y,1/2+z
1/2+x,1/2-y,1/2+z
loop_
_atom_site_type_symbol
_atom_site_label
_atom_site_fract_x
_atom_site_fract_y
_atom_site_fract_z
Si Si1 0.352253 0.504202 0.315280
Si Si2 0.600912 0.850734 0.823137
Si Si3 0.561852 0.866069 0.314141
Si Si4 0.230150 0.170054 0.553584
O O1 0.319875 0.501775 0.565599
O O2 0.395277 0.436833 0.323690
O O3 0.390190 0.573822 0.317158
O O4 0.568986 0.831919 0.577187
O O5 0.574839 0.822952 0.071456
O O6 0.666840 0.830391 0.841150
O O7 0.500000 0.895943 0.250000
O O8 0.250000 0.250000 0.500000
O O9 0.266053 0.139257 0.780055
#
# Coordination Sequence:
#
# PCOD9505953 Si02
#       4
#    16  16  16  16
#     4   8  16  27  44  69 108 149 182 212 253 310
#     4  10  19  32  52  79 112 143 187 236 269 326
#     4  10  19  31  51  81 119 158 185 210 262 335
#     4  10  21  38  60  83 101 132 187 247 303 341
#
# _framework density 25.757180999999999
#
# number of rings (size 3 to 8) (size 9 to 14) (size 15 to 20)
#    0.000    2.500    0.000    2.250    0.000    9.000 
#    0.000    0.000    0.000   40.500    0.000   52.500 
#    0.000    0.000    0.000    0.000    0.000    0.000 
#
# Total GULP energy -178444.480141 kJ/mol
# GULP energy per Si atom -5576.390004 kJ/mol
# Density = 2.569856 g / cm^3
# Si number density = 25.757181 Si / 1000 Ang^3
#
#
#
# Elastic Constant Matrix: (Units=GPa)
#
#
# Indices 1 2 3 4 5 6 
#
# 1 105.1392 -11.5560 38.0957 0.0000 0.0000 0.0000
# 2 -11.5560 59.4173 11.1276 0.0000 0.0000 0.0000
# 3 38.0957 11.1276 360.8213 0.0000 0.0000 0.0000
# 4 0.0000 0.0000 0.0000 15.7752 0.0000 0.0000
# 5 0.0000 0.0000 0.0000 0.0000 34.5238 0.0000
# 6 0.0000 0.0000 0.0000 0.0000 0.0000 98.1023
#
#
#
# Elastic Compliance Matrix: (Units=1/GPa)
#
#
# Indices 1 2 3 4 5 6 
#
# 1 0.010165 0.002191 -0.001141 0.000000 0.000000 0.000000
# 2 0.002191 0.017400 -0.000768 0.000000 0.000000 0.000000
# 3 -0.001141 -0.000768 0.002916 0.000000 0.000000 0.000000
# 4 0.000000 0.000000 0.000000 0.063391 0.000000 0.000000
# 5 0.000000 0.000000 0.000000 0.000000 0.028966 0.000000
# 6 0.000000 0.000000 0.000000 0.000000 0.000000 0.010193
#
#
# Mechanical properties :
#
#
# Convention : Reuss Voigt Hill
#
# Bulk Modulus (GPa) = 32.21146 66.74585 49.47866
# Shear Modulus (GPa) = 35.01038 62.19429 48.60234
#
# Velocity S-wave (km/s) = 3.69080 4.91923 4.34861
# Velocity P-wave (km/s) = 5.54036 7.63117 6.66822
#
# Compressibility (1/GPa) = 0.03104485
#
# Stress axis : x y z
#
# Youngs Moduli (GPa) = 98.37341 57.47131 342.98428
#
# Poissons Ratio (x) = -0.12590 0.39128
# Poissons Ratio (y) = -0.21551 0.26338
# Poissons Ratio (z) = 0.11223 0.04413
#
# Static dielectric constant tensor:
#      x y z
#    x 1.990430 0.000000 0.000000 
#    y 0.000000 2.055400 0.000000 
#    z 0.000000 0.000000 2.261860 
# 
# From -- ./inp_files/1399.got.cif
#   From: 2010.05.17/outbox.cif.g08.bks.cpg/sg68_1_cif.got.tgz:1399.got - 2010.06.03 18:57:09.
