data_PCOD9505186
_publ_section_title
;
Structure prediction by ZEFSAII (Michael W. Deem and Ramdas Pophale) SiO2 
 PCOD9505186
Probable space group: C M M A
;
_chemical_formula_sum "Si O2"
_cell_formula_units_Z 56
_cell_length_a 15.000000
_cell_length_b 30.000000
_cell_length_c 12.000000
_cell_angle_alpha 90.000000
_cell_angle_beta 90.000000
_cell_angle_gamma 90.000000
_cell_volume 5400.000000
_symmetry_space_group_name_H-M "C M M A"
_symmetry_group_IT_number 67
_symmetry_cell_setting 'orthorhombic'
loop_
_space_group_symop_operation_xyz
x,y,z
-x,1/2-y,z
x,-y,-z
-x,1/2+y,-z
-x,-y,-z
x,1/2+y,-z
-x,y,z
x,1/2-y,z
1/2+x,1/2+y,z
1/2-x,-y,z
1/2+x,1/2-y,-z
1/2-x,y,-z
1/2-x,1/2-y,-z
1/2+x,y,-z
1/2-x,1/2+y,z
1/2+x,-y,z
loop_
_atom_site_type_symbol
_atom_site_label
_atom_site_fract_x
_atom_site_fract_y
_atom_site_fract_z
Si Si1 0.603827 0.562814 0.294836
Si Si2 0.790684 0.329699 0.846295
Si Si3 0.103392 0.197500 0.067509
Si Si4 0.761637 0.067106 0.871856
Si Si5 0.607845 0.109763 0.489710
Si Si6 0.393469 0.199400 0.372853
Si Si7 0.603961 0.037684 0.305225
O O1 0.500000 0.571789 0.268339
O O2 0.666600 0.565215 0.188784
O O3 0.639957 0.595896 0.388992
O O4 0.607592 0.513085 0.347231
O O5 0.684267 0.320206 0.854763
O O6 0.798060 0.382581 0.861309
O O7 0.834486 0.311025 0.734979
O O8 0.850604 0.309628 0.946609
O O9 0.097265 0.250000 0.088020
O O10 0.000000 0.179936 0.074500
O O11 0.832930 0.039025 0.802100
O O12 0.750000 0.054983 0.000000
O O13 0.500000 0.105425 0.494113
O O14 0.628919 0.160223 0.458783
O O15 0.635457 0.074418 0.394565
O O16 0.500000 0.195066 0.346302
O O17 0.378899 0.250000 0.411524
O O18 0.500000 0.047225 0.277841
#
# Coordination Sequence:
#
# PCOD9505186 Si02
#       7
#    16  16  16  16  16  16  16
#     4  10  23  42  65  92 125 165 208 263 325 387
#     4  11  20  36  54  85 127 168 210 262 313 377
#     4  10  20  34  56  84 116 164 224 275 318 369
#     4  12  25  41  59  91 128 170 213 261 312 383
#     4   9  18  37  65  96 128 159 205 263 318 378
#     4  10  19  33  61  98 131 165 205 254 315 381
#     4  10  21  40  66  94 124 163 212 266 323 377
#
# _framework density 10.370369999999999
#
# number of rings (size 3 to 8) (size 9 to 14) (size 15 to 20)
#    0.000    1.714    2.857    3.000    0.000    6.286 
#    0.000    2.857    0.000    3.429    0.000    2.000 
#    0.000    0.000    0.000    0.000    0.000    0.000 
#
# Total GULP energy -312677.351663 kJ/mol
# GULP energy per Si atom -5583.524137 kJ/mol
# Density = 1.034677 g / cm^3
# Si number density = 10.370370 Si / 1000 Ang^3
#
#
#
# Elastic Constant Matrix: (Units=GPa)
#
#
# Indices 1 2 3 4 5 6 
#
# 1 113.1558 23.8230 53.1224 0.0000 0.0000 0.0000
# 2 23.8230 92.5873 47.1785 0.0000 0.0000 0.0000
# 3 53.1224 47.1785 126.0211 0.0000 0.0000 0.0000
# 4 0.0000 0.0000 0.0000 19.9120 0.0000 0.0000
# 5 0.0000 0.0000 0.0000 0.0000 21.7043 0.0000
# 6 0.0000 0.0000 0.0000 0.0000 0.0000 26.3572
#
#
#
# Elastic Compliance Matrix: (Units=1/GPa)
#
#
# Indices 1 2 3 4 5 6 
#
# 1 0.011043 -0.000580 -0.004438 0.000000 0.000000 0.000000
# 2 -0.000580 0.013377 -0.004763 0.000000 0.000000 0.000000
# 3 -0.004438 -0.004763 0.011589 0.000000 0.000000 0.000000
# 4 0.000000 0.000000 0.000000 0.050221 0.000000 0.000000
# 5 0.000000 0.000000 0.000000 0.000000 0.046074 0.000000
# 6 0.000000 0.000000 0.000000 0.000000 0.000000 0.037940
#
#
# Mechanical properties :
#
#
# Convention : Reuss Voigt Hill
#
# Bulk Modulus (GPa) = 60.80323 64.44579 62.62451
# Shear Modulus (GPa) = 25.60306 27.43739 26.52022
#
# Velocity S-wave (km/s) = 3.51726 3.64108 3.57971
# Velocity P-wave (km/s) = 6.77306 6.98685 6.88079
#
# Compressibility (1/GPa) = 0.01644649
#
# Stress axis : x y z
#
# Youngs Moduli (GPa) = 90.55611 74.75441 86.28736
#
# Poissons Ratio (x) = 0.04336 0.38293
# Poissons Ratio (y) = 0.05253 0.41103
# Poissons Ratio (z) = 0.40187 0.35609
#
# Static dielectric constant tensor:
#      x y z
#    x 1.741010 0.000000 0.000000 
#    y 0.000000 1.778400 0.000000 
#    z 0.000000 0.000000 1.736420 
# 
# From -- ./inp_files/18659.got.cif
#   From: 2010.05.17/outbox.ucp.g08.bks.cvg/sg67_10_cif.got.tgz:18659.got - 2010.06.11 16:47:20.
