data_PCOD9505100
_publ_section_title
;
Structure prediction by ZEFSAII (Michael W. Deem and Ramdas Pophale) SiO2 
 PCOD9505100
Probable space group: C M M A
;
_chemical_formula_sum "Si O2"
_cell_formula_units_Z 96
_cell_length_a 14.073558
_cell_length_b 14.529039
_cell_length_c 18.530711
_cell_angle_alpha 90.000000
_cell_angle_beta 90.000000
_cell_angle_gamma 90.000000
_cell_volume 3789.072192
_symmetry_space_group_name_H-M "C M M A"
_symmetry_group_IT_number 67
_symmetry_cell_setting 'orthorhombic'
loop_
_space_group_symop_operation_xyz
x,y,z
-x,1/2-y,z
x,-y,-z
-x,1/2+y,-z
-x,-y,-z
x,1/2+y,-z
-x,y,z
x,1/2-y,z
1/2+x,1/2+y,z
1/2-x,-y,z
1/2+x,1/2-y,-z
1/2-x,y,-z
1/2-x,1/2-y,-z
1/2+x,y,-z
1/2-x,1/2+y,z
1/2+x,-y,z
loop_
_atom_site_type_symbol
_atom_site_label
_atom_site_fract_x
_atom_site_fract_y
_atom_site_fract_z
Si Si1 0.383546 0.651622 0.867599
Si Si2 0.139065 0.896349 0.513541
Si Si3 0.892630 0.152402 0.641569
Si Si4 0.891084 0.607544 0.976789
Si Si5 0.883703 0.946624 0.825101
Si Si6 0.613956 0.945677 0.331387
O O1 0.500000 0.648467 0.869312
O O2 0.356786 0.750000 0.834354
O O3 0.355637 0.554654 0.831963
O O4 0.350196 0.651529 0.951210
O O5 0.250000 0.892322 0.500000
O O6 0.098669 0.844006 0.445414
O O7 0.128003 0.881711 0.598683
O O8 0.104392 0.000000 0.500000
O O9 0.847081 0.250000 0.663511
O O10 0.000000 0.151289 0.672655
O O11 0.848694 0.051388 0.656905
O O12 0.849866 0.607731 0.896169
O O13 0.000000 0.640435 0.970750
O O14 0.893817 0.500000 0.000000
O O15 0.000000 0.944668 0.829162
O O16 0.854206 0.911203 0.746767
O O17 0.500000 0.955964 0.327519
#
# Coordination Sequence:
#
# PCOD9505100 Si02
#       6
#    16  16  16  16  16  16
#     4   8  12  17  27  45  70 101 136 170 200 233
#     4   9  17  29  44  60  78 105 142 175 206 248
#     4   9  17  28  42  61  83 104 128 164 212 263
#     4   7  10  17  27  40  62  95 133 163 188 228
#     4   8  13  20  31  48  71 101 136 171 205 240
#     4   9  16  26  41  60  82 109 140 177 219 255
#
# _framework density 25.336016000000001
#
# number of rings (size 3 to 8) (size 9 to 14) (size 15 to 20)
#    0.000    3.667    0.000    2.500    0.000    3.000 
#    0.000    3.333    0.000    1.000    0.000    4.667 
#    0.000    0.000    0.000  108.000    0.000  136.167 
#
# Total GULP energy -267559.345106 kJ/mol
# GULP energy per Si atom -5574.153023 kJ/mol
# Density = 2.527835 g / cm^3
# Si number density = 25.336016 Si / 1000 Ang^3
#
#
#
# Elastic Constant Matrix: (Units=GPa)
#
#
# Indices 1 2 3 4 5 6 
#
# 1 70.5734 2.1327 13.4454 0.0000 0.0000 0.0000
# 2 2.1327 55.6765 -0.4530 0.0000 0.0000 0.0000
# 3 13.4454 -0.4530 204.1007 0.0000 0.0000 0.0000
# 4 0.0000 0.0000 0.0000 -3.6574 0.0000 0.0000
# 5 0.0000 0.0000 0.0000 0.0000 16.6759 0.0000
# 6 0.0000 0.0000 0.0000 0.0000 0.0000 -1.5270
#
#
#
# Elastic Compliance Matrix: (Units=1/GPa)
#
#
# Indices 1 2 3 4 5 6 
#
# 1 0.014367 -0.000558 -0.000948 0.000000 0.000000 0.000000
# 2 -0.000558 0.017983 0.000077 0.000000 0.000000 0.000000
# 3 -0.000948 0.000077 0.004962 0.000000 0.000000 0.000000
# 4 0.000000 0.000000 0.000000 -0.273418 0.000000 0.000000
# 5 0.000000 0.000000 0.000000 0.000000 0.059967 0.000000
# 6 0.000000 0.000000 0.000000 0.000000 0.000000 -0.654872
#
#
# Mechanical properties :
#
#
# Convention : Reuss Voigt Hill
#
# Bulk Modulus (GPa) = 29.02420 40.06675 34.54547
# Shear Modulus (GPa) = -6.12244 23.31333 8.59545
#
# Velocity S-wave (km/s) = -1.55619 3.03671 1.84389
# Velocity P-wave (km/s) = 2.87256 5.30509 4.26589
#
# Compressibility (1/GPa) = 0.03445401
#
# Stress axis : x y z
#
# Youngs Moduli (GPa) = 69.60364 55.60838 201.52587
#
# Poissons Ratio (x) = 0.03103 0.19098
# Poissons Ratio (y) = 0.03884 -0.01545
# Poissons Ratio (z) = 0.06596 -0.00426
#
# Static dielectric constant tensor:
#      x y z
#    x 2.063480 0.000000 0.000000 
#    y 0.000000 1.993660 0.000000 
#    z 0.000000 0.000000 2.032970 
# 
# From -- ./inp_files/34230.got.cif
#   From: 2010.05.17/outbox.cif.g08.bks.cpg/sg67_18_cif.got.tgz:34230.got - 2010.06.03 18:28:57.
