data_PCOD9505897
_publ_section_title
;
Structure prediction by ZEFSAII (Michael W. Deem and Ramdas Pophale) SiO2 
 PCOD9505897
Probable space group: C C C A
;
_chemical_formula_sum "Si O2"
_cell_formula_units_Z 72
_cell_length_a 26.774853
_cell_length_b 8.413579
_cell_length_c 13.971769
_cell_angle_alpha 90.000000
_cell_angle_beta 90.000000
_cell_angle_gamma 90.000000
_cell_volume 3147.453110
_symmetry_space_group_name_H-M "C C C A"
_symmetry_group_IT_number 68
_space_group.IT_coordinate_system_code '2'
_symmetry_cell_setting 'orthorhombic'
loop_
_space_group_symop_operation_xyz
x,y,z
-x,1/2-y,z
x,1/2-y,1/2-z
-x,y,1/2-z
-x,-y,-z
x,1/2+y,-z
-x,1/2+y,1/2+z
x,-y,1/2+z
1/2+x,1/2+y,z
1/2-x,-y,z
1/2+x,-y,1/2-z
1/2-x,1/2+y,1/2-z
1/2-x,1/2-y,-z
1/2+x,y,-z
1/2-x,y,1/2+z
1/2+x,1/2-y,1/2+z
loop_
_atom_site_type_symbol
_atom_site_label
_atom_site_fract_x
_atom_site_fract_y
_atom_site_fract_z
Si Si1 0.500000 0.750000 0.250000
Si Si2 0.573245 0.495611 0.328184
Si Si3 0.351166 0.442232 0.348195
Si Si4 0.263310 0.250000 0.250000
Si Si5 0.250000 0.500000 0.607058
Si Si6 0.852764 0.626893 0.475154
Si Si7 0.500000 0.750000 0.750000
O O1 0.537890 0.646633 0.313847
O O2 0.610437 0.465492 0.238372
O O3 0.606174 0.482384 0.422515
O O4 0.534381 0.352804 0.318794
O O5 0.299644 0.380673 0.300034
O O6 0.354449 0.601233 0.411509
O O7 0.360219 0.296677 0.423208
O O8 0.233826 0.349479 0.171733
O O9 0.202678 0.436672 0.550078
#
# Coordination Sequence:
#
# PCOD9505897 Si02
#       7
#     4  16  16   8   8  16   4
#     4  10  28  36  74 104 120 172 230 274 358 396
#     4  11  21  47  65  98 134 172 221 279 341 398
#     4  11  22  43  67  93 138 177 219 271 332 388
#     4  10  21  41  64  95 130 187 217 265 328 386
#     4  10  22  40  64 102 132 182 224 262 332 390
#     4  11  24  40  67  99 134 179 224 270 329 397
#     4  10  18  42  82  76 128 188 204 284 346 396
#
# _framework density 22.875639
#
# number of rings (size 3 to 8) (size 9 to 14) (size 15 to 20)
#    0.000    1.333    6.667    0.000    3.111    7.111 
#    0.000    6.667    0.000    0.000    0.000    0.000 
#    0.000    0.000    0.000    0.000    0.000    0.000 
#
# Total GULP energy -201125.201671 kJ/mol
# GULP energy per Si atom -5586.811158 kJ/mol
# Density = 2.282357 g / cm^3
# Si number density = 22.875639 Si / 1000 Ang^3
#
#
#
# Elastic Constant Matrix: (Units=GPa)
#
#
# Indices 1 2 3 4 5 6 
#
# 1 80.4971 34.2075 22.5865 0.0000 0.0000 0.0000
# 2 34.2075 53.3522 9.7285 0.0000 0.0000 0.0000
# 3 22.5865 9.7285 78.4522 0.0000 0.0000 0.0000
# 4 0.0000 0.0000 0.0000 -7.6320 0.0000 0.0000
# 5 0.0000 0.0000 0.0000 0.0000 -0.1242 0.0000
# 6 0.0000 0.0000 0.0000 0.0000 0.0000 16.9911
#
#
#
# Elastic Compliance Matrix: (Units=1/GPa)
#
#
# Indices 1 2 3 4 5 6 
#
# 1 0.018156 -0.010935 -0.003871 0.000000 0.000000 0.000000
# 2 -0.010935 0.025763 -0.000047 0.000000 0.000000 0.000000
# 3 -0.003871 -0.000047 0.013867 0.000000 0.000000 0.000000
# 4 0.000000 0.000000 0.000000 -0.131027 0.000000 0.000000
# 5 0.000000 0.000000 0.000000 0.000000 -8.053195 0.000000
# 6 0.000000 0.000000 0.000000 0.000000 0.000000 0.058854
#
#
# Mechanical properties :
#
#
# Convention : Reuss Voigt Hill
#
# Bulk Modulus (GPa) = 35.61197 38.37181 36.99189
# Shear Modulus (GPa) = -0.62278 11.56559 5.47140
#
# Velocity S-wave (km/s) = -0.52234 2.25096 1.54822
# Velocity P-wave (km/s) = 3.90354 4.85451 4.40477
#
# Compressibility (1/GPa) = 0.02808045
#
# Stress axis : x y z
#
# Youngs Moduli (GPa) = 55.07865 38.81542 72.11421
#
# Poissons Ratio (x) = 0.42445 0.27916
# Poissons Ratio (y) = 0.60228 0.00336
# Poissons Ratio (z) = 0.21322 0.00181
#
# Static dielectric constant tensor:
#      x y z
#    x 1.814860 0.000000 0.000000 
#    y 0.000000 1.959270 0.000000 
#    z 0.000000 0.000000 1.770650 
# 
# From -- ./inp_files/19538.got.cif
#   From: 2010.05.17/outbox.cif.g08.bks.cpg/sg68_10_cif.got.tgz:19538.got - 2010.06.03 18:57:09.
