data_PCOD9505867
_publ_section_title
;
Structure prediction by ZEFSAII (Michael W. Deem and Ramdas Pophale) SiO2 
 PCOD9505867
Probable space group: C C C A
;
_chemical_formula_sum "Si O2"
_cell_formula_units_Z 112
_cell_length_a 13.335330
_cell_length_b 23.832858
_cell_length_c 17.475032
_cell_angle_alpha 90.000000
_cell_angle_beta 90.000000
_cell_angle_gamma 90.000000
_cell_volume 5553.897654
_symmetry_space_group_name_H-M "C C C A"
_symmetry_group_IT_number 68
_space_group.IT_coordinate_system_code '2'
_symmetry_cell_setting 'orthorhombic'
loop_
_space_group_symop_operation_xyz
x,y,z
-x,1/2-y,z
x,1/2-y,1/2-z
-x,y,1/2-z
-x,-y,-z
x,1/2+y,-z
-x,1/2+y,1/2+z
x,-y,1/2+z
1/2+x,1/2+y,z
1/2-x,-y,z
1/2+x,-y,1/2-z
1/2-x,1/2+y,1/2-z
1/2-x,1/2-y,-z
1/2+x,y,-z
1/2-x,y,1/2+z
1/2+x,1/2-y,1/2+z
loop_
_atom_site_type_symbol
_atom_site_label
_atom_site_fract_x
_atom_site_fract_y
_atom_site_fract_z
Si Si1 0.662022 0.564213 0.324253
Si Si2 0.461840 0.327300 0.664469
Si Si3 0.341516 0.837883 0.072820
Si Si4 0.972461 0.963399 0.159870
Si Si5 0.662367 0.960346 0.355823
Si Si6 0.653554 0.365786 0.395131
Si Si7 0.256329 0.762246 0.339561
O O1 0.569358 0.607461 0.331835
O O2 0.623684 0.503999 0.351875
O O3 0.679263 0.553954 0.234082
O O4 0.753941 0.595166 0.365569
O O5 0.500000 0.312690 0.750000
O O6 0.550098 0.318104 0.604404
O O7 0.360828 0.294699 0.644140
O O8 0.332413 0.900262 0.105773
O O9 0.261980 0.793834 0.108843
O O10 0.336771 0.846761 0.982665
O O11 0.944188 0.903881 0.122249
O O12 0.000000 0.954947 0.250000
O O13 0.063873 0.001862 0.131149
O O14 0.750000 0.000000 0.384150
O O15 0.666995 0.306407 0.352409
O O16 0.258902 0.750000 0.250000
#
# Coordination Sequence:
#
# PCOD9505867 Si02
#       7
#    16  16  16  16  16  16  16
#     4  10  18  38  65  92 124 171 221 262 321 397
#     4  11  18  37  68  99 120 161 224 283 327 379
#     4  12  23  40  61  97 138 160 214 280 345 388
#     4  10  20  40  67  91 127 174 228 267 316 402
#     4  11  22  38  66  97 124 171 223 272 321 395
#     4  11  25  39  61  97 138 175 203 273 349 403
#     4  11  23  40  72  93 124 176 233 276 321 401
#
# _framework density 20.166018000000001
#
# number of rings (size 3 to 8) (size 9 to 14) (size 15 to 20)
#    0.000    1.143    4.286    4.286    0.000    1.714 
#    5.143    0.000    6.286    0.000    0.000    0.000 
#    0.000    0.000    0.000    0.000    0.000    0.000 
#
# Total GULP energy -312413.388792 kJ/mol
# GULP energy per Si atom -5578.810514 kJ/mol
# Density = 2.012012 g / cm^3
# Si number density = 20.166018 Si / 1000 Ang^3
#
#
#
# Elastic Constant Matrix: (Units=GPa)
#
#
# Indices 1 2 3 4 5 6 
#
# 1 38.9268 35.5758 20.0645 0.0000 0.0000 0.0000
# 2 35.5758 165.8462 42.4166 0.0000 0.0000 0.0000
# 3 20.0645 42.4166 65.5163 0.0000 0.0000 0.0000
# 4 0.0000 0.0000 0.0000 41.1932 0.0000 0.0000
# 5 0.0000 0.0000 0.0000 0.0000 35.1898 0.0000
# 6 0.0000 0.0000 0.0000 0.0000 0.0000 25.8408
#
#
#
# Elastic Compliance Matrix: (Units=1/GPa)
#
#
# Indices 1 2 3 4 5 6 
#
# 1 0.034369 -0.005609 -0.006894 0.000000 0.000000 0.000000
# 2 -0.005609 0.008142 -0.003553 0.000000 0.000000 0.000000
# 3 -0.006894 -0.003553 0.019675 0.000000 0.000000 0.000000
# 4 0.000000 0.000000 0.000000 0.024276 0.000000 0.000000
# 5 0.000000 0.000000 0.000000 0.000000 0.028417 0.000000
# 6 0.000000 0.000000 0.000000 0.000000 0.000000 0.038698
#
#
# Mechanical properties :
#
#
# Convention : Reuss Voigt Hill
#
# Bulk Modulus (GPa) = 33.25263 51.82256 42.53759
# Shear Modulus (GPa) = 25.54735 31.92694 28.73715
#
# Velocity S-wave (km/s) = 3.56315 3.98327 3.77905
# Velocity P-wave (km/s) = 5.78388 6.84901 6.33886
#
# Compressibility (1/GPa) = 0.03007281
#
# Stress axis : x y z
#
# Youngs Moduli (GPa) = 29.09584 122.82413 50.82568
#
# Poissons Ratio (x) = 0.68897 0.35039
# Poissons Ratio (y) = 0.16321 0.18060
# Poissons Ratio (z) = 0.20059 0.43642
#
# Static dielectric constant tensor:
#      x y z
#    x 1.738650 0.000000 0.000000 
#    y 0.000000 1.711340 0.000000 
#    z 0.000000 0.000000 1.721460 
# 
# From -- ./inp_files/22575.got.cif
#   From: 2010.05.17/outbox.cif.g08.bks.cpg/sg68_12_cif.got.tgz:22575.got - 2010.06.03 18:57:09.
