data_PCOD9505365
_publ_section_title
;
Structure prediction by ZEFSAII (Michael W. Deem and Ramdas Pophale) SiO2 
 PCOD9505365
Probable space group: C C C A
;
_chemical_formula_sum "Si O2"
_cell_formula_units_Z 48
_cell_length_a 5.387115
_cell_length_b 14.176291
_cell_length_c 27.138499
_cell_angle_alpha 90.000000
_cell_angle_beta 90.000000
_cell_angle_gamma 90.000000
_cell_volume 2072.548440
_symmetry_space_group_name_H-M "C C C A"
_symmetry_group_IT_number 68
_space_group.IT_coordinate_system_code '2'
_symmetry_cell_setting 'orthorhombic'
loop_
_space_group_symop_operation_xyz
x,y,z
-x,1/2-y,z
x,1/2-y,1/2-z
-x,y,1/2-z
-x,-y,-z
x,1/2+y,-z
-x,1/2+y,1/2+z
x,-y,1/2+z
1/2+x,1/2+y,z
1/2-x,-y,z
1/2+x,-y,1/2-z
1/2-x,1/2+y,1/2-z
1/2-x,1/2-y,-z
1/2+x,y,-z
1/2-x,y,1/2+z
1/2+x,1/2-y,1/2+z
loop_
_atom_site_type_symbol
_atom_site_label
_atom_site_fract_x
_atom_site_fract_y
_atom_site_fract_z
Si Si1 0.750208 0.311982 0.383746
Si Si2 0.747556 0.857996 0.728787
Si Si3 0.427559 0.394217 0.517948
O O1 0.500000 0.250000 0.391220
O O2 0.732373 0.357948 0.329961
O O3 0.000000 0.250000 0.381643
O O4 0.805795 0.383526 0.428395
O O5 0.747271 0.750000 0.750000
O O6 0.500000 0.901622 0.750000
O O7 0.000000 0.898159 0.750000
O O8 0.500000 0.500000 0.500000
O O9 0.206705 0.351273 0.483897
#
# Coordination Sequence:
#
# PCOD9505365 Si02
#       3
#    16  16  16
#     4  12  21  32  58  90 117 153 195 246 305 359
#     4  10  16  30  48  78 126 149 170 229 304 369
#     4  10  23  42  57  76 114 164 203 243 293 357
#
# _framework density 23.159890999999998
#
# number of rings (size 3 to 8) (size 9 to 14) (size 15 to 20)
#    0.000    1.333    6.667    2.000    0.000    4.000 
#    0.000    0.000    0.000    0.000    0.000   18.667 
#    0.000    0.000    0.000    0.000    0.000    0.000 
#
# Total GULP energy -133896.495958 kJ/mol
# GULP energy per Si atom -5579.020665 kJ/mol
# Density = 2.310718 g / cm^3
# Si number density = 23.159891 Si / 1000 Ang^3
#
#
#
# Elastic Constant Matrix: (Units=GPa)
#
#
# Indices 1 2 3 4 5 6 
#
# 1 297.2098 47.3960 88.9066 0.0000 0.0000 0.0000
# 2 47.3960 96.4176 49.2715 0.0000 0.0000 0.0000
# 3 88.9066 49.2715 246.3417 0.0000 0.0000 0.0000
# 4 0.0000 0.0000 0.0000 -43.3755 0.0000 0.0000
# 5 0.0000 0.0000 0.0000 0.0000 50.9875 0.0000
# 6 0.0000 0.0000 0.0000 0.0000 0.0000 -3.4671
#
#
#
# Elastic Compliance Matrix: (Units=1/GPa)
#
#
# Indices 1 2 3 4 5 6 
#
# 1 0.003922 -0.001342 -0.001147 0.000000 0.000000 0.000000
# 2 -0.001342 0.012011 -0.001918 0.000000 0.000000 0.000000
# 3 -0.001147 -0.001918 0.004857 0.000000 0.000000 0.000000
# 4 0.000000 0.000000 0.000000 -0.023055 0.000000 0.000000
# 5 0.000000 0.000000 0.000000 0.000000 0.019613 0.000000
# 6 0.000000 0.000000 0.000000 0.000000 0.000000 -0.288425
#
#
# Mechanical properties :
#
#
# Convention : Reuss Voigt Hill
#
# Bulk Modulus (GPa) = 83.49826 112.34639 97.92232
# Shear Modulus (GPa) = -19.35949 31.12199 5.88125
#
# Velocity S-wave (km/s) = -2.89434 3.66975 1.59528
# Velocity P-wave (km/s) = 4.99616 8.15907 6.76506
#
# Compressibility (1/GPa) = 0.01197630
#
# Stress axis : x y z
#
# Youngs Moduli (GPa) = 254.99174 83.25493 205.88673
#
# Poissons Ratio (x) = 0.11170 0.23616
# Poissons Ratio (y) = 0.34211 0.39493
# Poissons Ratio (z) = 0.29248 0.15970
#
# Static dielectric constant tensor:
#      x y z
#    x 1.870570 0.000000 0.000000 
#    y 0.000000 1.976040 0.000000 
#    z 0.000000 0.000000 1.890810 
# 
# From -- ./inp_files/39927.got.cif
#   From: 2010.05.17/outbox.cif.g08.bks.cpg/sg68_20_cif.got.tgz:39927.got - 2010.06.03 18:57:09.
