data_PCOD9505061
_publ_section_title
;
Structure prediction by ZEFSAII (Michael W. Deem and Ramdas Pophale) SiO2 
 PCOD9505061
Probable space group: C M M A
;
_chemical_formula_sum "Si O2"
_cell_formula_units_Z 112
_cell_length_a 22.889269
_cell_length_b 17.714757
_cell_length_c 14.118246
_cell_angle_alpha 90.000000
_cell_angle_beta 90.000000
_cell_angle_gamma 90.000000
_cell_volume 5724.635868
_symmetry_space_group_name_H-M "C M M A"
_symmetry_group_IT_number 67
_symmetry_cell_setting 'orthorhombic'
loop_
_space_group_symop_operation_xyz
x,y,z
-x,1/2-y,z
x,-y,-z
-x,1/2+y,-z
-x,-y,-z
x,1/2+y,-z
-x,y,z
x,1/2-y,z
1/2+x,1/2+y,z
1/2-x,-y,z
1/2+x,1/2-y,-z
1/2-x,y,-z
1/2-x,1/2-y,-z
1/2+x,y,-z
1/2-x,1/2+y,z
1/2+x,-y,z
loop_
_atom_site_type_symbol
_atom_site_label
_atom_site_fract_x
_atom_site_fract_y
_atom_site_fract_z
Si Si1 0.430550 0.332691 0.393201
Si Si2 0.645773 0.913746 0.265207
Si Si3 0.430550 0.832691 0.393202
Si Si4 0.433432 0.159241 0.888676
Si Si5 0.933432 0.659241 0.111324
Si Si6 0.750000 0.340601 0.387466
Si Si7 0.145772 0.913746 0.265207
O O1 0.500000 0.331734 0.396738
O O2 0.412458 0.250000 0.352745
O O3 0.407499 0.335909 0.500000
O O4 0.409159 0.402893 0.334563
O O5 0.590841 0.902893 0.334563
O O6 0.619680 0.876805 0.169933
O O7 0.695341 0.870784 0.325658
O O8 0.662726 1.000000 0.249997
O O9 0.500000 0.831734 0.396739
O O10 0.412459 0.750000 0.352746
O O11 0.500000 0.137338 0.856996
O O12 0.430596 0.250000 0.879906
O O13 0.429094 0.140481 0.000000
O O14 0.930596 0.750000 0.120094
O O15 0.880320 0.623195 0.169933
O O16 0.000000 0.637338 0.143004
O O17 0.750000 0.250000 0.388136
O O18 0.750000 0.364713 0.500000
O O19 0.695341 0.370784 0.325659
#
# Coordination Sequence:
#
# PCOD9505061 Si02
#       7
#    16  16  16  16  16  16  16
#     4   9  18  33  53  77 107 146 191 234 276 333
#     4  12  24  36  55  85 119 151 185 235 298 354
#     4   9  18  33  53  77 107 146 191 234 276 333
#     4   9  19  38  64  91 119 155 199 242 283 336
#     4   9  19  38  64  91 119 155 199 242 283 336
#     4  11  25  45  66  83 106 151 207 252 288 337
#     4  12  24  36  55  85 119 151 185 235 298 354
#
# _framework density 19.564563
#
# number of rings (size 3 to 8) (size 9 to 14) (size 15 to 20)
#    0.000    1.857    0.000    6.429    0.000   10.286 
#    0.000    3.571    0.000    4.286    0.000    0.000 
#    0.000    0.000    0.000    0.000    0.000    0.000 
#
# Total GULP energy -312084.751061 kJ/mol
# GULP energy per Si atom -5572.941983 kJ/mol
# Density = 1.952003 g / cm^3
# Si number density = 19.564563 Si / 1000 Ang^3
#
#
#
# Elastic Constant Matrix: (Units=GPa)
#
#
# Indices 1 2 3 4 5 6 
#
# 1 88.2769 39.6642 58.1756 0.0000 0.0000 0.0000
# 2 39.6642 76.0250 40.2769 0.0000 0.0000 0.0000
# 3 58.1756 40.2769 121.6040 0.0000 0.0000 0.0000
# 4 0.0000 0.0000 0.0000 113.4263 0.0000 0.0000
# 5 0.0000 0.0000 0.0000 0.0000 13.2532 0.0000
# 6 0.0000 0.0000 0.0000 0.0000 0.0000 12.6575
#
#
#
# Elastic Compliance Matrix: (Units=1/GPa)
#
#
# Indices 1 2 3 4 5 6 
#
# 1 0.018584 -0.006047 -0.006888 0.000000 0.000000 0.000000
# 2 -0.006047 0.017920 -0.003043 0.000000 0.000000 0.000000
# 3 -0.006888 -0.003043 0.012526 0.000000 0.000000 0.000000
# 4 0.000000 0.000000 0.000000 0.008816 0.000000 0.000000
# 5 0.000000 0.000000 0.000000 0.000000 0.075453 0.000000
# 6 0.000000 0.000000 0.000000 0.000000 0.000000 0.079005
#
#
# Mechanical properties :
#
#
# Convention : Reuss Voigt Hill
#
# Bulk Modulus (GPa) = 58.56121 62.45991 60.51056
# Shear Modulus (GPa) = 20.00386 37.72000 28.86193
#
# Velocity S-wave (km/s) = 3.20105 4.39564 3.84502
# Velocity P-wave (km/s) = 6.60754 7.59977 7.12096
#
# Compressibility (1/GPa) = 0.01707615
#
# Stress axis : x y z
#
# Youngs Moduli (GPa) = 53.80953 55.80280 79.83144
#
# Poissons Ratio (x) = 0.33742 0.54987
# Poissons Ratio (y) = 0.32537 0.24290
# Poissons Ratio (z) = 0.37064 0.16979
#
# Static dielectric constant tensor:
#      x y z
#    x 1.750160 0.000000 0.000000 
#    y 0.000000 1.703310 0.000000 
#    z 0.000000 0.000000 1.719090 
# 
# From -- ./inp_files/30160.got.cif
#   From: 2010.05.17/outbox.cif.g08.bks.cpg/sg67_16_cif.got.tgz:30160.got - 2010.06.03 18:28:57.
