data_PCOD9505062
_publ_section_title
;
Structure prediction by ZEFSAII (Michael W. Deem and Ramdas Pophale) SiO2 
 PCOD9505062
Probable space group: C M M A
;
_chemical_formula_sum "Si O2"
_cell_formula_units_Z 48
_cell_length_a 13.935772
_cell_length_b 14.477585
_cell_length_c 10.922194
_cell_angle_alpha 90.000000
_cell_angle_beta 90.000000
_cell_angle_gamma 90.000000
_cell_volume 2203.621708
_symmetry_space_group_name_H-M "C M M A"
_symmetry_group_IT_number 67
_symmetry_cell_setting 'orthorhombic'
loop_
_space_group_symop_operation_xyz
x,y,z
-x,1/2-y,z
x,-y,-z
-x,1/2+y,-z
-x,-y,-z
x,1/2+y,-z
-x,y,z
x,1/2-y,z
1/2+x,1/2+y,z
1/2-x,-y,z
1/2+x,1/2-y,-z
1/2-x,y,-z
1/2-x,1/2-y,-z
1/2+x,y,-z
1/2-x,1/2+y,z
1/2+x,-y,z
loop_
_atom_site_type_symbol
_atom_site_label
_atom_site_fract_x
_atom_site_fract_y
_atom_site_fract_z
Si Si1 0.500000 0.528226 0.638638
Si Si2 0.807539 0.855659 0.377303
Si Si3 0.290371 0.104367 0.875287
Si Si4 0.500000 0.640959 0.181136
O O1 0.500000 0.500000 0.500000
O O2 0.401853 0.585577 0.657401
O O3 0.500000 0.431601 0.708724
O O4 0.837089 0.750000 0.403195
O O5 0.750000 0.887949 0.500000
O O6 0.739989 0.856509 0.257191
O O7 0.403627 0.115266 0.889223
O O8 0.250000 0.000000 0.871224
O O9 0.250000 0.146873 0.000000
O O10 0.500000 0.750000 0.212665
#
# Coordination Sequence:
#
# PCOD9505062 Si02
#       4
#     8  16  16   8
#     4  12  25  42  71  99 143 189 238 293 359 411
#     4  11  25  45  71 105 142 185 238 292 354 428
#     4  11  25  46  75 103 143 187 238 289 358 424
#     4  12  26  45  72 106 141 188 241 291 357 426
#
# _framework density 21.782323000000002
#
# number of rings (size 3 to 8) (size 9 to 14) (size 15 to 20)
#    0.000    0.667    3.333    3.500    0.000   10.667 
#    0.000    0.000    0.000    1.000    0.000    0.000 
#    0.000    0.000    0.000    0.000    0.000    0.000 
#
# Total GULP energy -134082.714694 kJ/mol
# GULP energy per Si atom -5586.779779 kJ/mol
# Density = 2.173275 g / cm^3
# Si number density = 21.782323 Si / 1000 Ang^3
#
#
#
# Elastic Constant Matrix: (Units=GPa)
#
#
# Indices 1 2 3 4 5 6 
#
# 1 201.6603 50.8511 61.0837 0.0000 0.0000 0.0000
# 2 50.8511 160.0912 9.8090 0.0000 0.0000 0.0000
# 3 61.0837 9.8090 150.3331 0.0000 0.0000 0.0000
# 4 0.0000 0.0000 0.0000 136.0347 0.0000 0.0000
# 5 0.0000 0.0000 0.0000 0.0000 25.2897 0.0000
# 6 0.0000 0.0000 0.0000 0.0000 0.0000 3.9477
#
#
#
# Elastic Compliance Matrix: (Units=1/GPa)
#
#
# Indices 1 2 3 4 5 6 
#
# 1 0.006132 -0.001802 -0.002374 0.000000 0.000000 0.000000
# 2 -0.001802 0.006801 0.000289 0.000000 0.000000 0.000000
# 3 -0.002374 0.000289 0.007598 0.000000 0.000000 0.000000
# 4 0.000000 0.000000 0.000000 0.007351 0.000000 0.000000
# 5 0.000000 0.000000 0.000000 0.000000 0.039542 0.000000
# 6 0.000000 0.000000 0.000000 0.000000 0.000000 0.253314
#
#
# Mechanical properties :
#
#
# Convention : Reuss Voigt Hill
#
# Bulk Modulus (GPa) = 78.39754 83.95244 81.17499
# Shear Modulus (GPa) = 15.02557 59.07715 37.05136
#
# Velocity S-wave (km/s) = 2.62926 5.21349 4.12877
# Velocity P-wave (km/s) = 6.72955 8.65251 7.75089
#
# Compressibility (1/GPa) = 0.01275550
#
# Stress axis : x y z
#
# Youngs Moduli (GPa) = 163.06610 147.03110 131.61811
#
# Poissons Ratio (x) = 0.26502 0.31248
# Poissons Ratio (y) = 0.29392 -0.03798
# Poissons Ratio (z) = 0.38714 -0.04243
#
# Static dielectric constant tensor:
#      x y z
#    x 1.871080 0.000000 0.000000 
#    y 0.000000 2.290570 0.000000 
#    z 0.000000 0.000000 1.772640 
# 
# From -- ./inp_files/17149.got.cif
#   From: 2010.05.17/outbox.cif.g08.bks.cpg/sg67_9_cif.got.tgz:17149.got - 2010.06.03 18:28:57.
