data_PCOD9505187
_publ_section_title
;
Structure prediction by ZEFSAII (Michael W. Deem and Ramdas Pophale) SiO2 
 PCOD9505187
Probable space group: C M M A
;
_chemical_formula_sum "Si O2"
_cell_formula_units_Z 52
_cell_length_a 9.000000
_cell_length_b 27.000000
_cell_length_c 24.000000
_cell_angle_alpha 90.000000
_cell_angle_beta 90.000000
_cell_angle_gamma 90.000000
_cell_volume 5832.000000
_symmetry_space_group_name_H-M "C M M A"
_symmetry_group_IT_number 67
_symmetry_cell_setting 'orthorhombic'
loop_
_space_group_symop_operation_xyz
x,y,z
-x,1/2-y,z
x,-y,-z
-x,1/2+y,-z
-x,-y,-z
x,1/2+y,-z
-x,y,z
x,1/2-y,z
1/2+x,1/2+y,z
1/2-x,-y,z
1/2+x,1/2-y,-z
1/2-x,y,-z
1/2-x,1/2-y,-z
1/2+x,y,-z
1/2-x,1/2+y,z
1/2+x,-y,z
loop_
_atom_site_type_symbol
_atom_site_label
_atom_site_fract_x
_atom_site_fract_y
_atom_site_fract_z
Si Si1 0.177496 0.550756 0.235110
Si Si2 0.176989 0.191886 0.059293
Si Si3 0.179249 0.250000 0.561088
Si Si4 0.321659 0.552253 0.632462
Si Si5 0.676316 0.653489 0.382494
Si Si6 0.675736 0.353996 0.165573
Si Si7 0.166670 0.693554 0.738599
O O1 0.250000 0.500000 0.216189
O O2 0.211249 0.556695 0.300892
O O3 0.227035 0.595717 0.196148
O O4 0.000000 0.547931 0.231279
O O5 0.211220 0.250000 0.070952
O O6 0.242037 0.159306 0.108972
O O7 0.000000 0.186900 0.055926
O O8 0.250000 0.179550 0.000000
O O9 0.250000 0.250000 0.500000
O O10 0.240091 0.200053 0.590318
O O11 0.000000 0.250000 0.560383
O O12 0.500000 0.551814 0.625500
O O13 0.250000 0.500000 0.614323
O O14 0.248949 0.600429 0.604036
O O15 0.500000 0.654805 0.395597
O O16 0.691737 0.661045 0.315849
O O17 0.500000 0.355866 0.156050
O O18 0.716738 0.313991 0.212661
O O19 0.169438 0.750000 0.718952
O O20 0.000000 0.683461 0.760865
#
# Coordination Sequence:
#
# PCOD9505187 Si02
#       7
#    16  16   8  16  16  16  16
#     4   9  19  32  48  73 107 143 182 223 270 329
#     4  10  21  37  55  75 100 135 178 222 269 325
#     4  12  26  44  66  90 120 160 203 246 289 344
#     4  10  19  34  54  83 118 157 199 241 291 347
#     4  11  21  37  59  86 119 156 195 241 290 342
#     4  11  21  33  50  77 108 140 178 223 273 332
#     4  10  20  33  49  75 111 148 182 221 274 333
#
# _framework density 8.9163239999999995
#
# number of rings (size 3 to 8) (size 9 to 14) (size 15 to 20)
#    0.000    1.692    2.308    3.000    0.000    5.538 
#    0.000    0.000    0.000    0.923    0.000    6.462 
#    0.000    0.000    0.000    0.000    0.000    0.000 
#
# Total GULP energy -290135.542779 kJ/mol
# GULP energy per Si atom -5579.529669 kJ/mol
# Density = 0.889603 g / cm^3
# Si number density = 8.916324 Si / 1000 Ang^3
#
#
#
# Elastic Constant Matrix: (Units=GPa)
#
#
# Indices 1 2 3 4 5 6 
#
# 1 74.3691 59.4818 39.5265 0.0000 0.0000 0.0000
# 2 59.4818 135.2283 28.6090 0.0000 0.0000 0.0000
# 3 39.5265 28.6090 41.7982 0.0000 0.0000 0.0000
# 4 0.0000 0.0000 0.0000 4.5689 0.0000 0.0000
# 5 0.0000 0.0000 0.0000 0.0000 25.2548 0.0000
# 6 0.0000 0.0000 0.0000 0.0000 0.0000 31.9325
#
#
#
# Elastic Compliance Matrix: (Units=1/GPa)
#
#
# Indices 1 2 3 4 5 6 
#
# 1 0.035845 -0.010051 -0.027017 0.000000 0.000000 0.000000
# 2 -0.010051 0.011465 0.001657 0.000000 0.000000 0.000000
# 3 -0.027017 0.001657 0.048339 0.000000 0.000000 0.000000
# 4 0.000000 0.000000 0.000000 0.218870 0.000000 0.000000
# 5 0.000000 0.000000 0.000000 0.000000 0.039596 0.000000
# 6 0.000000 0.000000 0.000000 0.000000 0.000000 0.031316
#
#
# Mechanical properties :
#
#
# Convention : Reuss Voigt Hill
#
# Bulk Modulus (GPa) = 40.27843 56.29222 48.28532
# Shear Modulus (GPa) = 10.76360 20.60314 15.68337
#
# Velocity S-wave (km/s) = 2.45947 3.40275 2.96881
# Velocity P-wave (km/s) = 5.54087 6.86103 6.23598
#
# Compressibility (1/GPa) = 0.02482718
#
# Stress axis : x y z
#
# Youngs Moduli (GPa) = 27.89811 87.21934 20.68728
#
# Poissons Ratio (x) = 0.87664 0.55891
# Poissons Ratio (y) = 0.28040 -0.03428
# Poissons Ratio (z) = 0.75373 -0.14454
#
# Static dielectric constant tensor:
#      x y z
#    x 1.612690 0.000000 0.000000 
#    y 0.000000 1.642250 0.000000 
#    z 0.000000 0.000000 1.585220 
# 
# From -- ./inp_files/40997.got.cif
#   From: 2010.05.17/outbox.ucp.g08.bks.cvg/sg67_21_cif.got.tgz:40997.got - 2010.06.11 16:47:20.
