data_PCOD9505662
_publ_section_title
;
Structure prediction by ZEFSAII (Michael W. Deem and Ramdas Pophale) SiO2 
 PCOD9505662
Probable space group: C C C A
;
_chemical_formula_sum "Si O2"
_cell_formula_units_Z 64
_cell_length_a 20.564930
_cell_length_b 27.002261
_cell_length_c 5.072401
_cell_angle_alpha 90.000000
_cell_angle_beta 90.000000
_cell_angle_gamma 90.000000
_cell_volume 2816.702283
_symmetry_space_group_name_H-M "C C C A"
_symmetry_group_IT_number 68
_space_group.IT_coordinate_system_code '2'
_symmetry_cell_setting 'orthorhombic'
loop_
_space_group_symop_operation_xyz
x,y,z
-x,1/2-y,z
x,1/2-y,1/2-z
-x,y,1/2-z
-x,-y,-z
x,1/2+y,-z
-x,1/2+y,1/2+z
x,-y,1/2+z
1/2+x,1/2+y,z
1/2-x,-y,z
1/2+x,-y,1/2-z
1/2-x,1/2+y,1/2-z
1/2-x,1/2-y,-z
1/2+x,y,-z
1/2-x,y,1/2+z
1/2+x,1/2-y,1/2+z
loop_
_atom_site_type_symbol
_atom_site_label
_atom_site_fract_x
_atom_site_fract_y
_atom_site_fract_z
Si Si1 0.840169 0.865914 0.236085
Si Si2 0.172934 0.697372 0.704999
Si Si3 0.322211 0.521550 0.768921
Si Si4 0.457406 0.325126 0.491092
O O1 0.800066 0.838125 0.470872
O O2 0.817558 0.921485 0.190021
O O3 0.913182 0.868569 0.360491
O O4 0.840145 0.833215 0.971765
O O5 0.206526 0.750000 0.750000
O O6 0.102021 0.709907 0.577217
O O7 0.355092 0.487792 0.548744
O O8 0.250000 0.500000 0.819431
O O9 0.500000 0.306148 0.250000
O O10 0.500000 0.336282 0.750000
#
# Coordination Sequence:
#
# PCOD9505662 Si02
#       4
#    16  16  16  16
#     4  10  20  34  53  80 117 145 185 239 279 324
#     4  10  20  33  50  81 116 159 193 219 268 324
#     4  10  21  38  63  90 104 128 180 251 301 339
#     4  10  18  32  48  77 115 159 192 229 262 314
#
# _framework density 22.721603999999999
#
# number of rings (size 3 to 8) (size 9 to 14) (size 15 to 20)
#    1.500    0.500    2.500    2.250    0.000    0.500 
#    4.500    0.000    0.000    4.500    0.000   70.000 
#    0.000    0.000    0.000    0.000    0.000    0.000 
#
# Total GULP energy -178267.296320 kJ/mol
# GULP energy per Si atom -5570.853010 kJ/mol
# Density = 2.266989 g / cm^3
# Si number density = 22.721604 Si / 1000 Ang^3
#
#
#
# Elastic Constant Matrix: (Units=GPa)
#
#
# Indices 1 2 3 4 5 6 
#
# 1 74.4825 2.4790 11.4219 0.0000 0.0000 0.0000
# 2 2.4790 131.3370 21.3545 0.0000 0.0000 0.0000
# 3 11.4219 21.3545 168.4496 0.0000 0.0000 0.0000
# 4 0.0000 0.0000 0.0000 34.0500 0.0000 0.0000
# 5 0.0000 0.0000 0.0000 0.0000 17.3006 0.0000
# 6 0.0000 0.0000 0.0000 0.0000 0.0000 11.8622
#
#
#
# Elastic Compliance Matrix: (Units=1/GPa)
#
#
# Indices 1 2 3 4 5 6 
#
# 1 0.013569 -0.000109 -0.000906 0.000000 0.000000 0.000000
# 2 -0.000109 0.007775 -0.000978 0.000000 0.000000 0.000000
# 3 -0.000906 -0.000978 0.006122 0.000000 0.000000 0.000000
# 4 0.000000 0.000000 0.000000 0.029369 0.000000 0.000000
# 5 0.000000 0.000000 0.000000 0.000000 0.057801 0.000000
# 6 0.000000 0.000000 0.000000 0.000000 0.000000 0.084301
#
#
# Mechanical properties :
#
#
# Convention : Reuss Voigt Hill
#
# Bulk Modulus (GPa) = 42.59110 49.41996 46.00553
# Shear Modulus (GPa) = 23.72481 35.24348 29.48414
#
# Velocity S-wave (km/s) = 3.23484 3.94267 3.60617
# Velocity P-wave (km/s) = 5.72169 6.52102 6.13438
#
# Compressibility (1/GPa) = 0.02347908
#
# Stress axis : x y z
#
# Youngs Moduli (GPa) = 73.69974 128.61541 163.34636
#
# Poissons Ratio (x) = 0.01399 0.14803
# Poissons Ratio (y) = 0.00802 0.15980
# Poissons Ratio (z) = 0.06679 0.12582
#
# Static dielectric constant tensor:
#      x y z
#    x 1.721340 0.000000 0.000000 
#    y 0.000000 1.852250 0.000000 
#    z 0.000000 0.000000 1.992810 
# 
# From -- ./inp_files/2258.got.cif
#   From: 2010.05.17/outbox.cif.g08.bks.cpg/sg68_2_cif.got.tgz:2258.got - 2010.06.03 18:57:09.
