data_PCOD9505519
_publ_section_title
;
Structure prediction by ZEFSAII (Michael W. Deem and Ramdas Pophale) SiO2 
 PCOD9505519
Probable space group: C C C A
;
_chemical_formula_sum "Si O2"
_cell_formula_units_Z 120
_cell_length_a 18.566351
_cell_length_b 16.727432
_cell_length_c 19.663796
_cell_angle_alpha 90.000000
_cell_angle_beta 90.000000
_cell_angle_gamma 90.000000
_cell_volume 6106.933483
_symmetry_space_group_name_H-M "C C C A"
_symmetry_group_IT_number 68
_space_group.IT_coordinate_system_code '2'
_symmetry_cell_setting 'orthorhombic'
loop_
_space_group_symop_operation_xyz
x,y,z
-x,1/2-y,z
x,1/2-y,1/2-z
-x,y,1/2-z
-x,-y,-z
x,1/2+y,-z
-x,1/2+y,1/2+z
x,-y,1/2+z
1/2+x,1/2+y,z
1/2-x,-y,z
1/2+x,-y,1/2-z
1/2-x,1/2+y,1/2-z
1/2-x,1/2-y,-z
1/2+x,y,-z
1/2-x,y,1/2+z
1/2+x,1/2-y,1/2+z
loop_
_atom_site_type_symbol
_atom_site_label
_atom_site_fract_x
_atom_site_fract_y
_atom_site_fract_z
Si Si1 0.415937 0.773619 0.827537
Si Si2 0.942289 0.871777 0.689185
Si Si3 0.673861 0.250000 0.750000
Si Si4 0.814573 0.168748 0.385566
Si Si5 0.930109 0.212532 0.050819
Si Si6 0.336073 0.997703 0.660360
Si Si7 0.156662 0.849128 0.070039
Si Si8 0.425104 0.448747 0.210346
O O1 0.500000 0.750000 0.834600
O O2 0.394714 0.750000 0.750000
O O3 0.371852 0.723012 0.882386
O O4 0.407517 0.869607 0.832029
O O5 0.874614 0.821720 0.718544
O O6 0.960514 0.830516 0.618138
O O7 0.000000 0.865276 0.750000
O O8 0.932107 0.965660 0.674225
O O9 0.711877 0.288473 0.684557
O O10 0.872794 0.222350 0.423356
O O11 0.853984 0.087237 0.362428
O O12 0.743716 0.154962 0.431063
O O13 0.000000 0.250000 0.014849
O O14 0.884309 0.157236 0.000870
O O15 0.250000 0.000000 0.664453
O O16 0.360969 0.932644 0.606118
O O17 0.367345 0.968277 0.731367
O O18 0.500000 0.431566 0.250000
#
# Coordination Sequence:
#
# PCOD9505519 Si02
#       8
#    16  16   8  16  16  16  16  16
#     4  11  20  37  59  89 121 164 209 257 303 362
#     4  10  20  35  61  91 124 152 194 259 315 365
#     4  10  17  32  60  90 119 148 208 246 312 356
#     4  10  22  39  64  91 123 164 209 260 312 374
#     4  11  24  42  62  91 124 165 204 255 313 381
#     4  10  21  38  61  88 122 164 207 256 311 376
#     4  11  23  40  63  84 129 167 211 247 310 384
#     4  11  20  34  61  92 125 152 203 267 315 356
#
# _framework density 19.649795999999998
#
# number of rings (size 3 to 8) (size 9 to 14) (size 15 to 20)
#    0.000    1.467    4.000    2.600    2.800    0.000 
#    2.400    0.667    0.000    0.000    0.000    0.000 
#    0.000    0.000    0.000    0.000    0.000    0.000 
#
# Total GULP energy -334923.951855 kJ/mol
# GULP energy per Si atom -5582.065864 kJ/mol
# Density = 1.960507 g / cm^3
# Si number density = 19.649796 Si / 1000 Ang^3
#
#
#
# Elastic Constant Matrix: (Units=GPa)
#
#
# Indices 1 2 3 4 5 6 
#
# 1 40.8778 18.9583 25.3164 0.0000 0.0000 0.0000
# 2 18.9583 139.6155 31.2341 0.0000 0.0000 0.0000
# 3 25.3164 31.2341 60.6038 0.0000 0.0000 0.0000
# 4 0.0000 0.0000 0.0000 -41.4071 0.0000 0.0000
# 5 0.0000 0.0000 0.0000 0.0000 23.5946 0.0000
# 6 0.0000 0.0000 0.0000 0.0000 0.0000 4.4866
#
#
#
# Elastic Compliance Matrix: (Units=1/GPa)
#
#
# Indices 1 2 3 4 5 6 
#
# 1 0.033312 -0.001594 -0.013094 0.000000 0.000000 0.000000
# 2 -0.001594 0.008172 -0.003546 0.000000 0.000000 0.000000
# 3 -0.013094 -0.003546 0.023798 0.000000 0.000000 0.000000
# 4 0.000000 0.000000 0.000000 -0.024150 0.000000 0.000000
# 5 0.000000 0.000000 0.000000 0.000000 0.042383 0.000000
# 6 0.000000 0.000000 0.000000 0.000000 0.000000 0.222884
#
#
# Mechanical properties :
#
#
# Convention : Reuss Voigt Hill
#
# Bulk Modulus (GPa) = 34.70532 43.56831 39.13681
# Shear Modulus (GPa) = 14.18557 8.37406 11.27981
#
# Velocity S-wave (km/s) = 2.68977 2.06662 2.39852
# Velocity P-wave (km/s) = 5.22941 5.28347 5.25651
#
# Compressibility (1/GPa) = 0.02881403
#
# Stress axis : x y z
#
# Youngs Moduli (GPa) = 30.01939 122.36515 42.02042
#
# Poissons Ratio (x) = 0.19506 0.55022
# Poissons Ratio (y) = 0.04785 0.14900
# Poissons Ratio (z) = 0.39307 0.43390
#
# Static dielectric constant tensor:
#      x y z
#    x 1.707020 0.000000 0.000000 
#    y 0.000000 1.740220 0.000000 
#    z 0.000000 0.000000 1.679080 
# 
# From -- ./inp_files/39770.got.cif
#   From: 2010.05.17/outbox.cif.g08.bks.cpg/sg68_20_cif.got.tgz:39770.got - 2010.06.03 18:57:09.
