data_PCOD9505854
_publ_section_title
;
Structure prediction by ZEFSAII (Michael W. Deem and Ramdas Pophale) SiO2 
 PCOD9505854
Probable space group: C C C A
;
_chemical_formula_sum "Si O2"
_cell_formula_units_Z 76
_cell_length_a 29.197444
_cell_length_b 8.674187
_cell_length_c 14.753895
_cell_angle_alpha 90.000000
_cell_angle_beta 90.000000
_cell_angle_gamma 90.000000
_cell_volume 3736.631779
_symmetry_space_group_name_H-M "C C C A"
_symmetry_group_IT_number 68
_space_group.IT_coordinate_system_code '2'
_symmetry_cell_setting 'orthorhombic'
loop_
_space_group_symop_operation_xyz
x,y,z
-x,1/2-y,z
x,1/2-y,1/2-z
-x,y,1/2-z
-x,-y,-z
x,1/2+y,-z
-x,1/2+y,1/2+z
x,-y,1/2+z
1/2+x,1/2+y,z
1/2-x,-y,z
1/2+x,-y,1/2-z
1/2-x,1/2+y,1/2-z
1/2-x,1/2-y,-z
1/2+x,y,-z
1/2-x,y,1/2+z
1/2+x,1/2-y,1/2+z
loop_
_atom_site_type_symbol
_atom_site_label
_atom_site_fract_x
_atom_site_fract_y
_atom_site_fract_z
Si Si1 0.765774 0.334168 0.628859
Si Si2 0.500000 0.250000 0.250000
Si Si3 0.117292 0.084993 0.980811
Si Si4 0.420099 0.866744 0.632643
Si Si5 0.184819 0.831466 0.938868
Si Si6 0.845700 0.750000 0.250000
O O1 0.750000 0.500000 0.667707
O O2 0.784526 0.370339 0.527614
O O3 0.722446 0.221131 0.632324
O O4 0.808729 0.243489 0.670031
O O5 0.532455 0.147069 0.314436
O O6 0.153980 0.184156 0.036873
O O7 0.086746 0.992514 0.054080
O O8 0.089983 0.202650 0.917061
O O9 0.147824 0.964361 0.923913
O O10 0.380446 0.877818 0.709730
#
# Coordination Sequence:
#
# PCOD9505854 Si02
#       6
#    16   4  16  16  16   8
#     4  11  20  31  50  81 124 163 208 241 283 324
#     4  10  24  44  64  98 116 146 172 270 312 366
#     4  10  18  38  60  87 111 165 197 238 284 372
#     4  10  22  39  66  85 118 146 202 239 313 359
#     4  10  19  33  54  82 118 161 205 244 266 343
#     4  11  20  35  50  84 116 162 190 253 292 341
#
# _framework density 20.339172999999999
#
# number of rings (size 3 to 8) (size 9 to 14) (size 15 to 20)
#    0.000    1.684    6.316    0.000    0.000    2.526 
#    0.000    0.000    0.000   20.211    0.000    0.000 
#    0.000    0.000    0.000    0.000    0.000    0.000 
#
# Total GULP energy -211656.338860 kJ/mol
# GULP energy per Si atom -5569.903654 kJ/mol
# Density = 2.029288 g / cm^3
# Si number density = 20.339173 Si / 1000 Ang^3
#
#
#
# Elastic Constant Matrix: (Units=GPa)
#
#
# Indices 1 2 3 4 5 6 
#
# 1 137.2678 39.9803 41.5426 0.0000 0.0000 0.0000
# 2 39.9803 96.4162 31.0030 0.0000 0.0000 0.0000
# 3 41.5426 31.0030 70.4060 0.0000 0.0000 0.0000
# 4 0.0000 0.0000 0.0000 11.9026 0.0000 0.0000
# 5 0.0000 0.0000 0.0000 0.0000 28.2983 0.0000
# 6 0.0000 0.0000 0.0000 0.0000 0.0000 16.9482
#
#
#
# Elastic Compliance Matrix: (Units=1/GPa)
#
#
# Indices 1 2 3 4 5 6 
#
# 1 0.009339 -0.002447 -0.004433 0.000000 0.000000 0.000000
# 2 -0.002447 0.012724 -0.004159 0.000000 0.000000 0.000000
# 3 -0.004433 -0.004159 0.018650 0.000000 0.000000 0.000000
# 4 0.000000 0.000000 0.000000 0.084016 0.000000 0.000000
# 5 0.000000 0.000000 0.000000 0.000000 0.035338 0.000000
# 6 0.000000 0.000000 0.000000 0.000000 0.000000 0.059003
#
#
# Mechanical properties :
#
#
# Convention : Reuss Voigt Hill
#
# Bulk Modulus (GPa) = 53.66177 58.79354 56.22766
# Shear Modulus (GPa) = 20.21342 24.20075 22.20708
#
# Velocity S-wave (km/s) = 3.15591 3.45318 3.30788
# Velocity P-wave (km/s) = 6.30241 6.69840 6.50342
#
# Compressibility (1/GPa) = 0.01863524
#
# Stress axis : x y z
#
# Youngs Moduli (GPa) = 107.07300 78.59283 53.61824
#
# Poissons Ratio (x) = 0.19234 0.23769
# Poissons Ratio (y) = 0.26204 0.22299
# Poissons Ratio (z) = 0.47466 0.32686
#
# Static dielectric constant tensor:
#      x y z
#    x 1.715730 0.000000 0.000000 
#    y 0.000000 1.774040 0.000000 
#    z 0.000000 0.000000 1.846920 
# 
# From -- ./inp_files/34013.got.cif
#   From: 2010.05.17/outbox.cif.g08.bks.cpg/sg68_18_cif.got.tgz:34013.got - 2010.06.03 18:57:09.
