data_PCOD9505724
_publ_section_title
;
Structure prediction by ZEFSAII (Michael W. Deem and Ramdas Pophale) SiO2 
 PCOD9505724
Probable space group: C C C A
;
_chemical_formula_sum "Si O2"
_cell_formula_units_Z 64
_cell_length_a 13.123297
_cell_length_b 17.124548
_cell_length_c 11.447644
_cell_angle_alpha 90.000000
_cell_angle_beta 90.000000
_cell_angle_gamma 90.000000
_cell_volume 2572.635096
_symmetry_space_group_name_H-M "C C C A"
_symmetry_group_IT_number 68
_space_group.IT_coordinate_system_code '2'
_symmetry_cell_setting 'orthorhombic'
loop_
_space_group_symop_operation_xyz
x,y,z
-x,1/2-y,z
x,1/2-y,1/2-z
-x,y,1/2-z
-x,-y,-z
x,1/2+y,-z
-x,1/2+y,1/2+z
x,-y,1/2+z
1/2+x,1/2+y,z
1/2-x,-y,z
1/2+x,-y,1/2-z
1/2-x,1/2+y,1/2-z
1/2-x,1/2-y,-z
1/2+x,y,-z
1/2-x,y,1/2+z
1/2+x,1/2-y,1/2+z
loop_
_atom_site_type_symbol
_atom_site_label
_atom_site_fract_x
_atom_site_fract_y
_atom_site_fract_z
Si Si1 0.631817 0.111248 0.587301
Si Si2 0.250000 0.500000 0.729217
Si Si3 0.648957 0.190125 0.091198
Si Si4 0.867158 0.865143 0.334038
Si Si5 0.500000 0.250000 0.603656
O O1 0.653435 0.030338 0.653291
O O2 0.747239 0.143957 0.572977
O O3 0.586311 0.104131 0.456496
O O4 0.569402 0.179542 0.654745
O O5 0.220544 0.427342 0.808473
O O6 0.592111 0.149960 0.201321
O O7 0.670468 0.278706 0.131797
O O8 0.580203 0.203664 0.978569
#
# Coordination Sequence:
#
# PCOD9505724 Si02
#       5
#    16   8  16  16   8
#     4  10  20  35  57  83 110 147 191 235 283 334
#     4  10  20  34  54  82 116 154 180 226 298 344
#     4   9  19  33  56  82 104 142 193 237 279 330
#     4   9  17  32  53  77 109 143 184 232 279 340
#     4  10  18  33  58  81 106 142 190 241 276 331
#
# _framework density 24.877216000000001
#
# number of rings (size 3 to 8) (size 9 to 14) (size 15 to 20)
#    0.000    2.500    0.000    3.750    0.000    8.000 
#    0.000    5.000    0.000   78.000    0.000    0.000 
#    0.000    0.000    0.000    0.000    0.000    0.000 
#
# Total GULP energy -178162.644063 kJ/mol
# GULP energy per Si atom -5567.582627 kJ/mol
# Density = 2.482059 g / cm^3
# Si number density = 24.877216 Si / 1000 Ang^3
#
#
#
# Elastic Constant Matrix: (Units=GPa)
#
#
# Indices 1 2 3 4 5 6 
#
# 1 84.9042 20.5928 12.4197 0.0000 0.0000 0.0000
# 2 20.5928 104.7398 14.0676 0.0000 0.0000 0.0000
# 3 12.4197 14.0676 80.1010 0.0000 0.0000 0.0000
# 4 0.0000 0.0000 0.0000 341.5640 0.0000 0.0000
# 5 0.0000 0.0000 0.0000 0.0000 38.6356 0.0000
# 6 0.0000 0.0000 0.0000 0.0000 0.0000 32.7794
#
#
#
# Elastic Compliance Matrix: (Units=1/GPa)
#
#
# Indices 1 2 3 4 5 6 
#
# 1 0.012553 -0.002260 -0.001549 0.000000 0.000000 0.000000
# 2 -0.002260 0.010185 -0.001438 0.000000 0.000000 0.000000
# 3 -0.001549 -0.001438 0.012977 0.000000 0.000000 0.000000
# 4 0.000000 0.000000 0.000000 0.002928 0.000000 0.000000
# 5 0.000000 0.000000 0.000000 0.000000 0.025883 0.000000
# 6 0.000000 0.000000 0.000000 0.000000 0.000000 0.030507
#
#
# Mechanical properties :
#
#
# Convention : Reuss Voigt Hill
#
# Bulk Modulus (GPa) = 39.65180 40.43392 40.04286
# Shear Modulus (GPa) = 43.88502 97.44013 70.66257
#
# Velocity S-wave (km/s) = 4.20463 6.26526 5.33537
# Velocity P-wave (km/s) = 6.28852 8.28412 7.35432
#
# Compressibility (1/GPa) = 0.02521954
#
# Stress axis : x y z
#
# Youngs Moduli (GPa) = 79.66387 98.18398 77.05895
#
# Poissons Ratio (x) = 0.22188 0.11940
# Poissons Ratio (y) = 0.18003 0.11084
# Poissons Ratio (z) = 0.12343 0.14122
#
# Static dielectric constant tensor:
#      x y z
#    x 2.051500 0.000000 0.000000 
#    y 0.000000 1.917400 0.000000 
#    z 0.000000 0.000000 2.125210 
# 
# From -- ./inp_files/20485.got.cif
#   From: 2010.05.17/outbox.cif.g08.bks.cpg/sg68_11_cif.got.tgz:20485.got - 2010.06.03 18:57:09.
