data_PCOD9505301
_publ_section_title
;
Structure prediction by ZEFSAII (Michael W. Deem and Ramdas Pophale) SiO2 
 PCOD9505301
Probable space group: C C C A
;
_chemical_formula_sum "Si O2"
_cell_formula_units_Z 52
_cell_length_a 5.564186
_cell_length_b 14.349734
_cell_length_c 30.476565
_cell_angle_alpha 90.000000
_cell_angle_beta 90.000000
_cell_angle_gamma 90.000000
_cell_volume 2433.388807
_symmetry_space_group_name_H-M "C C C A"
_symmetry_group_IT_number 68
_space_group.IT_coordinate_system_code '2'
_symmetry_cell_setting 'orthorhombic'
loop_
_space_group_symop_operation_xyz
x,y,z
-x,1/2-y,z
x,1/2-y,1/2-z
-x,y,1/2-z
-x,-y,-z
x,1/2+y,-z
-x,1/2+y,1/2+z
x,-y,1/2+z
1/2+x,1/2+y,z
1/2-x,-y,z
1/2+x,-y,1/2-z
1/2-x,1/2+y,1/2-z
1/2-x,1/2-y,-z
1/2+x,y,-z
1/2-x,y,1/2+z
1/2+x,1/2-y,1/2+z
loop_
_atom_site_type_symbol
_atom_site_label
_atom_site_fract_x
_atom_site_fract_y
_atom_site_fract_z
Si Si1 0.840357 0.606652 0.793014
Si Si2 0.000000 0.750000 0.250000
Si Si3 0.492452 0.392154 0.982418
Si Si4 0.502321 0.558867 0.116531
O O1 0.750000 0.500000 0.793416
O O2 0.638337 0.681540 0.783095
O O3 0.971645 0.619278 0.839420
O O4 0.000000 0.615928 0.750000
O O5 0.475125 0.390743 0.929994
O O6 0.500000 0.500000 0.000000
O O7 0.247936 0.352665 0.002588
O O8 0.250000 0.500000 0.112930
O O9 0.750000 0.500000 0.121770
#
# Coordination Sequence:
#
# PCOD9505301 Si02
#       4
#    16   4  16  16
#     4  11  24  43  68  95 135 176 231 285 342 415
#     4  12  26  48  68  96 136 184 222 292 354 398
#     4  10  15  27  46  81 128 166 208 270 322 387
#     4  11  20  32  58  90 129 172 221 274 329 399
#
# _framework density 21.369374000000001
#
# number of rings (size 3 to 8) (size 9 to 14) (size 15 to 20)
#    0.000    1.231    7.692    1.385    4.308    0.000 
#    0.000    0.000    0.000    0.000    0.000    2.154 
#    0.000    0.000    0.000    0.000    0.000    0.308 
#
# Total GULP energy -145054.906786 kJ/mol
# GULP energy per Si atom -5579.034876 kJ/mol
# Density = 2.132074 g / cm^3
# Si number density = 21.369374 Si / 1000 Ang^3
#
#
#
# Elastic Constant Matrix: (Units=GPa)
#
#
# Indices 1 2 3 4 5 6 
#
# 1 186.8529 45.0660 76.3290 0.0000 0.0000 0.0000
# 2 45.0660 103.6482 36.6910 0.0000 0.0000 0.0000
# 3 76.3290 36.6910 247.0399 0.0000 0.0000 0.0000
# 4 0.0000 0.0000 0.0000 -15.3116 0.0000 0.0000
# 5 0.0000 0.0000 0.0000 0.0000 32.4580 0.0000
# 6 0.0000 0.0000 0.0000 0.0000 0.0000 -0.5407
#
#
#
# Elastic Compliance Matrix: (Units=1/GPa)
#
#
# Indices 1 2 3 4 5 6 
#
# 1 0.006593 -0.002264 -0.001701 0.000000 0.000000 0.000000
# 2 -0.002264 0.010961 -0.000928 0.000000 0.000000 0.000000
# 3 -0.001701 -0.000928 0.004711 0.000000 0.000000 0.000000
# 4 0.000000 0.000000 0.000000 -0.065310 0.000000 0.000000
# 5 0.000000 0.000000 0.000000 0.000000 0.030809 0.000000
# 6 0.000000 0.000000 0.000000 0.000000 0.000000 -1.849320
#
#
# Mechanical properties :
#
#
# Convention : Reuss Voigt Hill
#
# Bulk Modulus (GPa) = 80.13913 94.85700 87.49807
# Shear Modulus (GPa) = -2.70620 28.61811 12.95596
#
# Velocity S-wave (km/s) = -1.12656 3.66349 2.46496
# Velocity P-wave (km/s) = 5.99092 7.89813 7.00969
#
# Compressibility (1/GPa) = 0.01247830
#
# Stress axis : x y z
#
# Youngs Moduli (GPa) = 151.68375 91.23064 212.25727
#
# Poissons Ratio (x) = 0.20659 0.36097
# Poissons Ratio (y) = 0.34348 0.19705
# Poissons Ratio (z) = 0.25796 0.08469
#
# Static dielectric constant tensor:
#      x y z
#    x 1.826830 0.000000 0.000000 
#    y 0.000000 1.726320 0.000000 
#    z 0.000000 0.000000 1.748950 
# 
# From -- ./inp_files/52760.got.cif
#   From: 2010.05.17/outbox.cif.g08.bks.cpg/sg68_27_cif.got.tgz:52760.got - 2010.06.03 18:57:09.
