data_PCOD9505521
_publ_section_title
;
Structure prediction by ZEFSAII (Michael W. Deem and Ramdas Pophale) SiO2 
 PCOD9505521
Probable space group: C C C A
;
_chemical_formula_sum "Si O2"
_cell_formula_units_Z 96
_cell_length_a 10.815315
_cell_length_b 16.632813
_cell_length_c 23.262302
_cell_angle_alpha 90.000000
_cell_angle_beta 90.000000
_cell_angle_gamma 90.000000
_cell_volume 4184.634848
_symmetry_space_group_name_H-M "C C C A"
_symmetry_group_IT_number 68
_space_group.IT_coordinate_system_code '2'
_symmetry_cell_setting 'orthorhombic'
loop_
_space_group_symop_operation_xyz
x,y,z
-x,1/2-y,z
x,1/2-y,1/2-z
-x,y,1/2-z
-x,-y,-z
x,1/2+y,-z
-x,1/2+y,1/2+z
x,-y,1/2+z
1/2+x,1/2+y,z
1/2-x,-y,z
1/2+x,-y,1/2-z
1/2-x,1/2+y,1/2-z
1/2-x,1/2-y,-z
1/2+x,y,-z
1/2-x,y,1/2+z
1/2+x,1/2-y,1/2+z
loop_
_atom_site_type_symbol
_atom_site_label
_atom_site_fract_x
_atom_site_fract_y
_atom_site_fract_z
Si Si1 0.000000 0.750000 0.121941
Si Si2 0.138393 0.770278 0.617324
Si Si3 0.564430 0.519114 0.889387
Si Si4 0.695086 0.250000 0.750000
Si Si5 0.116916 0.871045 0.290383
Si Si6 0.333460 0.387938 0.423687
Si Si7 0.782867 0.114555 0.057199
O O1 0.088000 0.700078 0.164451
O O2 0.074162 0.813637 0.085798
O O3 0.137222 0.755334 0.686267
O O4 0.205559 0.855922 0.604848
O O5 0.214992 0.705163 0.579592
O O6 0.000000 0.750000 0.597039
O O7 0.615346 0.547906 0.827346
O O8 0.419251 0.540076 0.897478
O O9 0.649800 0.574104 0.931267
O O10 0.612164 0.431038 0.904973
O O11 0.771179 0.165759 0.745266
O O12 0.000000 0.876274 0.250000
O O13 0.312296 0.398834 0.490855
#
# Coordination Sequence:
#
# PCOD9505521 Si02
#       7
#     8  16  16   8  16  16  16
#     4  10  17  32  62 104 126 151 228 292 332 376
#     4  12  26  40  63  96 135 177 224 282 345 418
#     4  10  23  43  66 100 128 177 228 282 349 419
#     4  12  18  40  60  94 130 169 213 288 348 394
#     4  11  17  33  67  99 127 161 226 297 333 395
#     4  11  22  40  66  98 130 176 228 279 339 417
#     4  11  24  42  65  95 138 175 215 284 357 415
#
# _framework density 22.94107
#
# number of rings (size 3 to 8) (size 9 to 14) (size 15 to 20)
#    0.000    1.000    5.000    3.250    3.500    0.000 
#    0.000    1.667    0.000    0.000    0.000    0.000 
#    0.000    0.000    0.000    0.000    0.000    0.000 
#
# Total GULP energy -267792.925434 kJ/mol
# GULP energy per Si atom -5579.019280 kJ/mol
# Density = 2.288886 g / cm^3
# Si number density = 22.941070 Si / 1000 Ang^3
#
#
#
# Elastic Constant Matrix: (Units=GPa)
#
#
# Indices 1 2 3 4 5 6 
#
# 1 95.5305 18.1859 11.6309 0.0000 0.0000 0.0000
# 2 18.1859 70.7940 13.3224 0.0000 0.0000 0.0000
# 3 11.6309 13.3224 75.7585 0.0000 0.0000 0.0000
# 4 0.0000 0.0000 0.0000 23.1357 0.0000 0.0000
# 5 0.0000 0.0000 0.0000 0.0000 33.0592 0.0000
# 6 0.0000 0.0000 0.0000 0.0000 0.0000 50.6370
#
#
#
# Elastic Compliance Matrix: (Units=1/GPa)
#
#
# Indices 1 2 3 4 5 6 
#
# 1 0.011119 -0.002622 -0.001246 0.000000 0.000000 0.000000
# 2 -0.002622 0.015227 -0.002275 0.000000 0.000000 0.000000
# 3 -0.001246 -0.002275 0.013791 0.000000 0.000000 0.000000
# 4 0.000000 0.000000 0.000000 0.043223 0.000000 0.000000
# 5 0.000000 0.000000 0.000000 0.000000 0.030249 0.000000
# 6 0.000000 0.000000 0.000000 0.000000 0.000000 0.019748
#
#
# Mechanical properties :
#
#
# Convention : Reuss Voigt Hill
#
# Bulk Modulus (GPa) = 35.90515 36.48459 36.19487
# Shear Modulus (GPa) = 32.27327 34.62931 33.45129
#
# Velocity S-wave (km/s) = 3.75479 3.88943 3.82270
# Velocity P-wave (km/s) = 5.87222 6.00902 5.94101
#
# Compressibility (1/GPa) = 0.02785116
#
# Stress axis : x y z
#
# Youngs Moduli (GPa) = 89.93899 65.67221 72.50982
#
# Poissons Ratio (x) = 0.17217 0.09034
# Poissons Ratio (y) = 0.23580 0.16498
# Poissons Ratio (z) = 0.11206 0.14942
#
# Static dielectric constant tensor:
#      x y z
#    x 2.298490 0.000000 0.000000 
#    y 0.000000 1.915590 0.000000 
#    z 0.000000 0.000000 1.647780 
# 
# From -- ./inp_files/44475.got.cif
#   From: 2010.05.17/outbox.cif.g08.bks.cpg/sg68_23_cif.got.tgz:44475.got - 2010.06.03 18:57:09.
