data_PCOD9505137
_publ_section_title
;
Structure prediction by ZEFSAII (Michael W. Deem and Ramdas Pophale) SiO2 
 PCOD9505137
Probable space group: C M M A
;
_chemical_formula_sum "Si O2"
_cell_formula_units_Z 80
_cell_length_a 14.079630
_cell_length_b 10.652504
_cell_length_c 23.536615
_cell_angle_alpha 90.000000
_cell_angle_beta 90.000000
_cell_angle_gamma 90.000000
_cell_volume 3530.099539
_symmetry_space_group_name_H-M "C M M A"
_symmetry_group_IT_number 67
_symmetry_cell_setting 'orthorhombic'
loop_
_space_group_symop_operation_xyz
x,y,z
-x,1/2-y,z
x,-y,-z
-x,1/2+y,-z
-x,-y,-z
x,1/2+y,-z
-x,y,z
x,1/2-y,z
1/2+x,1/2+y,z
1/2-x,-y,z
1/2+x,1/2-y,-z
1/2-x,y,-z
1/2-x,1/2-y,-z
1/2+x,y,-z
1/2-x,1/2+y,z
1/2+x,-y,z
loop_
_atom_site_type_symbol
_atom_site_label
_atom_site_fract_x
_atom_site_fract_y
_atom_site_fract_z
Si Si1 0.114760 0.392186 0.660989
Si Si2 0.615731 0.750000 0.043504
Si Si3 0.351453 0.385906 0.468632
Si Si4 0.384201 0.750000 0.912260
Si Si5 0.115730 0.025371 0.126436
Si Si6 0.115695 0.390892 0.251968
O O1 0.136386 0.250000 0.680804
O O2 0.157138 0.409741 0.598329
O O3 0.143476 0.500527 0.704358
O O4 0.000000 0.399061 0.654557
O O5 0.500000 0.750000 0.042945
O O6 0.644124 0.624663 0.077766
O O7 0.645609 0.750000 0.978139
O O8 0.400610 0.500000 0.500000
O O9 0.397053 0.250000 0.474692
O O10 0.250000 0.377105 0.500000
O O11 0.500000 0.750000 0.910855
O O12 0.354340 0.618289 0.884213
O O13 0.145565 0.075171 0.188047
O O14 0.000000 0.025081 0.126088
O O15 0.146795 0.250000 0.267391
O O16 0.000000 0.389807 0.251625
#
# Coordination Sequence:
#
# PCOD9505137 Si02
#       6
#    16   8  16   8  16  16
#     4   9  18  30  45  66  90 115 147 188 228 267
#     4   9  14  22  30  40  62  92 130 180 230 274
#     4   9  18  33  51  70  93 120 147 178 217 268
#     4   9  16  20  28  44  62  90 132 180 230 276
#     4   9  15  22  31  44  64  94 133 179 229 275
#     4   9  16  26  38  53  76 107 142 182 231 280
#
# _framework density 22.66225
#
# number of rings (size 3 to 8) (size 9 to 14) (size 15 to 20)
#    0.000    3.000    1.000    0.600    1.400    3.600 
#    0.000    0.000    0.000    0.000    0.000    0.000 
#    0.000    0.000    0.000    0.000    0.000    0.000 
#
# Total GULP energy -223463.116151 kJ/mol
# GULP energy per Si atom -5586.577904 kJ/mol
# Density = 2.261067 g / cm^3
# Si number density = 22.662250 Si / 1000 Ang^3
#
#
#
# Elastic Constant Matrix: (Units=GPa)
#
#
# Indices 1 2 3 4 5 6 
#
# 1 94.6725 0.0501 9.8079 0.0000 0.0000 0.0000
# 2 0.0501 250.7409 111.1314 0.0000 0.0000 0.0000
# 3 9.8079 111.1314 142.2562 0.0000 0.0000 0.0000
# 4 0.0000 0.0000 0.0000 63.6923 0.0000 0.0000
# 5 0.0000 0.0000 0.0000 0.0000 17.2686 0.0000
# 6 0.0000 0.0000 0.0000 0.0000 0.0000 -85.1341
#
#
#
# Elastic Compliance Matrix: (Units=1/GPa)
#
#
# Indices 1 2 3 4 5 6 
#
# 1 0.010679 0.000496 -0.001124 0.000000 0.000000 0.000000
# 2 0.000496 0.006123 -0.004818 0.000000 0.000000 0.000000
# 3 -0.001124 -0.004818 0.010871 0.000000 0.000000 0.000000
# 4 0.000000 0.000000 0.000000 0.015700 0.000000 0.000000
# 5 0.000000 0.000000 0.000000 0.000000 0.057908 0.000000
# 6 0.000000 0.000000 0.000000 0.000000 0.000000 -0.011746
#
#
# Mechanical properties :
#
#
# Convention : Reuss Voigt Hill
#
# Bulk Modulus (GPa) = 59.58819 81.07204 70.33012
# Shear Modulus (GPa) = 47.16047 23.61071 35.38559
#
# Velocity S-wave (km/s) = 4.56676 3.23127 3.95578
# Velocity P-wave (km/s) = 7.35923 7.05501 7.20872
#
# Compressibility (1/GPa) = 0.01678185
#
# Stress axis : x y z
#
# Youngs Moduli (GPa) = 93.64285 163.30786 91.98984
#
# Poissons Ratio (x) = -0.08098 0.10336
# Poissons Ratio (y) = -0.04644 0.44319
# Poissons Ratio (z) = 0.10522 0.78679
#
# Static dielectric constant tensor:
#      x y z
#    x 1.882850 0.000000 0.000000 
#    y 0.000000 1.888510 0.000000 
#    z 0.000000 0.000000 1.763420 
# 
# From -- ./inp_files/34818.got.cif
#   From: 2010.05.17/outbox.cif.g08.bks.cpg/sg67_18_cif.got.tgz:34818.got - 2010.06.03 18:28:57.
