data_PCOD9505844
_publ_section_title
;
Structure prediction by ZEFSAII (Michael W. Deem and Ramdas Pophale) SiO2 
 PCOD9505844
Probable space group: C C C A
;
_chemical_formula_sum "Si O2"
_cell_formula_units_Z 68
_cell_length_a 9.104614
_cell_length_b 10.657010
_cell_length_c 26.955233
_cell_angle_alpha 90.000000
_cell_angle_beta 90.000000
_cell_angle_gamma 90.000000
_cell_volume 2615.411335
_symmetry_space_group_name_H-M "C C C A"
_symmetry_group_IT_number 68
_space_group.IT_coordinate_system_code '2'
_symmetry_cell_setting 'orthorhombic'
loop_
_space_group_symop_operation_xyz
x,y,z
-x,1/2-y,z
x,1/2-y,1/2-z
-x,y,1/2-z
-x,-y,-z
x,1/2+y,-z
-x,1/2+y,1/2+z
x,-y,1/2+z
1/2+x,1/2+y,z
1/2-x,-y,z
1/2+x,-y,1/2-z
1/2-x,1/2+y,1/2-z
1/2-x,1/2-y,-z
1/2+x,y,-z
1/2-x,y,1/2+z
1/2+x,1/2-y,1/2+z
loop_
_atom_site_type_symbol
_atom_site_label
_atom_site_fract_x
_atom_site_fract_y
_atom_site_fract_z
Si Si1 0.538246 0.435172 0.192180
Si Si2 0.232524 0.773845 0.933207
Si Si3 0.250000 0.000000 0.110171
Si Si4 0.746284 0.192523 0.675879
Si Si5 0.000000 0.750000 0.750000
Si Si6 0.000000 0.750000 0.486254
O O1 0.500000 0.459440 0.250000
O O2 0.616090 0.518255 0.149796
O O3 0.655250 0.317122 0.190892
O O4 0.377215 0.405155 0.173374
O O5 0.260025 0.623176 0.924326
O O6 0.182716 0.808920 0.878936
O O7 0.391100 0.826129 0.950216
O O8 0.116097 0.808412 0.975172
O O9 0.614471 0.179939 0.714178
#
# Coordination Sequence:
#
# PCOD9505844 Si02
#       6
#    16  16   8  16   4   8
#     4  10  18  38  55  83 122 175 194 242 298 370
#     4  10  21  39  59  92 113 158 198 262 299 364
#     4  10  22  36  60  88 128 152 206 250 316 358
#     4  10  19  34  62  88 123 153 213 245 297 352
#     4  12  18  30  60 100 112 158 206 266 264 372
#     4  10  21  40  66  80 116 154 215 252 306 352
#
# _framework density 25.999735000000001
#
# number of rings (size 3 to 8) (size 9 to 14) (size 15 to 20)
#    0.000    1.882    2.353    4.235    0.000    0.941 
#    8.471    0.000    0.000   11.294    0.000    0.000 
#    0.000    0.000    0.000    0.000    0.000    0.000 
#
# Total GULP energy -189613.067279 kJ/mol
# GULP energy per Si atom -5576.854920 kJ/mol
# Density = 2.594056 g / cm^3
# Si number density = 25.999735 Si / 1000 Ang^3
#
#
#
# Elastic Constant Matrix: (Units=GPa)
#
#
# Indices 1 2 3 4 5 6 
#
# 1 199.6552 25.8001 61.8158 0.0000 0.0000 0.0000
# 2 25.8001 59.0052 27.0431 0.0000 0.0000 0.0000
# 3 61.8158 27.0431 210.7222 0.0000 0.0000 0.0000
# 4 0.0000 0.0000 0.0000 17.3366 0.0000 0.0000
# 5 0.0000 0.0000 0.0000 0.0000 49.5687 0.0000
# 6 0.0000 0.0000 0.0000 0.0000 0.0000 30.8132
#
#
#
# Elastic Compliance Matrix: (Units=1/GPa)
#
#
# Indices 1 2 3 4 5 6 
#
# 1 0.005689 -0.001830 -0.001434 0.000000 0.000000 0.000000
# 2 -0.001830 0.018596 -0.001850 0.000000 0.000000 0.000000
# 3 -0.001434 -0.001850 0.005404 0.000000 0.000000 0.000000
# 4 0.000000 0.000000 0.000000 0.057681 0.000000 0.000000
# 5 0.000000 0.000000 0.000000 0.000000 0.020174 0.000000
# 6 0.000000 0.000000 0.000000 0.000000 0.000000 0.032454
#
#
# Mechanical properties :
#
#
# Convention : Reuss Voigt Hill
#
# Bulk Modulus (GPa) = 51.38589 77.63340 64.50965
# Shear Modulus (GPa) = 31.90563 43.19194 37.54879
#
# Velocity S-wave (km/s) = 3.50687 4.08026 3.80438
# Velocity P-wave (km/s) = 6.01701 7.21957 6.64555
#
# Compressibility (1/GPa) = 0.01946059
#
# Stress axis : x y z
#
# Youngs Moduli (GPa) = 175.77311 53.77600 185.06112
#
# Poissons Ratio (x) = 0.09843 0.26538
# Poissons Ratio (y) = 0.32173 0.34228
# Poissons Ratio (z) = 0.25206 0.09946
#
# Static dielectric constant tensor:
#      x y z
#    x 1.982700 0.000000 0.000000 
#    y 0.000000 2.370190 0.000000 
#    z 0.000000 0.000000 1.993280 
# 
# From -- ./inp_files/48899.got.cif
#   From: 2010.05.17/outbox.cif.g08.bks.cpg/sg68_25_cif.got.tgz:48899.got - 2010.06.03 18:57:09.
