data_PCOD9505950
_publ_section_title
;
Structure prediction by ZEFSAII (Michael W. Deem and Ramdas Pophale) SiO2 
 PCOD9505950
Probable space group: C C C A
;
_chemical_formula_sum "Si O2"
_cell_formula_units_Z 128
_cell_length_a 25.419456
_cell_length_b 11.620257
_cell_length_c 24.424320
_cell_angle_alpha 90.000000
_cell_angle_beta 90.000000
_cell_angle_gamma 90.000000
_cell_volume 7214.470578
_symmetry_space_group_name_H-M "C C C A"
_symmetry_group_IT_number 68
_space_group.IT_coordinate_system_code '2'
_symmetry_cell_setting 'orthorhombic'
loop_
_space_group_symop_operation_xyz
x,y,z
-x,1/2-y,z
x,1/2-y,1/2-z
-x,y,1/2-z
-x,-y,-z
x,1/2+y,-z
-x,1/2+y,1/2+z
x,-y,1/2+z
1/2+x,1/2+y,z
1/2-x,-y,z
1/2+x,-y,1/2-z
1/2-x,1/2+y,1/2-z
1/2-x,1/2-y,-z
1/2+x,y,-z
1/2-x,y,1/2+z
1/2+x,1/2-y,1/2+z
loop_
_atom_site_type_symbol
_atom_site_label
_atom_site_fract_x
_atom_site_fract_y
_atom_site_fract_z
Si Si1 0.375935 0.829794 0.201645
Si Si2 0.439070 0.714854 0.105799
Si Si3 0.059231 0.530941 0.517737
Si Si4 0.624456 0.173187 0.432460
Si Si5 0.690880 0.462813 0.612013
Si Si6 0.861940 0.661479 0.519189
Si Si7 0.061911 0.449251 0.753529
Si Si8 0.061694 0.264373 0.663621
O O1 0.353880 0.750000 0.250000
O O2 0.413962 0.748389 0.164252
O O3 0.333620 0.886997 0.160848
O O4 0.407088 0.937088 0.228959
O O5 0.500000 0.750000 0.105799
O O6 0.438571 0.588762 0.077815
O O7 0.403508 0.787417 0.063188
O O8 0.079172 0.617884 0.470410
O O9 0.102180 0.430323 0.512995
O O10 0.000000 0.500000 0.500000
O O11 0.657972 0.244173 0.476468
O O12 0.597441 0.255198 0.388904
O O13 0.655205 0.074825 0.400004
O O14 0.750000 0.500000 0.623100
O O15 0.684018 0.393010 0.555280
O O16 0.072854 0.381104 0.697050
O O17 0.071156 0.348002 0.798155
O O18 0.000000 0.477411 0.750000
O O19 0.000000 0.250000 0.649621
#
# Coordination Sequence:
#
# PCOD9505950 Si02
#       8
#    16  16  16  16  16  16  16  16
#     4  11  24  39  55  82 119 149 199 242 291 360
#     4  10  20  32  50  79 117 161 186 215 281 348
#     4  10  19  31  50  80 122 157 186 222 269 348
#     4  10  20  34  56  85 113 148 191 239 286 347
#     4  10  22  44  64  79 109 153 202 256 303 341
#     4   9  20  35  54  86 115 143 194 237 284 346
#     4   9  19  35  51  79 117 157 197 232 279 343
#     4   9  18  32  54  81 117 157 194 235 278 338
#
# _framework density 17.74212
#
# number of rings (size 3 to 8) (size 9 to 14) (size 15 to 20)
#    0.000    2.250    2.500    0.750    3.500    1.500 
#    0.000    1.250    0.000    0.000    0.000    1.750 
#    0.000    0.000    0.000    0.000    0.000    0.000 
#
# Total GULP energy -356528.752156 kJ/mol
# GULP energy per Si atom -5570.761752 kJ/mol
# Density = 1.770174 g / cm^3
# Si number density = 17.742120 Si / 1000 Ang^3
#
#
#
# Elastic Constant Matrix: (Units=GPa)
#
#
# Indices 1 2 3 4 5 6 
#
# 1 55.9415 25.9127 39.6313 0.0000 0.0000 0.0000
# 2 25.9127 75.3467 51.9769 0.0000 0.0000 0.0000
# 3 39.6313 51.9769 99.9595 0.0000 0.0000 0.0000
# 4 0.0000 0.0000 0.0000 28.6377 0.0000 0.0000
# 5 0.0000 0.0000 0.0000 0.0000 4.5234 0.0000
# 6 0.0000 0.0000 0.0000 0.0000 0.0000 11.6925
#
#
#
# Elastic Compliance Matrix: (Units=1/GPa)
#
#
# Indices 1 2 3 4 5 6 
#
# 1 0.025223 -0.002769 -0.008560 0.000000 0.000000 0.000000
# 2 -0.002769 0.021000 -0.009821 0.000000 0.000000 0.000000
# 3 -0.008560 -0.009821 0.018505 0.000000 0.000000 0.000000
# 4 0.000000 0.000000 0.000000 0.034919 0.000000 0.000000
# 5 0.000000 0.000000 0.000000 0.000000 0.221073 0.000000
# 6 0.000000 0.000000 0.000000 0.000000 0.000000 0.085525
#
#
# Mechanical properties :
#
#
# Convention : Reuss Voigt Hill
#
# Bulk Modulus (GPa) = 44.59207 51.80994 48.20101
# Shear Modulus (GPa) = 10.96441 16.55252 13.75847
#
# Velocity S-wave (km/s) = 2.48863 3.05774 2.78775
# Velocity P-wave (km/s) = 5.78323 6.45998 6.13095
#
# Compressibility (1/GPa) = 0.02242551
#
# Stress axis : x y z
#
# Youngs Moduli (GPa) = 39.64631 47.62007 54.03983
#
# Poissons Ratio (x) = 0.13188 0.46259
# Poissons Ratio (y) = 0.10979 0.53074
# Poissons Ratio (z) = 0.33938 0.46769
#
# Static dielectric constant tensor:
#      x y z
#    x 1.557070 0.000000 0.000000 
#    y 0.000000 1.664690 0.000000 
#    z 0.000000 0.000000 1.646480 
# 
# From -- ./inp_files/47369.got.cif
#   From: 2010.05.17/outbox.cif.g08.bks.cpg/sg68_24_cif.got.tgz:47369.got - 2010.06.03 18:57:09.
