data_PCOD9505462
_publ_section_title
;
Structure prediction by ZEFSAII (Michael W. Deem and Ramdas Pophale) SiO2 
 PCOD9505462
Probable space group: C C C A
;
_chemical_formula_sum "Si O2"
_cell_formula_units_Z 104
_cell_length_a 23.102627
_cell_length_b 26.553998
_cell_length_c 8.930775
_cell_angle_alpha 90.000000
_cell_angle_beta 90.000000
_cell_angle_gamma 90.000000
_cell_volume 5478.736740
_symmetry_space_group_name_H-M "C C C A"
_symmetry_group_IT_number 68
_space_group.IT_coordinate_system_code '2'
_symmetry_cell_setting 'orthorhombic'
loop_
_space_group_symop_operation_xyz
x,y,z
-x,1/2-y,z
x,1/2-y,1/2-z
-x,y,1/2-z
-x,-y,-z
x,1/2+y,-z
-x,1/2+y,1/2+z
x,-y,1/2+z
1/2+x,1/2+y,z
1/2-x,-y,z
1/2+x,-y,1/2-z
1/2-x,1/2+y,1/2-z
1/2-x,1/2-y,-z
1/2+x,y,-z
1/2-x,y,1/2+z
1/2+x,1/2-y,1/2+z
loop_
_atom_site_type_symbol
_atom_site_label
_atom_site_fract_x
_atom_site_fract_y
_atom_site_fract_z
Si Si1 0.000000 0.250000 0.003803
Si Si2 0.592705 0.497936 0.769681
Si Si3 0.966703 0.567121 0.519037
Si Si4 0.688739 0.261646 0.574438
Si Si5 0.096785 0.679967 0.504784
Si Si6 0.393871 0.930331 0.525106
Si Si7 0.412671 0.170608 0.636540
O O1 0.040303 0.293566 0.931095
O O2 0.045956 0.217622 0.097657
O O3 0.550257 0.466900 0.661147
O O4 0.627267 0.533044 0.655539
O O5 0.561435 0.537523 0.879957
O O6 0.625111 0.456382 0.869984
O O7 0.939100 0.621384 0.557179
O O8 0.035355 0.569823 0.491029
O O9 0.694098 0.250000 0.750000
O O10 0.750000 0.250000 0.500000
O O11 0.646243 0.221174 0.500112
O O12 0.651390 0.313889 0.576495
O O13 0.118640 0.627342 0.440880
O O14 0.085500 0.667116 0.682153
#
# Coordination Sequence:
#
# PCOD9505462 Si02
#       7
#     8  16  16  16  16  16  16
#     4  10  17  28  46  79 108 133 164 209 248 315
#     4  10  21  30  44  70 109 150 173 206 240 303
#     4  11  18  30  47  72 109 143 175 201 250 300
#     4   9  20  39  57  77 100 129 178 222 256 305
#     4  10  18  29  53  79 103 135 170 207 258 306
#     4  11  18  30  47  72 109 143 175 201 250 300
#     4  10  18  29  53  79 103 135 170 207 258 306
#
# _framework density 18.982476999999999
#
# number of rings (size 3 to 8) (size 9 to 14) (size 15 to 20)
#    0.000    1.846    3.077    6.000    0.000    0.000 
#    2.769    0.000    0.000    0.923    0.000    6.462 
#    0.000    0.000    0.000    0.000    0.000    0.000 
#
# Total GULP energy -289585.013125 kJ/mol
# GULP energy per Si atom -5568.942560 kJ/mol
# Density = 1.893927 g / cm^3
# Si number density = 18.982477 Si / 1000 Ang^3
#
#
#
# Elastic Constant Matrix: (Units=GPa)
#
#
# Indices 1 2 3 4 5 6 
#
# 1 66.7303 19.2330 5.1397 0.0000 0.0000 0.0000
# 2 19.2330 128.7347 15.3292 0.0000 0.0000 0.0000
# 3 5.1397 15.3292 42.7245 0.0000 0.0000 0.0000
# 4 0.0000 0.0000 0.0000 14.3314 0.0000 0.0000
# 5 0.0000 0.0000 0.0000 0.0000 12.7931 0.0000
# 6 0.0000 0.0000 0.0000 0.0000 0.0000 10.5613
#
#
#
# Elastic Compliance Matrix: (Units=1/GPa)
#
#
# Indices 1 2 3 4 5 6 
#
# 1 0.015709 -0.002217 -0.001094 0.000000 0.000000 0.000000
# 2 -0.002217 0.008427 -0.002757 0.000000 0.000000 0.000000
# 3 -0.001094 -0.002757 0.024527 0.000000 0.000000 0.000000
# 4 0.000000 0.000000 0.000000 0.069777 0.000000 0.000000
# 5 0.000000 0.000000 0.000000 0.000000 0.078167 0.000000
# 6 0.000000 0.000000 0.000000 0.000000 0.000000 0.094686
#
#
# Mechanical properties :
#
#
# Convention : Reuss Voigt Hill
#
# Bulk Modulus (GPa) = 27.37721 35.28814 31.33268
# Shear Modulus (GPa) = 15.84265 20.76967 18.30616
#
# Velocity S-wave (km/s) = 2.89207 3.31138 3.10880
# Velocity P-wave (km/s) = 5.06021 5.76633 5.42477
#
# Compressibility (1/GPa) = 0.03652672
#
# Stress axis : x y z
#
# Youngs Moduli (GPa) = 63.65836 118.66105 40.77200
#
# Poissons Ratio (x) = 0.26302 0.04462
# Poissons Ratio (y) = 0.14110 0.11241
# Poissons Ratio (z) = 0.06967 0.32715
#
# Static dielectric constant tensor:
#      x y z
#    x 1.682690 0.000000 0.000000 
#    y 0.000000 1.730790 0.000000 
#    z 0.000000 0.000000 1.718900 
# 
# From -- ./inp_files/7477.got.cif
#   From: 2010.05.17/outbox.cif.g08.bks.cpg/sg68_4_cif.got.tgz:7477.got - 2010.06.03 18:57:09.
