data_PCOD9505710
_publ_section_title
;
Structure prediction by ZEFSAII (Michael W. Deem and Ramdas Pophale) SiO2 
 PCOD9505710
Probable space group: C C C A
;
_chemical_formula_sum "Si O2"
_cell_formula_units_Z 112
_cell_length_a 14.354581
_cell_length_b 24.979066
_cell_length_c 16.090615
_cell_angle_alpha 90.000000
_cell_angle_beta 90.000000
_cell_angle_gamma 90.000000
_cell_volume 5769.515698
_symmetry_space_group_name_H-M "C C C A"
_symmetry_group_IT_number 68
_space_group.IT_coordinate_system_code '2'
_symmetry_cell_setting 'orthorhombic'
loop_
_space_group_symop_operation_xyz
x,y,z
-x,1/2-y,z
x,1/2-y,1/2-z
-x,y,1/2-z
-x,-y,-z
x,1/2+y,-z
-x,1/2+y,1/2+z
x,-y,1/2+z
1/2+x,1/2+y,z
1/2-x,-y,z
1/2+x,-y,1/2-z
1/2-x,1/2+y,1/2-z
1/2-x,1/2-y,-z
1/2+x,y,-z
1/2-x,y,1/2+z
1/2+x,1/2-y,1/2+z
loop_
_atom_site_type_symbol
_atom_site_label
_atom_site_fract_x
_atom_site_fract_y
_atom_site_fract_z
Si Si1 0.527885 0.887581 0.661686
Si Si2 0.806915 0.865506 0.562416
Si Si3 0.273227 0.061006 0.296201
Si Si4 0.597614 0.241519 0.617575
Si Si5 0.670426 0.401982 0.123954
Si Si6 0.386780 0.802745 0.953892
Si Si7 0.696240 0.278053 0.166150
O O1 0.500000 0.862201 0.750000
O O2 0.621749 0.921320 0.676707
O O3 0.436537 0.920300 0.636301
O O4 0.545106 0.841942 0.594350
O O5 0.791033 0.901018 0.645507
O O6 0.881505 0.818781 0.584037
O O7 0.817098 0.899023 0.476192
O O8 0.711630 0.833200 0.545428
O O9 0.269100 0.067980 0.195272
O O10 0.250000 0.000000 0.316276
O O11 0.500000 0.250000 0.664034
O O12 0.584447 0.284114 0.543384
O O13 0.695411 0.260548 0.657555
O O14 0.683925 0.340953 0.156671
O O15 0.364658 0.748723 0.905136
O O16 0.662896 0.250000 0.250000
#
# Coordination Sequence:
#
# PCOD9505710 Si02
#       7
#    16  16  16  16  16  16  16
#     4   9  19  34  57  87 115 141 183 237 290 339
#     4  10  19  37  58  86 117 156 192 234 292 353
#     4  10  23  41  61  80 111 146 194 254 307 341
#     4  11  20  33  53  80 125 157 186 221 273 343
#     4  11  19  36  61  84 113 145 192 239 287 349
#     4  10  18  33  52  86 121 149 178 222 282 344
#     4  11  20  32  51  79 116 155 188 220 271 340
#
# _framework density 19.412374
#
# number of rings (size 3 to 8) (size 9 to 14) (size 15 to 20)
#    0.000    1.714    2.857    5.143    0.000    0.857 
#    0.000    3.571    9.429    0.000    0.000    0.000 
#    0.000    0.000    0.000    0.000    0.000    0.000 
#
# Total GULP energy -311886.396173 kJ/mol
# GULP energy per Si atom -5569.399932 kJ/mol
# Density = 1.936819 g / cm^3
# Si number density = 19.412374 Si / 1000 Ang^3
#
#
#
# Elastic Constant Matrix: (Units=GPa)
#
#
# Indices 1 2 3 4 5 6 
#
# 1 54.2075 20.3844 30.4545 0.0000 0.0000 0.0000
# 2 20.3844 81.9610 26.1277 0.0000 0.0000 0.0000
# 3 30.4545 26.1277 104.6298 0.0000 0.0000 0.0000
# 4 0.0000 0.0000 0.0000 2.1322 0.0000 0.0000
# 5 0.0000 0.0000 0.0000 0.0000 5.5399 0.0000
# 6 0.0000 0.0000 0.0000 0.0000 0.0000 18.8885
#
#
#
# Elastic Compliance Matrix: (Units=1/GPa)
#
#
# Indices 1 2 3 4 5 6 
#
# 1 0.023160 -0.003923 -0.005761 0.000000 0.000000 0.000000
# 2 -0.003923 0.013921 -0.002334 0.000000 0.000000 0.000000
# 3 -0.005761 -0.002334 0.011817 0.000000 0.000000 0.000000
# 4 0.000000 0.000000 0.000000 0.468989 0.000000 0.000000
# 5 0.000000 0.000000 0.000000 0.000000 0.180508 0.000000
# 6 0.000000 0.000000 0.000000 0.000000 0.000000 0.052942
#
#
# Mechanical properties :
#
#
# Convention : Reuss Voigt Hill
#
# Bulk Modulus (GPa) = 40.22542 43.85908 42.04225
# Shear Modulus (GPa) = 6.38030 16.23424 11.30727
#
# Velocity S-wave (km/s) = 1.81490 2.89499 2.41608
# Velocity P-wave (km/s) = 5.01581 5.81524 5.43026
#
# Compressibility (1/GPa) = 0.02485990
#
# Stress axis : x y z
#
# Youngs Moduli (GPa) = 43.17823 71.83478 84.62116
#
# Poissons Ratio (x) = 0.28184 0.48753
# Poissons Ratio (y) = 0.16941 0.19753
# Poissons Ratio (z) = 0.24877 0.16768
#
# Static dielectric constant tensor:
#      x y z
#    x 1.741930 0.000000 0.000000 
#    y 0.000000 1.710590 0.000000 
#    z 0.000000 0.000000 1.690010 
# 
# From -- ./inp_files/22756.got.cif
#   From: 2010.05.17/outbox.cif.g08.bks.cpg/sg68_12_cif.got.tgz:22756.got - 2010.06.03 18:57:09.
