data_PCOD9505379
_publ_section_title
;
Structure prediction by ZEFSAII (Michael W. Deem and Ramdas Pophale) SiO2 
 PCOD9505379
Probable space group: C C C A
;
_chemical_formula_sum "Si O2"
_cell_formula_units_Z 68
_cell_length_a 20.210188
_cell_length_b 26.608021
_cell_length_c 5.465141
_cell_angle_alpha 90.000000
_cell_angle_beta 90.000000
_cell_angle_gamma 90.000000
_cell_volume 2938.896551
_symmetry_space_group_name_H-M "C C C A"
_symmetry_group_IT_number 68
_space_group.IT_coordinate_system_code '2'
_symmetry_cell_setting 'orthorhombic'
loop_
_space_group_symop_operation_xyz
x,y,z
-x,1/2-y,z
x,1/2-y,1/2-z
-x,y,1/2-z
-x,-y,-z
x,1/2+y,-z
-x,1/2+y,1/2+z
x,-y,1/2+z
1/2+x,1/2+y,z
1/2-x,-y,z
1/2+x,-y,1/2-z
1/2-x,1/2+y,1/2-z
1/2-x,1/2-y,-z
1/2+x,y,-z
1/2-x,y,1/2+z
1/2+x,1/2-y,1/2+z
loop_
_atom_site_type_symbol
_atom_site_label
_atom_site_fract_x
_atom_site_fract_y
_atom_site_fract_z
Si Si1 0.322689 0.467277 0.540194
Si Si2 0.474312 0.942375 0.499819
Si Si3 0.714209 0.855612 0.100321
Si Si4 0.926559 0.695959 0.862761
Si Si5 0.000000 0.250000 0.750000
O O1 0.316276 0.499416 0.288165
O O2 0.396802 0.446993 0.514753
O O3 0.281300 0.416492 0.576620
O O4 0.500000 0.918363 0.750000
O O5 0.500000 0.000000 0.500000
O O6 0.500000 0.919229 0.250000
O O7 0.756244 0.838078 0.337996
O O8 0.637429 0.839469 0.142743
O O9 0.906855 0.750000 0.750000
O O10 0.000000 0.684381 0.750000
O O11 0.948484 0.710908 0.132266
#
# Coordination Sequence:
#
# PCOD9505379 Si02
#       5
#    16  16  16  16   4
#     4  12  23  42  66  90 135 194 250 298 350 415
#     4  10  16  31  54  88 116 156 223 301 340 406
#     4  12  30  48  68 110 152 194 252 299 368 447
#     4   9  22  47  80 113 145 188 238 300 377 446
#     4   8  18  44  80 114 140 184 236 292 386 444
#
# _framework density 23.137936
#
# number of rings (size 3 to 8) (size 9 to 14) (size 15 to 20)
#    0.000    1.647    4.706    1.412    6.588    4.706 
#    2.118    0.000    0.000    0.000    0.000    0.000 
#    0.000    0.000    0.000    0.000    0.000    0.000 
#
# Total GULP energy -189435.183155 kJ/mol
# GULP energy per Si atom -5571.623034 kJ/mol
# Density = 2.308527 g / cm^3
# Si number density = 23.137936 Si / 1000 Ang^3
#
#
#
# Elastic Constant Matrix: (Units=GPa)
#
#
# Indices 1 2 3 4 5 6 
#
# 1 154.1081 19.2416 64.6714 0.0000 0.0000 0.0000
# 2 19.2416 103.7695 27.3309 0.0000 0.0000 0.0000
# 3 64.6714 27.3309 193.6380 0.0000 0.0000 0.0000
# 4 0.0000 0.0000 0.0000 622.5646 0.0000 0.0000
# 5 0.0000 0.0000 0.0000 0.0000 164.7586 0.0000
# 6 0.0000 0.0000 0.0000 0.0000 0.0000 22.6455
#
#
#
# Elastic Compliance Matrix: (Units=1/GPa)
#
#
# Indices 1 2 3 4 5 6 
#
# 1 0.007605 -0.000770 -0.002431 0.000000 0.000000 0.000000
# 2 -0.000770 0.010087 -0.001167 0.000000 0.000000 0.000000
# 3 -0.002431 -0.001167 0.006141 0.000000 0.000000 0.000000
# 4 0.000000 0.000000 0.000000 0.001606 0.000000 0.000000
# 5 0.000000 0.000000 0.000000 0.000000 0.006069 0.000000
# 6 0.000000 0.000000 0.000000 0.000000 0.000000 0.044159
#
#
# Mechanical properties :
#
#
# Convention : Reuss Voigt Hill
#
# Bulk Modulus (GPa) = 66.23624 74.88925 70.56274
# Shear Modulus (GPa) = 55.90599 184.67853 120.29226
#
# Velocity S-wave (km/s) = 4.92082 8.94369 7.21818
# Velocity P-wave (km/s) = 7.80864 11.79362 10.00161
#
# Compressibility (1/GPa) = 0.01509748
#
# Stress axis : x y z
#
# Youngs Moduli (GPa) = 131.48533 99.14001 162.84074
#
# Poissons Ratio (x) = 0.07632 0.39593
# Poissons Ratio (y) = 0.10123 0.18996
# Poissons Ratio (z) = 0.31969 0.11565
#
# Static dielectric constant tensor:
#      x y z
#    x 1.830610 0.000000 0.000000 
#    y 0.000000 1.840680 0.000000 
#    z 0.000000 0.000000 1.988400 
# 
# From -- ./inp_files/1638.got.cif
#   From: 2010.05.17/outbox.cif.g08.bks.cpg/sg68_1_cif.got.tgz:1638.got - 2010.06.03 18:57:09.
