data_PCOD9505300
_publ_section_title
;
Structure prediction by ZEFSAII (Michael W. Deem and Ramdas Pophale) SiO2 
 PCOD9505300
Probable space group: C C C A
;
_chemical_formula_sum "Si O2"
_cell_formula_units_Z 80
_cell_length_a 8.637745
_cell_length_b 13.937414
_cell_length_c 26.473691
_cell_angle_alpha 90.000000
_cell_angle_beta 90.000000
_cell_angle_gamma 90.000000
_cell_volume 3187.110161
_symmetry_space_group_name_H-M "C C C A"
_symmetry_group_IT_number 68
_space_group.IT_coordinate_system_code '2'
_symmetry_cell_setting 'orthorhombic'
loop_
_space_group_symop_operation_xyz
x,y,z
-x,1/2-y,z
x,1/2-y,1/2-z
-x,y,1/2-z
-x,-y,-z
x,1/2+y,-z
-x,1/2+y,1/2+z
x,-y,1/2+z
1/2+x,1/2+y,z
1/2-x,-y,z
1/2+x,-y,1/2-z
1/2-x,1/2+y,1/2-z
1/2-x,1/2-y,-z
1/2+x,y,-z
1/2-x,y,1/2+z
1/2+x,1/2-y,1/2+z
loop_
_atom_site_type_symbol
_atom_site_label
_atom_site_fract_x
_atom_site_fract_y
_atom_site_fract_z
Si Si1 0.335352 0.775371 0.329271
Si Si2 0.906842 0.849110 0.380947
Si Si3 0.888167 0.424791 0.797316
Si Si4 0.048421 0.363093 0.070909
Si Si5 0.257093 0.363204 0.483065
O O1 0.500000 0.750000 0.305674
O O2 0.257711 0.682011 0.355955
O O3 0.203868 0.823594 0.295718
O O4 0.382533 0.853570 0.372764
O O5 0.885092 0.872170 0.439266
O O6 0.000000 0.750000 0.379594
O O7 0.002651 0.922735 0.347012
O O8 0.750000 0.500000 0.797176
O O9 0.000000 0.437466 0.750000
O O10 0.000000 0.250000 0.064208
O O11 0.892960 0.404963 0.045230
O O12 0.184147 0.402749 0.035833
O O13 0.250000 0.250000 0.500000
#
# Coordination Sequence:
#
# PCOD9505300 Si02
#       5
#    16  16  16  16  16
#     4  10  19  39  69 105 135 163 218 285 344 397
#     4  10  19  34  64  99 133 169 225 281 329 391
#     4  11  28  50  68  90 127 183 236 285 359 422
#     4   9  16  25  50  95 142 172 201 253 317 392
#     4  10  15  26  52  98 145 175 207 257 325 396
#
# _framework density 25.101109000000001
#
# number of rings (size 3 to 8) (size 9 to 14) (size 15 to 20)
#    0.000    2.000    6.000    1.800    2.800    5.200 
#    0.000    1.000    0.000    1.200    0.000    0.000 
#    0.000    0.000    0.000    0.000    0.000    0.000 
#
# Total GULP energy -223059.042300 kJ/mol
# GULP energy per Si atom -5576.476058 kJ/mol
# Density = 2.504398 g / cm^3
# Si number density = 25.101109 Si / 1000 Ang^3
#
#
#
# Elastic Constant Matrix: (Units=GPa)
#
#
# Indices 1 2 3 4 5 6 
#
# 1 138.1903 28.1323 56.8294 0.0000 0.0000 0.0000
# 2 28.1323 75.5759 43.6846 0.0000 0.0000 0.0000
# 3 56.8294 43.6846 149.2865 0.0000 0.0000 0.0000
# 4 0.0000 0.0000 0.0000 -34.7189 0.0000 0.0000
# 5 0.0000 0.0000 0.0000 0.0000 37.6206 0.0000
# 6 0.0000 0.0000 0.0000 0.0000 0.0000 31.5857
#
#
#
# Elastic Compliance Matrix: (Units=1/GPa)
#
#
# Indices 1 2 3 4 5 6 
#
# 1 0.008737 -0.001601 -0.002858 0.000000 0.000000 0.000000
# 2 -0.001601 0.016219 -0.004137 0.000000 0.000000 0.000000
# 3 -0.002858 -0.004137 0.008997 0.000000 0.000000 0.000000
# 4 0.000000 0.000000 0.000000 -0.028803 0.000000 0.000000
# 5 0.000000 0.000000 0.000000 0.000000 0.026581 0.000000
# 6 0.000000 0.000000 0.000000 0.000000 0.000000 0.031660
#
#
# Mechanical properties :
#
#
# Convention : Reuss Voigt Hill
#
# Bulk Modulus (GPa) = 59.65517 68.92726 64.29121
# Shear Modulus (GPa) = 58.02561 22.52457 40.27509
#
# Velocity S-wave (km/s) = 4.81320 2.99884 4.00998
# Velocity P-wave (km/s) = 7.39640 6.28571 6.86356
#
# Compressibility (1/GPa) = 0.01676301
#
# Stress axis : x y z
#
# Youngs Moduli (GPa) = 114.44970 61.65763 111.14974
#
# Poissons Ratio (x) = 0.09869 0.31764
# Poissons Ratio (y) = 0.18319 0.45979
# Poissons Ratio (z) = 0.32707 0.25505
#
# Static dielectric constant tensor:
#      x y z
#    x 2.108880 0.000000 0.000000 
#    y 0.000000 2.084840 0.000000 
#    z 0.000000 0.000000 2.141360 
# 
# From -- ./inp_files/53989.got.cif
#   From: 2010.05.17/outbox.cif.g08.bks.cpg/sg68_27_cif.got.tgz:53989.got - 2010.06.03 18:57:09.
