data_PCOD9505376
_publ_section_title
;
Structure prediction by ZEFSAII (Michael W. Deem and Ramdas Pophale) SiO2 
 PCOD9505376
Probable space group: C C C A
;
_chemical_formula_sum "Si O2"
_cell_formula_units_Z 88
_cell_length_a 14.178810
_cell_length_b 22.872405
_cell_length_c 11.817155
_cell_angle_alpha 90.000000
_cell_angle_beta 90.000000
_cell_angle_gamma 90.000000
_cell_volume 3832.344546
_symmetry_space_group_name_H-M "C C C A"
_symmetry_group_IT_number 68
_space_group.IT_coordinate_system_code '2'
_symmetry_cell_setting 'orthorhombic'
loop_
_space_group_symop_operation_xyz
x,y,z
-x,1/2-y,z
x,1/2-y,1/2-z
-x,y,1/2-z
-x,-y,-z
x,1/2+y,-z
-x,1/2+y,1/2+z
x,-y,1/2+z
1/2+x,1/2+y,z
1/2-x,-y,z
1/2+x,-y,1/2-z
1/2-x,1/2+y,1/2-z
1/2-x,1/2-y,-z
1/2+x,y,-z
1/2-x,y,1/2+z
1/2+x,1/2-y,1/2+z
loop_
_atom_site_type_symbol
_atom_site_label
_atom_site_fract_x
_atom_site_fract_y
_atom_site_fract_z
Si Si1 0.540752 0.022411 0.877235
Si Si2 0.134590 0.255460 0.506167
Si Si3 0.175295 0.346542 0.326262
Si Si4 0.705535 0.445950 0.051674
Si Si5 0.672044 0.750000 0.750000
Si Si6 0.568786 0.365012 0.906435
O O1 0.500000 0.012972 0.750000
O O2 0.521458 0.091755 0.898488
O O3 0.636705 0.984523 0.869773
O O4 0.500000 0.000000 0.000000
O O5 0.250000 0.250000 0.500000
O O6 0.120737 0.307248 0.418070
O O7 0.114971 0.266416 0.637652
O O8 0.079289 0.197860 0.466767
O O9 0.223352 0.403775 0.380964
O O10 0.261414 0.305062 0.281202
O O11 0.111061 0.356240 0.217689
O O12 0.750000 0.500000 0.981090
O O13 0.645310 0.403998 0.973520
#
# Coordination Sequence:
#
# PCOD9505376 Si02
#       6
#    16  16  16  16   8  16
#     4  10  24  44  65  90 136 184 228 277 343 414
#     4  10  17  32  58  99 134 166 218 288 341 402
#     4  11  18  33  62  99 132 168 228 287 339 403
#     4  11  23  38  60  96 133 179 231 279 337 410
#     4  10  16  30  56  94 142 160 220 288 342 396
#     4  11  20  37  64  94 136 173 223 281 347 407
#
# _framework density 22.962446
#
# number of rings (size 3 to 8) (size 9 to 14) (size 15 to 20)
#    0.000    1.455    7.273    1.091    0.000    3.636 
#    0.000    1.818    0.000    7.636    0.000    3.182 
#    0.000    0.000    0.000    0.000    0.000    0.000 
#
# Total GULP energy -245227.801600 kJ/mol
# GULP energy per Si atom -5573.359127 kJ/mol
# Density = 2.291018 g / cm^3
# Si number density = 22.962446 Si / 1000 Ang^3
#
#
#
# Elastic Constant Matrix: (Units=GPa)
#
#
# Indices 1 2 3 4 5 6 
#
# 1 92.6535 55.9921 39.3666 0.0000 0.0000 0.0000
# 2 55.9921 222.6177 95.3600 0.0000 0.0000 0.0000
# 3 39.3666 95.3600 180.3267 0.0000 0.0000 0.0000
# 4 0.0000 0.0000 0.0000 28.9782 0.0000 0.0000
# 5 0.0000 0.0000 0.0000 0.0000 24.5157 0.0000
# 6 0.0000 0.0000 0.0000 0.0000 0.0000 56.6709
#
#
#
# Elastic Compliance Matrix: (Units=1/GPa)
#
#
# Indices 1 2 3 4 5 6 
#
# 1 0.013008 -0.002657 -0.001435 0.000000 0.000000 0.000000
# 2 -0.002657 0.006350 -0.002778 0.000000 0.000000 0.000000
# 3 -0.001435 -0.002778 0.007328 0.000000 0.000000 0.000000
# 4 0.000000 0.000000 0.000000 0.034509 0.000000 0.000000
# 5 0.000000 0.000000 0.000000 0.000000 0.040790 0.000000
# 6 0.000000 0.000000 0.000000 0.000000 0.000000 0.017646
#
#
# Mechanical properties :
#
#
# Convention : Reuss Voigt Hill
#
# Bulk Modulus (GPa) = 77.24091 97.44839 87.34465
# Shear Modulus (GPa) = 36.31439 42.35822 39.33631
#
# Velocity S-wave (km/s) = 3.98108 4.29963 4.14342
# Velocity P-wave (km/s) = 7.40560 8.19630 7.81096
#
# Compressibility (1/GPa) = 0.01294651
#
# Stress axis : x y z
#
# Youngs Moduli (GPa) = 76.87421 157.47100 136.46712
#
# Poissons Ratio (x) = 0.41845 0.19577
# Poissons Ratio (y) = 0.20428 0.37912
# Poissons Ratio (z) = 0.11028 0.43747
#
# Static dielectric constant tensor:
#      x y z
#    x 2.077740 0.000000 0.000000 
#    y 0.000000 1.887760 0.000000 
#    z 0.000000 0.000000 1.852770 
# 
# From -- ./inp_files/14448.got.cif
#   From: 2010.05.17/outbox.cif.g08.bks.cpg/sg68_8_cif.got.tgz:14448.got - 2010.06.03 18:57:09.
