data_PCOD9505479
_publ_section_title
;
Structure prediction by ZEFSAII (Michael W. Deem and Ramdas Pophale) SiO2 
 PCOD9505479
Probable space group: C C C A
;
_chemical_formula_sum "Si O2"
_cell_formula_units_Z 96
_cell_length_a 21.166197
_cell_length_b 14.500976
_cell_length_c 18.607067
_cell_angle_alpha 90.000000
_cell_angle_beta 90.000000
_cell_angle_gamma 90.000000
_cell_volume 5711.076652
_symmetry_space_group_name_H-M "C C C A"
_symmetry_group_IT_number 68
_space_group.IT_coordinate_system_code '2'
_symmetry_cell_setting 'orthorhombic'
loop_
_space_group_symop_operation_xyz
x,y,z
-x,1/2-y,z
x,1/2-y,1/2-z
-x,y,1/2-z
-x,-y,-z
x,1/2+y,-z
-x,1/2+y,1/2+z
x,-y,1/2+z
1/2+x,1/2+y,z
1/2-x,-y,z
1/2+x,-y,1/2-z
1/2-x,1/2+y,1/2-z
1/2-x,1/2-y,-z
1/2+x,y,-z
1/2-x,y,1/2+z
1/2+x,1/2-y,1/2+z
loop_
_atom_site_type_symbol
_atom_site_label
_atom_site_fract_x
_atom_site_fract_y
_atom_site_fract_z
Si Si1 0.478485 0.349192 0.452803
Si Si2 0.619379 0.381832 0.438552
Si Si3 0.147191 0.921417 0.976713
Si Si4 0.110147 0.779833 0.171402
Si Si5 0.307531 0.268494 0.944996
Si Si6 0.221792 0.596420 0.371182
O O1 0.500000 0.250000 0.484954
O O2 0.544359 0.399946 0.441089
O O3 0.424577 0.400463 0.497590
O O4 0.444968 0.323742 0.377246
O O5 0.653100 0.480263 0.438848
O O6 0.632027 0.310432 0.373979
O O7 0.641583 0.327104 0.509852
O O8 0.167058 0.833378 0.929417
O O9 0.189283 0.921783 0.050024
O O10 0.089801 0.750000 0.250000
O O11 0.167326 0.853037 0.173785
O O12 0.278360 0.330907 0.883085
O O13 0.250000 0.250000 0.000000
O O14 0.250000 0.500000 0.344759
#
# Coordination Sequence:
#
# PCOD9505479 Si02
#       6
#    16  16  16  16  16  16
#     4   9  17  31  47  71 102 132 162 205 257 300
#     4  11  18  29  51  74  99 132 166 208 256 306
#     4  10  18  28  47  76 104 125 163 212 258 311
#     4  10  21  36  50  72 105 138 176 206 241 301
#     4  10  17  29  46  75 102 129 162 208 265 309
#     4  10  18  32  53  71  99 139 168 205 264 306
#
# _framework density 16.809439999999999
#
# number of rings (size 3 to 8) (size 9 to 14) (size 15 to 20)
#    0.000    2.000    8.333    0.500    0.000    3.000 
#    0.000    1.667    0.000    0.000    0.000    0.000 
#    0.000    0.000    0.000    0.000    0.000    0.000 
#
# Total GULP energy -267293.710404 kJ/mol
# GULP energy per Si atom -5568.618967 kJ/mol
# Density = 1.677118 g / cm^3
# Si number density = 16.809440 Si / 1000 Ang^3
#
#
#
# Elastic Constant Matrix: (Units=GPa)
#
#
# Indices 1 2 3 4 5 6 
#
# 1 71.5492 30.4789 10.4844 0.0000 0.0000 0.0000
# 2 30.4789 104.8938 -2.6766 0.0000 0.0000 0.0000
# 3 10.4844 -2.6766 9.7636 0.0000 0.0000 0.0000
# 4 0.0000 0.0000 0.0000 9.3701 0.0000 0.0000
# 5 0.0000 0.0000 0.0000 0.0000 7.1578 0.0000
# 6 0.0000 0.0000 0.0000 0.0000 0.0000 27.1242
#
#
#
# Elastic Compliance Matrix: (Units=1/GPa)
#
#
# Indices 1 2 3 4 5 6 
#
# 1 0.020157 -0.006454 -0.023414 0.000000 0.000000 0.000000
# 2 -0.006454 0.011667 0.010129 0.000000 0.000000 0.000000
# 3 -0.023414 0.010129 0.130340 0.000000 0.000000 0.000000
# 4 0.000000 0.000000 0.000000 0.106723 0.000000 0.000000
# 5 0.000000 0.000000 0.000000 0.000000 0.139707 0.000000
# 6 0.000000 0.000000 0.000000 0.000000 0.000000 0.036867
#
#
# Mechanical properties :
#
#
# Convention : Reuss Voigt Hill
#
# Bulk Modulus (GPa) = 8.15089 29.19780 18.67435
# Shear Modulus (GPa) = 9.50866 18.59175 14.05021
#
# Velocity S-wave (km/s) = 2.38097 3.32931 2.89425
# Velocity P-wave (km/s) = 3.52395 5.67333 4.72255
#
# Compressibility (1/GPa) = 0.12268595
#
# Stress axis : x y z
#
# Youngs Moduli (GPa) = 49.61083 85.70909 7.67222
#
# Poissons Ratio (x) = 0.55320 0.17964
# Poissons Ratio (y) = 0.32021 -0.07771
# Poissons Ratio (z) = 1.16160 -0.86818
#
# Static dielectric constant tensor:
#      x y z
#    x 1.617510 0.000000 0.000000 
#    y 0.000000 1.606830 0.000000 
#    z 0.000000 0.000000 1.531990 
# 
# From -- ./inp_files/38857.got.cif
#   From: 2010.05.17/outbox.cif.g08.bks.cpg/sg68_20_cif.got.tgz:38857.got - 2010.06.03 18:57:09.
