data_PCOD9505874
_publ_section_title
;
Structure prediction by ZEFSAII (Michael W. Deem and Ramdas Pophale) SiO2 
 PCOD9505874
Probable space group: C C C A
;
_chemical_formula_sum "Si O2"
_cell_formula_units_Z 92
_cell_length_a 12.783874
_cell_length_b 19.405898
_cell_length_c 17.383085
_cell_angle_alpha 90.000000
_cell_angle_beta 90.000000
_cell_angle_gamma 90.000000
_cell_volume 4312.440139
_symmetry_space_group_name_H-M "C C C A"
_symmetry_group_IT_number 68
_space_group.IT_coordinate_system_code '2'
_symmetry_cell_setting 'orthorhombic'
loop_
_space_group_symop_operation_xyz
x,y,z
-x,1/2-y,z
x,1/2-y,1/2-z
-x,y,1/2-z
-x,-y,-z
x,1/2+y,-z
-x,1/2+y,1/2+z
x,-y,1/2+z
1/2+x,1/2+y,z
1/2-x,-y,z
1/2+x,-y,1/2-z
1/2-x,1/2+y,1/2-z
1/2-x,1/2-y,-z
1/2+x,y,-z
1/2-x,y,1/2+z
1/2+x,1/2-y,1/2+z
loop_
_atom_site_type_symbol
_atom_site_label
_atom_site_fract_x
_atom_site_fract_y
_atom_site_fract_z
Si Si1 0.000000 0.750000 0.250000
Si Si2 0.090340 0.626381 0.150681
Si Si3 0.651018 0.049866 0.872878
Si Si4 0.325873 0.193506 0.581578
Si Si5 0.500000 0.487409 0.250000
Si Si6 0.698542 0.656645 0.433695
Si Si7 0.508206 0.893675 0.491003
O O1 0.065145 0.697928 0.194654
O O2 0.081045 0.564085 0.209308
O O3 0.201653 0.626504 0.108938
O O4 0.006410 0.610401 0.082632
O O5 0.684138 0.129699 0.860366
O O6 0.750000 0.000000 0.874005
O O7 0.565526 0.030732 0.810317
O O8 0.589018 0.050830 0.955098
O O9 0.327592 0.271434 0.608614
O O10 0.234312 0.180186 0.519338
O O11 0.433003 0.176700 0.535868
O O12 0.601683 0.606569 0.447708
#
# Coordination Sequence:
#
# PCOD9505874 Si02
#       7
#     4  16  16  16   8  16  16
#     4  10  24  40  60 100 142 172 208 258 348 408
#     4  10  24  39  64  96 130 176 212 272 325 397
#     4  10  24  44  64  93 129 179 220 269 331 389
#     4   8  20  35  64 101 124 157 197 283 326 377
#     4  11  26  45  58  85 140 181 218 260 322 419
#     4  10  18  38  69 104 122 154 219 282 335 375
#     4   9  21  39  69  99 123 162 224 280 322 376
#
# _framework density 21.333628999999998
#
# number of rings (size 3 to 8) (size 9 to 14) (size 15 to 20)
#    1.043    1.391    0.000    0.522    9.739    3.478 
#    0.000    0.870    0.000    1.043    0.000    0.000 
#    0.000    0.000    0.000    0.000    0.000    0.000 
#
# Total GULP energy -256403.721385 kJ/mol
# GULP energy per Si atom -5573.993943 kJ/mol
# Density = 2.128507 g / cm^3
# Si number density = 21.333629 Si / 1000 Ang^3
#
#
#
# Elastic Constant Matrix: (Units=GPa)
#
#
# Indices 1 2 3 4 5 6 
#
# 1 70.7029 11.7592 21.2754 0.0000 0.0000 0.0000
# 2 11.7592 85.3657 36.1504 0.0000 0.0000 0.0000
# 3 21.2754 36.1504 72.2681 0.0000 0.0000 0.0000
# 4 0.0000 0.0000 0.0000 28.9033 0.0000 0.0000
# 5 0.0000 0.0000 0.0000 0.0000 4.5585 0.0000
# 6 0.0000 0.0000 0.0000 0.0000 0.0000 18.4357
#
#
#
# Elastic Compliance Matrix: (Units=1/GPa)
#
#
# Indices 1 2 3 4 5 6 
#
# 1 0.015523 -0.000258 -0.004441 0.000000 0.000000 0.000000
# 2 -0.000258 0.014867 -0.007361 0.000000 0.000000 0.000000
# 3 -0.004441 -0.007361 0.018827 0.000000 0.000000 0.000000
# 4 0.000000 0.000000 0.000000 0.034598 0.000000 0.000000
# 5 0.000000 0.000000 0.000000 0.000000 0.219369 0.000000
# 6 0.000000 0.000000 0.000000 0.000000 0.000000 0.054243
#
#
# Mechanical properties :
#
#
# Convention : Reuss Voigt Hill
#
# Bulk Modulus (GPa) = 39.84451 40.74518 40.29484
# Shear Modulus (GPa) = 12.82340 20.98961 16.90651
#
# Velocity S-wave (km/s) = 2.45437 3.14008 2.81816
# Velocity P-wave (km/s) = 5.17197 5.68219 5.43308
#
# Compressibility (1/GPa) = 0.02509756
#
# Stress axis : x y z
#
# Youngs Moduli (GPa) = 64.42103 67.26300 53.11539
#
# Poissons Ratio (x) = 0.01733 0.23588
# Poissons Ratio (y) = 0.01660 0.39098
# Poissons Ratio (z) = 0.28609 0.49512
#
# Static dielectric constant tensor:
#      x y z
#    x 1.789850 0.000000 0.000000 
#    y 0.000000 1.813010 0.000000 
#    z 0.000000 0.000000 1.819060 
# 
# From -- ./inp_files/37495.got.cif
#   From: 2010.05.17/outbox.cif.g08.bks.cpg/sg68_19_cif.got.tgz:37495.got - 2010.06.03 18:57:09.
