data_PCOD9505474
_publ_section_title
;
Structure prediction by ZEFSAII (Michael W. Deem and Ramdas Pophale) SiO2 
 PCOD9505474
Probable space group: C C C A
;
_chemical_formula_sum "Si O2"
_cell_formula_units_Z 96
_cell_length_a 12.998997
_cell_length_b 18.619375
_cell_length_c 22.902246
_cell_angle_alpha 90.000000
_cell_angle_beta 90.000000
_cell_angle_gamma 90.000000
_cell_volume 5543.103881
_symmetry_space_group_name_H-M "C C C A"
_symmetry_group_IT_number 68
_space_group.IT_coordinate_system_code '2'
_symmetry_cell_setting 'orthorhombic'
loop_
_space_group_symop_operation_xyz
x,y,z
-x,1/2-y,z
x,1/2-y,1/2-z
-x,y,1/2-z
-x,-y,-z
x,1/2+y,-z
-x,1/2+y,1/2+z
x,-y,1/2+z
1/2+x,1/2+y,z
1/2-x,-y,z
1/2+x,-y,1/2-z
1/2-x,1/2+y,1/2-z
1/2-x,1/2-y,-z
1/2+x,y,-z
1/2-x,y,1/2+z
1/2+x,1/2-y,1/2+z
loop_
_atom_site_type_symbol
_atom_site_label
_atom_site_fract_x
_atom_site_fract_y
_atom_site_fract_z
Si Si1 0.520571 0.056350 0.180079
Si Si2 0.531139 0.602331 0.316976
Si Si3 0.084319 0.308161 0.866991
Si Si4 0.173583 0.250000 0.750000
Si Si5 0.739152 0.871822 0.664446
Si Si6 0.500000 0.250000 0.886497
Si Si7 0.729912 0.244500 0.568324
O O1 0.500000 0.064922 0.250000
O O2 0.460600 0.112894 0.139605
O O3 0.639802 0.078609 0.170968
O O4 0.488099 0.975237 0.164041
O O5 0.500000 0.612007 0.250000
O O6 0.652849 0.590875 0.325574
O O7 0.503505 0.675946 0.349673
O O8 0.106754 0.285640 0.800308
O O9 0.191685 0.300556 0.900906
O O10 0.000000 0.250000 0.889684
O O11 0.235656 0.310308 0.714881
O O12 0.740439 0.829359 0.602638
O O13 0.608274 0.246116 0.920514
O O14 0.750000 0.250000 0.500000
#
# Coordination Sequence:
#
# PCOD9505474 Si02
#       7
#    16  16  16   8  16   8  16
#     4  11  19  33  54  88 120 143 188 239 292 344
#     4  10  23  34  53  80 119 160 183 226 289 362
#     4  11  18  32  58  87 114 141 183 240 286 336
#     4  10  17  28  55  82 114 139 184 224 293 342
#     4  10  20  33  54  79 116 151 186 241 280 347
#     4  10  23  42  56  78 116 149 198 234 274 362
#     4  10  23  37  61  85 106 155 195 236 278 327
#
# _framework density 17.318816999999999
#
# number of rings (size 3 to 8) (size 9 to 14) (size 15 to 20)
#    0.000    1.667    5.000    1.000    8.167    0.000 
#    0.000    0.833    0.000   13.000    0.000    0.000 
#    0.000    0.000    0.000    0.000    0.000    0.000 
#
# Total GULP energy -267322.215706 kJ/mol
# GULP energy per Si atom -5569.212827 kJ/mol
# Density = 1.727940 g / cm^3
# Si number density = 17.318817 Si / 1000 Ang^3
#
#
#
# Elastic Constant Matrix: (Units=GPa)
#
#
# Indices 1 2 3 4 5 6 
#
# 1 108.9637 49.1887 55.0709 0.0000 0.0000 0.0000
# 2 49.1887 128.8121 43.7147 0.0000 0.0000 0.0000
# 3 55.0709 43.7147 102.2740 0.0000 0.0000 0.0000
# 4 0.0000 0.0000 0.0000 -1.9723 0.0000 0.0000
# 5 0.0000 0.0000 0.0000 0.0000 13.9702 0.0000
# 6 0.0000 0.0000 0.0000 0.0000 0.0000 10.4607
#
#
#
# Elastic Compliance Matrix: (Units=1/GPa)
#
#
# Indices 1 2 3 4 5 6 
#
# 1 0.013636 -0.003176 -0.005985 0.000000 0.000000 0.000000
# 2 -0.003176 0.009820 -0.002487 0.000000 0.000000 0.000000
# 3 -0.005985 -0.002487 0.014063 0.000000 0.000000 0.000000
# 4 0.000000 0.000000 0.000000 -0.507021 0.000000 0.000000
# 5 0.000000 0.000000 0.000000 0.000000 0.071581 0.000000
# 6 0.000000 0.000000 0.000000 0.000000 0.000000 0.095596
#
#
# Mechanical properties :
#
#
# Convention : Reuss Voigt Hill
#
# Bulk Modulus (GPa) = 70.30785 70.66648 70.48716
# Shear Modulus (GPa) = -18.22910 17.29675 -0.46618
#
# Velocity S-wave (km/s) = -3.24784 3.16369 -0.51938
# Velocity P-wave (km/s) = 5.15943 7.36459 6.35834
#
# Compressibility (1/GPa) = 0.01422316
#
# Stress axis : x y z
#
# Youngs Moduli (GPa) = 73.33586 101.83174 71.10629
#
# Poissons Ratio (x) = 0.32341 0.42557
# Poissons Ratio (y) = 0.23291 0.17686
# Poissons Ratio (z) = 0.43891 0.25328
#
# Static dielectric constant tensor:
#      x y z
#    x 1.623630 0.000000 0.000000 
#    y 0.000000 1.658120 0.000000 
#    z 0.000000 0.000000 1.560200 
# 
# From -- ./inp_files/44543.got.cif
#   From: 2010.05.17/outbox.cif.g08.bks.cpg/sg68_23_cif.got.tgz:44543.got - 2010.06.03 18:57:09.
