data_PCOD9505154
_publ_section_title
;
Structure prediction by ZEFSAII (Michael W. Deem and Ramdas Pophale) SiO2 
 PCOD9505154
Probable space group: C M M A
;
_chemical_formula_sum "Si O2"
_cell_formula_units_Z 112
_cell_length_a 14.505072
_cell_length_b 11.043231
_cell_length_c 33.114535
_cell_angle_alpha 90.000000
_cell_angle_beta 90.000000
_cell_angle_gamma 90.000000
_cell_volume 5304.380949
_symmetry_space_group_name_H-M "C M M A"
_symmetry_group_IT_number 67
_symmetry_cell_setting 'orthorhombic'
loop_
_space_group_symop_operation_xyz
x,y,z
-x,1/2-y,z
x,-y,-z
-x,1/2+y,-z
-x,-y,-z
x,1/2+y,-z
-x,y,z
x,1/2-y,z
1/2+x,1/2+y,z
1/2-x,-y,z
1/2+x,1/2-y,-z
1/2-x,y,-z
1/2-x,1/2-y,-z
1/2+x,y,-z
1/2-x,1/2+y,z
1/2+x,-y,z
loop_
_atom_site_type_symbol
_atom_site_label
_atom_site_fract_x
_atom_site_fract_y
_atom_site_fract_z
Si Si1 0.104801 0.104767 0.611073
Si Si2 0.647497 0.381853 0.741360
Si Si3 0.147950 0.618433 0.019094
Si Si4 0.349455 0.113461 0.478291
Si Si5 0.611668 0.614932 0.165884
Si Si6 0.349132 0.886476 0.700648
Si Si7 0.388296 0.614734 0.887698
O O1 0.098720 0.250000 0.611756
O O2 0.154937 0.078791 0.568974
O O3 0.151282 0.074863 0.653660
O O4 0.000000 0.056020 0.609968
O O5 0.604021 0.250000 0.733261
O O6 0.654351 0.393028 0.789548
O O7 0.602991 0.504214 0.724455
O O8 0.747375 0.377607 0.719920
O O9 0.105001 0.750000 0.010756
O O10 0.151371 0.604473 0.067269
O O11 0.102711 0.500000 0.000000
O O12 0.250000 0.622998 0.000000
O O13 0.389891 0.250000 0.481175
O O14 0.250000 0.122014 0.500000
O O15 0.397250 0.000000 0.500000
O O16 0.500000 0.609524 0.170715
O O17 0.632831 0.750000 0.149056
O O18 0.639384 0.500139 0.139086
O O19 0.389015 0.750000 0.703578
O O20 0.500000 0.610792 0.891346
O O21 0.364819 0.750000 0.871600
#
# Coordination Sequence:
#
# PCOD9505154 Si02
#       7
#    16  16  16  16  16  16  16
#     4   9  18  33  52  74 101 132 167 209 253 296
#     4   9  18  32  50  74 104 132 162 206 253 296
#     4   9  18  33  51  72 101 135 169 207 251 297
#     4   9  18  32  51  75 102 133 167 204 249 300
#     4   9  18  33  52  74 102 135 165 196 246 307
#     4   9  18  33  52  72  96 132 173 205 242 297
#     4   9  18  33  53  77 103 131 168 213 252 289
#
# _framework density 21.114623000000002
#
# number of rings (size 3 to 8) (size 9 to 14) (size 15 to 20)
#    0.000    3.000    0.000    0.000    0.000    4.571 
#    0.000    5.000    0.000   16.286    0.000    0.000 
#    0.000    0.000    0.000    0.000    0.000    0.000 
#
# Total GULP energy -311849.912867 kJ/mol
# GULP energy per Si atom -5568.748444 kJ/mol
# Density = 2.106656 g / cm^3
# Si number density = 21.114623 Si / 1000 Ang^3
#
#
#
# Elastic Constant Matrix: (Units=GPa)
#
#
# Indices 1 2 3 4 5 6 
#
# 1 99.2316 14.6865 38.5138 0.0000 0.0000 0.0000
# 2 14.6865 224.5901 94.2155 0.0000 0.0000 0.0000
# 3 38.5138 94.2155 134.2416 0.0000 0.0000 0.0000
# 4 0.0000 0.0000 0.0000 27.7465 0.0000 0.0000
# 5 0.0000 0.0000 0.0000 0.0000 75.4865 0.0000
# 6 0.0000 0.0000 0.0000 0.0000 0.0000 -13.8255
#
#
#
# Elastic Compliance Matrix: (Units=1/GPa)
#
#
# Indices 1 2 3 4 5 6 
#
# 1 0.011465 0.000893 -0.003916 0.000000 0.000000 0.000000
# 2 0.000893 0.006380 -0.004734 0.000000 0.000000 0.000000
# 3 -0.003916 -0.004734 0.011895 0.000000 0.000000 0.000000
# 4 0.000000 0.000000 0.000000 0.036041 0.000000 0.000000
# 5 0.000000 0.000000 0.000000 0.000000 0.013247 0.000000
# 6 0.000000 0.000000 0.000000 0.000000 0.000000 -0.072330
#
#
# Mechanical properties :
#
#
# Convention : Reuss Voigt Hill
#
# Bulk Modulus (GPa) = 70.29170 83.65500 76.97335
# Shear Modulus (GPa) = 185.49739 38.59134 112.04436
#
# Velocity S-wave (km/s) = 9.38314 4.27981 7.29246
# Velocity P-wave (km/s) = 12.27819 8.00798 10.36537
#
# Compressibility (1/GPa) = 0.01422643
#
# Stress axis : x y z
#
# Youngs Moduli (GPa) = 87.22048 156.73839 84.06701
#
# Poissons Ratio (x) = -0.13998 0.32922
# Poissons Ratio (y) = -0.07790 0.39797
# Poissons Ratio (z) = 0.34157 0.74200
#
# Static dielectric constant tensor:
#      x y z
#    x 1.847310 0.000000 0.000000 
#    y 0.000000 1.859230 0.000000 
#    z 0.000000 0.000000 1.722700 
# 
# From -- ./inp_files/45702.got.cif
#   From: 2010.05.17/outbox.cif.g08.bks.cpg/sg67_23_cif.got.tgz:45702.got - 2010.06.03 18:28:57.
