data_PCOD9505526
_publ_section_title
;
Structure prediction by ZEFSAII (Michael W. Deem and Ramdas Pophale) SiO2 
 PCOD9505526
Probable space group: C C C A
;
_chemical_formula_sum "Si O2"
_cell_formula_units_Z 100
_cell_length_a 8.710384
_cell_length_b 19.284792
_cell_length_c 28.419660
_cell_angle_alpha 90.000000
_cell_angle_beta 90.000000
_cell_angle_gamma 90.000000
_cell_volume 4773.876047
_symmetry_space_group_name_H-M "C C C A"
_symmetry_group_IT_number 68
_space_group.IT_coordinate_system_code '2'
_symmetry_cell_setting 'orthorhombic'
loop_
_space_group_symop_operation_xyz
x,y,z
-x,1/2-y,z
x,1/2-y,1/2-z
-x,y,1/2-z
-x,-y,-z
x,1/2+y,-z
-x,1/2+y,1/2+z
x,-y,1/2+z
1/2+x,1/2+y,z
1/2-x,-y,z
1/2+x,-y,1/2-z
1/2-x,1/2+y,1/2-z
1/2-x,1/2-y,-z
1/2+x,y,-z
1/2-x,y,1/2+z
1/2+x,1/2-y,1/2+z
loop_
_atom_site_type_symbol
_atom_site_label
_atom_site_fract_x
_atom_site_fract_y
_atom_site_fract_z
Si Si1 0.250000 0.000000 0.178073
Si Si2 0.750000 0.000000 0.994361
Si Si3 0.408509 0.110539 0.109263
Si Si4 0.683617 0.835864 0.674655
Si Si5 0.000000 0.250000 0.750000
Si Si6 0.992316 0.525142 0.933409
Si Si7 0.985945 0.910225 0.670289
Si Si8 0.352439 0.713783 0.380098
O O1 0.183162 0.940897 0.144051
O O2 0.400235 0.961470 0.199207
O O3 0.647801 0.046724 0.959742
O O4 0.858326 0.040706 0.030348
O O5 0.548488 0.138254 0.140654
O O6 0.284704 0.169572 0.095440
O O7 0.483195 0.058191 0.071432
O O8 0.605612 0.800088 0.719043
O O9 0.814593 0.892394 0.687432
O O10 0.768653 0.775882 0.646042
O O11 0.967152 0.556004 0.882097
O O12 0.073741 0.838276 0.658829
O O13 0.500000 0.750000 0.405689
#
# Coordination Sequence:
#
# PCOD9505526 Si02
#       8
#     8   8  16  16   4  16  16  16
#     4   8  17  30  56  80 111 138 196 246 275 328
#     4  10  19  30  48  90 127 144 182 242 317 324
#     4  10  17  33  55  82 113 154 197 239 282 355
#     4  11  21  35  59  83 118 151 191 251 298 344
#     4  12  24  40  54  92 132 132 194 272 306 334
#     4  10  19  32  54  88 120 149 190 245 289 358
#     4   9  18  34  57  88 113 155 199 238 282 359
#     4   9  17  31  52  82 108 141 206 241 277 332
#
# _framework density 20.947338999999999
#
# number of rings (size 3 to 8) (size 9 to 14) (size 15 to 20)
#    0.000    2.240    1.600    3.840    0.000    1.920 
#    0.000    3.600    0.000    3.840    0.000  159.040 
#    0.000    0.000    0.000    0.000    0.000    0.000 
#
# Total GULP energy -278362.371274 kJ/mol
# GULP energy per Si atom -5567.247425 kJ/mol
# Density = 2.089966 g / cm^3
# Si number density = 20.947339 Si / 1000 Ang^3
#
#
#
# Elastic Constant Matrix: (Units=GPa)
#
#
# Indices 1 2 3 4 5 6 
#
# 1 160.4635 59.2691 47.9784 0.0000 0.0000 0.0000
# 2 59.2691 89.1304 23.4312 0.0000 0.0000 0.0000
# 3 47.9784 23.4312 61.2979 0.0000 0.0000 0.0000
# 4 0.0000 0.0000 0.0000 15.2386 0.0000 0.0000
# 5 0.0000 0.0000 0.0000 0.0000 26.4207 0.0000
# 6 0.0000 0.0000 0.0000 0.0000 0.0000 38.0396
#
#
#
# Elastic Compliance Matrix: (Units=1/GPa)
#
#
# Indices 1 2 3 4 5 6 
#
# 1 0.009802 -0.005004 -0.005760 0.000000 0.000000 0.000000
# 2 -0.005004 0.015028 -0.001827 0.000000 0.000000 0.000000
# 3 -0.005760 -0.001827 0.021520 0.000000 0.000000 0.000000
# 4 0.000000 0.000000 0.000000 0.065623 0.000000 0.000000
# 5 0.000000 0.000000 0.000000 0.000000 0.037849 0.000000
# 6 0.000000 0.000000 0.000000 0.000000 0.000000 0.026288
#
#
# Mechanical properties :
#
#
# Convention : Reuss Voigt Hill
#
# Bulk Modulus (GPa) = 47.24141 63.58327 55.41234
# Shear Modulus (GPa) = 23.99820 27.95401 25.97610
#
# Velocity S-wave (km/s) = 3.38841 3.65703 3.52528
# Velocity P-wave (km/s) = 6.15710 6.94634 6.56359
#
# Compressibility (1/GPa) = 0.02116787
#
# Stress axis : x y z
#
# Youngs Moduli (GPa) = 102.01575 66.54432 46.46757
#
# Poissons Ratio (x) = 0.33300 0.26763
# Poissons Ratio (y) = 0.51051 0.08492
# Poissons Ratio (z) = 0.58757 0.12161
#
# Static dielectric constant tensor:
#      x y z
#    x 1.877010 0.000000 0.000000 
#    y 0.000000 1.833940 0.000000 
#    z 0.000000 0.000000 1.717850 
# 
# From -- ./inp_files/49457.got.cif
#   From: 2010.05.17/outbox.cif.g08.bks.cpg/sg68_25_cif.got.tgz:49457.got - 2010.06.03 18:57:09.
