data_PCOD9505598
_publ_section_title
;
Structure prediction by ZEFSAII (Michael W. Deem and Ramdas Pophale) SiO2 
 PCOD9505598
Probable space group: C C C A
;
_chemical_formula_sum "Si O2"
_cell_formula_units_Z 96
_cell_length_a 19.909796
_cell_length_b 21.323936
_cell_length_c 12.160758
_cell_angle_alpha 90.000000
_cell_angle_beta 90.000000
_cell_angle_gamma 90.000000
_cell_volume 5162.913235
_symmetry_space_group_name_H-M "C C C A"
_symmetry_group_IT_number 68
_space_group.IT_coordinate_system_code '2'
_symmetry_cell_setting 'orthorhombic'
loop_
_space_group_symop_operation_xyz
x,y,z
-x,1/2-y,z
x,1/2-y,1/2-z
-x,y,1/2-z
-x,-y,-z
x,1/2+y,-z
-x,1/2+y,1/2+z
x,-y,1/2+z
1/2+x,1/2+y,z
1/2-x,-y,z
1/2+x,-y,1/2-z
1/2-x,1/2+y,1/2-z
1/2-x,1/2-y,-z
1/2+x,y,-z
1/2-x,y,1/2+z
1/2+x,1/2-y,1/2+z
loop_
_atom_site_type_symbol
_atom_site_label
_atom_site_fract_x
_atom_site_fract_y
_atom_site_fract_z
Si Si1 0.446000 0.492391 0.175905
Si Si2 0.401590 0.577882 0.480934
Si Si3 0.143401 0.956825 0.152980
Si Si4 0.137863 0.896167 0.920612
Si Si5 0.774955 0.431566 0.864347
Si Si6 0.003342 0.678402 0.618219
O O1 0.500000 0.528485 0.250000
O O2 0.420273 0.444018 0.268092
O O3 0.389167 0.541871 0.142748
O O4 0.456048 0.456476 0.061836
O O5 0.372077 0.526903 0.394130
O O6 0.338053 0.590774 0.561697
O O7 0.442466 0.635000 0.427783
O O8 0.203064 0.944806 0.238834
O O9 0.148017 0.913858 0.047538
O O10 0.211763 0.885061 0.872162
O O11 0.076681 0.848670 0.911399
O O12 0.750000 0.500000 0.909251
O O13 0.000000 0.750000 0.578209
O O14 0.000000 0.678734 0.750000
#
# Coordination Sequence:
#
# PCOD9505598 Si02
#       6
#    16  16  16  16  16  16
#     4  10  18  29  51  84 117 146 182 230 306 366
#     4  10  21  37  57  84 124 157 194 243 299 365
#     4  10  19  30  53  84 124 148 179 226 309 373
#     4  11  21  34  56  88 122 156 193 243 302 358
#     4  11  21  34  54  97 127 153 182 229 310 381
#     4  11  25  43  61  82 111 163 218 256 285 333
#
# _framework density 18.594152999999999
#
# number of rings (size 3 to 8) (size 9 to 14) (size 15 to 20)
#    0.000    1.500    5.000    3.500    2.333    2.667 
#    0.000    0.833    0.000   12.500    0.000    0.000 
#    0.000    0.000    0.000    0.000    0.000    0.000 
#
# Total GULP energy -267205.577944 kJ/mol
# GULP energy per Si atom -5566.782874 kJ/mol
# Density = 1.855183 g / cm^3
# Si number density = 18.594153 Si / 1000 Ang^3
#
#
#
# Elastic Constant Matrix: (Units=GPa)
#
#
# Indices 1 2 3 4 5 6 
#
# 1 131.9983 56.3491 58.2119 0.0000 0.0000 0.0000
# 2 56.3491 83.0551 42.4119 0.0000 0.0000 0.0000
# 3 58.2119 42.4119 128.5209 0.0000 0.0000 0.0000
# 4 0.0000 0.0000 0.0000 13.4679 0.0000 0.0000
# 5 0.0000 0.0000 0.0000 0.0000 40.2391 0.0000
# 6 0.0000 0.0000 0.0000 0.0000 0.0000 11.7195
#
#
#
# Elastic Compliance Matrix: (Units=1/GPa)
#
#
# Indices 1 2 3 4 5 6 
#
# 1 0.011674 -0.006278 -0.003216 0.000000 0.000000 0.000000
# 2 -0.006278 0.017857 -0.003049 0.000000 0.000000 0.000000
# 3 -0.003216 -0.003049 0.010244 0.000000 0.000000 0.000000
# 4 0.000000 0.000000 0.000000 0.074251 0.000000 0.000000
# 5 0.000000 0.000000 0.000000 0.000000 0.024851 0.000000
# 6 0.000000 0.000000 0.000000 0.000000 0.000000 0.085328
#
#
# Mechanical properties :
#
#
# Convention : Reuss Voigt Hill
#
# Bulk Modulus (GPa) = 68.08193 73.05777 70.56985
# Shear Modulus (GPa) = 19.67055 25.52538 22.59797
#
# Velocity S-wave (km/s) = 3.25605 3.70910 3.48994
# Velocity P-wave (km/s) = 7.12952 7.59732 7.36713
#
# Compressibility (1/GPa) = 0.01468819
#
# Stress axis : x y z
#
# Youngs Moduli (GPa) = 85.65901 56.00137 97.62189
#
# Poissons Ratio (x) = 0.35159 0.31394
# Poissons Ratio (y) = 0.53779 0.29766
# Poissons Ratio (z) = 0.27547 0.17075
#
# Static dielectric constant tensor:
#      x y z
#    x 1.795510 0.000000 0.000000 
#    y 0.000000 1.630480 0.000000 
#    z 0.000000 0.000000 1.673960 
# 
# From -- ./inp_files/15581.got.cif
#   From: 2010.05.17/outbox.cif.g08.bks.cpg/sg68_8_cif.got.tgz:15581.got - 2010.06.03 18:57:09.
