data_PCOD9505770
_publ_section_title
;
Structure prediction by ZEFSAII (Michael W. Deem and Ramdas Pophale) SiO2 
 PCOD9505770
Probable space group: C C C A
;
_chemical_formula_sum "Si O2"
_cell_formula_units_Z 80
_cell_length_a 11.910742
_cell_length_b 18.549217
_cell_length_c 19.370170
_cell_angle_alpha 90.000000
_cell_angle_beta 90.000000
_cell_angle_gamma 90.000000
_cell_volume 4279.547308
_symmetry_space_group_name_H-M "C C C A"
_symmetry_group_IT_number 68
_space_group.IT_coordinate_system_code '2'
_symmetry_cell_setting 'orthorhombic'
loop_
_space_group_symop_operation_xyz
x,y,z
-x,1/2-y,z
x,1/2-y,1/2-z
-x,y,1/2-z
-x,-y,-z
x,1/2+y,-z
-x,1/2+y,1/2+z
x,-y,1/2+z
1/2+x,1/2+y,z
1/2-x,-y,z
1/2+x,-y,1/2-z
1/2-x,1/2+y,1/2-z
1/2-x,1/2-y,-z
1/2+x,y,-z
1/2-x,y,1/2+z
1/2+x,1/2-y,1/2+z
loop_
_atom_site_type_symbol
_atom_site_label
_atom_site_fract_x
_atom_site_fract_y
_atom_site_fract_z
Si Si1 0.000000 0.750000 0.371530
Si Si2 0.134009 0.833998 0.860392
Si Si3 0.627727 0.660228 0.118981
Si Si4 0.500000 0.142407 0.250000
Si Si5 0.690185 0.180498 0.031639
Si Si6 0.740858 0.414435 0.238719
O O1 0.035868 0.689342 0.316690
O O2 0.092877 0.787803 0.419205
O O3 0.143044 0.746109 0.863158
O O4 0.215574 0.859083 0.922869
O O5 0.182640 0.869406 0.791873
O O6 0.003551 0.853901 0.866343
O O7 0.715424 0.615637 0.165003
O O8 0.644829 0.643818 0.037676
O O9 0.386598 0.099965 0.262665
O O10 0.750000 0.250000 0.000000
O O11 0.750000 0.500000 0.240165
#
# Coordination Sequence:
#
# PCOD9505770 Si02
#       6
#     8  16  16   8  16  16
#     4  11  20  36  64  96 125 146 206 262 315 374
#     4  10  20  40  64  93 120 158 207 259 308 364
#     4  10  22  38  67  94 122 160 206 260 310 367
#     4  11  24  38  62  92 121 164 204 262 313 362
#     4  10  18  34  61  97 125 152 192 257 321 367
#     4  12  26  41  60  86 128 170 211 254 307 369
#
# _framework density 18.693565
#
# number of rings (size 3 to 8) (size 9 to 14) (size 15 to 20)
#    0.000    1.400    2.000    6.000    5.600    1.600 
#    0.000    1.000    0.000    3.600    0.000    0.000 
#    0.000    0.000    0.000    0.000    0.000    0.000 
#
# Total GULP energy -222854.104103 kJ/mol
# GULP energy per Si atom -5571.352603 kJ/mol
# Density = 1.865102 g / cm^3
# Si number density = 18.693565 Si / 1000 Ang^3
#
#
#
# Elastic Constant Matrix: (Units=GPa)
#
#
# Indices 1 2 3 4 5 6 
#
# 1 122.9228 26.5543 42.2512 0.0000 0.0000 0.0000
# 2 26.5543 49.6914 23.1202 0.0000 0.0000 0.0000
# 3 42.2512 23.1202 125.0738 0.0000 0.0000 0.0000
# 4 0.0000 0.0000 0.0000 -39.8567 0.0000 0.0000
# 5 0.0000 0.0000 0.0000 0.0000 -59.5150 0.0000
# 6 0.0000 0.0000 0.0000 0.0000 0.0000 -0.1682
#
#
#
# Elastic Compliance Matrix: (Units=1/GPa)
#
#
# Indices 1 2 3 4 5 6 
#
# 1 0.009909 -0.004090 -0.002592 0.000000 0.000000 0.000000
# 2 -0.004090 0.023706 -0.003001 0.000000 0.000000 0.000000
# 3 -0.002592 -0.003001 0.009425 0.000000 0.000000 0.000000
# 4 0.000000 0.000000 0.000000 -0.025090 0.000000 0.000000
# 5 0.000000 0.000000 0.000000 0.000000 -0.016802 0.000000
# 6 0.000000 0.000000 0.000000 0.000000 0.000000 -5.943920
#
#
# Mechanical properties :
#
#
# Convention : Reuss Voigt Hill
#
# Bulk Modulus (GPa) = 42.23493 53.50439 47.86966
# Shear Modulus (GPa) = -0.84523 -6.19049 -3.51786
#
# Velocity S-wave (km/s) = -0.67315 -1.82174 -1.37330
# Velocity P-wave (km/s) = 4.69448 4.92534 4.81130
#
# Compressibility (1/GPa) = 0.02367709
#
# Stress axis : x y z
#
# Youngs Moduli (GPa) = 100.91419 42.18390 106.09651
#
# Poissons Ratio (x) = 0.17252 0.27495
# Poissons Ratio (y) = 0.41270 0.31835
# Poissons Ratio (z) = 0.26152 0.12657
#
# Static dielectric constant tensor:
#      x y z
#    x 1.728320 0.000000 0.000000 
#    y 0.000000 1.626290 0.000000 
#    z 0.000000 0.000000 1.695670 
# 
# From -- ./inp_files/29575.got.cif
#   From: 2010.05.17/outbox.cif.g08.bks.cpg/sg68_15_cif.got.tgz:29575.got - 2010.06.03 18:57:09.
