data_PCOD9505248
_publ_section_title
;
Structure prediction by ZEFSAII (Michael W. Deem and Ramdas Pophale) SiO2 
 PCOD9505248
Probable space group: C M M A
;
_chemical_formula_sum "Si O2"
_cell_formula_units_Z 48
_cell_length_a 27.000000
_cell_length_b 9.000000
_cell_length_c 21.000000
_cell_angle_alpha 90.000000
_cell_angle_beta 90.000000
_cell_angle_gamma 90.000000
_cell_volume 5103.000000
_symmetry_space_group_name_H-M "C M M A"
_symmetry_group_IT_number 67
_symmetry_cell_setting 'orthorhombic'
loop_
_space_group_symop_operation_xyz
x,y,z
-x,1/2-y,z
x,-y,-z
-x,1/2+y,-z
-x,-y,-z
x,1/2+y,-z
-x,y,z
x,1/2-y,z
1/2+x,1/2+y,z
1/2-x,-y,z
1/2+x,1/2-y,-z
1/2-x,y,-z
1/2-x,1/2-y,-z
1/2+x,y,-z
1/2-x,1/2+y,z
1/2+x,-y,z
loop_
_atom_site_type_symbol
_atom_site_label
_atom_site_fract_x
_atom_site_fract_y
_atom_site_fract_z
Si Si1 0.940737 0.580283 0.798398
Si Si2 0.890057 0.429327 0.070368
Si Si3 0.803955 0.571205 0.691816
Si Si4 0.059285 0.080382 0.666008
Si Si5 0.803267 0.072029 0.164042
Si Si6 0.127526 0.428749 0.429561
O O1 0.921056 0.750000 0.791990
O O2 0.925805 0.527948 0.869667
O O3 0.926563 0.490581 0.734573
O O4 0.000000 0.585785 0.797352
O O5 0.893540 0.250000 0.062975
O O6 0.837948 0.469050 0.104445
O O7 0.897152 0.500000 0.000000
O O8 0.801348 0.750000 0.691136
O O9 0.750000 0.500000 0.686766
O O10 0.821819 0.530327 0.764151
O O11 0.833901 0.529207 0.627697
O O12 0.077866 0.250000 0.661983
O O13 0.000000 0.083114 0.664976
O O14 0.078031 0.987479 0.605316
O O15 0.799275 0.250000 0.163464
O O16 0.750000 0.000000 0.156676
O O17 0.135192 0.500000 0.500000
O O18 0.127512 0.250000 0.436114
#
# Coordination Sequence:
#
# PCOD9505248 Si02
#       6
#    16  16  16  16  16  16
#     4   9  18  35  58  80 104 138 177 217 265 319
#     4  10  21  35  51  75 108 142 176 216 263 315
#     4   9  19  36  58  81 105 137 178 223 269 318
#     4  10  21  37  58  84 110 138 178 226 272 320
#     4   9  18  34  54  75 100 132 173 218 262 310
#     4  11  23  38  56  80 112 148 183 220 266 320
#
# _framework density 9.4062319999999993
#
# number of rings (size 3 to 8) (size 9 to 14) (size 15 to 20)
#    0.000    2.333    0.000    2.000    0.000    7.667 
#    0.000    6.667    0.000    0.000    0.000    0.000 
#    0.000    0.000    0.000    0.000    0.000    0.000 
#
# Total GULP energy -267315.664783 kJ/mol
# GULP energy per Si atom -5569.076350 kJ/mol
# Density = 0.938482 g / cm^3
# Si number density = 9.406232 Si / 1000 Ang^3
#
#
#
# Elastic Constant Matrix: (Units=GPa)
#
#
# Indices 1 2 3 4 5 6 
#
# 1 29.3044 3.2328 -13.9152 0.0000 0.0000 0.0000
# 2 3.2328 39.6453 31.9358 0.0000 0.0000 0.0000
# 3 -13.9152 31.9358 144.3172 0.0000 0.0000 0.0000
# 4 0.0000 0.0000 0.0000 40.2027 0.0000 0.0000
# 5 0.0000 0.0000 0.0000 0.0000 22.6353 0.0000
# 6 0.0000 0.0000 0.0000 0.0000 0.0000 18.0393
#
#
#
# Elastic Compliance Matrix: (Units=1/GPa)
#
#
# Indices 1 2 3 4 5 6 
#
# 1 0.037397 -0.007246 0.005209 0.000000 0.000000 0.000000
# 2 -0.007246 0.032099 -0.007802 0.000000 0.000000 0.000000
# 3 0.005209 -0.007802 0.009158 0.000000 0.000000 0.000000
# 4 0.000000 0.000000 0.000000 0.024874 0.000000 0.000000
# 5 0.000000 0.000000 0.000000 0.000000 0.044179 0.000000
# 6 0.000000 0.000000 0.000000 0.000000 0.000000 0.055435
#
#
# Mechanical properties :
#
#
# Convention : Reuss Voigt Hill
#
# Bulk Modulus (GPa) = 16.95549 28.41931 22.68740
# Shear Modulus (GPa) = 20.62042 28.97635 24.79838
#
# Velocity S-wave (km/s) = 3.31434 3.92889 3.63463
# Velocity P-wave (km/s) = 4.86610 5.97671 5.44977
#
# Compressibility (1/GPa) = 0.05897795
#
# Stress axis : x y z
#
# Youngs Moduli (GPa) = 26.73976 31.15338 109.19490
#
# Poissons Ratio (x) = 0.22573 -0.56883
# Poissons Ratio (y) = 0.19375 0.85192
# Poissons Ratio (z) = -0.13930 0.24305
#
# Static dielectric constant tensor:
#      x y z
#    x 1.724110 0.000000 0.000000 
#    y 0.000000 1.654330 0.000000 
#    z 0.000000 0.000000 1.621580 
# 
# From -- ./inp_files/39870.got.cif
#   From: 2010.05.17/outbox.ucp.g08.bks.cvg/sg67_20_cif.got.tgz:39870.got - 2010.06.11 16:47:20.
