data_PCOD9505530
_publ_section_title
;
Structure prediction by ZEFSAII (Michael W. Deem and Ramdas Pophale) SiO2 
 PCOD9505530
Probable space group: C C C A
;
_chemical_formula_sum "Si O2"
_cell_formula_units_Z 112
_cell_length_a 15.323702
_cell_length_b 22.338328
_cell_length_c 15.752394
_cell_angle_alpha 90.000000
_cell_angle_beta 90.000000
_cell_angle_gamma 90.000000
_cell_volume 5392.137113
_symmetry_space_group_name_H-M "C C C A"
_symmetry_group_IT_number 68
_space_group.IT_coordinate_system_code '2'
_symmetry_cell_setting 'orthorhombic'
loop_
_space_group_symop_operation_xyz
x,y,z
-x,1/2-y,z
x,1/2-y,1/2-z
-x,y,1/2-z
-x,-y,-z
x,1/2+y,-z
-x,1/2+y,1/2+z
x,-y,1/2+z
1/2+x,1/2+y,z
1/2-x,-y,z
1/2+x,-y,1/2-z
1/2-x,1/2+y,1/2-z
1/2-x,1/2-y,-z
1/2+x,y,-z
1/2-x,y,1/2+z
1/2+x,1/2-y,1/2+z
loop_
_atom_site_type_symbol
_atom_site_label
_atom_site_fract_x
_atom_site_fract_y
_atom_site_fract_z
Si Si1 0.543107 0.484799 0.339014
Si Si2 0.772972 0.436153 0.840529
Si Si3 0.465033 0.127286 0.072452
Si Si4 0.812320 0.311639 0.660008
Si Si5 0.358481 0.319660 0.143004
Si Si6 0.970807 0.383525 0.378242
Si Si7 0.644327 0.130100 0.774906
O O1 0.500000 0.500411 0.250000
O O2 0.629125 0.449398 0.311292
O O3 0.489198 0.440385 0.399240
O O4 0.562036 0.547803 0.383048
O O5 0.750000 0.500000 0.883941
O O6 0.791145 0.372445 0.886907
O O7 0.706821 0.422178 0.763569
O O8 0.368889 0.142773 0.104975
O O9 0.543148 0.166360 0.114451
O O10 0.469974 0.139670 0.972767
O O11 0.853658 0.317301 0.754474
O O12 0.826625 0.246452 0.619743
O O13 0.711301 0.325664 0.678884
O O14 0.908795 0.350138 0.309994
O O15 0.068209 0.386568 0.340019
#
# Coordination Sequence:
#
# PCOD9505530 Si02
#       7
#    16  16  16  16  16  16  16
#     4  11  19  36  63  92 127 175 215 271 332 398
#     4  10  17  33  64  94 115 158 225 264 315 381
#     4  11  22  36  63 101 130 166 215 282 344 386
#     4  10  20  41  68  94 126 168 229 271 324 398
#     4   9  20  37  69  94 126 164 214 278 331 386
#     4  11  22  40  60  90 142 176 218 267 341 402
#     4  10  21  40  64  88 130 188 218 260 322 413
#
# _framework density 20.770986000000001
#
# number of rings (size 3 to 8) (size 9 to 14) (size 15 to 20)
#    0.000    1.714    2.857    3.857    0.000    1.143 
#    7.714    0.714   18.857   14.571    0.000    0.000 
#    0.000    0.000    0.000    0.000    0.000    0.000 
#
# Total GULP energy -311860.384858 kJ/mol
# GULP energy per Si atom -5568.935444 kJ/mol
# Density = 2.072371 g / cm^3
# Si number density = 20.770986 Si / 1000 Ang^3
#
#
#
# Elastic Constant Matrix: (Units=GPa)
#
#
# Indices 1 2 3 4 5 6 
#
# 1 101.9644 20.5911 34.1415 0.0000 0.0000 0.0000
# 2 20.5911 71.3895 -6.9071 0.0000 0.0000 0.0000
# 3 34.1415 -6.9071 67.8065 0.0000 0.0000 0.0000
# 4 0.0000 0.0000 0.0000 7.9085 0.0000 0.0000
# 5 0.0000 0.0000 0.0000 0.0000 4.3615 0.0000
# 6 0.0000 0.0000 0.0000 0.0000 0.0000 21.8737
#
#
#
# Elastic Compliance Matrix: (Units=1/GPa)
#
#
# Indices 1 2 3 4 5 6 
#
# 1 0.013059 -0.004447 -0.007028 0.000000 0.000000 0.000000
# 2 -0.004447 0.015661 0.003834 0.000000 0.000000 0.000000
# 3 -0.007028 0.003834 0.018677 0.000000 0.000000 0.000000
# 4 0.000000 0.000000 0.000000 0.126445 0.000000 0.000000
# 5 0.000000 0.000000 0.000000 0.000000 0.229280 0.000000
# 6 0.000000 0.000000 0.000000 0.000000 0.000000 0.045717
#
#
# Mechanical properties :
#
#
# Convention : Reuss Voigt Hill
#
# Bulk Modulus (GPa) = 31.13707 37.42348 34.28028
# Shear Modulus (GPa) = 10.53018 19.71774 15.12396
#
# Velocity S-wave (km/s) = 2.25403 3.08440 2.70131
# Velocity P-wave (km/s) = 4.66877 5.54446 5.12535
#
# Compressibility (1/GPa) = 0.03211606
#
# Stress axis : x y z
#
# Youngs Moduli (GPa) = 76.57815 63.85224 53.54131
#
# Poissons Ratio (x) = 0.28392 0.37629
# Poissons Ratio (y) = 0.34051 -0.20529
# Poissons Ratio (z) = 0.53820 -0.24482
#
# Static dielectric constant tensor:
#      x y z
#    x 1.784120 0.000000 0.000000 
#    y 0.000000 1.835820 0.000000 
#    z 0.000000 0.000000 1.724700 
# 
# From -- ./inp_files/22592.got.cif
#   From: 2010.05.17/outbox.cif.g08.bks.cpg/sg68_12_cif.got.tgz:22592.got - 2010.06.03 18:57:09.
