data_PCOD9505586
_publ_section_title
;
Structure prediction by ZEFSAII (Michael W. Deem and Ramdas Pophale) SiO2 
 PCOD9505586
Probable space group: C C C A
;
_chemical_formula_sum "Si O2"
_cell_formula_units_Z 60
_cell_length_a 15.563763
_cell_length_b 14.120311
_cell_length_c 11.313619
_cell_angle_alpha 90.000000
_cell_angle_beta 90.000000
_cell_angle_gamma 90.000000
_cell_volume 2486.339447
_symmetry_space_group_name_H-M "C C C A"
_symmetry_group_IT_number 68
_space_group.IT_coordinate_system_code '2'
_symmetry_cell_setting 'orthorhombic'
loop_
_space_group_symop_operation_xyz
x,y,z
-x,1/2-y,z
x,1/2-y,1/2-z
-x,y,1/2-z
-x,-y,-z
x,1/2+y,-z
-x,1/2+y,1/2+z
x,-y,1/2+z
1/2+x,1/2+y,z
1/2-x,-y,z
1/2+x,-y,1/2-z
1/2-x,1/2+y,1/2-z
1/2-x,1/2-y,-z
1/2+x,y,-z
1/2-x,y,1/2+z
1/2+x,1/2-y,1/2+z
loop_
_atom_site_type_symbol
_atom_site_label
_atom_site_fract_x
_atom_site_fract_y
_atom_site_fract_z
Si Si1 0.500000 0.750000 0.250000
Si Si2 0.096571 0.107666 0.709827
Si Si3 0.873046 0.589092 0.455026
Si Si4 0.057474 0.376495 0.051639
Si Si5 0.250000 0.000000 0.607790
O O1 0.562255 0.810905 0.164831
O O2 0.129460 0.148645 0.834260
O O3 0.085378 0.155240 0.580979
O O4 0.167804 0.029005 0.682618
O O5 0.000000 0.077435 0.750000
O O6 0.897007 0.477785 0.428290
O O7 0.784349 0.584785 0.524858
O O8 0.954233 0.614905 0.535164
#
# Coordination Sequence:
#
# PCOD9505586 Si02
#       5
#     4  16  16  16   8
#     4  12  24  36  58  92 124 162 202 242 320 384
#     4   9  18  35  57  90 126 152 201 261 296 354
#     4   9  18  35  57  90 118 153 205 258 293 356
#     4   9  21  34  57  86 122 159 201 253 303 357
#     4  10  18  28  58 102 122 154 200 258 318 336
#
# _framework density 24.131861000000001
#
# number of rings (size 3 to 8) (size 9 to 14) (size 15 to 20)
#    0.000    2.667    0.000    2.400   13.067    0.000 
#    0.000    6.000    0.000    6.400    0.000    0.000 
#    0.000    0.000    0.000    0.000    0.000    0.000 
#
# Total GULP energy -167027.307328 kJ/mol
# GULP energy per Si atom -5567.576911 kJ/mol
# Density = 2.407694 g / cm^3
# Si number density = 24.131861 Si / 1000 Ang^3
#
#
#
# Elastic Constant Matrix: (Units=GPa)
#
#
# Indices 1 2 3 4 5 6 
#
# 1 93.6327 -1.1382 54.0723 0.0000 0.0000 0.0000
# 2 -1.1382 69.1313 55.1830 0.0000 0.0000 0.0000
# 3 54.0723 55.1830 184.6731 0.0000 0.0000 0.0000
# 4 0.0000 0.0000 0.0000 50.9432 0.0000 0.0000
# 5 0.0000 0.0000 0.0000 0.0000 30.1806 0.0000
# 6 0.0000 0.0000 0.0000 0.0000 0.0000 -0.3985
#
#
#
# Elastic Compliance Matrix: (Units=1/GPa)
#
#
# Indices 1 2 3 4 5 6 
#
# 1 0.013866 0.004556 -0.005421 0.000000 0.000000 0.000000
# 2 0.004556 0.020493 -0.007458 0.000000 0.000000 0.000000
# 3 -0.005421 -0.007458 0.009231 0.000000 0.000000 0.000000
# 4 0.000000 0.000000 0.000000 0.019630 0.000000 0.000000
# 5 0.000000 0.000000 0.000000 0.000000 0.033134 0.000000
# 6 0.000000 0.000000 0.000000 0.000000 0.000000 -2.509388
#
#
# Mechanical properties :
#
#
# Convention : Reuss Voigt Hill
#
# Bulk Modulus (GPa) = 37.11418 62.63015 49.87216
# Shear Modulus (GPa) = -2.09432 32.09973 15.00270
#
# Velocity S-wave (km/s) = -0.93260 3.65112 2.49609
# Velocity P-wave (km/s) = 3.77538 6.61694 5.38690
#
# Compressibility (1/GPa) = 0.02694388
#
# Stress axis : x y z
#
# Youngs Moduli (GPa) = 72.11769 48.79679 108.33307
#
# Poissons Ratio (x) = -0.22231 0.58731
# Poissons Ratio (y) = -0.32856 0.80790
# Poissons Ratio (z) = 0.39098 0.36391
#
# Static dielectric constant tensor:
#      x y z
#    x 1.890910 0.000000 0.000000 
#    y 0.000000 2.030200 0.000000 
#    z 0.000000 0.000000 2.036040 
# 
# From -- ./inp_files/12727.got.cif
#   From: 2010.05.17/outbox.cif.g08.bks.cpg/sg68_7_cif.got.tgz:12727.got - 2010.06.03 18:57:09.
