data_PCOD9505570
_publ_section_title
;
Structure prediction by ZEFSAII (Michael W. Deem and Ramdas Pophale) SiO2 
 PCOD9505570
Probable space group: C C C A
;
_chemical_formula_sum "Si O2"
_cell_formula_units_Z 96
_cell_length_a 28.458713
_cell_length_b 10.434717
_cell_length_c 14.391417
_cell_angle_alpha 90.000000
_cell_angle_beta 90.000000
_cell_angle_gamma 90.000000
_cell_volume 4273.655279
_symmetry_space_group_name_H-M "C C C A"
_symmetry_group_IT_number 68
_space_group.IT_coordinate_system_code '2'
_symmetry_cell_setting 'orthorhombic'
loop_
_space_group_symop_operation_xyz
x,y,z
-x,1/2-y,z
x,1/2-y,1/2-z
-x,y,1/2-z
-x,-y,-z
x,1/2+y,-z
-x,1/2+y,1/2+z
x,-y,1/2+z
1/2+x,1/2+y,z
1/2-x,-y,z
1/2+x,-y,1/2-z
1/2-x,1/2+y,1/2-z
1/2-x,1/2-y,-z
1/2+x,y,-z
1/2-x,y,1/2+z
1/2+x,1/2-y,1/2+z
loop_
_atom_site_type_symbol
_atom_site_label
_atom_site_fract_x
_atom_site_fract_y
_atom_site_fract_z
Si Si1 0.590564 0.514583 0.597936
Si Si2 0.749133 0.650640 0.086510
Si Si3 0.852226 0.775039 0.885323
Si Si4 0.611922 0.497515 0.883354
Si Si5 0.507385 0.604831 0.859741
Si Si6 0.348027 0.242735 0.111983
O O1 0.611241 0.385984 0.640871
O O2 0.612462 0.513861 0.495227
O O3 0.534604 0.520321 0.597855
O O4 0.610564 0.645872 0.641330
O O5 0.750000 0.500000 0.058578
O O6 0.700651 0.681847 0.138884
O O7 0.798140 0.681395 0.136516
O O8 0.750000 0.750000 0.000000
O O9 0.869507 0.638437 0.848462
O O10 0.851358 0.760574 0.999036
O O11 0.558342 0.541752 0.868661
O O12 0.644257 0.614790 0.851165
O O13 0.500000 0.750000 0.898153
O O14 0.500000 0.612081 0.750000
#
# Coordination Sequence:
#
# PCOD9505570 Si02
#       6
#    16  16  16  16  16  16
#     4  10  18  35  54  78 108 143 179 220 267 320
#     4  10  18  27  44  76 115 148 175 215 270 322
#     4   9  19  29  49  77 109 141 177 217 270 313
#     4  10  20  35  53  80 109 143 181 225 266 322
#     4  11  23  38  57  80 105 141 186 228 275 329
#     4   9  17  29  50  74 111 145 175 216 260 321
#
# _framework density 22.463206
#
# number of rings (size 3 to 8) (size 9 to 14) (size 15 to 20)
#    0.000    2.167    3.333    0.500    7.000    0.667 
#    0.000    1.667    0.000    0.000    0.000    7.000 
#    0.000    0.000    0.000    0.000    0.000    0.000 
#
# Total GULP energy -267885.936695 kJ/mol
# GULP energy per Si atom -5580.957014 kJ/mol
# Density = 2.241208 g / cm^3
# Si number density = 22.463206 Si / 1000 Ang^3
#
#
#
# Elastic Constant Matrix: (Units=GPa)
#
#
# Indices 1 2 3 4 5 6 
#
# 1 140.7899 80.6830 -27.2279 0.0000 0.0000 0.0000
# 2 80.6830 173.7411 -3.0291 0.0000 0.0000 0.0000
# 3 -27.2279 -3.0291 47.5189 0.0000 0.0000 0.0000
# 4 0.0000 0.0000 0.0000 -12.7038 0.0000 0.0000
# 5 0.0000 0.0000 0.0000 0.0000 -1.4698 0.0000
# 6 0.0000 0.0000 0.0000 0.0000 0.0000 27.0484
#
#
#
# Elastic Compliance Matrix: (Units=1/GPa)
#
#
# Indices 1 2 3 4 5 6 
#
# 1 0.011201 -0.005096 0.006093 0.000000 0.000000 0.000000
# 2 -0.005096 0.008080 -0.002405 0.000000 0.000000 0.000000
# 3 0.006093 -0.002405 0.024382 0.000000 0.000000 0.000000
# 4 0.000000 0.000000 0.000000 -0.078717 0.000000 0.000000
# 5 0.000000 0.000000 0.000000 0.000000 -0.680347 0.000000
# 6 0.000000 0.000000 0.000000 0.000000 0.000000 0.036971
#
#
# Mechanical properties :
#
#
# Convention : Reuss Voigt Hill
#
# Bulk Modulus (GPa) = 24.47953 51.43356 37.95654
# Shear Modulus (GPa) = -7.55288 23.34989 7.89851
#
# Velocity S-wave (km/s) = -1.83566 3.22758 1.87719
# Velocity P-wave (km/s) = 2.53543 6.06929 4.65106
#
# Compressibility (1/GPa) = 0.04085046
#
# Stress axis : x y z
#
# Youngs Moduli (GPa) = 89.27525 123.76164 41.01310
#
# Poissons Ratio (x) = 0.63063 -0.24991
# Poissons Ratio (y) = 0.45490 0.09862
# Poissons Ratio (z) = -0.54399 0.29760
#
# Static dielectric constant tensor:
#      x y z
#    x 1.824790 0.000000 0.000000 
#    y 0.000000 1.966150 0.000000 
#    z 0.000000 0.000000 1.857020 
# 
# From -- ./inp_files/41244.got.cif
#   From: 2010.05.17/outbox.cif.g08.bks.cpg/sg68_21_cif.got.tgz:41244.got - 2010.06.03 18:57:09.
