data_PCOD9505323
_publ_section_title
;
Structure prediction by ZEFSAII (Michael W. Deem and Ramdas Pophale) SiO2 
 PCOD9505323
Probable space group: C C C A
;
_chemical_formula_sum "Si O2"
_cell_formula_units_Z 64
_cell_length_a 5.424848
_cell_length_b 13.965060
_cell_length_c 32.413783
_cell_angle_alpha 90.000000
_cell_angle_beta 90.000000
_cell_angle_gamma 90.000000
_cell_volume 2455.613998
_symmetry_space_group_name_H-M "C C C A"
_symmetry_group_IT_number 68
_space_group.IT_coordinate_system_code '2'
_symmetry_cell_setting 'orthorhombic'
loop_
_space_group_symop_operation_xyz
x,y,z
-x,1/2-y,z
x,1/2-y,1/2-z
-x,y,1/2-z
-x,-y,-z
x,1/2+y,-z
-x,1/2+y,1/2+z
x,-y,1/2+z
1/2+x,1/2+y,z
1/2-x,-y,z
1/2+x,-y,1/2-z
1/2-x,1/2+y,1/2-z
1/2-x,1/2-y,-z
1/2+x,y,-z
1/2-x,y,1/2+z
1/2+x,1/2-y,1/2+z
loop_
_atom_site_type_symbol
_atom_site_label
_atom_site_fract_x
_atom_site_fract_y
_atom_site_fract_z
Si Si1 0.244594 0.641291 0.732425
Si Si2 0.440246 0.388006 0.640475
Si Si3 0.052852 0.606531 0.388981
Si Si4 0.558526 0.608063 0.515806
O O1 0.243516 0.750000 0.750000
O O2 0.500000 0.603171 0.750000
O O3 0.193779 0.631163 0.684015
O O4 0.000000 0.594455 0.750000
O O5 0.224358 0.351340 0.610427
O O6 0.497398 0.499541 0.629057
O O7 0.720536 0.349162 0.637319
O O8 0.133389 0.604698 0.436360
O O9 0.500000 0.500000 0.500000
O O10 0.286346 0.650834 0.509552
#
# Coordination Sequence:
#
# PCOD9505323 Si02
#       4
#    16  16  16  16
#     4  10  21  37  55  73  93 127 172 226 276 314
#     4  10  18  32  49  68  99 133 168 211 254 312
#     4  10  19  30  46  74 105 141 170 199 253 312
#     4  10  16  25  41  64  99 144 172 194 229 290
#
# _framework density 26.062726000000001
#
# number of rings (size 3 to 8) (size 9 to 14) (size 15 to 20)
#    0.000    2.000    0.000    9.000    0.000    0.000 
#    0.000   10.000    0.000    0.000    0.000    0.000 
#    0.000    0.000    0.000 1098.000    0.000    0.000 
#
# Total GULP energy -178467.499456 kJ/mol
# GULP energy per Si atom -5577.109358 kJ/mol
# Density = 2.600341 g / cm^3
# Si number density = 26.062726 Si / 1000 Ang^3
#
#
#
# Elastic Constant Matrix: (Units=GPa)
#
#
# Indices 1 2 3 4 5 6 
#
# 1 308.1954 2.5801 43.2724 0.0000 0.0000 0.0000
# 2 2.5801 129.5686 2.0596 0.0000 0.0000 0.0000
# 3 43.2724 2.0596 176.2645 0.0000 0.0000 0.0000
# 4 0.0000 0.0000 0.0000 21.4611 0.0000 0.0000
# 5 0.0000 0.0000 0.0000 0.0000 56.8204 0.0000
# 6 0.0000 0.0000 0.0000 0.0000 0.0000 -75.0240
#
#
#
# Elastic Compliance Matrix: (Units=1/GPa)
#
#
# Indices 1 2 3 4 5 6 
#
# 1 0.003361 -0.000054 -0.000824 0.000000 0.000000 0.000000
# 2 -0.000054 0.007720 -0.000077 0.000000 0.000000 0.000000
# 3 -0.000824 -0.000077 0.005877 0.000000 0.000000 0.000000
# 4 0.000000 0.000000 0.000000 0.046596 0.000000 0.000000
# 5 0.000000 0.000000 0.000000 0.000000 0.017599 0.000000
# 6 0.000000 0.000000 0.000000 0.000000 0.000000 -0.013329
#
#
# Mechanical properties :
#
#
# Convention : Reuss Voigt Hill
#
# Bulk Modulus (GPa) = 66.45771 78.87250 72.66510
# Shear Modulus (GPa) = 66.88951 38.39259 52.64105
#
# Velocity S-wave (km/s) = 5.07154 3.84224 4.49908
# Velocity P-wave (km/s) = 7.73618 7.07192 7.41150
#
# Compressibility (1/GPa) = 0.01504716
#
# Stress axis : x y z
#
# Youngs Moduli (GPa) = 297.53890 129.53003 170.16653
#
# Poissons Ratio (x) = 0.00697 0.14030
# Poissons Ratio (y) = 0.01601 0.01310
# Poissons Ratio (z) = 0.24531 0.00997
#
# Static dielectric constant tensor:
#      x y z
#    x 2.286140 0.000000 0.000000 
#    y 0.000000 2.289620 0.000000 
#    z 0.000000 0.000000 2.203250 
# 
# From -- ./inp_files/52921.got.cif
#   From: 2010.05.17/outbox.cif.g08.bks.cpg/sg68_27_cif.got.tgz:52921.got - 2010.06.03 18:57:09.
