data_PCOD9505065
_publ_section_title
;
Structure prediction by ZEFSAII (Michael W. Deem and Ramdas Pophale) SiO2 
 PCOD9505065
Probable space group: C M M A
;
_chemical_formula_sum "Si O2"
_cell_formula_units_Z 64
_cell_length_a 10.158314
_cell_length_b 25.914227
_cell_length_c 12.743912
_cell_angle_alpha 90.000000
_cell_angle_beta 90.000000
_cell_angle_gamma 90.000000
_cell_volume 3354.769266
_symmetry_space_group_name_H-M "C M M A"
_symmetry_group_IT_number 67
_symmetry_cell_setting 'orthorhombic'
loop_
_space_group_symop_operation_xyz
x,y,z
-x,1/2-y,z
x,-y,-z
-x,1/2+y,-z
-x,-y,-z
x,1/2+y,-z
-x,y,z
x,1/2-y,z
1/2+x,1/2+y,z
1/2-x,-y,z
1/2+x,1/2-y,-z
1/2-x,y,-z
1/2-x,1/2-y,-z
1/2+x,y,-z
1/2-x,1/2+y,z
1/2+x,-y,z
loop_
_atom_site_type_symbol
_atom_site_label
_atom_site_fract_x
_atom_site_fract_y
_atom_site_fract_z
Si Si1 0.500000 0.465380 0.105086
Si Si2 0.500000 0.431874 0.781436
Si Si3 0.500000 0.060109 0.531886
Si Si4 0.735354 0.883872 0.880825
Si Si5 0.344385 0.810730 0.693359
Si Si6 0.250000 0.872555 0.500000
O O1 0.500000 0.507265 0.196049
O O2 0.371849 0.429668 0.111894
O O3 0.500000 0.500000 0.000000
O O4 0.500000 0.428676 0.656460
O O5 0.371500 0.406532 0.834757
O O6 0.373125 0.089557 0.489633
O O7 0.500000 0.000000 0.500000
O O8 0.684555 0.840647 0.801012
O O9 0.750000 0.864399 0.000000
O O10 0.500000 0.816731 0.667304
O O11 0.317111 0.750000 0.702315
O O12 0.256417 0.836395 0.602266
#
# Coordination Sequence:
#
# PCOD9505065 Si02
#       6
#     8   8   8  16  16   8
#     4  12  24  40  64  96 132 183 221 257 322 403
#     4  12  26  40  64  99 138 177 222 275 325 400
#     4  12  28  42  67 103 141 178 219 274 342 396
#     4  12  24  43  67 100 136 174 223 277 329 397
#     4  11  25  46  72  98 128 175 228 286 341 391
#     4  12  24  48  68  98 136 176 224 278 334 412
#
# _framework density 19.077317000000001
#
# number of rings (size 3 to 8) (size 9 to 14) (size 15 to 20)
#    0.000    0.250    7.500    1.500    3.500    2.500 
#    0.000    1.875    0.000    0.000    0.000    0.000 
#    0.000    0.000    0.000    0.000    0.000    0.000 
#
# Total GULP energy -178923.765074 kJ/mol
# GULP energy per Si atom -5591.367659 kJ/mol
# Density = 1.903390 g / cm^3
# Si number density = 19.077317 Si / 1000 Ang^3
#
#
#
# Elastic Constant Matrix: (Units=GPa)
#
#
# Indices 1 2 3 4 5 6 
#
# 1 116.3671 55.3321 -1.5853 0.0000 0.0000 0.0000
# 2 55.3321 152.2987 49.3815 0.0000 0.0000 0.0000
# 3 -1.5853 49.3815 90.8013 0.0000 0.0000 0.0000
# 4 0.0000 0.0000 0.0000 28.8691 0.0000 0.0000
# 5 0.0000 0.0000 0.0000 0.0000 26.2275 0.0000
# 6 0.0000 0.0000 0.0000 0.0000 0.0000 -3.5687
#
#
#
# Elastic Compliance Matrix: (Units=1/GPa)
#
#
# Indices 1 2 3 4 5 6 
#
# 1 0.010969 -0.004914 0.002864 0.000000 0.000000 0.000000
# 2 -0.004914 0.010173 -0.005618 0.000000 0.000000 0.000000
# 3 0.002864 -0.005618 0.014119 0.000000 0.000000 0.000000
# 4 0.000000 0.000000 0.000000 0.034639 0.000000 0.000000
# 5 0.000000 0.000000 0.000000 0.000000 0.038128 0.000000
# 6 0.000000 0.000000 0.000000 0.000000 0.000000 -0.280211
#
#
# Mechanical properties :
#
#
# Convention : Reuss Voigt Hill
#
# Bulk Modulus (GPa) = 50.19065 62.85819 56.52442
# Shear Modulus (GPa) = -33.28762 27.39482 -2.94640
#
# Velocity S-wave (km/s) = -4.18171 3.79356 -1.24411
# Velocity P-wave (km/s) = 1.74660 7.22557 5.25640
#
# Compressibility (1/GPa) = 0.01992403
#
# Stress axis : x y z
#
# Youngs Moduli (GPa) = 91.16630 98.30005 70.82905
#
# Poissons Ratio (x) = 0.48302 -0.20284
# Poissons Ratio (y) = 0.44797 0.39794
# Poissons Ratio (z) = -0.26108 0.55227
#
# Static dielectric constant tensor:
#      x y z
#    x 1.690220 0.000000 0.000000 
#    y 0.000000 1.615550 0.000000 
#    z 0.000000 0.000000 1.699030 
# 
# From -- ./inp_files/16510.got.cif
#   From: 2010.05.17/outbox.cif.g08.bks.cpg/sg67_9_cif.got.tgz:16510.got - 2010.06.03 18:28:57.
