data_PCOD9505184
_publ_section_title
;
Structure prediction by ZEFSAII (Michael W. Deem and Ramdas Pophale) SiO2 
 PCOD9505184
Probable space group: C M M A
;
_chemical_formula_sum "Si O2"
_cell_formula_units_Z 36
_cell_length_a 15.000000
_cell_length_b 9.000000
_cell_length_c 27.000000
_cell_angle_alpha 90.000000
_cell_angle_beta 90.000000
_cell_angle_gamma 90.000000
_cell_volume 3645.000000
_symmetry_space_group_name_H-M "C M M A"
_symmetry_group_IT_number 67
_symmetry_cell_setting 'orthorhombic'
loop_
_space_group_symop_operation_xyz
x,y,z
-x,1/2-y,z
x,-y,-z
-x,1/2+y,-z
-x,-y,-z
x,1/2+y,-z
-x,y,z
x,1/2-y,z
1/2+x,1/2+y,z
1/2-x,-y,z
1/2+x,1/2-y,-z
1/2-x,y,-z
1/2-x,1/2-y,-z
1/2+x,y,-z
1/2-x,1/2+y,z
1/2+x,-y,z
loop_
_atom_site_type_symbol
_atom_site_label
_atom_site_fract_x
_atom_site_fract_y
_atom_site_fract_z
Si Si1 0.500000 0.434120 0.442441
Si Si2 0.108805 0.423259 0.947608
Si Si3 0.347183 0.568081 0.369066
Si Si4 0.607839 0.422847 0.261877
Si Si5 0.891176 0.923384 0.842771
O O1 0.500000 0.250000 0.443684
O O2 0.500000 0.500000 0.500000
O O3 0.416611 0.497146 0.409199
O O4 0.135773 0.250000 0.947378
O O5 0.136443 0.501344 0.895430
O O6 0.000000 0.427768 0.947625
O O7 0.136511 0.500000 0.000000
O O8 0.349769 0.750000 0.370944
O O9 0.250000 0.500000 0.380815
O O10 0.367155 0.512542 0.312190
O O11 0.500000 0.421016 0.260783
O O12 0.638461 0.250000 0.265388
O O13 0.636535 0.495224 0.208863
O O14 0.864076 0.750000 0.841818
O O15 0.000000 0.927397 0.842787
#
# Coordination Sequence:
#
# PCOD9505184 Si02
#       5
#     8  16  16  16  16
#     4  12  26  48  74 104 138 176 219 264 315 372
#     4   9  15  22  32  49  79 122 173 230 294 360
#     4  12  25  43  68  99 134 174 218 266 319 376
#     4  10  19  33  55  82 116 156 201 253 311 373
#     4   9  16  25  39  62  93 133 184 238 297 364
#
# _framework density 9.8765429999999999
#
# number of rings (size 3 to 8) (size 9 to 14) (size 15 to 20)
#    0.000    1.778    1.111    5.000    0.000    6.667 
#    0.000    2.222    0.000    0.000    0.000    0.000 
#    0.000    0.889    0.000    8.889    0.000   13.778 
#
# Total GULP energy -201067.883736 kJ/mol
# GULP energy per Si atom -5585.218993 kJ/mol
# Density = 0.985406 g / cm^3
# Si number density = 9.876543 Si / 1000 Ang^3
#
#
#
# Elastic Constant Matrix: (Units=GPa)
#
#
# Indices 1 2 3 4 5 6 
#
# 1 75.9054 37.9101 42.8651 0.0000 0.0000 0.0000
# 2 37.9101 229.2074 112.8397 0.0000 0.0000 0.0000
# 3 42.8651 112.8397 230.4732 0.0000 0.0000 0.0000
# 4 0.0000 0.0000 0.0000 53.8636 0.0000 0.0000
# 5 0.0000 0.0000 0.0000 0.0000 4.2129 0.0000
# 6 0.0000 0.0000 0.0000 0.0000 0.0000 19.3655
#
#
#
# Elastic Compliance Matrix: (Units=1/GPa)
#
#
# Indices 1 2 3 4 5 6 
#
# 1 0.015086 -0.001468 -0.002087 0.000000 0.000000 0.000000
# 2 -0.001468 0.005891 -0.002611 0.000000 0.000000 0.000000
# 3 -0.002087 -0.002611 0.006006 0.000000 0.000000 0.000000
# 4 0.000000 0.000000 0.000000 0.018565 0.000000 0.000000
# 5 0.000000 0.000000 0.000000 0.000000 0.237364 0.000000
# 6 0.000000 0.000000 0.000000 0.000000 0.000000 0.051638
#
#
# Mechanical properties :
#
#
# Convention : Reuss Voigt Hill
#
# Bulk Modulus (GPa) = 68.25786 102.53507 85.39646
# Shear Modulus (GPa) = 14.21396 38.28648 26.25022
#
# Velocity S-wave (km/s) = 2.68541 4.40734 3.64939
# Velocity P-wave (km/s) = 6.65175 8.82726 7.81557
#
# Compressibility (1/GPa) = 0.01465033
#
# Stress axis : x y z
#
# Youngs Moduli (GPa) = 66.28674 169.74516 166.51042
#
# Poissons Ratio (x) = 0.24912 0.34755
# Poissons Ratio (y) = 0.09728 0.43482
# Poissons Ratio (z) = 0.13836 0.44327
#
# Static dielectric constant tensor:
#      x y z
#    x 1.730280 0.000000 0.000000 
#    y 0.000000 1.690380 0.000000 
#    z 0.000000 0.000000 1.673970 
# 
# From -- ./inp_files/44251.got.cif
#   From: 2010.05.17/outbox.ucp.g08.bks.cvg/sg67_23_cif.got.tgz:44251.got - 2010.06.11 16:47:20.
