data_PCOD9505274
_publ_section_title
;
Structure prediction by ZEFSAII (Michael W. Deem and Ramdas Pophale) SiO2 
 PCOD9505274
Probable space group: C M M A
;
_chemical_formula_sum "Si O2"
_cell_formula_units_Z 58
_cell_length_a 15.000000
_cell_length_b 24.000000
_cell_length_c 18.000000
_cell_angle_alpha 90.000000
_cell_angle_beta 90.000000
_cell_angle_gamma 90.000000
_cell_volume 6480.000000
_symmetry_space_group_name_H-M "C M M A"
_symmetry_group_IT_number 67
_symmetry_cell_setting 'orthorhombic'
loop_
_space_group_symop_operation_xyz
x,y,z
-x,1/2-y,z
x,-y,-z
-x,1/2+y,-z
-x,-y,-z
x,1/2+y,-z
-x,y,z
x,1/2-y,z
1/2+x,1/2+y,z
1/2-x,-y,z
1/2+x,1/2-y,-z
1/2-x,y,-z
1/2-x,1/2-y,-z
1/2+x,y,-z
1/2-x,1/2+y,z
1/2+x,-y,z
loop_
_atom_site_type_symbol
_atom_site_label
_atom_site_fract_x
_atom_site_fract_y
_atom_site_fract_z
Si Si1 0.155999 0.664880 0.986062
Si Si2 0.722766 0.413272 0.584823
Si Si3 0.355116 0.007113 0.793458
Si Si4 0.607256 0.315894 0.661501
Si Si5 0.604890 0.450002 0.052545
Si Si6 0.604955 0.363456 0.822150
Si Si7 0.000000 0.750000 0.019188
Si Si8 0.103950 0.979929 0.371182
O O1 0.148407 0.655609 0.898025
O O2 0.250000 0.691237 0.000000
O O3 0.152623 0.606195 0.029408
O O4 0.076626 0.701932 0.014696
O O5 0.750000 0.403913 0.500000
O O6 0.671114 0.359429 0.617958
O O7 0.818850 0.432311 0.619708
O O8 0.652674 0.465219 0.593302
O O9 0.383320 0.969635 0.863085
O O10 0.400786 0.991114 0.716627
O O11 0.250000 0.000000 0.782574
O O12 0.375080 0.071623 0.809330
O O13 0.500000 0.327368 0.649585
O O14 0.621787 0.250000 0.645353
O O15 0.626646 0.328691 0.748315
O O16 0.500000 0.442059 0.036759
O O17 0.637221 0.500000 0.000000
O O18 0.500000 0.357144 0.834209
O O19 0.000000 0.971059 0.397405
#
# Coordination Sequence:
#
# PCOD9505274 Si02
#       8
#    16  16  16  16  16  16   4  16
#     4  12  25  41  63  87 118 162 214 263 321 371
#     4  11  23  39  61  92 129 162 199 246 303 374
#     4  12  21  34  59  90 125 158 198 245 310 379
#     4  10  22  39  66  96 126 161 208 260 315 365
#     4  11  22  36  55  88 124 158 194 250 321 380
#     4  11  20  37  62  90 120 157 199 263 315 362
#     4  12  26  48  58  78 120 168 216 278 304 374
#     4  11  21  38  61  91 125 163 201 249 308 371
#
# _framework density 8.9506169999999994
#
# number of rings (size 3 to 8) (size 9 to 14) (size 15 to 20)
#    0.000    0.828    5.517    3.517    0.966    1.931 
#    0.000    0.000    0.000    0.414    0.000    0.000 
#    0.000    0.000    0.000    0.000    0.000    0.000 
#
# Total GULP energy -323142.898042 kJ/mol
# GULP energy per Si atom -5571.429277 kJ/mol
# Density = 0.893025 g / cm^3
# Si number density = 8.950617 Si / 1000 Ang^3
#
#
#
# Elastic Constant Matrix: (Units=GPa)
#
#
# Indices 1 2 3 4 5 6 
#
# 1 120.2226 45.1339 2.2481 0.0000 0.0000 0.0000
# 2 45.1339 123.2227 21.2040 0.0000 0.0000 0.0000
# 3 2.2481 21.2040 23.4689 0.0000 0.0000 0.0000
# 4 0.0000 0.0000 0.0000 1.4254 0.0000 0.0000
# 5 0.0000 0.0000 0.0000 0.0000 26.6420 0.0000
# 6 0.0000 0.0000 0.0000 0.0000 0.0000 29.2663
#
#
#
# Elastic Compliance Matrix: (Units=1/GPa)
#
#
# Indices 1 2 3 4 5 6 
#
# 1 0.009789 -0.004055 0.002726 0.000000 0.000000 0.000000
# 2 -0.004055 0.011289 -0.009811 0.000000 0.000000 0.000000
# 3 0.002726 -0.009811 0.051213 0.000000 0.000000 0.000000
# 4 0.000000 0.000000 0.000000 0.701546 0.000000 0.000000
# 5 0.000000 0.000000 0.000000 0.000000 0.037535 0.000000
# 6 0.000000 0.000000 0.000000 0.000000 0.000000 0.034169
#
#
# Mechanical properties :
#
#
# Convention : Reuss Voigt Hill
#
# Bulk Modulus (GPa) = 19.99577 44.89848 32.44713
# Shear Modulus (GPa) = 5.65298 24.68862 15.17080
#
# Velocity S-wave (km/s) = 1.77897 3.71773 2.91430
# Velocity P-wave (km/s) = 3.92606 6.60033 5.43039
#
# Compressibility (1/GPa) = 0.05001057
#
# Stress axis : x y z
#
# Youngs Moduli (GPa) = 102.15455 88.58393 19.52646
#
# Poissons Ratio (x) = 0.35917 -0.05322
# Poissons Ratio (y) = 0.41419 0.19157
# Poissons Ratio (z) = -0.27843 0.86909
#
# Static dielectric constant tensor:
#      x y z
#    x 1.630590 0.000000 0.000000 
#    y 0.000000 1.618780 0.000000 
#    z 0.000000 0.000000 1.644470 
# 
# From -- ./inp_files/33826.got.cif
#   From: 2010.05.17/outbox.ucp.g08.bks.cvg/sg67_17_cif.got.tgz:33826.got - 2010.06.11 16:47:20.
