data_PCOD9505962
_publ_section_title
;
Structure prediction by ZEFSAII (Michael W. Deem and Ramdas Pophale) SiO2 
 PCOD9505962
Probable space group: C C C A
;
_chemical_formula_sum "Si O2"
_cell_formula_units_Z 68
_cell_length_a 19.355755
_cell_length_b 10.193553
_cell_length_c 14.418773
_cell_angle_alpha 90.000000
_cell_angle_beta 90.000000
_cell_angle_gamma 90.000000
_cell_volume 2844.880354
_symmetry_space_group_name_H-M "C C C A"
_symmetry_group_IT_number 68
_space_group.IT_coordinate_system_code '2'
_symmetry_cell_setting 'orthorhombic'
loop_
_space_group_symop_operation_xyz
x,y,z
-x,1/2-y,z
x,1/2-y,1/2-z
-x,y,1/2-z
-x,-y,-z
x,1/2+y,-z
-x,1/2+y,1/2+z
x,-y,1/2+z
1/2+x,1/2+y,z
1/2-x,-y,z
1/2+x,-y,1/2-z
1/2-x,1/2+y,1/2-z
1/2-x,1/2-y,-z
1/2+x,y,-z
1/2-x,y,1/2+z
1/2+x,1/2-y,1/2+z
loop_
_atom_site_type_symbol
_atom_site_label
_atom_site_fract_x
_atom_site_fract_y
_atom_site_fract_z
Si Si1 0.400507 0.264204 0.392727
Si Si2 0.500000 0.750000 0.750000
Si Si3 0.420688 0.224056 0.888583
Si Si4 0.829373 0.519270 0.622199
Si Si5 0.674423 0.016266 0.100545
O O1 0.452099 0.183238 0.326496
O O2 0.424918 0.276343 0.498251
O O3 0.380706 0.402263 0.347654
O O4 0.335563 0.171289 0.392492
O O5 0.500000 0.250000 0.856929
O O6 0.368078 0.342506 0.862589
O O7 0.382409 0.087414 0.862737
O O8 0.750000 0.500000 0.653808
O O9 0.825992 0.494490 0.510751
O O10 0.750000 0.000000 0.140188
#
# Coordination Sequence:
#
# PCOD9505962 Si02
#       5
#    16   4  16  16  16
#     4  10  21  34  54  74 110 143 179 207 259 317
#     4  12  24  36  48  74 104 152 186 216 236 312
#     4  10  19  31  56  88 111 129 168 227 278 312
#     4   9  18  33  56  84 110 133 166 219 280 323
#     4   9  18  33  56  84 110 133 166 219 280 323
#
# _framework density 23.902588000000002
#
# number of rings (size 3 to 8) (size 9 to 14) (size 15 to 20)
#    0.000    2.353    1.176    1.412    3.294    8.471 
#    0.000    1.176    0.000    2.824    0.000    0.000 
#    0.000    0.000    0.000    0.000    0.000    0.000 
#
# Total GULP energy -189283.569146 kJ/mol
# GULP energy per Si atom -5567.163798 kJ/mol
# Density = 2.384818 g / cm^3
# Si number density = 23.902588 Si / 1000 Ang^3
#
#
#
# Elastic Constant Matrix: (Units=GPa)
#
#
# Indices 1 2 3 4 5 6 
#
# 1 77.0976 33.7248 -20.4339 0.0000 0.0000 0.0000
# 2 33.7248 137.9028 -3.6706 0.0000 0.0000 0.0000
# 3 -20.4339 -3.6706 87.9945 0.0000 0.0000 0.0000
# 4 0.0000 0.0000 0.0000 2.2845 0.0000 0.0000
# 5 0.0000 0.0000 0.0000 0.0000 -12.0829 0.0000
# 6 0.0000 0.0000 0.0000 0.0000 0.0000 6.1329
#
#
#
# Elastic Compliance Matrix: (Units=1/GPa)
#
#
# Indices 1 2 3 4 5 6 
#
# 1 0.015502 -0.003699 0.003446 0.000000 0.000000 0.000000
# 2 -0.003699 0.008142 -0.000519 0.000000 0.000000 0.000000
# 3 0.003446 -0.000519 0.012143 0.000000 0.000000 0.000000
# 4 0.000000 0.000000 0.000000 0.437734 0.000000 0.000000
# 5 0.000000 0.000000 0.000000 0.000000 -0.082761 0.000000
# 6 0.000000 0.000000 0.000000 0.000000 0.000000 0.163056
#
#
# Mechanical properties :
#
#
# Convention : Reuss Voigt Hill
#
# Bulk Modulus (GPa) = 29.20510 35.80396 32.50453
# Shear Modulus (GPa) = 8.82182 18.82519 13.82351
#
# Velocity S-wave (km/s) = 1.92321 2.80943 2.40745
# Velocity P-wave (km/s) = 4.14446 5.05327 4.62126
#
# Compressibility (1/GPa) = 0.03424059
#
# Stress axis : x y z
#
# Youngs Moduli (GPa) = 64.50787 122.81446 82.35341
#
# Poissons Ratio (x) = 0.45434 -0.28375
# Poissons Ratio (y) = 0.23864 0.04278
# Poissons Ratio (z) = -0.22226 0.06379
#
# Static dielectric constant tensor:
#      x y z
#    x 1.853200 0.000000 0.000000 
#    y 0.000000 1.655140 0.000000 
#    z 0.000000 0.000000 1.923040 
# 
# From -- ./inp_files/27985.got.cif
#   From: 2010.05.17/outbox.cif.g08.bks.cpg/sg68_14_cif.got.tgz:27985.got - 2010.06.03 18:57:09.
