data_PCOD9505928
_publ_section_title
;
Structure prediction by ZEFSAII (Michael W. Deem and Ramdas Pophale) SiO2 
 PCOD9505928
Probable space group: C C C A
;
_chemical_formula_sum "Si O2"
_cell_formula_units_Z 72
_cell_length_a 5.291296
_cell_length_b 21.407428
_cell_length_c 31.959398
_cell_angle_alpha 90.000000
_cell_angle_beta 90.000000
_cell_angle_gamma 90.000000
_cell_volume 3620.138109
_symmetry_space_group_name_H-M "C C C A"
_symmetry_group_IT_number 68
_space_group.IT_coordinate_system_code '2'
_symmetry_cell_setting 'orthorhombic'
loop_
_space_group_symop_operation_xyz
x,y,z
-x,1/2-y,z
x,1/2-y,1/2-z
-x,y,1/2-z
-x,-y,-z
x,1/2+y,-z
-x,1/2+y,1/2+z
x,-y,1/2+z
1/2+x,1/2+y,z
1/2-x,-y,z
1/2+x,-y,1/2-z
1/2-x,1/2+y,1/2-z
1/2-x,1/2-y,-z
1/2+x,y,-z
1/2-x,y,1/2+z
1/2+x,1/2-y,1/2+z
loop_
_atom_site_type_symbol
_atom_site_label
_atom_site_fract_x
_atom_site_fract_y
_atom_site_fract_z
Si Si1 0.000000 0.250000 0.028918
Si Si2 0.041954 0.363183 0.405051
Si Si3 0.542091 0.321768 0.363259
Si Si4 0.741655 0.820843 0.731445
Si Si5 0.529003 0.069919 0.982163
O O1 0.045514 0.192100 0.060576
O O2 0.250000 0.250000 0.000000
O O3 0.265746 0.352292 0.371241
O O4 0.758928 0.359052 0.387545
O O5 0.081323 0.424734 0.433134
O O6 0.500000 0.250000 0.377570
O O7 0.671652 0.316449 0.317275
O O8 0.744995 0.750000 0.750000
O O9 0.500000 0.855444 0.750000
O O10 0.000000 0.848308 0.750000
O O11 0.760630 0.100069 0.006922
O O12 0.500000 0.000000 0.000000
#
# Coordination Sequence:
#
# PCOD9505928 Si02
#       5
#     8  16  16  16  16
#     4  12  22  32  46  68 103 144 185 226 284 348
#     4  12  23  35  52  76 112 145 192 249 293 335
#     4  12  21  35  49  78 112 155 195 232 282 336
#     4  10  19  30  50  69 100 151 207 217 252 332
#     4  10  21  40  62  79 100 143 197 249 304 352
#
# _framework density 19.888746000000001
#
# number of rings (size 3 to 8) (size 9 to 14) (size 15 to 20)
#    0.000    0.889    4.444    5.333    3.111    0.000 
#    0.000    0.000    0.000    0.000    0.000    0.000 
#    0.000    0.000    0.000  224.000    0.000   15.556 
#
# Total GULP energy -200418.537666 kJ/mol
# GULP energy per Si atom -5567.181602 kJ/mol
# Density = 1.984348 g / cm^3
# Si number density = 19.888746 Si / 1000 Ang^3
#
#
#
# Elastic Constant Matrix: (Units=GPa)
#
#
# Indices 1 2 3 4 5 6 
#
# 1 190.7781 1.0416 24.0897 0.0000 0.0000 0.0000
# 2 1.0416 46.4684 18.4227 0.0000 0.0000 0.0000
# 3 24.0897 18.4227 80.6179 0.0000 0.0000 0.0000
# 4 0.0000 0.0000 0.0000 9.5210 0.0000 0.0000
# 5 0.0000 0.0000 0.0000 0.0000 52.6645 0.0000
# 6 0.0000 0.0000 0.0000 0.0000 0.0000 1.5092
#
#
#
# Elastic Compliance Matrix: (Units=1/GPa)
#
#
# Indices 1 2 3 4 5 6 
#
# 1 0.005461 0.000577 -0.001764 0.000000 0.000000 0.000000
# 2 0.000577 0.023725 -0.005594 0.000000 0.000000 0.000000
# 3 -0.001764 -0.005594 0.014210 0.000000 0.000000 0.000000
# 4 0.000000 0.000000 0.000000 0.105031 0.000000 0.000000
# 5 0.000000 0.000000 0.000000 0.000000 0.018988 0.000000
# 6 0.000000 0.000000 0.000000 0.000000 0.000000 0.662591
#
#
# Mechanical properties :
#
#
# Convention : Reuss Voigt Hill
#
# Bulk Modulus (GPa) = 33.51882 44.99690 39.25786
# Shear Modulus (GPa) = 5.85815 31.02631 18.44223
#
# Velocity S-wave (km/s) = 1.71810 3.95396 3.04841
# Velocity P-wave (km/s) = 4.56350 6.59685 5.67204
#
# Compressibility (1/GPa) = 0.02983399
#
# Stress axis : x y z
#
# Youngs Moduli (GPa) = 183.10836 42.14996 70.37531
#
# Poissons Ratio (x) = -0.02431 0.12412
# Poissons Ratio (y) = -0.10562 0.39367
# Poissons Ratio (z) = 0.32295 0.23578
#
# Static dielectric constant tensor:
#      x y z
#    x -26.145580 0.000000 0.000000 
#    y 0.000000 226.175230 0.000000 
#    z 0.000000 0.000000 1.820380 
# 
# From -- ./inp_files/48306.got.cif
#   From: 2010.05.17/outbox.cif.g08.bks.cpg/sg68_25_cif.got.tgz:48306.got - 2010.06.03 18:57:09.
