data_PCOD9505189
_publ_section_title
;
Structure prediction by ZEFSAII (Michael W. Deem and Ramdas Pophale) SiO2 
 PCOD9505189
Probable space group: C M M A
;
_chemical_formula_sum "Si O2"
_cell_formula_units_Z 56
_cell_length_a 21.000000
_cell_length_b 24.000000
_cell_length_c 12.000000
_cell_angle_alpha 90.000000
_cell_angle_beta 90.000000
_cell_angle_gamma 90.000000
_cell_volume 6048.000000
_symmetry_space_group_name_H-M "C M M A"
_symmetry_group_IT_number 67
_symmetry_cell_setting 'orthorhombic'
loop_
_space_group_symop_operation_xyz
x,y,z
-x,1/2-y,z
x,-y,-z
-x,1/2+y,-z
-x,-y,-z
x,1/2+y,-z
-x,y,z
x,1/2-y,z
1/2+x,1/2+y,z
1/2-x,-y,z
1/2+x,1/2-y,-z
1/2-x,y,-z
1/2-x,1/2-y,-z
1/2+x,y,-z
1/2-x,1/2+y,z
1/2+x,-y,z
loop_
_atom_site_type_symbol
_atom_site_label
_atom_site_fract_x
_atom_site_fract_y
_atom_site_fract_z
Si Si1 0.071971 0.612853 0.153019
Si Si2 0.072118 0.463161 0.644515
Si Si3 0.211448 0.183753 0.107363
Si Si4 0.824575 0.389763 0.517122
Si Si5 0.571999 0.136140 0.903548
Si Si6 0.571463 0.905179 0.343731
Si Si7 0.181250 0.183570 0.728712
O O1 0.077874 0.557721 0.228055
O O2 0.124776 0.655450 0.199107
O O3 0.000000 0.634922 0.172821
O O4 0.077649 0.603963 0.020991
O O5 0.131000 0.435133 0.580635
O O6 0.074369 0.529017 0.633692
O O7 0.000000 0.445298 0.607947
O O8 0.218151 0.250000 0.105058
O O9 0.136528 0.171995 0.101707
O O10 0.251557 0.165166 0.215659
O O11 0.250000 0.160992 0.000000
O O12 0.750000 0.406059 0.500000
O O13 0.868211 0.378442 0.407815
O O14 0.822857 0.338206 0.602808
O O15 0.500000 0.162380 0.905517
O O16 0.574920 0.102147 0.789085
O O17 0.500000 0.884481 0.376965
O O18 0.175703 0.250000 0.733529
#
# Coordination Sequence:
#
# PCOD9505189 Si02
#       7
#    16  16  16  16  16  16  16
#     4   9  18  33  54  83 112 138 175 224 273 321
#     4   9  19  36  57  79 106 143 185 224 266 323
#     4  10  19  34  56  79 107 142 177 216 270 333
#     4  11  22  36  56  79 107 141 180 234 272 314
#     4  10  20  34  55  83 114 143 177 225 274 321
#     4  10  21  37  56  79 109 149 187 220 268 327
#     4  10  21  37  57  80 105 141 183 222 272 328
#
# _framework density 9.2592590000000001
#
# number of rings (size 3 to 8) (size 9 to 14) (size 15 to 20)
#    0.000    2.143    1.429    1.714    0.000    4.286 
#    0.000    5.000    0.000    0.857    0.000    0.000 
#    0.000    0.000    0.000    0.000    0.000    0.000 
#
# Total GULP energy -311750.173634 kJ/mol
# GULP energy per Si atom -5566.967386 kJ/mol
# Density = 0.923818 g / cm^3
# Si number density = 9.259259 Si / 1000 Ang^3
#
#
#
# Elastic Constant Matrix: (Units=GPa)
#
#
# Indices 1 2 3 4 5 6 
#
# 1 159.8615 15.7914 55.9338 0.0000 0.0000 0.0000
# 2 15.7914 13.7143 23.9020 0.0000 0.0000 0.0000
# 3 55.9338 23.9020 132.2392 0.0000 0.0000 0.0000
# 4 0.0000 0.0000 0.0000 14.5367 0.0000 0.0000
# 5 0.0000 0.0000 0.0000 0.0000 38.6750 0.0000
# 6 0.0000 0.0000 0.0000 0.0000 0.0000 21.1515
#
#
#
# Elastic Compliance Matrix: (Units=1/GPa)
#
#
# Indices 1 2 3 4 5 6 
#
# 1 0.007532 -0.004555 -0.002362 0.000000 0.000000 0.000000
# 2 -0.004555 0.109205 -0.017812 0.000000 0.000000 0.000000
# 3 -0.002362 -0.017812 0.011781 0.000000 0.000000 0.000000
# 4 0.000000 0.000000 0.000000 0.068792 0.000000 0.000000
# 5 0.000000 0.000000 0.000000 0.000000 0.025856 0.000000
# 6 0.000000 0.000000 0.000000 0.000000 0.000000 0.047278
#
#
# Mechanical properties :
#
#
# Convention : Reuss Voigt Hill
#
# Bulk Modulus (GPa) = 12.64884 55.22996 33.93940
# Shear Modulus (GPa) = 14.44018 28.88517 21.66267
#
# Velocity S-wave (km/s) = 2.79546 3.95371 3.42392
# Velocity P-wave (km/s) = 4.15508 7.12260 5.83078
#
# Compressibility (1/GPa) = 0.07905865
#
# Stress axis : x y z
#
# Youngs Moduli (GPa) = 132.76675 9.15707 84.88400
#
# Poissons Ratio (x) = 0.04171 0.20054
# Poissons Ratio (y) = 0.60480 1.51194
# Poissons Ratio (z) = 0.31366 0.16310
#
# Static dielectric constant tensor:
#      x y z
#    x 1.663990 0.000000 0.000000 
#    y 0.000000 1.601920 0.000000 
#    z 0.000000 0.000000 1.709520 
# 
# From -- ./inp_files/21112.got.cif
#   From: 2010.05.17/outbox.ucp.g08.bks.cvg/sg67_11_cif.got.tgz:21112.got - 2010.06.11 16:47:20.
