data_PCOD9505719
_publ_section_title
;
Structure prediction by ZEFSAII (Michael W. Deem and Ramdas Pophale) SiO2 
 PCOD9505719
Probable space group: C C C A
;
_chemical_formula_sum "Si O2"
_cell_formula_units_Z 80
_cell_length_a 9.853750
_cell_length_b 16.478528
_cell_length_c 25.368690
_cell_angle_alpha 90.000000
_cell_angle_beta 90.000000
_cell_angle_gamma 90.000000
_cell_volume 4119.248530
_symmetry_space_group_name_H-M "C C C A"
_symmetry_group_IT_number 68
_space_group.IT_coordinate_system_code '2'
_symmetry_cell_setting 'orthorhombic'
loop_
_space_group_symop_operation_xyz
x,y,z
-x,1/2-y,z
x,1/2-y,1/2-z
-x,y,1/2-z
-x,-y,-z
x,1/2+y,-z
-x,1/2+y,1/2+z
x,-y,1/2+z
1/2+x,1/2+y,z
1/2-x,-y,z
1/2+x,-y,1/2-z
1/2-x,1/2+y,1/2-z
1/2-x,1/2-y,-z
1/2+x,y,-z
1/2-x,y,1/2+z
1/2+x,1/2-y,1/2+z
loop_
_atom_site_type_symbol
_atom_site_label
_atom_site_fract_x
_atom_site_fract_y
_atom_site_fract_z
Si Si1 0.443405 0.929858 0.603459
Si Si2 0.714918 0.404099 0.445351
Si Si3 0.677512 0.602611 0.066085
Si Si4 0.060350 0.670873 0.623893
Si Si5 0.412033 0.513962 0.197070
O O1 0.556162 0.893069 0.565682
O O2 0.302150 0.882629 0.606038
O O3 0.391485 0.014882 0.577719
O O4 0.520820 0.947911 0.657621
O O5 0.750000 0.500000 0.432671
O O6 0.735450 0.392818 0.507442
O O7 0.801150 0.344070 0.408688
O O8 0.555101 0.661046 0.078981
O O9 0.064744 0.598102 0.665986
O O10 0.000000 0.750000 0.652134
O O11 0.500000 0.513423 0.250000
O O12 0.250000 0.500000 0.204651
#
# Coordination Sequence:
#
# PCOD9505719 Si02
#       5
#    16  16  16  16  16
#     4  10  18  33  56  90 114 140 191 255 294 327
#     4  12  17  35  60  87 119 156 200 242 286 333
#     4  10  20  30  59  91 116 155 195 238 281 346
#     4  11  24  40  55  84 128 163 191 230 298 369
#     4  11  23  40  66  89 108 143 197 260 301 343
#
# _framework density 19.421016999999999
#
# number of rings (size 3 to 8) (size 9 to 14) (size 15 to 20)
#    0.000    1.200    8.000    1.800    5.600    1.200 
#    0.000    1.000    0.000    0.000    0.000    0.000 
#    0.000    0.000    0.000    0.000    0.000    0.000 
#
# Total GULP energy -222782.988438 kJ/mol
# GULP energy per Si atom -5569.574711 kJ/mol
# Density = 1.937681 g / cm^3
# Si number density = 19.421017 Si / 1000 Ang^3
#
#
#
# Elastic Constant Matrix: (Units=GPa)
#
#
# Indices 1 2 3 4 5 6 
#
# 1 168.2283 25.6683 39.1582 0.0000 0.0000 0.0000
# 2 25.6683 35.5626 4.4371 0.0000 0.0000 0.0000
# 3 39.1582 4.4371 103.2902 0.0000 0.0000 0.0000
# 4 0.0000 0.0000 0.0000 4.5761 0.0000 0.0000
# 5 0.0000 0.0000 0.0000 0.0000 33.6448 0.0000
# 6 0.0000 0.0000 0.0000 0.0000 0.0000 14.3373
#
#
#
# Elastic Compliance Matrix: (Units=1/GPa)
#
#
# Indices 1 2 3 4 5 6 
#
# 1 0.007293 -0.004945 -0.002552 0.000000 0.000000 0.000000
# 2 -0.004945 0.031625 0.000516 0.000000 0.000000 0.000000
# 3 -0.002552 0.000516 0.010627 0.000000 0.000000 0.000000
# 4 0.000000 0.000000 0.000000 0.218526 0.000000 0.000000
# 5 0.000000 0.000000 0.000000 0.000000 0.029722 0.000000
# 6 0.000000 0.000000 0.000000 0.000000 0.000000 0.069748
#
#
# Mechanical properties :
#
#
# Convention : Reuss Voigt Hill
#
# Bulk Modulus (GPa) = 28.10454 49.51204 38.80829
# Shear Modulus (GPa) = 12.71088 26.36616 19.53852
#
# Velocity S-wave (km/s) = 2.56108 3.68857 3.17527
# Velocity P-wave (km/s) = 4.82163 6.60985 5.78525
#
# Compressibility (1/GPa) = 0.03558144
#
# Stress axis : x y z
#
# Youngs Moduli (GPa) = 137.11787 31.62101 94.10074
#
# Poissons Ratio (x) = 0.15638 0.24018
# Poissons Ratio (y) = 0.67811 -0.04859
# Poissons Ratio (z) = 0.34998 -0.01633
#
# Static dielectric constant tensor:
#      x y z
#    x 1.707040 0.000000 0.000000 
#    y 0.000000 1.877110 0.000000 
#    z 0.000000 0.000000 1.685410 
# 
# From -- ./inp_files/49155.got.cif
#   From: 2010.05.17/outbox.cif.g08.bks.cpg/sg68_25_cif.got.tgz:49155.got - 2010.06.03 18:57:09.
