data_PCOD9505066
_publ_section_title
;
Structure prediction by ZEFSAII (Michael W. Deem and Ramdas Pophale) SiO2 
 PCOD9505066
Probable space group: C M M A
;
_chemical_formula_sum "Si O2"
_cell_formula_units_Z 52
_cell_length_a 15.861337
_cell_length_b 14.091230
_cell_length_c 11.372635
_cell_angle_alpha 90.000000
_cell_angle_beta 90.000000
_cell_angle_gamma 90.000000
_cell_volume 2541.849290
_symmetry_space_group_name_H-M "C M M A"
_symmetry_group_IT_number 67
_symmetry_cell_setting 'orthorhombic'
loop_
_space_group_symop_operation_xyz
x,y,z
-x,1/2-y,z
x,-y,-z
-x,1/2+y,-z
-x,-y,-z
x,1/2+y,-z
-x,y,z
x,1/2-y,z
1/2+x,1/2+y,z
1/2-x,-y,z
1/2+x,1/2-y,-z
1/2-x,y,-z
1/2-x,1/2-y,-z
1/2+x,y,-z
1/2-x,1/2+y,z
1/2+x,-y,z
loop_
_atom_site_type_symbol
_atom_site_label
_atom_site_fract_x
_atom_site_fract_y
_atom_site_fract_z
Si Si1 0.647003 0.499519 0.139117
Si Si2 0.500000 0.359041 0.776257
Si Si3 0.750000 0.000000 0.500000
Si Si4 0.500000 0.885402 0.499275
Si Si5 0.847089 0.855029 0.334456
O O1 0.750000 0.500000 0.151930
O O2 0.585537 0.583187 0.187937
O O3 0.623597 0.405907 0.214326
O O4 0.630614 0.500000 0.000000
O O5 0.500000 0.250000 0.820894
O O6 0.500000 0.356311 0.635172
O O7 0.789371 0.927367 0.406075
O O8 0.577846 0.849462 0.573184
O O9 0.500000 0.000000 0.500000
O O10 0.811438 0.750000 0.312414
#
# Coordination Sequence:
#
# PCOD9505066 Si02
#       5
#    16   8   4   8  16
#     4  11  25  47  70 101 148 189 241 305 350 415
#     4  12  25  45  74 105 141 191 237 292 368 432
#     4  12  22  42  62  98 140 166 218 278 340 416
#     4  12  22  43  68  96 137 172 222 294 355 417
#     4  12  24  41  69  99 134 182 227 281 355 422
#
# _framework density 20.457546000000001
#
# number of rings (size 3 to 8) (size 9 to 14) (size 15 to 20)
#    0.000    0.308    6.154    2.308    0.000    2.462 
#    0.000    3.077    0.000    0.000    0.000    0.000 
#    0.000    0.000    0.000    0.000    0.000    0.000 
#
# Total GULP energy -144822.624960 kJ/mol
# GULP energy per Si atom -5570.100960 kJ/mol
# Density = 2.041098 g / cm^3
# Si number density = 20.457546 Si / 1000 Ang^3
#
#
#
# Elastic Constant Matrix: (Units=GPa)
#
#
# Indices 1 2 3 4 5 6 
#
# 1 82.7777 62.6046 42.6639 0.0000 0.0000 0.0000
# 2 62.6046 213.5553 58.0285 0.0000 0.0000 0.0000
# 3 42.6639 58.0285 191.0535 0.0000 0.0000 0.0000
# 4 0.0000 0.0000 0.0000 -0.5039 0.0000 0.0000
# 5 0.0000 0.0000 0.0000 0.0000 46.1163 0.0000
# 6 0.0000 0.0000 0.0000 0.0000 0.0000 -25.9373
#
#
#
# Elastic Compliance Matrix: (Units=1/GPa)
#
#
# Indices 1 2 3 4 5 6 
#
# 1 0.016482 -0.004176 -0.002412 0.000000 0.000000 0.000000
# 2 -0.004176 0.006162 -0.000939 0.000000 0.000000 0.000000
# 3 -0.002412 -0.000939 0.006058 0.000000 0.000000 0.000000
# 4 0.000000 0.000000 0.000000 -1.984542 0.000000 0.000000
# 5 0.000000 0.000000 0.000000 0.000000 0.021684 0.000000
# 6 0.000000 0.000000 0.000000 0.000000 0.000000 -0.038555
#
#
# Mechanical properties :
#
#
# Convention : Reuss Voigt Hill
#
# Bulk Modulus (GPa) = 73.27422 90.44227 81.85825
# Shear Modulus (GPa) = -2.56003 25.54099 11.49048
#
# Velocity S-wave (km/s) = -1.11987 3.53723 2.37254
# Velocity P-wave (km/s) = 5.85007 7.80950 6.89970
#
# Compressibility (1/GPa) = 0.01364736
#
# Stress axis : x y z
#
# Youngs Moduli (GPa) = 60.67073 162.28202 165.07132
#
# Poissons Ratio (x) = 0.67776 0.39818
# Poissons Ratio (y) = 0.25339 0.15500
# Poissons Ratio (z) = 0.14635 0.15238
#
# Static dielectric constant tensor:
#      x y z
#    x 1.732470 0.000000 0.000000 
#    y 0.000000 3.038900 0.000000 
#    z 0.000000 0.000000 1.710200 
# 
# From -- ./inp_files/17254.got.cif
#   From: 2010.05.17/outbox.cif.g08.bks.cpg/sg67_9_cif.got.tgz:17254.got - 2010.06.03 18:28:57.
