data_PCOD9505164
_publ_section_title
;
Structure prediction by ZEFSAII (Michael W. Deem and Ramdas Pophale) SiO2 
 PCOD9505164
Probable space group: C M M A
;
_chemical_formula_sum "Si O2"
_cell_formula_units_Z 52
_cell_length_a 30.000000
_cell_length_b 9.000000
_cell_length_c 21.000000
_cell_angle_alpha 90.000000
_cell_angle_beta 90.000000
_cell_angle_gamma 90.000000
_cell_volume 5670.000000
_symmetry_space_group_name_H-M "C M M A"
_symmetry_group_IT_number 67
_symmetry_cell_setting 'orthorhombic'
loop_
_space_group_symop_operation_xyz
x,y,z
-x,1/2-y,z
x,-y,-z
-x,1/2+y,-z
-x,-y,-z
x,1/2+y,-z
-x,y,z
x,1/2-y,z
1/2+x,1/2+y,z
1/2-x,-y,z
1/2+x,1/2-y,-z
1/2-x,y,-z
1/2-x,1/2-y,-z
1/2+x,y,-z
1/2-x,1/2+y,z
1/2+x,-y,z
loop_
_atom_site_type_symbol
_atom_site_label
_atom_site_fract_x
_atom_site_fract_y
_atom_site_fract_z
Si Si1 0.905716 0.430203 0.570959
Si Si2 0.050228 0.573808 0.098014
Si Si3 0.200699 0.429677 0.193092
Si Si4 0.549075 0.420580 0.768681
Si Si5 0.500000 0.431702 0.571367
Si Si6 0.638188 0.425963 0.687356
Si Si7 0.356318 0.071579 0.934515
O O1 0.897971 0.500000 0.500000
O O2 0.909002 0.250000 0.567100
O O3 0.868307 0.481730 0.622160
O O4 0.952865 0.501991 0.595256
O O5 0.055675 0.750000 0.087580
O O6 0.050776 0.533920 0.173017
O O7 0.092755 0.486326 0.071460
O O8 0.000000 0.530824 0.075764
O O9 0.204036 0.250000 0.192869
O O10 0.250000 0.500000 0.190102
O O11 0.174979 0.470492 0.259208
O O12 0.171119 0.469672 0.130092
O O13 0.500000 0.432462 0.737541
O O14 0.552215 0.250000 0.794148
O O15 0.591008 0.440987 0.723841
O O16 0.500000 0.250000 0.572929
O O17 0.500000 0.500000 0.500000
O O18 0.644492 0.250000 0.672711
O O19 0.356034 0.250000 0.939331
O O20 0.337808 0.000000 0.000000
#
# Coordination Sequence:
#
# PCOD9505164 Si02
#       7
#    16  16  16  16   8  16  16
#     4  11  22  36  54  83 119 160 203 246 291 344
#     4  10  20  34  54  83 119 158 198 241 285 336
#     4  10  23  43  66  90 118 149 191 241 301 362
#     4   9  17  31  53  80 113 154 194 235 287 343
#     4  10  18  32  52  76 114 164 207 246 287 338
#     4  10  20  37  59  86 117 154 196 240 292 354
#     4  11  23  41  62  88 118 155 196 240 291 351
#
# _framework density 9.1710759999999993
#
# number of rings (size 3 to 8) (size 9 to 14) (size 15 to 20)
#    0.000    1.846    1.538    3.923    1.077    4.000 
#    0.000    1.538    0.000    0.462    0.000    3.231 
#    0.000    0.000    0.000    0.000    0.000    0.000 
#
# Total GULP energy -290123.603861 kJ/mol
# GULP energy per Si atom -5579.300074 kJ/mol
# Density = 0.915020 g / cm^3
# Si number density = 9.171076 Si / 1000 Ang^3
#
#
#
# Elastic Constant Matrix: (Units=GPa)
#
#
# Indices 1 2 3 4 5 6 
#
# 1 115.0701 40.3390 56.9570 0.0000 0.0000 0.0000
# 2 40.3390 96.4646 50.1096 0.0000 0.0000 0.0000
# 3 56.9570 50.1096 118.1719 0.0000 0.0000 0.0000
# 4 0.0000 0.0000 0.0000 32.1280 0.0000 0.0000
# 5 0.0000 0.0000 0.0000 0.0000 18.0208 0.0000
# 6 0.0000 0.0000 0.0000 0.0000 0.0000 32.6820
#
#
#
# Elastic Compliance Matrix: (Units=1/GPa)
#
#
# Indices 1 2 3 4 5 6 
#
# 1 0.011886 -0.002558 -0.004644 0.000000 0.000000 0.000000
# 2 -0.002558 0.013845 -0.004638 0.000000 0.000000 0.000000
# 3 -0.004644 -0.004638 0.012667 0.000000 0.000000 0.000000
# 4 0.000000 0.000000 0.000000 0.031125 0.000000 0.000000
# 5 0.000000 0.000000 0.000000 0.000000 0.055491 0.000000
# 6 0.000000 0.000000 0.000000 0.000000 0.000000 0.030598
#
#
# Mechanical properties :
#
#
# Convention : Reuss Voigt Hill
#
# Bulk Modulus (GPa) = 67.94250 69.39084 68.66667
# Shear Modulus (GPa) = 27.14443 28.71957 27.93200
#
# Velocity S-wave (km/s) = 3.85111 3.96127 3.90658
# Velocity P-wave (km/s) = 7.54300 7.67044 7.60699
#
# Compressibility (1/GPa) = 0.01471833
#
# Stress axis : x y z
#
# Youngs Moduli (GPa) = 84.13417 72.22571 78.94278
#
# Poissons Ratio (x) = 0.18475 0.36662
# Poissons Ratio (y) = 0.21521 0.36615
# Poissons Ratio (z) = 0.39073 0.33500
#
# Static dielectric constant tensor:
#      x y z
#    x 1.638850 0.000000 0.000000 
#    y 0.000000 1.618380 0.000000 
#    z 0.000000 0.000000 1.685860 
# 
# From -- ./inp_files/40218.got.cif
#   From: 2010.05.17/outbox.ucp.g08.bks.cvg/sg67_21_cif.got.tgz:40218.got - 2010.06.11 16:47:20.
