data_PCOD9505748
_publ_section_title
;
Structure prediction by ZEFSAII (Michael W. Deem and Ramdas Pophale) SiO2 
 PCOD9505748
Probable space group: C C C A
;
_chemical_formula_sum "Si O2"
_cell_formula_units_Z 116
_cell_length_a 29.948716
_cell_length_b 14.130551
_cell_length_c 14.802044
_cell_angle_alpha 90.000000
_cell_angle_beta 90.000000
_cell_angle_gamma 90.000000
_cell_volume 6264.104515
_symmetry_space_group_name_H-M "C C C A"
_symmetry_group_IT_number 68
_space_group.IT_coordinate_system_code '2'
_symmetry_cell_setting 'orthorhombic'
loop_
_space_group_symop_operation_xyz
x,y,z
-x,1/2-y,z
x,1/2-y,1/2-z
-x,y,1/2-z
-x,-y,-z
x,1/2+y,-z
-x,1/2+y,1/2+z
x,-y,1/2+z
1/2+x,1/2+y,z
1/2-x,-y,z
1/2+x,-y,1/2-z
1/2-x,1/2+y,1/2-z
1/2-x,1/2-y,-z
1/2+x,y,-z
1/2-x,y,1/2+z
1/2+x,1/2-y,1/2+z
loop_
_atom_site_type_symbol
_atom_site_label
_atom_site_fract_x
_atom_site_fract_y
_atom_site_fract_z
Si Si1 0.822457 0.764685 0.642966
Si Si2 0.500000 0.750000 0.250000
Si Si3 0.564671 0.943056 0.993506
Si Si4 0.199332 0.033027 0.295851
Si Si5 0.139558 0.431276 0.574397
Si Si6 0.792760 0.931016 0.908460
Si Si7 0.600413 0.252669 0.495778
Si Si8 0.472815 0.621568 0.411774
O O1 0.831288 0.750000 0.750000
O O2 0.804770 0.871695 0.644318
O O3 0.788629 0.684179 0.603696
O O4 0.867316 0.756798 0.583505
O O5 0.474834 0.677749 0.317601
O O6 0.551322 0.019561 0.917457
O O7 0.589899 0.850555 0.959300
O O8 0.521514 0.903116 0.047394
O O9 0.597137 0.000678 0.060379
O O10 0.188027 0.045805 0.190653
O O11 0.250000 0.000000 0.299983
O O12 0.166497 0.957733 0.338020
O O13 0.172116 0.446991 0.488220
O O14 0.124914 0.322914 0.571856
O O15 0.750000 0.000000 0.922179
O O16 0.555561 0.308087 0.524765
#
# Coordination Sequence:
#
# PCOD9505748 Si02
#       8
#    16   4  16  16  16  16  16  16
#     4   9  18  31  53  81 107 145 184 246 298 334
#     4  12  20  36  56 100 110 138 208 260 284 340
#     4  10  19  38  52  81 119 154 178 233 304 351
#     4  10  19  35  55  80 111 147 193 243 293 355
#     4  10  20  34  55  85 108 151 193 232 292 355
#     4   9  19  36  54  79 112 145 193 245 293 347
#     4  10  18  34  55  81 111 146 189 231 288 361
#     4  10  22  33  58  88 115 146 192 244 294 347
#
# _framework density 18.51821
#
# number of rings (size 3 to 8) (size 9 to 14) (size 15 to 20)
#    0.000    2.207    2.759    0.414    0.966    0.000 
#    7.448    2.069    0.000    0.000    3.586    0.000 
#    0.000    0.000    0.000    0.000    0.000    0.000 
#
# Total GULP energy -322991.167527 kJ/mol
# GULP energy per Si atom -5568.813233 kJ/mol
# Density = 1.847606 g / cm^3
# Si number density = 18.518210 Si / 1000 Ang^3
#
#
#
# Elastic Constant Matrix: (Units=GPa)
#
#
# Indices 1 2 3 4 5 6 
#
# 1 27.1232 13.1549 5.9421 0.0000 0.0000 0.0000
# 2 13.1549 125.9007 22.2672 0.0000 0.0000 0.0000
# 3 5.9421 22.2672 28.9361 0.0000 0.0000 0.0000
# 4 0.0000 0.0000 0.0000 -325.7693 0.0000 0.0000
# 5 0.0000 0.0000 0.0000 0.0000 168.6339 0.0000
# 6 0.0000 0.0000 0.0000 0.0000 0.0000 29.9001
#
#
#
# Elastic Compliance Matrix: (Units=1/GPa)
#
#
# Indices 1 2 3 4 5 6 
#
# 1 0.039642 -0.003128 -0.005734 0.000000 0.000000 0.000000
# 2 -0.003128 0.009441 -0.006623 0.000000 0.000000 0.000000
# 3 -0.005734 -0.006623 0.040833 0.000000 0.000000 0.000000
# 4 0.000000 0.000000 0.000000 -0.003070 0.000000 0.000000
# 5 0.000000 0.000000 0.000000 0.000000 0.005930 0.000000
# 6 0.000000 0.000000 0.000000 0.000000 0.000000 0.033445
#
#
# Mechanical properties :
#
#
# Convention : Reuss Voigt Hill
#
# Bulk Modulus (GPa) = 16.96436 29.40984 23.18710
# Shear Modulus (GPa) = 28.27443 -16.07401 6.10021
#
# Velocity S-wave (km/s) = 3.91173 -2.94940 1.81695
# Velocity P-wave (km/s) = 5.43902 2.07785 4.11706
#
# Compressibility (1/GPa) = 0.05894710
#
# Stress axis : x y z
#
# Youngs Moduli (GPa) = 25.22582 105.92191 24.49015
#
# Poissons Ratio (x) = 0.33132 0.14041
# Poissons Ratio (y) = 0.07891 0.16219
# Poissons Ratio (z) = 0.14463 0.70149
#
# Static dielectric constant tensor:
#      x y z
#    x 1.657350 0.000000 0.000000 
#    y 0.000000 1.692230 0.000000 
#    z 0.000000 0.000000 1.613670 
# 
# From -- ./inp_files/34205.got.cif
#   From: 2010.05.17/outbox.cif.g08.bks.cpg/sg68_18_cif.got.tgz:34205.got - 2010.06.03 18:57:09.
