data_PCOD9505704
_publ_section_title
;
Structure prediction by ZEFSAII (Michael W. Deem and Ramdas Pophale) SiO2 
 PCOD9505704
Probable space group: C C C A
;
_chemical_formula_sum "Si O2"
_cell_formula_units_Z 56
_cell_length_a 13.079216
_cell_length_b 19.709094
_cell_length_c 9.224764
_cell_angle_alpha 90.000000
_cell_angle_beta 90.000000
_cell_angle_gamma 90.000000
_cell_volume 2377.955029
_symmetry_space_group_name_H-M "C C C A"
_symmetry_group_IT_number 68
_space_group.IT_coordinate_system_code '2'
_symmetry_cell_setting 'orthorhombic'
loop_
_space_group_symop_operation_xyz
x,y,z
-x,1/2-y,z
x,1/2-y,1/2-z
-x,y,1/2-z
-x,-y,-z
x,1/2+y,-z
-x,1/2+y,1/2+z
x,-y,1/2+z
1/2+x,1/2+y,z
1/2-x,-y,z
1/2+x,-y,1/2-z
1/2-x,1/2+y,1/2-z
1/2-x,1/2-y,-z
1/2+x,y,-z
1/2-x,y,1/2+z
1/2+x,1/2-y,1/2+z
loop_
_atom_site_type_symbol
_atom_site_label
_atom_site_fract_x
_atom_site_fract_y
_atom_site_fract_z
Si Si1 0.750000 0.000000 0.159682
Si Si2 0.599099 0.177725 0.333596
Si Si3 0.640429 0.262248 0.579799
Si Si4 0.695730 0.906494 0.397159
O O1 0.825828 0.040417 0.268305
O O2 0.704375 0.054052 0.047575
O O3 0.620845 0.250000 0.250000
O O4 0.500000 0.149822 0.250000
O O5 0.577328 0.204852 0.495724
O O6 0.694917 0.127163 0.346371
O O7 0.642224 0.250000 0.750000
O O8 0.750000 0.250000 0.500000
O O9 0.624377 0.342656 0.572537
#
# Coordination Sequence:
#
# PCOD9505704 Si02
#       4
#     8  16  16  16
#     4  10  20  30  54  82 110 146 190 240 286 334
#     4  10  20  35  55  79 112 152 189 238 303 360
#     4  10  18  32  59  86 109 142 191 253 306 344
#     4  10  18  33  52  82 111 141 189 243 288 343
#
# _framework density 23.549645999999999
#
# number of rings (size 3 to 8) (size 9 to 14) (size 15 to 20)
#    0.000    2.000    0.000    8.571    0.000    0.000 
#    0.000    4.286    0.000    0.000    0.000    6.000 
#    0.000    0.000    0.000    0.000    0.000    0.000 
#
# Total GULP energy -156090.474268 kJ/mol
# GULP energy per Si atom -5574.659795 kJ/mol
# Density = 2.349605 g / cm^3
# Si number density = 23.549646 Si / 1000 Ang^3
#
#
#
# Elastic Constant Matrix: (Units=GPa)
#
#
# Indices 1 2 3 4 5 6 
#
# 1 100.8538 26.3213 22.8566 0.0000 0.0000 0.0000
# 2 26.3213 129.3129 62.6148 0.0000 0.0000 0.0000
# 3 22.8566 62.6148 218.9018 0.0000 0.0000 0.0000
# 4 0.0000 0.0000 0.0000 56.2709 0.0000 0.0000
# 5 0.0000 0.0000 0.0000 0.0000 -0.7587 0.0000
# 6 0.0000 0.0000 0.0000 0.0000 0.0000 15.4540
#
#
#
# Elastic Compliance Matrix: (Units=1/GPa)
#
#
# Indices 1 2 3 4 5 6 
#
# 1 0.010531 -0.001870 -0.000565 0.000000 0.000000 0.000000
# 2 -0.001870 0.009309 -0.002467 0.000000 0.000000 0.000000
# 3 -0.000565 -0.002467 0.005333 0.000000 0.000000 0.000000
# 4 0.000000 0.000000 0.000000 0.017771 0.000000 0.000000
# 5 0.000000 0.000000 0.000000 0.000000 -1.318038 0.000000
# 6 0.000000 0.000000 0.000000 0.000000 0.000000 0.064708
#
#
# Mechanical properties :
#
#
# Convention : Reuss Voigt Hill
#
# Bulk Modulus (GPa) = 65.06823 74.73931 69.90377
# Shear Modulus (GPa) = -4.18250 36.67829 16.24790
#
# Velocity S-wave (km/s) = -1.33412 3.95078 2.62952
# Velocity P-wave (km/s) = 5.03160 7.25379 6.24237
#
# Compressibility (1/GPa) = 0.01536848
#
# Stress axis : x y z
#
# Youngs Moduli (GPa) = 94.95401 107.42774 187.51229
#
# Poissons Ratio (x) = 0.20091 0.10588
# Poissons Ratio (y) = 0.17758 0.46266
# Poissons Ratio (z) = 0.05362 0.26506
#
# Static dielectric constant tensor:
#      x y z
#    x 2.103450 0.000000 0.000000 
#    y 0.000000 1.932830 0.000000 
#    z 0.000000 0.000000 1.979870 
# 
# From -- ./inp_files/4725.got.cif
#   From: 2010.05.17/outbox.cif.g08.bks.cpg/sg68_3_cif.got.tgz:4725.got - 2010.06.03 18:57:09.
