data_PCOD9505912
_publ_section_title
;
Structure prediction by ZEFSAII (Michael W. Deem and Ramdas Pophale) SiO2 
 PCOD9505912
Probable space group: C C C A
;
_chemical_formula_sum "Si O2"
_cell_formula_units_Z 80
_cell_length_a 14.818650
_cell_length_b 16.821914
_cell_length_c 16.188762
_cell_angle_alpha 90.000000
_cell_angle_beta 90.000000
_cell_angle_gamma 90.000000
_cell_volume 4035.503119
_symmetry_space_group_name_H-M "C C C A"
_symmetry_group_IT_number 68
_space_group.IT_coordinate_system_code '2'
_symmetry_cell_setting 'orthorhombic'
loop_
_space_group_symop_operation_xyz
x,y,z
-x,1/2-y,z
x,1/2-y,1/2-z
-x,y,1/2-z
-x,-y,-z
x,1/2+y,-z
-x,1/2+y,1/2+z
x,-y,1/2+z
1/2+x,1/2+y,z
1/2-x,-y,z
1/2+x,-y,1/2-z
1/2-x,1/2+y,1/2-z
1/2-x,1/2-y,-z
1/2+x,y,-z
1/2-x,y,1/2+z
1/2+x,1/2-y,1/2+z
loop_
_atom_site_type_symbol
_atom_site_label
_atom_site_fract_x
_atom_site_fract_y
_atom_site_fract_z
Si Si1 0.564392 0.616750 0.827244
Si Si2 0.740659 0.312166 0.372120
Si Si3 0.143852 0.203401 0.044358
Si Si4 0.843550 0.463450 0.397439
Si Si5 0.530917 0.637368 0.498350
O O1 0.500000 0.619932 0.750000
O O2 0.649165 0.677050 0.821795
O O3 0.609238 0.530054 0.841791
O O4 0.506176 0.635042 0.909141
O O5 0.793542 0.229118 0.379216
O O6 0.704988 0.324510 0.467446
O O7 0.810915 0.382588 0.352236
O O8 0.093427 0.285022 0.015407
O O9 0.059918 0.145108 0.057091
O O10 0.750000 0.500000 0.429604
O O11 0.910699 0.437013 0.469545
#
# Coordination Sequence:
#
# PCOD9505912 Si02
#       5
#    16  16  16  16  16
#     4  10  19  30  45  67  99 133 161 195 249 311
#     4   8  15  29  48  67  91 121 156 199 246 293
#     4   8  14  27  50  75  92 112 156 210 255 296
#     4   9  17  30  48  67  91 126 167 207 245 289
#     4   9  16  28  48  74  95 119 162 212 252 296
#
# _framework density 19.824045999999999
#
# number of rings (size 3 to 8) (size 9 to 14) (size 15 to 20)
#    0.000    3.200    0.000    0.600    0.000    0.000 
#    0.000   11.000    0.000    2.400    0.000    9.800 
#    0.000    0.000    0.000    0.000    0.000    0.000 
#
# Total GULP energy -222771.385717 kJ/mol
# GULP energy per Si atom -5569.284643 kJ/mol
# Density = 1.977893 g / cm^3
# Si number density = 19.824046 Si / 1000 Ang^3
#
#
#
# Elastic Constant Matrix: (Units=GPa)
#
#
# Indices 1 2 3 4 5 6 
#
# 1 146.3692 35.6678 57.4073 0.0000 0.0000 0.0000
# 2 35.6678 49.1080 27.9008 0.0000 0.0000 0.0000
# 3 57.4073 27.9008 49.8280 0.0000 0.0000 0.0000
# 4 0.0000 0.0000 0.0000 12.2481 0.0000 0.0000
# 5 0.0000 0.0000 0.0000 0.0000 32.3711 0.0000
# 6 0.0000 0.0000 0.0000 0.0000 0.0000 25.0727
#
#
#
# Elastic Compliance Matrix: (Units=1/GPa)
#
#
# Indices 1 2 3 4 5 6 
#
# 1 0.012522 -0.001317 -0.013689 0.000000 0.000000 0.000000
# 2 -0.001317 0.030003 -0.015282 0.000000 0.000000 0.000000
# 3 -0.013689 -0.015282 0.044397 0.000000 0.000000 0.000000
# 4 0.000000 0.000000 0.000000 0.081645 0.000000 0.000000
# 5 0.000000 0.000000 0.000000 0.000000 0.030892 0.000000
# 6 0.000000 0.000000 0.000000 0.000000 0.000000 0.039884
#
#
# Mechanical properties :
#
#
# Convention : Reuss Voigt Hill
#
# Bulk Modulus (GPa) = 37.95762 54.13967 46.04865
# Shear Modulus (GPa) = 16.19687 22.22699 19.21193
#
# Velocity S-wave (km/s) = 2.86148 3.35209 3.11645
# Velocity P-wave (km/s) = 5.48691 6.50779 6.01904
#
# Compressibility (1/GPa) = 0.02634517
#
# Stress axis : x y z
#
# Youngs Moduli (GPa) = 79.85897 33.33041 22.52385
#
# Poissons Ratio (x) = 0.04391 0.30833
# Poissons Ratio (y) = 0.10521 0.34421
# Poissons Ratio (z) = 1.09320 0.50935
#
# Static dielectric constant tensor:
#      x y z
#    x 1.749760 0.000000 0.000000 
#    y 0.000000 1.799250 0.000000 
#    z 0.000000 0.000000 1.666090 
# 
# From -- ./inp_files/30833.got.cif
#   From: 2010.05.17/outbox.cif.g08.bks.cpg/sg68_16_cif.got.tgz:30833.got - 2010.06.03 18:57:09.
