data_PCOD9505296
_publ_section_title
;
Structure prediction by ZEFSAII (Michael W. Deem and Ramdas Pophale) SiO2 
 PCOD9505296
Probable space group: C C C A
;
_chemical_formula_sum "Si O2"
_cell_formula_units_Z 80
_cell_length_a 12.179785
_cell_length_b 19.083734
_cell_length_c 15.132715
_cell_angle_alpha 90.000000
_cell_angle_beta 90.000000
_cell_angle_gamma 90.000000
_cell_volume 3517.384371
_symmetry_space_group_name_H-M "C C C A"
_symmetry_group_IT_number 68
_space_group.IT_coordinate_system_code '2'
_symmetry_cell_setting 'orthorhombic'
loop_
_space_group_symop_operation_xyz
x,y,z
-x,1/2-y,z
x,1/2-y,1/2-z
-x,y,1/2-z
-x,-y,-z
x,1/2+y,-z
-x,1/2+y,1/2+z
x,-y,1/2+z
1/2+x,1/2+y,z
1/2-x,-y,z
1/2+x,-y,1/2-z
1/2-x,1/2+y,1/2-z
1/2-x,1/2-y,-z
1/2+x,y,-z
1/2-x,y,1/2+z
1/2+x,1/2-y,1/2+z
loop_
_atom_site_type_symbol
_atom_site_label
_atom_site_fract_x
_atom_site_fract_y
_atom_site_fract_z
Si Si1 0.510870 0.639373 0.892975
Si Si2 0.097252 0.162636 0.321095
Si Si3 0.250000 0.500000 0.831502
Si Si4 0.500000 0.750000 0.037858
Si Si5 0.490947 0.019015 0.643457
Si Si6 0.323539 0.144066 0.235495
O O1 0.518952 0.554983 0.902805
O O2 0.389096 0.658756 0.855184
O O3 0.593549 0.658922 0.814678
O O4 0.536089 0.685544 0.977267
O O5 0.206809 0.171595 0.265111
O O6 0.000000 0.169618 0.250000
O O7 0.092093 0.219858 0.397348
O O8 0.069814 0.086614 0.367308
O O9 0.360500 0.469601 0.878086
O O10 0.297261 0.561867 0.772711
O O11 0.500000 0.007284 0.750000
#
# Coordination Sequence:
#
# PCOD9505296 Si02
#       6
#    16  16   8   8  16  16
#     4  10  22  42  65 103 131 171 220 279 335 393
#     4  11  23  45  69  95 130 181 225 272 330 406
#     4  10  14  32  66 106 120 154 234 278 318 380
#     4  12  29  47  56 100 152 174 224 271 339 400
#     4  10  17  35  70  99 122 168 226 278 323 394
#     4  10  18  39  72  95 127 176 222 270 331 403
#
# _framework density 22.744174000000001
#
# number of rings (size 3 to 8) (size 9 to 14) (size 15 to 20)
#    0.000    1.600    8.000    0.300    0.000    3.200 
#   10.800    0.000    0.000    1.200    0.000    0.000 
#    0.000    0.000    0.000    0.000    0.000    0.000 
#
# Total GULP energy -223061.760532 kJ/mol
# GULP energy per Si atom -5576.544013 kJ/mol
# Density = 2.269241 g / cm^3
# Si number density = 22.744174 Si / 1000 Ang^3
#
#
#
# Elastic Constant Matrix: (Units=GPa)
#
#
# Indices 1 2 3 4 5 6 
#
# 1 142.0989 29.3257 17.9249 0.0000 0.0000 0.0000
# 2 29.3257 140.0455 53.7629 0.0000 0.0000 0.0000
# 3 17.9249 53.7629 68.3550 0.0000 0.0000 0.0000
# 4 0.0000 0.0000 0.0000 33.4910 0.0000 0.0000
# 5 0.0000 0.0000 0.0000 0.0000 14.5254 0.0000
# 6 0.0000 0.0000 0.0000 0.0000 0.0000 -368.0359
#
#
#
# Elastic Compliance Matrix: (Units=1/GPa)
#
#
# Indices 1 2 3 4 5 6 
#
# 1 0.007406 -0.001154 -0.001035 0.000000 0.000000 0.000000
# 2 -0.001154 0.010409 -0.007884 0.000000 0.000000 0.000000
# 3 -0.001035 -0.007884 0.021102 0.000000 0.000000 0.000000
# 4 0.000000 0.000000 0.000000 0.029859 0.000000 0.000000
# 5 0.000000 0.000000 0.000000 0.000000 0.068845 0.000000
# 6 0.000000 0.000000 0.000000 0.000000 0.000000 -0.002717
#
#
# Mechanical properties :
#
#
# Convention : Reuss Voigt Hill
#
# Bulk Modulus (GPa) = 53.27210 61.39183 57.33196
# Shear Modulus (GPa) = 30.99698 -47.37151 -8.18727
#
# Velocity S-wave (km/s) = 3.69569 -4.56872 -1.89935
# Velocity P-wave (km/s) = 6.45631 0.88317 4.52239
#
# Compressibility (1/GPa) = 0.01877155
#
# Stress axis : x y z
#
# Youngs Moduli (GPa) = 135.02653 96.07206 47.38874
#
# Poissons Ratio (x) = 0.11083 0.04904
# Poissons Ratio (y) = 0.15576 0.37363
# Poissons Ratio (z) = 0.13972 0.75746
#
# Static dielectric constant tensor:
#      x y z
#    x 1.923680 0.000000 0.000000 
#    y 0.000000 1.972780 0.000000 
#    z 0.000000 0.000000 1.870080 
# 
# From -- ./inp_files/29572.got.cif
#   From: 2010.05.17/outbox.cif.g08.bks.cpg/sg68_15_cif.got.tgz:29572.got - 2010.06.03 18:57:09.
