data_PCOD9505675
_publ_section_title
;
Structure prediction by ZEFSAII (Michael W. Deem and Ramdas Pophale) SiO2 
 PCOD9505675
Probable space group: C C C A
;
_chemical_formula_sum "Si O2"
_cell_formula_units_Z 88
_cell_length_a 18.470834
_cell_length_b 14.629731
_cell_length_c 17.762561
_cell_angle_alpha 90.000000
_cell_angle_beta 90.000000
_cell_angle_gamma 90.000000
_cell_volume 4799.858432
_symmetry_space_group_name_H-M "C C C A"
_symmetry_group_IT_number 68
_space_group.IT_coordinate_system_code '2'
_symmetry_cell_setting 'orthorhombic'
loop_
_space_group_symop_operation_xyz
x,y,z
-x,1/2-y,z
x,1/2-y,1/2-z
-x,y,1/2-z
-x,-y,-z
x,1/2+y,-z
-x,1/2+y,1/2+z
x,-y,1/2+z
1/2+x,1/2+y,z
1/2-x,-y,z
1/2+x,-y,1/2-z
1/2-x,1/2+y,1/2-z
1/2-x,1/2-y,-z
1/2+x,y,-z
1/2-x,y,1/2+z
1/2+x,1/2-y,1/2+z
loop_
_atom_site_type_symbol
_atom_site_label
_atom_site_fract_x
_atom_site_fract_y
_atom_site_fract_z
Si Si1 0.837696 0.000636 0.910012
Si Si2 0.080775 0.713910 0.644788
Si Si3 0.139484 0.386324 0.274739
Si Si4 0.690261 0.877364 0.549814
Si Si5 0.750000 0.000000 0.179734
Si Si6 0.650705 0.680920 0.512829
O O1 0.877101 0.960656 0.837671
O O2 0.750000 0.000000 0.895780
O O3 0.866143 0.100002 0.930352
O O4 0.845721 0.935880 0.982953
O O5 0.136981 0.791846 0.676213
O O6 0.086911 0.633101 0.705235
O O7 0.101244 0.687644 0.560694
O O8 0.000000 0.750000 0.647840
O O9 0.210326 0.425127 0.232089
O O10 0.698935 0.941162 0.623008
O O11 0.653453 0.778470 0.554107
O O12 0.771100 0.850264 0.521103
#
# Coordination Sequence:
#
# PCOD9505675 Si02
#       6
#    16  16  16  16   8  16
#     4  10  18  32  54  84 117 141 183 244 301 347
#     4  11  23  40  60  80 118 161 203 238 280 353
#     4  11  21  34  54  87 113 153 188 245 295 351
#     4  10  18  32  52  82 113 150 183 249 298 345
#     4  12  20  32  56  84 126 142 194 246 310 366
#     4  10  19  33  58  78 110 153 193 237 298 337
#
# _framework density 18.333874000000002
#
# number of rings (size 3 to 8) (size 9 to 14) (size 15 to 20)
#    0.000    1.455    7.273    1.091    0.000    0.000 
#    0.000    0.909    4.000    0.000    0.000    0.000 
#    0.000    0.000    0.000    0.000    0.000    0.000 
#
# Total GULP energy -245044.234270 kJ/mol
# GULP energy per Si atom -5569.187142 kJ/mol
# Density = 1.829215 g / cm^3
# Si number density = 18.333874 Si / 1000 Ang^3
#
#
#
# Elastic Constant Matrix: (Units=GPa)
#
#
# Indices 1 2 3 4 5 6 
#
# 1 34.0736 26.8236 28.3405 0.0000 0.0000 0.0000
# 2 26.8236 133.6716 70.8637 0.0000 0.0000 0.0000
# 3 28.3405 70.8637 126.0650 0.0000 0.0000 0.0000
# 4 0.0000 0.0000 0.0000 28.8345 0.0000 0.0000
# 5 0.0000 0.0000 0.0000 0.0000 5.2282 0.0000
# 6 0.0000 0.0000 0.0000 0.0000 0.0000 13.9103
#
#
#
# Elastic Compliance Matrix: (Units=1/GPa)
#
#
# Indices 1 2 3 4 5 6 
#
# 1 0.037824 -0.004391 -0.006035 0.000000 0.000000 0.000000
# 2 -0.004391 0.011166 -0.005290 0.000000 0.000000 0.000000
# 3 -0.006035 -0.005290 0.012263 0.000000 0.000000 0.000000
# 4 0.000000 0.000000 0.000000 0.034681 0.000000 0.000000
# 5 0.000000 0.000000 0.000000 0.000000 0.191272 0.000000
# 6 0.000000 0.000000 0.000000 0.000000 0.000000 0.071889
#
#
# Mechanical properties :
#
#
# Convention : Reuss Voigt Hill
#
# Bulk Modulus (GPa) = 33.53212 60.65175 47.09194
# Shear Modulus (GPa) = 12.48543 20.78010 16.63276
#
# Velocity S-wave (km/s) = 2.61243 3.37029 3.01527
# Velocity P-wave (km/s) = 5.23729 6.94973 6.15337
#
# Compressibility (1/GPa) = 0.02982216
#
# Stress axis : x y z
#
# Youngs Moduli (GPa) = 26.43799 89.55456 81.54838
#
# Poissons Ratio (x) = 0.39321 0.49216
# Poissons Ratio (y) = 0.11608 0.43137
# Poissons Ratio (z) = 0.15956 0.47372
#
# Static dielectric constant tensor:
#      x y z
#    x 1.681470 0.000000 0.000000 
#    y 0.000000 1.700800 0.000000 
#    z 0.000000 0.000000 1.630520 
# 
# From -- ./inp_files/22274.got.cif
#   From: 2010.05.17/outbox.cif.g08.bks.cpg/sg68_12_cif.got.tgz:22274.got - 2010.06.03 18:57:09.
