data_PCOD9505220
_publ_section_title
;
Structure prediction by ZEFSAII (Michael W. Deem and Ramdas Pophale) SiO2 
 PCOD9505220
Probable space group: C M M A
;
_chemical_formula_sum "Si O2"
_cell_formula_units_Z 40
_cell_length_a 18.000000
_cell_length_b 9.000000
_cell_length_c 27.000000
_cell_angle_alpha 90.000000
_cell_angle_beta 90.000000
_cell_angle_gamma 90.000000
_cell_volume 4374.000000
_symmetry_space_group_name_H-M "C M M A"
_symmetry_group_IT_number 67
_symmetry_cell_setting 'orthorhombic'
loop_
_space_group_symop_operation_xyz
x,y,z
-x,1/2-y,z
x,-y,-z
-x,1/2+y,-z
-x,-y,-z
x,1/2+y,-z
-x,y,z
x,1/2-y,z
1/2+x,1/2+y,z
1/2-x,-y,z
1/2+x,1/2-y,-z
1/2-x,y,-z
1/2-x,1/2-y,-z
1/2+x,y,-z
1/2-x,1/2+y,z
1/2+x,-y,z
loop_
_atom_site_type_symbol
_atom_site_label
_atom_site_fract_x
_atom_site_fract_y
_atom_site_fract_z
Si Si1 0.089677 0.575975 0.341239
Si Si2 0.086313 0.572186 0.049764
Si Si3 0.668530 0.070978 0.151058
Si Si4 0.911771 0.427518 0.549399
Si Si5 0.831637 0.927106 0.749398
O O1 0.109971 0.750000 0.333406
O O2 0.116791 0.529379 0.396192
O O3 0.122211 0.475307 0.298323
O O4 0.000000 0.569598 0.341097
O O5 0.089590 0.750000 0.044617
O O6 0.125873 0.532658 0.100819
O O7 0.000000 0.527209 0.053282
O O8 0.118512 0.500000 0.000000
O O9 0.672099 0.250000 0.155999
O O10 0.750000 0.000000 0.147186
O O11 0.634639 0.999534 0.200691
O O12 0.879084 0.500000 0.500000
O O13 0.905993 0.250000 0.545763
O O14 0.000000 0.464468 0.550147
O O15 0.825905 0.750000 0.754288
O O16 0.750000 0.000000 0.744289
#
# Coordination Sequence:
#
# PCOD9505220 Si02
#       5
#    16  16  16  16  16
#     4   9  18  33  52  75 104 136 169 207 253 303
#     4   9  19  35  54  76 102 133 166 200 243 293
#     4  10  20  35  54  75 100 131 168 207 249 298
#     4   8  14  25  43  68  98 131 164 200 245 295
#     4  11  22  36  54  75 101 134 172 212 257 305
#
# _framework density 9.1449470000000002
#
# number of rings (size 3 to 8) (size 9 to 14) (size 15 to 20)
#    0.000    2.600    0.000    4.800    0.000    4.000 
#    0.000    6.000    0.000    0.600    0.000    4.200 
#    0.000    0.000    0.000    0.000    0.000    0.000 
#
# Total GULP energy -222934.188359 kJ/mol
# GULP energy per Si atom -5573.354709 kJ/mol
# Density = 0.912413 g / cm^3
# Si number density = 9.144947 Si / 1000 Ang^3
#
#
#
# Elastic Constant Matrix: (Units=GPa)
#
#
# Indices 1 2 3 4 5 6 
#
# 1 14.1325 15.9984 36.3984 0.0000 0.0000 0.0000
# 2 15.9984 70.6577 67.1741 0.0000 0.0000 0.0000
# 3 36.3984 67.1741 198.5625 0.0000 0.0000 0.0000
# 4 0.0000 0.0000 0.0000 37.0255 0.0000 0.0000
# 5 0.0000 0.0000 0.0000 0.0000 43.8082 0.0000
# 6 0.0000 0.0000 0.0000 0.0000 0.0000 21.0203
#
#
#
# Elastic Compliance Matrix: (Units=1/GPa)
#
#
# Indices 1 2 3 4 5 6 
#
# 1 0.139333 -0.010711 -0.021918 0.000000 0.000000 0.000000
# 2 -0.010711 0.021686 -0.005373 0.000000 0.000000 0.000000
# 3 -0.021918 -0.005373 0.010872 0.000000 0.000000 0.000000
# 4 0.000000 0.000000 0.000000 0.027008 0.000000 0.000000
# 5 0.000000 0.000000 0.000000 0.000000 0.022827 0.000000
# 6 0.000000 0.000000 0.000000 0.000000 0.000000 0.047573
#
#
# Mechanical properties :
#
#
# Convention : Reuss Voigt Hill
#
# Bulk Modulus (GPa) = 10.42888 58.05493 34.24190
# Shear Modulus (GPa) = 13.25331 31.28961 22.27146
#
# Velocity S-wave (km/s) = 2.69481 4.14062 3.49333
# Velocity P-wave (km/s) = 3.92390 7.39392 5.91891
#
# Compressibility (1/GPa) = 0.09588762
#
# Stress axis : x y z
#
# Youngs Moduli (GPa) = 7.17705 46.11273 91.98286
#
# Poissons Ratio (x) = 0.49391 2.01604
# Poissons Ratio (y) = 0.07687 0.49422
# Poissons Ratio (z) = 0.15730 0.24776
#
# Static dielectric constant tensor:
#      x y z
#    x 1.629950 0.000000 0.000000 
#    y 0.000000 1.609680 0.000000 
#    z 0.000000 0.000000 1.670840 
# 
# From -- ./inp_files/43324.got.cif
#   From: 2010.05.17/outbox.ucp.g08.bks.cvg/sg67_22_cif.got.tgz:43324.got - 2010.06.11 16:47:20.
