data_PCOD9505580
_publ_section_title
;
Structure prediction by ZEFSAII (Michael W. Deem and Ramdas Pophale) SiO2 
 PCOD9505580
Probable space group: C C C A
;
_chemical_formula_sum "Si O2"
_cell_formula_units_Z 72
_cell_length_a 22.910343
_cell_length_b 18.370112
_cell_length_c 9.020768
_cell_angle_alpha 90.000000
_cell_angle_beta 90.000000
_cell_angle_gamma 90.000000
_cell_volume 3796.530638
_symmetry_space_group_name_H-M "C C C A"
_symmetry_group_IT_number 68
_space_group.IT_coordinate_system_code '2'
_symmetry_cell_setting 'orthorhombic'
loop_
_space_group_symop_operation_xyz
x,y,z
-x,1/2-y,z
x,1/2-y,1/2-z
-x,y,1/2-z
-x,-y,-z
x,1/2+y,-z
-x,1/2+y,1/2+z
x,-y,1/2+z
1/2+x,1/2+y,z
1/2-x,-y,z
1/2+x,-y,1/2-z
1/2-x,1/2+y,1/2-z
1/2-x,1/2-y,-z
1/2+x,y,-z
1/2-x,y,1/2+z
1/2+x,1/2-y,1/2+z
loop_
_atom_site_type_symbol
_atom_site_label
_atom_site_fract_x
_atom_site_fract_y
_atom_site_fract_z
Si Si1 0.668624 0.817390 0.641963
Si Si2 0.210609 0.600308 0.635810
Si Si3 0.250000 0.500000 0.393487
Si Si4 0.609427 0.783150 0.099151
Si Si5 0.559763 0.833852 0.808847
O O1 0.685351 0.750000 0.750000
O O2 0.726684 0.861406 0.611550
O O3 0.639529 0.781426 0.497267
O O4 0.619157 0.862244 0.732589
O O5 0.206300 0.544110 0.499915
O O6 0.216016 0.555271 0.786775
O O7 0.160463 0.659942 0.637456
O O8 0.584240 0.750000 0.250000
O O9 0.566287 0.824309 0.984882
O O10 0.559300 0.750000 0.750000
O O11 0.500000 0.868038 0.750000
#
# Coordination Sequence:
#
# PCOD9505580 Si02
#       5
#    16  16   8  16  16
#     4   9  17  29  49  71  98 134 159 200 246 288
#     4  11  19  32  45  72 101 130 171 199 245 296
#     4  10  22  30  44  64 102 144 162 200 242 286
#     4  10  18  28  50  77  98 123 159 210 248 284
#     4   8  16  31  46  68 102 137 159 181 240 308
#
# _framework density 18.964683000000001
#
# number of rings (size 3 to 8) (size 9 to 14) (size 15 to 20)
#    0.000    2.889    0.000    5.333    0.000    0.000 
#    0.000    8.889    0.000    0.000    0.000   24.889 
#    0.000    0.000    0.000   13.778    0.000    0.000 
#
# Total GULP energy -200681.537071 kJ/mol
# GULP energy per Si atom -5574.487141 kJ/mol
# Density = 1.892152 g / cm^3
# Si number density = 18.964683 Si / 1000 Ang^3
#
#
#
# Elastic Constant Matrix: (Units=GPa)
#
#
# Indices 1 2 3 4 5 6 
#
# 1 70.2008 13.1871 20.8340 0.0000 0.0000 0.0000
# 2 13.1871 27.8860 24.6282 0.0000 0.0000 0.0000
# 3 20.8340 24.6282 138.2258 0.0000 0.0000 0.0000
# 4 0.0000 0.0000 0.0000 25.8020 0.0000 0.0000
# 5 0.0000 0.0000 0.0000 0.0000 10.0903 0.0000
# 6 0.0000 0.0000 0.0000 0.0000 0.0000 -2.3691
#
#
#
# Elastic Compliance Matrix: (Units=1/GPa)
#
#
# Indices 1 2 3 4 5 6 
#
# 1 0.015813 -0.006376 -0.001247 0.000000 0.000000 0.000000
# 2 -0.006376 0.045128 -0.007080 0.000000 0.000000 0.000000
# 3 -0.001247 -0.007080 0.008684 0.000000 0.000000 0.000000
# 4 0.000000 0.000000 0.000000 0.038757 0.000000 0.000000
# 5 0.000000 0.000000 0.000000 0.000000 0.099105 0.000000
# 6 0.000000 0.000000 0.000000 0.000000 0.000000 -0.422093
#
#
# Mechanical properties :
#
#
# Convention : Reuss Voigt Hill
#
# Bulk Modulus (GPa) = 24.86409 39.29016 32.07712
# Shear Modulus (GPa) = -29.10464 18.54884 -5.27790
#
# Velocity S-wave (km/s) = -3.92174 3.13081 -1.67005
# Velocity P-wave (km/s) = 2.71433 5.81651 3.63760
#
# Compressibility (1/GPa) = 0.04021865
#
# Stress axis : x y z
#
# Youngs Moduli (GPa) = 63.24003 22.15915 115.15509
#
# Poissons Ratio (x) = 0.14129 0.14363
# Poissons Ratio (y) = 0.40323 0.81525
# Poissons Ratio (z) = 0.07888 0.15688
#
# Static dielectric constant tensor:
#      x y z
#    x 1.715110 0.000000 0.000000 
#    y 0.000000 1.667860 0.000000 
#    z 0.000000 0.000000 1.707320 
# 
# From -- ./inp_files/7921.got.cif
#   From: 2010.05.17/outbox.cif.g08.bks.cpg/sg68_4_cif.got.tgz:7921.got - 2010.06.03 18:57:09.
