data_PCOD9505320
_publ_section_title
;
Structure prediction by ZEFSAII (Michael W. Deem and Ramdas Pophale) SiO2 
 PCOD9505320
Probable space group: C C C A
;
_chemical_formula_sum "Si O2"
_cell_formula_units_Z 64
_cell_length_a 13.778487
_cell_length_b 35.190586
_cell_length_c 5.400201
_cell_angle_alpha 90.000000
_cell_angle_beta 90.000000
_cell_angle_gamma 90.000000
_cell_volume 2618.411831
_symmetry_space_group_name_H-M "C C C A"
_symmetry_group_IT_number 68
_space_group.IT_coordinate_system_code '2'
_symmetry_cell_setting 'orthorhombic'
loop_
_space_group_symop_operation_xyz
x,y,z
-x,1/2-y,z
x,1/2-y,1/2-z
-x,y,1/2-z
-x,-y,-z
x,1/2+y,-z
-x,1/2+y,1/2+z
x,-y,1/2+z
1/2+x,1/2+y,z
1/2-x,-y,z
1/2+x,-y,1/2-z
1/2-x,1/2+y,1/2-z
1/2-x,1/2-y,-z
1/2+x,y,-z
1/2-x,y,1/2+z
1/2+x,1/2-y,1/2+z
loop_
_atom_site_type_symbol
_atom_site_label
_atom_site_fract_x
_atom_site_fract_y
_atom_site_fract_z
Si Si1 0.686654 0.092109 0.775989
Si Si2 0.635302 0.176840 0.846117
Si Si3 0.608936 0.014271 0.944846
Si Si4 0.642469 0.793179 0.843103
O O1 0.737433 0.091030 0.506840
O O2 0.632713 0.132424 0.788277
O O3 0.618938 0.056057 0.831323
O O4 0.598158 0.200977 0.613665
O O5 0.748498 0.189984 0.872386
O O6 0.594737 0.184467 0.117130
O O7 0.651542 0.012207 0.224314
O O8 0.500000 0.000000 0.000000
O O9 0.647329 0.750000 0.750000
#
# Coordination Sequence:
#
# PCOD9505320 Si02
#       4
#    16  16  16  16
#     4  12  21  34  55  80 111 141 181 241 282 329
#     4  10  16  27  38  66 100 135 184 213 262 310
#     4  10  23  42  59  77 104 142 183 232 288 348
#     4  10  16  25  41  61  99 151 185 204 252 318
#
# _framework density 24.442295000000001
#
# number of rings (size 3 to 8) (size 9 to 14) (size 15 to 20)
#    0.000    1.500    5.000    5.250    0.000    3.000 
#    0.000    0.000    0.000    0.000    0.000    0.000 
#    0.000    0.000    0.000  108.000    4.000    2.000 
#
# Total GULP energy -178791.888602 kJ/mol
# GULP energy per Si atom -5587.246519 kJ/mol
# Density = 2.438666 g / cm^3
# Si number density = 24.442295 Si / 1000 Ang^3
#
#
#
# Elastic Constant Matrix: (Units=GPa)
#
#
# Indices 1 2 3 4 5 6 
#
# 1 80.8557 -3.6934 17.7678 0.0000 0.0000 0.0000
# 2 -3.6934 154.2492 12.0683 0.0000 0.0000 0.0000
# 3 17.7678 12.0683 225.1231 0.0000 0.0000 0.0000
# 4 0.0000 0.0000 0.0000 48.2383 0.0000 0.0000
# 5 0.0000 0.0000 0.0000 0.0000 28.8962 0.0000
# 6 0.0000 0.0000 0.0000 0.0000 0.0000 -55.9088
#
#
#
# Elastic Compliance Matrix: (Units=1/GPa)
#
#
# Indices 1 2 3 4 5 6 
#
# 1 0.012608 0.000381 -0.001016 0.000000 0.000000 0.000000
# 2 0.000381 0.006522 -0.000380 0.000000 0.000000 0.000000
# 3 -0.001016 -0.000380 0.004543 0.000000 0.000000 0.000000
# 4 0.000000 0.000000 0.000000 0.020730 0.000000 0.000000
# 5 0.000000 0.000000 0.000000 0.000000 0.034607 0.000000
# 6 0.000000 0.000000 0.000000 0.000000 0.000000 -0.017886
#
#
# Mechanical properties :
#
#
# Convention : Reuss Voigt Hill
#
# Bulk Modulus (GPa) = 46.20037 56.94591 51.57314
# Shear Modulus (GPa) = 71.05680 33.18416 52.12048
#
# Velocity S-wave (km/s) = 5.39763 3.68863 4.62279
# Velocity P-wave (km/s) = 7.60189 6.44127 7.04552
#
# Compressibility (1/GPa) = 0.02164485
#
# Stress axis : x y z
#
# Youngs Moduli (GPa) = 79.31283 153.33055 220.14202
#
# Poissons Ratio (x) = -0.05847 0.22357
# Poissons Ratio (y) = -0.03025 0.08359
# Poissons Ratio (z) = 0.08055 0.05822
#
# Static dielectric constant tensor:
#      x y z
#    x 1.943910 0.000000 0.000000 
#    y 0.000000 1.898030 0.000000 
#    z 0.000000 0.000000 2.042590 
# 
# From -- ./inp_files/1116.got.cif
#   From: 2010.05.17/outbox.cif.g08.bks.cpg/sg68_1_cif.got.tgz:1116.got - 2010.06.03 18:57:09.
