data_PCOD9505081
_publ_section_title
;
Structure prediction by ZEFSAII (Michael W. Deem and Ramdas Pophale) SiO2 
 PCOD9505081
Probable space group: C M M A
;
_chemical_formula_sum "Si O2"
_cell_formula_units_Z 64
_cell_length_a 27.876755
_cell_length_b 10.123447
_cell_length_c 11.329174
_cell_angle_alpha 90.000000
_cell_angle_beta 90.000000
_cell_angle_gamma 90.000000
_cell_volume 3197.193186
_symmetry_space_group_name_H-M "C M M A"
_symmetry_group_IT_number 67
_symmetry_cell_setting 'orthorhombic'
loop_
_space_group_symop_operation_xyz
x,y,z
-x,1/2-y,z
x,-y,-z
-x,1/2+y,-z
-x,-y,-z
x,1/2+y,-z
-x,y,z
x,1/2-y,z
1/2+x,1/2+y,z
1/2-x,-y,z
1/2+x,1/2-y,-z
1/2-x,y,-z
1/2-x,1/2-y,-z
1/2+x,y,-z
1/2-x,1/2+y,z
1/2+x,-y,z
loop_
_atom_site_type_symbol
_atom_site_label
_atom_site_fract_x
_atom_site_fract_y
_atom_site_fract_z
Si Si1 0.104642 0.989272 0.640485
Si Si2 0.055894 0.250000 0.742104
Si Si3 0.706457 0.092340 0.751611
Si Si4 0.169513 0.000000 0.000000
Si Si5 0.555686 0.750000 0.233067
Si Si6 0.895928 0.750000 0.022533
O O1 0.157480 0.950382 0.686935
O O2 0.069940 0.875831 0.689725
O O3 0.104874 0.000000 0.500000
O O4 0.084154 0.124062 0.693274
O O5 0.061376 0.250000 0.883782
O O6 0.000000 0.250000 0.708092
O O7 0.714564 0.250000 0.737766
O O8 0.750000 0.000000 0.709054
O O9 0.698691 0.058359 0.890092
O O10 0.136039 0.120117 0.957115
O O11 0.500000 0.750000 0.202954
O O12 0.586258 0.750000 0.112258
#
# Coordination Sequence:
#
# PCOD9505081 Si02
#       6
#    16   8  16   8   8   8
#     4  12  26  47  69  98 143 187 232 283 337 410
#     4  12  26  42  71 109 137 179 237 285 341 406
#     4  12  27  46  71 104 137 181 230 286 355 414
#     4  12  21  42  71  96 142 182 221 282 353 414
#     4  12  24  46  73  99 139 187 229 287 353 408
#     4  12  21  42  71 102 138 180 223 286 355 408
#
# _framework density 20.017557
#
# number of rings (size 3 to 8) (size 9 to 14) (size 15 to 20)
#    0.000    0.000    7.500    2.250    3.500    4.500 
#    0.000    5.000    0.000    0.000    0.000    0.000 
#    0.000    0.000    0.000    0.000    0.000    0.000 
#
# Total GULP energy -179052.809063 kJ/mol
# GULP energy per Si atom -5595.400283 kJ/mol
# Density = 1.997200 g / cm^3
# Si number density = 20.017557 Si / 1000 Ang^3
#
#
#
# Elastic Constant Matrix: (Units=GPa)
#
#
# Indices 1 2 3 4 5 6 
#
# 1 102.1807 62.8548 1.8979 0.0000 0.0000 0.0000
# 2 62.8548 211.3164 31.8453 0.0000 0.0000 0.0000
# 3 1.8979 31.8453 112.6797 0.0000 0.0000 0.0000
# 4 0.0000 0.0000 0.0000 8.3860 0.0000 0.0000
# 5 0.0000 0.0000 0.0000 0.0000 3.9766 0.0000
# 6 0.0000 0.0000 0.0000 0.0000 0.0000 40.6316
#
#
#
# Elastic Compliance Matrix: (Units=1/GPa)
#
#
# Indices 1 2 3 4 5 6 
#
# 1 0.012055 -0.003713 0.000846 0.000000 0.000000 0.000000
# 2 -0.003713 0.006087 -0.001658 0.000000 0.000000 0.000000
# 3 0.000846 -0.001658 0.009329 0.000000 0.000000 0.000000
# 4 0.000000 0.000000 0.000000 0.119247 0.000000 0.000000
# 5 0.000000 0.000000 0.000000 0.000000 0.251470 0.000000
# 6 0.000000 0.000000 0.000000 0.000000 0.000000 0.024611
#
#
# Mechanical properties :
#
#
# Convention : Reuss Voigt Hill
#
# Bulk Modulus (GPa) = 54.28439 68.81920 61.55179
# Shear Modulus (GPa) = 11.41584 32.57077 21.99331
#
# Velocity S-wave (km/s) = 2.39067 4.03812 3.31826
# Velocity P-wave (km/s) = 5.89895 7.49640 6.74513
#
# Compressibility (1/GPa) = 0.01842150
#
# Stress axis : x y z
#
# Youngs Moduli (GPa) = 82.95317 164.29745 107.19348
#
# Poissons Ratio (x) = 0.61008 -0.09073
# Poissons Ratio (y) = 0.30802 0.17769
# Poissons Ratio (z) = -0.07021 0.27234
#
# Static dielectric constant tensor:
#      x y z
#    x 1.700540 0.000000 0.000000 
#    y 0.000000 1.674960 0.000000 
#    z 0.000000 0.000000 1.689230 
# 
# From -- ./inp_files/23435.got.cif
#   From: 2010.05.17/outbox.cif.g08.bks.cpg/sg67_12_cif.got.tgz:23435.got - 2010.06.03 18:28:57.
