data_PCOD9505967
_publ_section_title
;
Structure prediction by ZEFSAII (Michael W. Deem and Ramdas Pophale) SiO2 
 PCOD9505967
Probable space group: C C C A
;
_chemical_formula_sum "Si O2"
_cell_formula_units_Z 96
_cell_length_a 17.362178
_cell_length_b 10.262602
_cell_length_c 26.581865
_cell_angle_alpha 90.000000
_cell_angle_beta 90.000000
_cell_angle_gamma 90.000000
_cell_volume 4736.386548
_symmetry_space_group_name_H-M "C C C A"
_symmetry_group_IT_number 68
_space_group.IT_coordinate_system_code '2'
_symmetry_cell_setting 'orthorhombic'
loop_
_space_group_symop_operation_xyz
x,y,z
-x,1/2-y,z
x,1/2-y,1/2-z
-x,y,1/2-z
-x,-y,-z
x,1/2+y,-z
-x,1/2+y,1/2+z
x,-y,1/2+z
1/2+x,1/2+y,z
1/2-x,-y,z
1/2+x,-y,1/2-z
1/2-x,1/2+y,1/2-z
1/2-x,1/2-y,-z
1/2+x,y,-z
1/2-x,y,1/2+z
1/2+x,1/2-y,1/2+z
loop_
_atom_site_type_symbol
_atom_site_label
_atom_site_fract_x
_atom_site_fract_y
_atom_site_fract_z
Si Si1 0.759941 0.211714 0.646732
Si Si2 0.136964 0.497801 0.682093
Si Si3 0.452396 0.384885 0.975573
Si Si4 0.661293 0.378490 0.715542
Si Si5 0.709251 0.357043 0.466359
Si Si6 0.523426 0.598718 0.140886
O O1 0.689532 0.106551 0.653078
O O2 0.731338 0.335941 0.678765
O O3 0.782583 0.209363 0.588528
O O4 0.834111 0.145916 0.670948
O O5 0.160401 0.517231 0.740154
O O6 0.050973 0.521428 0.661801
O O7 0.500000 0.250000 0.978224
O O8 0.447294 0.421288 0.916215
O O9 0.500000 0.500000 0.000000
O O10 0.374303 0.373762 0.007915
O O11 0.643697 0.250000 0.750000
O O12 0.593124 0.417011 0.678825
O O13 0.750000 0.500000 0.464852
O O14 0.750000 0.250000 0.500000
O O15 0.500000 0.750000 0.143347
#
# Coordination Sequence:
#
# PCOD9505967 Si02
#       6
#    16  16  16  16  16  16
#     4  10  20  36  58  86 126 166 201 248 325 390
#     4  10  19  32  60  88 121 158 204 251 326 372
#     4  11  25  41  66  91 130 171 220 265 320 380
#     4  10  19  31  59  91 117 147 210 264 303 363
#     4  12  24  41  68  94 131 174 217 265 326 386
#     4  11  19  33  59  90 119 152 210 269 306 359
#
# _framework density 20.268616999999999
#
# number of rings (size 3 to 8) (size 9 to 14) (size 15 to 20)
#    0.000    1.333    5.000    3.500    2.333    0.000 
#    0.000    0.000   55.000    0.000    0.000    0.000 
#    0.000    0.000    0.000    0.000    0.000    0.000 
#
# Total GULP energy -267537.795905 kJ/mol
# GULP energy per Si atom -5573.704081 kJ/mol
# Density = 2.022248 g / cm^3
# Si number density = 20.268617 Si / 1000 Ang^3
#
#
#
# Elastic Constant Matrix: (Units=GPa)
#
#
# Indices 1 2 3 4 5 6 
#
# 1 134.0149 27.7930 95.0135 0.0000 0.0000 0.0000
# 2 27.7930 50.1728 56.7799 0.0000 0.0000 0.0000
# 3 95.0135 56.7799 235.5895 0.0000 0.0000 0.0000
# 4 0.0000 0.0000 0.0000 -4.7266 0.0000 0.0000
# 5 0.0000 0.0000 0.0000 0.0000 53.7846 0.0000
# 6 0.0000 0.0000 0.0000 0.0000 0.0000 35.6520
#
#
#
# Elastic Compliance Matrix: (Units=1/GPa)
#
#
# Indices 1 2 3 4 5 6 
#
# 1 0.010522 -0.001411 -0.003903 0.000000 0.000000 0.000000
# 2 -0.001411 0.027595 -0.006082 0.000000 0.000000 0.000000
# 3 -0.003903 -0.006082 0.007285 0.000000 0.000000 0.000000
# 4 0.000000 0.000000 0.000000 -0.211569 0.000000 0.000000
# 5 0.000000 0.000000 0.000000 0.000000 0.018593 0.000000
# 6 0.000000 0.000000 0.000000 0.000000 0.000000 0.028049
#
#
# Mechanical properties :
#
#
# Convention : Reuss Voigt Hill
#
# Bulk Modulus (GPa) = 44.22919 86.54999 65.38959
# Shear Modulus (GPa) = -56.05587 32.95473 -11.55057
#
# Velocity S-wave (km/s) = -5.26465 4.03662 -2.38979
# Velocity P-wave (km/s) = 3.88413 8.03243 4.97159
#
# Compressibility (1/GPa) = 0.02260950
#
# Stress axis : x y z
#
# Youngs Moduli (GPa) = 95.03963 36.23794 137.27436
#
# Poissons Ratio (x) = 0.05114 0.53584
# Poissons Ratio (y) = 0.13411 0.83486
# Poissons Ratio (z) = 0.37098 0.22039
#
# Static dielectric constant tensor:
#      x y z
#    x 0.089200 0.000000 0.000000 
#    y 0.000000 0.251880 0.000000 
#    z 0.000000 0.000000 1.895330 
# 
# From -- ./inp_files/45998.got.cif
#   From: 2010.05.17/outbox.cif.g08.bks.cpg/sg68_23_cif.got.tgz:45998.got - 2010.06.03 18:57:09.
