data_PCOD9505350
_publ_section_title
;
Structure prediction by ZEFSAII (Michael W. Deem and Ramdas Pophale) SiO2 
 PCOD9505350
Probable space group: C C C A
;
_chemical_formula_sum "Si O2"
_cell_formula_units_Z 84
_cell_length_a 23.923425
_cell_length_b 9.222788
_cell_length_c 15.695540
_cell_angle_alpha 90.000000
_cell_angle_beta 90.000000
_cell_angle_gamma 90.000000
_cell_volume 3463.074572
_symmetry_space_group_name_H-M "C C C A"
_symmetry_group_IT_number 68
_space_group.IT_coordinate_system_code '2'
_symmetry_cell_setting 'orthorhombic'
loop_
_space_group_symop_operation_xyz
x,y,z
-x,1/2-y,z
x,1/2-y,1/2-z
-x,y,1/2-z
-x,-y,-z
x,1/2+y,-z
-x,1/2+y,1/2+z
x,-y,1/2+z
1/2+x,1/2+y,z
1/2-x,-y,z
1/2+x,-y,1/2-z
1/2-x,1/2+y,1/2-z
1/2-x,1/2-y,-z
1/2+x,y,-z
1/2-x,y,1/2+z
1/2+x,1/2-y,1/2+z
loop_
_atom_site_type_symbol
_atom_site_label
_atom_site_fract_x
_atom_site_fract_y
_atom_site_fract_z
Si Si1 0.692820 0.426198 0.684082
Si Si2 0.333410 0.831821 0.422347
Si Si3 0.903478 0.402918 0.975426
Si Si4 0.500000 0.750000 0.631838
Si Si5 0.750000 0.500000 0.516117
Si Si6 0.926844 0.994866 0.834795
Si Si7 0.500000 0.250000 0.750000
O O1 0.750000 0.500000 0.722264
O O2 0.679498 0.255086 0.664948
O O3 0.701431 0.469686 0.583624
O O4 0.634179 0.496458 0.708491
O O5 0.366677 0.733142 0.490709
O O6 0.272747 0.874980 0.456934
O O7 0.368411 0.981527 0.419100
O O8 0.921509 0.480062 0.063207
O O9 0.957122 0.344574 0.925415
O O10 0.538841 0.638196 0.681708
O O11 0.960490 0.853956 0.804784
#
# Coordination Sequence:
#
# PCOD9505350 Si02
#       7
#    16  16  16   8   8  16   4
#     4   9  20  34  60  90 129 170 202 253 310 388
#     4  11  19  29  53  91 141 170 198 233 318 402
#     4  11  21  36  56  98 133 166 201 260 326 399
#     4  12  23  35  66  93 131 162 202 278 324 396
#     4  10  16  28  50  86 126 170 188 236 302 390
#     4  11  24  43  62  94 125 170 222 259 327 376
#     4  12  30  46  72  80 118 178 232 284 312 378
#
# _framework density 24.255903
#
# number of rings (size 3 to 8) (size 9 to 14) (size 15 to 20)
#    0.571    0.762    5.714    1.714    5.333    0.381 
#    0.000    0.000    0.000    2.286    2.476    0.000 
#    0.000    0.000    0.000    0.000    0.000    0.000 
#
# Total GULP energy -234417.113558 kJ/mol
# GULP energy per Si atom -5581.359847 kJ/mol
# Density = 2.420070 g / cm^3
# Si number density = 24.255903 Si / 1000 Ang^3
#
#
#
# Elastic Constant Matrix: (Units=GPa)
#
#
# Indices 1 2 3 4 5 6 
#
# 1 185.0064 74.5708 20.4807 0.0000 0.0000 0.0000
# 2 74.5708 128.2564 23.9137 0.0000 0.0000 0.0000
# 3 20.4807 23.9137 75.0533 0.0000 0.0000 0.0000
# 4 0.0000 0.0000 0.0000 -18.1256 0.0000 0.0000
# 5 0.0000 0.0000 0.0000 0.0000 -4.1918 0.0000
# 6 0.0000 0.0000 0.0000 0.0000 0.0000 64.1085
#
#
#
# Elastic Compliance Matrix: (Units=1/GPa)
#
#
# Indices 1 2 3 4 5 6 
#
# 1 0.007090 -0.003999 -0.000661 0.000000 0.000000 0.000000
# 2 -0.003999 0.010545 -0.002269 0.000000 0.000000 0.000000
# 3 -0.000661 -0.002269 0.014227 0.000000 0.000000 0.000000
# 4 0.000000 0.000000 0.000000 -0.055170 0.000000 0.000000
# 5 0.000000 0.000000 0.000000 0.000000 -0.238558 0.000000
# 6 0.000000 0.000000 0.000000 0.000000 0.000000 0.015599
#
#
# Mechanical properties :
#
#
# Convention : Reuss Voigt Hill
#
# Bulk Modulus (GPa) = 55.53846 69.58292 62.56069
# Shear Modulus (GPa) = -22.08391 26.31493 2.11551
#
# Velocity S-wave (km/s) = -3.02065 3.29734 0.93491
# Velocity P-wave (km/s) = 3.28342 6.57616 5.19744
#
# Compressibility (1/GPa) = 0.01800554
#
# Stress axis : x y z
#
# Youngs Moduli (GPa) = 141.03676 94.83038 70.28918
#
# Poissons Ratio (x) = 0.37926 0.04643
# Poissons Ratio (y) = 0.56405 0.15946
# Poissons Ratio (z) = 0.09316 0.21513
#
# Static dielectric constant tensor:
#      x y z
#    x 1.915410 0.000000 0.000000 
#    y 0.000000 2.064580 0.000000 
#    z 0.000000 0.000000 1.904640 
# 
# From -- ./inp_files/40716.got.cif
#   From: 2010.05.17/outbox.cif.g08.bks.cpg/sg68_21_cif.got.tgz:40716.got - 2010.06.03 18:57:09.
