data_PCOD9505909
_publ_section_title
;
Structure prediction by ZEFSAII (Michael W. Deem and Ramdas Pophale) SiO2 
 PCOD9505909
Probable space group: C C C A
;
_chemical_formula_sum "Si O2"
_cell_formula_units_Z 96
_cell_length_a 13.081413
_cell_length_b 19.030770
_cell_length_c 21.255609
_cell_angle_alpha 90.000000
_cell_angle_beta 90.000000
_cell_angle_gamma 90.000000
_cell_volume 5291.570301
_symmetry_space_group_name_H-M "C C C A"
_symmetry_group_IT_number 68
_space_group.IT_coordinate_system_code '2'
_symmetry_cell_setting 'orthorhombic'
loop_
_space_group_symop_operation_xyz
x,y,z
-x,1/2-y,z
x,1/2-y,1/2-z
-x,y,1/2-z
-x,-y,-z
x,1/2+y,-z
-x,1/2+y,1/2+z
x,-y,1/2+z
1/2+x,1/2+y,z
1/2-x,-y,z
1/2+x,-y,1/2-z
1/2-x,1/2+y,1/2-z
1/2-x,1/2-y,-z
1/2+x,y,-z
1/2-x,y,1/2+z
1/2+x,1/2-y,1/2+z
loop_
_atom_site_type_symbol
_atom_site_label
_atom_site_fract_x
_atom_site_fract_y
_atom_site_fract_z
Si Si1 0.184415 0.612118 0.243059
Si Si2 0.135725 0.182444 0.886855
Si Si3 0.420986 0.987416 0.586784
Si Si4 0.107031 0.962707 0.728019
Si Si5 0.608521 0.164395 0.376130
Si Si6 0.649703 0.455958 0.456057
O O1 0.178138 0.657284 0.180346
O O2 0.122994 0.538202 0.237430
O O3 0.298982 0.587143 0.256826
O O4 0.139639 0.651746 0.303696
O O5 0.159501 0.263811 0.899962
O O6 0.167556 0.125016 0.938173
O O7 0.013170 0.175460 0.880015
O O8 0.373865 0.908552 0.587309
O O9 0.544131 0.980594 0.578143
O O10 0.395329 0.020218 0.654055
O O11 0.374803 0.030608 0.529156
O O12 0.000000 0.932316 0.750000
O O13 0.750000 0.500000 0.437334
#
# Coordination Sequence:
#
# PCOD9505909 Si02
#       6
#    16  16  16  16  16  16
#     4  10  19  29  54  82 109 143 177 230 284 332
#     4  10  19  32  54  86 111 137 184 232 284 320
#     4   9  20  37  53  80 111 144 183 224 286 326
#     4  10  20  32  52  81 111 142 183 231 277 332
#     4   9  18  34  55  80 112 142 178 237 279 330
#     4  10  21  33  57  81 108 144 181 235 269 333
#
# _framework density 18.142063
#
# number of rings (size 3 to 8) (size 9 to 14) (size 15 to 20)
#    0.000    2.333    0.000    4.000    9.333    1.333 
#    0.000    0.833    0.000    2.000    0.000    0.000 
#    0.000    0.000    0.000    0.000    0.000    0.000 
#
# Total GULP energy -267824.250375 kJ/mol
# GULP energy per Si atom -5579.671883 kJ/mol
# Density = 1.810077 g / cm^3
# Si number density = 18.142063 Si / 1000 Ang^3
#
#
#
# Elastic Constant Matrix: (Units=GPa)
#
#
# Indices 1 2 3 4 5 6 
#
# 1 52.0647 21.9227 16.2396 0.0000 0.0000 0.0000
# 2 21.9227 110.1272 61.6428 0.0000 0.0000 0.0000
# 3 16.2396 61.6428 72.3456 0.0000 0.0000 0.0000
# 4 0.0000 0.0000 0.0000 14.8343 0.0000 0.0000
# 5 0.0000 0.0000 0.0000 0.0000 6.7309 0.0000
# 6 0.0000 0.0000 0.0000 0.0000 0.0000 20.4548
#
#
#
# Elastic Compliance Matrix: (Units=1/GPa)
#
#
# Indices 1 2 3 4 5 6 
#
# 1 0.021149 -0.002969 -0.002218 0.000000 0.000000 0.000000
# 2 -0.002969 0.017777 -0.014480 0.000000 0.000000 0.000000
# 3 -0.002218 -0.014480 0.026659 0.000000 0.000000 0.000000
# 4 0.000000 0.000000 0.000000 0.067411 0.000000 0.000000
# 5 0.000000 0.000000 0.000000 0.000000 0.148569 0.000000
# 6 0.000000 0.000000 0.000000 0.000000 0.000000 0.048888
#
#
# Mechanical properties :
#
#
# Convention : Reuss Voigt Hill
#
# Bulk Modulus (GPa) = 38.09507 48.23864 43.16686
# Shear Modulus (GPa) = 13.20878 17.38615 15.29747
#
# Velocity S-wave (km/s) = 2.70121 3.09905 2.90695
# Velocity P-wave (km/s) = 5.54730 6.28113 5.92559
#
# Compressibility (1/GPa) = 0.02625011
#
# Stress axis : x y z
#
# Youngs Moduli (GPa) = 47.28439 56.25361 37.51141
#
# Poissons Ratio (x) = 0.16699 0.08320
# Poissons Ratio (y) = 0.14037 0.54318
# Poissons Ratio (z) = 0.10487 0.81457
#
# Static dielectric constant tensor:
#      x y z
#    x 1.638520 0.000000 0.000000 
#    y 0.000000 1.642710 0.000000 
#    z 0.000000 0.000000 1.610630 
# 
# From -- ./inp_files/37675.got.cif
#   From: 2010.05.17/outbox.cif.g08.bks.cpg/sg68_19_cif.got.tgz:37675.got - 2010.06.03 18:57:09.
