data_PCOD9505920
_publ_section_title
;
Structure prediction by ZEFSAII (Michael W. Deem and Ramdas Pophale) SiO2 
 PCOD9505920
Probable space group: C C C A
;
_chemical_formula_sum "Si O2"
_cell_formula_units_Z 96
_cell_length_a 20.915282
_cell_length_b 24.314038
_cell_length_c 10.279916
_cell_angle_alpha 90.000000
_cell_angle_beta 90.000000
_cell_angle_gamma 90.000000
_cell_volume 5227.696686
_symmetry_space_group_name_H-M "C C C A"
_symmetry_group_IT_number 68
_space_group.IT_coordinate_system_code '2'
_symmetry_cell_setting 'orthorhombic'
loop_
_space_group_symop_operation_xyz
x,y,z
-x,1/2-y,z
x,1/2-y,1/2-z
-x,y,1/2-z
-x,-y,-z
x,1/2+y,-z
-x,1/2+y,1/2+z
x,-y,1/2+z
1/2+x,1/2+y,z
1/2-x,-y,z
1/2+x,-y,1/2-z
1/2-x,1/2+y,1/2-z
1/2-x,1/2-y,-z
1/2+x,y,-z
1/2-x,y,1/2+z
1/2+x,1/2-y,1/2+z
loop_
_atom_site_type_symbol
_atom_site_label
_atom_site_fract_x
_atom_site_fract_y
_atom_site_fract_z
Si Si1 0.751668 0.142311 0.047933
Si Si2 0.683400 0.310087 0.692250
Si Si3 0.427502 0.106977 0.714020
Si Si4 0.867084 0.572881 0.987063
Si Si5 0.812028 0.470685 0.870129
Si Si6 0.567904 0.013003 0.318463
O O1 0.774193 0.163526 0.189898
O O2 0.707297 0.088934 0.076820
O O3 0.719880 0.184280 0.946023
O O4 0.815729 0.118796 0.977806
O O5 0.669535 0.250000 0.750000
O O6 0.617847 0.343991 0.669034
O O7 0.500000 0.122669 0.750000
O O8 0.427029 0.050313 0.631612
O O9 0.392981 0.087155 0.845918
O O10 0.927632 0.559806 0.073753
O O11 0.829431 0.514928 0.981505
O O12 0.750000 0.500000 0.804399
O O13 0.872810 0.471609 0.775539
O O14 0.500000 0.014708 0.250000
#
# Coordination Sequence:
#
# PCOD9505920 Si02
#       6
#    16  16  16  16  16  16
#     4  10  20  35  54  76 102 130 165 209 254 300
#     4  11  22  36  54  74  97 129 171 217 257 291
#     4   9  20  34  49  70  99 133 168 204 243 293
#     4   9  18  31  48  74 104 131 161 200 244 301
#     4   9  18  30  49  74 101 135 167 198 244 304
#     4  10  19  30  48  76 108 136 163 198 247 305
#
# _framework density 18.363727999999998
#
# number of rings (size 3 to 8) (size 9 to 14) (size 15 to 20)
#    0.000    2.333    0.000    3.500    0.000    9.667 
#    0.000    0.000    0.000    0.000    0.000    0.000 
#    0.000    8.000    0.000    0.000    0.000    0.000 
#
# Total GULP energy -267244.392974 kJ/mol
# GULP energy per Si atom -5567.591520 kJ/mol
# Density = 1.832193 g / cm^3
# Si number density = 18.363728 Si / 1000 Ang^3
#
#
#
# Elastic Constant Matrix: (Units=GPa)
#
#
# Indices 1 2 3 4 5 6 
#
# 1 86.2779 18.3602 4.3557 0.0000 0.0000 0.0000
# 2 18.3602 40.6262 1.8291 0.0000 0.0000 0.0000
# 3 4.3557 1.8291 26.1558 0.0000 0.0000 0.0000
# 4 0.0000 0.0000 0.0000 16.0037 0.0000 0.0000
# 5 0.0000 0.0000 0.0000 0.0000 16.5337 0.0000
# 6 0.0000 0.0000 0.0000 0.0000 0.0000 15.7507
#
#
#
# Elastic Compliance Matrix: (Units=1/GPa)
#
#
# Indices 1 2 3 4 5 6 
#
# 1 0.012903 -0.005753 -0.001746 0.000000 0.000000 0.000000
# 2 -0.005753 0.027257 -0.000948 0.000000 0.000000 0.000000
# 3 -0.001746 -0.000948 0.038590 0.000000 0.000000 0.000000
# 4 0.000000 0.000000 0.000000 0.062485 0.000000 0.000000
# 5 0.000000 0.000000 0.000000 0.000000 0.060482 0.000000
# 6 0.000000 0.000000 0.000000 0.000000 0.000000 0.063489
#
#
# Mechanical properties :
#
#
# Convention : Reuss Voigt Hill
#
# Bulk Modulus (GPa) = 16.16679 22.46111 19.31395
# Shear Modulus (GPa) = 16.51697 18.22530 17.37113
#
# Velocity S-wave (km/s) = 3.00231 3.15375 3.07896
# Velocity P-wave (km/s) = 4.56522 5.05167 4.81459
#
# Compressibility (1/GPa) = 0.06185520
#
# Stress axis : x y z
#
# Youngs Moduli (GPa) = 77.50274 36.68771 25.91373
#
# Poissons Ratio (x) = 0.21105 0.04526
# Poissons Ratio (y) = 0.44584 0.02457
# Poissons Ratio (z) = 0.13535 0.03479
#
# Static dielectric constant tensor:
#      x y z
#    x 1.674090 0.000000 0.000000 
#    y 0.000000 1.661860 0.000000 
#    z 0.000000 0.000000 1.701980 
# 
# From -- ./inp_files/14612.got.cif
#   From: 2010.05.17/outbox.cif.g08.bks.cpg/sg68_8_cif.got.tgz:14612.got - 2010.06.03 18:57:09.
