data_PCOD9505694
_publ_section_title
;
Structure prediction by ZEFSAII (Michael W. Deem and Ramdas Pophale) SiO2 
 PCOD9505694
Probable space group: C C C A
;
_chemical_formula_sum "Si O2"
_cell_formula_units_Z 96
_cell_length_a 9.915383
_cell_length_b 17.567182
_cell_length_c 26.237290
_cell_angle_alpha 90.000000
_cell_angle_beta 90.000000
_cell_angle_gamma 90.000000
_cell_volume 4570.151221
_symmetry_space_group_name_H-M "C C C A"
_symmetry_group_IT_number 68
_space_group.IT_coordinate_system_code '2'
_symmetry_cell_setting 'orthorhombic'
loop_
_space_group_symop_operation_xyz
x,y,z
-x,1/2-y,z
x,1/2-y,1/2-z
-x,y,1/2-z
-x,-y,-z
x,1/2+y,-z
-x,1/2+y,1/2+z
x,-y,1/2+z
1/2+x,1/2+y,z
1/2-x,-y,z
1/2+x,-y,1/2-z
1/2-x,1/2+y,1/2-z
1/2-x,1/2-y,-z
1/2+x,y,-z
1/2-x,y,1/2+z
1/2+x,1/2-y,1/2+z
loop_
_atom_site_type_symbol
_atom_site_label
_atom_site_fract_x
_atom_site_fract_y
_atom_site_fract_z
Si Si1 0.460410 0.017674 0.598999
Si Si2 0.908771 0.852866 0.438465
Si Si3 0.351027 0.132019 0.515547
Si Si4 0.519614 0.121527 0.811400
Si Si5 0.795113 0.260702 0.309834
Si Si6 0.750000 0.000000 0.556272
Si Si7 0.500000 0.250000 0.151390
O O1 0.418308 0.085508 0.561482
O O2 0.446897 0.045593 0.656999
O O3 0.617803 0.004045 0.589757
O O4 0.390155 0.941876 0.576824
O O5 0.767782 0.818798 0.458829
O O6 0.026283 0.840533 0.480226
O O7 0.959029 0.817153 0.386371
O O8 0.268370 0.073441 0.479487
O O9 0.500000 0.109521 0.750000
O O10 0.636061 0.182022 0.827928
O O11 0.382135 0.166395 0.827669
O O12 0.819270 0.250000 0.250000
O O13 0.636844 0.268739 0.319005
#
# Coordination Sequence:
#
# PCOD9505694 Si02
#       7
#    16  16  16  16  16   8   8
#     4  11  20  35  65  85 118 152 198 246 295 344
#     4  11  24  37  58  85 121 158 202 239 293 354
#     4  11  19  39  58  85 115 159 197 236 288 356
#     4   9  20  40  67  91 112 150 204 246 289 355
#     4   9  20  41  63  84 116 159 196 236 296 363
#     4  10  18  32  56  86 112 156 188 228 286 358
#     4  12  25  38  56  90 122 154 195 248 304 346
#
# _framework density 21.005869000000001
#
# number of rings (size 3 to 8) (size 9 to 14) (size 15 to 20)
#    0.000    1.667    3.333    3.250    4.667    0.667 
#    0.000    3.333    3.667    0.000    0.000    0.000 
#    0.000    0.000    0.000    0.000    0.000    0.000 
#
# Total GULP energy -267676.279823 kJ/mol
# GULP energy per Si atom -5576.589163 kJ/mol
# Density = 2.095806 g / cm^3
# Si number density = 21.005869 Si / 1000 Ang^3
#
#
#
# Elastic Constant Matrix: (Units=GPa)
#
#
# Indices 1 2 3 4 5 6 
#
# 1 92.5707 14.8962 -8.7506 0.0000 0.0000 0.0000
# 2 14.8962 32.9896 22.7251 0.0000 0.0000 0.0000
# 3 -8.7506 22.7251 53.4986 0.0000 0.0000 0.0000
# 4 0.0000 0.0000 0.0000 38.3727 0.0000 0.0000
# 5 0.0000 0.0000 0.0000 0.0000 24.8283 0.0000
# 6 0.0000 0.0000 0.0000 0.0000 0.0000 13.8647
#
#
#
# Elastic Compliance Matrix: (Units=1/GPa)
#
#
# Indices 1 2 3 4 5 6 
#
# 1 0.013107 -0.010454 0.006585 0.000000 0.000000 0.000000
# 2 -0.010454 0.051190 -0.023454 0.000000 0.000000 0.000000
# 3 0.006585 -0.023454 0.029732 0.000000 0.000000 0.000000
# 4 0.000000 0.000000 0.000000 0.026060 0.000000 0.000000
# 5 0.000000 0.000000 0.000000 0.000000 0.040277 0.000000
# 6 0.000000 0.000000 0.000000 0.000000 0.000000 0.072126
#
#
# Mechanical properties :
#
#
# Convention : Reuss Voigt Hill
#
# Bulk Modulus (GPa) = 25.39293 26.31116 25.85204
# Shear Modulus (GPa) = 16.65184 25.42568 21.03876
#
# Velocity S-wave (km/s) = 2.81859 3.48287 3.16819
# Velocity P-wave (km/s) = 4.76522 5.35972 5.07119
#
# Compressibility (1/GPa) = 0.03938105
#
# Stress axis : x y z
#
# Youngs Moduli (GPa) = 76.29333 19.53508 33.63373
#
# Poissons Ratio (x) = 0.20423 -0.22147
# Poissons Ratio (y) = 0.79761 0.78886
# Poissons Ratio (z) = -0.50237 0.45818
#
# Static dielectric constant tensor:
#      x y z
#    x 1.779490 0.000000 0.000000 
#    y 0.000000 1.894350 0.000000 
#    z 0.000000 0.000000 1.758450 
# 
# From -- ./inp_files/44445.got.cif
#   From: 2010.05.17/outbox.cif.g08.bks.cpg/sg68_23_cif.got.tgz:44445.got - 2010.06.03 18:57:09.
