data_PCOD9505308
_publ_section_title
;
Structure prediction by ZEFSAII (Michael W. Deem and Ramdas Pophale) SiO2 
 PCOD9505308
Probable space group: C C C A
;
_chemical_formula_sum "Si O2"
_cell_formula_units_Z 88
_cell_length_a 24.960193
_cell_length_b 13.901616
_cell_length_c 12.201965
_cell_angle_alpha 90.000000
_cell_angle_beta 90.000000
_cell_angle_gamma 90.000000
_cell_volume 4233.923454
_symmetry_space_group_name_H-M "C C C A"
_symmetry_group_IT_number 68
_space_group.IT_coordinate_system_code '2'
_symmetry_cell_setting 'orthorhombic'
loop_
_space_group_symop_operation_xyz
x,y,z
-x,1/2-y,z
x,1/2-y,1/2-z
-x,y,1/2-z
-x,-y,-z
x,1/2+y,-z
-x,1/2+y,1/2+z
x,-y,1/2+z
1/2+x,1/2+y,z
1/2-x,-y,z
1/2+x,-y,1/2-z
1/2-x,1/2+y,1/2-z
1/2-x,1/2-y,-z
1/2+x,y,-z
1/2-x,y,1/2+z
1/2+x,1/2-y,1/2+z
loop_
_atom_site_type_symbol
_atom_site_label
_atom_site_fract_x
_atom_site_fract_y
_atom_site_fract_z
Si Si1 0.565857 0.639831 0.367073
Si Si2 0.655294 0.098184 0.006322
Si Si3 0.287348 0.647446 0.704661
Si Si4 0.550286 0.627182 0.113144
Si Si5 0.824104 0.293047 0.374980
Si Si6 0.750000 0.000000 0.384915
O O1 0.561568 0.604965 0.240968
O O2 0.557833 0.756092 0.382141
O O3 0.510638 0.601891 0.418992
O O4 0.628126 0.631558 0.399189
O O5 0.595182 0.082896 0.964782
O O6 0.670855 0.204405 0.958198
O O7 0.698222 0.027457 0.953683
O O8 0.665736 0.100065 0.135193
O O9 0.304523 0.750000 0.750000
O O10 0.234974 0.662476 0.627325
O O11 0.266348 0.586420 0.805541
O O12 0.832073 0.250000 0.250000
#
# Coordination Sequence:
#
# PCOD9505308 Si02
#       6
#    16  16  16  16  16   8
#     4   8  11  21  43  76 106 129 169 229 288 318
#     4  11  20  34  53  78 114 150 189 237 292 348
#     4  11  23  37  53  81 120 155 192 234 288 353
#     4   8  13  22  43  75 109 130 170 229 283 332
#     4  10  15  30  51  79 115 141 183 236 280 345
#     4  12  22  36  54  78 110 160 196 238 284 342
#
# _framework density 20.784503999999998
#
# number of rings (size 3 to 8) (size 9 to 14) (size 15 to 20)
#    0.000    2.182    7.273    2.182    0.000    0.000 
#    0.000    0.000    0.000    0.000    0.000   33.091 
#    0.000    0.000    0.000    0.000    0.000    0.000 
#
# Total GULP energy -245399.602086 kJ/mol
# GULP energy per Si atom -5577.263684 kJ/mol
# Density = 2.073720 g / cm^3
# Si number density = 20.784504 Si / 1000 Ang^3
#
#
#
# Elastic Constant Matrix: (Units=GPa)
#
#
# Indices 1 2 3 4 5 6 
#
# 1 164.0368 5.5380 28.5131 0.0000 0.0000 0.0000
# 2 5.5380 32.4958 1.1002 0.0000 0.0000 0.0000
# 3 28.5131 1.1002 35.9385 0.0000 0.0000 0.0000
# 4 0.0000 0.0000 0.0000 8.3717 0.0000 0.0000
# 5 0.0000 0.0000 0.0000 0.0000 26.4673 0.0000
# 6 0.0000 0.0000 0.0000 0.0000 0.0000 20.6724
#
#
#
# Elastic Compliance Matrix: (Units=1/GPa)
#
#
# Indices 1 2 3 4 5 6 
#
# 1 0.007105 -0.001021 -0.005606 0.000000 0.000000 0.000000
# 2 -0.001021 0.030952 -0.000137 0.000000 0.000000 0.000000
# 3 -0.005606 -0.000137 0.032277 0.000000 0.000000 0.000000
# 4 0.000000 0.000000 0.000000 0.119450 0.000000 0.000000
# 5 0.000000 0.000000 0.000000 0.000000 0.037783 0.000000
# 6 0.000000 0.000000 0.000000 0.000000 0.000000 0.048374
#
#
# Mechanical properties :
#
#
# Convention : Reuss Voigt Hill
#
# Bulk Modulus (GPa) = 17.60395 33.64152 25.62273
# Shear Modulus (GPa) = 16.21250 24.25693 20.23471
#
# Velocity S-wave (km/s) = 2.79593 3.41994 3.12356
# Velocity P-wave (km/s) = 4.34869 5.64054 5.03621
#
# Compressibility (1/GPa) = 0.05680544
#
# Stress axis : x y z
#
# Youngs Moduli (GPa) = 140.74448 32.30823 30.98171
#
# Poissons Ratio (x) = 0.03299 0.17368
# Poissons Ratio (y) = 0.14371 0.00426
# Poissons Ratio (z) = 0.78899 0.00444
#
# Static dielectric constant tensor:
#      x y z
#    x 1.796030 0.000000 0.000000 
#    y 0.000000 1.772870 0.000000 
#    z 0.000000 0.000000 1.752920 
# 
# From -- ./inp_files/17075.got.cif
#   From: 2010.05.17/outbox.cif.g08.bks.cpg/sg68_9_cif.got.tgz:17075.got - 2010.06.03 18:57:09.
