data_PCOD9505856
_publ_section_title
;
Structure prediction by ZEFSAII (Michael W. Deem and Ramdas Pophale) SiO2 
 PCOD9505856
Probable space group: C C C A
;
_chemical_formula_sum "Si O2"
_cell_formula_units_Z 84
_cell_length_a 10.348627
_cell_length_b 26.239174
_cell_length_c 14.974868
_cell_angle_alpha 90.000000
_cell_angle_beta 90.000000
_cell_angle_gamma 90.000000
_cell_volume 4066.267039
_symmetry_space_group_name_H-M "C C C A"
_symmetry_group_IT_number 68
_space_group.IT_coordinate_system_code '2'
_symmetry_cell_setting 'orthorhombic'
loop_
_space_group_symop_operation_xyz
x,y,z
-x,1/2-y,z
x,1/2-y,1/2-z
-x,y,1/2-z
-x,-y,-z
x,1/2+y,-z
-x,1/2+y,1/2+z
x,-y,1/2+z
1/2+x,1/2+y,z
1/2-x,-y,z
1/2+x,-y,1/2-z
1/2-x,1/2+y,1/2-z
1/2-x,1/2-y,-z
1/2+x,y,-z
1/2-x,y,1/2+z
1/2+x,1/2-y,1/2+z
loop_
_atom_site_type_symbol
_atom_site_label
_atom_site_fract_x
_atom_site_fract_y
_atom_site_fract_z
Si Si1 0.888672 0.713847 0.899829
Si Si2 0.750000 0.000000 0.842991
Si Si3 0.500000 0.023964 0.750000
Si Si4 0.669479 0.203999 0.398882
Si Si5 0.000000 0.250000 0.750000
Si Si6 0.192737 0.101354 0.045439
Si Si7 0.592742 0.896999 0.101589
O O1 0.757771 0.745460 0.894534
O O2 0.892423 0.658896 0.855284
O O3 0.000000 0.750000 0.865200
O O4 0.905926 0.704449 0.006617
O O5 0.619234 0.992139 0.787510
O O6 0.725015 0.050702 0.899531
O O7 0.437408 0.060316 0.825622
O O8 0.579170 0.212082 0.314544
O O9 0.756630 0.152976 0.405684
O O10 0.037048 0.103957 0.039691
O O11 0.276732 0.096295 0.955332
#
# Coordination Sequence:
#
# PCOD9505856 Si02
#       7
#    16   8   8  16   4  16  16
#     4  10  18  38  61  83 118 167 191 233 295 369
#     4  10  24  42  62  86 122 160 208 254 316 352
#     4  10  24  43  61  92 122 156 204 268 306 356
#     4  10  22  35  60  89 124 155 201 241 301 357
#     4  12  24  38  54  96 124 152 200 262 292 366
#     4  10  22  40  62  91 118 166 205 249 296 378
#     4  10  22  39  65  92 126 154 208 248 305 366
#
# _framework density 20.657768999999998
#
# number of rings (size 3 to 8) (size 9 to 14) (size 15 to 20)
#    0.000    1.905    2.857    0.000    0.000    9.143 
#    0.000    0.000    0.000    0.000    0.000    0.000 
#    0.000    0.000    0.000    0.000    0.000    0.000 
#
# Total GULP energy -234369.552300 kJ/mol
# GULP energy per Si atom -5580.227436 kJ/mol
# Density = 2.061075 g / cm^3
# Si number density = 20.657769 Si / 1000 Ang^3
#
#
#
# Elastic Constant Matrix: (Units=GPa)
#
#
# Indices 1 2 3 4 5 6 
#
# 1 37.1709 11.1061 9.4626 0.0000 0.0000 0.0000
# 2 11.1061 66.3502 -3.6638 0.0000 0.0000 0.0000
# 3 9.4626 -3.6638 42.8939 0.0000 0.0000 0.0000
# 4 0.0000 0.0000 0.0000 11.0435 0.0000 0.0000
# 5 0.0000 0.0000 0.0000 0.0000 61.1491 0.0000
# 6 0.0000 0.0000 0.0000 0.0000 0.0000 37.0309
#
#
#
# Elastic Compliance Matrix: (Units=1/GPa)
#
#
# Indices 1 2 3 4 5 6 
#
# 1 0.030364 -0.005478 -0.007166 0.000000 0.000000 0.000000
# 2 -0.005478 0.016131 0.002586 0.000000 0.000000 0.000000
# 3 -0.007166 0.002586 0.025115 0.000000 0.000000 0.000000
# 4 0.000000 0.000000 0.000000 0.090551 0.000000 0.000000
# 5 0.000000 0.000000 0.000000 0.000000 0.016353 0.000000
# 6 0.000000 0.000000 0.000000 0.000000 0.000000 0.027004
#
#
# Mechanical properties :
#
#
# Convention : Reuss Voigt Hill
#
# Bulk Modulus (GPa) = 19.41970 20.02497 19.72234
# Shear Modulus (GPa) = 20.59303 30.47872 25.53587
#
# Velocity S-wave (km/s) = 3.16074 3.84528 3.51969
# Velocity P-wave (km/s) = 4.76880 5.42490 5.10740
#
# Compressibility (1/GPa) = 0.05149410
#
# Stress axis : x y z
#
# Youngs Moduli (GPa) = 32.93385 61.99115 39.81653
#
# Poissons Ratio (x) = 0.33960 0.28534
# Poissons Ratio (y) = 0.18042 -0.10298
# Poissons Ratio (z) = 0.23602 -0.16033
#
# Static dielectric constant tensor:
#      x y z
#    x 1.714240 0.000000 0.000000 
#    y 0.000000 1.950420 0.000000 
#    z 0.000000 0.000000 1.757460 
# 
# From -- ./inp_files/21023.got.cif
#   From: 2010.05.17/outbox.cif.g08.bks.cpg/sg68_11_cif.got.tgz:21023.got - 2010.06.03 18:57:09.
