data_PCOD9505558
_publ_section_title
;
Structure prediction by ZEFSAII (Michael W. Deem and Ramdas Pophale) SiO2 
 PCOD9505558
Probable space group: C C C A
;
_chemical_formula_sum "Si O2"
_cell_formula_units_Z 84
_cell_length_a 9.910239
_cell_length_b 11.711093
_cell_length_c 30.780349
_cell_angle_alpha 90.000000
_cell_angle_beta 90.000000
_cell_angle_gamma 90.000000
_cell_volume 3572.359012
_symmetry_space_group_name_H-M "C C C A"
_symmetry_group_IT_number 68
_space_group.IT_coordinate_system_code '2'
_symmetry_cell_setting 'orthorhombic'
loop_
_space_group_symop_operation_xyz
x,y,z
-x,1/2-y,z
x,1/2-y,1/2-z
-x,y,1/2-z
-x,-y,-z
x,1/2+y,-z
-x,1/2+y,1/2+z
x,-y,1/2+z
1/2+x,1/2+y,z
1/2-x,-y,z
1/2+x,-y,1/2-z
1/2-x,1/2+y,1/2-z
1/2-x,1/2-y,-z
1/2+x,y,-z
1/2-x,y,1/2+z
1/2+x,1/2-y,1/2+z
loop_
_atom_site_type_symbol
_atom_site_label
_atom_site_fract_x
_atom_site_fract_y
_atom_site_fract_z
Si Si1 0.422174 0.391181 0.171075
Si Si2 0.363507 0.098918 0.035598
Si Si3 0.304163 0.804722 0.624679
Si Si4 0.389566 0.564313 0.058372
Si Si5 0.000000 0.250000 0.750000
Si Si6 0.511546 0.871450 0.352382
O O1 0.565113 0.359804 0.147822
O O2 0.311790 0.325005 0.142297
O O3 0.417473 0.332380 0.218006
O O4 0.064597 0.473482 0.171882
O O5 0.326092 0.187912 0.073036
O O6 0.250000 0.000000 0.035855
O O7 0.501301 0.035406 0.048794
O O8 0.376894 0.137738 0.985842
O O9 0.172277 0.875691 0.638235
O O10 0.250000 0.500000 0.066669
O O11 0.444637 0.630866 0.099729
O O12 0.500000 0.750000 0.329360
#
# Coordination Sequence:
#
# PCOD9505558 Si02
#       6
#    16  16  16  16   4  16
#     4  10  22  42  75  99 124 169 228 268 340 425
#     4  10  17  37  61  89 127 184 238 284 336 392
#     4  10  20  40  71  91 124 182 227 275 332 401
#     4  10  22  34  58  93 137 177 234 289 330 384
#     4   8  20  44  78 104 122 156 216 282 324 418
#     4  12  25  40  63  97 142 178 221 281 341 397
#
# _framework density 23.513874000000001
#
# number of rings (size 3 to 8) (size 9 to 14) (size 15 to 20)
#    0.000    1.905    3.810    0.571    2.667    0.000 
#    3.429    1.429   33.524    0.000    0.000    0.000 
#    0.000    0.000    0.000    0.000    0.000    0.000 
#
# Total GULP energy -234778.260047 kJ/mol
# GULP energy per Si atom -5589.958573 kJ/mol
# Density = 2.346036 g / cm^3
# Si number density = 23.513874 Si / 1000 Ang^3
#
#
#
# Elastic Constant Matrix: (Units=GPa)
#
#
# Indices 1 2 3 4 5 6 
#
# 1 123.9792 16.1066 17.2176 0.0000 0.0000 0.0000
# 2 16.1066 151.6388 58.6478 0.0000 0.0000 0.0000
# 3 17.2176 58.6478 132.5985 0.0000 0.0000 0.0000
# 4 0.0000 0.0000 0.0000 -140.7282 0.0000 0.0000
# 5 0.0000 0.0000 0.0000 0.0000 26.4804 0.0000
# 6 0.0000 0.0000 0.0000 0.0000 0.0000 37.4708
#
#
#
# Elastic Compliance Matrix: (Units=1/GPa)
#
#
# Indices 1 2 3 4 5 6 
#
# 1 0.008253 -0.000558 -0.000825 0.000000 0.000000 0.000000
# 2 -0.000558 0.007993 -0.003463 0.000000 0.000000 0.000000
# 3 -0.000825 -0.003463 0.009180 0.000000 0.000000 0.000000
# 4 0.000000 0.000000 0.000000 -0.007106 0.000000 0.000000
# 5 0.000000 0.000000 0.000000 0.000000 0.037764 0.000000
# 6 0.000000 0.000000 0.000000 0.000000 0.000000 0.026687
#
#
# Mechanical properties :
#
#
# Convention : Reuss Voigt Hill
#
# Bulk Modulus (GPa) = 63.55099 65.79560 64.67329
# Shear Modulus (GPa) = 51.17298 5.72757 28.45028
#
# Velocity S-wave (km/s) = 4.67013 1.56241 3.48219
# Velocity P-wave (km/s) = 7.49439 5.59439 6.61298
#
# Compressibility (1/GPa) = 0.01573540
#
# Stress axis : x y z
#
# Youngs Moduli (GPa) = 121.16987 125.10682 108.92836
#
# Poissons Ratio (x) = 0.06975 0.08987
# Poissons Ratio (y) = 0.06755 0.37721
# Poissons Ratio (z) = 0.09997 0.43324
#
# Static dielectric constant tensor:
#      x y z
#    x 1.916280 0.000000 0.000000 
#    y 0.000000 2.012740 0.000000 
#    z 0.000000 0.000000 1.876490 
# 
# From -- ./inp_files/49272.got.cif
#   From: 2010.05.17/outbox.cif.g08.bks.cpg/sg68_25_cif.got.tgz:49272.got - 2010.06.03 18:57:09.
