data_PCOD9505455
_publ_section_title
;
Structure prediction by ZEFSAII (Michael W. Deem and Ramdas Pophale) SiO2 
 PCOD9505455
Probable space group: C C C A
;
_chemical_formula_sum "Si O2"
_cell_formula_units_Z 64
_cell_length_a 6.907515
_cell_length_b 13.274403
_cell_length_c 30.099226
_cell_angle_alpha 90.000000
_cell_angle_beta 90.000000
_cell_angle_gamma 90.000000
_cell_volume 2759.892478
_symmetry_space_group_name_H-M "C C C A"
_symmetry_group_IT_number 68
_space_group.IT_coordinate_system_code '2'
_symmetry_cell_setting 'orthorhombic'
loop_
_space_group_symop_operation_xyz
x,y,z
-x,1/2-y,z
x,1/2-y,1/2-z
-x,y,1/2-z
-x,-y,-z
x,1/2+y,-z
-x,1/2+y,1/2+z
x,-y,1/2+z
1/2+x,1/2+y,z
1/2-x,-y,z
1/2+x,-y,1/2-z
1/2-x,1/2+y,1/2-z
1/2-x,1/2-y,-z
1/2+x,y,-z
1/2-x,y,1/2+z
1/2+x,1/2-y,1/2+z
loop_
_atom_site_type_symbol
_atom_site_label
_atom_site_fract_x
_atom_site_fract_y
_atom_site_fract_z
Si Si1 0.579375 0.363927 0.051098
Si Si2 0.750000 0.500000 0.976700
Si Si3 0.589752 0.637052 0.649408
Si Si4 0.233565 0.636359 0.258975
Si Si5 0.250000 0.500000 0.182847
O O1 0.500000 0.250000 0.044288
O O2 0.415642 0.450796 0.052557
O O3 0.675211 0.365487 0.099768
O O4 0.699140 0.406425 0.009483
O O5 0.500000 0.750000 0.655959
O O6 0.741472 0.615579 0.688624
O O7 0.411157 0.559674 0.655438
O O8 0.282178 0.750000 0.250000
O O9 0.336913 0.576710 0.219570
O O10 0.000000 0.624940 0.250000
#
# Coordination Sequence:
#
# PCOD9505455 Si02
#       5
#    16   8  16  16   8
#     4  10  21  36  61  84 114 151 185 238 288 338
#     4  10  21  39  56  88 118 142 194 229 295 354
#     4  10  18  32  52  82 106 142 195 225 270 338
#     4   9  15  29  47  72 103 135 177 219 260 319
#     4  10  17  27  54  76 104 148 176 227 277 312
#
# _framework density 23.189308
#
# number of rings (size 3 to 8) (size 9 to 14) (size 15 to 20)
#    0.000    2.250    5.000    1.500    0.000    1.000 
#    0.000    0.000    0.000    6.750    0.000    0.000 
#    0.000    0.000    0.000    0.000    0.000    0.000 
#
# Total GULP energy -178437.121815 kJ/mol
# GULP energy per Si atom -5576.160057 kJ/mol
# Density = 2.313653 g / cm^3
# Si number density = 23.189308 Si / 1000 Ang^3
#
#
#
# Elastic Constant Matrix: (Units=GPa)
#
#
# Indices 1 2 3 4 5 6 
#
# 1 45.7978 4.3907 8.3750 0.0000 0.0000 0.0000
# 2 4.3907 146.0477 35.9486 0.0000 0.0000 0.0000
# 3 8.3750 35.9486 151.3317 0.0000 0.0000 0.0000
# 4 0.0000 0.0000 0.0000 -19.5815 0.0000 0.0000
# 5 0.0000 0.0000 0.0000 0.0000 25.0755 0.0000
# 6 0.0000 0.0000 0.0000 0.0000 0.0000 24.7287
#
#
#
# Elastic Compliance Matrix: (Units=1/GPa)
#
#
# Indices 1 2 3 4 5 6 
#
# 1 0.022079 -0.000386 -0.001130 0.000000 0.000000 0.000000
# 2 -0.000386 0.007279 -0.001708 0.000000 0.000000 0.000000
# 3 -0.001130 -0.001708 0.007076 0.000000 0.000000 0.000000
# 4 0.000000 0.000000 0.000000 -0.051068 0.000000 0.000000
# 5 0.000000 0.000000 0.000000 0.000000 0.039880 0.000000
# 6 0.000000 0.000000 0.000000 0.000000 0.000000 0.040439
#
#
# Mechanical properties :
#
#
# Convention : Reuss Voigt Hill
#
# Bulk Modulus (GPa) = 33.34801 48.95618 41.15209
# Shear Modulus (GPa) = 60.88141 25.67538 43.27840
#
# Velocity S-wave (km/s) = 5.12943 3.33108 4.32477
# Velocity P-wave (km/s) = 7.03516 5.99601 6.53627
#
# Compressibility (1/GPa) = 0.02998680
#
# Stress axis : x y z
#
# Youngs Moduli (GPa) = 45.29237 137.38098 141.31808
#
# Poissons Ratio (x) = 0.05297 0.15973
# Poissons Ratio (y) = 0.01746 0.24134
# Poissons Ratio (z) = 0.05119 0.23462
#
# Static dielectric constant tensor:
#      x y z
#    x 1.955090 0.000000 0.000000 
#    y 0.000000 1.765480 0.000000 
#    z 0.000000 0.000000 1.870450 
# 
# From -- ./inp_files/48875.got.cif
#   From: 2010.05.17/outbox.cif.g08.bks.cpg/sg68_25_cif.got.tgz:48875.got - 2010.06.03 18:57:09.
