data_PCOD9505438
_publ_section_title
;
Structure prediction by ZEFSAII (Michael W. Deem and Ramdas Pophale) SiO2 
 PCOD9505438
Probable space group: C C C A
;
_chemical_formula_sum "Si O2"
_cell_formula_units_Z 64
_cell_length_a 5.395915
_cell_length_b 34.183397
_cell_length_c 14.405964
_cell_angle_alpha 90.000000
_cell_angle_beta 90.000000
_cell_angle_gamma 90.000000
_cell_volume 2657.190211
_symmetry_space_group_name_H-M "C C C A"
_symmetry_group_IT_number 68
_space_group.IT_coordinate_system_code '2'
_symmetry_cell_setting 'orthorhombic'
loop_
_space_group_symop_operation_xyz
x,y,z
-x,1/2-y,z
x,1/2-y,1/2-z
-x,y,1/2-z
-x,-y,-z
x,1/2+y,-z
-x,1/2+y,1/2+z
x,-y,1/2+z
1/2+x,1/2+y,z
1/2-x,-y,z
1/2+x,-y,1/2-z
1/2-x,1/2+y,1/2-z
1/2-x,1/2-y,-z
1/2+x,y,-z
1/2-x,y,1/2+z
1/2+x,1/2-y,1/2+z
loop_
_atom_site_type_symbol
_atom_site_label
_atom_site_fract_x
_atom_site_fract_y
_atom_site_fract_z
Si Si1 0.520911 0.392325 0.636753
Si Si2 0.994765 0.016652 0.395063
Si Si3 0.032666 0.645181 0.141896
Si Si4 0.241472 0.733063 0.143835
O O1 0.500000 0.390389 0.750000
O O2 0.547533 0.437033 0.607285
O O3 0.248618 0.381007 0.599502
O O4 0.751418 0.363757 0.607733
O O5 0.250000 0.000000 0.354580
O O6 0.000000 0.000000 0.500000
O O7 0.750000 0.000000 0.348459
O O8 0.171396 0.687466 0.143119
O O9 0.000000 0.635289 0.250000
O O10 0.500000 0.750000 0.107471
O O11 0.241871 0.750000 0.250000
O O12 0.000000 0.750000 0.095202
#
# Coordination Sequence:
#
# PCOD9505438 Si02
#       4
#    16  16  16  16
#     4  10  21  32  50  75 107 143 179 223 282 326
#     4  10  21  38  58  77  99 135 180 235 278 334
#     4  10  18  30  43  69 108 145 187 218 262 321
#     4  10  17  24  41  63  95 147 197 206 245 309
#
# _framework density 24.085591000000001
#
# number of rings (size 3 to 8) (size 9 to 14) (size 15 to 20)
#    0.000    2.000    2.500    3.000    7.000    1.000 
#    0.000    0.000    0.000    0.000    0.000    0.000 
#    0.000    0.000    0.000  315.000    0.000    0.000 
#
# Total GULP energy -178215.434857 kJ/mol
# GULP energy per Si atom -5569.232339 kJ/mol
# Density = 2.403077 g / cm^3
# Si number density = 24.085591 Si / 1000 Ang^3
#
#
#
# Elastic Constant Matrix: (Units=GPa)
#
#
# Indices 1 2 3 4 5 6 
#
# 1 289.0963 79.4682 11.4477 0.0000 0.0000 0.0000
# 2 79.4682 142.0165 0.0773 0.0000 0.0000 0.0000
# 3 11.4477 0.0773 114.5895 0.0000 0.0000 0.0000
# 4 0.0000 0.0000 0.0000 24.5018 0.0000 0.0000
# 5 0.0000 0.0000 0.0000 0.0000 -37.6320 0.0000
# 6 0.0000 0.0000 0.0000 0.0000 0.0000 55.7211
#
#
#
# Elastic Compliance Matrix: (Units=1/GPa)
#
#
# Indices 1 2 3 4 5 6 
#
# 1 0.004107 -0.002298 -0.000409 0.000000 0.000000 0.000000
# 2 -0.002298 0.008327 0.000224 0.000000 0.000000 0.000000
# 3 -0.000409 0.000224 0.008767 0.000000 0.000000 0.000000
# 4 0.000000 0.000000 0.000000 0.040813 0.000000 0.000000
# 5 0.000000 0.000000 0.000000 0.000000 -0.026573 0.000000
# 6 0.000000 0.000000 0.000000 0.000000 0.000000 0.017947
#
#
# Mechanical properties :
#
#
# Convention : Reuss Voigt Hill
#
# Bulk Modulus (GPa) = 61.59079 80.85427 71.22253
# Shear Modulus (GPa) = 78.41222 38.83212 58.62217
#
# Velocity S-wave (km/s) = 5.71195 4.01965 4.93882
# Velocity P-wave (km/s) = 8.31438 7.42872 7.88400
#
# Compressibility (1/GPa) = 0.01623619
#
# Stress axis : x y z
#
# Youngs Moduli (GPa) = 243.49322 120.08932 114.05775
#
# Poissons Ratio (x) = 0.27595 0.04662
# Poissons Ratio (y) = 0.55952 -0.02554
# Poissons Ratio (z) = 0.09952 -0.02689
#
# Static dielectric constant tensor:
#      x y z
#    x 1.970590 0.000000 0.000000 
#    y 0.000000 2.071530 0.000000 
#    z 0.000000 0.000000 1.870190 
# 
# From -- ./inp_files/27122.got.cif
#   From: 2010.05.17/outbox.cif.g08.bks.cpg/sg68_14_cif.got.tgz:27122.got - 2010.06.03 18:57:09.
