data_PCOD9505119
_publ_section_title
;
Structure prediction by ZEFSAII (Michael W. Deem and Ramdas Pophale) SiO2 
 PCOD9505119
Probable space group: C M M A
;
_chemical_formula_sum "Si O2"
_cell_formula_units_Z 96
_cell_length_a 9.047133
_cell_length_b 14.679753
_cell_length_c 33.569319
_cell_angle_alpha 90.000000
_cell_angle_beta 90.000000
_cell_angle_gamma 90.000000
_cell_volume 4458.330440
_symmetry_space_group_name_H-M "C M M A"
_symmetry_group_IT_number 67
_symmetry_cell_setting 'orthorhombic'
loop_
_space_group_symop_operation_xyz
x,y,z
-x,1/2-y,z
x,-y,-z
-x,1/2+y,-z
-x,-y,-z
x,1/2+y,-z
-x,y,z
x,1/2-y,z
1/2+x,1/2+y,z
1/2-x,-y,z
1/2+x,1/2-y,-z
1/2-x,y,-z
1/2-x,1/2-y,-z
1/2+x,y,-z
1/2-x,1/2+y,z
1/2+x,-y,z
loop_
_atom_site_type_symbol
_atom_site_label
_atom_site_fract_x
_atom_site_fract_y
_atom_site_fract_z
Si Si1 0.179142 0.098630 0.625929
Si Si2 0.668150 0.361436 0.040222
Si Si3 0.826473 0.139187 0.798965
Si Si4 0.178528 0.101665 0.539444
Si Si5 0.332179 0.858120 0.713424
Si Si6 0.168563 0.638433 0.879255
O O1 0.213154 0.143768 0.583022
O O2 0.233904 0.130197 0.669426
O O3 0.000000 0.098018 0.627500
O O4 0.250000 0.000000 0.622834
O O5 0.500000 0.392582 0.039681
O O6 0.668013 0.250000 0.040200
O O7 0.746359 0.389748 0.080990
O O8 0.750000 0.389830 0.000000
O O9 0.819577 0.250000 0.800357
O O10 0.764320 0.110043 0.755460
O O11 0.742460 0.107451 0.838124
O O12 0.000000 0.115177 0.800855
O O13 0.250000 0.144671 0.500000
O O14 0.000000 0.096486 0.535331
O O15 0.250000 0.000000 0.540666
O O16 0.500000 0.896194 0.712197
O O17 0.344749 0.750000 0.717800
O O18 0.169892 0.750000 0.879049
O O19 0.000000 0.608402 0.881085
#
# Coordination Sequence:
#
# PCOD9505119 Si02
#       6
#    16  16  16  16  16  16
#     4   9  17  28  43  64  86 108 135 168 206 245
#     4   9  15  21  28  38  54  78 110 148 189 231
#     4   8  13  22  36  51  65  85 117 156 192 224
#     4   9  15  23  37  57  80 104 131 163 198 236
#     4   8  14  26  44  62  79 103 138 174 203 238
#     4   9  15  21  29  42  61  84 111 146 187 230
#
# _framework density 21.532724000000002
#
# number of rings (size 3 to 8) (size 9 to 14) (size 15 to 20)
#    0.000    3.333    0.000    3.000    0.000    4.667 
#    0.000    0.833    0.000    2.000    0.000    0.000 
#    0.000    0.000    0.000    0.000    0.000    5.333 
#
# Total GULP energy -267221.376729 kJ/mol
# GULP energy per Si atom -5567.112015 kJ/mol
# Density = 2.148371 g / cm^3
# Si number density = 21.532724 Si / 1000 Ang^3
#
#
#
# Elastic Constant Matrix: (Units=GPa)
#
#
# Indices 1 2 3 4 5 6 
#
# 1 88.2167 6.8706 100.7907 0.0000 0.0000 0.0000
# 2 6.8706 45.6156 13.4233 0.0000 0.0000 0.0000
# 3 100.7907 13.4233 314.3858 0.0000 0.0000 0.0000
# 4 0.0000 0.0000 0.0000 9.4062 0.0000 0.0000
# 5 0.0000 0.0000 0.0000 0.0000 23.1117 0.0000
# 6 0.0000 0.0000 0.0000 0.0000 0.0000 -4.3965
#
#
#
# Elastic Compliance Matrix: (Units=1/GPa)
#
#
# Indices 1 2 3 4 5 6 
#
# 1 0.017935 -0.001022 -0.005706 0.000000 0.000000 0.000000
# 2 -0.001022 0.022260 -0.000623 0.000000 0.000000 0.000000
# 3 -0.005706 -0.000623 0.005037 0.000000 0.000000 0.000000
# 4 0.000000 0.000000 0.000000 0.106313 0.000000 0.000000
# 5 0.000000 0.000000 0.000000 0.000000 0.043268 0.000000
# 6 0.000000 0.000000 0.000000 0.000000 0.000000 -0.227456
#
#
# Mechanical properties :
#
#
# Convention : Reuss Voigt Hill
#
# Bulk Modulus (GPa) = 32.75572 76.70970 54.73271
# Shear Modulus (GPa) = -643.89025 27.43319 -308.22853
#
# Velocity S-wave (km/s) = -17.31121 3.57322 -11.97727
# Velocity P-wave (km/s) = 19.60422 7.26126 12.87633
#
# Compressibility (1/GPa) = 0.03052902
#
# Stress axis : x y z
#
# Youngs Moduli (GPa) = 55.75732 44.92456 198.53984
#
# Poissons Ratio (x) = 0.04592 1.13291
# Poissons Ratio (y) = 0.05699 0.12363
# Poissons Ratio (z) = 0.31816 0.02798
#
# Static dielectric constant tensor:
#      x y z
#    x 1.751270 0.000000 0.000000 
#    y 0.000000 1.888670 0.000000 
#    z 0.000000 0.000000 1.860720 
# 
# From -- ./inp_files/43661.got.cif
#   From: 2010.05.17/outbox.cif.g08.bks.cpg/sg67_22_cif.got.tgz:43661.got - 2010.06.03 18:28:57.
