data_PCOD9505058
_publ_section_title
;
Structure prediction by ZEFSAII (Michael W. Deem and Ramdas Pophale) SiO2 
 PCOD9505058
Probable space group: C M M A
;
_chemical_formula_sum "Si O2"
_cell_formula_units_Z 52
_cell_length_a 14.796748
_cell_length_b 9.724340
_cell_length_c 17.475730
_cell_angle_alpha 90.000000
_cell_angle_beta 90.000000
_cell_angle_gamma 90.000000
_cell_volume 2514.558471
_symmetry_space_group_name_H-M "C M M A"
_symmetry_group_IT_number 67
_symmetry_cell_setting 'orthorhombic'
loop_
_space_group_symop_operation_xyz
x,y,z
-x,1/2-y,z
x,-y,-z
-x,1/2+y,-z
-x,-y,-z
x,1/2+y,-z
-x,y,z
x,1/2-y,z
1/2+x,1/2+y,z
1/2-x,-y,z
1/2+x,1/2-y,-z
1/2-x,y,-z
1/2-x,1/2-y,-z
1/2+x,y,-z
1/2-x,1/2+y,z
1/2+x,-y,z
loop_
_atom_site_type_symbol
_atom_site_label
_atom_site_fract_x
_atom_site_fract_y
_atom_site_fract_z
Si Si1 0.663269 0.411772 0.611987
Si Si2 0.390560 0.905999 0.212403
Si Si3 0.889390 0.907422 0.072048
Si Si4 0.000000 0.500000 0.500000
O O1 0.679259 0.250000 0.599801
O O2 0.750000 0.500000 0.591122
O O3 0.643505 0.433154 0.702197
O O4 0.578489 0.457584 0.562279
O O5 0.500000 0.908833 0.214807
O O6 0.364327 0.750000 0.189778
O O7 0.361159 0.017355 0.150134
O O8 0.858574 0.750000 0.066916
O O9 0.000000 0.904997 0.071721
O O10 0.861827 0.000000 0.000000
#
# Coordination Sequence:
#
# PCOD9505058 Si02
#       4
#    16  16  16   4
#     4  11  25  44  67  97 130 169 213 263 323 386
#     4   9  17  34  58  82 117 163 209 256 312 372
#     4   9  16  26  45  79 119 159 207 256 307 364
#     4  12  24  44  72  96 128 164 214 262 316 386
#
# _framework density 20.679573999999999
#
# number of rings (size 3 to 8) (size 9 to 14) (size 15 to 20)
#    0.000    2.154    1.538    1.846    0.000    8.615 
#    0.000    0.000    0.000    0.923    0.000    6.462 
#    0.000    0.000    0.000    0.000    0.000    0.000 
#
# Total GULP energy -144837.035362 kJ/mol
# GULP energy per Si atom -5570.655206 kJ/mol
# Density = 2.063251 g / cm^3
# Si number density = 20.679574 Si / 1000 Ang^3
#
#
#
# Elastic Constant Matrix: (Units=GPa)
#
#
# Indices 1 2 3 4 5 6 
#
# 1 120.9453 78.3852 55.2149 0.0000 0.0000 0.0000
# 2 78.3852 174.2190 134.0135 0.0000 0.0000 0.0000
# 3 55.2149 134.0135 147.6171 0.0000 0.0000 0.0000
# 4 0.0000 0.0000 0.0000 -13.4172 0.0000 0.0000
# 5 0.0000 0.0000 0.0000 0.0000 -77.2194 0.0000
# 6 0.0000 0.0000 0.0000 0.0000 0.0000 -2.0638
#
#
#
# Elastic Compliance Matrix: (Units=1/GPa)
#
#
# Indices 1 2 3 4 5 6 
#
# 1 0.011751 -0.006318 0.001341 0.000000 0.000000 0.000000
# 2 -0.006318 0.022425 -0.017995 0.000000 0.000000 0.000000
# 3 0.001341 -0.017995 0.022609 0.000000 0.000000 0.000000
# 4 0.000000 0.000000 0.000000 -0.074531 0.000000 0.000000
# 5 0.000000 0.000000 0.000000 0.000000 -0.012950 0.000000
# 6 0.000000 0.000000 0.000000 0.000000 0.000000 -0.484549
#
#
# Mechanical properties :
#
#
# Convention : Reuss Voigt Hill
#
# Bulk Modulus (GPa) = 92.24978 108.66764 100.45871
# Shear Modulus (GPa) = -10.73685 -6.86221 -8.79953
#
# Velocity S-wave (km/s) = -2.28107 -1.82361 -2.06505
# Velocity P-wave (km/s) = 6.14559 6.94466 6.55731
#
# Compressibility (1/GPa) = 0.01084013
#
# Stress axis : x y z
#
# Youngs Moduli (GPa) = 85.09831 44.59324 44.22929
#
# Poissons Ratio (x) = 0.28176 -0.05930
# Poissons Ratio (y) = 0.53769 0.79591
# Poissons Ratio (z) = -0.11410 0.80246
#
# Static dielectric constant tensor:
#      x y z
#    x 1.724010 0.000000 0.000000 
#    y 0.000000 1.715890 0.000000 
#    z 0.000000 0.000000 1.709810 
# 
# From -- ./inp_files/38176.got.cif
#   From: 2010.05.17/outbox.cif.g08.bks.cpg/sg67_20_cif.got.tgz:38176.got - 2010.06.03 18:28:57.
