data_PCOD9505731
_publ_section_title
;
Structure prediction by ZEFSAII (Michael W. Deem and Ramdas Pophale) SiO2 
 PCOD9505731
Probable space group: C C C A
;
_chemical_formula_sum "Si O2"
_cell_formula_units_Z 72
_cell_length_a 8.882734
_cell_length_b 15.886687
_cell_length_c 22.350728
_cell_angle_alpha 90.000000
_cell_angle_beta 90.000000
_cell_angle_gamma 90.000000
_cell_volume 3154.072483
_symmetry_space_group_name_H-M "C C C A"
_symmetry_group_IT_number 68
_space_group.IT_coordinate_system_code '2'
_symmetry_cell_setting 'orthorhombic'
loop_
_space_group_symop_operation_xyz
x,y,z
-x,1/2-y,z
x,1/2-y,1/2-z
-x,y,1/2-z
-x,-y,-z
x,1/2+y,-z
-x,1/2+y,1/2+z
x,-y,1/2+z
1/2+x,1/2+y,z
1/2-x,-y,z
1/2+x,-y,1/2-z
1/2-x,1/2+y,1/2-z
1/2-x,1/2-y,-z
1/2+x,y,-z
1/2-x,y,1/2+z
1/2+x,1/2-y,1/2+z
loop_
_atom_site_type_symbol
_atom_site_label
_atom_site_fract_x
_atom_site_fract_y
_atom_site_fract_z
Si Si1 0.711902 0.410220 0.722975
Si Si2 0.750000 0.000000 0.986759
Si Si3 0.618762 0.324507 0.320482
Si Si4 0.069481 0.118777 0.342667
Si Si5 0.974380 0.041797 0.582970
O O1 0.750000 0.500000 0.693793
O O2 0.841924 0.352595 0.751851
O O3 0.596057 0.358324 0.681910
O O4 0.629003 0.434725 0.785300
O O5 0.861969 0.052117 0.945013
O O6 0.645408 0.055763 0.030097
O O7 0.500000 0.250000 0.328524
O O8 0.791672 0.316231 0.347303
O O9 0.554538 0.401199 0.359889
O O10 0.050018 0.055393 0.397172
#
# Coordination Sequence:
#
# PCOD9505731 Si02
#       5
#    16   8  16  16  16
#     4   9  16  31  58  99 122 166 220 275 308 382
#     4  10  22  34  66  90 126 156 226 298 320 360
#     4  10  18  33  59  93 132 173 203 253 325 406
#     4   9  17  32  59  96 124 163 222 267 315 379
#     4  11  19  39  59  96 124 164 219 279 329 373
#
# _framework density 22.827631
#
# number of rings (size 3 to 8) (size 9 to 14) (size 15 to 20)
#    1.333    0.889    4.444    0.000    1.556    0.000 
#    0.000    1.111    0.000    2.667   23.111    0.000 
#    0.000    0.000    0.000    0.000    0.000    0.000 
#
# Total GULP energy -200448.565307 kJ/mol
# GULP energy per Si atom -5568.015703 kJ/mol
# Density = 2.277567 g / cm^3
# Si number density = 22.827631 Si / 1000 Ang^3
#
#
#
# Elastic Constant Matrix: (Units=GPa)
#
#
# Indices 1 2 3 4 5 6 
#
# 1 186.6044 67.3098 55.2370 0.0000 0.0000 0.0000
# 2 67.3098 94.4638 28.6047 0.0000 0.0000 0.0000
# 3 55.2370 28.6047 84.0718 0.0000 0.0000 0.0000
# 4 0.0000 0.0000 0.0000 8.0740 0.0000 0.0000
# 5 0.0000 0.0000 0.0000 0.0000 40.4387 0.0000
# 6 0.0000 0.0000 0.0000 0.0000 0.0000 37.5837
#
#
#
# Elastic Compliance Matrix: (Units=1/GPa)
#
#
# Indices 1 2 3 4 5 6 
#
# 1 0.008161 -0.004673 -0.003772 0.000000 0.000000 0.000000
# 2 -0.004673 0.014478 -0.001856 0.000000 0.000000 0.000000
# 3 -0.003772 -0.001856 0.015004 0.000000 0.000000 0.000000
# 4 0.000000 0.000000 0.000000 0.123855 0.000000 0.000000
# 5 0.000000 0.000000 0.000000 0.000000 0.024729 0.000000
# 6 0.000000 0.000000 0.000000 0.000000 0.000000 0.026607
#
#
# Mechanical properties :
#
#
# Convention : Reuss Voigt Hill
#
# Bulk Modulus (GPa) = 58.67969 74.16033 66.42001
# Shear Modulus (GPa) = 20.91039 31.48517 26.19778
#
# Velocity S-wave (km/s) = 3.02985 3.71786 3.39135
# Velocity P-wave (km/s) = 6.16452 7.14056 6.67042
#
# Compressibility (1/GPa) = 0.01704167
#
# Stress axis : x y z
#
# Youngs Moduli (GPa) = 122.53304 69.07198 66.64745
#
# Poissons Ratio (x) = 0.32277 0.25140
# Poissons Ratio (y) = 0.57259 0.12368
# Poissons Ratio (z) = 0.46220 0.12818
#
# Static dielectric constant tensor:
#      x y z
#    x 2.061840 0.000000 0.000000 
#    y 0.000000 1.833210 0.000000 
#    z 0.000000 0.000000 1.816800 
# 
# From -- ./inp_files/42944.got.cif
#   From: 2010.05.17/outbox.cif.g08.bks.cpg/sg68_22_cif.got.tgz:42944.got - 2010.06.03 18:57:09.
