data_PCOD9505612
_publ_section_title
;
Structure prediction by ZEFSAII (Michael W. Deem and Ramdas Pophale) SiO2 
 PCOD9505612
Probable space group: C C C A
;
_chemical_formula_sum "Si O2"
_cell_formula_units_Z 76
_cell_length_a 11.621747
_cell_length_b 14.788348
_cell_length_c 19.214240
_cell_angle_alpha 90.000000
_cell_angle_beta 90.000000
_cell_angle_gamma 90.000000
_cell_volume 3302.283007
_symmetry_space_group_name_H-M "C C C A"
_symmetry_group_IT_number 68
_space_group.IT_coordinate_system_code '2'
_symmetry_cell_setting 'orthorhombic'
loop_
_space_group_symop_operation_xyz
x,y,z
-x,1/2-y,z
x,1/2-y,1/2-z
-x,y,1/2-z
-x,-y,-z
x,1/2+y,-z
-x,1/2+y,1/2+z
x,-y,1/2+z
1/2+x,1/2+y,z
1/2-x,-y,z
1/2+x,-y,1/2-z
1/2-x,1/2+y,1/2-z
1/2-x,1/2-y,-z
1/2+x,y,-z
1/2-x,y,1/2+z
1/2+x,1/2-y,1/2+z
loop_
_atom_site_type_symbol
_atom_site_label
_atom_site_fract_x
_atom_site_fract_y
_atom_site_fract_z
Si Si1 0.166911 0.113737 0.678596
Si Si2 0.493515 0.053461 0.830147
Si Si3 0.752206 0.890045 0.470827
Si Si4 0.500000 0.250000 0.250000
Si Si5 0.750000 0.000000 0.701960
Si Si6 0.497295 0.892922 0.021130
O O1 0.241173 0.132892 0.611197
O O2 0.080186 0.190585 0.700927
O O3 0.238082 0.085766 0.746745
O O4 0.088077 0.025632 0.663275
O O5 0.500000 0.086101 0.750000
O O6 0.367270 0.009015 0.839271
O O7 0.506515 0.117575 0.895441
O O8 0.629616 0.859247 0.503265
O O9 0.877263 0.857955 0.498032
O O10 0.750000 0.000000 0.476673
O O11 0.500000 0.000000 0.000000
#
# Coordination Sequence:
#
# PCOD9505612 Si02
#       6
#    16  16  16   4   8  16
#     4  11  19  36  53  84 126 158 202 256 318 364
#     4  10  18  30  49  81 116 148 197 260 305 352
#     4  10  18  32  54  84 125 152 204 264 316 358
#     4  12  24  36  56  92 130 174 202 248 326 408
#     4  10  18  30  54  78 114 150 206 260 296 356
#     4  10  19  29  52  87 121 154 194 268 318 355
#
# _framework density 23.014381
#
# number of rings (size 3 to 8) (size 9 to 14) (size 15 to 20)
#    0.000    1.684    8.421    1.263    4.421    0.000 
#    0.000    0.000    0.000    1.263    0.000   16.947 
#    0.000    0.000    0.000    0.000    0.000    0.000 
#
# Total GULP energy -211960.642555 kJ/mol
# GULP energy per Si atom -5577.911646 kJ/mol
# Density = 2.296200 g / cm^3
# Si number density = 23.014381 Si / 1000 Ang^3
#
#
#
# Elastic Constant Matrix: (Units=GPa)
#
#
# Indices 1 2 3 4 5 6 
#
# 1 234.2354 7.7424 28.7670 0.0000 0.0000 0.0000
# 2 7.7424 44.2279 3.8517 0.0000 0.0000 0.0000
# 3 28.7670 3.8517 76.1298 0.0000 0.0000 0.0000
# 4 0.0000 0.0000 0.0000 -17.0555 0.0000 0.0000
# 5 0.0000 0.0000 0.0000 0.0000 20.5132 0.0000
# 6 0.0000 0.0000 0.0000 0.0000 0.0000 12.9307
#
#
#
# Elastic Compliance Matrix: (Units=1/GPa)
#
#
# Indices 1 2 3 4 5 6 
#
# 1 0.004495 -0.000642 -0.001666 0.000000 0.000000 0.000000
# 2 -0.000642 0.022802 -0.000911 0.000000 0.000000 0.000000
# 3 -0.001666 -0.000911 0.013811 0.000000 0.000000 0.000000
# 4 0.000000 0.000000 0.000000 -0.058632 0.000000 0.000000
# 5 0.000000 0.000000 0.000000 0.000000 0.048749 0.000000
# 6 0.000000 0.000000 0.000000 0.000000 0.000000 0.077336
#
#
# Mechanical properties :
#
#
# Convention : Reuss Voigt Hill
#
# Bulk Modulus (GPa) = 28.84334 48.36837 38.60585
# Shear Modulus (GPa) = 39.50844 24.22647 31.86746
#
# Velocity S-wave (km/s) = 4.14778 3.24800 3.72516
# Velocity P-wave (km/s) = 5.95809 5.92691 5.94252
#
# Compressibility (1/GPa) = 0.03467005
#
# Stress axis : x y z
#
# Youngs Moduli (GPa) = 222.46761 43.85608 72.40544
#
# Poissons Ratio (x) = 0.02815 0.12063
# Poissons Ratio (y) = 0.14278 0.06597
# Poissons Ratio (z) = 0.37064 0.03996
#
# Static dielectric constant tensor:
#      x y z
#    x 1.343880 0.000000 0.000000 
#    y 0.000000 1.831030 0.000000 
#    z 0.000000 0.000000 1.884970 
# 
# From -- ./inp_files/37575.got.cif
#   From: 2010.05.17/outbox.cif.g08.bks.cpg/sg68_19_cif.got.tgz:37575.got - 2010.06.03 18:57:09.
