data_PCOD9505031
_publ_section_title
;
Structure prediction by ZEFSAII (Michael W. Deem and Ramdas Pophale) SiO2 
 PCOD9505031
Probable space group: C M M A
;
_chemical_formula_sum "Si O2"
_cell_formula_units_Z 60
_cell_length_a 14.601012
_cell_length_b 14.355545
_cell_length_c 11.907761
_cell_angle_alpha 90.000000
_cell_angle_beta 90.000000
_cell_angle_gamma 90.000000
_cell_volume 2495.932017
_symmetry_space_group_name_H-M "C M M A"
_symmetry_group_IT_number 67
_symmetry_cell_setting 'orthorhombic'
loop_
_space_group_symop_operation_xyz
x,y,z
-x,1/2-y,z
x,-y,-z
-x,1/2+y,-z
-x,-y,-z
x,1/2+y,-z
-x,y,z
x,1/2-y,z
1/2+x,1/2+y,z
1/2-x,-y,z
1/2+x,1/2-y,-z
1/2-x,y,-z
1/2-x,1/2-y,-z
1/2+x,y,-z
1/2-x,1/2+y,z
1/2+x,-y,z
loop_
_atom_site_type_symbol
_atom_site_label
_atom_site_fract_x
_atom_site_fract_y
_atom_site_fract_z
Si Si1 0.500000 0.524286 0.368489
Si Si2 0.792667 0.250000 0.354996
Si Si3 0.166497 0.750000 0.909401
Si Si4 0.679890 0.917369 0.716494
Si Si5 0.395111 0.407130 0.051242
Si Si6 0.500000 0.750000 0.379579
O O1 0.500000 0.500000 0.500000
O O2 0.410724 0.470044 0.324113
O O3 0.500000 0.636735 0.342499
O O4 0.819993 0.250000 0.222680
O O5 0.727993 0.158624 0.364026
O O6 0.890918 0.250000 0.419046
O O7 0.250000 0.750000 0.000000
O O8 0.108799 0.662069 0.948063
O O9 0.655627 0.872690 0.837306
O O10 0.750000 0.000000 0.737369
O O11 0.500000 0.424637 0.084021
O O12 0.353694 0.500000 0.000000
#
# Coordination Sequence:
#
# PCOD9505031 Si02
#       6
#     8   8   8  16  16   4
#     4  12  30  54  82 111 147 188 250 319 393 461
#     4  12  26  43  75 109 154 202 251 302 372 448
#     4  12  23  36  59 101 144 196 245 291 344 438
#     4  12  24  45  73 108 147 198 253 310 372 450
#     4  11  24  38  62  97 145 198 244 297 358 430
#     4  12  28  54  76 108 148 194 234 306 382 450
#
# _framework density 24.039116
#
# number of rings (size 3 to 8) (size 9 to 14) (size 15 to 20)
#    0.000    0.267    6.667    2.000    1.867    2.133 
#    0.000    1.333    0.000    0.000    0.000    0.000 
#    0.000    0.000    0.000    0.000    0.000    0.000 
#
# Total GULP energy -167368.876243 kJ/mol
# GULP energy per Si atom -5578.962541 kJ/mol
# Density = 2.398440 g / cm^3
# Si number density = 24.039116 Si / 1000 Ang^3
#
#
#
# Elastic Constant Matrix: (Units=GPa)
#
#
# Indices 1 2 3 4 5 6 
#
# 1 171.5064 35.3293 25.7243 0.0000 0.0000 0.0000
# 2 35.3293 151.9356 4.7787 0.0000 0.0000 0.0000
# 3 25.7243 4.7787 91.7835 0.0000 0.0000 0.0000
# 4 0.0000 0.0000 0.0000 1.7662 0.0000 0.0000
# 5 0.0000 0.0000 0.0000 0.0000 12.2704 0.0000
# 6 0.0000 0.0000 0.0000 0.0000 0.0000 46.5428
#
#
#
# Elastic Compliance Matrix: (Units=1/GPa)
#
#
# Indices 1 2 3 4 5 6 
#
# 1 0.006382 -0.001430 -0.001714 0.000000 0.000000 0.000000
# 2 -0.001430 0.006913 0.000041 0.000000 0.000000 0.000000
# 3 -0.001714 0.000041 0.011374 0.000000 0.000000 0.000000
# 4 0.000000 0.000000 0.000000 0.566189 0.000000 0.000000
# 5 0.000000 0.000000 0.000000 0.000000 0.081497 0.000000
# 6 0.000000 0.000000 0.000000 0.000000 0.000000 0.021486
#
#
# Mechanical properties :
#
#
# Convention : Reuss Voigt Hill
#
# Bulk Modulus (GPa) = 54.16602 60.76558 57.46580
# Shear Modulus (GPa) = 7.08013 35.40875 21.24444
#
# Velocity S-wave (km/s) = 1.71804 3.84208 2.97601
# Velocity P-wave (km/s) = 5.14946 6.70931 5.98046
#
# Compressibility (1/GPa) = 0.01846176
#
# Stress axis : x y z
#
# Youngs Moduli (GPa) = 156.68016 144.65486 87.92327
#
# Poissons Ratio (x) = 0.20688 0.15073
# Poissons Ratio (y) = 0.22408 -0.00360
# Poissons Ratio (z) = 0.26860 -0.00592
#
# Static dielectric constant tensor:
#      x y z
#    x 2.037380 0.000000 0.000000 
#    y 0.000000 1.990340 0.000000 
#    z 0.000000 0.000000 1.965340 
# 
# From -- ./inp_files/26743.got.cif
#   From: 2010.05.17/outbox.cif.g08.bks.cpg/sg67_14_cif.got.tgz:26743.got - 2010.06.03 18:28:57.
