data_PCOD9505565
_publ_section_title
;
Structure prediction by ZEFSAII (Michael W. Deem and Ramdas Pophale) SiO2 
 PCOD9505565
Probable space group: C C C A
;
_chemical_formula_sum "Si O2"
_cell_formula_units_Z 48
_cell_length_a 17.684173
_cell_length_b 8.157122
_cell_length_c 11.798930
_cell_angle_alpha 90.000000
_cell_angle_beta 90.000000
_cell_angle_gamma 90.000000
_cell_volume 1702.018739
_symmetry_space_group_name_H-M "C C C A"
_symmetry_group_IT_number 68
_space_group.IT_coordinate_system_code '2'
_symmetry_cell_setting 'orthorhombic'
loop_
_space_group_symop_operation_xyz
x,y,z
-x,1/2-y,z
x,1/2-y,1/2-z
-x,y,1/2-z
-x,-y,-z
x,1/2+y,-z
-x,1/2+y,1/2+z
x,-y,1/2+z
1/2+x,1/2+y,z
1/2-x,-y,z
1/2+x,-y,1/2-z
1/2-x,1/2+y,1/2-z
1/2-x,1/2-y,-z
1/2+x,y,-z
1/2-x,y,1/2+z
1/2+x,1/2-y,1/2+z
loop_
_atom_site_type_symbol
_atom_site_label
_atom_site_fract_x
_atom_site_fract_y
_atom_site_fract_z
Si Si1 0.500000 0.750000 0.917862
Si Si2 0.377078 0.014209 0.092700
Si Si3 0.000000 0.519582 0.750000
Si Si4 0.776923 0.750000 0.250000
Si Si5 0.250000 0.000000 0.923808
O O1 0.566193 0.857176 0.970801
O O2 0.537993 0.611411 0.837467
O O3 0.327344 0.121302 0.179767
O O4 0.435044 0.906527 0.169726
O O5 0.319025 0.945074 0.002818
O O6 0.729633 0.649600 0.341801
#
# Coordination Sequence:
#
# PCOD9505565 Si02
#       5
#     8  16   8   8   8
#     4   7  12  32  70  85 132 175 228 292 372 413
#     4  10  17  41  65  99 128 207 232 314 371 446
#     4   7  12  32  70  86 134 176 234 298 374 428
#     4  12  22  45  56  99 154 196 244 318 342 465
#     4  12  28  34  70  98 160 200 252 282 396 428
#
# _framework density 28.201805
#
# number of rings (size 3 to 8) (size 9 to 14) (size 15 to 20)
#    2.000    0.333    3.333    2.000    0.000    0.000 
#    0.000    6.667    0.000    1.000    0.000    0.000 
#    0.000    2.667    0.000    0.000    0.000    0.000 
#
# Total GULP energy -133938.520796 kJ/mol
# GULP energy per Si atom -5580.771700 kJ/mol
# Density = 2.813762 g / cm^3
# Si number density = 28.201805 Si / 1000 Ang^3
#
#
#
# Elastic Constant Matrix: (Units=GPa)
#
#
# Indices 1 2 3 4 5 6 
#
# 1 123.2746 34.0992 78.8712 0.0000 0.0000 0.0000
# 2 34.0992 50.3576 73.6796 0.0000 0.0000 0.0000
# 3 78.8712 73.6796 139.2594 0.0000 0.0000 0.0000
# 4 0.0000 0.0000 0.0000 55.4110 0.0000 0.0000
# 5 0.0000 0.0000 0.0000 0.0000 1.9705 0.0000
# 6 0.0000 0.0000 0.0000 0.0000 0.0000 27.9688
#
#
#
# Elastic Compliance Matrix: (Units=1/GPa)
#
#
# Indices 1 2 3 4 5 6 
#
# 1 0.013608 0.009128 -0.012536 0.000000 0.000000 0.000000
# 2 0.009128 0.094035 -0.054922 0.000000 0.000000 0.000000
# 3 -0.012536 -0.054922 0.043339 0.000000 0.000000 0.000000
# 4 0.000000 0.000000 0.000000 0.018047 0.000000 0.000000
# 5 0.000000 0.000000 0.000000 0.000000 0.507488 0.000000
# 6 0.000000 0.000000 0.000000 0.000000 0.000000 0.035754
#
#
# Mechanical properties :
#
#
# Convention : Reuss Voigt Hill
#
# Bulk Modulus (GPa) = 29.13654 76.24352 52.69003
# Shear Modulus (GPa) = 5.94975 25.48616 15.71796
#
# Velocity S-wave (km/s) = 1.45406 3.00943 2.36336
# Velocity P-wave (km/s) = 3.62945 6.25853 5.11577
#
# Compressibility (1/GPa) = 0.03432116
#
# Stress axis : x y z
#
# Youngs Moduli (GPa) = 73.48691 10.63438 23.07390
#
# Poissons Ratio (x) = -0.09707 0.28926
# Poissons Ratio (y) = -0.67078 1.26726
# Poissons Ratio (z) = 0.92126 0.58406
#
# Static dielectric constant tensor:
#      x y z
#    x 2.138340 0.000000 0.000000 
#    y 0.000000 2.200930 0.000000 
#    z 0.000000 0.000000 2.185080 
# 
# From -- ./inp_files/16039.got.cif
#   From: 2010.05.17/outbox.cif.g08.bks.cpg/sg68_9_cif.got.tgz:16039.got - 2010.06.03 18:57:09.
