data_PCOD9505993
_publ_section_title
;
Structure prediction by ZEFSAII (Michael W. Deem and Ramdas Pophale) SiO2 
 PCOD9505993
Probable space group: C C C A
;
_chemical_formula_sum "Si O2"
_cell_formula_units_Z 112
_cell_length_a 34.160504
_cell_length_b 33.537521
_cell_length_c 5.153793
_cell_angle_alpha 90.000000
_cell_angle_beta 90.000000
_cell_angle_gamma 90.000000
_cell_volume 5904.487378
_symmetry_space_group_name_H-M "C C C A"
_symmetry_group_IT_number 68
_space_group.IT_coordinate_system_code '2'
_symmetry_cell_setting 'orthorhombic'
loop_
_space_group_symop_operation_xyz
x,y,z
-x,1/2-y,z
x,1/2-y,1/2-z
-x,y,1/2-z
-x,-y,-z
x,1/2+y,-z
-x,1/2+y,1/2+z
x,-y,1/2+z
1/2+x,1/2+y,z
1/2-x,-y,z
1/2+x,-y,1/2-z
1/2-x,1/2+y,1/2-z
1/2-x,1/2-y,-z
1/2+x,y,-z
1/2-x,y,1/2+z
1/2+x,1/2-y,1/2+z
loop_
_atom_site_type_symbol
_atom_site_label
_atom_site_fract_x
_atom_site_fract_y
_atom_site_fract_z
Si Si1 0.910779 0.099953 0.812910
Si Si2 0.906928 0.706616 0.684417
Si Si3 0.724923 0.659823 0.785230
Si Si4 0.637470 0.319109 0.184024
Si Si5 0.545514 0.873972 0.313166
Si Si6 0.359318 0.474993 0.161276
Si Si7 0.774990 0.436086 0.754118
O O1 0.878852 0.135570 0.799141
O O2 0.943256 0.110142 0.596740
O O3 0.889613 0.059222 0.741187
O O4 0.929960 0.101974 0.096282
O O5 0.923283 0.750000 0.750000
O O6 0.886305 0.704398 0.405209
O O7 0.938839 0.671550 0.701331
O O8 0.874343 0.696788 0.902204
O O9 0.756149 0.669510 0.561477
O O10 0.683476 0.680470 0.736354
O O11 0.718599 0.611782 0.770261
O O12 0.500000 0.876198 0.250000
O O13 0.364320 0.510818 0.366411
O O14 0.315627 0.457948 0.198110
O O15 0.756464 0.446079 0.476452
#
# Coordination Sequence:
#
# PCOD9505993 Si02
#       7
#    16  16  16  16  16  16  16
#     4  10  21  39  58  84 113 144 195 226 266 339
#     4  10  21  35  58  89 118 145 174 218 278 341
#     4  10  19  32  54  79 105 143 195 244 275 310
#     4  10  19  36  58  78 111 153 191 228 270 324
#     4  10  21  38  65  89 112 145 176 223 277 331
#     4  12  24  37  57  81 115 155 189 236 286 327
#     4  10  21  35  52  78 113 148 187 236 288 331
#
# _framework density 18.968623000000001
#
# number of rings (size 3 to 8) (size 9 to 14) (size 15 to 20)
#    0.000    1.714    1.429    3.429    0.000    2.000 
#    0.000    0.000    0.000   22.286    0.000    0.000 
#    0.000    0.000    0.000    0.000    0.000    0.000 
#
# Total GULP energy -312997.901841 kJ/mol
# GULP energy per Si atom -5589.248247 kJ/mol
# Density = 1.892545 g / cm^3
# Si number density = 18.968623 Si / 1000 Ang^3
#
#
#
# Elastic Constant Matrix: (Units=GPa)
#
#
# Indices 1 2 3 4 5 6 
#
# 1 58.6817 6.9625 -22.8020 0.0000 0.0000 0.0000
# 2 6.9625 27.1319 -13.4385 0.0000 0.0000 0.0000
# 3 -22.8020 -13.4385 54.8589 0.0000 0.0000 0.0000
# 4 0.0000 0.0000 0.0000 17.4490 0.0000 0.0000
# 5 0.0000 0.0000 0.0000 0.0000 17.1501 0.0000
# 6 0.0000 0.0000 0.0000 0.0000 0.0000 8.7088
#
#
#
# Elastic Compliance Matrix: (Units=1/GPa)
#
#
# Indices 1 2 3 4 5 6 
#
# 1 0.020356 -0.001176 0.008173 0.000000 0.000000 0.000000
# 2 -0.001176 0.042014 0.009803 0.000000 0.000000 0.000000
# 3 0.008173 0.009803 0.024027 0.000000 0.000000 0.000000
# 4 0.000000 0.000000 0.000000 0.057310 0.000000 0.000000
# 5 0.000000 0.000000 0.000000 0.000000 0.058309 0.000000
# 6 0.000000 0.000000 0.000000 0.000000 0.000000 0.114826
#
#
# Mechanical properties :
#
#
# Convention : Reuss Voigt Hill
#
# Bulk Modulus (GPa) = 8.33336 9.12406 8.72871
# Shear Modulus (GPa) = 15.46836 19.99162 17.72999
#
# Velocity S-wave (km/s) = 2.85874 3.24995 3.06060
# Velocity P-wave (km/s) = 3.91143 4.34781 4.13538
#
# Compressibility (1/GPa) = 0.11999956
#
# Stress axis : x y z
#
# Youngs Moduli (GPa) = 49.12457 23.80144 41.61952
#
# Poissons Ratio (x) = 0.02798 -0.34016
# Poissons Ratio (y) = 0.05775 -0.40801
# Poissons Ratio (z) = -0.40150 -0.23333
#
# Static dielectric constant tensor:
#      x y z
#    x 1.605790 0.000000 0.000000 
#    y 0.000000 1.669930 0.000000 
#    z 0.000000 0.000000 1.637770 
# 
# From -- ./inp_files/2943.got.cif
#   From: 2010.05.17/outbox.cif.g08.bks.cpg/sg68_2_cif.got.tgz:2943.got - 2010.06.03 18:57:09.
