data_PCOD9505727
_publ_section_title
;
Structure prediction by ZEFSAII (Michael W. Deem and Ramdas Pophale) SiO2 
 PCOD9505727
Probable space group: C C C A
;
_chemical_formula_sum "Si O2"
_cell_formula_units_Z 128
_cell_length_a 18.146514
_cell_length_b 17.602398
_cell_length_c 20.001446
_cell_angle_alpha 90.000000
_cell_angle_beta 90.000000
_cell_angle_gamma 90.000000
_cell_volume 6388.905119
_symmetry_space_group_name_H-M "C C C A"
_symmetry_group_IT_number 68
_space_group.IT_coordinate_system_code '2'
_symmetry_cell_setting 'orthorhombic'
loop_
_space_group_symop_operation_xyz
x,y,z
-x,1/2-y,z
x,1/2-y,1/2-z
-x,y,1/2-z
-x,-y,-z
x,1/2+y,-z
-x,1/2+y,1/2+z
x,-y,1/2+z
1/2+x,1/2+y,z
1/2-x,-y,z
1/2+x,-y,1/2-z
1/2-x,1/2+y,1/2-z
1/2-x,1/2-y,-z
1/2+x,y,-z
1/2-x,y,1/2+z
1/2+x,1/2-y,1/2+z
loop_
_atom_site_type_symbol
_atom_site_label
_atom_site_fract_x
_atom_site_fract_y
_atom_site_fract_z
Si Si1 0.564422 0.977863 0.586001
Si Si2 0.181692 0.536409 0.847060
Si Si3 0.757321 0.146655 0.956995
Si Si4 0.601745 0.832539 0.295212
Si Si5 0.953572 0.857759 0.646816
Si Si6 0.811673 0.219129 0.122160
Si Si7 0.283789 0.415828 0.103745
Si Si8 0.595162 0.066388 0.449099
O O1 0.547199 0.052171 0.631780
O O2 0.595154 0.016097 0.517084
O O3 0.629575 0.926589 0.615315
O O4 0.491721 0.928893 0.568098
O O5 0.250000 0.500000 0.809363
O O6 0.220722 0.589899 0.902579
O O7 0.132836 0.583369 0.797559
O O8 0.130275 0.480883 0.888567
O O9 0.726876 0.228673 0.933936
O O10 0.846300 0.135444 0.955519
O O11 0.730382 0.114326 0.028070
O O12 0.538056 0.830415 0.352465
O O13 0.570261 0.828741 0.220832
O O14 0.666506 0.777808 0.319543
O O15 0.889851 0.819913 0.601850
O O16 0.759454 0.149558 0.144207
O O17 0.250000 0.500000 0.111392
#
# Coordination Sequence:
#
# PCOD9505727 Si02
#       8
#    16  16  16  16  16  16  16  16
#     4  11  21  33  59  89 120 162 196 246 301 362
#     4   9  16  32  56  83 115 154 195 241 294 354
#     4  10  19  35  56  84 118 158 192 243 301 362
#     4  10  22  38  58  83 120 156 204 255 304 351
#     4  11  21  39  59  84 119 159 201 253 305 353
#     4  11  23  35  58  82 113 160 200 238 304 363
#     4  12  20  37  56  87 126 153 192 247 311 363
#     4  10  18  33  58  86 121 155 202 239 295 370
#
# _framework density 20.034732000000002
#
# number of rings (size 3 to 8) (size 9 to 14) (size 15 to 20)
#    0.000    1.500    5.000    1.500    0.000    1.000 
#    2.250    1.875    0.000    0.000    0.000    0.000 
#    0.000    4.500    0.000    0.000    0.000    0.000 
#
# Total GULP energy -356459.119909 kJ/mol
# GULP energy per Si atom -5569.673749 kJ/mol
# Density = 1.998913 g / cm^3
# Si number density = 20.034732 Si / 1000 Ang^3
#
#
#
# Elastic Constant Matrix: (Units=GPa)
#
#
# Indices 1 2 3 4 5 6 
#
# 1 141.6173 51.0597 17.0005 0.0000 0.0000 0.0000
# 2 51.0597 88.7803 16.0456 0.0000 0.0000 0.0000
# 3 17.0005 16.0456 34.7261 0.0000 0.0000 0.0000
# 4 0.0000 0.0000 0.0000 20.4335 0.0000 0.0000
# 5 0.0000 0.0000 0.0000 0.0000 17.6701 0.0000
# 6 0.0000 0.0000 0.0000 0.0000 0.0000 41.9092
#
#
#
# Elastic Compliance Matrix: (Units=1/GPa)
#
#
# Indices 1 2 3 4 5 6 
#
# 1 0.009062 -0.004812 -0.002213 0.000000 0.000000 0.000000
# 2 -0.004812 0.014845 -0.004504 0.000000 0.000000 0.000000
# 3 -0.002213 -0.004504 0.031961 0.000000 0.000000 0.000000
# 4 0.000000 0.000000 0.000000 0.048939 0.000000 0.000000
# 5 0.000000 0.000000 0.000000 0.000000 0.056593 0.000000
# 6 0.000000 0.000000 0.000000 0.000000 0.000000 0.023861
#
#
# Mechanical properties :
#
#
# Convention : Reuss Voigt Hill
#
# Bulk Modulus (GPa) = 30.47741 48.14838 39.31289
# Shear Modulus (GPa) = 22.80452 28.07042 25.43747
#
# Velocity S-wave (km/s) = 3.37746 3.74717 3.56711
# Velocity P-wave (km/s) = 5.51860 6.54266 6.05232
#
# Compressibility (1/GPa) = 0.03281119
#
# Stress axis : x y z
#
# Youngs Moduli (GPa) = 110.35346 67.36245 31.28800
#
# Poissons Ratio (x) = 0.32413 0.06924
# Poissons Ratio (y) = 0.53099 0.14091
# Poissons Ratio (z) = 0.24421 0.30338
#
# Static dielectric constant tensor:
#      x y z
#    x 1.772370 0.000000 0.000000 
#    y 0.000000 1.781920 0.000000 
#    z 0.000000 0.000000 1.745040 
# 
# From -- ./inp_files/46205.got.cif
#   From: 2010.05.17/outbox.cif.g08.bks.cpg/sg68_24_cif.got.tgz:46205.got - 2010.06.03 18:57:09.
