data_PCOD9505363
_publ_section_title
;
Structure prediction by ZEFSAII (Michael W. Deem and Ramdas Pophale) SiO2 
 PCOD9505363
Probable space group: C C C A
;
_chemical_formula_sum "Si O2"
_cell_formula_units_Z 88
_cell_length_a 5.431294
_cell_length_b 26.513148
_cell_length_c 26.575001
_cell_angle_alpha 90.000000
_cell_angle_beta 90.000000
_cell_angle_gamma 90.000000
_cell_volume 3826.818790
_symmetry_space_group_name_H-M "C C C A"
_symmetry_group_IT_number 68
_space_group.IT_coordinate_system_code '2'
_symmetry_cell_setting 'orthorhombic'
loop_
_space_group_symop_operation_xyz
x,y,z
-x,1/2-y,z
x,1/2-y,1/2-z
-x,y,1/2-z
-x,-y,-z
x,1/2+y,-z
-x,1/2+y,1/2+z
x,-y,1/2+z
1/2+x,1/2+y,z
1/2-x,-y,z
1/2+x,-y,1/2-z
1/2-x,1/2+y,1/2-z
1/2-x,1/2-y,-z
1/2+x,y,-z
1/2-x,y,1/2+z
1/2+x,1/2-y,1/2+z
loop_
_atom_site_type_symbol
_atom_site_label
_atom_site_fract_x
_atom_site_fract_y
_atom_site_fract_z
Si Si1 0.500000 0.966028 0.250000
Si Si2 0.999508 0.033168 0.137877
Si Si3 0.250529 0.282343 0.882858
Si Si4 0.748595 0.808907 0.269802
Si Si5 0.080215 0.068554 0.474413
Si Si6 0.369204 0.818687 0.514838
O O1 0.494033 0.940986 0.193754
O O2 0.250000 0.000000 0.250199
O O3 0.975419 0.062612 0.084800
O O4 0.750000 0.000000 0.138483
O O5 0.250000 0.000000 0.134225
O O6 0.500000 0.250000 0.890555
O O7 0.266170 0.307983 0.829146
O O8 0.215009 0.321011 0.927859
O O9 0.000000 0.250000 0.880679
O O10 0.750359 0.750000 0.250000
O O11 0.500000 0.832599 0.250000
O O12 0.000000 0.832406 0.250000
O O13 0.349857 0.049100 0.492014
O O14 0.094323 0.127624 0.488679
O O15 0.639129 0.794430 0.513849
#
# Coordination Sequence:
#
# PCOD9505363 Si02
#       6
#     8  16  16  16  16  16
#     4   8  16  30  48  80 120 144 175 222 279 324
#     4  10  19  32  55  88 119 146 184 232 275 330
#     4  12  21  32  56  82 105 138 181 237 281 335
#     4  10  16  30  48  76 109 131 162 216 284 347
#     4  10  21  37  55  77 111 158 187 226 278 332
#     4  10  23  40  52  74 107 149 189 222 280 336
#
# _framework density 22.995602000000002
#
# number of rings (size 3 to 8) (size 9 to 14) (size 15 to 20)
#    0.000    1.818    3.636    2.182    0.000    4.364 
#    0.000    0.000    0.000    0.000   28.364    0.000 
#    0.000    0.000    0.000    0.000    0.000    0.000 
#
# Total GULP energy -245486.072716 kJ/mol
# GULP energy per Si atom -5579.228925 kJ/mol
# Density = 2.294326 g / cm^3
# Si number density = 22.995602 Si / 1000 Ang^3
#
#
#
# Elastic Constant Matrix: (Units=GPa)
#
#
# Indices 1 2 3 4 5 6 
#
# 1 242.6382 38.1742 62.0263 0.0000 0.0000 0.0000
# 2 38.1742 52.0134 45.1993 0.0000 0.0000 0.0000
# 3 62.0263 45.1993 283.1969 0.0000 0.0000 0.0000
# 4 0.0000 0.0000 0.0000 21.8705 0.0000 0.0000
# 5 0.0000 0.0000 0.0000 0.0000 38.8250 0.0000
# 6 0.0000 0.0000 0.0000 0.0000 0.0000 15.0275
#
#
#
# Elastic Compliance Matrix: (Units=1/GPa)
#
#
# Indices 1 2 3 4 5 6 
#
# 1 0.004735 -0.002988 -0.000560 0.000000 0.000000 0.000000
# 2 -0.002988 0.024208 -0.003209 0.000000 0.000000 0.000000
# 3 -0.000560 -0.003209 0.004166 0.000000 0.000000 0.000000
# 4 0.000000 0.000000 0.000000 0.045724 0.000000 0.000000
# 5 0.000000 0.000000 0.000000 0.000000 0.025757 0.000000
# 6 0.000000 0.000000 0.000000 0.000000 0.000000 0.066545
#
#
# Mechanical properties :
#
#
# Convention : Reuss Voigt Hill
#
# Bulk Modulus (GPa) = 51.03742 96.51645 73.77694
# Shear Modulus (GPa) = 26.15341 43.97449 35.06395
#
# Velocity S-wave (km/s) = 3.37608 4.37773 3.90912
# Velocity P-wave (km/s) = 6.11881 8.22286 7.24760
#
# Compressibility (1/GPa) = 0.01959347
#
# Stress axis : x y z
#
# Youngs Moduli (GPa) = 211.20800 41.30913 240.03997
#
# Poissons Ratio (x) = 0.12344 0.13444
# Poissons Ratio (y) = 0.63114 0.77033
# Poissons Ratio (z) = 0.11829 0.13257
#
# Static dielectric constant tensor:
#      x y z
#    x 1.926300 0.000000 0.000000 
#    y 0.000000 1.532230 0.000000 
#    z 0.000000 0.000000 1.863220 
# 
# From -- ./inp_files/42401.got.cif
#   From: 2010.05.17/outbox.cif.g08.bks.cpg/sg68_22_cif.got.tgz:42401.got - 2010.06.03 18:57:09.
