data_PCOD9505697
_publ_section_title
;
Structure prediction by ZEFSAII (Michael W. Deem and Ramdas Pophale) SiO2 
 PCOD9505697
Probable space group: C C C A
;
_chemical_formula_sum "Si O2"
_cell_formula_units_Z 72
_cell_length_a 16.714998
_cell_length_b 11.701219
_cell_length_c 13.489351
_cell_angle_alpha 90.000000
_cell_angle_beta 90.000000
_cell_angle_gamma 90.000000
_cell_volume 2638.326211
_symmetry_space_group_name_H-M "C C C A"
_symmetry_group_IT_number 68
_space_group.IT_coordinate_system_code '2'
_symmetry_cell_setting 'orthorhombic'
loop_
_space_group_symop_operation_xyz
x,y,z
-x,1/2-y,z
x,1/2-y,1/2-z
-x,y,1/2-z
-x,-y,-z
x,1/2+y,-z
-x,1/2+y,1/2+z
x,-y,1/2+z
1/2+x,1/2+y,z
1/2-x,-y,z
1/2+x,-y,1/2-z
1/2-x,1/2+y,1/2-z
1/2-x,1/2-y,-z
1/2+x,y,-z
1/2-x,y,1/2+z
1/2+x,1/2-y,1/2+z
loop_
_atom_site_type_symbol
_atom_site_label
_atom_site_fract_x
_atom_site_fract_y
_atom_site_fract_z
Si Si1 0.639502 0.981434 0.598950
Si Si2 0.755381 0.703921 0.885410
Si Si3 0.139686 0.896474 0.618854
Si Si4 0.000000 0.250000 0.021493
Si Si5 0.031868 0.086247 0.649065
O O1 0.681464 0.099907 0.624720
O O2 0.674448 0.862211 0.644165
O O3 0.661032 0.958827 0.483710
O O4 0.544659 0.985367 0.609332
O O5 0.789609 0.820171 0.837226
O O6 0.750000 0.750000 0.000000
O O7 0.066538 0.812352 0.587604
O O8 0.102270 0.000008 0.679621
O O9 0.047804 0.329927 0.942341
O O10 0.000000 0.137930 0.750000
#
# Coordination Sequence:
#
# PCOD9505697 Si02
#       5
#    16  16  16   8  16
#     4   9  18  33  54  79 109 148 192 235 281 348
#     4   9  17  31  55  80 105 143 191 239 285 341
#     4  10  18  32  57  84 108 141 191 243 283 336
#     4  10  19  36  59  82 108 152 200 236 285 354
#     4  11  22  35  56  86 120 150 187 243 299 353
#
# _framework density 27.290030000000002
#
# number of rings (size 3 to 8) (size 9 to 14) (size 15 to 20)
#    0.000    2.222    0.000    5.667    0.000    0.000 
#    0.000    5.000    0.000   48.000    0.000    0.000 
#    0.000    0.000    0.000    0.000    0.000    0.000 
#
# Total GULP energy -201288.594677 kJ/mol
# GULP energy per Si atom -5591.349852 kJ/mol
# Density = 2.722792 g / cm^3
# Si number density = 27.290030 Si / 1000 Ang^3
#
#
#
# Elastic Constant Matrix: (Units=GPa)
#
#
# Indices 1 2 3 4 5 6 
#
# 1 87.7518 49.7359 -3.6671 0.0000 0.0000 0.0000
# 2 49.7359 149.4169 23.9646 0.0000 0.0000 0.0000
# 3 -3.6671 23.9646 73.0538 0.0000 0.0000 0.0000
# 4 0.0000 0.0000 0.0000 34.4415 0.0000 0.0000
# 5 0.0000 0.0000 0.0000 0.0000 25.5245 0.0000
# 6 0.0000 0.0000 0.0000 0.0000 0.0000 69.1007
#
#
#
# Elastic Compliance Matrix: (Units=1/GPa)
#
#
# Indices 1 2 3 4 5 6 
#
# 1 0.014443 -0.005197 0.002430 0.000000 0.000000 0.000000
# 2 -0.005197 0.008935 -0.003192 0.000000 0.000000 0.000000
# 3 0.002430 -0.003192 0.014858 0.000000 0.000000 0.000000
# 4 0.000000 0.000000 0.000000 0.029035 0.000000 0.000000
# 5 0.000000 0.000000 0.000000 0.000000 0.039178 0.000000
# 6 0.000000 0.000000 0.000000 0.000000 0.000000 0.014472
#
#
# Mechanical properties :
#
#
# Convention : Reuss Voigt Hill
#
# Bulk Modulus (GPa) = 37.99847 50.03213 44.01530
# Shear Modulus (GPa) = 35.30814 41.82595 38.56704
#
# Velocity S-wave (km/s) = 3.60086 3.91915 3.76337
# Velocity P-wave (km/s) = 5.58949 6.23321 5.92011
#
# Compressibility (1/GPa) = 0.02631685
#
# Stress axis : x y z
#
# Youngs Moduli (GPa) = 69.23734 111.92402 67.30575
#
# Poissons Ratio (x) = 0.58171 -0.16355
# Poissons Ratio (y) = 0.35985 0.21483
# Poissons Ratio (z) = -0.16824 0.35724
#
# Static dielectric constant tensor:
#      x y z
#    x 2.140620 0.000000 0.000000 
#    y 0.000000 2.182610 0.000000 
#    z 0.000000 0.000000 2.213410 
# 
# From -- ./inp_files/25103.got.cif
#   From: 2010.05.17/outbox.cif.g08.bks.cpg/sg68_13_cif.got.tgz:25103.got - 2010.06.03 18:57:09.
