data_PCOD9505573
_publ_section_title
;
Structure prediction by ZEFSAII (Michael W. Deem and Ramdas Pophale) SiO2 
 PCOD9505573
Probable space group: C C C A
;
_chemical_formula_sum "Si O2"
_cell_formula_units_Z 92
_cell_length_a 25.968223
_cell_length_b 19.960859
_cell_length_c 9.715368
_cell_angle_alpha 90.000000
_cell_angle_beta 90.000000
_cell_angle_gamma 90.000000
_cell_volume 5035.941939
_symmetry_space_group_name_H-M "C C C A"
_symmetry_group_IT_number 68
_space_group.IT_coordinate_system_code '2'
_symmetry_cell_setting 'orthorhombic'
loop_
_space_group_symop_operation_xyz
x,y,z
-x,1/2-y,z
x,1/2-y,1/2-z
-x,y,1/2-z
-x,-y,-z
x,1/2+y,-z
-x,1/2+y,1/2+z
x,-y,1/2+z
1/2+x,1/2+y,z
1/2-x,-y,z
1/2+x,-y,1/2-z
1/2-x,1/2+y,1/2-z
1/2-x,1/2-y,-z
1/2+x,y,-z
1/2-x,y,1/2+z
1/2+x,1/2-y,1/2+z
loop_
_atom_site_type_symbol
_atom_site_label
_atom_site_fract_x
_atom_site_fract_y
_atom_site_fract_z
Si Si1 0.263535 0.579857 0.956384
Si Si2 0.686393 0.891025 0.682598
Si Si3 0.425742 0.857654 0.873565
Si Si4 0.141741 0.031910 0.387714
Si Si5 0.000000 0.030302 0.750000
Si Si6 0.000000 0.250000 0.750000
Si Si7 0.919282 0.447813 0.116860
O O1 0.250000 0.500000 0.935918
O O2 0.277272 0.615867 0.814246
O O3 0.217689 0.614438 0.040669
O O4 0.314548 0.579576 0.051456
O O5 0.632429 0.851658 0.683164
O O6 0.669865 0.969186 0.684360
O O7 0.454405 0.921634 0.803200
O O8 0.462514 0.796106 0.840959
O O9 0.421695 0.879268 0.032177
O O10 0.105939 0.060575 0.267349
O O11 0.112353 0.999035 0.518158
O O12 0.974440 0.981684 0.860805
#
# Coordination Sequence:
#
# PCOD9505573 Si02
#       7
#    16  16  16  16   8   4  16
#     4  10  18  27  46  78 124 161 171 212 277 361
#     4  10  19  30  48  79 114 147 190 215 277 338
#     4  10  22  36  59  81 108 152 203 237 282 340
#     4  10  18  29  45  76 125 156 180 209 277 357
#     4  11  18  33  54  89 120 143 178 238 304 353
#     4  10  24  48  64  74 100 162 212 244 280 348
#     4  11  19  31  52  87 119 149 183 232 291 349
#
# _framework density 18.268678000000001
#
# number of rings (size 3 to 8) (size 9 to 14) (size 15 to 20)
#    0.000    1.739    5.217    2.087    4.870    0.000 
#    0.000    0.000    0.000    1.565    0.000    0.000 
#    0.000    0.000    0.000    0.000    0.000    0.000 
#
# Total GULP energy -256428.725469 kJ/mol
# GULP energy per Si atom -5574.537510 kJ/mol
# Density = 1.822710 g / cm^3
# Si number density = 18.268678 Si / 1000 Ang^3
#
#
#
# Elastic Constant Matrix: (Units=GPa)
#
#
# Indices 1 2 3 4 5 6 
#
# 1 124.8019 25.2439 55.6010 0.0000 0.0000 0.0000
# 2 25.2439 34.0563 17.6367 0.0000 0.0000 0.0000
# 3 55.6010 17.6367 97.6154 0.0000 0.0000 0.0000
# 4 0.0000 0.0000 0.0000 0.4173 0.0000 0.0000
# 5 0.0000 0.0000 0.0000 0.0000 47.2928 0.0000
# 6 0.0000 0.0000 0.0000 0.0000 0.0000 20.1384
#
#
#
# Elastic Compliance Matrix: (Units=1/GPa)
#
#
# Indices 1 2 3 4 5 6 
#
# 1 0.011675 -0.005748 -0.005612 0.000000 0.000000 0.000000
# 2 -0.005748 0.035224 -0.003090 0.000000 0.000000 0.000000
# 3 -0.005612 -0.003090 0.013999 0.000000 0.000000 0.000000
# 4 0.000000 0.000000 0.000000 2.396102 0.000000 0.000000
# 5 0.000000 0.000000 0.000000 0.000000 0.021145 0.000000
# 6 0.000000 0.000000 0.000000 0.000000 0.000000 0.049656
#
#
# Mechanical properties :
#
#
# Convention : Reuss Voigt Hill
#
# Bulk Modulus (GPa) = 31.25117 50.38186 40.81652
# Shear Modulus (GPa) = 1.94752 24.10250 13.02501
#
# Velocity S-wave (km/s) = 1.03361 3.63621 2.67305
# Velocity P-wave (km/s) = 4.30906 6.72811 5.64958
#
# Compressibility (1/GPa) = 0.03199880
#
# Stress axis : x y z
#
# Youngs Moduli (GPa) = 85.64948 28.38957 71.43387
#
# Poissons Ratio (x) = 0.16319 0.40087
# Poissons Ratio (y) = 0.49233 0.22073
# Poissons Ratio (z) = 0.48064 0.08772
#
# Static dielectric constant tensor:
#      x y z
#    x 1.700170 0.000000 0.000000 
#    y 0.000000 1.603510 0.000000 
#    z 0.000000 0.000000 1.682380 
# 
# From -- ./inp_files/7338.got.cif
#   From: 2010.05.17/outbox.cif.g08.bks.cpg/sg68_4_cif.got.tgz:7338.got - 2010.06.03 18:57:09.
