data_PCOD9505783
_publ_section_title
;
Structure prediction by ZEFSAII (Michael W. Deem and Ramdas Pophale) SiO2 
 PCOD9505783
Probable space group: C C C A
;
_chemical_formula_sum "Si O2"
_cell_formula_units_Z 88
_cell_length_a 9.574706
_cell_length_b 22.513290
_cell_length_c 23.909785
_cell_angle_alpha 90.000000
_cell_angle_beta 90.000000
_cell_angle_gamma 90.000000
_cell_volume 5153.948611
_symmetry_space_group_name_H-M "C C C A"
_symmetry_group_IT_number 68
_space_group.IT_coordinate_system_code '2'
_symmetry_cell_setting 'orthorhombic'
loop_
_space_group_symop_operation_xyz
x,y,z
-x,1/2-y,z
x,1/2-y,1/2-z
-x,y,1/2-z
-x,-y,-z
x,1/2+y,-z
-x,1/2+y,1/2+z
x,-y,1/2+z
1/2+x,1/2+y,z
1/2-x,-y,z
1/2+x,-y,1/2-z
1/2-x,1/2+y,1/2-z
1/2-x,1/2-y,-z
1/2+x,y,-z
1/2-x,y,1/2+z
1/2+x,1/2-y,1/2+z
loop_
_atom_site_type_symbol
_atom_site_label
_atom_site_fract_x
_atom_site_fract_y
_atom_site_fract_z
Si Si1 0.000000 0.595635 0.250000
Si Si2 0.734876 0.681459 0.254412
Si Si3 0.000321 0.681598 0.842499
Si Si4 0.554888 0.950072 0.870409
Si Si5 0.379969 0.541347 0.527344
Si Si6 0.853304 0.917524 0.907332
O O1 0.862795 0.636871 0.250411
O O2 0.994349 0.557915 0.192900
O O3 0.782882 0.750000 0.250000
O O4 0.620945 0.675196 0.204882
O O5 0.646345 0.671327 0.311140
O O6 0.000000 0.750000 0.861946
O O7 0.042720 0.633979 0.888568
O O8 0.443231 0.929935 0.917115
O O9 0.698864 0.914504 0.880811
O O10 0.587991 0.019033 0.885050
O O11 0.500000 0.500000 0.500000
O O12 0.250000 0.500000 0.542774
O O13 0.336711 0.581048 0.474402
#
# Coordination Sequence:
#
# PCOD9505783 Si02
#       6
#     8  16  16  16  16  16
#     4  12  21  34  52  86 121 136 172 244 292 328
#     4   9  19  34  53  77 110 152 190 219 268 345
#     4   9  18  35  58  79 102 150 197 223 270 335
#     4  10  22  34  53  87 114 148 179 227 298 337
#     4  10  18  35  57  78 105 151 189 215 271 355
#     4  10  18  38  57  77 116 143 185 240 274 333
#
# _framework density 17.074287999999999
#
# number of rings (size 3 to 8) (size 9 to 14) (size 15 to 20)
#    0.000    2.182    5.455    1.364    0.000    4.364 
#    3.273    0.000    0.000    3.273    0.000    0.000 
#    0.000    0.000    0.000    0.000    0.000    0.000 
#
# Total GULP energy -245140.109684 kJ/mol
# GULP energy per Si atom -5571.366129 kJ/mol
# Density = 1.703543 g / cm^3
# Si number density = 17.074288 Si / 1000 Ang^3
#
#
#
# Elastic Constant Matrix: (Units=GPa)
#
#
# Indices 1 2 3 4 5 6 
#
# 1 73.7613 31.4620 29.1911 0.0000 0.0000 0.0000
# 2 31.4620 57.0164 34.9540 0.0000 0.0000 0.0000
# 3 29.1911 34.9540 131.1567 0.0000 0.0000 0.0000
# 4 0.0000 0.0000 0.0000 10.0400 0.0000 0.0000
# 5 0.0000 0.0000 0.0000 0.0000 23.4473 0.0000
# 6 0.0000 0.0000 0.0000 0.0000 0.0000 21.9372
#
#
#
# Elastic Compliance Matrix: (Units=1/GPa)
#
#
# Indices 1 2 3 4 5 6 
#
# 1 0.018016 -0.008944 -0.001626 0.000000 0.000000 0.000000
# 2 -0.008944 0.025405 -0.004780 0.000000 0.000000 0.000000
# 3 -0.001626 -0.004780 0.009260 0.000000 0.000000 0.000000
# 4 0.000000 0.000000 0.000000 0.099602 0.000000 0.000000
# 5 0.000000 0.000000 0.000000 0.000000 0.042649 0.000000
# 6 0.000000 0.000000 0.000000 0.000000 0.000000 0.045585
#
#
# Mechanical properties :
#
#
# Convention : Reuss Voigt Hill
#
# Bulk Modulus (GPa) = 45.49520 50.34985 47.92253
# Shear Modulus (GPa) = 17.95052 22.17336 20.06194
#
# Velocity S-wave (km/s) = 3.24592 3.60757 3.43152
# Velocity P-wave (km/s) = 6.38367 6.84876 6.62030
#
# Compressibility (1/GPa) = 0.02198034
#
# Stress axis : x y z
#
# Youngs Moduli (GPa) = 55.50649 39.36280 107.98913
#
# Poissons Ratio (x) = 0.35208 0.17559
# Poissons Ratio (y) = 0.49648 0.51616
# Poissons Ratio (z) = 0.09025 0.18814
#
# Static dielectric constant tensor:
#      x y z
#    x 1.588010 0.000000 0.000000 
#    y 0.000000 1.565310 0.000000 
#    z 0.000000 0.000000 1.599310 
# 
# From -- ./inp_files/43114.got.cif
#   From: 2010.05.17/outbox.cif.g08.bks.cpg/sg68_22_cif.got.tgz:43114.got - 2010.06.03 18:57:09.
