data_PCOD9505077
_publ_section_title
;
Structure prediction by ZEFSAII (Michael W. Deem and Ramdas Pophale) SiO2 
 PCOD9505077
Probable space group: C M M A
;
_chemical_formula_sum "Si O2"
_cell_formula_units_Z 52
_cell_length_a 9.696497
_cell_length_b 13.992800
_cell_length_c 17.911235
_cell_angle_alpha 90.000000
_cell_angle_beta 90.000000
_cell_angle_gamma 90.000000
_cell_volume 2430.216841
_symmetry_space_group_name_H-M "C M M A"
_symmetry_group_IT_number 67
_symmetry_cell_setting 'orthorhombic'
loop_
_space_group_symop_operation_xyz
x,y,z
-x,1/2-y,z
x,-y,-z
-x,1/2+y,-z
-x,-y,-z
x,1/2+y,-z
-x,y,z
x,1/2-y,z
1/2+x,1/2+y,z
1/2-x,-y,z
1/2+x,1/2-y,-z
1/2-x,y,-z
1/2-x,1/2-y,-z
1/2+x,y,-z
1/2-x,1/2+y,z
1/2+x,-y,z
loop_
_atom_site_type_symbol
_atom_site_label
_atom_site_fract_x
_atom_site_fract_y
_atom_site_fract_z
Si Si1 0.158672 0.133644 0.788137
Si Si2 0.657783 0.133581 0.928864
Si Si3 0.661941 0.356413 0.374898
Si Si4 0.250000 0.500000 0.500000
O O1 0.152299 0.250000 0.788929
O O2 0.261413 0.105641 0.853926
O O3 0.216428 0.109667 0.705637
O O4 0.000000 0.099823 0.799331
O O5 0.500000 0.098905 0.932415
O O6 0.651692 0.250000 0.929101
O O7 0.750000 0.106685 0.000000
O O8 0.500000 0.346597 0.360453
O O9 0.718054 0.250000 0.392646
O O10 0.675690 0.428692 0.442835
#
# Coordination Sequence:
#
# PCOD9505077 Si02
#       4
#    16  16  16   4
#     4   8  14  27  45  63  91 135 179 216 260 315
#     4   9  15  22  36  63  98 133 171 215 260 308
#     4   9  19  35  53  75 106 143 181 223 274 330
#     4  12  20  32  56  84 106 132 176 228 280 332
#
# _framework density 21.397268
#
# number of rings (size 3 to 8) (size 9 to 14) (size 15 to 20)
#    0.000    3.077    0.000    3.692    0.000    3.692 
#    0.000    3.077    0.000    7.385    0.000    1.077 
#    0.000    7.385    0.000    0.923    0.000    0.308 
#
# Total GULP energy -144975.339404 kJ/mol
# GULP energy per Si atom -5575.974592 kJ/mol
# Density = 2.134857 g / cm^3
# Si number density = 21.397268 Si / 1000 Ang^3
#
#
#
# Elastic Constant Matrix: (Units=GPa)
#
#
# Indices 1 2 3 4 5 6 
#
# 1 106.5896 24.1194 82.8922 0.0000 0.0000 0.0000
# 2 24.1194 96.6867 42.6498 0.0000 0.0000 0.0000
# 3 82.8922 42.6498 217.8350 0.0000 0.0000 0.0000
# 4 0.0000 0.0000 0.0000 -126.2944 0.0000 0.0000
# 5 0.0000 0.0000 0.0000 0.0000 25.1330 0.0000
# 6 0.0000 0.0000 0.0000 0.0000 0.0000 61.9227
#
#
#
# Elastic Compliance Matrix: (Units=1/GPa)
#
#
# Indices 1 2 3 4 5 6 
#
# 1 0.013451 -0.001201 -0.004883 0.000000 0.000000 0.000000
# 2 -0.001201 0.011428 -0.001780 0.000000 0.000000 0.000000
# 3 -0.004883 -0.001780 0.006797 0.000000 0.000000 0.000000
# 4 0.000000 0.000000 0.000000 -0.007918 0.000000 0.000000
# 5 0.000000 0.000000 0.000000 0.000000 0.039788 0.000000
# 6 0.000000 0.000000 0.000000 0.000000 0.000000 0.016149
#
#
# Mechanical properties :
#
#
# Convention : Reuss Voigt Hill
#
# Bulk Modulus (GPa) = 62.71027 80.04823 71.37925
# Shear Modulus (GPa) = 49.63199 10.24891 29.94045
#
# Velocity S-wave (km/s) = 4.82139 2.19094 3.74473
# Velocity P-wave (km/s) = 7.76954 6.62510 7.22003
#
# Compressibility (1/GPa) = 0.01594635
#
# Stress axis : x y z
#
# Youngs Moduli (GPa) = 74.34213 87.50678 147.11420
#
# Poissons Ratio (x) = 0.10513 0.71841
# Poissons Ratio (y) = 0.08932 0.26190
# Poissons Ratio (z) = 0.36304 0.15578
#
# Static dielectric constant tensor:
#      x y z
#    x 1.737800 0.000000 0.000000 
#    y 0.000000 1.858980 0.000000 
#    z 0.000000 0.000000 1.790050 
# 
# From -- ./inp_files/31549.got.cif
#   From: 2010.05.17/outbox.cif.g08.bks.cpg/sg67_16_cif.got.tgz:31549.got - 2010.06.03 18:28:57.
