data_PCOD9505880
_publ_section_title
;
Structure prediction by ZEFSAII (Michael W. Deem and Ramdas Pophale) SiO2 
 PCOD9505880
Probable space group: C C C A
;
_chemical_formula_sum "Si O2"
_cell_formula_units_Z 104
_cell_length_a 19.188610
_cell_length_b 16.151234
_cell_length_c 16.336838
_cell_angle_alpha 90.000000
_cell_angle_beta 90.000000
_cell_angle_gamma 90.000000
_cell_volume 5063.108426
_symmetry_space_group_name_H-M "C C C A"
_symmetry_group_IT_number 68
_space_group.IT_coordinate_system_code '2'
_symmetry_cell_setting 'orthorhombic'
loop_
_space_group_symop_operation_xyz
x,y,z
-x,1/2-y,z
x,1/2-y,1/2-z
-x,y,1/2-z
-x,-y,-z
x,1/2+y,-z
-x,1/2+y,1/2+z
x,-y,1/2+z
1/2+x,1/2+y,z
1/2-x,-y,z
1/2+x,-y,1/2-z
1/2-x,1/2+y,1/2-z
1/2-x,1/2-y,-z
1/2+x,y,-z
1/2-x,y,1/2+z
1/2+x,1/2-y,1/2+z
loop_
_atom_site_type_symbol
_atom_site_label
_atom_site_fract_x
_atom_site_fract_y
_atom_site_fract_z
Si Si1 0.950075 0.075628 0.388903
Si Si2 0.089503 0.015517 0.944990
Si Si3 0.881415 0.685921 0.067934
Si Si4 0.500000 0.250000 0.557567
Si Si5 0.654388 0.352013 0.349332
Si Si6 0.218341 0.084211 0.458062
Si Si7 0.574284 0.427624 0.208419
O O1 0.899356 0.046627 0.462321
O O2 0.967376 0.173070 0.390939
O O3 0.926404 0.026827 0.307652
O O4 0.020609 0.032279 0.421203
O O5 0.093309 0.101029 0.898014
O O6 0.150580 0.954979 0.915103
O O7 0.858825 0.756552 0.132046
O O8 0.918972 0.614795 0.119977
O O9 0.937064 0.718002 0.000877
O O10 0.813579 0.649462 0.021646
O O11 0.726036 0.378554 0.394425
O O12 0.638662 0.389799 0.260319
O O13 0.250000 0.000000 0.497008
O O14 0.500000 0.406237 0.250000
#
# Coordination Sequence:
#
# PCOD9505880 Si02
#       7
#    16  16  16   8  16  16  16
#     4  11  20  38  66  99 134 174 231 286 345 417
#     4  10  18  39  64  92 132 183 230 272 342 409
#     4  12  22  40  66 106 141 175 234 293 349 417
#     4  12  22  36  74 108 128 174 240 300 338 406
#     4  11  23  38  62  98 138 183 224 293 351 410
#     4  10  22  40  66  90 136 194 241 272 331 428
#     4  12  24  41  66 101 146 176 220 296 375 418
#
# _framework density 20.540741000000001
#
# number of rings (size 3 to 8) (size 9 to 14) (size 15 to 20)
#    0.000    0.923    6.154    2.769    0.000    0.615 
#    0.000    2.692    0.000    5.538    0.000    0.000 
#    0.000    0.000    0.000    0.000    0.000    0.000 
#
# Total GULP energy -289590.688122 kJ/mol
# GULP energy per Si atom -5569.051695 kJ/mol
# Density = 2.049399 g / cm^3
# Si number density = 20.540741 Si / 1000 Ang^3
#
#
#
# Elastic Constant Matrix: (Units=GPa)
#
#
# Indices 1 2 3 4 5 6 
#
# 1 91.2234 35.9547 28.8579 0.0000 0.0000 0.0000
# 2 35.9547 151.9356 51.1697 0.0000 0.0000 0.0000
# 3 28.8579 51.1697 55.5707 0.0000 0.0000 0.0000
# 4 0.0000 0.0000 0.0000 34.9524 0.0000 0.0000
# 5 0.0000 0.0000 0.0000 0.0000 36.9046 0.0000
# 6 0.0000 0.0000 0.0000 0.0000 0.0000 30.8459
#
#
#
# Elastic Compliance Matrix: (Units=1/GPa)
#
#
# Indices 1 2 3 4 5 6 
#
# 1 0.013263 -0.001187 -0.005794 0.000000 0.000000 0.000000
# 2 -0.001187 0.009647 -0.008266 0.000000 0.000000 0.000000
# 3 -0.005794 -0.008266 0.028616 0.000000 0.000000 0.000000
# 4 0.000000 0.000000 0.000000 0.028610 0.000000 0.000000
# 5 0.000000 0.000000 0.000000 0.000000 0.027097 0.000000
# 6 0.000000 0.000000 0.000000 0.000000 0.000000 0.032419
#
#
# Mechanical properties :
#
#
# Convention : Reuss Voigt Hill
#
# Bulk Modulus (GPa) = 47.55130 58.96601 53.25865
# Shear Modulus (GPa) = 28.22360 32.72374 30.47367
#
# Velocity S-wave (km/s) = 3.71081 3.99571 3.85590
# Velocity P-wave (km/s) = 6.44672 7.07508 6.76820
#
# Compressibility (1/GPa) = 0.02102992
#
# Stress axis : x y z
#
# Youngs Moduli (GPa) = 75.39770 103.66380 34.94608
#
# Poissons Ratio (x) = 0.12307 0.20249
# Poissons Ratio (y) = 0.08951 0.28887
# Poissons Ratio (z) = 0.43688 0.85689
#
# Static dielectric constant tensor:
#      x y z
#    x 1.787420 0.000000 0.000000 
#    y 0.000000 1.800320 0.000000 
#    z 0.000000 0.000000 1.821600 
# 
# From -- ./inp_files/33012.got.cif
#   From: 2010.05.17/outbox.cif.g08.bks.cpg/sg68_17_cif.got.tgz:33012.got - 2010.06.03 18:57:09.
