data_PCOD9505992
_publ_section_title
;
Structure prediction by ZEFSAII (Michael W. Deem and Ramdas Pophale) SiO2 
 PCOD9505992
Probable space group: C C C A
;
_chemical_formula_sum "Si O2"
_cell_formula_units_Z 120
_cell_length_a 17.550153
_cell_length_b 20.544749
_cell_length_c 19.203524
_cell_angle_alpha 90.000000
_cell_angle_beta 90.000000
_cell_angle_gamma 90.000000
_cell_volume 6924.089601
_symmetry_space_group_name_H-M "C C C A"
_symmetry_group_IT_number 68
_space_group.IT_coordinate_system_code '2'
_symmetry_cell_setting 'orthorhombic'
loop_
_space_group_symop_operation_xyz
x,y,z
-x,1/2-y,z
x,1/2-y,1/2-z
-x,y,1/2-z
-x,-y,-z
x,1/2+y,-z
-x,1/2+y,1/2+z
x,-y,1/2+z
1/2+x,1/2+y,z
1/2-x,-y,z
1/2+x,-y,1/2-z
1/2-x,1/2+y,1/2-z
1/2-x,1/2-y,-z
1/2+x,y,-z
1/2-x,y,1/2+z
1/2+x,1/2-y,1/2+z
loop_
_atom_site_type_symbol
_atom_site_label
_atom_site_fract_x
_atom_site_fract_y
_atom_site_fract_z
Si Si1 0.835058 0.271839 0.022996
Si Si2 0.581682 0.881142 0.716088
Si Si3 0.841045 0.504764 0.026445
Si Si4 0.173870 0.250000 0.750000
Si Si5 0.269938 0.825035 0.626559
Si Si6 0.599163 0.353711 0.015075
Si Si7 0.576554 0.116065 0.051245
Si Si8 0.817931 0.459835 0.684260
O O1 0.809758 0.316044 0.087661
O O2 0.750000 0.250000 0.000000
O O3 0.885143 0.207235 0.036210
O O4 0.874957 0.319803 0.968667
O O5 0.500000 0.871739 0.750000
O O6 0.625533 0.813691 0.730837
O O7 0.579982 0.895268 0.634033
O O8 0.619991 0.938925 0.760213
O O9 0.750000 0.500000 0.014128
O O10 0.867594 0.575165 0.997248
O O11 0.849221 0.509580 0.111380
O O12 0.888084 0.445646 0.991223
O O13 0.221807 0.231336 0.682490
O O14 0.347658 0.828398 0.579520
O O15 0.274553 0.894519 0.661440
O O16 0.511094 0.366415 0.032281
O O17 0.750000 0.500000 0.717424
#
# Coordination Sequence:
#
# PCOD9505992 Si02
#       8
#    16  16  16   8  16  16  16  16
#     4  10  19  33  52  76 106 137 175 219 261 314
#     4  11  22  33  50  79 111 139 173 217 270 330
#     4  10  20  36  56  75 102 145 184 222 269 317
#     4  10  19  32  54  76 107 144 172 212 273 324
#     4   9  18  34  54  77 103 138 179 215 260 321
#     4  10  20  33  51  79 108 135 172 218 272 325
#     4  12  22  34  55  81 109 142 181 228 274 320
#     4   9  18  35  53  71 100 140 180 216 262 317
#
# _framework density 17.330798000000001
#
# number of rings (size 3 to 8) (size 9 to 14) (size 15 to 20)
#    0.000    1.867    0.000    8.200    0.000    1.600 
#    0.000    1.333    0.000    0.000    0.000    1.867 
#    0.000    0.000    0.000    0.000    0.000    0.000 
#
# Total GULP energy -334014.541965 kJ/mol
# GULP energy per Si atom -5566.909033 kJ/mol
# Density = 1.729135 g / cm^3
# Si number density = 17.330798 Si / 1000 Ang^3
#
#
#
# Elastic Constant Matrix: (Units=GPa)
#
#
# Indices 1 2 3 4 5 6 
#
# 1 70.2273 35.1009 48.6565 0.0000 0.0000 0.0000
# 2 35.1009 82.0723 35.0394 0.0000 0.0000 0.0000
# 3 48.6565 35.0394 71.8820 0.0000 0.0000 0.0000
# 4 0.0000 0.0000 0.0000 36.3717 0.0000 0.0000
# 5 0.0000 0.0000 0.0000 0.0000 61.3181 0.0000
# 6 0.0000 0.0000 0.0000 0.0000 0.0000 21.3749
#
#
#
# Elastic Compliance Matrix: (Units=1/GPa)
#
#
# Indices 1 2 3 4 5 6 
#
# 1 0.028330 -0.004962 -0.016758 0.000000 0.000000 0.000000
# 2 -0.004962 0.016256 -0.004565 0.000000 0.000000 0.000000
# 3 -0.016758 -0.004565 0.027480 0.000000 0.000000 0.000000
# 4 0.000000 0.000000 0.000000 0.027494 0.000000 0.000000
# 5 0.000000 0.000000 0.000000 0.000000 0.016308 0.000000
# 6 0.000000 0.000000 0.000000 0.000000 0.000000 0.046784
#
#
# Mechanical properties :
#
#
# Convention : Reuss Voigt Hill
#
# Bulk Modulus (GPa) = 51.29211 51.30837 51.30024
# Shear Modulus (GPa) = 22.55093 30.83860 26.69476
#
# Velocity S-wave (km/s) = 3.61114 4.22288 3.92893
# Velocity P-wave (km/s) = 6.85910 7.31072 7.08850
#
# Compressibility (1/GPa) = 0.01949618
#
# Stress axis : x y z
#
# Youngs Moduli (GPa) = 35.29825 61.51761 36.38970
#
# Poissons Ratio (x) = 0.30524 0.60981
# Poissons Ratio (y) = 0.17514 0.16613
# Poissons Ratio (z) = 0.59152 0.28084
#
# Static dielectric constant tensor:
#      x y z
#    x 1.606910 0.000000 0.000000 
#    y 0.000000 1.547080 0.000000 
#    z 0.000000 0.000000 1.672640 
# 
# From -- ./inp_files/38954.got.cif
#   From: 2010.05.17/outbox.cif.g08.bks.cpg/sg68_20_cif.got.tgz:38954.got - 2010.06.03 18:57:09.
