data_PCOD9505169
_publ_section_title
;
Structure prediction by ZEFSAII (Michael W. Deem and Ramdas Pophale) SiO2 
 PCOD9505169
Probable space group: C M M A
;
_chemical_formula_sum "Si O2"
_cell_formula_units_Z 32
_cell_length_a 9.000000
_cell_length_b 24.000000
_cell_length_c 15.000000
_cell_angle_alpha 90.000000
_cell_angle_beta 90.000000
_cell_angle_gamma 90.000000
_cell_volume 3240.000000
_symmetry_space_group_name_H-M "C M M A"
_symmetry_group_IT_number 67
_symmetry_cell_setting 'orthorhombic'
loop_
_space_group_symop_operation_xyz
x,y,z
-x,1/2-y,z
x,-y,-z
-x,1/2+y,-z
-x,-y,-z
x,1/2+y,-z
-x,y,z
x,1/2-y,z
1/2+x,1/2+y,z
1/2-x,-y,z
1/2+x,1/2-y,-z
1/2-x,y,-z
1/2-x,1/2-y,-z
1/2+x,y,-z
1/2-x,1/2+y,z
1/2+x,-y,z
loop_
_atom_site_type_symbol
_atom_site_label
_atom_site_fract_x
_atom_site_fract_y
_atom_site_fract_z
Si Si1 0.175483 0.750000 0.903704
Si Si2 0.320299 0.862267 0.401347
Si Si3 0.820032 0.871628 0.901051
Si Si4 0.321279 0.939910 0.744648
Si Si5 0.679915 0.750000 0.599727
O O1 0.210977 0.690579 0.862636
O O2 0.000000 0.750000 0.918322
O O3 0.250000 0.750000 0.000000
O O4 0.500000 0.859940 0.405517
O O5 0.250000 0.869203 0.500000
O O6 0.257289 0.909230 0.337668
O O7 0.250478 0.805552 0.361357
O O8 0.734272 0.912291 0.836037
O O9 0.000000 0.880294 0.903012
O O10 0.750000 0.874924 0.000000
O O11 0.500000 0.939182 0.737288
O O12 0.250000 0.000000 0.744730
O O13 0.500000 0.750000 0.597999
O O14 0.750000 0.750000 0.500000
#
# Coordination Sequence:
#
# PCOD9505169 Si02
#       5
#     8  16  16  16   8
#     4   8  16  31  56  87 121 153 189 232 286 349
#     4  11  22  40  64  92 124 160 198 245 300 358
#     4  10  20  38  62  91 123 159 197 243 298 356
#     4  12  26  44  62  86 117 156 205 255 301 357
#     4  10  18  33  58  91 125 159 197 242 294 355
#
# _framework density 9.8765429999999999
#
# number of rings (size 3 to 8) (size 9 to 14) (size 15 to 20)
#    0.000    1.500    0.000    7.875    0.000    3.000 
#    0.000    8.750    0.000    0.000    0.000    0.000 
#    0.000    0.000    0.000    0.000    0.000    0.000 
#
# Total GULP energy -178504.363331 kJ/mol
# GULP energy per Si atom -5578.261354 kJ/mol
# Density = 0.985406 g / cm^3
# Si number density = 9.876543 Si / 1000 Ang^3
#
#
#
# Elastic Constant Matrix: (Units=GPa)
#
#
# Indices 1 2 3 4 5 6 
#
# 1 211.0404 87.2704 59.0495 0.0000 0.0000 0.0000
# 2 87.2704 184.0060 72.4159 0.0000 0.0000 0.0000
# 3 59.0495 72.4159 106.5695 0.0000 0.0000 0.0000
# 4 0.0000 0.0000 0.0000 41.1620 0.0000 0.0000
# 5 0.0000 0.0000 0.0000 0.0000 32.4186 0.0000
# 6 0.0000 0.0000 0.0000 0.0000 0.0000 -16.0681
#
#
#
# Elastic Compliance Matrix: (Units=1/GPa)
#
#
# Indices 1 2 3 4 5 6 
#
# 1 0.006179 -0.002161 -0.001955 0.000000 0.000000 0.000000
# 2 -0.002161 0.008174 -0.004357 0.000000 0.000000 0.000000
# 3 -0.001955 -0.004357 0.013428 0.000000 0.000000 0.000000
# 4 0.000000 0.000000 0.000000 0.024294 0.000000 0.000000
# 5 0.000000 0.000000 0.000000 0.000000 0.030847 0.000000
# 6 0.000000 0.000000 0.000000 0.000000 0.000000 -0.062235
#
#
# Mechanical properties :
#
#
# Convention : Reuss Voigt Hill
#
# Bulk Modulus (GPa) = 92.30138 104.34307 98.32223
# Shear Modulus (GPa) = 121.22468 30.36116 75.79292
#
# Velocity S-wave (km/s) = 7.84240 3.92476 6.20109
# Velocity P-wave (km/s) = 11.35048 8.57185 10.05758
#
# Compressibility (1/GPa) = 0.01083407
#
# Stress axis : x y z
#
# Youngs Moduli (GPa) = 161.83255 122.33367 74.47269
#
# Poissons Ratio (x) = 0.26438 0.14562
# Poissons Ratio (y) = 0.34975 0.32449
# Poissons Ratio (z) = 0.31643 0.53303
#
# Static dielectric constant tensor:
#      x y z
#    x 1.635770 0.000000 0.000000 
#    y 0.000000 1.459360 0.000000 
#    z 0.000000 0.000000 1.737790 
# 
# From -- ./inp_files/24846.got.cif
#   From: 2010.05.17/outbox.ucp.g08.bks.cvg/sg67_13_cif.got.tgz:24846.got - 2010.06.11 16:47:20.
