data_PCOD9505179
_publ_section_title
;
Structure prediction by ZEFSAII (Michael W. Deem and Ramdas Pophale) SiO2 
 PCOD9505179
Probable space group: C M M A
;
_chemical_formula_sum "Si O2"
_cell_formula_units_Z 52
_cell_length_a 27.000000
_cell_length_b 9.000000
_cell_length_c 24.000000
_cell_angle_alpha 90.000000
_cell_angle_beta 90.000000
_cell_angle_gamma 90.000000
_cell_volume 5832.000000
_symmetry_space_group_name_H-M "C M M A"
_symmetry_group_IT_number 67
_symmetry_cell_setting 'orthorhombic'
loop_
_space_group_symop_operation_xyz
x,y,z
-x,1/2-y,z
x,-y,-z
-x,1/2+y,-z
-x,-y,-z
x,1/2+y,-z
-x,y,z
x,1/2-y,z
1/2+x,1/2+y,z
1/2-x,-y,z
1/2+x,1/2-y,-z
1/2-x,y,-z
1/2-x,1/2-y,-z
1/2+x,y,-z
1/2-x,1/2+y,z
1/2+x,-y,z
loop_
_atom_site_type_symbol
_atom_site_label
_atom_site_fract_x
_atom_site_fract_y
_atom_site_fract_z
Si Si1 0.500000 0.427954 0.060844
Si Si2 0.893050 0.075882 0.670538
Si Si3 0.699772 0.073288 0.726984
Si Si4 0.110148 0.426986 0.939526
Si Si5 0.056532 0.923107 0.215593
Si Si6 0.350393 0.574612 0.161950
Si Si7 0.557671 0.571285 0.556792
O O1 0.500000 0.250000 0.057095
O O2 0.445512 0.467431 0.083151
O O3 0.500000 0.500000 0.000000
O O4 0.879128 0.250000 0.666971
O O5 0.935461 0.067922 0.717857
O O6 0.912903 0.024359 0.611376
O O7 0.846557 0.984427 0.692015
O O8 0.702471 0.250000 0.724820
O O9 0.689249 0.029275 0.791437
O O10 0.750000 0.000000 0.707149
O O11 0.112802 0.250000 0.944197
O O12 0.149662 0.488220 0.895932
O O13 0.115374 0.500000 0.000000
O O14 0.067008 0.750000 0.199299
O O15 0.000000 0.955313 0.200556
O O16 0.097341 0.030716 0.190301
O O17 0.347653 0.750000 0.152483
O O18 0.576685 0.500000 0.500000
O O19 0.500000 0.528642 0.563056
O O20 0.559677 0.750000 0.553242
#
# Coordination Sequence:
#
# PCOD9505179 Si02
#       7
#     8  16  16  16  16  16  16
#     4   8  16  28  42  62  88 122 164 198 225 264
#     4   9  17  31  51  74 101 134 172 211 252 297
#     4  10  21  37  57  78 100 125 161 208 260 313
#     4  10  19  32  49  69  96 131 168 204 241 288
#     4   9  17  29  46  68  96 131 168 204 242 288
#     4  10  21  34  48  72 100 127 160 200 247 300
#     4   9  17  29  47  74 109 148 185 215 245 286
#
# _framework density 8.9163239999999995
#
# number of rings (size 3 to 8) (size 9 to 14) (size 15 to 20)
#    0.000    2.615    0.000    1.846    1.077    5.231 
#    0.000    0.000    0.000    3.692    0.000    6.462 
#    0.000    0.000    0.000    0.000    0.000    0.000 
#
# Total GULP energy -289793.298896 kJ/mol
# GULP energy per Si atom -5572.948056 kJ/mol
# Density = 0.889603 g / cm^3
# Si number density = 8.916324 Si / 1000 Ang^3
#
#
#
# Elastic Constant Matrix: (Units=GPa)
#
#
# Indices 1 2 3 4 5 6 
#
# 1 50.5370 16.7337 22.7803 0.0000 0.0000 0.0000
# 2 16.7337 18.4432 30.4252 0.0000 0.0000 0.0000
# 3 22.7803 30.4252 109.1714 0.0000 0.0000 0.0000
# 4 0.0000 0.0000 0.0000 28.3448 0.0000 0.0000
# 5 0.0000 0.0000 0.0000 0.0000 11.2089 0.0000
# 6 0.0000 0.0000 0.0000 0.0000 0.0000 14.5669
#
#
#
# Elastic Compliance Matrix: (Units=1/GPa)
#
#
# Indices 1 2 3 4 5 6 
#
# 1 0.028604 -0.029813 0.002340 0.000000 0.000000 0.000000
# 2 -0.029813 0.131435 -0.030409 0.000000 0.000000 0.000000
# 3 0.002340 -0.030409 0.017146 0.000000 0.000000 0.000000
# 4 0.000000 0.000000 0.000000 0.035280 0.000000 0.000000
# 5 0.000000 0.000000 0.000000 0.000000 0.089215 0.000000
# 6 0.000000 0.000000 0.000000 0.000000 0.000000 0.068649
#
#
# Mechanical properties :
#
#
# Convention : Reuss Voigt Hill
#
# Bulk Modulus (GPa) = 16.28096 35.33666 25.80881
# Shear Modulus (GPa) = 9.87038 18.03829 13.95434
#
# Velocity S-wave (km/s) = 2.35521 3.18391 2.80038
# Velocity P-wave (km/s) = 4.06764 5.77712 4.99604
#
# Compressibility (1/GPa) = 0.06142144
#
# Stress axis : x y z
#
# Youngs Moduli (GPa) = 34.95972 7.60835 58.32148
#
# Poissons Ratio (x) = 0.22683 -0.13647
# Poissons Ratio (y) = 1.04225 1.77349
# Poissons Ratio (z) = -0.08180 0.23136
#
# Static dielectric constant tensor:
#      x y z
#    x 1.600000 0.000000 0.000000 
#    y 0.000000 1.594670 0.000000 
#    z 0.000000 0.000000 1.637390 
# 
# From -- ./inp_files/42738.got.cif
#   From: 2010.05.17/outbox.ucp.g08.bks.cvg/sg67_22_cif.got.tgz:42738.got - 2010.06.11 16:47:20.
