data_PCOD9505259
_publ_section_title
;
Structure prediction by ZEFSAII (Michael W. Deem and Ramdas Pophale) SiO2 
 PCOD9505259
Probable space group: C M M A
;
_chemical_formula_sum "Si O2"
_cell_formula_units_Z 48
_cell_length_a 9.000000
_cell_length_b 27.000000
_cell_length_c 24.000000
_cell_angle_alpha 90.000000
_cell_angle_beta 90.000000
_cell_angle_gamma 90.000000
_cell_volume 5832.000000
_symmetry_space_group_name_H-M "C M M A"
_symmetry_group_IT_number 67
_symmetry_cell_setting 'orthorhombic'
loop_
_space_group_symop_operation_xyz
x,y,z
-x,1/2-y,z
x,-y,-z
-x,1/2+y,-z
-x,-y,-z
x,1/2+y,-z
-x,y,z
x,1/2-y,z
1/2+x,1/2+y,z
1/2-x,-y,z
1/2+x,1/2-y,-z
1/2-x,y,-z
1/2-x,1/2-y,-z
1/2+x,y,-z
1/2-x,1/2+y,z
1/2+x,-y,z
loop_
_atom_site_type_symbol
_atom_site_label
_atom_site_fract_x
_atom_site_fract_y
_atom_site_fract_z
Si Si1 0.821722 0.693576 0.597959
Si Si2 0.823272 0.905797 0.443300
Si Si3 0.171694 0.310382 0.944371
Si Si4 0.678610 0.306783 0.175282
Si Si5 0.672431 0.547757 0.336659
Si Si6 0.329541 0.846362 0.281259
O O1 0.787284 0.750000 0.581745
O O2 0.733302 0.650668 0.566598
O O3 0.789386 0.685095 0.663622
O O4 0.000000 0.685293 0.590944
O O5 0.750000 0.923974 0.500000
O O6 0.760580 0.937694 0.392378
O O7 0.000000 0.907117 0.445562
O O8 0.178104 0.250000 0.943422
O O9 0.234486 0.326244 0.884488
O O10 0.000000 0.324325 0.947635
O O11 0.250000 0.327875 0.000000
O O12 0.500000 0.306073 0.171838
O O13 0.729316 0.250000 0.182156
O O14 0.729308 0.335967 0.228773
O O15 0.500000 0.538073 0.349551
O O16 0.750000 0.500000 0.311010
O O17 0.678883 0.596530 0.298991
O O18 0.500000 0.833960 0.267546
#
# Coordination Sequence:
#
# PCOD9505259 Si02
#       6
#    16  16  16  16  16  16
#     4   9  18  33  50  68  94 126 157 191 228 265
#     4  11  22  36  53  73  96 121 151 186 224 269
#     4   8  14  24  36  53  81 118 158 196 228 257
#     4   9  17  27  40  62  93 126 159 193 225 260
#     4  10  21  38  56  74  94 116 145 183 229 277
#     4   9  18  31  47  68  93 118 148 186 224 267
#
# _framework density 8.2304530000000007
#
# number of rings (size 3 to 8) (size 9 to 14) (size 15 to 20)
#    0.000    2.667    0.000    4.500    0.000    6.000 
#    0.000    3.333    0.000    0.000    0.000    0.000 
#    0.000    0.667    0.000    7.333    0.000    5.667 
#
# Total GULP energy -267483.546742 kJ/mol
# GULP energy per Si atom -5572.573890 kJ/mol
# Density = 0.821172 g / cm^3
# Si number density = 8.230453 Si / 1000 Ang^3
#
#
#
# Elastic Constant Matrix: (Units=GPa)
#
#
# Indices 1 2 3 4 5 6 
#
# 1 60.4225 13.5621 37.6744 0.0000 0.0000 0.0000
# 2 13.5621 28.8701 -4.4618 0.0000 0.0000 0.0000
# 3 37.6744 -4.4618 76.2157 0.0000 0.0000 0.0000
# 4 0.0000 0.0000 0.0000 6.4193 0.0000 0.0000
# 5 0.0000 0.0000 0.0000 0.0000 27.7247 0.0000
# 6 0.0000 0.0000 0.0000 0.0000 0.0000 19.4659
#
#
#
# Elastic Compliance Matrix: (Units=1/GPa)
#
#
# Indices 1 2 3 4 5 6 
#
# 1 0.030203 -0.016646 -0.015904 0.000000 0.000000 0.000000
# 2 -0.016646 0.044129 0.010812 0.000000 0.000000 0.000000
# 3 -0.015904 0.010812 0.021615 0.000000 0.000000 0.000000
# 4 0.000000 0.000000 0.000000 0.155781 0.000000 0.000000
# 5 0.000000 0.000000 0.000000 0.000000 0.036069 0.000000
# 6 0.000000 0.000000 0.000000 0.000000 0.000000 0.051372
#
#
# Mechanical properties :
#
#
# Convention : Reuss Voigt Hill
#
# Bulk Modulus (GPa) = 19.05865 28.78417 23.92141
# Shear Modulus (GPa) = 12.49578 18.63756 15.56667
#
# Velocity S-wave (km/s) = 2.75820 3.36852 3.07852
# Velocity P-wave (km/s) = 4.66335 5.71433 5.21538
#
# Compressibility (1/GPa) = 0.05246961
#
# Stress axis : x y z
#
# Youngs Moduli (GPa) = 33.10939 22.66108 46.26368
#
# Poissons Ratio (x) = 0.37722 0.73579
# Poissons Ratio (y) = 0.55114 -0.50019
# Poissons Ratio (z) = 0.52658 -0.24501
#
# Static dielectric constant tensor:
#      x y z
#    x 1.553270 0.000000 0.000000 
#    y 0.000000 1.557990 0.000000 
#    z 0.000000 0.000000 1.574470 
# 
# From -- ./inp_files/37192.got.cif
#   From: 2010.05.17/outbox.ucp.g08.bks.cvg/sg67_19_cif.got.tgz:37192.got - 2010.06.11 16:47:20.
