data_PCOD9505961
_publ_section_title
;
Structure prediction by ZEFSAII (Michael W. Deem and Ramdas Pophale) SiO2 
 PCOD9505961
Probable space group: C C C A
;
_chemical_formula_sum "Si O2"
_cell_formula_units_Z 60
_cell_length_a 19.181599
_cell_length_b 5.222716
_cell_length_c 29.545182
_cell_angle_alpha 90.000000
_cell_angle_beta 90.000000
_cell_angle_gamma 90.000000
_cell_volume 2959.837633
_symmetry_space_group_name_H-M "C C C A"
_symmetry_group_IT_number 68
_space_group.IT_coordinate_system_code '2'
_symmetry_cell_setting 'orthorhombic'
loop_
_space_group_symop_operation_xyz
x,y,z
-x,1/2-y,z
x,1/2-y,1/2-z
-x,y,1/2-z
-x,-y,-z
x,1/2+y,-z
-x,1/2+y,1/2+z
x,-y,1/2+z
1/2+x,1/2+y,z
1/2-x,-y,z
1/2+x,-y,1/2-z
1/2-x,1/2+y,1/2-z
1/2-x,1/2-y,-z
1/2+x,y,-z
1/2-x,y,1/2+z
1/2+x,1/2-y,1/2+z
loop_
_atom_site_type_symbol
_atom_site_label
_atom_site_fract_x
_atom_site_fract_y
_atom_site_fract_z
Si Si1 0.250000 0.000000 0.226152
Si Si2 0.387998 0.387600 0.321850
Si Si3 0.576322 0.633342 0.374511
Si Si4 0.920152 0.523614 0.980661
Si Si5 0.000000 0.250000 0.750000
O O1 0.215441 0.250000 0.250000
O O2 0.312566 0.141325 0.200180
O O3 0.379307 0.638078 0.353103
O O4 0.447495 0.408543 0.282718
O O5 0.409937 0.136648 0.350318
O O6 0.500000 0.750000 0.366328
O O7 0.581570 0.592025 0.428207
O O8 0.887024 0.750805 0.009375
O O9 0.000000 0.500000 0.000000
#
# Coordination Sequence:
#
# PCOD9505961 Si02
#       5
#     8  16  16  16   4
#     4  12  26  48  70  92 128 188 240 272 334 420
#     4  12  27  40  65  93 133 171 221 276 340 391
#     4  12  22  38  59  97 134 161 210 279 334 389
#     4  10  19  31  56  87 132 163 203 254 341 402
#     4  12  24  42  64  98 124 172 216 286 332 394
#
# _framework density 20.271383
#
# number of rings (size 3 to 8) (size 9 to 14) (size 15 to 20)
#    0.000    0.533    6.667    3.200    3.733    1.067 
#    0.000    0.000    0.000    0.000    0.000   18.667 
#    0.000    0.000    0.000    0.000    0.000    0.000 
#
# Total GULP energy -167261.687870 kJ/mol
# GULP energy per Si atom -5575.389596 kJ/mol
# Density = 2.022524 g / cm^3
# Si number density = 20.271383 Si / 1000 Ang^3
#
#
#
# Elastic Constant Matrix: (Units=GPa)
#
#
# Indices 1 2 3 4 5 6 
#
# 1 53.2786 -10.5101 24.6205 0.0000 0.0000 0.0000
# 2 -10.5101 146.5237 58.5794 0.0000 0.0000 0.0000
# 3 24.6205 58.5794 132.8051 0.0000 0.0000 0.0000
# 4 0.0000 0.0000 0.0000 26.5917 0.0000 0.0000
# 5 0.0000 0.0000 0.0000 0.0000 4.3903 0.0000
# 6 0.0000 0.0000 0.0000 0.0000 0.0000 15.8517
#
#
#
# Elastic Compliance Matrix: (Units=1/GPa)
#
#
# Indices 1 2 3 4 5 6 
#
# 1 0.022257 0.003941 -0.005865 0.000000 0.000000 0.000000
# 2 0.003941 0.008984 -0.004693 0.000000 0.000000 0.000000
# 3 -0.005865 -0.004693 0.010687 0.000000 0.000000 0.000000
# 4 0.000000 0.000000 0.000000 0.037606 0.000000 0.000000
# 5 0.000000 0.000000 0.000000 0.000000 0.227773 0.000000
# 6 0.000000 0.000000 0.000000 0.000000 0.000000 0.063085
#
#
# Mechanical properties :
#
#
# Convention : Reuss Voigt Hill
#
# Bulk Modulus (GPa) = 34.85018 53.10970 43.97994
# Shear Modulus (GPa) = 12.71650 26.69457 19.70553
#
# Velocity S-wave (km/s) = 2.50734 3.63279 3.12121
# Velocity P-wave (km/s) = 5.06078 6.62212 5.89338
#
# Compressibility (1/GPa) = 0.02869426
#
# Stress axis : x y z
#
# Youngs Moduli (GPa) = 44.93020 111.31013 93.56933
#
# Poissons Ratio (x) = -0.43868 0.54874
# Poissons Ratio (y) = -0.17707 0.43916
# Poissons Ratio (z) = 0.26349 0.52242
#
# Static dielectric constant tensor:
#      x y z
#    x 1.757080 0.000000 0.000000 
#    y 0.000000 2.302000 0.000000 
#    z 0.000000 0.000000 1.755980 
# 
# From -- ./inp_files/51189.got.cif
#   From: 2010.05.17/outbox.cif.g08.bks.cpg/sg68_26_cif.got.tgz:51189.got - 2010.06.03 18:57:09.
