data_PCOD9505805
_publ_section_title
;
Structure prediction by ZEFSAII (Michael W. Deem and Ramdas Pophale) SiO2 
 PCOD9505805
Probable space group: C C C A
;
_chemical_formula_sum "Si O2"
_cell_formula_units_Z 88
_cell_length_a 13.205637
_cell_length_b 29.654475
_cell_length_c 12.633941
_cell_angle_alpha 90.000000
_cell_angle_beta 90.000000
_cell_angle_gamma 90.000000
_cell_volume 4947.530034
_symmetry_space_group_name_H-M "C C C A"
_symmetry_group_IT_number 68
_space_group.IT_coordinate_system_code '2'
_symmetry_cell_setting 'orthorhombic'
loop_
_space_group_symop_operation_xyz
x,y,z
-x,1/2-y,z
x,1/2-y,1/2-z
-x,y,1/2-z
-x,-y,-z
x,1/2+y,-z
-x,1/2+y,1/2+z
x,-y,1/2+z
1/2+x,1/2+y,z
1/2-x,-y,z
1/2+x,-y,1/2-z
1/2-x,1/2+y,1/2-z
1/2-x,1/2-y,-z
1/2+x,y,-z
1/2-x,y,1/2+z
1/2+x,1/2-y,1/2+z
loop_
_atom_site_type_symbol
_atom_site_label
_atom_site_fract_x
_atom_site_fract_y
_atom_site_fract_z
Si Si1 0.542315 0.154855 0.364379
Si Si2 0.411515 0.715379 0.485337
Si Si3 0.572539 0.551335 0.588136
Si Si4 0.221882 0.277117 0.858804
Si Si5 0.250000 0.000000 0.709001
Si Si6 0.931700 0.468608 0.344125
O O1 0.500000 0.168181 0.250000
O O2 0.467395 0.174580 0.454480
O O3 0.553388 0.101455 0.371882
O O4 0.650122 0.179472 0.368287
O O5 0.500000 0.750000 0.454287
O O6 0.334150 0.706922 0.390687
O O7 0.336912 0.741247 0.566545
O O8 0.676392 0.530317 0.635560
O O9 0.573764 0.553134 0.460055
O O10 0.484512 0.517156 0.628626
O O11 0.226193 0.250000 0.750000
O O12 0.323796 0.026696 0.788166
O O13 0.000000 0.447490 0.250000
#
# Coordination Sequence:
#
# PCOD9505805 Si02
#       6
#    16  16  16  16   8  16
#     4  11  20  37  61  91 115 154 199 256 289 359
#     4   9  20  36  59  82 116 151 188 234 291 358
#     4  10  21  37  59  87 118 154 204 247 298 356
#     4  10  19  37  60  86 114 155 192 231 306 359
#     4  10  18  36  58  84 112 156 200 238 296 354
#     4   9  19  38  58  78 114 164 189 238 305 358
#
# _framework density 17.786653000000001
#
# number of rings (size 3 to 8) (size 9 to 14) (size 15 to 20)
#    0.000    2.182    1.818    2.182    0.000    0.364 
#   16.364    0.000    0.000    0.000    0.000    0.000 
#    0.000    0.000    0.000    0.000    0.000    0.000 
#
# Total GULP energy -244973.207920 kJ/mol
# GULP energy per Si atom -5567.572907 kJ/mol
# Density = 1.774617 g / cm^3
# Si number density = 17.786653 Si / 1000 Ang^3
#
#
#
# Elastic Constant Matrix: (Units=GPa)
#
#
# Indices 1 2 3 4 5 6 
#
# 1 106.3731 20.7978 26.0710 0.0000 0.0000 0.0000
# 2 20.7978 59.2596 -6.2497 0.0000 0.0000 0.0000
# 3 26.0710 -6.2497 74.3864 0.0000 0.0000 0.0000
# 4 0.0000 0.0000 0.0000 -88.5181 0.0000 0.0000
# 5 0.0000 0.0000 0.0000 0.0000 22.8978 0.0000
# 6 0.0000 0.0000 0.0000 0.0000 0.0000 23.0319
#
#
#
# Elastic Compliance Matrix: (Units=1/GPa)
#
#
# Indices 1 2 3 4 5 6 
#
# 1 0.011333 -0.004436 -0.004345 0.000000 0.000000 0.000000
# 2 -0.004436 0.018762 0.003131 0.000000 0.000000 0.000000
# 3 -0.004345 0.003131 0.015229 0.000000 0.000000 0.000000
# 4 0.000000 0.000000 0.000000 -0.011297 0.000000 0.000000
# 5 0.000000 0.000000 0.000000 0.000000 0.043672 0.000000
# 6 0.000000 0.000000 0.000000 0.000000 0.000000 0.043418
#
#
# Mechanical properties :
#
#
# Convention : Reuss Voigt Hill
#
# Bulk Modulus (GPa) = 29.39002 35.69524 32.54263
# Shear Modulus (GPa) = 34.78075 4.77563 19.77819
#
# Velocity S-wave (km/s) = 4.42683 1.64036 3.33824
# Velocity P-wave (km/s) = 6.53366 4.86825 5.76144
#
# Compressibility (1/GPa) = 0.03402515
#
# Stress axis : x y z
#
# Youngs Moduli (GPa) = 88.23831 53.29972 65.66382
#
# Poissons Ratio (x) = 0.23642 0.28529
# Poissons Ratio (y) = 0.39139 -0.20559
# Poissons Ratio (z) = 0.38336 -0.16688
#
# Static dielectric constant tensor:
#      x y z
#    x 1.641770 0.000000 0.000000 
#    y 0.000000 1.584470 0.000000 
#    z 0.000000 0.000000 1.545420 
# 
# From -- ./inp_files/12066.got.cif
#   From: 2010.05.17/outbox.cif.g08.bks.cpg/sg68_7_cif.got.tgz:12066.got - 2010.06.03 18:57:09.
