data_PCOD9505461
_publ_section_title
;
Structure prediction by ZEFSAII (Michael W. Deem and Ramdas Pophale) SiO2 
 PCOD9505461
Probable space group: C C C A
;
_chemical_formula_sum "Si O2"
_cell_formula_units_Z 128
_cell_length_a 23.987331
_cell_length_b 16.335463
_cell_length_c 19.833450
_cell_angle_alpha 90.000000
_cell_angle_beta 90.000000
_cell_angle_gamma 90.000000
_cell_volume 7771.621516
_symmetry_space_group_name_H-M "C C C A"
_symmetry_group_IT_number 68
_space_group.IT_coordinate_system_code '2'
_symmetry_cell_setting 'orthorhombic'
loop_
_space_group_symop_operation_xyz
x,y,z
-x,1/2-y,z
x,1/2-y,1/2-z
-x,y,1/2-z
-x,-y,-z
x,1/2+y,-z
-x,1/2+y,1/2+z
x,-y,1/2+z
1/2+x,1/2+y,z
1/2-x,-y,z
1/2+x,-y,1/2-z
1/2-x,1/2+y,1/2-z
1/2-x,1/2-y,-z
1/2+x,y,-z
1/2-x,y,1/2+z
1/2+x,1/2-y,1/2+z
loop_
_atom_site_type_symbol
_atom_site_label
_atom_site_fract_x
_atom_site_fract_y
_atom_site_fract_z
Si Si1 0.265853 0.095759 0.397533
Si Si2 0.662814 0.653626 0.014799
Si Si3 0.063725 0.150076 0.108825
Si Si4 0.246986 0.098231 0.250000
Si Si5 0.436275 0.650076 0.108825
Si Si6 0.118408 0.651217 0.750000
Si Si7 0.234148 0.595759 0.397533
Si Si8 0.837186 0.846374 0.514799
O O1 0.317902 0.109298 0.446760
O O2 0.273126 0.125593 0.320965
O O3 0.213384 0.141155 0.432045
O O4 0.250000 0.000000 0.397212
O O5 0.606638 0.623778 0.050789
O O6 0.713384 0.641155 0.067955
O O7 0.657899 0.750000 0.000595
O O8 0.064472 0.250000 0.108858
O O9 0.087375 0.124149 0.181815
O O10 1.000000 0.124009 0.099398
O O11 0.182143 0.122812 0.250000
O O12 0.273126 0.125593 0.179035
O O13 0.250000 0.000000 0.250000
O O14 0.412625 0.624149 0.181815
O O15 0.393362 0.623778 0.050789
O O16 0.118219 0.750000 0.750000
O O17 0.250000 0.500000 0.397212
O O18 0.182098 0.609298 0.446760
#
# Coordination Sequence:
#
# PCOD9505461 Si02
#       8
#    16  16  16  16  16  16  16  16
#     4  10  19  31  46  65  92 125 156 187 230 272
#     4  10  18  29  46  69  94 121 151 186 228 275
#     4   9  17  28  44  68  95 122 153 189 233 280
#     4  10  20  31  45  70  90 128 157 185 232 276
#     4   9  17  28  44  68  95 122 153 189 233 280
#     4  10  17  28  46  69  97 124 153 191 230 279
#     4  10  19  31  46  65  92 125 156 187 230 272
#     4  10  18  29  46  69  94 121 151 186 228 275
#
# _framework density 16.470179999999999
#
# number of rings (size 3 to 8) (size 9 to 14) (size 15 to 20)
#    0.000    2.250    2.500    3.375    0.000    2.500 
#    0.000    0.000    0.000    3.000    0.000    0.875 
#    0.000    4.000    0.000    0.000    0.000    0.500 
#
# Total GULP energy -356745.387990 kJ/mol
# GULP energy per Si atom -5574.146687 kJ/mol
# Density = 1.643269 g / cm^3
# Si number density = 16.470180 Si / 1000 Ang^3
#
#
#
# Elastic Constant Matrix: (Units=GPa)
#
#
# Indices 1 2 3 4 5 6 
#
# 1 116.0989 11.0116 81.9868 0.0000 0.0000 0.0000
# 2 11.0116 23.0883 17.1363 0.0000 0.0000 0.0000
# 3 81.9868 17.1363 176.4487 0.0000 0.0000 0.0000
# 4 0.0000 0.0000 0.0000 36.4830 0.0000 0.0000
# 5 0.0000 0.0000 0.0000 0.0000 20.3949 0.0000
# 6 0.0000 0.0000 0.0000 0.0000 0.0000 -0.3459
#
#
#
# Elastic Compliance Matrix: (Units=1/GPa)
#
#
# Indices 1 2 3 4 5 6 
#
# 1 0.012892 -0.001835 -0.005812 0.000000 0.000000 0.000000
# 2 -0.001835 0.046938 -0.003706 0.000000 0.000000 0.000000
# 3 -0.005812 -0.003706 0.008728 0.000000 0.000000 0.000000
# 4 0.000000 0.000000 0.000000 0.027410 0.000000 0.000000
# 5 0.000000 0.000000 0.000000 0.000000 0.049032 0.000000
# 6 0.000000 0.000000 0.000000 0.000000 0.000000 -2.890819
#
#
# Mechanical properties :
#
#
# Convention : Reuss Voigt Hill
#
# Bulk Modulus (GPa) = 21.80945 59.54503 40.67724
# Shear Modulus (GPa) = -1.84650 25.00647 11.57999
#
# Velocity S-wave (km/s) = -1.05998 3.90075 2.65446
# Velocity P-wave (km/s) = 3.43110 7.51795 5.84346
#
# Compressibility (1/GPa) = 0.04585168
#
# Stress axis : x y z
#
# Youngs Moduli (GPa) = 77.56983 21.30491 114.57675
#
# Poissons Ratio (x) = 0.03909 0.66591
# Poissons Ratio (y) = 0.14233 0.42461
# Poissons Ratio (z) = 0.45083 0.07895
#
# Static dielectric constant tensor:
#      x y z
#    x 1.539530 0.000000 0.000000 
#    y 0.000000 1.573270 0.000000 
#    z 0.000000 0.000000 1.589850 
# 
# From -- ./inp_files/40986.got.cif
#   From: 2010.05.17/outbox.cif.g08.bks.cpg/sg68_21_cif.got.tgz:40986.got - 2010.06.03 18:57:09.
