data_PCOD9505637
_publ_section_title
;
Structure prediction by ZEFSAII (Michael W. Deem and Ramdas Pophale) SiO2 
 PCOD9505637
Probable space group: C C C A
;
_chemical_formula_sum "Si O2"
_cell_formula_units_Z 80
_cell_length_a 20.221030
_cell_length_b 5.094939
_cell_length_c 37.186965
_cell_angle_alpha 90.000000
_cell_angle_beta 90.000000
_cell_angle_gamma 90.000000
_cell_volume 3831.183885
_symmetry_space_group_name_H-M "C C C A"
_symmetry_group_IT_number 68
_space_group.IT_coordinate_system_code '2'
_symmetry_cell_setting 'orthorhombic'
loop_
_space_group_symop_operation_xyz
x,y,z
-x,1/2-y,z
x,1/2-y,1/2-z
-x,y,1/2-z
-x,-y,-z
x,1/2+y,-z
-x,1/2+y,1/2+z
x,-y,1/2+z
1/2+x,1/2+y,z
1/2-x,-y,z
1/2+x,-y,1/2-z
1/2-x,1/2+y,1/2-z
1/2-x,1/2-y,-z
1/2+x,y,-z
1/2-x,y,1/2+z
1/2+x,1/2-y,1/2+z
loop_
_atom_site_type_symbol
_atom_site_label
_atom_site_fract_x
_atom_site_fract_y
_atom_site_fract_z
Si Si1 0.000000 0.250000 0.418089
Si Si2 0.500000 0.750000 0.963276
Si Si3 0.830551 0.001030 0.227210
Si Si4 0.172138 0.446409 0.144978
Si Si5 0.354766 0.392614 0.478943
Si Si6 0.629361 0.451529 0.104319
O O1 0.057345 0.408886 0.397743
O O2 0.971679 0.496639 0.441157
O O3 0.564523 0.873757 0.981441
O O4 0.851668 0.750000 0.250000
O O5 0.852081 0.018446 0.185898
O O6 0.852009 0.250000 0.250000
O O7 0.750000 0.000000 0.226177
O O8 0.250000 0.500000 0.143906
O O9 0.166410 0.151960 0.130335
O O10 0.134588 0.660098 0.120317
O O11 0.330158 0.622443 0.504558
O O12 0.343454 0.443763 0.436695
#
# Coordination Sequence:
#
# PCOD9505637 Si02
#       6
#     8   8  16  16  16  16
#     4  10  20  35  54  80 113 144 177 226 281 332
#     4  10  18  31  50  78 106 134 174 230 302 346
#     4   9  17  31  53  83 113 136 167 217 276 329
#     4  11  22  37  59  84 113 149 182 222 276 332
#     4  11  20  32  51  75 106 141 182 234 284 326
#     4  11  22  37  55  81 113 146 188 229 276 335
#
# _framework density 20.881271999999999
#
# number of rings (size 3 to 8) (size 9 to 14) (size 15 to 20)
#    0.000    1.600    0.000    8.400    0.000    4.000 
#    0.000    0.000    0.000   12.000    0.000   10.500 
#    0.000    0.000    0.000    0.000    0.000    0.000 
#
# Total GULP energy -223235.509564 kJ/mol
# GULP energy per Si atom -5580.887739 kJ/mol
# Density = 2.083375 g / cm^3
# Si number density = 20.881272 Si / 1000 Ang^3
#
#
#
# Elastic Constant Matrix: (Units=GPa)
#
#
# Indices 1 2 3 4 5 6 
#
# 1 26.3354 0.9278 8.2872 0.0000 0.0000 0.0000
# 2 0.9278 145.3256 47.0372 0.0000 0.0000 0.0000
# 3 8.2872 47.0372 142.1021 0.0000 0.0000 0.0000
# 4 0.0000 0.0000 0.0000 24.0131 0.0000 0.0000
# 5 0.0000 0.0000 0.0000 0.0000 19.4588 0.0000
# 6 0.0000 0.0000 0.0000 0.0000 0.0000 8.9076
#
#
#
# Elastic Compliance Matrix: (Units=1/GPa)
#
#
# Indices 1 2 3 4 5 6 
#
# 1 0.038720 0.000542 -0.002437 0.000000 0.000000 0.000000
# 2 0.000542 0.007714 -0.002585 0.000000 0.000000 0.000000
# 3 -0.002437 -0.002585 0.008035 0.000000 0.000000 0.000000
# 4 0.000000 0.000000 0.000000 0.041644 0.000000 0.000000
# 5 0.000000 0.000000 0.000000 0.000000 0.051391 0.000000
# 6 0.000000 0.000000 0.000000 0.000000 0.000000 0.112264
#
#
# Mechanical properties :
#
#
# Convention : Reuss Voigt Hill
#
# Bulk Modulus (GPa) = 21.97445 47.36305 34.66875
# Shear Modulus (GPa) = 17.61195 27.64330 22.62762
#
# Velocity S-wave (km/s) = 2.90734 3.64240 3.29543
# Velocity P-wave (km/s) = 4.67082 6.35773 5.57841
#
# Compressibility (1/GPa) = 0.04550740
#
# Stress axis : x y z
#
# Youngs Moduli (GPa) = 25.82672 129.62829 124.45486
#
# Poissons Ratio (x) = -0.07022 0.30335
# Poissons Ratio (y) = -0.01399 0.32173
# Poissons Ratio (z) = 0.06295 0.33511
#
# Static dielectric constant tensor:
#      x y z
#    x 1.815440 0.000000 0.000000 
#    y 0.000000 1.762460 0.000000 
#    z 0.000000 0.000000 1.788500 
# 
# From -- ./inp_files/55926.got.cif
#   From: 2010.05.17/outbox.cif.g08.bks.cpg/sg68_28_cif.got.tgz:55926.got - 2010.06.03 18:57:09.
