data_PCOD9505866
_publ_section_title
;
Structure prediction by ZEFSAII (Michael W. Deem and Ramdas Pophale) SiO2 
 PCOD9505866
Probable space group: C C C A
;
_chemical_formula_sum "Si O2"
_cell_formula_units_Z 100
_cell_length_a 30.472449
_cell_length_b 15.912068
_cell_length_c 9.998283
_cell_angle_alpha 90.000000
_cell_angle_beta 90.000000
_cell_angle_gamma 90.000000
_cell_volume 4847.964268
_symmetry_space_group_name_H-M "C C C A"
_symmetry_group_IT_number 68
_space_group.IT_coordinate_system_code '2'
_symmetry_cell_setting 'orthorhombic'
loop_
_space_group_symop_operation_xyz
x,y,z
-x,1/2-y,z
x,1/2-y,1/2-z
-x,y,1/2-z
-x,-y,-z
x,1/2+y,-z
-x,1/2+y,1/2+z
x,-y,1/2+z
1/2+x,1/2+y,z
1/2-x,-y,z
1/2+x,-y,1/2-z
1/2-x,1/2+y,1/2-z
1/2-x,1/2-y,-z
1/2+x,y,-z
1/2-x,y,1/2+z
1/2+x,1/2-y,1/2+z
loop_
_atom_site_type_symbol
_atom_site_label
_atom_site_fract_x
_atom_site_fract_y
_atom_site_fract_z
Si Si1 0.272215 0.411614 0.058228
Si Si2 0.968520 0.410278 0.634771
Si Si3 0.500000 0.750000 0.250000
Si Si4 0.040802 0.898527 0.587517
Si Si5 0.374161 0.599847 0.864971
Si Si6 0.719382 0.166631 0.332481
Si Si7 0.628619 0.056068 0.058551
O O1 0.250000 0.500000 0.021825
O O2 0.268918 0.401830 0.218352
O O3 0.323857 0.405494 0.024926
O O4 0.246523 0.346058 0.966470
O O5 0.957801 0.509906 0.660659
O O6 0.922719 0.362133 0.625406
O O7 0.000000 0.378307 0.750000
O O8 0.997088 0.404969 0.502166
O O9 0.467970 0.684969 0.327953
O O10 0.085444 0.897759 0.499800
O O11 0.332234 0.659556 0.865824
O O12 0.373241 0.554444 0.719395
O O13 0.370861 0.534459 0.987001
O O14 0.728137 0.250000 0.250000
#
# Coordination Sequence:
#
# PCOD9505866 Si02
#       7
#    16  16   4  16  16  16  16
#     4  11  22  41  67  92 120 172 222 267 313 391
#     4  10  18  38  65  88 115 166 218 249 305 381
#     4  12  24  44  58 100 144 166 204 274 328 380
#     4  10  22  38  62  92 129 167 204 261 320 370
#     4  10  21  37  64  93 123 162 213 268 311 381
#     4  11  24  42  61  92 132 163 208 272 339 380
#     4  10  21  37  64  94 123 163 222 264 307 382
#
# _framework density 20.627216000000001
#
# number of rings (size 3 to 8) (size 9 to 14) (size 15 to 20)
#    0.000    1.600    4.000    0.960    2.240    0.000 
#    7.200    0.400    0.000    0.000    0.000    0.000 
#    0.000    0.000    0.000    0.000    0.000    0.000 
#
# Total GULP energy -278825.844601 kJ/mol
# GULP energy per Si atom -5576.516892 kJ/mol
# Density = 2.058027 g / cm^3
# Si number density = 20.627216 Si / 1000 Ang^3
#
#
#
# Elastic Constant Matrix: (Units=GPa)
#
#
# Indices 1 2 3 4 5 6 
#
# 1 154.3632 8.5783 29.0868 0.0000 0.0000 0.0000
# 2 8.5783 51.3093 -7.6294 0.0000 0.0000 0.0000
# 3 29.0868 -7.6294 23.6951 0.0000 0.0000 0.0000
# 4 0.0000 0.0000 0.0000 -28.1116 0.0000 0.0000
# 5 0.0000 0.0000 0.0000 0.0000 31.2068 0.0000
# 6 0.0000 0.0000 0.0000 0.0000 0.0000 3.7805
#
#
#
# Elastic Compliance Matrix: (Units=1/GPa)
#
#
# Indices 1 2 3 4 5 6 
#
# 1 0.008923 -0.003278 -0.012009 0.000000 0.000000 0.000000
# 2 -0.003278 0.021674 0.011002 0.000000 0.000000 0.000000
# 3 -0.012009 0.011002 0.060487 0.000000 0.000000 0.000000
# 4 0.000000 0.000000 0.000000 -0.035572 0.000000 0.000000
# 5 0.000000 0.000000 0.000000 0.000000 0.032044 0.000000
# 6 0.000000 0.000000 0.000000 0.000000 0.000000 0.264518
#
#
# Mechanical properties :
#
#
# Convention : Reuss Voigt Hill
#
# Bulk Modulus (GPa) = 12.11915 32.15989 22.13952
# Shear Modulus (GPa) = 12.88169 14.66391 13.77280
#
# Velocity S-wave (km/s) = 2.50171 2.66917 2.58679
# Velocity P-wave (km/s) = 3.77264 5.01240 4.43604
#
# Compressibility (1/GPa) = 0.08251403
#
# Stress axis : x y z
#
# Youngs Moduli (GPa) = 112.06710 46.13928 16.53255
#
# Poissons Ratio (x) = 0.15122 0.19854
# Poissons Ratio (y) = 0.36730 -0.18189
# Poissons Ratio (z) = 1.34581 -0.50761
#
# Static dielectric constant tensor:
#      x y z
#    x 1.764790 0.000000 0.000000 
#    y 0.000000 1.779900 0.000000 
#    z 0.000000 0.000000 1.761510 
# 
# From -- ./inp_files/17740.got.cif
#   From: 2010.05.17/outbox.cif.g08.bks.cpg/sg68_9_cif.got.tgz:17740.got - 2010.06.03 18:57:09.
