data_PCOD9505041
_publ_section_title
;
Structure prediction by ZEFSAII (Michael W. Deem and Ramdas Pophale) SiO2 
 PCOD9505041
Probable space group: C M M A
;
_chemical_formula_sum "Si O2"
_cell_formula_units_Z 72
_cell_length_a 29.147176
_cell_length_b 14.244954
_cell_length_c 7.680101
_cell_angle_alpha 90.000000
_cell_angle_beta 90.000000
_cell_angle_gamma 90.000000
_cell_volume 3188.779328
_symmetry_space_group_name_H-M "C M M A"
_symmetry_group_IT_number 67
_symmetry_cell_setting 'orthorhombic'
loop_
_space_group_symop_operation_xyz
x,y,z
-x,1/2-y,z
x,-y,-z
-x,1/2+y,-z
-x,-y,-z
x,1/2+y,-z
-x,y,z
x,1/2-y,z
1/2+x,1/2+y,z
1/2-x,-y,z
1/2+x,1/2-y,-z
1/2-x,y,-z
1/2-x,1/2-y,-z
1/2+x,y,-z
1/2-x,1/2+y,z
1/2+x,-y,z
loop_
_atom_site_type_symbol
_atom_site_label
_atom_site_fract_x
_atom_site_fract_y
_atom_site_fract_z
Si Si1 0.449232 0.569985 0.664039
Si Si2 0.598775 0.000000 0.000000
Si Si3 0.854013 0.641442 0.429162
Si Si4 0.666508 0.635578 0.179713
Si Si5 0.236488 0.140538 0.706933
O O1 0.450127 0.500000 0.500000
O O2 0.500000 0.612469 0.680209
O O3 0.434442 0.516100 0.837245
O O4 0.405674 0.635711 0.632984
O O5 0.632518 0.086440 0.954174
O O6 0.840694 0.750000 0.445071
O O7 0.850663 0.605572 0.626560
O O8 0.814950 0.599852 0.301097
O O9 0.664514 0.750000 0.163493
O O10 0.720183 0.605185 0.182475
O O11 0.233828 0.250000 0.758940
O O12 0.250000 0.135237 0.500000
#
# Coordination Sequence:
#
# PCOD9505041 Si02
#       5
#    16   8  16  16  16
#     4  11  24  42  61  84 120 165 213 269 327 378
#     4  12  23  40  67  92 130 168 214 262 324 384
#     4   9  17  36  65  91 122 166 213 261 316 382
#     4   9  18  35  61  96 132 167 209 258 316 386
#     4   7  12  27  56  88 120 158 194 240 306 368
#
# _framework density 22.579173999999998
#
# number of rings (size 3 to 8) (size 9 to 14) (size 15 to 20)
#    0.000    2.667    2.222    3.000    0.000    1.333 
#    0.000    3.333    0.000    6.000    0.000    0.000 
#    0.000    8.000    0.000    0.000    0.000    0.000 
#
# Total GULP energy -200857.854059 kJ/mol
# GULP energy per Si atom -5579.384835 kJ/mol
# Density = 2.252778 g / cm^3
# Si number density = 22.579174 Si / 1000 Ang^3
#
#
#
# Elastic Constant Matrix: (Units=GPa)
#
#
# Indices 1 2 3 4 5 6 
#
# 1 212.8269 25.4905 44.2532 0.0000 0.0000 0.0000
# 2 25.4905 48.0489 5.8508 0.0000 0.0000 0.0000
# 3 44.2532 5.8508 98.8376 0.0000 0.0000 0.0000
# 4 0.0000 0.0000 0.0000 18.9504 0.0000 0.0000
# 5 0.0000 0.0000 0.0000 0.0000 -28.2652 0.0000
# 6 0.0000 0.0000 0.0000 0.0000 0.0000 31.3665
#
#
#
# Elastic Compliance Matrix: (Units=1/GPa)
#
#
# Indices 1 2 3 4 5 6 
#
# 1 0.005493 -0.002634 -0.002304 0.000000 0.000000 0.000000
# 2 -0.002634 0.022226 -0.000137 0.000000 0.000000 0.000000
# 3 -0.002304 -0.000137 0.011157 0.000000 0.000000 0.000000
# 4 0.000000 0.000000 0.000000 0.052769 0.000000 0.000000
# 5 0.000000 0.000000 0.000000 0.000000 -0.035379 0.000000
# 6 0.000000 0.000000 0.000000 0.000000 0.000000 0.031881
#
#
# Mechanical properties :
#
#
# Convention : Reuss Voigt Hill
#
# Bulk Modulus (GPa) = 34.80841 56.76693 45.78767
# Shear Modulus (GPa) = 46.35167 23.35160 34.85164
#
# Velocity S-wave (km/s) = 4.53575 3.21940 3.93304
# Velocity P-wave (km/s) = 6.54831 6.24622 6.39905
#
# Compressibility (1/GPa) = 0.02872869
#
# Stress axis : x y z
#
# Youngs Moduli (GPa) = 182.04773 44.99248 89.62924
#
# Poissons Ratio (x) = 0.11849 0.20647
# Poissons Ratio (y) = 0.47945 0.01224
# Poissons Ratio (z) = 0.41936 0.00614
#
# Static dielectric constant tensor:
#      x y z
#    x 1.861030 0.000000 0.000000 
#    y 0.000000 1.873110 0.000000 
#    z 0.000000 0.000000 1.880490 
# 
# From -- ./inp_files/14471.got.cif
#   From: 2010.05.17/outbox.cif.g08.bks.cpg/sg67_8_cif.got.tgz:14471.got - 2010.06.03 18:28:57.
