data_PCOD9505626
_publ_section_title
;
Structure prediction by ZEFSAII (Michael W. Deem and Ramdas Pophale) SiO2 
 PCOD9505626
Probable space group: C C C A
;
_chemical_formula_sum "Si O2"
_cell_formula_units_Z 88
_cell_length_a 25.826216
_cell_length_b 11.545699
_cell_length_c 11.746444
_cell_angle_alpha 90.000000
_cell_angle_beta 90.000000
_cell_angle_gamma 90.000000
_cell_volume 3502.574832
_symmetry_space_group_name_H-M "C C C A"
_symmetry_group_IT_number 68
_space_group.IT_coordinate_system_code '2'
_symmetry_cell_setting 'orthorhombic'
loop_
_space_group_symop_operation_xyz
x,y,z
-x,1/2-y,z
x,1/2-y,1/2-z
-x,y,1/2-z
-x,-y,-z
x,1/2+y,-z
-x,1/2+y,1/2+z
x,-y,1/2+z
1/2+x,1/2+y,z
1/2-x,-y,z
1/2+x,-y,1/2-z
1/2-x,1/2+y,1/2-z
1/2-x,1/2-y,-z
1/2+x,y,-z
1/2-x,y,1/2+z
1/2+x,1/2-y,1/2+z
loop_
_atom_site_type_symbol
_atom_site_label
_atom_site_fract_x
_atom_site_fract_y
_atom_site_fract_z
Si Si1 0.693804 0.250000 0.750000
Si Si2 0.144892 0.717363 0.384542
Si Si3 0.273657 0.891886 0.903321
Si Si4 0.460437 0.007245 0.331875
Si Si5 0.349025 0.494139 0.782107
Si Si6 0.463667 0.162233 0.029620
O O1 0.731754 0.307870 0.843642
O O2 0.659364 0.142556 0.794513
O O3 0.148618 0.750000 0.250000
O O4 0.183706 0.802096 0.449362
O O5 0.157313 0.580508 0.388781
O O6 0.086563 0.727312 0.425542
O O7 0.250000 0.000000 0.973154
O O8 0.305574 0.962524 0.806525
O O9 0.500000 0.938971 0.250000
O O10 0.406320 0.022924 0.266966
O O11 0.447219 0.941103 0.447847
O O12 0.498524 0.111537 0.372589
O O13 0.500000 0.250000 0.962336
#
# Coordination Sequence:
#
# PCOD9505626 Si02
#       6
#     8  16  16  16  16  16
#     4  10  18  30  55  90 119 168 226 264 338 406
#     4  10  18  34  64  95 121 169 223 280 329 407
#     4   9  17  31  57  97 122 154 222 283 329 397
#     4  11  24  42  60  94 138 173 222 280 336 407
#     4  10  19  33  57  89 126 170 216 274 331 395
#     4  11  24  39  65  96 127 180 227 276 336 409
#
# _framework density 25.124374
#
# number of rings (size 3 to 8) (size 9 to 14) (size 15 to 20)
#    0.000    1.818    4.545    2.182    0.000    1.818 
#    0.000    0.000    0.000    4.364    4.727    0.000 
#    0.000    0.000    0.000    0.000    0.000    0.364 
#
# Total GULP energy -245683.178939 kJ/mol
# GULP energy per Si atom -5583.708612 kJ/mol
# Density = 2.506719 g / cm^3
# Si number density = 25.124374 Si / 1000 Ang^3
#
#
#
# Elastic Constant Matrix: (Units=GPa)
#
#
# Indices 1 2 3 4 5 6 
#
# 1 174.3043 85.6779 34.6865 0.0000 0.0000 0.0000
# 2 85.6779 191.7768 20.7574 0.0000 0.0000 0.0000
# 3 34.6865 20.7574 54.9209 0.0000 0.0000 0.0000
# 4 0.0000 0.0000 0.0000 1.9552 0.0000 0.0000
# 5 0.0000 0.0000 0.0000 0.0000 -44.6190 0.0000
# 6 0.0000 0.0000 0.0000 0.0000 0.0000 43.3738
#
#
#
# Elastic Compliance Matrix: (Units=1/GPa)
#
#
# Indices 1 2 3 4 5 6 
#
# 1 0.008080 -0.003188 -0.003898 0.000000 0.000000 0.000000
# 2 -0.003188 0.006695 -0.000517 0.000000 0.000000 0.000000
# 3 -0.003898 -0.000517 0.020865 0.000000 0.000000 0.000000
# 4 0.000000 0.000000 0.000000 0.511463 0.000000 0.000000
# 5 0.000000 0.000000 0.000000 0.000000 -0.022412 0.000000
# 6 0.000000 0.000000 0.000000 0.000000 0.000000 0.023055
#
#
# Mechanical properties :
#
#
# Convention : Reuss Voigt Hill
#
# Bulk Modulus (GPa) = 48.93800 78.13838 63.53819
# Shear Modulus (GPa) = 8.77559 18.80068 13.78813
#
# Velocity S-wave (km/s) = 1.87095 2.73848 2.34518
# Velocity P-wave (km/s) = 4.91811 6.41617 5.71643
#
# Compressibility (1/GPa) = 0.02043402
#
# Stress axis : x y z
#
# Youngs Moduli (GPa) = 123.76630 149.37625 47.92641
#
# Poissons Ratio (x) = 0.47618 0.18682
# Poissons Ratio (y) = 0.39454 0.02477
# Poissons Ratio (z) = 0.48246 0.07721
#
# Static dielectric constant tensor:
#      x y z
#    x 1.980720 0.000000 0.000000 
#    y 0.000000 2.130460 0.000000 
#    z 0.000000 0.000000 2.040030 
# 
# From -- ./inp_files/25947.got.cif
#   From: 2010.05.17/outbox.cif.g08.bks.cpg/sg68_13_cif.got.tgz:25947.got - 2010.06.03 18:57:09.
