data_PCOD9505667
_publ_section_title
;
Structure prediction by ZEFSAII (Michael W. Deem and Ramdas Pophale) SiO2 
 PCOD9505667
Probable space group: C C C A
;
_chemical_formula_sum "Si O2"
_cell_formula_units_Z 76
_cell_length_a 23.007714
_cell_length_b 6.028074
_cell_length_c 28.276353
_cell_angle_alpha 90.000000
_cell_angle_beta 90.000000
_cell_angle_gamma 90.000000
_cell_volume 3921.709678
_symmetry_space_group_name_H-M "C C C A"
_symmetry_group_IT_number 68
_space_group.IT_coordinate_system_code '2'
_symmetry_cell_setting 'orthorhombic'
loop_
_space_group_symop_operation_xyz
x,y,z
-x,1/2-y,z
x,1/2-y,1/2-z
-x,y,1/2-z
-x,-y,-z
x,1/2+y,-z
-x,1/2+y,1/2+z
x,-y,1/2+z
1/2+x,1/2+y,z
1/2-x,-y,z
1/2+x,-y,1/2-z
1/2-x,1/2+y,1/2-z
1/2-x,1/2-y,-z
1/2+x,y,-z
1/2-x,y,1/2+z
1/2+x,1/2-y,1/2+z
loop_
_atom_site_type_symbol
_atom_site_label
_atom_site_fract_x
_atom_site_fract_y
_atom_site_fract_z
Si Si1 0.193364 0.886245 0.044043
Si Si2 0.438151 0.364503 0.798182
Si Si3 0.500000 0.750000 0.750000
Si Si4 0.637290 0.251049 0.612279
Si Si5 0.419524 0.141952 0.983003
Si Si6 0.750000 0.500000 0.895671
O O1 0.218098 0.680328 0.072273
O O2 0.250000 0.000000 0.022356
O O3 0.163995 0.046606 0.082505
O O4 0.144299 0.838002 0.006319
O O5 0.500000 0.250000 0.808976
O O6 0.415102 0.250000 0.750000
O O7 0.457630 0.608371 0.783143
O O8 0.397315 0.334985 0.842537
O O9 0.593426 0.135492 0.573614
O O10 0.694011 0.112065 0.628832
O O11 0.443251 0.395614 0.997936
#
# Coordination Sequence:
#
# PCOD9505667 Si02
#       6
#    16  16   4  16  16   8
#     4   9  19  29  47  77 116 162 202 234 276 335
#     4   9  20  40  65  90 103 137 196 256 311 356
#     4   8  18  40  64  86 108 124 198 268 320 344
#     4  10  20  32  55  84 117 151 191 239 296 354
#     4  10  19  32  48  81 120 161 202 240 284 344
#     4  10  18  32  50  82 116 158 194 228 282 348
#
# _framework density 19.379304000000001
#
# number of rings (size 3 to 8) (size 9 to 14) (size 15 to 20)
#    0.000    2.737    2.105    0.000    1.474    5.895 
#    0.000    0.000    6.947    5.053    0.000    0.000 
#    0.000    0.000    0.000    0.000    0.000    0.000 
#
# Total GULP energy -211548.496574 kJ/mol
# GULP energy per Si atom -5567.065699 kJ/mol
# Density = 1.933520 g / cm^3
# Si number density = 19.379304 Si / 1000 Ang^3
#
#
#
# Elastic Constant Matrix: (Units=GPa)
#
#
# Indices 1 2 3 4 5 6 
#
# 1 57.2263 38.6523 57.9258 0.0000 0.0000 0.0000
# 2 38.6523 110.2951 36.6415 0.0000 0.0000 0.0000
# 3 57.9258 36.6415 124.9767 0.0000 0.0000 0.0000
# 4 0.0000 0.0000 0.0000 22.9319 0.0000 0.0000
# 5 0.0000 0.0000 0.0000 0.0000 28.2100 0.0000
# 6 0.0000 0.0000 0.0000 0.0000 0.0000 5.4793
#
#
#
# Elastic Compliance Matrix: (Units=1/GPa)
#
#
# Indices 1 2 3 4 5 6 
#
# 1 0.038969 -0.008482 -0.015575 0.000000 0.000000 0.000000
# 2 -0.008482 0.011891 0.000445 0.000000 0.000000 0.000000
# 3 -0.015575 0.000445 0.015090 0.000000 0.000000 0.000000
# 4 0.000000 0.000000 0.000000 0.043607 0.000000 0.000000
# 5 0.000000 0.000000 0.000000 0.000000 0.035448 0.000000
# 6 0.000000 0.000000 0.000000 0.000000 0.000000 0.182506
#
#
# Mechanical properties :
#
#
# Convention : Reuss Voigt Hill
#
# Bulk Modulus (GPa) = 53.40197 62.10417 57.75307
# Shear Modulus (GPa) = 13.12411 21.94281 17.53346
#
# Velocity S-wave (km/s) = 2.60517 3.36859 3.01117
# Velocity P-wave (km/s) = 6.05518 6.87358 6.47732
#
# Compressibility (1/GPa) = 0.01872590
#
# Stress axis : x y z
#
# Youngs Moduli (GPa) = 25.66143 84.09529 66.26960
#
# Poissons Ratio (x) = 0.71332 1.03215
# Poissons Ratio (y) = 0.21767 -0.02950
# Poissons Ratio (z) = 0.39968 -0.03743
#
# Static dielectric constant tensor:
#      x y z
#    x 1.693050 0.000000 0.000000 
#    y 0.000000 1.791260 0.000000 
#    z 0.000000 0.000000 1.658780 
# 
# From -- ./inp_files/55935.got.cif
#   From: 2010.05.17/outbox.cif.g08.bks.cpg/sg68_28_cif.got.tgz:55935.got - 2010.06.03 18:57:09.
