data_PCOD9505305
_publ_section_title
;
Structure prediction by ZEFSAII (Michael W. Deem and Ramdas Pophale) SiO2 
 PCOD9505305
Probable space group: C C C A
;
_chemical_formula_sum "Si O2"
_cell_formula_units_Z 96
_cell_length_a 8.034391
_cell_length_b 25.978106
_cell_length_c 18.748461
_cell_angle_alpha 90.000000
_cell_angle_beta 90.000000
_cell_angle_gamma 90.000000
_cell_volume 3913.146177
_symmetry_space_group_name_H-M "C C C A"
_symmetry_group_IT_number 68
_space_group.IT_coordinate_system_code '2'
_symmetry_cell_setting 'orthorhombic'
loop_
_space_group_symop_operation_xyz
x,y,z
-x,1/2-y,z
x,1/2-y,1/2-z
-x,y,1/2-z
-x,-y,-z
x,1/2+y,-z
-x,1/2+y,1/2+z
x,-y,1/2+z
1/2+x,1/2+y,z
1/2-x,-y,z
1/2+x,-y,1/2-z
1/2-x,1/2+y,1/2-z
1/2-x,1/2-y,-z
1/2+x,y,-z
1/2-x,y,1/2+z
1/2+x,1/2-y,1/2+z
loop_
_atom_site_type_symbol
_atom_site_label
_atom_site_fract_x
_atom_site_fract_y
_atom_site_fract_z
Si Si1 0.749379 0.916473 0.778634
Si Si2 0.531805 0.141594 0.962646
Si Si3 0.681904 0.203089 0.788111
Si Si4 0.088400 0.442484 0.139494
Si Si5 0.500000 0.250000 0.919144
Si Si6 0.640403 0.090102 0.421111
Si Si7 0.250000 0.500000 0.523355
O O1 0.748600 0.854047 0.777217
O O2 0.768663 0.938871 0.699664
O O3 0.613869 0.927101 0.839757
O O4 0.914786 0.938651 0.818405
O O5 0.415459 0.109578 0.907871
O O6 0.465992 0.199568 0.965366
O O7 0.715709 0.133693 0.930349
O O8 0.516957 0.113181 0.038411
O O9 0.776240 0.250000 0.750000
O O10 0.500000 0.197470 0.750000
O O11 0.639380 0.227397 0.865247
O O12 0.104431 0.488153 0.081483
O O13 0.725200 0.046278 0.469003
#
# Coordination Sequence:
#
# PCOD9505305 Si02
#       7
#    16  16  16  16   8  16   8
#     4  10  16  32  52  78 102 133 175 242 254 310
#     4  10  20  35  53  81 112 146 171 220 264 331
#     4   9  14  23  48  80 104 130 169 227 273 288
#     4   9  17  32  51  72 100 133 183 225 268 297
#     4  10  15  28  52  78 110 139 172 204 270 316
#     4  10  22  36  54  77 113 140 180 219 276 314
#     4  10  22  36  50  72 106 152 170 216 282 336
#
# _framework density 24.532689999999999
#
# number of rings (size 3 to 8) (size 9 to 14) (size 15 to 20)
#    0.000    2.500    5.000    1.000    0.000    7.333 
#    0.000    1.667    0.000    3.000    0.000    0.000 
#    0.000    0.000    0.000    0.000    0.000    0.000 
#
# Total GULP energy -267326.809734 kJ/mol
# GULP energy per Si atom -5569.308536 kJ/mol
# Density = 2.447685 g / cm^3
# Si number density = 24.532690 Si / 1000 Ang^3
#
#
#
# Elastic Constant Matrix: (Units=GPa)
#
#
# Indices 1 2 3 4 5 6 
#
# 1 49.5624 -8.3123 -3.1589 0.0000 0.0000 0.0000
# 2 -8.3123 101.2429 -9.0674 0.0000 0.0000 0.0000
# 3 -3.1589 -9.0674 83.4061 0.0000 0.0000 0.0000
# 4 0.0000 0.0000 0.0000 20.6056 0.0000 0.0000
# 5 0.0000 0.0000 0.0000 0.0000 22.8617 0.0000
# 6 0.0000 0.0000 0.0000 0.0000 0.0000 12.3794
#
#
#
# Elastic Compliance Matrix: (Units=1/GPa)
#
#
# Indices 1 2 3 4 5 6 
#
# 1 0.020536 0.001773 0.000971 0.000000 0.000000 0.000000
# 2 0.001773 0.010127 0.001168 0.000000 0.000000 0.000000
# 3 0.000971 0.001168 0.012153 0.000000 0.000000 0.000000
# 4 0.000000 0.000000 0.000000 0.048531 0.000000 0.000000
# 5 0.000000 0.000000 0.000000 0.000000 0.043741 0.000000
# 6 0.000000 0.000000 0.000000 0.000000 0.000000 0.080780
#
#
# Mechanical properties :
#
#
# Convention : Reuss Voigt Hill
#
# Bulk Modulus (GPa) = 19.74735 21.45936 20.60336
# Shear Modulus (GPa) = 22.22966 28.15265 25.19115
#
# Velocity S-wave (km/s) = 3.01346 3.39124 3.20791
# Velocity P-wave (km/s) = 4.49163 4.90920 4.70505
#
# Compressibility (1/GPa) = 0.05063971
#
# Stress axis : x y z
#
# Youngs Moduli (GPa) = 48.69548 98.74184 82.28226
#
# Poissons Ratio (x) = -0.17506 -0.07986
# Poissons Ratio (y) = -0.08633 -0.09612
# Poissons Ratio (z) = -0.04726 -0.11534
#
# Static dielectric constant tensor:
#      x y z
#    x 2.044920 0.000000 0.000000 
#    y 0.000000 2.000520 0.000000 
#    z 0.000000 0.000000 2.047270 
# 
# From -- ./inp_files/29946.got.cif
#   From: 2010.05.17/outbox.cif.g08.bks.cpg/sg68_15_cif.got.tgz:29946.got - 2010.06.03 18:57:09.
