data_PCOD9505785
_publ_section_title
;
Structure prediction by ZEFSAII (Michael W. Deem and Ramdas Pophale) SiO2 
 PCOD9505785
Probable space group: C C C A
;
_chemical_formula_sum "Si O2"
_cell_formula_units_Z 104
_cell_length_a 24.653421
_cell_length_b 7.997079
_cell_length_c 25.553609
_cell_angle_alpha 90.000000
_cell_angle_beta 90.000000
_cell_angle_gamma 90.000000
_cell_volume 5038.030863
_symmetry_space_group_name_H-M "C C C A"
_symmetry_group_IT_number 68
_space_group.IT_coordinate_system_code '2'
_symmetry_cell_setting 'orthorhombic'
loop_
_space_group_symop_operation_xyz
x,y,z
-x,1/2-y,z
x,1/2-y,1/2-z
-x,y,1/2-z
-x,-y,-z
x,1/2+y,-z
-x,1/2+y,1/2+z
x,-y,1/2+z
1/2+x,1/2+y,z
1/2-x,-y,z
1/2+x,-y,1/2-z
1/2-x,1/2+y,1/2-z
1/2-x,1/2-y,-z
1/2+x,y,-z
1/2-x,y,1/2+z
1/2+x,1/2-y,1/2+z
loop_
_atom_site_type_symbol
_atom_site_label
_atom_site_fract_x
_atom_site_fract_y
_atom_site_fract_z
Si Si1 0.178692 0.750000 0.750000
Si Si2 0.379255 0.594292 0.784646
Si Si3 0.040203 0.438900 0.047009
Si Si4 0.766452 0.695743 0.165339
Si Si5 0.467366 0.918277 0.628387
Si Si6 0.901082 0.760089 0.466079
Si Si7 0.277507 0.678275 0.949338
O O1 0.143946 0.578739 0.758801
O O2 0.220663 0.778177 0.798312
O O3 0.401548 0.750000 0.750000
O O4 0.327216 0.685215 0.811818
O O5 0.425367 0.538394 0.826062
O O6 0.089469 0.570112 0.050072
O O7 0.009084 0.448693 0.102222
O O8 0.069529 0.279045 0.022434
O O9 0.000000 0.500000 0.000000
O O10 0.750000 0.500000 0.164614
O O11 0.768625 0.766105 0.106638
O O12 0.500000 0.750000 0.643952
O O13 0.432919 0.862669 0.577873
O O14 0.840616 0.823051 0.462938
O O15 0.250000 0.500000 0.942445
O O16 0.250000 0.750000 0.000000
#
# Coordination Sequence:
#
# PCOD9505785 Si02
#       7
#     8  16  16  16  16  16  16
#     4  10  22  42  66 103 125 164 232 270 322 414
#     4  11  21  39  70  92 125 171 210 275 338 381
#     4   9  18  33  60  84 116 158 214 261 297 389
#     4   9  19  37  61  87 128 170 210 266 327 389
#     4   9  19  36  61  86 115 160 209 259 323 384
#     4  10  18  35  58  85 121 165 213 247 318 386
#     4  11  22  37  55  89 133 171 204 260 327 390
#
# _framework density 20.642986000000001
#
# number of rings (size 3 to 8) (size 9 to 14) (size 15 to 20)
#    0.000    2.154    2.308    2.308    0.000    0.308 
#    2.769    0.000   13.538    0.923    0.000    0.000 
#    0.000    0.000    0.000    0.000    0.000    0.000 
#
# Total GULP energy -289515.779897 kJ/mol
# GULP energy per Si atom -5567.611152 kJ/mol
# Density = 2.059600 g / cm^3
# Si number density = 20.642986 Si / 1000 Ang^3
#
#
#
# Elastic Constant Matrix: (Units=GPa)
#
#
# Indices 1 2 3 4 5 6 
#
# 1 107.0125 41.2367 41.5901 0.0000 0.0000 0.0000
# 2 41.2367 73.4983 41.4296 0.0000 0.0000 0.0000
# 3 41.5901 41.4296 124.0853 0.0000 0.0000 0.0000
# 4 0.0000 0.0000 0.0000 22.6627 0.0000 0.0000
# 5 0.0000 0.0000 0.0000 0.0000 39.5988 0.0000
# 6 0.0000 0.0000 0.0000 0.0000 0.0000 24.7236
#
#
#
# Elastic Compliance Matrix: (Units=1/GPa)
#
#
# Indices 1 2 3 4 5 6 
#
# 1 0.012417 -0.005692 -0.002261 0.000000 0.000000 0.000000
# 2 -0.005692 0.019369 -0.004559 0.000000 0.000000 0.000000
# 3 -0.002261 -0.004559 0.010339 0.000000 0.000000 0.000000
# 4 0.000000 0.000000 0.000000 0.044125 0.000000 0.000000
# 5 0.000000 0.000000 0.000000 0.000000 0.025253 0.000000
# 6 0.000000 0.000000 0.000000 0.000000 0.000000 0.040447
#
#
# Mechanical properties :
#
#
# Convention : Reuss Voigt Hill
#
# Bulk Modulus (GPa) = 58.47866 61.45651 59.96759
# Shear Modulus (GPa) = 27.37083 29.41966 28.39524
#
# Velocity S-wave (km/s) = 3.64526 3.77923 3.71285
# Velocity P-wave (km/s) = 6.79024 6.99137 6.89154
#
# Compressibility (1/GPa) = 0.01710025
#
# Stress axis : x y z
#
# Youngs Moduli (GPa) = 80.53515 51.62845 96.71953
#
# Poissons Ratio (x) = 0.29386 0.21872
# Poissons Ratio (y) = 0.45840 0.44096
# Poissons Ratio (z) = 0.18212 0.23538
#
# Static dielectric constant tensor:
#      x y z
#    x 1.676010 0.000000 0.000000 
#    y 0.000000 1.792920 0.000000 
#    z 0.000000 0.000000 1.810600 
# 
# From -- ./inp_files/52160.got.cif
#   From: 2010.05.17/outbox.cif.g08.bks.cpg/sg68_27_cif.got.tgz:52160.got - 2010.06.03 18:57:09.
