data_PCOD9505117
_publ_section_title
;
Structure prediction by ZEFSAII (Michael W. Deem and Ramdas Pophale) SiO2 
 PCOD9505117
Probable space group: C M M A
;
_chemical_formula_sum "Si O2"
_cell_formula_units_Z 112
_cell_length_a 19.200150
_cell_length_b 14.685155
_cell_length_c 19.778590
_cell_angle_alpha 90.000000
_cell_angle_beta 90.000000
_cell_angle_gamma 90.000000
_cell_volume 5576.715437
_symmetry_space_group_name_H-M "C M M A"
_symmetry_group_IT_number 67
_symmetry_cell_setting 'orthorhombic'
loop_
_space_group_symop_operation_xyz
x,y,z
-x,1/2-y,z
x,-y,-z
-x,1/2+y,-z
-x,-y,-z
x,1/2+y,-z
-x,y,z
x,1/2-y,z
1/2+x,1/2+y,z
1/2-x,-y,z
1/2+x,1/2-y,-z
1/2-x,y,-z
1/2-x,1/2-y,-z
1/2+x,y,-z
1/2-x,1/2+y,z
1/2+x,-y,z
loop_
_atom_site_type_symbol
_atom_site_label
_atom_site_fract_x
_atom_site_fract_y
_atom_site_fract_z
Si Si1 0.421558 0.355468 0.713355
Si Si2 0.220150 0.638819 0.071688
Si Si3 0.577665 0.138826 0.139148
Si Si4 0.919560 0.384490 0.435562
Si Si5 0.080645 0.101741 0.581184
Si Si6 0.149346 0.859157 0.276802
Si Si7 0.209168 0.361656 0.209700
O O1 0.500000 0.396162 0.712941
O O2 0.429157 0.250000 0.732982
O O3 0.391392 0.354364 0.636845
O O4 0.364169 0.397101 0.762604
O O5 0.219125 0.750000 0.071062
O O6 0.141596 0.609881 0.091085
O O7 0.270137 0.611921 0.133841
O O8 0.250000 0.608554 0.000000
O O9 0.500000 0.107084 0.121511
O O10 0.576874 0.250000 0.137293
O O11 0.598017 0.112320 0.215942
O O12 0.890846 0.359683 0.509569
O O13 0.920572 0.493406 0.429587
O O14 0.000000 0.353372 0.436568
O O15 0.123187 0.118275 0.648798
O O16 0.000000 0.131943 0.590098
O O17 0.151256 0.750000 0.272954
O O18 0.226800 0.890789 0.257430
O O19 0.207132 0.250000 0.211274
#
# Coordination Sequence:
#
# PCOD9505117 Si02
#       7
#    16  16  16  16  16  16  16
#     4   9  16  28  46  61  74 101 140 175 205 240
#     4   8  13  22  36  53  78 112 137 153 191 248
#     4   8  13  21  33  52  78 105 134 167 197 228
#     4   8  16  29  42  58  81 107 134 170 212 241
#     4   9  16  27  42  59  82 110 137 167 204 242
#     4   9  16  25  39  59  83 110 136 165 204 245
#     4   8  15  27  40  57  82 106 131 168 208 241
#
# _framework density 20.083507000000001
#
# number of rings (size 3 to 8) (size 9 to 14) (size 15 to 20)
#    0.000    3.571    0.000    3.000    0.000    1.429 
#    0.000    3.571    0.000    8.571    0.000    0.000 
#    0.000    9.143    0.000   22.143    0.000   21.429 
#
# Total GULP energy -311870.415336 kJ/mol
# GULP energy per Si atom -5569.114560 kJ/mol
# Density = 2.003780 g / cm^3
# Si number density = 20.083507 Si / 1000 Ang^3
#
#
#
# Elastic Constant Matrix: (Units=GPa)
#
#
# Indices 1 2 3 4 5 6 
#
# 1 131.5600 8.0551 113.4501 0.0000 0.0000 0.0000
# 2 8.0551 43.5768 2.3829 0.0000 0.0000 0.0000
# 3 113.4501 2.3829 182.0141 0.0000 0.0000 0.0000
# 4 0.0000 0.0000 0.0000 25.3597 0.0000 0.0000
# 5 0.0000 0.0000 0.0000 0.0000 25.1625 0.0000
# 6 0.0000 0.0000 0.0000 0.0000 0.0000 6.2679
#
#
#
# Elastic Compliance Matrix: (Units=1/GPa)
#
#
# Indices 1 2 3 4 5 6 
#
# 1 0.016707 -0.002521 -0.010381 0.000000 0.000000 0.000000
# 2 -0.002521 0.023345 0.001266 0.000000 0.000000 0.000000
# 3 -0.010381 0.001266 0.011948 0.000000 0.000000 0.000000
# 4 0.000000 0.000000 0.000000 0.039433 0.000000 0.000000
# 5 0.000000 0.000000 0.000000 0.000000 0.039742 0.000000
# 6 0.000000 0.000000 0.000000 0.000000 0.000000 0.159544
#
#
# Mechanical properties :
#
#
# Convention : Reuss Voigt Hill
#
# Bulk Modulus (GPa) = 34.80908 67.21412 51.01160
# Shear Modulus (GPa) = 15.45282 26.90886 21.18084
#
# Velocity S-wave (km/s) = 2.77687 3.66437 3.25104
# Velocity P-wave (km/s) = 5.25843 7.17241 6.28866
#
# Compressibility (1/GPa) = 0.02872813
#
# Stress axis : x y z
#
# Youngs Moduli (GPa) = 59.85481 42.83621 83.69753
#
# Poissons Ratio (x) = 0.10797 0.86883
# Poissons Ratio (y) = 0.15087 -0.10592
# Poissons Ratio (z) = 0.62133 -0.05421
#
# Static dielectric constant tensor:
#      x y z
#    x 1.716190 0.000000 0.000000 
#    y 0.000000 1.806210 0.000000 
#    z 0.000000 0.000000 1.722540 
# 
# From -- ./inp_files/35099.got.cif
#   From: 2010.05.17/outbox.cif.g08.bks.cpg/sg67_18_cif.got.tgz:35099.got - 2010.06.03 18:28:57.
