data_PCOD9505863
_publ_section_title
;
Structure prediction by ZEFSAII (Michael W. Deem and Ramdas Pophale) SiO2 
 PCOD9505863
Probable space group: C C C A
;
_chemical_formula_sum "Si O2"
_cell_formula_units_Z 104
_cell_length_a 9.391251
_cell_length_b 18.351919
_cell_length_c 28.323576
_cell_angle_alpha 90.000000
_cell_angle_beta 90.000000
_cell_angle_gamma 90.000000
_cell_volume 4881.496882
_symmetry_space_group_name_H-M "C C C A"
_symmetry_group_IT_number 68
_space_group.IT_coordinate_system_code '2'
_symmetry_cell_setting 'orthorhombic'
loop_
_space_group_symop_operation_xyz
x,y,z
-x,1/2-y,z
x,1/2-y,1/2-z
-x,y,1/2-z
-x,-y,-z
x,1/2+y,-z
-x,1/2+y,1/2+z
x,-y,1/2+z
1/2+x,1/2+y,z
1/2-x,-y,z
1/2+x,-y,1/2-z
1/2-x,1/2+y,1/2-z
1/2-x,1/2-y,-z
1/2+x,y,-z
1/2-x,y,1/2+z
1/2+x,1/2-y,1/2+z
loop_
_atom_site_type_symbol
_atom_site_label
_atom_site_fract_x
_atom_site_fract_y
_atom_site_fract_z
Si Si1 0.750000 0.500000 0.900631
Si Si2 0.852319 0.720778 0.369999
Si Si3 0.413877 0.939469 0.312974
Si Si4 0.552909 0.833087 0.456810
Si Si5 0.746386 0.369067 0.456336
Si Si6 0.392482 0.181667 0.651073
Si Si7 0.391802 0.103298 0.289013
O O1 0.651937 0.452779 0.865370
O O2 0.676203 0.559059 0.933785
O O3 0.764829 0.691180 0.414736
O O4 0.762327 0.782517 0.342450
O O5 0.889186 0.656060 0.334021
O O6 0.000000 0.750000 0.389328
O O7 0.542038 0.882526 0.317030
O O8 0.279287 0.910436 0.281895
O O9 0.450853 0.021783 0.298916
O O10 0.500000 0.750000 0.461787
O O11 0.670539 0.846499 0.496025
O O12 0.412907 0.881649 0.465186
O O13 0.604256 0.844377 0.403309
O O14 0.500000 0.250000 0.655873
O O15 0.500000 0.134201 0.250000
#
# Coordination Sequence:
#
# PCOD9505863 Si02
#       7
#     8  16  16  16  16  16  16
#     4  10  18  38  64  86 122 176 220 264 336 376
#     4  12  24  40  66  98 131 172 214 275 341 388
#     4  10  19  42  73  92 126 178 216 267 333 413
#     4  11  22  34  58  90 128 172 225 270 313 383
#     4  12  22  38  58  89 131 177 218 273 322 382
#     4  11  19  41  68  95 128 178 227 259 321 404
#     4  10  21  42  71  98 127 165 216 269 342 402
#
# _framework density 21.304939000000001
#
# number of rings (size 3 to 8) (size 9 to 14) (size 15 to 20)
#    0.000    1.231    9.231    0.923    2.154    0.923 
#    5.538    0.000    0.000    0.462    0.000    0.000 
#    0.000    0.000    0.000    0.000    0.000    0.000 
#
# Total GULP energy -290122.198324 kJ/mol
# GULP energy per Si atom -5579.273045 kJ/mol
# Density = 2.125645 g / cm^3
# Si number density = 21.304939 Si / 1000 Ang^3
#
#
#
# Elastic Constant Matrix: (Units=GPa)
#
#
# Indices 1 2 3 4 5 6 
#
# 1 64.6539 36.9227 24.6219 0.0000 0.0000 0.0000
# 2 36.9227 69.3759 26.7717 0.0000 0.0000 0.0000
# 3 24.6219 26.7717 79.9669 0.0000 0.0000 0.0000
# 4 0.0000 0.0000 0.0000 7.1519 0.0000 0.0000
# 5 0.0000 0.0000 0.0000 0.0000 31.7627 0.0000
# 6 0.0000 0.0000 0.0000 0.0000 0.0000 20.4428
#
#
#
# Elastic Compliance Matrix: (Units=1/GPa)
#
#
# Indices 1 2 3 4 5 6 
#
# 1 0.023011 -0.010924 -0.003428 0.000000 0.000000 0.000000
# 2 -0.010924 0.021739 -0.003914 0.000000 0.000000 0.000000
# 3 -0.003428 -0.003914 0.014871 0.000000 0.000000 0.000000
# 4 0.000000 0.000000 0.000000 0.139823 0.000000 0.000000
# 5 0.000000 0.000000 0.000000 0.000000 0.031483 0.000000
# 6 0.000000 0.000000 0.000000 0.000000 0.000000 0.048917
#
#
# Mechanical properties :
#
#
# Convention : Reuss Voigt Hill
#
# Bulk Modulus (GPa) = 43.31184 43.40325 43.35754
# Shear Modulus (GPa) = 15.42866 20.25016 17.83941
#
# Velocity S-wave (km/s) = 2.69398 3.08635 2.89682
# Velocity P-wave (km/s) = 5.48182 5.75477 5.61995
#
# Compressibility (1/GPa) = 0.02308837
#
# Stress axis : x y z
#
# Youngs Moduli (GPa) = 43.45778 46.00131 67.24459
#
# Poissons Ratio (x) = 0.50251 0.23051
# Poissons Ratio (y) = 0.47473 0.26321
# Poissons Ratio (z) = 0.14897 0.18006
#
# Static dielectric constant tensor:
#      x y z
#    x 1.822800 0.000000 0.000000 
#    y 0.000000 1.808200 0.000000 
#    z 0.000000 0.000000 1.770310 
# 
# From -- ./inp_files/49428.got.cif
#   From: 2010.05.17/outbox.cif.g08.bks.cpg/sg68_25_cif.got.tgz:49428.got - 2010.06.03 18:57:09.
