data_PCOD9505766
_publ_section_title
;
Structure prediction by ZEFSAII (Michael W. Deem and Ramdas Pophale) SiO2 
 PCOD9505766
Probable space group: C C C A
;
_chemical_formula_sum "Si O2"
_cell_formula_units_Z 72
_cell_length_a 18.410844
_cell_length_b 8.562439
_cell_length_c 22.201859
_cell_angle_alpha 90.000000
_cell_angle_beta 90.000000
_cell_angle_gamma 90.000000
_cell_volume 3499.939433
_symmetry_space_group_name_H-M "C C C A"
_symmetry_group_IT_number 68
_space_group.IT_coordinate_system_code '2'
_symmetry_cell_setting 'orthorhombic'
loop_
_space_group_symop_operation_xyz
x,y,z
-x,1/2-y,z
x,1/2-y,1/2-z
-x,y,1/2-z
-x,-y,-z
x,1/2+y,-z
-x,1/2+y,1/2+z
x,-y,1/2+z
1/2+x,1/2+y,z
1/2-x,-y,z
1/2+x,-y,1/2-z
1/2-x,1/2+y,1/2-z
1/2-x,1/2-y,-z
1/2+x,y,-z
1/2-x,y,1/2+z
1/2+x,1/2-y,1/2+z
loop_
_atom_site_type_symbol
_atom_site_label
_atom_site_fract_x
_atom_site_fract_y
_atom_site_fract_z
Si Si1 0.666354 0.041761 0.522369
Si Si2 0.915634 0.760824 0.426741
Si Si3 0.750000 0.500000 0.779707
Si Si4 0.304591 0.237950 0.631252
Si Si5 0.158045 0.413999 0.831592
O O1 0.620367 0.100120 0.465856
O O2 0.671482 0.185201 0.569406
O O3 0.750000 0.000000 0.507664
O O4 0.627111 0.896590 0.555067
O O5 0.905886 0.806965 0.356355
O O6 0.000000 0.750000 0.441883
O O7 0.707853 0.376322 0.820789
O O8 0.808738 0.419547 0.735408
O O9 0.225402 0.157797 0.629856
O O10 0.354709 0.095973 0.652931
#
# Coordination Sequence:
#
# PCOD9505766 Si02
#       5
#    16  16   8  16  16
#     4  12  23  39  64  88 120 161 216 257 302 363
#     4  12  26  41  58  91 133 169 201 252 318 375
#     4  10  18  34  60  96 120 146 204 272 310 352
#     4  10  19  35  61  95 117 151 206 268 304 354
#     4  10  20  34  59  88 125 155 200 248 315 361
#
# _framework density 20.571784999999998
#
# number of rings (size 3 to 8) (size 9 to 14) (size 15 to 20)
#    0.000    1.333    3.333    5.333    4.667    0.000 
#    0.000    0.000    0.000   10.667    0.000   18.667 
#    0.000    0.000    0.000    0.000    0.000    0.000 
#
# Total GULP energy -200962.181925 kJ/mol
# GULP energy per Si atom -5582.282831 kJ/mol
# Density = 2.052496 g / cm^3
# Si number density = 20.571785 Si / 1000 Ang^3
#
#
#
# Elastic Constant Matrix: (Units=GPa)
#
#
# Indices 1 2 3 4 5 6 
#
# 1 99.7126 22.6458 16.3129 0.0000 0.0000 0.0000
# 2 22.6458 103.1004 21.0773 0.0000 0.0000 0.0000
# 3 16.3129 21.0773 91.0285 0.0000 0.0000 0.0000
# 4 0.0000 0.0000 0.0000 62.7260 0.0000 0.0000
# 5 0.0000 0.0000 0.0000 0.0000 -0.6482 0.0000
# 6 0.0000 0.0000 0.0000 0.0000 0.0000 12.9965
#
#
#
# Elastic Compliance Matrix: (Units=1/GPa)
#
#
# Indices 1 2 3 4 5 6 
#
# 1 0.010734 -0.002062 -0.001446 0.000000 0.000000 0.000000
# 2 -0.002062 0.010577 -0.002080 0.000000 0.000000 0.000000
# 3 -0.001446 -0.002080 0.011726 0.000000 0.000000 0.000000
# 4 0.000000 0.000000 0.000000 0.015942 0.000000 0.000000
# 5 0.000000 0.000000 0.000000 0.000000 -1.542703 0.000000
# 6 0.000000 0.000000 0.000000 0.000000 0.000000 0.076944
#
#
# Mechanical properties :
#
#
# Convention : Reuss Voigt Hill
#
# Bulk Modulus (GPa) = 45.74177 45.99038 45.86608
# Shear Modulus (GPa) = -3.57573 30.60191 13.51309
#
# Velocity S-wave (km/s) = -1.31983 3.86108 2.56574
# Velocity P-wave (km/s) = 4.46776 6.50245 5.57865
#
# Compressibility (1/GPa) = 0.02186185
#
# Stress axis : x y z
#
# Youngs Moduli (GPa) = 93.16452 94.54170 85.27882
#
# Poissons Ratio (x) = 0.19495 0.12332
# Poissons Ratio (y) = 0.19211 0.17735
# Poissons Ratio (z) = 0.13472 0.19661
#
# Static dielectric constant tensor:
#      x y z
#    x 1.735280 0.000000 0.000000 
#    y 0.000000 1.792400 0.000000 
#    z 0.000000 0.000000 1.785310 
# 
# From -- ./inp_files/45867.got.cif
#   From: 2010.05.17/outbox.cif.g08.bks.cpg/sg68_23_cif.got.tgz:45867.got - 2010.06.03 18:57:09.
