data_PCOD9505120
_publ_section_title
;
Structure prediction by ZEFSAII (Michael W. Deem and Ramdas Pophale) SiO2 
 PCOD9505120
Probable space group: C M M A
;
_chemical_formula_sum "Si O2"
_cell_formula_units_Z 80
_cell_length_a 20.069786
_cell_length_b 7.583205
_cell_length_c 27.080277
_cell_angle_alpha 90.000000
_cell_angle_beta 90.000000
_cell_angle_gamma 90.000000
_cell_volume 4121.436763
_symmetry_space_group_name_H-M "C M M A"
_symmetry_group_IT_number 67
_symmetry_cell_setting 'orthorhombic'
loop_
_space_group_symop_operation_xyz
x,y,z
-x,1/2-y,z
x,-y,-z
-x,1/2+y,-z
-x,-y,-z
x,1/2+y,-z
-x,y,z
x,1/2-y,z
1/2+x,1/2+y,z
1/2-x,-y,z
1/2+x,1/2-y,-z
1/2-x,y,-z
1/2-x,1/2-y,-z
1/2+x,y,-z
1/2-x,1/2+y,z
1/2+x,-y,z
loop_
_atom_site_type_symbol
_atom_site_label
_atom_site_fract_x
_atom_site_fract_y
_atom_site_fract_z
Si Si1 0.172929 0.461861 0.859102
Si Si2 0.577796 0.465424 0.339098
Si Si3 0.327183 0.461792 0.252043
Si Si4 0.924053 0.461751 0.944510
Si Si5 0.076460 0.039135 0.552955
O O1 0.165792 0.250000 0.857592
O O2 0.250000 0.500000 0.870425
O O3 0.158834 0.528631 0.803532
O O4 0.123935 0.529728 0.901499
O O5 0.500000 0.515811 0.333941
O O6 0.579002 0.250000 0.338125
O O7 0.623537 0.528977 0.294373
O O8 0.602837 0.521373 0.393756
O O9 0.334535 0.250000 0.250581
O O10 0.250000 0.500000 0.263365
O O11 0.926737 0.250000 0.939872
O O12 0.000000 0.529036 0.940154
O O13 0.900005 0.500000 0.000000
O O14 0.073171 0.250000 0.555738
O O15 0.000000 0.970699 0.550661
O O16 0.109075 0.000000 0.500000
#
# Coordination Sequence:
#
# PCOD9505120 Si02
#       5
#    16  16  16  16  16
#     4   9  18  31  47  67  89 114 145 180 215 253
#     4   8  14  25  43  66  87 109 142 180 214 252
#     4   9  17  30  47  65  87 115 144 176 216 258
#     4   9  18  32  48  67  91 117 145 177 214 255
#     4   8  13  22  37  58  83 108 135 170 211 252
#
# _framework density 19.410706999999999
#
# number of rings (size 3 to 8) (size 9 to 14) (size 15 to 20)
#    0.000    3.400    0.000    1.200    0.000    2.000 
#    0.000    7.000    0.000    2.400    0.000    9.800 
#    0.000    0.000    0.000    0.000    0.000    0.000 
#
# Total GULP energy -222749.625387 kJ/mol
# GULP energy per Si atom -5568.740635 kJ/mol
# Density = 1.936653 g / cm^3
# Si number density = 19.410707 Si / 1000 Ang^3
#
#
#
# Elastic Constant Matrix: (Units=GPa)
#
#
# Indices 1 2 3 4 5 6 
#
# 1 77.2307 1.4516 117.7132 0.0000 0.0000 0.0000
# 2 1.4516 42.2915 7.4168 0.0000 0.0000 0.0000
# 3 117.7132 7.4168 227.9253 0.0000 0.0000 0.0000
# 4 0.0000 0.0000 0.0000 16.3547 0.0000 0.0000
# 5 0.0000 0.0000 0.0000 0.0000 -228.1274 0.0000
# 6 0.0000 0.0000 0.0000 0.0000 0.0000 15.2938
#
#
#
# Elastic Compliance Matrix: (Units=1/GPa)
#
#
# Indices 1 2 3 4 5 6 
#
# 1 0.061340 0.003470 -0.031792 0.000000 0.000000 0.000000
# 2 0.003470 0.023977 -0.002572 0.000000 0.000000 0.000000
# 3 -0.031792 -0.002572 0.020890 0.000000 0.000000 0.000000
# 4 0.000000 0.000000 0.000000 0.061144 0.000000 0.000000
# 5 0.000000 0.000000 0.000000 0.000000 -0.004384 0.000000
# 6 0.000000 0.000000 0.000000 0.000000 0.000000 0.065386
#
#
# Mechanical properties :
#
#
# Convention : Reuss Voigt Hill
#
# Bulk Modulus (GPa) = 22.51300 66.73451 44.62375
# Shear Modulus (GPa) = 16.39611 -24.57140 -4.08764
#
# Velocity S-wave (km/s) = 2.90952 -3.56176 -1.45274
# Velocity P-wave (km/s) = 4.78649 4.18808 4.49725
#
# Compressibility (1/GPa) = 0.04441878
#
# Stress axis : x y z
#
# Youngs Moduli (GPa) = 16.30257 41.70584 47.86889
#
# Poissons Ratio (x) = -0.14473 1.52186
# Poissons Ratio (y) = -0.05657 0.12314
# Poissons Ratio (z) = 0.51830 0.10729
#
# Static dielectric constant tensor:
#      x y z
#    x 1.637570 0.000000 0.000000 
#    y 0.000000 1.740580 0.000000 
#    z 0.000000 0.000000 1.722190 
# 
# From -- ./inp_files/41766.got.cif
#   From: 2010.05.17/outbox.cif.g08.bks.cpg/sg67_21_cif.got.tgz:41766.got - 2010.06.03 18:28:57.
