data_PCOD9505367
_publ_section_title
;
Structure prediction by ZEFSAII (Michael W. Deem and Ramdas Pophale) SiO2 
 PCOD9505367
Probable space group: C C C A
;
_chemical_formula_sum "Si O2"
_cell_formula_units_Z 64
_cell_length_a 24.179322
_cell_length_b 5.269269
_cell_length_c 22.090601
_cell_angle_alpha 90.000000
_cell_angle_beta 90.000000
_cell_angle_gamma 90.000000
_cell_volume 2814.504974
_symmetry_space_group_name_H-M "C C C A"
_symmetry_group_IT_number 68
_space_group.IT_coordinate_system_code '2'
_symmetry_cell_setting 'orthorhombic'
loop_
_space_group_symop_operation_xyz
x,y,z
-x,1/2-y,z
x,1/2-y,1/2-z
-x,y,1/2-z
-x,-y,-z
x,1/2+y,-z
-x,1/2+y,1/2+z
x,-y,1/2+z
1/2+x,1/2+y,z
1/2-x,-y,z
1/2+x,-y,1/2-z
1/2-x,1/2+y,1/2-z
1/2-x,1/2-y,-z
1/2+x,y,-z
1/2-x,y,1/2+z
1/2+x,1/2-y,1/2+z
loop_
_atom_site_type_symbol
_atom_site_label
_atom_site_fract_x
_atom_site_fract_y
_atom_site_fract_z
Si Si1 0.964175 0.504168 0.167363
Si Si2 0.305944 0.840385 0.821082
Si Si3 0.347969 0.834497 0.186048
Si Si4 0.562827 0.486692 0.026231
O O1 0.906944 0.458158 0.201649
O O2 0.944483 0.529991 0.097698
O O3 0.000000 0.250000 0.173196
O O4 0.000000 0.750000 0.182955
O O5 0.308481 0.750000 0.750000
O O6 0.315546 0.558492 0.848480
O O7 0.250000 0.000000 0.833589
O O8 0.351733 0.050503 0.841552
O O9 0.320676 0.750000 0.250000
O O10 0.500000 0.500000 0.000000
O O11 0.590218 0.243971 0.996137
#
# Coordination Sequence:
#
# PCOD9505367 Si02
#       4
#    16  16  16  16
#     4  12  21  33  52  73 108 153 175 211 260 306
#     4  10  18  34  57  75  94 127 170 227 276 295
#     4  10  22  35  48  75 107 135 179 213 242 318
#     4  10  16  30  49  73  96 129 171 232 263 287
#
# _framework density 22.739343999999999
#
# number of rings (size 3 to 8) (size 9 to 14) (size 15 to 20)
#    0.000    1.500    5.000    4.500    0.000    0.500 
#    0.000    1.250    0.000    0.000    0.000    0.000 
#    0.000   20.000    0.000    0.000    0.000    0.000 
#
# Total GULP energy -178235.739061 kJ/mol
# GULP energy per Si atom -5569.866846 kJ/mol
# Density = 2.268759 g / cm^3
# Si number density = 22.739344 Si / 1000 Ang^3
#
#
#
# Elastic Constant Matrix: (Units=GPa)
#
#
# Indices 1 2 3 4 5 6 
#
# 1 96.0450 59.4911 -3.2650 0.0000 0.0000 0.0000
# 2 59.4911 296.3280 14.1074 0.0000 0.0000 0.0000
# 3 -3.2650 14.1074 54.2758 0.0000 0.0000 0.0000
# 4 0.0000 0.0000 0.0000 -31.2148 0.0000 0.0000
# 5 0.0000 0.0000 0.0000 0.0000 -4.1946 0.0000
# 6 0.0000 0.0000 0.0000 0.0000 0.0000 8.8949
#
#
#
# Elastic Compliance Matrix: (Units=1/GPa)
#
#
# Indices 1 2 3 4 5 6 
#
# 1 0.011989 -0.002472 0.001364 0.000000 0.000000 0.000000
# 2 -0.002472 0.003927 -0.001169 0.000000 0.000000 0.000000
# 3 0.001364 -0.001169 0.018810 0.000000 0.000000 0.000000
# 4 0.000000 0.000000 0.000000 -0.032036 0.000000 0.000000
# 5 0.000000 0.000000 0.000000 0.000000 -0.238401 0.000000
# 6 0.000000 0.000000 0.000000 0.000000 0.000000 0.112424
#
#
# Mechanical properties :
#
#
# Convention : Reuss Voigt Hill
#
# Bulk Modulus (GPa) = 33.14413 65.25729 49.20071
# Shear Modulus (GPa) = -46.00858 19.78479 -13.11189
#
# Velocity S-wave (km/s) = -4.50299 2.95289 -2.40389
# Velocity P-wave (km/s) = 3.52542 6.35503 3.73883
#
# Compressibility (1/GPa) = 0.03017126
#
# Stress axis : x y z
#
# Youngs Moduli (GPa) = 83.40800 254.67541 53.16218
#
# Poissons Ratio (x) = 0.62953 -0.07250
# Poissons Ratio (y) = 0.20618 0.06216
# Poissons Ratio (z) = -0.11375 0.29779
#
# Static dielectric constant tensor:
#      x y z
#    x 1.838980 0.000000 0.000000 
#    y 0.000000 2.016340 0.000000 
#    z 0.000000 0.000000 1.886690 
# 
# From -- ./inp_files/42147.got.cif
#   From: 2010.05.17/outbox.cif.g08.bks.cpg/sg68_22_cif.got.tgz:42147.got - 2010.06.03 18:57:09.
