data_PCOD9505879
_publ_section_title
;
Structure prediction by ZEFSAII (Michael W. Deem and Ramdas Pophale) SiO2 
 PCOD9505879
Probable space group: C C C A
;
_chemical_formula_sum "Si O2"
_cell_formula_units_Z 96
_cell_length_a 22.693146
_cell_length_b 11.605695
_cell_length_c 17.817119
_cell_angle_alpha 90.000000
_cell_angle_beta 90.000000
_cell_angle_gamma 90.000000
_cell_volume 4692.489839
_symmetry_space_group_name_H-M "C C C A"
_symmetry_group_IT_number 68
_space_group.IT_coordinate_system_code '2'
_symmetry_cell_setting 'orthorhombic'
loop_
_space_group_symop_operation_xyz
x,y,z
-x,1/2-y,z
x,1/2-y,1/2-z
-x,y,1/2-z
-x,-y,-z
x,1/2+y,-z
-x,1/2+y,1/2+z
x,-y,1/2+z
1/2+x,1/2+y,z
1/2-x,-y,z
1/2+x,-y,1/2-z
1/2-x,1/2+y,1/2-z
1/2-x,1/2-y,-z
1/2+x,y,-z
1/2-x,y,1/2+z
1/2+x,1/2-y,1/2+z
loop_
_atom_site_type_symbol
_atom_site_label
_atom_site_fract_x
_atom_site_fract_y
_atom_site_fract_z
Si Si1 0.130201 0.615056 0.674375
Si Si2 0.028283 0.623726 0.977820
Si Si3 0.147474 0.578590 0.064235
Si Si4 0.205331 0.408665 0.409996
Si Si5 0.410876 0.119279 0.669084
Si Si6 0.740604 0.307397 0.328642
O O1 0.125322 0.541940 0.599081
O O2 0.108312 0.746184 0.667539
O O3 0.092065 0.574011 0.746129
O O4 0.200915 0.616347 0.690920
O O5 0.035125 0.611374 0.887138
O O6 0.000000 0.750000 0.991443
O O7 0.090568 0.632518 0.023189
O O8 0.000000 0.500000 0.000000
O O9 0.183337 0.638928 0.131940
O O10 0.195517 0.574871 0.998166
O O11 0.250000 0.500000 0.378689
O O12 0.143192 0.438765 0.373436
O O13 0.230903 0.285159 0.386596
O O14 0.723770 0.250000 0.250000
#
# Coordination Sequence:
#
# PCOD9505879 Si02
#       6
#    16  16  16  16  16  16
#     4  10  18  39  62  99 129 165 210 266 333 414
#     4  11  25  48  70  92 125 177 238 296 337 386
#     4  11  24  37  64  92 129 172 216 277 334 403
#     4  10  20  34  54  91 126 173 207 249 324 415
#     4   9  20  37  65  91 124 166 221 272 325 399
#     4  11  21  35  58  94 139 172 205 258 328 418
#
# _framework density 20.458223
#
# number of rings (size 3 to 8) (size 9 to 14) (size 15 to 20)
#    0.000    1.667    3.333    3.000    2.333    5.333 
#    0.000    5.833    0.000    0.000    0.000    0.000 
#    0.000    0.000    0.000    0.000    0.000    0.000 
#
# Total GULP energy -267242.692460 kJ/mol
# GULP energy per Si atom -5567.556093 kJ/mol
# Density = 2.041166 g / cm^3
# Si number density = 20.458223 Si / 1000 Ang^3
#
#
#
# Elastic Constant Matrix: (Units=GPa)
#
#
# Indices 1 2 3 4 5 6 
#
# 1 62.0381 29.0829 13.9044 0.0000 0.0000 0.0000
# 2 29.0829 61.4309 25.4999 0.0000 0.0000 0.0000
# 3 13.9044 25.4999 115.7254 0.0000 0.0000 0.0000
# 4 0.0000 0.0000 0.0000 23.1188 0.0000 0.0000
# 5 0.0000 0.0000 0.0000 0.0000 -11.5519 0.0000
# 6 0.0000 0.0000 0.0000 0.0000 0.0000 30.0469
#
#
#
# Elastic Compliance Matrix: (Units=1/GPa)
#
#
# Indices 1 2 3 4 5 6 
#
# 1 0.020731 -0.009664 -0.000361 0.000000 0.000000 0.000000
# 2 -0.009664 0.022423 -0.003780 0.000000 0.000000 0.000000
# 3 -0.000361 -0.003780 0.009517 0.000000 0.000000 0.000000
# 4 0.000000 0.000000 0.000000 0.043255 0.000000 0.000000
# 5 0.000000 0.000000 0.000000 0.000000 -0.086566 0.000000
# 6 0.000000 0.000000 0.000000 0.000000 0.000000 0.033281
#
#
# Mechanical properties :
#
#
# Convention : Reuss Voigt Hill
#
# Bulk Modulus (GPa) = 39.90396 41.79653 40.85024
# Shear Modulus (GPa) = 63.60905 19.70324 41.65614
#
# Velocity S-wave (km/s) = 5.58208 3.10675 4.51727
# Velocity P-wave (km/s) = 7.81624 5.77440 6.87158
#
# Compressibility (1/GPa) = 0.02506017
#
# Stress axis : x y z
#
# Youngs Moduli (GPa) = 48.23762 44.59747 105.07083
#
# Poissons Ratio (x) = 0.43101 0.03796
# Poissons Ratio (y) = 0.46619 0.39713
# Poissons Ratio (z) = 0.01743 0.16856
#
# Static dielectric constant tensor:
#      x y z
#    x 1.773960 0.000000 0.000000 
#    y 0.000000 1.827980 0.000000 
#    z 0.000000 0.000000 1.819790 
# 
# From -- ./inp_files/33565.got.cif
#   From: 2010.05.17/outbox.cif.g08.bks.cpg/sg68_17_cif.got.tgz:33565.got - 2010.06.03 18:57:09.
