data_PCOD9505918
_publ_section_title
;
Structure prediction by ZEFSAII (Michael W. Deem and Ramdas Pophale) SiO2 
 PCOD9505918
Probable space group: C C C A
;
_chemical_formula_sum "Si O2"
_cell_formula_units_Z 80
_cell_length_a 4.975935
_cell_length_b 25.702202
_cell_length_c 33.725649
_cell_angle_alpha 90.000000
_cell_angle_beta 90.000000
_cell_angle_gamma 90.000000
_cell_volume 4313.257110
_symmetry_space_group_name_H-M "C C C A"
_symmetry_group_IT_number 68
_space_group.IT_coordinate_system_code '2'
_symmetry_cell_setting 'orthorhombic'
loop_
_space_group_symop_operation_xyz
x,y,z
-x,1/2-y,z
x,1/2-y,1/2-z
-x,y,1/2-z
-x,-y,-z
x,1/2+y,-z
-x,1/2+y,1/2+z
x,-y,1/2+z
1/2+x,1/2+y,z
1/2-x,-y,z
1/2+x,-y,1/2-z
1/2-x,1/2+y,1/2-z
1/2-x,1/2-y,-z
1/2+x,y,-z
1/2-x,y,1/2+z
1/2+x,1/2-y,1/2+z
loop_
_atom_site_type_symbol
_atom_site_label
_atom_site_fract_x
_atom_site_fract_y
_atom_site_fract_z
Si Si1 0.385723 0.553930 0.347600
Si Si2 0.380879 0.845352 0.206207
Si Si3 0.115674 0.194588 0.836142
Si Si4 0.605976 0.094463 0.109730
Si Si5 0.784629 0.561186 0.973756
O O1 0.250000 0.500000 0.334186
O O2 0.375807 0.597098 0.313051
O O3 0.685759 0.558845 0.364880
O O4 0.190162 0.571810 0.383434
O O5 0.500000 0.846421 0.250000
O O6 0.583390 0.809811 0.180320
O O7 0.083146 0.823475 0.199450
O O8 0.101997 0.151370 0.870577
O O9 0.000000 0.250000 0.849066
O O10 0.700407 0.093076 0.064719
O O11 0.750000 0.500000 0.963192
O O12 0.582077 0.570656 0.010244
#
# Coordination Sequence:
#
# PCOD9505918 Si02
#       5
#    16  16  16  16  16
#     4  10  19  33  52  73 100 138 172 201 247 303
#     4  10  21  35  51  77 105 129 168 216 260 307
#     4  10  21  36  55  75  97 133 174 214 260 302
#     4  10  20  34  52  74 103 133 170 211 245 300
#     4  10  19  30  48  75 103 131 161 198 249 300
#
# _framework density 18.547469
#
# number of rings (size 3 to 8) (size 9 to 14) (size 15 to 20)
#    0.000    2.000    0.000    4.200    0.000    4.000 
#    0.000    6.000    0.000    1.200    0.000    0.000 
#    0.000    0.000    0.000    0.000    0.000    0.000 
#
# Total GULP energy -223168.107162 kJ/mol
# GULP energy per Si atom -5579.202679 kJ/mol
# Density = 1.850525 g / cm^3
# Si number density = 18.547469 Si / 1000 Ang^3
#
#
#
# Elastic Constant Matrix: (Units=GPa)
#
#
# Indices 1 2 3 4 5 6 
#
# 1 66.9531 19.1683 3.1877 0.0000 0.0000 0.0000
# 2 19.1683 121.6102 34.0240 0.0000 0.0000 0.0000
# 3 3.1877 34.0240 63.8782 0.0000 0.0000 0.0000
# 4 0.0000 0.0000 0.0000 1.2720 0.0000 0.0000
# 5 0.0000 0.0000 0.0000 0.0000 8.9622 0.0000
# 6 0.0000 0.0000 0.0000 0.0000 0.0000 26.3767
#
#
#
# Elastic Compliance Matrix: (Units=1/GPa)
#
#
# Indices 1 2 3 4 5 6 
#
# 1 0.015663 -0.002644 0.000627 0.000000 0.000000 0.000000
# 2 -0.002644 0.010109 -0.005253 0.000000 0.000000 0.000000
# 3 0.000627 -0.005253 0.018421 0.000000 0.000000 0.000000
# 4 0.000000 0.000000 0.000000 0.786165 0.000000 0.000000
# 5 0.000000 0.000000 0.000000 0.000000 0.111580 0.000000
# 6 0.000000 0.000000 0.000000 0.000000 0.000000 0.037912
#
#
# Mechanical properties :
#
#
# Convention : Reuss Voigt Hill
#
# Bulk Modulus (GPa) = 33.72288 40.57796 37.15042
# Shear Modulus (GPa) = 4.97871 20.39292 12.68582
#
# Velocity S-wave (km/s) = 1.64016 3.31947 2.61811
# Velocity P-wave (km/s) = 4.66993 6.05122 5.40488
#
# Compressibility (1/GPa) = 0.02965346
#
# Stress axis : x y z
#
# Youngs Moduli (GPa) = 63.84472 98.91814 54.28496
#
# Poissons Ratio (x) = 0.26156 -0.03402
# Poissons Ratio (y) = 0.16882 0.28514
# Poissons Ratio (z) = -0.04002 0.51959
#
# Static dielectric constant tensor:
#      x y z
#    x 1.638620 0.000000 0.000000 
#    y 0.000000 1.653700 0.000000 
#    z 0.000000 0.000000 1.606680 
# 
# From -- ./inp_files/53161.got.cif
#   From: 2010.05.17/outbox.cif.g08.bks.cpg/sg68_27_cif.got.tgz:53161.got - 2010.06.03 18:57:09.
