data_PCOD9505332
_publ_section_title
;
Structure prediction by ZEFSAII (Michael W. Deem and Ramdas Pophale) SiO2 
 PCOD9505332
Probable space group: C C C A
;
_chemical_formula_sum "Si O2"
_cell_formula_units_Z 56
_cell_length_a 5.325743
_cell_length_b 14.408900
_cell_length_c 32.535255
_cell_angle_alpha 90.000000
_cell_angle_beta 90.000000
_cell_angle_gamma 90.000000
_cell_volume 2496.693597
_symmetry_space_group_name_H-M "C C C A"
_symmetry_group_IT_number 68
_space_group.IT_coordinate_system_code '2'
_symmetry_cell_setting 'orthorhombic'
loop_
_space_group_symop_operation_xyz
x,y,z
-x,1/2-y,z
x,1/2-y,1/2-z
-x,y,1/2-z
-x,-y,-z
x,1/2+y,-z
-x,1/2+y,1/2+z
x,-y,1/2+z
1/2+x,1/2+y,z
1/2-x,-y,z
1/2+x,-y,1/2-z
1/2-x,1/2+y,1/2-z
1/2-x,1/2-y,-z
1/2+x,y,-z
1/2-x,y,1/2+z
1/2+x,1/2-y,1/2+z
loop_
_atom_site_type_symbol
_atom_site_label
_atom_site_fract_x
_atom_site_fract_y
_atom_site_fract_z
Si Si1 0.481881 0.861954 0.521977
Si Si2 0.045622 0.396643 0.149416
Si Si3 0.750000 0.500000 0.275259
Si Si4 0.542402 0.106132 0.383928
O O1 0.500000 0.750000 0.521033
O O2 0.758960 0.893345 0.508276
O O3 0.406752 0.889415 0.567971
O O4 0.147207 0.417934 0.194972
O O5 0.270366 0.349548 0.124529
O O6 0.000240 0.499623 0.130126
O O7 0.770820 0.354932 0.143303
O O8 0.500000 0.472209 0.250000
#
# Coordination Sequence:
#
# PCOD9505332 Si02
#       4
#    16  16   8  16
#     4  10  20  32  46  64  85 114 154 196 227 251
#     4   9  18  29  44  66  91 117 143 172 214 267
#     4  10  16  26  44  68  96 118 138 170 212 262
#     4   9  16  31  44  59  90 119 142 182 219 256
#
# _framework density 22.429665
#
# number of rings (size 3 to 8) (size 9 to 14) (size 15 to 20)
#    0.000    2.857    0.000    5.143    0.000    0.000 
#    0.000   17.143    0.000    0.000    0.000    0.000 
#    0.000  118.857    0.000    0.000    0.000    0.000 
#
# Total GULP energy -156084.078343 kJ/mol
# GULP energy per Si atom -5574.431369 kJ/mol
# Density = 2.237861 g / cm^3
# Si number density = 22.429665 Si / 1000 Ang^3
#
#
#
# Elastic Constant Matrix: (Units=GPa)
#
#
# Indices 1 2 3 4 5 6 
#
# 1 217.3703 -4.8422 52.5267 0.0000 0.0000 0.0000
# 2 -4.8422 71.4673 -6.7882 0.0000 0.0000 0.0000
# 3 52.5267 -6.7882 113.2899 0.0000 0.0000 0.0000
# 4 0.0000 0.0000 0.0000 -3.5764 0.0000 0.0000
# 5 0.0000 0.0000 0.0000 0.0000 289.7650 0.0000
# 6 0.0000 0.0000 0.0000 0.0000 0.0000 -11.3396
#
#
#
# Elastic Compliance Matrix: (Units=1/GPa)
#
#
# Indices 1 2 3 4 5 6 
#
# 1 0.005182 0.000124 -0.002395 0.000000 0.000000 0.000000
# 2 0.000124 0.014075 0.000786 0.000000 0.000000 0.000000
# 3 -0.002395 0.000786 0.009985 0.000000 0.000000 0.000000
# 4 0.000000 0.000000 0.000000 -0.279610 0.000000 0.000000
# 5 0.000000 0.000000 0.000000 0.000000 0.003451 0.000000
# 6 0.000000 0.000000 0.000000 0.000000 0.000000 -0.088187
#
#
# Mechanical properties :
#
#
# Convention : Reuss Voigt Hill
#
# Bulk Modulus (GPa) = 38.06491 53.76889 45.91690
# Shear Modulus (GPa) = -15.46190 79.05187 31.79498
#
# Velocity S-wave (km/s) = -2.62840 5.94313 3.76911
# Velocity P-wave (km/s) = 2.79219 8.43319 6.28152
#
# Compressibility (1/GPa) = 0.02627091
#
# Stress axis : x y z
#
# Youngs Moduli (GPa) = 192.97587 71.04568 100.15469
#
# Poissons Ratio (x) = -0.00878 0.23989
# Poissons Ratio (y) = -0.02385 -0.07873
# Poissons Ratio (z) = 0.46222 -0.05585
#
# Static dielectric constant tensor:
#      x y z
#    x 1.466060 0.000000 0.000000 
#    y 0.000000 0.272880 0.000000 
#    z 0.000000 0.000000 1.802990 
# 
# From -- ./inp_files/46804.got.cif
#   From: 2010.05.17/outbox.cif.g08.bks.cpg/sg68_24_cif.got.tgz:46804.got - 2010.06.03 18:57:09.
