data_PCOD9505945
_publ_section_title
;
Structure prediction by ZEFSAII (Michael W. Deem and Ramdas Pophale) SiO2 
 PCOD9505945
Probable space group: C C C A
;
_chemical_formula_sum "Si O2"
_cell_formula_units_Z 88
_cell_length_a 28.776018
_cell_length_b 21.459860
_cell_length_c 5.673368
_cell_angle_alpha 90.000000
_cell_angle_beta 90.000000
_cell_angle_gamma 90.000000
_cell_volume 3503.471070
_symmetry_space_group_name_H-M "C C C A"
_symmetry_group_IT_number 68
_space_group.IT_coordinate_system_code '2'
_symmetry_cell_setting 'orthorhombic'
loop_
_space_group_symop_operation_xyz
x,y,z
-x,1/2-y,z
x,1/2-y,1/2-z
-x,y,1/2-z
-x,-y,-z
x,1/2+y,-z
-x,1/2+y,1/2+z
x,-y,1/2+z
1/2+x,1/2+y,z
1/2-x,-y,z
1/2+x,-y,1/2-z
1/2-x,1/2+y,1/2-z
1/2-x,1/2-y,-z
1/2+x,y,-z
1/2-x,y,1/2+z
1/2+x,1/2-y,1/2+z
loop_
_atom_site_type_symbol
_atom_site_label
_atom_site_fract_x
_atom_site_fract_y
_atom_site_fract_z
Si Si1 0.676405 0.520957 0.022110
Si Si2 0.735170 0.179956 0.232347
Si Si3 0.863505 0.648299 0.416767
Si Si4 0.411904 0.061991 0.028020
Si Si5 0.000000 0.435626 0.750000
Si Si6 0.546127 0.152722 0.861173
O O1 0.698224 0.510208 0.758425
O O2 0.662278 0.592998 0.066018
O O3 0.627323 0.486855 0.969491
O O4 0.755972 0.250000 0.250000
O O5 0.743035 0.150728 0.492497
O O6 0.680441 0.184816 0.180822
O O7 0.887572 0.609966 0.207105
O O8 0.906478 0.684512 0.539817
O O9 0.457180 0.028345 0.137183
O O10 0.432148 0.104988 0.825019
O O11 0.023994 0.389079 0.565950
O O12 0.500000 0.184171 0.750000
#
# Coordination Sequence:
#
# PCOD9505945 Si02
#       6
#    16  16  16  16   8  16
#     4  10  19  31  48  78 114 161 204 236 276 349
#     4  10  24  45  70  98 120 139 192 266 331 390
#     4  10  20  34  59  84 118 163 194 249 315 353
#     4   9  17  30  48  78 115 167 207 245 281 344
#     4   8  16  28  44  70 117 168 208 253 278 316
#     4   9  16  30  49  81 120 165 209 242 284 345
#
# _framework density 25.117946
#
# number of rings (size 3 to 8) (size 9 to 14) (size 15 to 20)
#    0.000    2.545    1.818    0.000    2.545    0.000 
#    1.636    3.636    0.000   13.091    0.000   29.273 
#    0.000    0.000    0.000    0.000    0.000    0.000 
#
# Total GULP energy -245332.044955 kJ/mol
# GULP energy per Si atom -5575.728294 kJ/mol
# Density = 2.506078 g / cm^3
# Si number density = 25.117946 Si / 1000 Ang^3
#
#
#
# Elastic Constant Matrix: (Units=GPa)
#
#
# Indices 1 2 3 4 5 6 
#
# 1 179.0201 13.1195 45.4427 0.0000 0.0000 0.0000
# 2 13.1195 40.5292 7.3091 0.0000 0.0000 0.0000
# 3 45.4427 7.3091 148.5266 0.0000 0.0000 0.0000
# 4 0.0000 0.0000 0.0000 5.1558 0.0000 0.0000
# 5 0.0000 0.0000 0.0000 0.0000 20.1082 0.0000
# 6 0.0000 0.0000 0.0000 0.0000 0.0000 16.1394
#
#
#
# Elastic Compliance Matrix: (Units=1/GPa)
#
#
# Indices 1 2 3 4 5 6 
#
# 1 0.006166 -0.001671 -0.001804 0.000000 0.000000 0.000000
# 2 -0.001671 0.025347 -0.000736 0.000000 0.000000 0.000000
# 3 -0.001804 -0.000736 0.007321 0.000000 0.000000 0.000000
# 4 0.000000 0.000000 0.000000 0.193956 0.000000 0.000000
# 5 0.000000 0.000000 0.000000 0.000000 0.049731 0.000000
# 6 0.000000 0.000000 0.000000 0.000000 0.000000 0.061960
#
#
# Mechanical properties :
#
#
# Convention : Reuss Voigt Hill
#
# Bulk Modulus (GPa) = 32.88175 55.53539 44.20857
# Shear Modulus (GPa) = 13.77254 28.42766 21.10010
#
# Velocity S-wave (km/s) = 2.34415 3.36782 2.90149
# Velocity P-wave (km/s) = 4.52174 6.10580 5.37247
#
# Compressibility (1/GPa) = 0.03041201
#
# Stress axis : x y z
#
# Youngs Moduli (GPa) = 162.16793 39.45221 136.59123
#
# Poissons Ratio (x) = 0.06591 0.24647
# Poissons Ratio (y) = 0.27093 0.10056
# Poissons Ratio (z) = 0.29262 0.02904
#
# Static dielectric constant tensor:
#      x y z
#    x 1.638300 0.000000 0.000000 
#    y 0.000000 1.962430 0.000000 
#    z 0.000000 0.000000 2.159650 
# 
# From -- ./inp_files/2094.got.cif
#   From: 2010.05.17/outbox.cif.g08.bks.cpg/sg68_2_cif.got.tgz:2094.got - 2010.06.03 18:57:09.
