data_PCOD9505496
_publ_section_title
;
Structure prediction by ZEFSAII (Michael W. Deem and Ramdas Pophale) SiO2 
 PCOD9505496
Probable space group: C C C A
;
_chemical_formula_sum "Si O2"
_cell_formula_units_Z 88
_cell_length_a 20.316043
_cell_length_b 16.845281
_cell_length_c 13.328150
_cell_angle_alpha 90.000000
_cell_angle_beta 90.000000
_cell_angle_gamma 90.000000
_cell_volume 4561.285486
_symmetry_space_group_name_H-M "C C C A"
_symmetry_group_IT_number 68
_space_group.IT_coordinate_system_code '2'
_symmetry_cell_setting 'orthorhombic'
loop_
_space_group_symop_operation_xyz
x,y,z
-x,1/2-y,z
x,1/2-y,1/2-z
-x,y,1/2-z
-x,-y,-z
x,1/2+y,-z
-x,1/2+y,1/2+z
x,-y,1/2+z
1/2+x,1/2+y,z
1/2-x,-y,z
1/2+x,-y,1/2-z
1/2-x,1/2+y,1/2-z
1/2-x,1/2-y,-z
1/2+x,y,-z
1/2-x,y,1/2+z
1/2+x,1/2-y,1/2+z
loop_
_atom_site_type_symbol
_atom_site_label
_atom_site_fract_x
_atom_site_fract_y
_atom_site_fract_z
Si Si1 0.238564 0.088562 0.737467
Si Si2 0.064003 0.788130 0.925395
Si Si3 0.126687 0.124312 0.145515
Si Si4 0.500000 0.108123 0.750000
Si Si5 0.329108 0.682488 0.928243
Si Si6 0.698312 0.363421 0.449601
O O1 0.310595 0.127255 0.719745
O O2 0.184423 0.136022 0.673736
O O3 0.215143 0.086864 0.851748
O O4 0.250000 0.000000 0.698144
O O5 0.104244 0.714929 0.876882
O O6 0.000000 0.750000 0.977090
O O7 0.036352 0.840347 0.835059
O O8 0.107499 0.835230 0.004659
O O9 0.064637 0.075414 0.190454
O O10 0.152673 0.097677 0.035460
O O11 0.329730 0.777814 0.914432
O O12 0.265934 0.658902 0.994633
#
# Coordination Sequence:
#
# PCOD9505496 Si02
#       6
#    16  16  16   8  16  16
#     4  11  22  34  52  76 111 150 181 215 265 325
#     4   9  16  28  53  84 107 131 175 231 276 318
#     4   9  18  31  51  79 104 133 174 217 271 317
#     4  10  17  30  58  86 110 134 173 230 275 326
#     4   9  18  32  52  77 104 135 176 225 272 313
#     4   9  18  31  51  77 105 133 173 227 270 312
#
# _framework density 19.292805999999999
#
# number of rings (size 3 to 8) (size 9 to 14) (size 15 to 20)
#    0.000    2.545    0.000    5.182    0.000    7.273 
#    0.000    0.000    0.000   30.545    0.000    0.000 
#    0.000    0.000    0.000    0.000    0.000    0.000 
#
# Total GULP energy -244990.994549 kJ/mol
# GULP energy per Si atom -5567.977149 kJ/mol
# Density = 1.924890 g / cm^3
# Si number density = 19.292806 Si / 1000 Ang^3
#
#
#
# Elastic Constant Matrix: (Units=GPa)
#
#
# Indices 1 2 3 4 5 6 
#
# 1 113.9401 9.9842 53.1798 0.0000 0.0000 0.0000
# 2 9.9842 20.1418 10.6674 0.0000 0.0000 0.0000
# 3 53.1798 10.6674 105.2560 0.0000 0.0000 0.0000
# 4 0.0000 0.0000 0.0000 1.9008 0.0000 0.0000
# 5 0.0000 0.0000 0.0000 0.0000 36.4052 0.0000
# 6 0.0000 0.0000 0.0000 0.0000 0.0000 3.8114
#
#
#
# Elastic Compliance Matrix: (Units=1/GPa)
#
#
# Indices 1 2 3 4 5 6 
#
# 1 0.011633 -0.002804 -0.005593 0.000000 0.000000 0.000000
# 2 -0.002804 0.053140 -0.003969 0.000000 0.000000 0.000000
# 3 -0.005593 -0.003969 0.012729 0.000000 0.000000 0.000000
# 4 0.000000 0.000000 0.000000 0.526085 0.000000 0.000000
# 5 0.000000 0.000000 0.000000 0.000000 0.027469 0.000000
# 6 0.000000 0.000000 0.000000 0.000000 0.000000 0.262371
#
#
# Mechanical properties :
#
#
# Convention : Reuss Voigt Hill
#
# Bulk Modulus (GPa) = 18.95041 43.00006 30.97523
# Shear Modulus (GPa) = 5.34332 19.45726 12.40029
#
# Velocity S-wave (km/s) = 1.66601 3.17917 2.53799
# Velocity P-wave (km/s) = 3.68031 5.98437 4.96776
#
# Compressibility (1/GPa) = 0.05276932
#
# Stress axis : x y z
#
# Youngs Moduli (GPa) = 85.96389 18.81824 78.56206
#
# Poissons Ratio (x) = 0.05277 0.43941
# Poissons Ratio (y) = 0.24105 0.31180
# Poissons Ratio (z) = 0.48081 0.07469
#
# Static dielectric constant tensor:
#      x y z
#    x 1.738260 0.000000 0.000000 
#    y 0.000000 1.687480 0.000000 
#    z 0.000000 0.000000 1.704070 
# 
# From -- ./inp_files/15442.got.cif
#   From: 2010.05.17/outbox.cif.g08.bks.cpg/sg68_8_cif.got.tgz:15442.got - 2010.06.03 18:57:09.
