data_PCOD9505584
_publ_section_title
;
Structure prediction by ZEFSAII (Michael W. Deem and Ramdas Pophale) SiO2 
 PCOD9505584
Probable space group: C C C A
;
_chemical_formula_sum "Si O2"
_cell_formula_units_Z 80
_cell_length_a 8.745776
_cell_length_b 17.320206
_cell_length_c 25.540749
_cell_angle_alpha 90.000000
_cell_angle_beta 90.000000
_cell_angle_gamma 90.000000
_cell_volume 3868.877973
_symmetry_space_group_name_H-M "C C C A"
_symmetry_group_IT_number 68
_space_group.IT_coordinate_system_code '2'
_symmetry_cell_setting 'orthorhombic'
loop_
_space_group_symop_operation_xyz
x,y,z
-x,1/2-y,z
x,1/2-y,1/2-z
-x,y,1/2-z
-x,-y,-z
x,1/2+y,-z
-x,1/2+y,1/2+z
x,-y,1/2+z
1/2+x,1/2+y,z
1/2-x,-y,z
1/2+x,-y,1/2-z
1/2-x,1/2+y,1/2-z
1/2-x,1/2-y,-z
1/2+x,y,-z
1/2-x,y,1/2+z
1/2+x,1/2-y,1/2+z
loop_
_atom_site_type_symbol
_atom_site_label
_atom_site_fract_x
_atom_site_fract_y
_atom_site_fract_z
Si Si1 0.672277 0.622669 0.652551
Si Si2 0.750000 0.000000 0.183676
Si Si3 0.919527 0.326812 0.545718
Si Si4 0.347028 0.423351 0.993152
Si Si5 0.000000 0.097499 0.750000
Si Si6 0.466241 0.953212 0.123411
O O1 0.630987 0.679489 0.605663
O O2 0.591670 0.643910 0.706169
O O3 0.599843 0.539038 0.635685
O O4 0.852669 0.605304 0.653978
O O5 0.630980 0.046208 0.220845
O O6 0.862051 0.049135 0.145478
O O7 0.771556 0.353906 0.514597
O O8 0.000000 0.250000 0.526611
O O9 0.038010 0.397115 0.537665
O O10 0.250000 0.500000 0.003766
O O11 0.436301 0.435117 0.937894
#
# Coordination Sequence:
#
# PCOD9505584 Si02
#       6
#    16   8  16  16   8  16
#     4   9  18  34  51  75 117 145 194 243 292 347
#     4  10  18  28  54  84 122 148 188 244 306 358
#     4  11  23  38  57  85 121 160 196 247 301 355
#     4  11  21  39  61  85 119 159 201 247 288 361
#     4  10  18  30  49  80 108 152 189 240 290 354
#     4   9  17  32  52  82 111 152 183 242 292 348
#
# _framework density 20.677831000000001
#
# number of rings (size 3 to 8) (size 9 to 14) (size 15 to 20)
#    0.000    2.000    4.000    3.600    0.000    3.200 
#    1.800    0.500    0.000    0.000    0.000    0.000 
#    0.000    9.600    0.000    0.000    0.000    0.000 
#
# Total GULP energy -223187.833314 kJ/mol
# GULP energy per Si atom -5579.695833 kJ/mol
# Density = 2.063077 g / cm^3
# Si number density = 20.677831 Si / 1000 Ang^3
#
#
#
# Elastic Constant Matrix: (Units=GPa)
#
#
# Indices 1 2 3 4 5 6 
#
# 1 157.3997 26.8542 50.6114 0.0000 0.0000 0.0000
# 2 26.8542 33.9018 2.7397 0.0000 0.0000 0.0000
# 3 50.6114 2.7397 46.6535 0.0000 0.0000 0.0000
# 4 0.0000 0.0000 0.0000 2.7813 0.0000 0.0000
# 5 0.0000 0.0000 0.0000 0.0000 38.6332 0.0000
# 6 0.0000 0.0000 0.0000 0.0000 0.0000 29.5871
#
#
#
# Elastic Compliance Matrix: (Units=1/GPa)
#
#
# Indices 1 2 3 4 5 6 
#
# 1 0.011684 -0.008270 -0.012189 0.000000 0.000000 0.000000
# 2 -0.008270 0.035491 0.006887 0.000000 0.000000 0.000000
# 3 -0.012189 0.006887 0.034253 0.000000 0.000000 0.000000
# 4 0.000000 0.000000 0.000000 0.359538 0.000000 0.000000
# 5 0.000000 0.000000 0.000000 0.000000 0.025884 0.000000
# 6 0.000000 0.000000 0.000000 0.000000 0.000000 0.033799
#
#
# Mechanical properties :
#
#
# Convention : Reuss Voigt Hill
#
# Bulk Modulus (GPa) = 18.42149 44.26284 31.34216
# Shear Modulus (GPa) = 9.15940 24.71697 16.93818
#
# Velocity S-wave (km/s) = 2.10694 3.46111 2.86518
# Velocity P-wave (km/s) = 3.85319 6.11758 5.11233
#
# Compressibility (1/GPa) = 0.05428443
#
# Stress axis : x y z
#
# Youngs Moduli (GPa) = 85.59068 28.17618 29.19427
#
# Poissons Ratio (x) = 0.23301 0.35585
# Poissons Ratio (y) = 0.70781 -0.20106
# Poissons Ratio (z) = 1.04327 -0.19405
#
# Static dielectric constant tensor:
#      x y z
#    x 1.772920 0.000000 0.000000 
#    y 0.000000 1.739060 0.000000 
#    z 0.000000 0.000000 1.769190 
# 
# From -- ./inp_files/43059.got.cif
#   From: 2010.05.17/outbox.cif.g08.bks.cpg/sg68_22_cif.got.tgz:43059.got - 2010.06.03 18:57:09.
