data_PCOD9505511
_publ_section_title
;
Structure prediction by ZEFSAII (Michael W. Deem and Ramdas Pophale) SiO2 
 PCOD9505511
Probable space group: C C C A
;
_chemical_formula_sum "Si O2"
_cell_formula_units_Z 128
_cell_length_a 16.358927
_cell_length_b 16.811700
_cell_length_c 23.563180
_cell_angle_alpha 90.000000
_cell_angle_beta 90.000000
_cell_angle_gamma 90.000000
_cell_volume 6480.378117
_symmetry_space_group_name_H-M "C C C A"
_symmetry_group_IT_number 68
_space_group.IT_coordinate_system_code '2'
_symmetry_cell_setting 'orthorhombic'
loop_
_space_group_symop_operation_xyz
x,y,z
-x,1/2-y,z
x,1/2-y,1/2-z
-x,y,1/2-z
-x,-y,-z
x,1/2+y,-z
-x,1/2+y,1/2+z
x,-y,1/2+z
1/2+x,1/2+y,z
1/2-x,-y,z
1/2+x,-y,1/2-z
1/2-x,1/2+y,1/2-z
1/2-x,1/2-y,-z
1/2+x,y,-z
1/2-x,y,1/2+z
1/2+x,1/2-y,1/2+z
loop_
_atom_site_type_symbol
_atom_site_label
_atom_site_fract_x
_atom_site_fract_y
_atom_site_fract_z
Si Si1 0.422700 0.902634 0.720521
Si Si2 0.912619 0.919542 0.728764
Si Si3 0.585279 0.270134 0.970928
Si Si4 0.441359 0.026509 0.097474
Si Si5 0.185725 0.098592 0.509276
Si Si6 0.331278 0.621708 0.412532
Si Si7 0.594016 0.072284 0.594035
Si Si8 0.755369 0.401838 0.202182
O O1 0.500000 0.861004 0.750000
O O2 0.439874 0.920924 0.654190
O O3 0.330977 0.870250 0.724903
O O4 0.415917 0.988428 0.751560
O O5 0.900417 0.919975 0.661343
O O6 0.833326 0.883475 0.759033
O O7 0.000000 0.885110 0.750000
O O8 0.500000 0.250000 0.001875
O O9 0.621639 0.197363 0.935947
O O10 0.439061 0.156618 0.929583
O O11 0.659119 0.308336 0.006737
O O12 0.387323 0.063078 0.047587
O O13 0.394806 0.943676 0.110279
O O14 0.532268 0.999938 0.081071
O O15 0.273273 0.088386 0.537468
O O16 0.174318 0.065837 0.445406
O O17 0.271325 0.634372 0.359677
O O18 0.750000 0.500000 0.196406
#
# Coordination Sequence:
#
# PCOD9505511 Si02
#       8
#    16  16  16  16  16  16  16  16
#     4  10  18  31  56  86 116 152 188 243 301 342
#     4  10  17  32  55  81 118 150 178 243 295 358
#     4  10  23  37  56  78 117 164 190 240 300 366
#     4  12  18  35  60  86 114 151 196 249 291 362
#     4  10  23  34  56  85 115 150 196 245 297 343
#     4  12  18  36  59  83 115 152 206 239 291 362
#     4  10  21  36  53  82 123 149 188 237 310 352
#     4  10  18  30  55  86 111 152 200 241 282 355
#
# _framework density 19.751933999999999
#
# number of rings (size 3 to 8) (size 9 to 14) (size 15 to 20)
#    0.750    0.750    7.500    1.125    0.000    0.000 
#    0.000    4.375    2.750    0.000    0.000    0.000 
#    0.000    0.000    0.000    0.000    0.000    0.000 
#
# Total GULP energy -356370.404566 kJ/mol
# GULP energy per Si atom -5568.287571 kJ/mol
# Density = 1.970698 g / cm^3
# Si number density = 19.751934 Si / 1000 Ang^3
#
#
#
# Elastic Constant Matrix: (Units=GPa)
#
#
# Indices 1 2 3 4 5 6 
#
# 1 115.4877 7.1790 16.0232 0.0000 0.0000 0.0000
# 2 7.1790 25.9592 -1.8129 0.0000 0.0000 0.0000
# 3 16.0232 -1.8129 78.2704 0.0000 0.0000 0.0000
# 4 0.0000 0.0000 0.0000 -3.3948 0.0000 0.0000
# 5 0.0000 0.0000 0.0000 0.0000 33.5499 0.0000
# 6 0.0000 0.0000 0.0000 0.0000 0.0000 12.3381
#
#
#
# Elastic Compliance Matrix: (Units=1/GPa)
#
#
# Indices 1 2 3 4 5 6 
#
# 1 0.009090 -0.002648 -0.001922 0.000000 0.000000 0.000000
# 2 -0.002648 0.039356 0.001454 0.000000 0.000000 0.000000
# 3 -0.001922 0.001454 0.013203 0.000000 0.000000 0.000000
# 4 0.000000 0.000000 0.000000 -0.294564 0.000000 0.000000
# 5 0.000000 0.000000 0.000000 0.000000 0.029806 0.000000
# 6 0.000000 0.000000 0.000000 0.000000 0.000000 0.081050
#
#
# Mechanical properties :
#
#
# Convention : Reuss Voigt Hill
#
# Bulk Modulus (GPa) = 18.04534 29.16623 23.60579
# Shear Modulus (GPa) = -51.35921 21.72050 -14.81936
#
# Velocity S-wave (km/s) = -5.10476 3.31972 -2.74208
# Velocity P-wave (km/s) = 5.05855 5.43069 1.39703
#
# Compressibility (1/GPa) = 0.05541597
#
# Stress axis : x y z
#
# Youngs Moduli (GPa) = 110.00797 25.40922 75.73805
#
# Poissons Ratio (x) = 0.06729 0.14559
# Poissons Ratio (y) = 0.29132 -0.11010
# Poissons Ratio (z) = 0.21146 -0.03694
#
# Static dielectric constant tensor:
#      x y z
#    x 1.752820 0.000000 0.000000 
#    y 0.000000 1.710380 0.000000 
#    z 0.000000 0.000000 1.701810 
# 
# From -- ./inp_files/39869.got.cif
#   From: 2010.05.17/outbox.cif.g08.bks.cpg/sg68_20_cif.got.tgz:39869.got - 2010.06.03 18:57:09.
