data_PCOD9505600
_publ_section_title
;
Structure prediction by ZEFSAII (Michael W. Deem and Ramdas Pophale) SiO2 
 PCOD9505600
Probable space group: C C C A
;
_chemical_formula_sum "Si O2"
_cell_formula_units_Z 92
_cell_length_a 27.071601
_cell_length_b 15.279148
_cell_length_c 8.835744
_cell_angle_alpha 90.000000
_cell_angle_beta 90.000000
_cell_angle_gamma 90.000000
_cell_volume 3654.737611
_symmetry_space_group_name_H-M "C C C A"
_symmetry_group_IT_number 68
_space_group.IT_coordinate_system_code '2'
_symmetry_cell_setting 'orthorhombic'
loop_
_space_group_symop_operation_xyz
x,y,z
-x,1/2-y,z
x,1/2-y,1/2-z
-x,y,1/2-z
-x,-y,-z
x,1/2+y,-z
-x,1/2+y,1/2+z
x,-y,1/2+z
1/2+x,1/2+y,z
1/2-x,-y,z
1/2+x,-y,1/2-z
1/2-x,1/2+y,1/2-z
1/2-x,1/2-y,-z
1/2+x,y,-z
1/2-x,y,1/2+z
1/2+x,1/2-y,1/2+z
loop_
_atom_site_type_symbol
_atom_site_label
_atom_site_fract_x
_atom_site_fract_y
_atom_site_fract_z
Si Si1 0.679607 0.651113 0.402918
Si Si2 0.413169 0.501253 0.852505
Si Si3 0.500000 0.622189 0.250000
Si Si4 0.571067 0.326977 0.991787
Si Si5 0.763240 0.105903 0.396473
Si Si6 0.000000 0.750000 0.250000
Si Si7 0.346918 0.554046 0.586258
O O1 0.627083 0.698583 0.441475
O O2 0.715112 0.658421 0.549078
O O3 0.708131 0.654051 0.240935
O O4 0.668122 0.547121 0.404676
O O5 0.460706 0.445207 0.820114
O O6 0.426166 0.569023 0.982345
O O7 0.384692 0.560267 0.726306
O O8 0.375200 0.434236 0.927962
O O9 0.533549 0.680087 0.356747
O O10 0.540038 0.294482 0.136812
O O11 0.796758 0.104583 0.550819
O O12 0.750000 0.000000 0.364284
#
# Coordination Sequence:
#
# PCOD9505600 Si02
#       7
#    16  16   8  16  16   4  16
#     4  10  20  34  53  91 129 169 210 247 313 389
#     4  11  20  34  59 100 134 166 203 262 328 398
#     4  12  21  39  64  93 133 162 206 276 342 396
#     4  11  26  43  66  91 128 174 226 278 325 393
#     4  10  18  29  54  90 143 183 198 241 315 409
#     4  12  30  54  68  84 114 174 240 290 336 376
#     4  10  18  30  50  87 139 173 200 235 310 398
#
# _framework density 25.172806000000001
#
# number of rings (size 3 to 8) (size 9 to 14) (size 15 to 20)
#    0.000    1.391    5.217    2.609    7.304    0.348 
#    0.000    0.000    0.000    1.043    0.000    0.000 
#    0.000    0.000    0.000    0.000    0.000    0.000 
#
# Total GULP energy -256202.942592 kJ/mol
# GULP energy per Si atom -5569.629187 kJ/mol
# Density = 2.511551 g / cm^3
# Si number density = 25.172806 Si / 1000 Ang^3
#
#
#
# Elastic Constant Matrix: (Units=GPa)
#
#
# Indices 1 2 3 4 5 6 
#
# 1 204.8811 32.3300 92.6669 0.0000 0.0000 0.0000
# 2 32.3300 45.3729 12.9296 0.0000 0.0000 0.0000
# 3 92.6669 12.9296 111.1096 0.0000 0.0000 0.0000
# 4 0.0000 0.0000 0.0000 -9.7757 0.0000 0.0000
# 5 0.0000 0.0000 0.0000 0.0000 51.9958 0.0000
# 6 0.0000 0.0000 0.0000 0.0000 0.0000 9.9908
#
#
#
# Elastic Compliance Matrix: (Units=1/GPa)
#
#
# Indices 1 2 3 4 5 6 
#
# 1 0.008546 -0.004198 -0.006639 0.000000 0.000000 0.000000
# 2 -0.004198 0.024857 0.000608 0.000000 0.000000 0.000000
# 3 -0.006639 0.000608 0.014466 0.000000 0.000000 0.000000
# 4 0.000000 0.000000 0.000000 -0.102294 0.000000 0.000000
# 5 0.000000 0.000000 0.000000 0.000000 0.019232 0.000000
# 6 0.000000 0.000000 0.000000 0.000000 0.000000 0.100093
#
#
# Mechanical properties :
#
#
# Convention : Reuss Voigt Hill
#
# Bulk Modulus (GPa) = 36.47916 70.80183 53.64050
# Shear Modulus (GPa) = 52.91307 25.33798 39.12552
#
# Velocity S-wave (km/s) = 4.58972 3.17608 3.94671
# Velocity P-wave (km/s) = 6.52766 6.45270 6.49029
#
# Compressibility (1/GPa) = 0.02741291
#
# Stress axis : x y z
#
# Youngs Moduli (GPa) = 117.01279 40.22982 69.12555
#
# Poissons Ratio (x) = 0.16887 0.45893
# Poissons Ratio (y) = 0.49116 -0.04204
# Poissons Ratio (z) = 0.77686 -0.02447
#
# Static dielectric constant tensor:
#      x y z
#    x 2.256130 0.000000 0.000000 
#    y 0.000000 1.959880 0.000000 
#    z 0.000000 0.000000 2.131320 
# 
# From -- ./inp_files/8968.got.cif
#   From: 2010.05.17/outbox.cif.g08.bks.cpg/sg68_5_cif.got.tgz:8968.got - 2010.06.03 18:57:09.
