data_PCOD9505340
_publ_section_title
;
Structure prediction by ZEFSAII (Michael W. Deem and Ramdas Pophale) SiO2 
 PCOD9505340
Probable space group: C C C A
;
_chemical_formula_sum "Si O2"
_cell_formula_units_Z 88
_cell_length_a 36.677192
_cell_length_b 5.576495
_cell_length_c 17.078990
_cell_angle_alpha 90.000000
_cell_angle_beta 90.000000
_cell_angle_gamma 90.000000
_cell_volume 3493.168861
_symmetry_space_group_name_H-M "C C C A"
_symmetry_group_IT_number 68
_space_group.IT_coordinate_system_code '2'
_symmetry_cell_setting 'orthorhombic'
loop_
_space_group_symop_operation_xyz
x,y,z
-x,1/2-y,z
x,1/2-y,1/2-z
-x,y,1/2-z
-x,-y,-z
x,1/2+y,-z
-x,1/2+y,1/2+z
x,-y,1/2+z
1/2+x,1/2+y,z
1/2-x,-y,z
1/2+x,-y,1/2-z
1/2-x,1/2+y,1/2-z
1/2-x,1/2-y,-z
1/2+x,y,-z
1/2-x,y,1/2+z
1/2+x,1/2-y,1/2+z
loop_
_atom_site_type_symbol
_atom_site_label
_atom_site_fract_x
_atom_site_fract_y
_atom_site_fract_z
Si Si1 0.043366 0.236451 0.084239
Si Si2 0.855520 0.335445 0.962045
Si Si3 0.716945 0.125981 0.425837
Si Si4 0.928457 0.734583 0.402767
Si Si5 0.674384 0.507864 0.221148
Si Si6 0.250000 0.500000 0.685146
O O1 0.055955 0.481309 0.126021
O O2 0.000000 0.250000 0.074172
O O3 0.055269 0.987341 0.124625
O O4 0.060845 0.228422 0.996389
O O5 0.811619 0.322058 0.958684
O O6 0.884742 0.269979 0.895401
O O7 0.863625 0.612294 0.980134
O O8 0.743211 0.267232 0.366078
O O9 0.750000 0.000000 0.472966
O O10 0.686650 0.989197 0.370296
O O11 0.654520 0.750000 0.250000
O O12 0.712843 0.516425 0.267658
O O13 0.659462 0.250000 0.250000
#
# Coordination Sequence:
#
# PCOD9505340 Si02
#       6
#    16  16  16  16  16   8
#     4  10  16  26  50  73  86 112 172 221 241 274
#     4  12  25  40  49  63 103 151 174 205 241 291
#     4  11  23  35  56  75  92 125 182 214 256 310
#     4  10  16  31  44  63  95 126 160 201 249 283
#     4  10  17  32  56  76  95 106 136 220 282 310
#     4  10  18  36  54  78  94 106 148 234 280 312
#
# _framework density 25.192027
#
# number of rings (size 3 to 8) (size 9 to 14) (size 15 to 20)
#    0.000    1.455    6.364    3.273    2.545    0.727 
#    0.000    0.000    0.000    0.000    0.000    0.000 
#    0.000    0.000    0.000    0.000    0.000  123.636 
#
# Total GULP energy -245191.196586 kJ/mol
# GULP energy per Si atom -5572.527195 kJ/mol
# Density = 2.513469 g / cm^3
# Si number density = 25.192027 Si / 1000 Ang^3
#
#
#
# Elastic Constant Matrix: (Units=GPa)
#
#
# Indices 1 2 3 4 5 6 
#
# 1 169.8905 31.7053 7.8681 0.0000 0.0000 0.0000
# 2 31.7053 212.6109 9.2732 0.0000 0.0000 0.0000
# 3 7.8681 9.2732 33.6450 0.0000 0.0000 0.0000
# 4 0.0000 0.0000 0.0000 7.3374 0.0000 0.0000
# 5 0.0000 0.0000 0.0000 0.0000 1.6473 0.0000
# 6 0.0000 0.0000 0.0000 0.0000 0.0000 26.6939
#
#
#
# Elastic Compliance Matrix: (Units=1/GPa)
#
#
# Indices 1 2 3 4 5 6 
#
# 1 0.006101 -0.000858 -0.001190 0.000000 0.000000 0.000000
# 2 -0.000858 0.004881 -0.001145 0.000000 0.000000 0.000000
# 3 -0.001190 -0.001145 0.030316 0.000000 0.000000 0.000000
# 4 0.000000 0.000000 0.000000 0.136288 0.000000 0.000000
# 5 0.000000 0.000000 0.000000 0.000000 0.607052 0.000000
# 6 0.000000 0.000000 0.000000 0.000000 0.000000 0.037462
#
#
# Mechanical properties :
#
#
# Convention : Reuss Voigt Hill
#
# Bulk Modulus (GPa) = 28.64298 57.09328 42.86813
# Shear Modulus (GPa) = 5.95150 31.62239 18.78695
#
# Velocity S-wave (km/s) = 1.53870 3.54680 2.73380
# Velocity P-wave (km/s) = 3.81462 6.28375 5.19792
#
# Compressibility (1/GPa) = 0.03491256
#
# Stress axis : x y z
#
# Youngs Moduli (GPa) = 163.89724 204.86368 32.98587
#
# Poissons Ratio (x) = 0.17576 0.03927
# Poissons Ratio (y) = 0.14061 0.03776
# Poissons Ratio (z) = 0.19510 0.23452
#
# Static dielectric constant tensor:
#      x y z
#    x 2.007140 0.000000 0.000000 
#    y 0.000000 2.906620 0.000000 
#    z 0.000000 0.000000 2.160530 
# 
# From -- ./inp_files/52456.got.cif
#   From: 2010.05.17/outbox.cif.g08.bks.cpg/sg68_27_cif.got.tgz:52456.got - 2010.06.03 18:57:09.
