data_PCOD9505219
_publ_section_title
;
Structure prediction by ZEFSAII (Michael W. Deem and Ramdas Pophale) SiO2 
 PCOD9505219
Probable space group: C M M A
;
_chemical_formula_sum "Si O2"
_cell_formula_units_Z 48
_cell_length_a 15.000000
_cell_length_b 15.000000
_cell_length_c 21.000000
_cell_angle_alpha 90.000000
_cell_angle_beta 90.000000
_cell_angle_gamma 90.000000
_cell_volume 4725.000000
_symmetry_space_group_name_H-M "C M M A"
_symmetry_group_IT_number 67
_symmetry_cell_setting 'orthorhombic'
loop_
_space_group_symop_operation_xyz
x,y,z
-x,1/2-y,z
x,-y,-z
-x,1/2+y,-z
-x,-y,-z
x,1/2+y,-z
-x,y,z
x,1/2-y,z
1/2+x,1/2+y,z
1/2-x,-y,z
1/2+x,1/2-y,-z
1/2-x,y,-z
1/2-x,1/2-y,-z
1/2+x,y,-z
1/2-x,1/2+y,z
1/2+x,-y,z
loop_
_atom_site_type_symbol
_atom_site_label
_atom_site_fract_x
_atom_site_fract_y
_atom_site_fract_z
Si Si1 0.604084 0.398200 0.521849
Si Si2 0.893634 0.856657 0.046935
Si Si3 0.103274 0.855226 0.286175
Si Si4 0.899957 0.644542 0.903286
Si Si5 0.721643 0.403625 0.165880
Si Si6 0.223111 0.352387 0.598071
O O1 0.597633 0.500000 0.500000
O O2 0.500000 0.368171 0.533924
O O3 0.680677 0.392717 0.576991
O O4 0.654815 0.352495 0.462056
O O5 0.872225 0.750000 0.051956
O O6 0.836850 0.904853 0.101147
O O7 0.000000 0.866043 0.057576
O O8 0.875948 0.888708 0.974625
O O9 0.094528 0.750000 0.299877
O O10 0.158046 0.862874 0.220080
O O11 0.166476 0.892620 0.342937
O O12 0.000000 0.890174 0.283377
O O13 0.910190 0.750000 0.912490
O O14 0.818006 0.635262 0.854786
O O15 0.000000 0.609925 0.885395
O O16 0.750000 0.500000 0.189573
O O17 0.244542 0.250000 0.614108
#
# Coordination Sequence:
#
# PCOD9505219 Si02
#       6
#    16  16  16  16  16  16
#     4  10  20  34  56  86 121 156 181 208 259 326
#     4   9  18  35  59  81 101 134 181 227 269 318
#     4  10  22  41  62  80 102 140 190 237 276 318
#     4   9  19  36  56  77 104 140 180 221 268 326
#     4  12  24  34  51  80 111 141 175 221 277 334
#     4  10  20  35  58  85 111 141 185 238 275 303
#
# _framework density 10.15873
#
# number of rings (size 3 to 8) (size 9 to 14) (size 15 to 20)
#    0.000    2.000    0.000    6.000    0.000    8.667 
#    0.000    2.500    0.000    1.000    0.000    0.000 
#    0.000    0.000    0.000    0.000    0.000    0.000 
#
# Total GULP energy -267512.359646 kJ/mol
# GULP energy per Si atom -5573.174159 kJ/mol
# Density = 1.013561 g / cm^3
# Si number density = 10.158730 Si / 1000 Ang^3
#
#
#
# Elastic Constant Matrix: (Units=GPa)
#
#
# Indices 1 2 3 4 5 6 
#
# 1 196.0056 8.9163 81.7545 0.0000 0.0000 0.0000
# 2 8.9163 33.5994 -2.0774 0.0000 0.0000 0.0000
# 3 81.7545 -2.0774 105.7757 0.0000 0.0000 0.0000
# 4 0.0000 0.0000 0.0000 -3.2922 0.0000 0.0000
# 5 0.0000 0.0000 0.0000 0.0000 31.5695 0.0000
# 6 0.0000 0.0000 0.0000 0.0000 0.0000 12.0517
#
#
#
# Elastic Compliance Matrix: (Units=1/GPa)
#
#
# Indices 1 2 3 4 5 6 
#
# 1 0.007721 -0.002421 -0.006015 0.000000 0.000000 0.000000
# 2 -0.002421 0.030558 0.002471 0.000000 0.000000 0.000000
# 3 -0.006015 0.002471 0.014152 0.000000 0.000000 0.000000
# 4 0.000000 0.000000 0.000000 -0.303752 0.000000 0.000000
# 5 0.000000 0.000000 0.000000 0.000000 0.031676 0.000000
# 6 0.000000 0.000000 0.000000 0.000000 0.000000 0.082976
#
#
# Mechanical properties :
#
#
# Convention : Reuss Voigt Hill
#
# Bulk Modulus (GPa) = 24.69087 56.95194 40.82141
# Shear Modulus (GPa) = -44.94781 24.51828 -10.21476
#
# Velocity S-wave (km/s) = -4.70859 3.47761 -2.24466
# Velocity P-wave (km/s) = 4.16919 6.64958 3.66298
#
# Compressibility (1/GPa) = 0.04050080
#
# Stress axis : x y z
#
# Youngs Moduli (GPa) = 129.51813 32.72500 70.66345
#
# Poissons Ratio (x) = 0.07922 0.42505
# Poissons Ratio (y) = 0.31354 -0.17462
# Poissons Ratio (z) = 0.77906 -0.08087
#
# Static dielectric constant tensor:
#      x y z
#    x 1.750440 0.000000 0.000000 
#    y 0.000000 1.804190 0.000000 
#    z 0.000000 0.000000 1.727840 
# 
# From -- ./inp_files/38397.got.cif
#   From: 2010.05.17/outbox.ucp.g08.bks.cvg/sg67_20_cif.got.tgz:38397.got - 2010.06.11 16:47:20.
