data_PCOD9505383
_publ_section_title
;
Structure prediction by ZEFSAII (Michael W. Deem and Ramdas Pophale) SiO2 
 PCOD9505383
Probable space group: C C C A
;
_chemical_formula_sum "Si O2"
_cell_formula_units_Z 56
_cell_length_a 8.929360
_cell_length_b 12.780207
_cell_length_c 22.412950
_cell_angle_alpha 90.000000
_cell_angle_beta 90.000000
_cell_angle_gamma 90.000000
_cell_volume 2557.744992
_symmetry_space_group_name_H-M "C C C A"
_symmetry_group_IT_number 68
_space_group.IT_coordinate_system_code '2'
_symmetry_cell_setting 'orthorhombic'
loop_
_space_group_symop_operation_xyz
x,y,z
-x,1/2-y,z
x,1/2-y,1/2-z
-x,y,1/2-z
-x,-y,-z
x,1/2+y,-z
-x,1/2+y,1/2+z
x,-y,1/2+z
1/2+x,1/2+y,z
1/2-x,-y,z
1/2+x,-y,1/2-z
1/2-x,1/2+y,1/2-z
1/2-x,1/2-y,-z
1/2+x,y,-z
1/2-x,y,1/2+z
1/2+x,1/2-y,1/2+z
loop_
_atom_site_type_symbol
_atom_site_label
_atom_site_fract_x
_atom_site_fract_y
_atom_site_fract_z
Si Si1 0.545764 0.384481 0.525257
Si Si2 0.250000 0.000000 0.613013
Si Si3 0.738479 0.621813 0.921298
Si Si4 0.515219 0.624924 0.818948
O O1 0.500000 0.500000 0.500000
O O2 0.675798 0.410280 0.572372
O O3 0.617114 0.330834 0.466875
O O4 0.402493 0.338327 0.560318
O O5 0.385835 0.942454 0.647888
O O6 0.750000 0.500000 0.936451
O O7 0.672544 0.616817 0.854675
O O8 0.500000 0.750000 0.820218
O O9 0.500000 0.592077 0.750000
#
# Coordination Sequence:
#
# PCOD9505383 Si02
#       4
#    16   8  16  16
#     4  10  16  31  65  95 119 156 205 256 308 390
#     4  12  20  38  68  88 122 174 198 250 340 368
#     4  10  17  35  62  88 127 159 199 256 316 369
#     4  11  26  43  60  91 128 163 217 267 299 371
#
# _framework density 21.894288
#
# number of rings (size 3 to 8) (size 9 to 14) (size 15 to 20)
#    0.000    1.429   10.000    0.000    2.000    0.000 
#    0.000    7.143    0.000    3.429    0.000    0.000 
#    0.000    0.000    0.000    0.000    0.000    0.000 
#
# Total GULP energy -155965.618640 kJ/mol
# GULP energy per Si atom -5570.200666 kJ/mol
# Density = 2.184446 g / cm^3
# Si number density = 21.894288 Si / 1000 Ang^3
#
#
#
# Elastic Constant Matrix: (Units=GPa)
#
#
# Indices 1 2 3 4 5 6 
#
# 1 132.8743 16.7297 70.4005 0.0000 0.0000 0.0000
# 2 16.7297 50.8174 9.2702 0.0000 0.0000 0.0000
# 3 70.4005 9.2702 146.0345 0.0000 0.0000 0.0000
# 4 0.0000 0.0000 0.0000 18.4195 0.0000 0.0000
# 5 0.0000 0.0000 0.0000 0.0000 31.1557 0.0000
# 6 0.0000 0.0000 0.0000 0.0000 0.0000 36.4118
#
#
#
# Elastic Compliance Matrix: (Units=1/GPa)
#
#
# Indices 1 2 3 4 5 6 
#
# 1 0.010423 -0.002544 -0.004863 0.000000 0.000000 0.000000
# 2 -0.002544 0.020530 -0.000077 0.000000 0.000000 0.000000
# 3 -0.004863 -0.000077 0.009197 0.000000 0.000000 0.000000
# 4 0.000000 0.000000 0.000000 0.054290 0.000000 0.000000
# 5 0.000000 0.000000 0.000000 0.000000 0.032097 0.000000
# 6 0.000000 0.000000 0.000000 0.000000 0.000000 0.027464
#
#
# Mechanical properties :
#
#
# Convention : Reuss Voigt Hill
#
# Bulk Modulus (GPa) = 39.71155 58.05857 48.88506
# Shear Modulus (GPa) = 28.19084 32.75245 30.47164
#
# Velocity S-wave (km/s) = 3.59219 3.87193 3.73468
# Velocity P-wave (km/s) = 5.94831 6.82381 6.40104
#
# Compressibility (1/GPa) = 0.02518159
#
# Stress axis : x y z
#
# Youngs Moduli (GPa) = 95.94265 48.70953 108.73094
#
# Poissons Ratio (x) = 0.12393 0.52878
# Poissons Ratio (y) = 0.24410 0.00834
# Poissons Ratio (z) = 0.46659 0.00374
#
# Static dielectric constant tensor:
#      x y z
#    x 1.935030 0.000000 0.000000 
#    y 0.000000 2.037780 0.000000 
#    z 0.000000 0.000000 1.838130 
# 
# From -- ./inp_files/35551.got.cif
#   From: 2010.05.17/outbox.cif.g08.bks.cpg/sg68_18_cif.got.tgz:35551.got - 2010.06.03 18:57:09.
