data_PCOD9505334
_publ_section_title
;
Structure prediction by ZEFSAII (Michael W. Deem and Ramdas Pophale) SiO2 
 PCOD9505334
Probable space group: C C C A
;
_chemical_formula_sum "Si O2"
_cell_formula_units_Z 68
_cell_length_a 35.970456
_cell_length_b 13.161877
_cell_length_c 5.751814
_cell_angle_alpha 90.000000
_cell_angle_beta 90.000000
_cell_angle_gamma 90.000000
_cell_volume 2723.131443
_symmetry_space_group_name_H-M "C C C A"
_symmetry_group_IT_number 68
_space_group.IT_coordinate_system_code '2'
_symmetry_cell_setting 'orthorhombic'
loop_
_space_group_symop_operation_xyz
x,y,z
-x,1/2-y,z
x,1/2-y,1/2-z
-x,y,1/2-z
-x,-y,-z
x,1/2+y,-z
-x,1/2+y,1/2+z
x,-y,1/2+z
1/2+x,1/2+y,z
1/2-x,-y,z
1/2+x,-y,1/2-z
1/2-x,1/2+y,1/2-z
1/2-x,1/2-y,-z
1/2+x,y,-z
1/2-x,y,1/2+z
1/2+x,1/2-y,1/2+z
loop_
_atom_site_type_symbol
_atom_site_label
_atom_site_fract_x
_atom_site_fract_y
_atom_site_fract_z
Si Si1 0.852185 0.621686 0.369542
Si Si2 0.037368 0.637872 0.635847
Si Si3 0.763978 0.618657 0.373064
Si Si4 0.500000 0.750000 0.750000
Si Si5 0.879654 0.393219 0.367851
O O1 0.808134 0.634349 0.370047
O O2 0.858729 0.500254 0.370523
O O3 0.869026 0.655935 0.618899
O O4 0.869468 0.655295 0.119626
O O5 0.042487 0.750000 0.750000
O O6 0.026583 0.672118 0.380971
O O7 0.076288 0.583256 0.645968
O O8 0.000000 0.591557 0.750000
O O9 0.750000 0.500000 0.373504
O O10 0.750105 0.657344 0.623270
#
# Coordination Sequence:
#
# PCOD9505334 Si02
#       5
#    16  16  16   4  16
#     4  10  20  32  47  77 110 136 157 197 255 302
#     4   9  20  35  55  74  92 128 174 217 250 285
#     4  10  16  26  46  67 100 135 165 197 227 287
#     4   8  18  36  56  70  92 116 178 216 256 276
#     4  10  19  33  50  70 107 134 158 204 256 297
#
# _framework density 24.971252
#
# number of rings (size 3 to 8) (size 9 to 14) (size 15 to 20)
#    0.000    2.588    0.000    7.059    6.588    0.000 
#    0.000    4.706    0.000    0.000    0.000    0.000 
#    0.000   69.647    0.000    0.000    0.000    0.000 
#
# Total GULP energy -189849.355304 kJ/mol
# GULP energy per Si atom -5583.804568 kJ/mol
# Density = 2.491442 g / cm^3
# Si number density = 24.971252 Si / 1000 Ang^3
#
#
#
# Elastic Constant Matrix: (Units=GPa)
#
#
# Indices 1 2 3 4 5 6 
#
# 1 238.2544 0.0533 94.8863 0.0000 0.0000 0.0000
# 2 0.0533 57.4508 59.4498 0.0000 0.0000 0.0000
# 3 94.8863 59.4498 283.0253 0.0000 0.0000 0.0000
# 4 0.0000 0.0000 0.0000 45.7093 0.0000 0.0000
# 5 0.0000 0.0000 0.0000 0.0000 80.1547 0.0000
# 6 0.0000 0.0000 0.0000 0.0000 0.0000 -75.2133
#
#
#
# Elastic Compliance Matrix: (Units=1/GPa)
#
#
# Indices 1 2 3 4 5 6 
#
# 1 0.005059 0.002237 -0.002166 0.000000 0.000000 0.000000
# 2 0.002237 0.023229 -0.005629 0.000000 0.000000 0.000000
# 3 -0.002166 -0.005629 0.005442 0.000000 0.000000 0.000000
# 4 0.000000 0.000000 0.000000 0.021877 0.000000 0.000000
# 5 0.000000 0.000000 0.000000 0.000000 0.012476 0.000000
# 6 0.000000 0.000000 0.000000 0.000000 0.000000 -0.013296
#
#
# Mechanical properties :
#
#
# Convention : Reuss Voigt Hill
#
# Bulk Modulus (GPa) = 44.22174 98.61216 71.41695
# Shear Modulus (GPa) = 68.08018 38.41955 53.24987
#
# Velocity S-wave (km/s) = 5.22710 3.92669 4.62285
# Velocity P-wave (km/s) = 7.36055 7.75465 7.56017
#
# Compressibility (1/GPa) = 0.02261331
#
# Stress axis : x y z
#
# Youngs Moduli (GPa) = 197.65542 43.04931 183.76177
#
# Poissons Ratio (x) = -0.09629 0.39802
# Poissons Ratio (y) = -0.44209 1.03443
# Poissons Ratio (z) = 0.42812 0.24233
#
# Static dielectric constant tensor:
#      x y z
#    x 1.871600 0.000000 0.000000 
#    y 0.000000 2.124720 0.000000 
#    z 0.000000 0.000000 1.955510 
# 
# From -- ./inp_files/1541.got.cif
#   From: 2010.05.17/outbox.cif.g08.bks.cpg/sg68_1_cif.got.tgz:1541.got - 2010.06.03 18:57:09.
