data_PCOD9505779
_publ_section_title
;
Structure prediction by ZEFSAII (Michael W. Deem and Ramdas Pophale) SiO2 
 PCOD9505779
Probable space group: C C C A
;
_chemical_formula_sum "Si O2"
_cell_formula_units_Z 72
_cell_length_a 11.005597
_cell_length_b 14.812330
_cell_length_c 19.265027
_cell_angle_alpha 90.000000
_cell_angle_beta 90.000000
_cell_angle_gamma 90.000000
_cell_volume 3140.556471
_symmetry_space_group_name_H-M "C C C A"
_symmetry_group_IT_number 68
_space_group.IT_coordinate_system_code '2'
_symmetry_cell_setting 'orthorhombic'
loop_
_space_group_symop_operation_xyz
x,y,z
-x,1/2-y,z
x,1/2-y,1/2-z
-x,y,1/2-z
-x,-y,-z
x,1/2+y,-z
-x,1/2+y,1/2+z
x,-y,1/2+z
1/2+x,1/2+y,z
1/2-x,-y,z
1/2+x,-y,1/2-z
1/2-x,1/2+y,1/2-z
1/2-x,1/2-y,-z
1/2+x,y,-z
1/2-x,y,1/2+z
1/2+x,1/2-y,1/2+z
loop_
_atom_site_type_symbol
_atom_site_label
_atom_site_fract_x
_atom_site_fract_y
_atom_site_fract_z
Si Si1 0.116611 0.855106 0.454116
Si Si2 0.846370 0.147976 0.968480
Si Si3 0.384685 0.617238 0.707050
Si Si4 0.215775 0.606205 0.826496
Si Si5 0.000000 0.938533 0.750000
O O1 0.126636 0.753173 0.483787
O O2 0.242664 0.895198 0.483072
O O3 0.120228 0.852039 0.371035
O O4 0.982133 0.894127 0.470693
O O5 0.783282 0.147424 0.892372
O O6 0.500000 0.652261 0.750000
O O7 0.272372 0.640857 0.754874
O O8 0.091927 0.491491 0.711476
O O9 0.250000 0.500000 0.834046
O O10 0.072695 0.612358 0.810631
#
# Coordination Sequence:
#
# PCOD9505779 Si02
#       5
#    16  16  16  16   8
#     4  10  20  37  53  81 106 146 185 225 275 330
#     4  10  21  35  56  75 112 144 179 227 278 326
#     4   9  17  33  58  78 103 137 189 223 268 325
#     4  10  18  35  54  80 108 142 179 234 278 331
#     4   8  18  32  56  80 112 140 182 234 282 322
#
# _framework density 22.925872999999999
#
# number of rings (size 3 to 8) (size 9 to 14) (size 15 to 20)
#    0.667    1.778    2.222    0.000    0.000    2.667 
#    0.000    7.778    0.000    1.333    0.000    0.000 
#    0.000    0.000    0.000    0.000    0.000    0.000 
#
# Total GULP energy -200404.423298 kJ/mol
# GULP energy per Si atom -5566.789536 kJ/mol
# Density = 2.287369 g / cm^3
# Si number density = 22.925873 Si / 1000 Ang^3
#
#
#
# Elastic Constant Matrix: (Units=GPa)
#
#
# Indices 1 2 3 4 5 6 
#
# 1 178.8402 19.8863 88.9871 0.0000 0.0000 0.0000
# 2 19.8863 47.5565 -4.0772 0.0000 0.0000 0.0000
# 3 88.9871 -4.0772 103.9479 0.0000 0.0000 0.0000
# 4 0.0000 0.0000 0.0000 15.5597 0.0000 0.0000
# 5 0.0000 0.0000 0.0000 0.0000 31.3997 0.0000
# 6 0.0000 0.0000 0.0000 0.0000 0.0000 1.7011
#
#
#
# Elastic Compliance Matrix: (Units=1/GPa)
#
#
# Indices 1 2 3 4 5 6 
#
# 1 0.010973 -0.005412 -0.009606 0.000000 0.000000 0.000000
# 2 -0.005412 0.023768 0.005565 0.000000 0.000000 0.000000
# 3 -0.009606 0.005565 0.018062 0.000000 0.000000 0.000000
# 4 0.000000 0.000000 0.000000 0.064269 0.000000 0.000000
# 5 0.000000 0.000000 0.000000 0.000000 0.031847 0.000000
# 6 0.000000 0.000000 0.000000 0.000000 0.000000 0.587853
#
#
# Mechanical properties :
#
#
# Convention : Reuss Voigt Hill
#
# Bulk Modulus (GPa) = 29.50068 59.99301 44.74684
# Shear Modulus (GPa) = 6.51910 24.76865 15.64388
#
# Velocity S-wave (km/s) = 1.68811 3.29048 2.61505
# Velocity P-wave (km/s) = 4.08600 6.37663 5.35522
#
# Compressibility (1/GPa) = 0.03389752
#
# Stress axis : x y z
#
# Youngs Moduli (GPa) = 91.13095 42.07350 55.36456
#
# Poissons Ratio (x) = 0.22771 0.53184
# Poissons Ratio (y) = 0.49322 -0.30813
# Poissons Ratio (z) = 0.87542 -0.23416
#
# Static dielectric constant tensor:
#      x y z
#    x 2.018080 0.000000 0.000000 
#    y 0.000000 1.953290 0.000000 
#    z 0.000000 0.000000 1.826080 
# 
# From -- ./inp_files/28251.got.cif
#   From: 2010.05.17/outbox.cif.g08.bks.cpg/sg68_15_cif.got.tgz:28251.got - 2010.06.03 18:57:09.
