data_PCOD9505495
_publ_section_title
;
Structure prediction by ZEFSAII (Michael W. Deem and Ramdas Pophale) SiO2 
 PCOD9505495
Probable space group: C C C A
;
_chemical_formula_sum "Si O2"
_cell_formula_units_Z 112
_cell_length_a 14.071097
_cell_length_b 24.568220
_cell_length_c 14.709122
_cell_angle_alpha 90.000000
_cell_angle_beta 90.000000
_cell_angle_gamma 90.000000
_cell_volume 5084.970051
_symmetry_space_group_name_H-M "C C C A"
_symmetry_group_IT_number 68
_space_group.IT_coordinate_system_code '2'
_symmetry_cell_setting 'orthorhombic'
loop_
_space_group_symop_operation_xyz
x,y,z
-x,1/2-y,z
x,1/2-y,1/2-z
-x,y,1/2-z
-x,-y,-z
x,1/2+y,-z
-x,1/2+y,1/2+z
x,-y,1/2+z
1/2+x,1/2+y,z
1/2-x,-y,z
1/2+x,-y,1/2-z
1/2-x,1/2+y,1/2-z
1/2-x,1/2-y,-z
1/2+x,y,-z
1/2-x,y,1/2+z
1/2+x,1/2-y,1/2+z
loop_
_atom_site_type_symbol
_atom_site_label
_atom_site_fract_x
_atom_site_fract_y
_atom_site_fract_z
Si Si1 0.329124 0.543376 0.685639
Si Si2 0.269990 0.149026 0.733849
Si Si3 0.937561 0.328303 0.116577
Si Si4 0.641649 0.211254 0.613752
Si Si5 0.602128 0.918480 0.503827
Si Si6 0.137280 0.516688 0.384940
Si Si7 0.810710 0.870996 0.453889
O O1 0.250000 0.500000 0.652609
O O2 0.269218 0.596310 0.715448
O O3 0.400144 0.560073 0.606001
O O4 0.379107 0.522286 0.777353
O O5 0.373597 0.139030 0.688520
O O6 0.283763 0.196475 0.807418
O O7 0.203819 0.155818 0.645627
O O8 0.874214 0.274805 0.094508
O O9 0.038905 0.308350 0.149739
O O10 0.954945 0.365956 0.029093
O O11 0.662352 0.174808 0.525984
O O12 0.710488 0.896483 0.488247
O O13 0.584162 0.968592 0.436219
O O14 0.250000 0.500000 0.389451
O O15 0.127049 0.574723 0.435416
#
# Coordination Sequence:
#
# PCOD9505495 Si02
#       7
#    16  16  16  16  16  16  16
#     4  10  17  30  57  85 114 149 181 238 296 332
#     4  10  20  34  57  88 108 144 196 239 282 332
#     4  10  23  37  54  80 120 156 191 229 291 359
#     4  11  21  39  57  78 119 158 185 236 299 333
#     4  10  18  33  54  86 111 147 193 234 280 337
#     4   8  16  30  52  82 116 139 184 235 281 344
#     4   9  18  33  56  86 109 142 193 240 279 336
#
# _framework density 22.025694000000001
#
# number of rings (size 3 to 8) (size 9 to 14) (size 15 to 20)
#    0.000    2.286    1.429    4.714    0.000    3.429 
#    2.571    0.714    0.000    3.429    0.000    8.000 
#    0.000    0.000    0.000    0.000    0.000    0.000 
#
# Total GULP energy -312617.594339 kJ/mol
# GULP energy per Si atom -5582.457042 kJ/mol
# Density = 2.197556 g / cm^3
# Si number density = 22.025694 Si / 1000 Ang^3
#
#
#
# Elastic Constant Matrix: (Units=GPa)
#
#
# Indices 1 2 3 4 5 6 
#
# 1 27.5861 29.3279 9.0077 0.0000 0.0000 0.0000
# 2 29.3279 130.8650 85.7674 0.0000 0.0000 0.0000
# 3 9.0077 85.7674 143.6103 0.0000 0.0000 0.0000
# 4 0.0000 0.0000 0.0000 28.7261 0.0000 0.0000
# 5 0.0000 0.0000 0.0000 0.0000 20.3652 0.0000
# 6 0.0000 0.0000 0.0000 0.0000 0.0000 26.0160
#
#
#
# Elastic Compliance Matrix: (Units=1/GPa)
#
#
# Indices 1 2 3 4 5 6 
#
# 1 0.050454 -0.015171 0.005896 0.000000 0.000000 0.000000
# 2 -0.015171 0.017118 -0.009272 0.000000 0.000000 0.000000
# 3 0.005896 -0.009272 0.012131 0.000000 0.000000 0.000000
# 4 0.000000 0.000000 0.000000 0.034812 0.000000 0.000000
# 5 0.000000 0.000000 0.000000 0.000000 0.049103 0.000000
# 6 0.000000 0.000000 0.000000 0.000000 0.000000 0.038438
#
#
# Mechanical properties :
#
#
# Convention : Reuss Voigt Hill
#
# Bulk Modulus (GPa) = 23.46928 61.14083 42.30506
# Shear Modulus (GPa) = 19.73535 26.88537 23.31036
#
# Velocity S-wave (km/s) = 2.99660 3.49755 3.25672
# Velocity P-wave (km/s) = 4.75934 6.64301 5.77845
#
# Compressibility (1/GPa) = 0.04260888
#
# Stress axis : x y z
#
# Youngs Moduli (GPa) = 19.81999 58.41795 82.43525
#
# Poissons Ratio (x) = 0.88628 -0.48604
# Poissons Ratio (y) = 0.30070 0.76431
# Poissons Ratio (z) = -0.11686 0.54163
#
# Static dielectric constant tensor:
#      x y z
#    x 1.839280 0.000000 0.000000 
#    y 0.000000 1.825280 0.000000 
#    z 0.000000 0.000000 1.842950 
# 
# From -- ./inp_files/22598.got.cif
#   From: 2010.05.17/outbox.cif.g08.bks.cpg/sg68_12_cif.got.tgz:22598.got - 2010.06.03 18:57:09.
