data_PCOD9505764
_publ_section_title
;
Structure prediction by ZEFSAII (Michael W. Deem and Ramdas Pophale) SiO2 
 PCOD9505764
Probable space group: C C C A
;
_chemical_formula_sum "Si O2"
_cell_formula_units_Z 72
_cell_length_a 27.244105
_cell_length_b 15.081465
_cell_length_c 8.895656
_cell_angle_alpha 90.000000
_cell_angle_beta 90.000000
_cell_angle_gamma 90.000000
_cell_volume 3655.056175
_symmetry_space_group_name_H-M "C C C A"
_symmetry_group_IT_number 68
_space_group.IT_coordinate_system_code '2'
_symmetry_cell_setting 'orthorhombic'
loop_
_space_group_symop_operation_xyz
x,y,z
-x,1/2-y,z
x,1/2-y,1/2-z
-x,y,1/2-z
-x,-y,-z
x,1/2+y,-z
-x,1/2+y,1/2+z
x,-y,1/2+z
1/2+x,1/2+y,z
1/2-x,-y,z
1/2+x,-y,1/2-z
1/2-x,1/2+y,1/2-z
1/2-x,1/2-y,-z
1/2+x,y,-z
1/2-x,y,1/2+z
1/2+x,1/2-y,1/2+z
loop_
_atom_site_type_symbol
_atom_site_label
_atom_site_fract_x
_atom_site_fract_y
_atom_site_fract_z
Si Si1 0.744780 0.750000 0.250000
Si Si2 0.630451 0.540615 0.684291
Si Si3 0.180990 0.686949 0.499892
Si Si4 0.533909 0.949225 0.382740
Si Si5 0.130748 0.376982 0.492411
O O1 0.779149 0.800766 0.367599
O O2 0.711491 0.683144 0.346717
O O3 0.645990 0.608041 0.552505
O O4 0.572148 0.521392 0.684762
O O5 0.651287 0.444795 0.634017
O O6 0.643190 0.580703 0.845450
O O7 0.151058 0.778681 0.512568
O O8 0.500000 0.911753 0.250000
O O9 0.572018 0.881681 0.461579
O O10 0.500000 0.000000 0.500000
#
# Coordination Sequence:
#
# PCOD9505764 Si02
#       5
#     8  16  16  16  16
#     4  10  24  38  66  86 124 154 206 270 292 372
#     4  10  21  37  64  85 122 163 195 250 306 367
#     4  11  22  44  61  89 121 164 204 250 321 355
#     4  10  18  34  60  87 117 153 193 246 292 348
#     4  10  21  37  64  85 123 164 194 250 306 367
#
# _framework density 19.698740000000001
#
# number of rings (size 3 to 8) (size 9 to 14) (size 15 to 20)
#    1.333    0.444    4.444    0.000    3.111    0.000 
#    0.000    7.778    0.000    1.333    0.000    0.000 
#    0.000    0.000    0.000    0.000    0.000    0.000 
#
# Total GULP energy -200496.373766 kJ/mol
# GULP energy per Si atom -5569.343716 kJ/mol
# Density = 1.965390 g / cm^3
# Si number density = 19.698740 Si / 1000 Ang^3
#
#
#
# Elastic Constant Matrix: (Units=GPa)
#
#
# Indices 1 2 3 4 5 6 
#
# 1 78.7640 45.9264 38.3641 0.0000 0.0000 0.0000
# 2 45.9264 83.1649 14.2279 0.0000 0.0000 0.0000
# 3 38.3641 14.2279 76.5052 0.0000 0.0000 0.0000
# 4 0.0000 0.0000 0.0000 22.5386 0.0000 0.0000
# 5 0.0000 0.0000 0.0000 0.0000 51.8967 0.0000
# 6 0.0000 0.0000 0.0000 0.0000 0.0000 24.2974
#
#
#
# Elastic Compliance Matrix: (Units=1/GPa)
#
#
# Indices 1 2 3 4 5 6 
#
# 1 0.024487 -0.011797 -0.010085 0.000000 0.000000 0.000000
# 2 -0.011797 0.018103 0.002549 0.000000 0.000000 0.000000
# 3 -0.010085 0.002549 0.017654 0.000000 0.000000 0.000000
# 4 0.000000 0.000000 0.000000 0.044368 0.000000 0.000000
# 5 0.000000 0.000000 0.000000 0.000000 0.019269 0.000000
# 6 0.000000 0.000000 0.000000 0.000000 0.000000 0.041157
#
#
# Mechanical properties :
#
#
# Convention : Reuss Voigt Hill
#
# Bulk Modulus (GPa) = 46.34419 48.38566 47.36492
# Shear Modulus (GPa) = 23.70808 29.07424 26.39116
#
# Velocity S-wave (km/s) = 3.47296 3.84597 3.66421
# Velocity P-wave (km/s) = 6.29758 6.65869 6.48065
#
# Compressibility (1/GPa) = 0.02157768
#
# Stress axis : x y z
#
# Youngs Moduli (GPa) = 40.83732 55.23925 56.64335
#
# Poissons Ratio (x) = 0.65168 0.57127
# Poissons Ratio (y) = 0.48177 -0.14439
# Poissons Ratio (z) = 0.41186 -0.14081
#
# Static dielectric constant tensor:
#      x y z
#    x 1.700390 0.000000 0.000000 
#    y 0.000000 1.658090 0.000000 
#    z 0.000000 0.000000 1.729680 
# 
# From -- ./inp_files/8731.got.cif
#   From: 2010.05.17/outbox.cif.g08.bks.cpg/sg68_5_cif.got.tgz:8731.got - 2010.06.03 18:57:09.
