data_PCOD9505489
_publ_section_title
;
Structure prediction by ZEFSAII (Michael W. Deem and Ramdas Pophale) SiO2 
 PCOD9505489
Probable space group: C C C A
;
_chemical_formula_sum "Si O2"
_cell_formula_units_Z 104
_cell_length_a 9.670330
_cell_length_b 14.855697
_cell_length_c 30.772681
_cell_angle_alpha 90.000000
_cell_angle_beta 90.000000
_cell_angle_gamma 90.000000
_cell_volume 4420.787731
_symmetry_space_group_name_H-M "C C C A"
_symmetry_group_IT_number 68
_space_group.IT_coordinate_system_code '2'
_symmetry_cell_setting 'orthorhombic'
loop_
_space_group_symop_operation_xyz
x,y,z
-x,1/2-y,z
x,1/2-y,1/2-z
-x,y,1/2-z
-x,-y,-z
x,1/2+y,-z
-x,1/2+y,1/2+z
x,-y,1/2+z
1/2+x,1/2+y,z
1/2-x,-y,z
1/2+x,-y,1/2-z
1/2-x,1/2+y,1/2-z
1/2-x,1/2-y,-z
1/2+x,y,-z
1/2-x,y,1/2+z
1/2+x,1/2-y,1/2+z
loop_
_atom_site_type_symbol
_atom_site_label
_atom_site_fract_x
_atom_site_fract_y
_atom_site_fract_z
Si Si1 0.790139 0.670462 0.180585
Si Si2 0.787915 0.887886 0.177426
Si Si3 0.416632 0.098681 0.549239
Si Si4 0.883865 0.611198 0.023956
Si Si5 0.012032 0.140791 0.148152
Si Si6 0.500000 0.903744 0.750000
Si Si7 0.507357 0.646710 0.612435
O O1 0.782918 0.778783 0.184041
O O2 0.636091 0.630804 0.183007
O O3 0.848805 0.624160 0.136096
O O4 0.903467 0.645640 0.215562
O O5 0.628124 0.903033 0.165776
O O6 0.874240 0.933812 0.216733
O O7 0.879319 0.902385 0.134046
O O8 0.271474 0.143870 0.534545
O O9 0.550302 0.132538 0.522493
O O10 0.447188 0.104744 0.600384
O O11 0.393188 0.996017 0.533491
O O12 0.985825 0.645215 0.061364
O O13 0.000000 0.250000 0.142477
O O14 0.500000 0.750000 0.626181
#
# Coordination Sequence:
#
# PCOD9505489 Si02
#       7
#    16  16  16  16  16   8  16
#     4   9  16  30  49  73 109 138 178 221 264 316
#     4   9  18  28  49  77 107 142 174 219 264 318
#     4  10  22  38  55  78 106 141 186 227 268 318
#     4  10  21  38  57  76 104 144 182 230 265 318
#     4  10  20  34  50  79 115 143 177 227 274 316
#     4  10  17  30  50  78 110 148 182 212 269 326
#     4   9  17  32  52  78 106 139 177 218 270 320
#
# _framework density 23.525219
#
# number of rings (size 3 to 8) (size 9 to 14) (size 15 to 20)
#    0.000    2.462    1.538    2.308    2.154    1.231 
#    0.000    3.846    0.000    0.000    0.000   17.231 
#    0.000    0.000    0.000    0.000    0.000    0.000 
#
# Total GULP energy -289507.191128 kJ/mol
# GULP energy per Si atom -5567.445983 kJ/mol
# Density = 2.347167 g / cm^3
# Si number density = 23.525219 Si / 1000 Ang^3
#
#
#
# Elastic Constant Matrix: (Units=GPa)
#
#
# Indices 1 2 3 4 5 6 
#
# 1 192.4227 29.8064 58.3923 0.0000 0.0000 0.0000
# 2 29.8064 40.0344 17.4590 0.0000 0.0000 0.0000
# 3 58.3923 17.4590 107.5918 0.0000 0.0000 0.0000
# 4 0.0000 0.0000 0.0000 7.7850 0.0000 0.0000
# 5 0.0000 0.0000 0.0000 0.0000 -33.3314 0.0000
# 6 0.0000 0.0000 0.0000 0.0000 0.0000 1.1070
#
#
#
# Elastic Compliance Matrix: (Units=1/GPa)
#
#
# Indices 1 2 3 4 5 6 
#
# 1 0.006684 -0.003653 -0.003035 0.000000 0.000000 0.000000
# 2 -0.003653 0.028877 -0.002704 0.000000 0.000000 0.000000
# 3 -0.003035 -0.002704 0.011380 0.000000 0.000000 0.000000
# 4 0.000000 0.000000 0.000000 0.128452 0.000000 0.000000
# 5 0.000000 0.000000 0.000000 0.000000 -0.030002 0.000000
# 6 0.000000 0.000000 0.000000 0.000000 0.000000 0.903352
#
#
# Mechanical properties :
#
#
# Convention : Reuss Voigt Hill
#
# Bulk Modulus (GPa) = 35.51257 61.26270 48.38764
# Shear Modulus (GPa) = 4.64291 10.73820 7.69056
#
# Velocity S-wave (km/s) = 1.40637 2.13880 1.81002
# Velocity P-wave (km/s) = 4.21491 5.67425 4.99813
#
# Compressibility (1/GPa) = 0.02815904
#
# Stress axis : x y z
#
# Youngs Moduli (GPa) = 149.62084 34.62968 87.87335
#
# Poissons Ratio (x) = 0.12649 0.26666
# Poissons Ratio (y) = 0.54651 0.23757
# Poissons Ratio (z) = 0.45404 0.09362
#
# Static dielectric constant tensor:
#      x y z
#    x 2.056990 0.000000 0.000000 
#    y 0.000000 2.009690 0.000000 
#    z 0.000000 0.000000 1.855740 
# 
# From -- ./inp_files/54122.got.cif
#   From: 2010.05.17/outbox.cif.g08.bks.cpg/sg68_28_cif.got.tgz:54122.got - 2010.06.03 18:57:09.
