data_PCOD9505807
_publ_section_title
;
Structure prediction by ZEFSAII (Michael W. Deem and Ramdas Pophale) SiO2 
 PCOD9505807
Probable space group: C C C A
;
_chemical_formula_sum "Si O2"
_cell_formula_units_Z 80
_cell_length_a 15.220822
_cell_length_b 7.949379
_cell_length_c 27.141713
_cell_angle_alpha 90.000000
_cell_angle_beta 90.000000
_cell_angle_gamma 90.000000
_cell_volume 3284.040953
_symmetry_space_group_name_H-M "C C C A"
_symmetry_group_IT_number 68
_space_group.IT_coordinate_system_code '2'
_symmetry_cell_setting 'orthorhombic'
loop_
_space_group_symop_operation_xyz
x,y,z
-x,1/2-y,z
x,1/2-y,1/2-z
-x,y,1/2-z
-x,-y,-z
x,1/2+y,-z
-x,1/2+y,1/2+z
x,-y,1/2+z
1/2+x,1/2+y,z
1/2-x,-y,z
1/2+x,-y,1/2-z
1/2-x,1/2+y,1/2-z
1/2-x,1/2-y,-z
1/2+x,y,-z
1/2-x,y,1/2+z
1/2+x,1/2-y,1/2+z
loop_
_atom_site_type_symbol
_atom_site_label
_atom_site_fract_x
_atom_site_fract_y
_atom_site_fract_z
Si Si1 0.634611 0.673904 0.592939
Si Si2 0.598495 0.193051 0.197896
Si Si3 0.526479 0.999006 0.556604
Si Si4 0.329231 0.861670 0.298161
Si Si5 0.194065 0.179204 0.407431
O O1 0.642137 0.721029 0.650759
O O2 0.581213 0.830694 0.569722
O O3 0.567351 0.519686 0.585036
O O4 0.733968 0.688456 0.572174
O O5 0.500000 0.250000 0.196344
O O6 0.638045 0.250000 0.250000
O O7 0.592100 0.992643 0.195949
O O8 0.500000 0.000000 0.500000
O O9 0.599704 0.142109 0.567858
O O10 0.335492 0.750000 0.250000
O O11 0.323827 0.772090 0.350552
O O12 0.250000 0.000000 0.294780
O O13 0.250000 0.000000 0.406982
#
# Coordination Sequence:
#
# PCOD9505807 Si02
#       5
#    16  16  16  16  16
#     4  10  18  36  59  84 121 169 221 277 343 421
#     4  11  20  36  65  96 124 180 234 262 338 430
#     4  10  19  33  58  85 115 161 223 288 343 403
#     4  11  20  35  62  98 137 175 223 281 340 416
#     4   9  17  33  57  88 121 166 221 276 341 417
#
# _framework density 24.360230999999999
#
# number of rings (size 3 to 8) (size 9 to 14) (size 15 to 20)
#    0.000    1.800    8.000    0.600    0.000    0.800 
#    0.000    2.000    8.800    0.000    0.000    0.000 
#    0.000    0.000    0.000    0.000    0.000    0.000 
#
# Total GULP energy -223143.646957 kJ/mol
# GULP energy per Si atom -5578.591174 kJ/mol
# Density = 2.430479 g / cm^3
# Si number density = 24.360231 Si / 1000 Ang^3
#
#
#
# Elastic Constant Matrix: (Units=GPa)
#
#
# Indices 1 2 3 4 5 6 
#
# 1 200.2138 55.7679 61.5019 0.0000 0.0000 0.0000
# 2 55.7679 82.5939 18.8308 0.0000 0.0000 0.0000
# 3 61.5019 18.8308 152.2030 0.0000 0.0000 0.0000
# 4 0.0000 0.0000 0.0000 17.4976 0.0000 0.0000
# 5 0.0000 0.0000 0.0000 0.0000 -73.7590 0.0000
# 6 0.0000 0.0000 0.0000 0.0000 0.0000 42.4923
#
#
#
# Elastic Compliance Matrix: (Units=1/GPa)
#
#
# Indices 1 2 3 4 5 6 
#
# 1 0.006827 -0.004097 -0.002252 0.000000 0.000000 0.000000
# 2 -0.004097 0.014917 -0.000190 0.000000 0.000000 0.000000
# 3 -0.002252 -0.000190 0.007504 0.000000 0.000000 0.000000
# 4 0.000000 0.000000 0.000000 0.057151 0.000000 0.000000
# 5 0.000000 0.000000 0.000000 0.000000 -0.013558 0.000000
# 6 0.000000 0.000000 0.000000 0.000000 0.000000 0.023534
#
#
# Mechanical properties :
#
#
# Convention : Reuss Voigt Hill
#
# Bulk Modulus (GPa) = 61.84104 78.57908 70.21006
# Shear Modulus (GPa) = 43.53789 17.17351 30.35570
#
# Velocity S-wave (km/s) = 4.23218 2.65803 3.53387
# Velocity P-wave (km/s) = 7.02303 6.46122 6.74797
#
# Compressibility (1/GPa) = 0.01617049
#
# Stress axis : x y z
#
# Youngs Moduli (GPa) = 146.46672 67.03851 133.26767
#
# Poissons Ratio (x) = 0.27462 0.30012
# Poissons Ratio (y) = 0.60000 0.02535
# Poissons Ratio (z) = 0.32984 0.01275
#
# Static dielectric constant tensor:
#      x y z
#    x 2.191690 0.000000 0.000000 
#    y 0.000000 1.860350 0.000000 
#    z 0.000000 0.000000 1.801490 
# 
# From -- ./inp_files/50809.got.cif
#   From: 2010.05.17/outbox.cif.g08.bks.cpg/sg68_26_cif.got.tgz:50809.got - 2010.06.03 18:57:09.
