data_PCOD9505765
_publ_section_title
;
Structure prediction by ZEFSAII (Michael W. Deem and Ramdas Pophale) SiO2 
 PCOD9505765
Probable space group: C C C A
;
_chemical_formula_sum "Si O2"
_cell_formula_units_Z 88
_cell_length_a 10.196345
_cell_length_b 20.283718
_cell_length_c 20.730022
_cell_angle_alpha 90.000000
_cell_angle_beta 90.000000
_cell_angle_gamma 90.000000
_cell_volume 4287.378726
_symmetry_space_group_name_H-M "C C C A"
_symmetry_group_IT_number 68
_space_group.IT_coordinate_system_code '2'
_symmetry_cell_setting 'orthorhombic'
loop_
_space_group_symop_operation_xyz
x,y,z
-x,1/2-y,z
x,1/2-y,1/2-z
-x,y,1/2-z
-x,-y,-z
x,1/2+y,-z
-x,1/2+y,1/2+z
x,-y,1/2+z
1/2+x,1/2+y,z
1/2-x,-y,z
1/2+x,-y,1/2-z
1/2-x,1/2+y,1/2-z
1/2-x,1/2-y,-z
1/2+x,y,-z
1/2-x,y,1/2+z
1/2+x,1/2-y,1/2+z
loop_
_atom_site_type_symbol
_atom_site_label
_atom_site_fract_x
_atom_site_fract_y
_atom_site_fract_z
Si Si1 0.593048 0.588914 0.438250
Si Si2 0.851941 0.681866 0.563091
Si Si3 0.151847 0.937368 0.078304
Si Si4 0.750000 0.500000 0.847540
Si Si5 0.309327 0.804446 0.919115
Si Si6 0.053487 0.609663 0.180554
O O1 0.479811 0.639886 0.417944
O O2 0.571227 0.563582 0.510936
O O3 0.632566 0.529678 0.391443
O O4 0.725316 0.630973 0.435094
O O5 0.738821 0.628091 0.572001
O O6 0.792045 0.746174 0.597705
O O7 0.874036 0.707496 0.489267
O O8 0.058663 0.927797 0.139408
O O9 0.250000 0.000000 0.080796
O O10 0.821412 0.439806 0.811071
O O11 0.404926 0.827368 0.862697
O O12 0.000000 0.628387 0.250000
#
# Coordination Sequence:
#
# PCOD9505765 Si02
#       6
#    16  16  16   8  16  16
#     4  10  18  34  60  90 124 153 194 267 320 375
#     4  10  19  34  58  88 120 156 198 262 314 373
#     4  11  22  34  58  90 122 160 206 252 323 377
#     4  10  22  38  60  90 120 160 198 260 320 370
#     4   9  20  35  56  87 120 157 207 248 316 365
#     4  11  24  41  58  84 123 166 212 252 303 387
#
# _framework density 20.525362999999999
#
# number of rings (size 3 to 8) (size 9 to 14) (size 15 to 20)
#    0.000    1.818    2.727    1.636    1.273    2.182 
#    0.000    1.818    0.000    0.000    0.000    2.545 
#    0.000    0.000    0.000    0.000    0.000    0.000 
#
# Total GULP energy -245246.822737 kJ/mol
# GULP energy per Si atom -5573.791426 kJ/mol
# Density = 2.047865 g / cm^3
# Si number density = 20.525363 Si / 1000 Ang^3
#
#
#
# Elastic Constant Matrix: (Units=GPa)
#
#
# Indices 1 2 3 4 5 6 
#
# 1 71.9953 30.7310 38.5645 0.0000 0.0000 0.0000
# 2 30.7310 86.5661 45.1764 0.0000 0.0000 0.0000
# 3 38.5645 45.1764 83.6342 0.0000 0.0000 0.0000
# 4 0.0000 0.0000 0.0000 6.4930 0.0000 0.0000
# 5 0.0000 0.0000 0.0000 0.0000 24.7493 0.0000
# 6 0.0000 0.0000 0.0000 0.0000 0.0000 61.2720
#
#
#
# Elastic Compliance Matrix: (Units=1/GPa)
#
#
# Indices 1 2 3 4 5 6 
#
# 1 0.018998 -0.003026 -0.007126 0.000000 0.000000 0.000000
# 2 -0.003026 0.016568 -0.007555 0.000000 0.000000 0.000000
# 3 -0.007126 -0.007555 0.019323 0.000000 0.000000 0.000000
# 4 0.000000 0.000000 0.000000 0.154013 0.000000 0.000000
# 5 0.000000 0.000000 0.000000 0.000000 0.040405 0.000000
# 6 0.000000 0.000000 0.000000 0.000000 0.000000 0.016321
#
#
# Mechanical properties :
#
#
# Convention : Reuss Voigt Hill
#
# Bulk Modulus (GPa) = 51.34026 52.34882 51.84454
# Shear Modulus (GPa) = 16.25835 27.01775 21.63805
#
# Velocity S-wave (km/s) = 2.81750 3.63204 3.25038
# Velocity P-wave (km/s) = 5.97091 6.56877 6.27696
#
# Compressibility (1/GPa) = 0.01947789
#
# Stress axis : x y z
#
# Youngs Moduli (GPa) = 52.63625 60.35555 51.75055
#
# Poissons Ratio (x) = 0.18261 0.36877
# Poissons Ratio (y) = 0.15925 0.39096
# Poissons Ratio (z) = 0.37509 0.45596
#
# Static dielectric constant tensor:
#      x y z
#    x 1.775490 0.000000 0.000000 
#    y 0.000000 1.779260 0.000000 
#    z 0.000000 0.000000 1.725190 
# 
# From -- ./inp_files/37455.got.cif
#   From: 2010.05.17/outbox.cif.g08.bks.cpg/sg68_19_cif.got.tgz:37455.got - 2010.06.03 18:57:09.
