data_PCOD9505986
_publ_section_title
;
Structure prediction by ZEFSAII (Michael W. Deem and Ramdas Pophale) SiO2 
 PCOD9505986
Probable space group: C C C A
;
_chemical_formula_sum "Si O2"
_cell_formula_units_Z 64
_cell_length_a 18.808967
_cell_length_b 23.427763
_cell_length_c 5.476123
_cell_angle_alpha 90.000000
_cell_angle_beta 90.000000
_cell_angle_gamma 90.000000
_cell_volume 2413.064668
_symmetry_space_group_name_H-M "C C C A"
_symmetry_group_IT_number 68
_space_group.IT_coordinate_system_code '2'
_symmetry_cell_setting 'orthorhombic'
loop_
_space_group_symop_operation_xyz
x,y,z
-x,1/2-y,z
x,1/2-y,1/2-z
-x,y,1/2-z
-x,-y,-z
x,1/2+y,-z
-x,1/2+y,1/2+z
x,-y,1/2+z
1/2+x,1/2+y,z
1/2-x,-y,z
1/2+x,-y,1/2-z
1/2-x,1/2+y,1/2-z
1/2-x,1/2-y,-z
1/2+x,y,-z
1/2-x,y,1/2+z
1/2+x,1/2-y,1/2+z
loop_
_atom_site_type_symbol
_atom_site_label
_atom_site_fract_x
_atom_site_fract_y
_atom_site_fract_z
Si Si1 0.153461 0.151660 0.115940
Si Si2 0.830595 0.022153 0.235074
Si Si3 0.000048 0.893713 0.001790
Si Si4 0.631640 0.309985 0.123090
O O1 0.164734 0.192405 0.350216
O O2 0.173012 0.088553 0.203491
O O3 0.180786 0.163886 0.840133
O O4 0.068958 0.146082 0.049444
O O5 0.863391 0.009387 0.970404
O O6 0.750000 0.000000 0.208690
O O7 0.065439 0.851080 0.057051
O O8 0.000000 0.928515 0.250000
O O9 0.000000 0.927584 0.750000
O O10 0.611143 0.250000 0.250000
#
# Coordination Sequence:
#
# PCOD9505986 Si02
#       4
#    16  16  16  16
#     4  10  19  33  54  81 116 149 194 245 280 338
#     4  10  21  38  61  87 106 138 196 256 314 355
#     4   8  16  28  45  69 108 150 183 213 256 314
#     4  10  19  32  52  82 120 161 192 220 274 347
#
# _framework density 26.522292
#
# number of rings (size 3 to 8) (size 9 to 14) (size 15 to 20)
#    0.000    2.500    0.000    2.250    0.000    4.500 
#    0.000   12.500    0.000   40.500    0.000   70.000 
#    0.000    0.000    0.000    0.000    0.000    0.000 
#
# Total GULP energy -178355.555976 kJ/mol
# GULP energy per Si atom -5573.611124 kJ/mol
# Density = 2.646193 g / cm^3
# Si number density = 26.522292 Si / 1000 Ang^3
#
#
#
# Elastic Constant Matrix: (Units=GPa)
#
#
# Indices 1 2 3 4 5 6 
#
# 1 99.8248 25.6173 28.0060 0.0000 0.0000 0.0000
# 2 25.6173 129.7300 48.4027 0.0000 0.0000 0.0000
# 3 28.0060 48.4027 341.0105 0.0000 0.0000 0.0000
# 4 0.0000 0.0000 0.0000 45.3406 0.0000 0.0000
# 5 0.0000 0.0000 0.0000 0.0000 -39.3745 0.0000
# 6 0.0000 0.0000 0.0000 0.0000 0.0000 20.7727
#
#
#
# Elastic Compliance Matrix: (Units=1/GPa)
#
#
# Indices 1 2 3 4 5 6 
#
# 1 0.010671 -0.001880 -0.000610 0.000000 0.000000 0.000000
# 2 -0.001880 0.008470 -0.001048 0.000000 0.000000 0.000000
# 3 -0.000610 -0.001048 0.003131 0.000000 0.000000 0.000000
# 4 0.000000 0.000000 0.000000 0.022055 0.000000 0.000000
# 5 0.000000 0.000000 0.000000 0.000000 -0.025397 0.000000
# 6 0.000000 0.000000 0.000000 0.000000 0.000000 0.048140
#
#
# Mechanical properties :
#
#
# Convention : Reuss Voigt Hill
#
# Bulk Modulus (GPa) = 65.79690 86.06860 75.93275
# Shear Modulus (GPa) = 63.12226 36.58373 49.85300
#
# Velocity S-wave (km/s) = 4.88379 3.71800 4.34021
# Velocity P-wave (km/s) = 7.52754 7.13815 7.33543
#
# Compressibility (1/GPa) = 0.01519828
#
# Stress axis : x y z
#
# Youngs Moduli (GPa) = 93.71239 118.05708 319.36002
#
# Poissons Ratio (x) = 0.22191 0.19467
# Poissons Ratio (y) = 0.17615 0.33466
# Poissons Ratio (z) = 0.05712 0.12371
#
# Static dielectric constant tensor:
#      x y z
#    x 2.412950 0.000000 0.000000 
#    y 0.000000 2.012260 0.000000 
#    z 0.000000 0.000000 2.347250 
# 
# From -- ./inp_files/1391.got.cif
#   From: 2010.05.17/outbox.cif.g08.bks.cpg/sg68_1_cif.got.tgz:1391.got - 2010.06.03 18:57:09.
