data_PCOD9505201
_publ_section_title
;
Structure prediction by ZEFSAII (Michael W. Deem and Ramdas Pophale) SiO2 
 PCOD9505201
Probable space group: C M M A
;
_chemical_formula_sum "Si O2"
_cell_formula_units_Z 40
_cell_length_a 18.000000
_cell_length_b 9.000000
_cell_length_c 27.000000
_cell_angle_alpha 90.000000
_cell_angle_beta 90.000000
_cell_angle_gamma 90.000000
_cell_volume 4374.000000
_symmetry_space_group_name_H-M "C M M A"
_symmetry_group_IT_number 67
_symmetry_cell_setting 'orthorhombic'
loop_
_space_group_symop_operation_xyz
x,y,z
-x,1/2-y,z
x,-y,-z
-x,1/2+y,-z
-x,-y,-z
x,1/2+y,-z
-x,y,z
x,1/2-y,z
1/2+x,1/2+y,z
1/2-x,-y,z
1/2+x,1/2-y,-z
1/2-x,y,-z
1/2-x,1/2-y,-z
1/2+x,y,-z
1/2-x,1/2+y,z
1/2+x,-y,z
loop_
_atom_site_type_symbol
_atom_site_label
_atom_site_fract_x
_atom_site_fract_y
_atom_site_fract_z
Si Si1 0.410303 0.423144 0.858926
Si Si2 0.587000 0.428122 0.550279
Si Si3 0.085294 0.430843 0.250529
Si Si4 0.830288 0.929894 0.650642
Si Si5 0.168440 0.427490 0.949607
O O1 0.500000 0.426522 0.858647
O O2 0.388127 0.250000 0.866648
O O3 0.385532 0.473190 0.803883
O O4 0.378613 0.523765 0.902241
O O5 0.617671 0.500000 0.500000
O O6 0.500000 0.467687 0.553823
O O7 0.592398 0.250000 0.546146
O O8 0.625940 0.474200 0.601051
O O9 0.084347 0.250000 0.250201
O O10 0.130216 0.478736 0.298547
O O11 0.000000 0.480209 0.255199
O O12 0.827076 0.750000 0.651253
O O13 0.750000 0.000000 0.648647
O O14 0.173565 0.250000 0.954399
O O15 0.250000 0.500000 0.943848
O O16 0.136668 0.500000 0.000000
#
# Coordination Sequence:
#
# PCOD9505201 Si02
#       5
#    16  16  16  16  16
#     4   9  18  34  56  81 107 135 170 212 258 307
#     4   9  18  33  53  74  96 127 168 210 250 296
#     4   8  15  31  55  77  98 130 171 210 247 294
#     4  10  20  33  50  74 103 133 167 206 250 299
#     4  11  22  37  56  77 105 139 176 215 257 307
#
# _framework density 9.1449470000000002
#
# number of rings (size 3 to 8) (size 9 to 14) (size 15 to 20)
#    0.000    2.600    0.000    4.200    0.000    5.200 
#    0.000    5.000    0.000    3.000    0.000    0.000 
#    0.000    0.000    0.000    0.000    0.000    0.000 
#
# Total GULP energy -223034.461725 kJ/mol
# GULP energy per Si atom -5575.861543 kJ/mol
# Density = 0.912413 g / cm^3
# Si number density = 9.144947 Si / 1000 Ang^3
#
#
#
# Elastic Constant Matrix: (Units=GPa)
#
#
# Indices 1 2 3 4 5 6 
#
# 1 51.4166 25.2098 72.9665 0.0000 0.0000 0.0000
# 2 25.2098 59.1531 57.1040 0.0000 0.0000 0.0000
# 3 72.9665 57.1040 210.3106 0.0000 0.0000 0.0000
# 4 0.0000 0.0000 0.0000 26.2844 0.0000 0.0000
# 5 0.0000 0.0000 0.0000 0.0000 75.8212 0.0000
# 6 0.0000 0.0000 0.0000 0.0000 0.0000 20.8186
#
#
#
# Elastic Compliance Matrix: (Units=1/GPa)
#
#
# Indices 1 2 3 4 5 6 
#
# 1 0.039318 -0.004862 -0.012321 0.000000 0.000000 0.000000
# 2 -0.004862 0.023512 -0.004697 0.000000 0.000000 0.000000
# 3 -0.012321 -0.004697 0.010305 0.000000 0.000000 0.000000
# 4 0.000000 0.000000 0.000000 0.038045 0.000000 0.000000
# 5 0.000000 0.000000 0.000000 0.000000 0.013189 0.000000
# 6 0.000000 0.000000 0.000000 0.000000 0.000000 0.048034
#
#
# Mechanical properties :
#
#
# Convention : Reuss Voigt Hill
#
# Bulk Modulus (GPa) = 34.04360 70.16012 52.10186
# Shear Modulus (GPa) = 22.12826 35.62482 28.87654
#
# Velocity S-wave (km/s) = 3.48208 4.41816 3.97775
# Velocity P-wave (km/s) = 5.90087 8.02933 7.04594
#
# Compressibility (1/GPa) = 0.02937410
#
# Stress axis : x y z
#
# Youngs Moduli (GPa) = 25.43360 42.53182 97.04063
#
# Poissons Ratio (x) = 0.20680 1.19564
# Poissons Ratio (y) = 0.12367 0.45580
# Poissons Ratio (z) = 0.31337 0.19977
#
# Static dielectric constant tensor:
#      x y z
#    x 1.618080 0.000000 0.000000 
#    y 0.000000 1.615050 0.000000 
#    z 0.000000 0.000000 1.648430 
# 
# From -- ./inp_files/43207.got.cif
#   From: 2010.05.17/outbox.ucp.g08.bks.cvg/sg67_22_cif.got.tgz:43207.got - 2010.06.11 16:47:20.
