data_PCOD9505841
_publ_section_title
;
Structure prediction by ZEFSAII (Michael W. Deem and Ramdas Pophale) SiO2 
 PCOD9505841
Probable space group: C C C A
;
_chemical_formula_sum "Si O2"
_cell_formula_units_Z 96
_cell_length_a 19.191696
_cell_length_b 26.927784
_cell_length_c 9.848762
_cell_angle_alpha 90.000000
_cell_angle_beta 90.000000
_cell_angle_gamma 90.000000
_cell_volume 5089.740182
_symmetry_space_group_name_H-M "C C C A"
_symmetry_group_IT_number 68
_space_group.IT_coordinate_system_code '2'
_symmetry_cell_setting 'orthorhombic'
loop_
_space_group_symop_operation_xyz
x,y,z
-x,1/2-y,z
x,1/2-y,1/2-z
-x,y,1/2-z
-x,-y,-z
x,1/2+y,-z
-x,1/2+y,1/2+z
x,-y,1/2+z
1/2+x,1/2+y,z
1/2-x,-y,z
1/2+x,-y,1/2-z
1/2-x,1/2+y,1/2-z
1/2-x,1/2-y,-z
1/2+x,y,-z
1/2-x,y,1/2+z
1/2+x,1/2-y,1/2+z
loop_
_atom_site_type_symbol
_atom_site_label
_atom_site_fract_x
_atom_site_fract_y
_atom_site_fract_z
Si Si1 0.055738 0.446162 0.364756
Si Si2 0.021545 0.803427 0.591614
Si Si3 0.778847 0.785417 0.380559
Si Si4 0.890448 0.353913 0.496177
Si Si5 0.347257 0.644389 0.319889
Si Si6 0.955854 0.559239 0.123877
O O1 0.122254 0.409632 0.362881
O O2 0.071206 0.504092 0.337019
O O3 0.000000 0.428687 0.250000
O O4 0.012521 0.445839 0.503768
O O5 0.101447 0.817854 0.599098
O O6 0.000000 0.750000 0.538223
O O7 0.000000 0.804288 0.750000
O O8 0.972288 0.841679 0.516644
O O9 0.783411 0.750000 0.250000
O O10 0.750000 0.750000 0.500000
O O11 0.850863 0.810684 0.424817
O O12 0.727854 0.832673 0.351872
O O13 0.859900 0.354255 0.343076
O O14 0.892712 0.406408 0.572492
O O15 0.000000 0.579911 0.250000
#
# Coordination Sequence:
#
# PCOD9505841 Si02
#       6
#    16  16  16  16  16  16
#     4  10  18  37  66  94 123 163 206 260 319 382
#     4   9  17  30  58  87 110 145 212 265 291 358
#     4  12  26  43  64  89 129 174 210 258 319 378
#     4  11  21  41  61  90 125 169 212 258 317 379
#     4  11  20  38  66  89 116 172 220 249 311 390
#     4  10  21  35  61  99 131 154 199 270 333 361
#
# _framework density 18.861471999999999
#
# number of rings (size 3 to 8) (size 9 to 14) (size 15 to 20)
#    0.000    1.500    5.000    1.500    2.333    1.333 
#    3.000    0.833    0.000    2.000    0.000    0.000 
#    0.000    0.000    0.000    0.000    0.000    0.000 
#
# Total GULP energy -267470.761479 kJ/mol
# GULP energy per Si atom -5572.307531 kJ/mol
# Density = 1.881854 g / cm^3
# Si number density = 18.861472 Si / 1000 Ang^3
#
#
#
# Elastic Constant Matrix: (Units=GPa)
#
#
# Indices 1 2 3 4 5 6 
#
# 1 52.0895 21.5328 17.6704 0.0000 0.0000 0.0000
# 2 21.5328 117.9413 20.9596 0.0000 0.0000 0.0000
# 3 17.6704 20.9596 90.9901 0.0000 0.0000 0.0000
# 4 0.0000 0.0000 0.0000 28.2442 0.0000 0.0000
# 5 0.0000 0.0000 0.0000 0.0000 19.9133 0.0000
# 6 0.0000 0.0000 0.0000 0.0000 0.0000 29.2378
#
#
#
# Elastic Compliance Matrix: (Units=1/GPa)
#
#
# Indices 1 2 3 4 5 6 
#
# 1 0.021757 -0.003359 -0.003452 0.000000 0.000000 0.000000
# 2 -0.003359 0.009359 -0.001504 0.000000 0.000000 0.000000
# 3 -0.003452 -0.001504 0.012007 0.000000 0.000000 0.000000
# 4 0.000000 0.000000 0.000000 0.035406 0.000000 0.000000
# 5 0.000000 0.000000 0.000000 0.000000 0.050218 0.000000
# 6 0.000000 0.000000 0.000000 0.000000 0.000000 0.034202
#
#
# Mechanical properties :
#
#
# Convention : Reuss Voigt Hill
#
# Bulk Modulus (GPa) = 37.74272 42.37183 40.05727
# Shear Modulus (GPa) = 26.53809 28.86959 27.70384
#
# Velocity S-wave (km/s) = 3.75507 3.91655 3.83666
# Velocity P-wave (km/s) = 6.23335 6.55484 6.39612
#
# Compressibility (1/GPa) = 0.02649517
#
# Stress axis : x y z
#
# Youngs Moduli (GPa) = 45.96203 106.84634 83.28577
#
# Poissons Ratio (x) = 0.35888 0.28746
# Poissons Ratio (y) = 0.15438 0.12523
# Poissons Ratio (z) = 0.15864 0.16065
#
# Static dielectric constant tensor:
#      x y z
#    x 1.528040 0.000000 0.000000 
#    y 0.000000 1.768640 0.000000 
#    z 0.000000 0.000000 1.679550 
# 
# From -- ./inp_files/7286.got.cif
#   From: 2010.05.17/outbox.cif.g08.bks.cpg/sg68_4_cif.got.tgz:7286.got - 2010.06.03 18:57:09.
