data_PCOD9505101
_publ_section_title
;
Structure prediction by ZEFSAII (Michael W. Deem and Ramdas Pophale) SiO2 
 PCOD9505101
Probable space group: C M M A
;
_chemical_formula_sum "Si O2"
_cell_formula_units_Z 128
_cell_length_a 18.488805
_cell_length_b 14.118911
_cell_length_c 23.346810
_cell_angle_alpha 90.000000
_cell_angle_beta 90.000000
_cell_angle_gamma 90.000000
_cell_volume 6094.493127
_symmetry_space_group_name_H-M "C M M A"
_symmetry_group_IT_number 67
_symmetry_cell_setting 'orthorhombic'
loop_
_space_group_symop_operation_xyz
x,y,z
-x,1/2-y,z
x,-y,-z
-x,1/2+y,-z
-x,-y,-z
x,1/2+y,-z
-x,y,z
x,1/2-y,z
1/2+x,1/2+y,z
1/2-x,-y,z
1/2+x,1/2-y,-z
1/2-x,y,-z
1/2-x,1/2-y,-z
1/2+x,y,-z
1/2-x,1/2+y,z
1/2+x,-y,z
loop_
_atom_site_type_symbol
_atom_site_label
_atom_site_fract_x
_atom_site_fract_y
_atom_site_fract_z
Si Si1 0.919656 0.133830 0.456380
Si Si2 0.130475 0.634698 0.418467
Si Si3 0.921000 0.134586 0.706439
Si Si4 0.420513 0.140891 0.939646
Si Si5 0.788163 0.365408 0.378884
Si Si6 0.220440 0.364769 0.130674
Si Si7 0.763752 0.365364 0.744428
Si Si8 0.318690 0.898441 0.969459
O O1 0.917990 0.250000 0.456152
O O2 0.902436 0.104178 0.521427
O O3 0.858369 0.100771 0.412512
O O4 0.000000 0.104289 0.439791
O O5 0.128723 0.750000 0.419074
O O6 0.089793 0.607495 0.360232
O O7 0.214421 0.607833 0.411360
O O8 0.921269 0.250000 0.708349
O O9 0.847835 0.104802 0.738863
O O10 0.000000 0.101961 0.727052
O O11 0.500000 0.095643 0.934313
O O12 0.426992 0.250000 0.922315
O O13 0.354287 0.104042 0.900193
O O14 0.392749 0.142010 0.005764
O O15 0.790390 0.250000 0.378905
O O16 0.778662 0.395094 0.312941
O O17 0.222393 0.250000 0.128369
O O18 0.227299 0.394257 0.196352
O O19 0.291522 0.398426 0.095272
O O20 0.764246 0.250000 0.743617
O O21 0.250000 0.848729 0.000000
O O22 0.321096 0.000000 0.000000
#
# Coordination Sequence:
#
# PCOD9505101 Si02
#       8
#    16  16  16  16  16  16  16  16
#     4   9  14  17  22  34  52  75 108 154 205 247
#     4   8  12  17  25  35  49  74 109 150 200 252
#     4   8  12  18  28  42  60  82 113 158 207 248
#     4   9  17  29  45  65  87 111 140 171 201 237
#     4   8  13  20  27  36  53  79 113 154 198 241
#     4   9  16  28  45  62  83 112 143 173 207 253
#     4   8  14  23  34  47  65  94 129 161 198 244
#     4   9  17  29  46  67  88 109 133 165 209 255
#
# _framework density 21.002566000000002
#
# number of rings (size 3 to 8) (size 9 to 14) (size 15 to 20)
#    0.000    3.500    0.000    2.625    0.000    4.750 
#    0.000    1.250    0.000    6.000    0.000    0.000 
#    0.000    0.000    0.000    0.000    0.000    0.000 
#
# Total GULP energy -356644.879912 kJ/mol
# GULP energy per Si atom -5572.576249 kJ/mol
# Density = 2.095476 g / cm^3
# Si number density = 21.002566 Si / 1000 Ang^3
#
#
#
# Elastic Constant Matrix: (Units=GPa)
#
#
# Indices 1 2 3 4 5 6 
#
# 1 152.9109 4.0417 71.9819 0.0000 0.0000 0.0000
# 2 4.0417 57.8563 -4.1159 0.0000 0.0000 0.0000
# 3 71.9819 -4.1159 100.6900 0.0000 0.0000 0.0000
# 4 0.0000 0.0000 0.0000 2.5380 0.0000 0.0000
# 5 0.0000 0.0000 0.0000 0.0000 17.6246 0.0000
# 6 0.0000 0.0000 0.0000 0.0000 0.0000 8.2347
#
#
#
# Elastic Compliance Matrix: (Units=1/GPa)
#
#
# Indices 1 2 3 4 5 6 
#
# 1 0.009940 -0.001203 -0.007155 0.000000 0.000000 0.000000
# 2 -0.001203 0.017480 0.001575 0.000000 0.000000 0.000000
# 3 -0.007155 0.001575 0.015111 0.000000 0.000000 0.000000
# 4 0.000000 0.000000 0.000000 0.394009 0.000000 0.000000
# 5 0.000000 0.000000 0.000000 0.000000 0.056739 0.000000
# 6 0.000000 0.000000 0.000000 0.000000 0.000000 0.121437
#
#
# Mechanical properties :
#
#
# Convention : Reuss Voigt Hill
#
# Bulk Modulus (GPa) = 34.52584 50.58584 42.55584
# Shear Modulus (GPa) = 7.83776 21.64944 14.74360
#
# Velocity S-wave (km/s) = 1.93389 3.21409 2.65238
# Velocity P-wave (km/s) = 4.63261 6.15725 5.44852
#
# Compressibility (1/GPa) = 0.02896381
#
# Stress axis : x y z
#
# Youngs Moduli (GPa) = 100.60648 57.20727 66.17770
#
# Poissons Ratio (x) = 0.06884 0.47350
# Poissons Ratio (y) = 0.12107 -0.10422
# Poissons Ratio (z) = 0.71984 -0.09009
#
# Static dielectric constant tensor:
#      x y z
#    x 1.781110 0.000000 0.000000 
#    y 0.000000 1.836590 0.000000 
#    z 0.000000 0.000000 1.741500 
# 
# From -- ./inp_files/42265.got.cif
#   From: 2010.05.17/outbox.cif.g08.bks.cpg/sg67_22_cif.got.tgz:42265.got - 2010.06.03 18:28:57.
