data_PCOD9505450
_publ_section_title
;
Structure prediction by ZEFSAII (Michael W. Deem and Ramdas Pophale) SiO2 
 PCOD9505450
Probable space group: C C C A
;
_chemical_formula_sum "Si O2"
_cell_formula_units_Z 96
_cell_length_a 24.062972
_cell_length_b 20.973496
_cell_length_c 8.736810
_cell_angle_alpha 90.000000
_cell_angle_beta 90.000000
_cell_angle_gamma 90.000000
_cell_volume 4409.333871
_symmetry_space_group_name_H-M "C C C A"
_symmetry_group_IT_number 68
_space_group.IT_coordinate_system_code '2'
_symmetry_cell_setting 'orthorhombic'
loop_
_space_group_symop_operation_xyz
x,y,z
-x,1/2-y,z
x,1/2-y,1/2-z
-x,y,1/2-z
-x,-y,-z
x,1/2+y,-z
-x,1/2+y,1/2+z
x,-y,1/2+z
1/2+x,1/2+y,z
1/2-x,-y,z
1/2+x,-y,1/2-z
1/2-x,1/2+y,1/2-z
1/2-x,1/2-y,-z
1/2+x,y,-z
1/2-x,y,1/2+z
1/2+x,1/2-y,1/2+z
loop_
_atom_site_type_symbol
_atom_site_label
_atom_site_fract_x
_atom_site_fract_y
_atom_site_fract_z
Si Si1 0.773085 0.388327 0.315245
Si Si2 0.394762 0.816053 0.821704
Si Si3 0.571663 0.507338 0.677141
Si Si4 0.295049 0.804769 0.037087
Si Si5 0.471178 0.421408 0.048139
Si Si6 0.673762 0.921820 0.883005
O O1 0.728875 0.362300 0.437053
O O2 0.733184 0.427907 0.201791
O O3 0.818628 0.414219 0.433905
O O4 0.795447 0.329797 0.210555
O O5 0.413869 0.750000 0.750000
O O6 0.354026 0.793981 0.959686
O O7 0.445049 0.856754 0.891872
O O8 0.359314 0.861783 0.701232
O O9 0.547064 0.440622 0.621292
O O10 0.560835 0.524126 0.852335
O O11 0.534437 0.562876 0.592130
O O12 0.635708 0.516998 0.644165
O O13 0.250000 0.750000 0.000000
#
# Coordination Sequence:
#
# PCOD9505450 Si02
#       6
#    16  16  16  16  16  16
#     4   9  17  28  46  73 103 138 181 220 269 330
#     4  10  19  32  52  81 114 144 180 229 282 334
#     4   9  18  36  58  80 106 138 187 233 278 337
#     4  10  17  27  46  71 103 144 187 221 260 331
#     4   9  19  35  58  83 105 141 188 237 283 331
#     4   9  18  32  52  77 109 144 179 227 277 332
#
# _framework density 21.771996999999999
#
# number of rings (size 3 to 8) (size 9 to 14) (size 15 to 20)
#    0.000    2.667    0.000    3.500    0.000    1.333 
#    0.000    6.667    0.000   36.000    0.000    0.000 
#    0.000   48.000    0.000    0.000    0.000    0.000 
#
# Total GULP energy -267215.860122 kJ/mol
# GULP energy per Si atom -5566.997086 kJ/mol
# Density = 2.172244 g / cm^3
# Si number density = 21.771997 Si / 1000 Ang^3
#
#
#
# Elastic Constant Matrix: (Units=GPa)
#
#
# Indices 1 2 3 4 5 6 
#
# 1 75.5810 26.6183 23.0913 0.0000 0.0000 0.0000
# 2 26.6183 63.3389 17.8215 0.0000 0.0000 0.0000
# 3 23.0913 17.8215 105.4874 0.0000 0.0000 0.0000
# 4 0.0000 0.0000 0.0000 20.8428 0.0000 0.0000
# 5 0.0000 0.0000 0.0000 0.0000 23.9748 0.0000
# 6 0.0000 0.0000 0.0000 0.0000 0.0000 28.6531
#
#
#
# Elastic Compliance Matrix: (Units=1/GPa)
#
#
# Indices 1 2 3 4 5 6 
#
# 1 0.016136 -0.006076 -0.002506 0.000000 0.000000 0.000000
# 2 -0.006076 0.018864 -0.001857 0.000000 0.000000 0.000000
# 3 -0.002506 -0.001857 0.010342 0.000000 0.000000 0.000000
# 4 0.000000 0.000000 0.000000 0.047978 0.000000 0.000000
# 5 0.000000 0.000000 0.000000 0.000000 0.041711 0.000000
# 6 0.000000 0.000000 0.000000 0.000000 0.000000 0.034900
#
#
# Mechanical properties :
#
#
# Convention : Reuss Voigt Hill
#
# Bulk Modulus (GPa) = 40.87519 42.16327 41.51923
# Shear Modulus (GPa) = 25.13017 26.48588 25.80802
#
# Velocity S-wave (km/s) = 3.40110 3.49164 3.44667
# Velocity P-wave (km/s) = 5.85135 5.97187 5.91192
#
# Compressibility (1/GPa) = 0.02446472
#
# Stress axis : x y z
#
# Youngs Moduli (GPa) = 61.97187 53.01065 96.69295
#
# Poissons Ratio (x) = 0.32211 0.24229
# Poissons Ratio (y) = 0.37656 0.17955
# Poissons Ratio (z) = 0.15528 0.09843
#
# Static dielectric constant tensor:
#      x y z
#    x 1.933210 0.000000 0.000000 
#    y 0.000000 1.821140 0.000000 
#    z 0.000000 0.000000 1.886110 
# 
# From -- ./inp_files/8108.got.cif
#   From: 2010.05.17/outbox.cif.g08.bks.cpg/sg68_5_cif.got.tgz:8108.got - 2010.06.03 18:57:09.
