data_PCOD9505554
_publ_section_title
;
Structure prediction by ZEFSAII (Michael W. Deem and Ramdas Pophale) SiO2 
 PCOD9505554
Probable space group: C C C A
;
_chemical_formula_sum "Si O2"
_cell_formula_units_Z 88
_cell_length_a 25.555773
_cell_length_b 10.282867
_cell_length_c 15.483629
_cell_angle_alpha 90.000000
_cell_angle_beta 90.000000
_cell_angle_gamma 90.000000
_cell_volume 4068.890450
_symmetry_space_group_name_H-M "C C C A"
_symmetry_group_IT_number 68
_space_group.IT_coordinate_system_code '2'
_symmetry_cell_setting 'orthorhombic'
loop_
_space_group_symop_operation_xyz
x,y,z
-x,1/2-y,z
x,1/2-y,1/2-z
-x,y,1/2-z
-x,-y,-z
x,1/2+y,-z
-x,1/2+y,1/2+z
x,-y,1/2+z
1/2+x,1/2+y,z
1/2-x,-y,z
1/2+x,-y,1/2-z
1/2-x,1/2+y,1/2-z
1/2-x,1/2-y,-z
1/2+x,y,-z
1/2-x,y,1/2+z
1/2+x,1/2-y,1/2+z
loop_
_atom_site_type_symbol
_atom_site_label
_atom_site_fract_x
_atom_site_fract_y
_atom_site_fract_z
Si Si1 0.615720 0.524435 0.204733
Si Si2 0.000000 0.476945 0.250000
Si Si3 0.605894 0.250000 0.250000
Si Si4 0.200866 0.204877 0.444025
Si Si5 0.960436 0.847026 0.097289
Si Si6 0.305109 0.750000 0.250000
Si Si7 0.634038 0.958516 0.490742
O O1 0.558509 0.577590 0.233824
O O2 0.632160 0.389560 0.250522
O O3 0.658307 0.628971 0.228303
O O4 0.617652 0.494020 0.103690
O O5 0.009129 0.558104 0.162327
O O6 0.570515 0.244048 0.164879
O O7 0.250000 0.250000 0.500000
O O8 0.219157 0.215022 0.343465
O O9 0.159380 0.317424 0.470176
O O10 0.173698 0.065123 0.466813
O O11 0.000000 0.750000 0.047745
O O12 0.918356 0.929488 0.044657
#
# Coordination Sequence:
#
# PCOD9505554 Si02
#       7
#    16   8   8  16  16   8  16
#     4  10  21  39  60  93 132 174 221 269 327 400
#     4  10  19  35  60  84 134 182 228 254 306 396
#     4  10  17  36  61  83 118 180 229 251 298 386
#     4  11  24  49  72  96 131 170 227 293 359 416
#     4  11  18  35  59  94 134 175 226 266 312 394
#     4  10  24  45  65  95 134 166 210 293 356 412
#     4  11  25  41  66 101 134 172 224 286 342 405
#
# _framework density 21.627517999999998
#
# number of rings (size 3 to 8) (size 9 to 14) (size 15 to 20)
#    0.000    1.455    3.636    3.818    0.000    1.091 
#    6.545   12.727    0.000    0.000    0.000    0.000 
#    0.000    0.000    0.000    0.000    0.000    0.000 
#
# Total GULP energy -245041.281805 kJ/mol
# GULP energy per Si atom -5569.120041 kJ/mol
# Density = 2.157829 g / cm^3
# Si number density = 21.627518 Si / 1000 Ang^3
#
#
#
# Elastic Constant Matrix: (Units=GPa)
#
#
# Indices 1 2 3 4 5 6 
#
# 1 48.5663 3.8580 44.4245 0.0000 0.0000 0.0000
# 2 3.8580 74.0876 20.0556 0.0000 0.0000 0.0000
# 3 44.4245 20.0556 136.7074 0.0000 0.0000 0.0000
# 4 0.0000 0.0000 0.0000 10.6096 0.0000 0.0000
# 5 0.0000 0.0000 0.0000 0.0000 22.8663 0.0000
# 6 0.0000 0.0000 0.0000 0.0000 0.0000 21.1310
#
#
#
# Elastic Compliance Matrix: (Units=1/GPa)
#
#
# Indices 1 2 3 4 5 6 
#
# 1 0.029385 0.001098 -0.009710 0.000000 0.000000 0.000000
# 2 0.001098 0.014097 -0.002425 0.000000 0.000000 0.000000
# 3 -0.009710 -0.002425 0.010826 0.000000 0.000000 0.000000
# 4 0.000000 0.000000 0.000000 0.094254 0.000000 0.000000
# 5 0.000000 0.000000 0.000000 0.000000 0.043733 0.000000
# 6 0.000000 0.000000 0.000000 0.000000 0.000000 0.047324
#
#
# Mechanical properties :
#
#
# Convention : Reuss Voigt Hill
#
# Bulk Modulus (GPa) = 31.02266 44.00417 37.51341
# Shear Modulus (GPa) = 18.35288 23.65627 21.00458
#
# Velocity S-wave (km/s) = 2.91622 3.31086 3.11978
# Velocity P-wave (km/s) = 5.07093 5.91661 5.51002
#
# Compressibility (1/GPa) = 0.03223451
#
# Stress axis : x y z
#
# Youngs Moduli (GPa) = 34.03068 70.93818 92.36954
#
# Poissons Ratio (x) = -0.07792 0.89693
# Poissons Ratio (y) = -0.03738 0.22400
# Poissons Ratio (z) = 0.33044 0.17202
#
# Static dielectric constant tensor:
#      x y z
#    x 1.842120 0.000000 0.000000 
#    y 0.000000 1.774880 0.000000 
#    z 0.000000 0.000000 1.801320 
# 
# From -- ./inp_files/25309.got.cif
#   From: 2010.05.17/outbox.cif.g08.bks.cpg/sg68_13_cif.got.tgz:25309.got - 2010.06.03 18:57:09.
