data_PCOD9505926
_publ_section_title
;
Structure prediction by ZEFSAII (Michael W. Deem and Ramdas Pophale) SiO2 
 PCOD9505926
Probable space group: C C C A
;
_chemical_formula_sum "Si O2"
_cell_formula_units_Z 72
_cell_length_a 5.180063
_cell_length_b 23.740518
_cell_length_c 31.572578
_cell_angle_alpha 90.000000
_cell_angle_beta 90.000000
_cell_angle_gamma 90.000000
_cell_volume 3882.712887
_symmetry_space_group_name_H-M "C C C A"
_symmetry_group_IT_number 68
_space_group.IT_coordinate_system_code '2'
_symmetry_cell_setting 'orthorhombic'
loop_
_space_group_symop_operation_xyz
x,y,z
-x,1/2-y,z
x,1/2-y,1/2-z
-x,y,1/2-z
-x,-y,-z
x,1/2+y,-z
-x,1/2+y,1/2+z
x,-y,1/2+z
1/2+x,1/2+y,z
1/2-x,-y,z
1/2+x,-y,1/2-z
1/2-x,1/2+y,1/2-z
1/2-x,1/2-y,-z
1/2+x,y,-z
1/2-x,y,1/2+z
1/2+x,1/2-y,1/2+z
loop_
_atom_site_type_symbol
_atom_site_label
_atom_site_fract_x
_atom_site_fract_y
_atom_site_fract_z
Si Si1 0.000000 0.250000 0.029624
Si Si2 0.037361 0.353517 0.405598
Si Si3 0.536661 0.314359 0.364426
Si Si4 0.742672 0.813497 0.730619
Si Si5 0.239673 0.067674 0.024971
O O1 0.034984 0.196612 0.060102
O O2 0.250000 0.250000 0.000000
O O3 0.248585 0.339357 0.369024
O O4 0.140986 0.407232 0.430977
O O5 0.743380 0.352257 0.389515
O O6 0.500000 0.250000 0.380766
O O7 0.675169 0.308564 0.318678
O O8 0.746197 0.750000 0.750000
O O9 0.500000 0.845117 0.750000
O O10 0.000000 0.839476 0.750000
O O11 0.250000 0.000000 0.026723
O O12 0.523484 0.086035 0.009611
#
# Coordination Sequence:
#
# PCOD9505926 Si02
#       5
#     8  16  16  16  16
#     4  12  22  32  46  68 103 144 177 206 258 330
#     4  12  23  35  52  76 112 141 180 225 278 331
#     4  12  21  35  49  78 112 151 174 212 277 324
#     4  10  19  30  50  69 100 147 181 214 241 309
#     4  10  21  40  62  79 100 139 191 242 283 320
#
# _framework density 18.543735000000002
#
# number of rings (size 3 to 8) (size 9 to 14) (size 15 to 20)
#    0.000    0.889    4.444    5.333    3.111    0.000 
#    0.000    0.000    0.000    0.000    0.000    0.000 
#    0.000   17.778    0.000    0.000    0.000    0.000 
#
# Total GULP energy -200598.184851 kJ/mol
# GULP energy per Si atom -5572.171801 kJ/mol
# Density = 1.850153 g / cm^3
# Si number density = 18.543735 Si / 1000 Ang^3
#
#
#
# Elastic Constant Matrix: (Units=GPa)
#
#
# Indices 1 2 3 4 5 6 
#
# 1 158.5976 14.0531 23.5394 0.0000 0.0000 0.0000
# 2 14.0531 24.3251 11.4469 0.0000 0.0000 0.0000
# 3 23.5394 11.4469 71.2506 0.0000 0.0000 0.0000
# 4 0.0000 0.0000 0.0000 16.2331 0.0000 0.0000
# 5 0.0000 0.0000 0.0000 0.0000 40.4038 0.0000
# 6 0.0000 0.0000 0.0000 0.0000 0.0000 15.3104
#
#
#
# Elastic Compliance Matrix: (Units=1/GPa)
#
#
# Indices 1 2 3 4 5 6 
#
# 1 0.006843 -0.003126 -0.001759 0.000000 0.000000 0.000000
# 2 -0.003126 0.045900 -0.006341 0.000000 0.000000 0.000000
# 3 -0.001759 -0.006341 0.015635 0.000000 0.000000 0.000000
# 4 0.000000 0.000000 0.000000 0.061602 0.000000 0.000000
# 5 0.000000 0.000000 0.000000 0.000000 0.024750 0.000000
# 6 0.000000 0.000000 0.000000 0.000000 0.000000 0.065315
#
#
# Mechanical properties :
#
#
# Convention : Reuss Voigt Hill
#
# Bulk Modulus (GPa) = 21.77419 39.13912 30.45666
# Shear Modulus (GPa) = 19.39443 28.06506 23.72975
#
# Velocity S-wave (km/s) = 3.23751 3.89453 3.58112
# Velocity P-wave (km/s) = 5.07374 6.43237 5.79302
#
# Compressibility (1/GPa) = 0.04592593
#
# Stress axis : x y z
#
# Youngs Moduli (GPa) = 146.12897 21.78659 63.95997
#
# Poissons Ratio (x) = 0.06810 0.11248
# Poissons Ratio (y) = 0.45679 0.40560
# Poissons Ratio (z) = 0.25699 0.13816
#
# Static dielectric constant tensor:
#      x y z
#    x 1.698150 0.000000 0.000000 
#    y 0.000000 1.610080 0.000000 
#    z 0.000000 0.000000 1.742030 
# 
# From -- ./inp_files/48305.got.cif
#   From: 2010.05.17/outbox.cif.g08.bks.cpg/sg68_25_cif.got.tgz:48305.got - 2010.06.03 18:57:09.
