data_PCOD9505051
_publ_section_title
;
Structure prediction by ZEFSAII (Michael W. Deem and Ramdas Pophale) SiO2 
 PCOD9505051
Probable space group: C M M A
;
_chemical_formula_sum "Si O2"
_cell_formula_units_Z 56
_cell_length_a 15.045327
_cell_length_b 14.024601
_cell_length_c 12.424191
_cell_angle_alpha 90.000000
_cell_angle_beta 90.000000
_cell_angle_gamma 90.000000
_cell_volume 2621.562795
_symmetry_space_group_name_H-M "C M M A"
_symmetry_group_IT_number 67
_symmetry_cell_setting 'orthorhombic'
loop_
_space_group_symop_operation_xyz
x,y,z
-x,1/2-y,z
x,-y,-z
-x,1/2+y,-z
-x,-y,-z
x,1/2+y,-z
-x,y,z
x,1/2-y,z
1/2+x,1/2+y,z
1/2-x,-y,z
1/2+x,1/2-y,-z
1/2-x,y,-z
1/2-x,1/2-y,-z
1/2+x,y,-z
1/2-x,1/2+y,z
1/2+x,-y,z
loop_
_atom_site_type_symbol
_atom_site_label
_atom_site_fract_x
_atom_site_fract_y
_atom_site_fract_z
Si Si1 0.500000 0.750000 0.945635
Si Si2 0.000000 0.037719 0.623878
Si Si3 0.163901 0.066942 0.261950
Si Si4 0.322681 0.250000 0.591064
Si Si5 0.851160 0.111113 0.024088
Si Si6 0.000000 0.750000 0.450581
O O1 0.421964 0.668320 0.955973
O O2 0.000000 0.152815 0.618775
O O3 0.000000 0.000000 0.500000
O O4 0.913491 0.996222 0.684060
O O5 0.186961 0.153981 0.340389
O O6 0.131947 0.116658 0.151748
O O7 0.250000 0.000000 0.240882
O O8 0.250000 0.250000 0.500000
O O9 0.416266 0.250000 0.529834
O O10 0.750000 0.140595 0.000000
O O11 0.858341 0.000000 0.000000
#
# Coordination Sequence:
#
# PCOD9505051 Si02
#       6
#     4   8  16   8  16   4
#     4  12  24  39  81 102 132 194 244 297 375 416
#     4  12  25  44  73 103 145 185 243 305 366 444
#     4  12  25  45  73 101 142 197 239 295 374 438
#     4  12  25  40  70 102 137 184 241 290 362 442
#     4  11  24  50  71 105 150 192 247 309 363 439
#     4  12  24  47  63 104 146 174 230 311 357 428
#
# _framework density 21.361305000000002
#
# number of rings (size 3 to 8) (size 9 to 14) (size 15 to 20)
#    0.000    0.286    5.714    4.286    0.000    1.143 
#    0.000    2.857    0.000    0.000    0.000    0.000 
#    0.000    0.000    0.000    0.000    0.000    0.000 
#
# Total GULP energy -156235.231124 kJ/mol
# GULP energy per Si atom -5579.829683 kJ/mol
# Density = 2.131269 g / cm^3
# Si number density = 21.361305 Si / 1000 Ang^3
#
#
#
# Elastic Constant Matrix: (Units=GPa)
#
#
# Indices 1 2 3 4 5 6 
#
# 1 93.3272 3.1667 -27.7242 0.0000 0.0000 0.0000
# 2 3.1667 136.3158 -12.9622 0.0000 0.0000 0.0000
# 3 -27.7242 -12.9622 58.7777 0.0000 0.0000 0.0000
# 4 0.0000 0.0000 0.0000 -75.6186 0.0000 0.0000
# 5 0.0000 0.0000 0.0000 0.0000 14.7354 0.0000
# 6 0.0000 0.0000 0.0000 0.0000 0.0000 27.4373
#
#
#
# Elastic Compliance Matrix: (Units=1/GPa)
#
#
# Indices 1 2 3 4 5 6 
#
# 1 0.012471 0.000275 0.005943 0.000000 0.000000 0.000000
# 2 0.000275 0.007499 0.001784 0.000000 0.000000 0.000000
# 3 0.005943 0.001784 0.020210 0.000000 0.000000 0.000000
# 4 0.000000 0.000000 0.000000 -0.013224 0.000000 0.000000
# 5 0.000000 0.000000 0.000000 0.000000 0.067864 0.000000
# 6 0.000000 0.000000 0.000000 0.000000 0.000000 0.036447
#
#
# Mechanical properties :
#
#
# Convention : Reuss Voigt Hill
#
# Bulk Modulus (GPa) = 17.79849 23.70902 20.75376
# Shear Modulus (GPa) = 37.31621 15.04018 26.17820
#
# Velocity S-wave (km/s) = 4.18414 2.65634 3.50451
# Velocity P-wave (km/s) = 5.62964 4.53115 5.11000
#
# Compressibility (1/GPa) = 0.05618454
#
# Stress axis : x y z
#
# Youngs Moduli (GPa) = 80.18520 133.34898 49.48081
#
# Poissons Ratio (x) = -0.03673 -0.29407
# Poissons Ratio (y) = -0.02208 -0.08826
# Poissons Ratio (z) = -0.47655 -0.23785
#
# Static dielectric constant tensor:
#      x y z
#    x 1.710590 0.000000 0.000000 
#    y 0.000000 1.722850 0.000000 
#    z 0.000000 0.000000 1.967350 
# 
# From -- ./inp_files/17294.got.cif
#   From: 2010.05.17/outbox.cif.g08.bks.cpg/sg67_9_cif.got.tgz:17294.got - 2010.06.03 18:28:57.
