data_PCOD9505273
_publ_section_title
;
Structure prediction by ZEFSAII (Michael W. Deem and Ramdas Pophale) SiO2 
 PCOD9505273
Probable space group: C M M A
;
_chemical_formula_sum "Si O2"
_cell_formula_units_Z 42
_cell_length_a 24.000000
_cell_length_b 15.000000
_cell_length_c 12.000000
_cell_angle_alpha 90.000000
_cell_angle_beta 90.000000
_cell_angle_gamma 90.000000
_cell_volume 4320.000000
_symmetry_space_group_name_H-M "C M M A"
_symmetry_group_IT_number 67
_symmetry_cell_setting 'orthorhombic'
loop_
_space_group_symop_operation_xyz
x,y,z
-x,1/2-y,z
x,-y,-z
-x,1/2+y,-z
-x,-y,-z
x,1/2+y,-z
-x,y,z
x,1/2-y,z
1/2+x,1/2+y,z
1/2-x,-y,z
1/2+x,1/2-y,-z
1/2-x,y,-z
1/2-x,1/2-y,-z
1/2+x,y,-z
1/2-x,1/2+y,z
1/2+x,-y,z
loop_
_atom_site_type_symbol
_atom_site_label
_atom_site_fract_x
_atom_site_fract_y
_atom_site_fract_z
Si Si1 0.500000 0.895911 0.469117
Si Si2 0.899406 0.097189 0.295981
Si Si3 0.629414 0.457466 0.119673
Si Si4 0.750000 0.500000 0.798270
Si Si5 0.000000 0.750000 0.328514
Si Si6 0.222502 0.643297 0.620794
Si Si7 0.565245 0.750000 0.132466
Si Si8 0.093383 0.750000 0.128878
O O1 0.552999 0.883592 0.387091
O O2 0.500000 0.833354 0.581123
O O3 0.500000 0.000000 0.500000
O O4 0.841560 0.112735 0.362032
O O5 0.906016 0.166365 0.193511
O O6 0.900146 0.002824 0.228946
O O7 0.693260 0.491802 0.132332
O O8 0.623461 0.349014 0.128402
O O9 0.609001 0.500000 0.000000
O O10 0.748221 0.586114 0.717223
O O11 0.948033 0.750000 0.238299
O O12 0.226130 0.750000 0.637492
O O13 0.250000 0.623522 0.500000
O O14 0.500000 0.750000 0.162123
O O15 0.568698 0.750000 0.998112
#
# Coordination Sequence:
#
# PCOD9505273 Si02
#       8
#     8  16  16   8   4  16   8   8
#     4  12  26  45  68  98 139 184 226 284 347 416
#     4  11  23  43  69 101 137 184 231 284 345 415
#     4  11  24  44  68 102 139 178 232 290 353 421
#     4  10  24  42  62  94 140 176 232 280 352 414
#     4  12  28  46  64 108 148 176 238 284 344 424
#     4  10  22  39  65  97 132 179 235 281 337 405
#     4  12  21  42  72 100 138 177 238 284 349 415
#     4  12  26  45  70 103 141 184 226 298 353 418
#
# _framework density 9.7222220000000004
#
# number of rings (size 3 to 8) (size 9 to 14) (size 15 to 20)
#    0.000    0.952    4.286    2.286    1.333    4.571 
#    0.000    2.857    0.000    0.000    0.000    0.000 
#    0.000    0.000    0.000    0.000    0.000    0.000 
#
# Total GULP energy -234207.030082 kJ/mol
# GULP energy per Si atom -5576.357859 kJ/mol
# Density = 0.970009 g / cm^3
# Si number density = 9.722222 Si / 1000 Ang^3
#
#
#
# Elastic Constant Matrix: (Units=GPa)
#
#
# Indices 1 2 3 4 5 6 
#
# 1 72.7576 6.7136 48.7983 0.0000 0.0000 0.0000
# 2 6.7136 140.1976 47.3566 0.0000 0.0000 0.0000
# 3 48.7983 47.3566 158.8410 0.0000 0.0000 0.0000
# 4 0.0000 0.0000 0.0000 42.4852 0.0000 0.0000
# 5 0.0000 0.0000 0.0000 0.0000 40.3979 0.0000
# 6 0.0000 0.0000 0.0000 0.0000 0.0000 22.9667
#
#
#
# Elastic Compliance Matrix: (Units=1/GPa)
#
#
# Indices 1 2 3 4 5 6 
#
# 1 0.017458 0.001085 -0.005687 0.000000 0.000000 0.000000
# 2 0.001085 0.007999 -0.002718 0.000000 0.000000 0.000000
# 3 -0.005687 -0.002718 0.008853 0.000000 0.000000 0.000000
# 4 0.000000 0.000000 0.000000 0.023538 0.000000 0.000000
# 5 0.000000 0.000000 0.000000 0.000000 0.024754 0.000000
# 6 0.000000 0.000000 0.000000 0.000000 0.000000 0.043541
#
#
# Mechanical properties :
#
#
# Convention : Reuss Voigt Hill
#
# Bulk Modulus (GPa) = 50.83827 64.17034 57.50431
# Shear Modulus (GPa) = 33.93510 39.09847 36.51679
#
# Velocity S-wave (km/s) = 4.18213 4.48904 4.33830
# Velocity P-wave (km/s) = 7.03722 7.74223 7.39813
#
# Compressibility (1/GPa) = 0.01967022
#
# Stress axis : x y z
#
# Youngs Moduli (GPa) = 57.27911 125.01613 112.95498
#
# Poissons Ratio (x) = -0.13563 0.64237
# Poissons Ratio (y) = -0.06214 0.30702
# Poissons Ratio (z) = 0.32574 0.33981
#
# Static dielectric constant tensor:
#      x y z
#    x 1.720960 0.000000 0.000000 
#    y 0.000000 1.713310 0.000000 
#    z 0.000000 0.000000 1.663720 
# 
# From -- ./inp_files/21833.got.cif
#   From: 2010.05.17/outbox.ucp.g08.bks.cvg/sg67_11_cif.got.tgz:21833.got - 2010.06.11 16:47:20.
