data_PCOD9505418
_publ_section_title
;
Structure prediction by ZEFSAII (Michael W. Deem and Ramdas Pophale) SiO2 
 PCOD9505418
Probable space group: C C C A
;
_chemical_formula_sum "Si O2"
_cell_formula_units_Z 72
_cell_length_a 9.279775
_cell_length_b 14.299154
_cell_length_c 24.815501
_cell_angle_alpha 90.000000
_cell_angle_beta 90.000000
_cell_angle_gamma 90.000000
_cell_volume 3292.841582
_symmetry_space_group_name_H-M "C C C A"
_symmetry_group_IT_number 68
_space_group.IT_coordinate_system_code '2'
_symmetry_cell_setting 'orthorhombic'
loop_
_space_group_symop_operation_xyz
x,y,z
-x,1/2-y,z
x,1/2-y,1/2-z
-x,y,1/2-z
-x,-y,-z
x,1/2+y,-z
-x,1/2+y,1/2+z
x,-y,1/2+z
1/2+x,1/2+y,z
1/2-x,-y,z
1/2+x,-y,1/2-z
1/2-x,1/2+y,1/2-z
1/2-x,1/2-y,-z
1/2+x,y,-z
1/2-x,y,1/2+z
1/2+x,1/2-y,1/2+z
loop_
_atom_site_type_symbol
_atom_site_label
_atom_site_fract_x
_atom_site_fract_y
_atom_site_fract_z
Si Si1 0.632131 0.682074 0.028522
Si Si2 0.712265 0.597611 0.631534
Si Si3 0.073906 0.854533 0.415449
Si Si4 0.000000 0.250000 0.750000
Si Si5 0.248678 0.700943 0.178437
Si Si6 0.000000 0.250000 0.250000
O O1 0.500000 0.750000 0.045319
O O2 0.698228 0.623558 0.077226
O O3 0.750000 0.750000 0.000000
O O4 0.589396 0.618596 0.977434
O O5 0.750000 0.500000 0.657517
O O6 0.546797 0.586977 0.614028
O O7 0.739526 0.687516 0.667816
O O8 0.217699 0.846984 0.379234
O O9 0.000000 0.750000 0.415784
O O10 0.894355 0.313583 0.785933
O O11 0.394975 0.688817 0.211439
#
# Coordination Sequence:
#
# PCOD9505418 Si02
#       6
#    16  16  16   4  16   4
#     4  11  19  35  61  85 115 162 203 233 280 361
#     4  11  22  36  58  92 125 154 195 250 304 354
#     4   9  17  35  57  81 116 159 197 228 301 355
#     4  10  16  34  66  80  96 158 206 242 280 368
#     4  10  19  37  60  89 112 150 201 253 294 356
#     4  10  24  34  66  96 108 138 234 258 276 348
#
# _framework density 21.865613
#
# number of rings (size 3 to 8) (size 9 to 14) (size 15 to 20)
#    0.000    1.778   10.000    0.000    1.556    0.889 
#    0.000    1.111    0.000    0.000    0.000    0.000 
#    0.000    0.000    0.000    0.000    0.000    0.000 
#
# Total GULP energy -200711.265751 kJ/mol
# GULP energy per Si atom -5575.312938 kJ/mol
# Density = 2.181585 g / cm^3
# Si number density = 21.865613 Si / 1000 Ang^3
#
#
#
# Elastic Constant Matrix: (Units=GPa)
#
#
# Indices 1 2 3 4 5 6 
#
# 1 114.0876 4.1677 30.0772 0.0000 0.0000 0.0000
# 2 4.1677 38.3037 -2.0932 0.0000 0.0000 0.0000
# 3 30.0772 -2.0932 98.7860 0.0000 0.0000 0.0000
# 4 0.0000 0.0000 0.0000 3.7356 0.0000 0.0000
# 5 0.0000 0.0000 0.0000 0.0000 44.1741 0.0000
# 6 0.0000 0.0000 0.0000 0.0000 0.0000 12.2026
#
#
#
# Elastic Compliance Matrix: (Units=1/GPa)
#
#
# Indices 1 2 3 4 5 6 
#
# 1 0.009585 -0.001204 -0.002944 0.000000 0.000000 0.000000
# 2 -0.001204 0.026289 0.000924 0.000000 0.000000 0.000000
# 3 -0.002944 0.000924 0.011039 0.000000 0.000000 0.000000
# 4 0.000000 0.000000 0.000000 0.267695 0.000000 0.000000
# 5 0.000000 0.000000 0.000000 0.000000 0.022638 0.000000
# 6 0.000000 0.000000 0.000000 0.000000 0.000000 0.081950
#
#
# Mechanical properties :
#
#
# Convention : Reuss Voigt Hill
#
# Bulk Modulus (GPa) = 24.71312 35.05340 29.88326
# Shear Modulus (GPa) = 11.38611 26.62418 19.00515
#
# Velocity S-wave (km/s) = 2.28443 3.49324 2.95138
# Velocity P-wave (km/s) = 4.27609 5.68651 5.03097
#
# Compressibility (1/GPa) = 0.04046434
#
# Stress axis : x y z
#
# Youngs Moduli (GPa) = 104.32656 38.03927 90.58967
#
# Poissons Ratio (x) = 0.04579 0.26669
# Poissons Ratio (y) = 0.12559 -0.08367
# Poissons Ratio (z) = 0.30713 -0.03513
#
# Static dielectric constant tensor:
#      x y z
#    x 1.901880 0.000000 0.000000 
#    y 0.000000 1.795340 0.000000 
#    z 0.000000 0.000000 1.901980 
# 
# From -- ./inp_files/44330.got.cif
#   From: 2010.05.17/outbox.cif.g08.bks.cpg/sg68_23_cif.got.tgz:44330.got - 2010.06.03 18:57:09.
