data_PCOD9505257
_publ_section_title
;
Structure prediction by ZEFSAII (Michael W. Deem and Ramdas Pophale) SiO2 
 PCOD9505257
Probable space group: C M M A
;
_chemical_formula_sum "Si O2"
_cell_formula_units_Z 48
_cell_length_a 24.000000
_cell_length_b 9.000000
_cell_length_c 24.000000
_cell_angle_alpha 90.000000
_cell_angle_beta 90.000000
_cell_angle_gamma 90.000000
_cell_volume 5184.000000
_symmetry_space_group_name_H-M "C M M A"
_symmetry_group_IT_number 67
_symmetry_cell_setting 'orthorhombic'
loop_
_space_group_symop_operation_xyz
x,y,z
-x,1/2-y,z
x,-y,-z
-x,1/2+y,-z
-x,-y,-z
x,1/2+y,-z
-x,y,z
x,1/2-y,z
1/2+x,1/2+y,z
1/2-x,-y,z
1/2+x,1/2-y,-z
1/2-x,y,-z
1/2-x,1/2-y,-z
1/2+x,y,-z
1/2-x,1/2+y,z
1/2+x,-y,z
loop_
_atom_site_type_symbol
_atom_site_label
_atom_site_fract_x
_atom_site_fract_y
_atom_site_fract_z
Si Si1 0.500000 0.920685 0.315699
Si Si2 0.612139 0.580799 0.724800
Si Si3 0.500000 0.088140 0.419824
Si Si4 0.873704 0.918796 0.446016
Si Si5 0.435125 0.423020 0.947592
Si Si6 0.564757 0.415311 0.156005
Si Si7 0.309101 0.926094 0.349649
O O1 0.500000 0.750000 0.298246
O O2 0.444146 0.003201 0.296776
O O3 0.500000 0.943529 0.381723
O O4 0.616138 0.750000 0.702768
O O5 0.602381 0.586875 0.790173
O O6 0.665711 0.487621 0.707728
O O7 0.500000 0.250000 0.388390
O O8 0.559144 0.087611 0.449994
O O9 0.853495 0.750000 0.441141
O O10 0.850740 0.000000 0.500000
O O11 0.854200 0.013436 0.393625
O O12 0.500000 0.475958 0.944487
O O13 0.435435 0.250000 0.955868
O O14 0.412752 0.469366 0.888267
O O15 0.407717 0.500000 0.000000
O O16 0.500000 0.447898 0.172414
O O17 0.564291 0.250000 0.130504
O O18 0.305403 0.750000 0.350793
O O19 0.250000 0.000000 0.361811
#
# Coordination Sequence:
#
# PCOD9505257 Si02
#       7
#     8  16   8  16  16  16  16
#     4  12  22  31  53  84 112 144 181 219 264 325
#     4  11  21  37  57  80 111 144 179 224 276 326
#     4  10  21  37  59  84 118 150 176 211 264 319
#     4  11  23  40  62  88 116 147 179 219 266 319
#     4   9  16  25  38  59  92 136 181 223 261 307
#     4   9  17  29  46  70 101 140 179 217 263 317
#     4  12  26  44  63  84 107 140 182 225 273 327
#
# _framework density 9.2592590000000001
#
# number of rings (size 3 to 8) (size 9 to 14) (size 15 to 20)
#    0.000    1.500    2.500    4.000    0.000    4.333 
#    0.000    1.667    0.000    0.000    0.000    0.000 
#    0.000    0.667    0.000    7.000    0.000    3.333 
#
# Total GULP energy -267392.743602 kJ/mol
# GULP energy per Si atom -5570.682158 kJ/mol
# Density = 0.923818 g / cm^3
# Si number density = 9.259259 Si / 1000 Ang^3
#
#
#
# Elastic Constant Matrix: (Units=GPa)
#
#
# Indices 1 2 3 4 5 6 
#
# 1 48.2130 33.9878 7.5220 0.0000 0.0000 0.0000
# 2 33.9878 128.1927 39.4801 0.0000 0.0000 0.0000
# 3 7.5220 39.4801 61.0909 0.0000 0.0000 0.0000
# 4 0.0000 0.0000 0.0000 22.2556 0.0000 0.0000
# 5 0.0000 0.0000 0.0000 0.0000 19.5422 0.0000
# 6 0.0000 0.0000 0.0000 0.0000 0.0000 17.3953
#
#
#
# Elastic Compliance Matrix: (Units=1/GPa)
#
#
# Indices 1 2 3 4 5 6 
#
# 1 0.025625 -0.007269 0.001542 0.000000 0.000000 0.000000
# 2 -0.007269 0.011801 -0.006731 0.000000 0.000000 0.000000
# 3 0.001542 -0.006731 0.020529 0.000000 0.000000 0.000000
# 4 0.000000 0.000000 0.000000 0.044932 0.000000 0.000000
# 5 0.000000 0.000000 0.000000 0.000000 0.051171 0.000000
# 6 0.000000 0.000000 0.000000 0.000000 0.000000 0.057487
#
#
# Mechanical properties :
#
#
# Convention : Reuss Voigt Hill
#
# Bulk Modulus (GPa) = 30.26690 44.38625 37.32658
# Shear Modulus (GPa) = 20.20408 22.27243 21.23825
#
# Velocity S-wave (km/s) = 3.30664 3.47178 3.39021
# Velocity P-wave (km/s) = 5.56400 6.33179 5.96027
#
# Compressibility (1/GPa) = 0.03303939
#
# Stress axis : x y z
#
# Youngs Moduli (GPa) = 39.02452 84.73785 48.71078
#
# Poissons Ratio (x) = 0.61596 -0.07513
# Poissons Ratio (y) = 0.28367 0.32789
# Poissons Ratio (z) = -0.06019 0.57041
#
# Static dielectric constant tensor:
#      x y z
#    x 1.622340 0.000000 0.000000 
#    y 0.000000 1.669400 0.000000 
#    z 0.000000 0.000000 1.757350 
# 
# From -- ./inp_files/42591.got.cif
#   From: 2010.05.17/outbox.ucp.g08.bks.cvg/sg67_22_cif.got.tgz:42591.got - 2010.06.11 16:47:20.
