data_PCOD9505982
_publ_section_title
;
Structure prediction by ZEFSAII (Michael W. Deem and Ramdas Pophale) SiO2 
 PCOD9505982
Probable space group: C C C A
;
_chemical_formula_sum "Si O2"
_cell_formula_units_Z 120
_cell_length_a 22.697449
_cell_length_b 19.451941
_cell_length_c 14.069748
_cell_angle_alpha 90.000000
_cell_angle_beta 90.000000
_cell_angle_gamma 90.000000
_cell_volume 6211.926544
_symmetry_space_group_name_H-M "C C C A"
_symmetry_group_IT_number 68
_space_group.IT_coordinate_system_code '2'
_symmetry_cell_setting 'orthorhombic'
loop_
_space_group_symop_operation_xyz
x,y,z
-x,1/2-y,z
x,1/2-y,1/2-z
-x,y,1/2-z
-x,-y,-z
x,1/2+y,-z
-x,1/2+y,1/2+z
x,-y,1/2+z
1/2+x,1/2+y,z
1/2-x,-y,z
1/2+x,-y,1/2-z
1/2-x,1/2+y,1/2-z
1/2-x,1/2-y,-z
1/2+x,y,-z
1/2-x,y,1/2+z
1/2+x,1/2-y,1/2+z
loop_
_atom_site_type_symbol
_atom_site_label
_atom_site_fract_x
_atom_site_fract_y
_atom_site_fract_z
Si Si1 0.839671 0.135718 0.362908
Si Si2 0.319435 0.743638 0.000506
Si Si3 0.388776 0.708308 0.833807
Si Si4 0.710717 0.597394 0.705018
Si Si5 0.937064 0.330037 0.282572
Si Si6 0.407901 0.367467 0.507507
Si Si7 0.750000 0.500000 0.373010
Si Si8 0.155776 0.493539 0.962707
O O1 0.846059 0.206740 0.420177
O O2 0.771323 0.130232 0.333100
O O3 0.882350 0.135131 0.271920
O O4 0.853812 0.071943 0.432118
O O5 0.348492 0.759073 0.898577
O O6 0.341409 0.665451 0.015391
O O7 0.250000 0.750000 0.000000
O O8 0.417996 0.750000 0.750000
O O9 0.342049 0.652686 0.792715
O O10 0.429477 0.670717 0.911869
O O11 0.728321 0.560622 0.803036
O O12 0.688288 0.541236 0.628084
O O13 0.934760 0.250000 0.250000
O O14 0.935801 0.343468 0.394985
O O15 0.000000 0.358060 0.250000
O O16 0.401290 0.447531 0.486589
O O17 0.803539 0.486601 0.444804
#
# Coordination Sequence:
#
# PCOD9505982 Si02
#       8
#    16  16  16  16  16  16   8  16
#     4  12  20  37  56  84 116 157 202 239 305 357
#     4  10  19  32  51  82 118 157 194 234 281 359
#     4   9  20  32  49  78 116 153 193 229 288 359
#     4  11  21  33  49  80 119 162 193 225 285 366
#     4  11  23  42  66  90 112 150 210 271 314 354
#     4   9  21  39  54  83 117 155 188 256 307 340
#     4  12  20  30  50  72 118 164 190 220 274 356
#     4  11  22  36  52  82 125 157 195 235 292 375
#
# _framework density 19.317678000000001
#
# number of rings (size 3 to 8) (size 9 to 14) (size 15 to 20)
#    0.800    0.667    5.333    0.800    1.867    1.600 
#    0.000    0.667    0.000    0.000    0.000    7.467 
#    0.000    0.000    0.000    0.000    0.000    0.000 
#
# Total GULP energy -334226.679230 kJ/mol
# GULP energy per Si atom -5570.444654 kJ/mol
# Density = 1.927371 g / cm^3
# Si number density = 19.317678 Si / 1000 Ang^3
#
#
#
# Elastic Constant Matrix: (Units=GPa)
#
#
# Indices 1 2 3 4 5 6 
#
# 1 21.8709 -6.8127 6.1871 0.0000 0.0000 0.0000
# 2 -6.8127 56.4015 25.9103 0.0000 0.0000 0.0000
# 3 6.1871 25.9103 130.8338 0.0000 0.0000 0.0000
# 4 0.0000 0.0000 0.0000 19.0579 0.0000 0.0000
# 5 0.0000 0.0000 0.0000 0.0000 15.9123 0.0000
# 6 0.0000 0.0000 0.0000 0.0000 0.0000 2.1434
#
#
#
# Elastic Compliance Matrix: (Units=1/GPa)
#
#
# Indices 1 2 3 4 5 6 
#
# 1 0.049217 0.007716 -0.003856 0.000000 0.000000 0.000000
# 2 0.007716 0.020714 -0.004467 0.000000 0.000000 0.000000
# 3 -0.003856 -0.004467 0.008710 0.000000 0.000000 0.000000
# 4 0.000000 0.000000 0.000000 0.052472 0.000000 0.000000
# 5 0.000000 0.000000 0.000000 0.000000 0.062845 0.000000
# 6 0.000000 0.000000 0.000000 0.000000 0.000000 0.466552
#
#
# Mechanical properties :
#
#
# Convention : Reuss Voigt Hill
#
# Bulk Modulus (GPa) = 12.91515 28.85284 20.88400
# Shear Modulus (GPa) = 7.27239 19.67749 13.47494
#
# Velocity S-wave (km/s) = 1.94237 3.19505 2.64397
# Velocity P-wave (km/s) = 3.42499 5.34599 4.48944
#
# Compressibility (1/GPa) = 0.07742843
#
# Stress axis : x y z
#
# Youngs Moduli (GPa) = 20.31813 48.27609 114.80691
#
# Poissons Ratio (x) = -0.37250 0.44264
# Poissons Ratio (y) = -0.15678 0.51286
# Poissons Ratio (z) = 0.07834 0.21566
#
# Static dielectric constant tensor:
#      x y z
#    x 1.668800 0.000000 0.000000 
#    y 0.000000 1.688940 0.000000 
#    z 0.000000 0.000000 1.724820 
# 
# From -- ./inp_files/16623.got.cif
#   From: 2010.05.17/outbox.cif.g08.bks.cpg/sg68_9_cif.got.tgz:16623.got - 2010.06.03 18:57:09.
