data_PCOD9505214
_publ_section_title
;
Structure prediction by ZEFSAII (Michael W. Deem and Ramdas Pophale) SiO2 
 PCOD9505214
Probable space group: C M M A
;
_chemical_formula_sum "Si O2"
_cell_formula_units_Z 56
_cell_length_a 15.000000
_cell_length_b 15.000000
_cell_length_c 24.000000
_cell_angle_alpha 90.000000
_cell_angle_beta 90.000000
_cell_angle_gamma 90.000000
_cell_volume 5400.000000
_symmetry_space_group_name_H-M "C M M A"
_symmetry_group_IT_number 67
_symmetry_cell_setting 'orthorhombic'
loop_
_space_group_symop_operation_xyz
x,y,z
-x,1/2-y,z
x,-y,-z
-x,1/2+y,-z
-x,-y,-z
x,1/2+y,-z
-x,y,z
x,1/2-y,z
1/2+x,1/2+y,z
1/2-x,-y,z
1/2+x,1/2-y,-z
1/2-x,y,-z
1/2-x,1/2-y,-z
1/2+x,y,-z
1/2-x,1/2+y,z
1/2+x,-y,z
loop_
_atom_site_type_symbol
_atom_site_label
_atom_site_fract_x
_atom_site_fract_y
_atom_site_fract_z
Si Si1 0.650046 0.649073 0.480148
Si Si2 0.897101 0.154199 0.673117
Si Si3 0.896056 0.857186 0.842614
Si Si4 0.896437 0.644108 0.144371
Si Si5 0.765856 0.096569 0.762349
Si Si6 0.398996 0.484966 0.421554
Si Si7 0.761214 0.643273 0.938227
O O1 0.613666 0.750000 0.470677
O O2 0.750000 0.660513 0.500000
O O3 0.606037 0.587900 0.528417
O O4 0.654721 0.576210 0.430420
O O5 0.895542 0.250000 0.642660
O O6 0.818354 0.154728 0.717722
O O7 0.880527 0.072141 0.632793
O O8 0.000000 0.146029 0.695954
O O9 0.901765 0.750000 0.847734
O O10 0.826501 0.872893 0.791302
O O11 0.839979 0.891160 0.897090
O O12 0.000000 0.889154 0.837737
O O13 0.891625 0.750000 0.159929
O O14 0.841404 0.588979 0.189666
O O15 0.835284 0.633864 0.090315
O O16 0.000000 0.620893 0.138791
O O17 0.750000 0.000000 0.737396
O O18 0.500000 0.517536 0.418986
O O19 0.778510 0.750000 0.942553
O O20 0.750000 0.606402 0.000000
#
# Coordination Sequence:
#
# PCOD9505214 Si02
#       7
#    16  16  16  16  16  16  16
#     4  10  20  34  55  82 116 159 199 233 271 323
#     4  10  21  38  60  84 110 141 182 238 300 354
#     4   9  18  33  52  74 103 140 181 222 268 331
#     4   9  17  31  52  76 101 132 176 227 275 328
#     4  11  22  34  53  77 103 137 177 226 281 341
#     4  10  20  34  56  86 117 147 186 235 283 337
#     4   8  14  25  44  75 110 138 170 218 276 331
#
# _framework density 10.370369999999999
#
# number of rings (size 3 to 8) (size 9 to 14) (size 15 to 20)
#    0.000    2.429    0.000    4.714    0.000    5.714 
#    0.000    2.857    0.000    8.571    0.000    8.000 
#    0.000    0.000    0.000    0.000    0.000    0.000 
#
# Total GULP energy -311771.106622 kJ/mol
# GULP energy per Si atom -5567.341190 kJ/mol
# Density = 1.034677 g / cm^3
# Si number density = 10.370370 Si / 1000 Ang^3
#
#
#
# Elastic Constant Matrix: (Units=GPa)
#
#
# Indices 1 2 3 4 5 6 
#
# 1 154.5504 35.8168 39.5283 0.0000 0.0000 0.0000
# 2 35.8168 123.7448 30.6943 0.0000 0.0000 0.0000
# 3 39.5283 30.6943 49.0848 0.0000 0.0000 0.0000
# 4 0.0000 0.0000 0.0000 -0.6953 0.0000 0.0000
# 5 0.0000 0.0000 0.0000 0.0000 10.0495 0.0000
# 6 0.0000 0.0000 0.0000 0.0000 0.0000 21.9601
#
#
#
# Elastic Compliance Matrix: (Units=1/GPa)
#
#
# Indices 1 2 3 4 5 6 
#
# 1 0.008228 -0.000873 -0.006080 0.000000 0.000000 0.000000
# 2 -0.000873 0.009657 -0.005336 0.000000 0.000000 0.000000
# 3 -0.006080 -0.005336 0.028606 0.000000 0.000000 0.000000
# 4 0.000000 0.000000 0.000000 -1.438153 0.000000 0.000000
# 5 0.000000 0.000000 0.000000 0.000000 0.099507 0.000000
# 6 0.000000 0.000000 0.000000 0.000000 0.000000 0.045537
#
#
# Mechanical properties :
#
#
# Convention : Reuss Voigt Hill
#
# Bulk Modulus (GPa) = 45.63491 59.93985 52.78738
# Shear Modulus (GPa) = -4.11612 21.01889 8.45138
#
# Velocity S-wave (km/s) = -1.41027 3.18686 2.02080
# Velocity P-wave (km/s) = 4.40437 6.51949 5.56337
#
# Compressibility (1/GPa) = 0.02191305
#
# Stress axis : x y z
#
# Youngs Moduli (GPa) = 121.53981 103.54689 34.95823
#
# Poissons Ratio (x) = 0.09044 0.21254
# Poissons Ratio (y) = 0.10615 0.18653
# Poissons Ratio (z) = 0.73893 0.55250
#
# Static dielectric constant tensor:
#      x y z
#    x 1.734290 0.000000 0.000000 
#    y 0.000000 1.806820 0.000000 
#    z 0.000000 0.000000 1.804580 
# 
# From -- ./inp_files/41966.got.cif
#   From: 2010.05.17/outbox.ucp.g08.bks.cvg/sg67_21_cif.got.tgz:41966.got - 2010.06.11 16:47:20.
