data_PCOD9505524
_publ_section_title
;
Structure prediction by ZEFSAII (Michael W. Deem and Ramdas Pophale) SiO2 
 PCOD9505524
Probable space group: C C C A
;
_chemical_formula_sum "Si O2"
_cell_formula_units_Z 96
_cell_length_a 9.525283
_cell_length_b 20.197020
_cell_length_c 26.656518
_cell_angle_alpha 90.000000
_cell_angle_beta 90.000000
_cell_angle_gamma 90.000000
_cell_volume 5128.243076
_symmetry_space_group_name_H-M "C C C A"
_symmetry_group_IT_number 68
_space_group.IT_coordinate_system_code '2'
_symmetry_cell_setting 'orthorhombic'
loop_
_space_group_symop_operation_xyz
x,y,z
-x,1/2-y,z
x,1/2-y,1/2-z
-x,y,1/2-z
-x,-y,-z
x,1/2+y,-z
-x,1/2+y,1/2+z
x,-y,1/2+z
1/2+x,1/2+y,z
1/2-x,-y,z
1/2+x,-y,1/2-z
1/2-x,1/2+y,1/2-z
1/2-x,1/2-y,-z
1/2+x,y,-z
1/2-x,y,1/2+z
1/2+x,1/2-y,1/2+z
loop_
_atom_site_type_symbol
_atom_site_label
_atom_site_fract_x
_atom_site_fract_y
_atom_site_fract_z
Si Si1 0.500476 0.326152 0.665453
Si Si2 0.115097 0.546541 0.215695
Si Si3 0.621751 0.451744 0.480340
Si Si4 0.452799 0.935840 0.613110
Si Si5 0.148604 0.913897 0.590054
Si Si6 0.767970 0.672830 0.752707
O O1 0.500000 0.250000 0.650365
O O2 0.533476 0.369607 0.617339
O O3 0.624083 0.335625 0.706597
O O4 0.357745 0.337535 0.696170
O O5 0.250000 0.500000 0.208436
O O6 0.158511 0.613241 0.245384
O O7 0.000000 0.509526 0.250000
O O8 0.040719 0.564939 0.163784
O O9 0.500000 0.500000 0.500000
O O10 0.750000 0.500000 0.465854
O O11 0.555027 0.415781 0.432609
O O12 0.660486 0.409661 0.529693
O O13 0.303328 0.898776 0.612285
O O14 0.400872 0.011405 0.602994
O O15 0.718980 0.750000 0.750000
#
# Coordination Sequence:
#
# PCOD9505524 Si02
#       6
#    16  16  16  16  16  16
#     4   9  18  34  60  82 107 150 197 230 280 348
#     4  12  26  36  55  89 122 152 185 246 301 343
#     4  10  17  33  52  81 111 150 193 224 286 352
#     4  10  21  34  54  87 115 151 187 235 300 339
#     4  10  18  33  57  80 115 149 185 243 281 347
#     4   9  20  39  57  81 112 156 199 232 275 357
#
# _framework density 18.719861999999999
#
# number of rings (size 3 to 8) (size 9 to 14) (size 15 to 20)
#    0.000    2.000    3.333    3.500    7.000    1.667 
#    0.000    0.000    0.000    1.000    4.333    0.000 
#    0.000    0.000    0.000    0.000    0.000    0.000 
#
# Total GULP energy -267581.046629 kJ/mol
# GULP energy per Si atom -5574.605138 kJ/mol
# Density = 1.867725 g / cm^3
# Si number density = 18.719862 Si / 1000 Ang^3
#
#
#
# Elastic Constant Matrix: (Units=GPa)
#
#
# Indices 1 2 3 4 5 6 
#
# 1 85.6841 20.4609 21.1330 0.0000 0.0000 0.0000
# 2 20.4609 42.1133 17.2072 0.0000 0.0000 0.0000
# 3 21.1330 17.2072 82.1537 0.0000 0.0000 0.0000
# 4 0.0000 0.0000 0.0000 16.2761 0.0000 0.0000
# 5 0.0000 0.0000 0.0000 0.0000 22.6709 0.0000
# 6 0.0000 0.0000 0.0000 0.0000 0.0000 23.1267
#
#
#
# Elastic Compliance Matrix: (Units=1/GPa)
#
#
# Indices 1 2 3 4 5 6 
#
# 1 0.013592 -0.005660 -0.002311 0.000000 0.000000 0.000000
# 2 -0.005660 0.028324 -0.004477 0.000000 0.000000 0.000000
# 3 -0.002311 -0.004477 0.013704 0.000000 0.000000 0.000000
# 4 0.000000 0.000000 0.000000 0.061440 0.000000 0.000000
# 5 0.000000 0.000000 0.000000 0.000000 0.044109 0.000000
# 6 0.000000 0.000000 0.000000 0.000000 0.000000 0.043240
#
#
# Mechanical properties :
#
#
# Convention : Reuss Voigt Hill
#
# Bulk Modulus (GPa) = 32.54529 36.39480 34.47005
# Shear Modulus (GPa) = 20.87273 22.49141 21.68207
#
# Velocity S-wave (km/s) = 3.34279 3.46999 3.40698
# Velocity P-wave (km/s) = 5.68526 5.96141 5.82497
#
# Compressibility (1/GPa) = 0.03072641
#
# Stress axis : x y z
#
# Youngs Moduli (GPa) = 73.57139 35.30531 72.96907
#
# Poissons Ratio (x) = 0.19981 0.16863
# Poissons Ratio (y) = 0.41638 0.32666
# Poissons Ratio (z) = 0.17003 0.15805
#
# Static dielectric constant tensor:
#      x y z
#    x 1.703110 0.000000 0.000000 
#    y 0.000000 1.647980 0.000000 
#    z 0.000000 0.000000 1.683710 
# 
# From -- ./inp_files/49336.got.cif
#   From: 2010.05.17/outbox.cif.g08.bks.cpg/sg68_25_cif.got.tgz:49336.got - 2010.06.03 18:57:09.
