data_PCOD9505293
_publ_section_title
;
Structure prediction by ZEFSAII (Michael W. Deem and Ramdas Pophale) SiO2 
 PCOD9505293
Probable space group: C C C A
;
_chemical_formula_sum "Si O2"
_cell_formula_units_Z 120
_cell_length_a 14.208033
_cell_length_b 28.193409
_cell_length_c 14.445190
_cell_angle_alpha 90.000000
_cell_angle_beta 90.000000
_cell_angle_gamma 90.000000
_cell_volume 5786.351439
_symmetry_space_group_name_H-M "C C C A"
_symmetry_group_IT_number 68
_space_group.IT_coordinate_system_code '2'
_symmetry_cell_setting 'orthorhombic'
loop_
_space_group_symop_operation_xyz
x,y,z
-x,1/2-y,z
x,1/2-y,1/2-z
-x,y,1/2-z
-x,-y,-z
x,1/2+y,-z
-x,1/2+y,1/2+z
x,-y,1/2+z
1/2+x,1/2+y,z
1/2-x,-y,z
1/2+x,-y,1/2-z
1/2-x,1/2+y,1/2-z
1/2-x,1/2-y,-z
1/2+x,y,-z
1/2-x,y,1/2+z
1/2+x,1/2-y,1/2+z
loop_
_atom_site_type_symbol
_atom_site_label
_atom_site_fract_x
_atom_site_fract_y
_atom_site_fract_z
Si Si1 0.562464 0.957596 0.958196
Si Si2 0.732836 0.318271 0.075438
Si Si3 0.621366 0.576981 0.898776
Si Si4 0.428522 0.328323 0.994356
Si Si5 0.750000 0.500000 0.506991
Si Si6 0.740152 0.360100 0.273693
Si Si7 0.624551 0.228945 0.153023
Si Si8 0.890523 0.632451 0.919183
O O1 0.581199 0.918330 0.037745
O O2 0.666864 0.975435 0.933803
O O3 0.487714 0.937806 0.883829
O O4 0.500000 0.000000 0.000000
O O5 0.736942 0.352351 0.164735
O O6 0.674103 0.271790 0.099954
O O7 0.839460 0.304253 0.052789
O O8 0.684868 0.345388 0.990527
O O9 0.608809 0.620122 0.972261
O O10 0.691079 0.537535 0.943469
O O11 0.671148 0.598832 0.809556
O O12 0.449166 0.298593 0.087680
O O13 0.516958 0.335417 0.928870
O O14 0.700652 0.311375 0.318953
O O15 0.841559 0.369787 0.319744
O O16 0.592528 0.250000 0.250000
#
# Coordination Sequence:
#
# PCOD9505293 Si02
#       8
#    16  16  16  16   8  16  16  16
#     4   9  18  30  56  90 111 154 203 247 313 381
#     4  11  21  37  61  83 119 164 198 252 307 365
#     4   9  17  32  52  82 118 149 199 248 301 363
#     4  10  20  35  57  85 120 154 202 250 299 372
#     4  10  14  28  56  84 112 156 202 244 308 372
#     4  10  20  37  58  84 120 162 204 250 309 366
#     4   9  19  37  58  83 122 159 196 248 300 357
#     4  11  21  37  59  88 115 159 204 252 313 366
#
# _framework density 20.738457
#
# number of rings (size 3 to 8) (size 9 to 14) (size 15 to 20)
#    0.000    2.133    4.000    0.400    0.000    1.067 
#    0.000   12.667    0.000    8.800   13.867    0.000 
#    0.000    0.000    0.000    0.000    0.000    0.000 
#
# Total GULP energy -334660.642876 kJ/mol
# GULP energy per Si atom -5577.677381 kJ/mol
# Density = 2.069126 g / cm^3
# Si number density = 20.738457 Si / 1000 Ang^3
#
#
#
# Elastic Constant Matrix: (Units=GPa)
#
#
# Indices 1 2 3 4 5 6 
#
# 1 150.7113 35.7462 20.0960 0.0000 0.0000 0.0000
# 2 35.7462 73.4794 13.4643 0.0000 0.0000 0.0000
# 3 20.0960 13.4643 47.8021 0.0000 0.0000 0.0000
# 4 0.0000 0.0000 0.0000 14.7279 0.0000 0.0000
# 5 0.0000 0.0000 0.0000 0.0000 0.0112 0.0000
# 6 0.0000 0.0000 0.0000 0.0000 0.0000 -16.6473
#
#
#
# Elastic Compliance Matrix: (Units=1/GPa)
#
#
# Indices 1 2 3 4 5 6 
#
# 1 0.007736 -0.003340 -0.002311 0.000000 0.000000 0.000000
# 2 -0.003340 0.015792 -0.003044 0.000000 0.000000 0.000000
# 3 -0.002311 -0.003044 0.022749 0.000000 0.000000 0.000000
# 4 0.000000 0.000000 0.000000 0.067898 0.000000 0.000000
# 5 0.000000 0.000000 0.000000 0.000000 89.591637 0.000000
# 6 0.000000 0.000000 0.000000 0.000000 0.000000 -0.060070
#
#
# Mechanical properties :
#
#
# Convention : Reuss Voigt Hill
#
# Bulk Modulus (GPa) = 34.61898 45.62286 40.12092
# Shear Modulus (GPa) = 0.05576 13.13079 6.59327
#
# Velocity S-wave (km/s) = 0.16415 2.51900 1.78498
# Velocity P-wave (km/s) = 4.09454 5.52335 4.86172
#
# Compressibility (1/GPa) = 0.02888589
#
# Stress axis : x y z
#
# Youngs Moduli (GPa) = 129.27412 63.32443 43.95862
#
# Poissons Ratio (x) = 0.21148 0.10160
# Poissons Ratio (y) = 0.43173 0.13381
# Poissons Ratio (z) = 0.29880 0.19276
#
# Static dielectric constant tensor:
#      x y z
#    x 1.796770 0.000000 0.000000 
#    y 0.000000 1.795530 0.000000 
#    z 0.000000 0.000000 1.713570 
# 
# From -- ./inp_files/22832.got.cif
#   From: 2010.05.17/outbox.cif.g08.bks.cpg/sg68_12_cif.got.tgz:22832.got - 2010.06.03 18:57:09.
