data_PCOD9505641
_publ_section_title
;
Structure prediction by ZEFSAII (Michael W. Deem and Ramdas Pophale) SiO2 
 PCOD9505641
Probable space group: C C C A
;
_chemical_formula_sum "Si O2"
_cell_formula_units_Z 112
_cell_length_a 24.640782
_cell_length_b 14.740574
_cell_length_c 16.430053
_cell_angle_alpha 90.000000
_cell_angle_beta 90.000000
_cell_angle_gamma 90.000000
_cell_volume 5967.711865
_symmetry_space_group_name_H-M "C C C A"
_symmetry_group_IT_number 68
_space_group.IT_coordinate_system_code '2'
_symmetry_cell_setting 'orthorhombic'
loop_
_space_group_symop_operation_xyz
x,y,z
-x,1/2-y,z
x,1/2-y,1/2-z
-x,y,1/2-z
-x,-y,-z
x,1/2+y,-z
-x,1/2+y,1/2+z
x,-y,1/2+z
1/2+x,1/2+y,z
1/2-x,-y,z
1/2+x,-y,1/2-z
1/2-x,1/2+y,1/2-z
1/2-x,1/2-y,-z
1/2+x,y,-z
1/2-x,y,1/2+z
1/2+x,1/2-y,1/2+z
loop_
_atom_site_type_symbol
_atom_site_label
_atom_site_fract_x
_atom_site_fract_y
_atom_site_fract_z
Si Si1 0.657632 0.166423 0.199536
Si Si2 0.685239 0.982729 0.462503
Si Si3 0.142145 0.003307 0.204234
Si Si4 0.357403 0.879955 0.416926
Si Si5 0.218658 0.850285 0.773303
Si Si6 0.063605 0.355701 0.233523
Si Si7 0.313337 0.218137 0.487074
O O1 0.632784 0.250000 0.250000
O O2 0.717688 0.150455 0.235918
O O3 0.669926 0.192781 0.105968
O O4 0.630216 0.072482 0.227450
O O5 0.658195 0.031087 0.384481
O O6 0.679074 0.874299 0.461878
O O7 0.750000 0.000000 0.468423
O O8 0.652892 0.025577 0.538100
O O9 0.193375 0.066513 0.225820
O O10 0.093865 0.075848 0.205737
O O11 0.302978 0.866534 0.363338
O O12 0.408233 0.875744 0.354844
O O13 0.352746 0.796996 0.479926
O O14 0.198762 0.750000 0.750000
O O15 0.075125 0.250000 0.250000
O O16 0.000000 0.368326 0.250000
O O17 0.250000 0.250000 0.500000
#
# Coordination Sequence:
#
# PCOD9505641 Si02
#       7
#    16  16  16  16  16  16  16
#     4  11  22  33  50  79 121 164 201 229 282 366
#     4  12  22  33  53  84 126 163 191 230 290 358
#     4  11  22  35  56  82 115 157 204 248 292 353
#     4  11  21  35  54  83 116 153 195 243 296 352
#     4  10  18  31  51  76 111 155 201 237 279 345
#     4  10  22  43  67  85 103 138 197 264 316 352
#     4  12  21  33  51  79 124 164 195 234 288 349
#
# _framework density 18.767661
#
# number of rings (size 3 to 8) (size 9 to 14) (size 15 to 20)
#    0.000    1.000    2.857    7.286    2.000    0.000 
#    0.000    0.714    0.000    2.143    0.000    0.000 
#    0.000    0.000    0.000    0.000    0.000    0.000 
#
# Total GULP energy -312167.844088 kJ/mol
# GULP energy per Si atom -5574.425787 kJ/mol
# Density = 1.872495 g / cm^3
# Si number density = 18.767661 Si / 1000 Ang^3
#
#
#
# Elastic Constant Matrix: (Units=GPa)
#
#
# Indices 1 2 3 4 5 6 
#
# 1 81.5916 22.1004 14.7423 0.0000 0.0000 0.0000
# 2 22.1004 90.7332 24.4425 0.0000 0.0000 0.0000
# 3 14.7423 24.4425 95.4805 0.0000 0.0000 0.0000
# 4 0.0000 0.0000 0.0000 39.8884 0.0000 0.0000
# 5 0.0000 0.0000 0.0000 0.0000 23.0121 0.0000
# 6 0.0000 0.0000 0.0000 0.0000 0.0000 13.7853
#
#
#
# Elastic Compliance Matrix: (Units=1/GPa)
#
#
# Indices 1 2 3 4 5 6 
#
# 1 0.013273 -0.002880 -0.001312 0.000000 0.000000 0.000000
# 2 -0.002880 0.012462 -0.002746 0.000000 0.000000 0.000000
# 3 -0.001312 -0.002746 0.011379 0.000000 0.000000 0.000000
# 4 0.000000 0.000000 0.000000 0.025070 0.000000 0.000000
# 5 0.000000 0.000000 0.000000 0.000000 0.043455 0.000000
# 6 0.000000 0.000000 0.000000 0.000000 0.000000 0.072541
#
#
# Mechanical properties :
#
#
# Convention : Reuss Voigt Hill
#
# Bulk Modulus (GPa) = 43.03024 43.37508 43.20266
# Shear Modulus (GPa) = 25.02476 29.10518 27.06497
#
# Velocity S-wave (km/s) = 3.65553 3.94231 3.80163
# Velocity P-wave (km/s) = 6.38709 6.62452 6.50688
#
# Compressibility (1/GPa) = 0.02323947
#
# Stress axis : x y z
#
# Youngs Moduli (GPa) = 75.33961 80.24160 87.88245
#
# Poissons Ratio (x) = 0.23106 0.11532
# Poissons Ratio (y) = 0.21694 0.24130
# Poissons Ratio (z) = 0.09887 0.22032
#
# Static dielectric constant tensor:
#      x y z
#    x 1.620820 0.000000 0.000000 
#    y 0.000000 1.733830 0.000000 
#    z 0.000000 0.000000 1.759260 
# 
# From -- ./inp_files/26075.got.cif
#   From: 2010.05.17/outbox.cif.g08.bks.cpg/sg68_14_cif.got.tgz:26075.got - 2010.06.03 18:57:09.
