data_PCOD9505832
_publ_section_title
;
Structure prediction by ZEFSAII (Michael W. Deem and Ramdas Pophale) SiO2 
 PCOD9505832
Probable space group: C C C A
;
_chemical_formula_sum "Si O2"
_cell_formula_units_Z 80
_cell_length_a 15.393773
_cell_length_b 12.391283
_cell_length_c 21.520587
_cell_angle_alpha 90.000000
_cell_angle_beta 90.000000
_cell_angle_gamma 90.000000
_cell_volume 4105.021792
_symmetry_space_group_name_H-M "C C C A"
_symmetry_group_IT_number 68
_space_group.IT_coordinate_system_code '2'
_symmetry_cell_setting 'orthorhombic'
loop_
_space_group_symop_operation_xyz
x,y,z
-x,1/2-y,z
x,1/2-y,1/2-z
-x,y,1/2-z
-x,-y,-z
x,1/2+y,-z
-x,1/2+y,1/2+z
x,-y,1/2+z
1/2+x,1/2+y,z
1/2-x,-y,z
1/2+x,-y,1/2-z
1/2-x,1/2+y,1/2-z
1/2-x,1/2-y,-z
1/2+x,y,-z
1/2-x,y,1/2+z
1/2+x,1/2-y,1/2+z
loop_
_atom_site_type_symbol
_atom_site_label
_atom_site_fract_x
_atom_site_fract_y
_atom_site_fract_z
Si Si1 0.500000 0.250000 0.105299
Si Si2 0.250000 0.500000 0.130502
Si Si3 0.239807 0.130073 0.077129
Si Si4 0.059875 0.626999 0.984135
Si Si5 0.125589 0.399638 0.027768
Si Si6 0.823731 0.775371 0.177585
O O1 0.417614 0.238531 0.150411
O O2 0.539581 0.165396 0.054766
O O3 0.182657 0.440217 0.084578
O O4 0.200754 0.598031 0.165855
O O5 0.145811 0.166582 0.051411
O O6 0.259511 0.200314 0.137395
O O7 0.250000 0.000000 0.088365
O O8 0.311674 0.153737 0.023586
O O9 0.032958 0.852418 0.952082
O O10 0.088998 0.503452 0.990672
O O11 0.818709 0.750000 0.250000
#
# Coordination Sequence:
#
# PCOD9505832 Si02
#       6
#     8   8  16  16  16  16
#     4  12  21  40  66 102 133 168 226 290 334 390
#     4  12  24  44  64  96 136 174 222 288 346 392
#     4  10  21  41  65  97 132 174 221 271 345 400
#     4  10  20  32  63 102 132 160 207 287 350 394
#     4  10  18  37  61 100 133 159 208 291 351 386
#     4  12  28  44  66  92 140 188 229 262 322 415
#
# _framework density 19.488323999999999
#
# number of rings (size 3 to 8) (size 9 to 14) (size 15 to 20)
#    0.000    1.200    7.000    0.300    4.200    1.600 
#    0.000    0.000    0.000    1.200    0.000    0.000 
#    0.000    0.000    0.000    0.000    0.000    0.000 
#
# Total GULP energy -222715.581171 kJ/mol
# GULP energy per Si atom -5567.889529 kJ/mol
# Density = 1.944397 g / cm^3
# Si number density = 19.488324 Si / 1000 Ang^3
#
#
#
# Elastic Constant Matrix: (Units=GPa)
#
#
# Indices 1 2 3 4 5 6 
#
# 1 181.3662 38.8168 84.5206 0.0000 0.0000 0.0000
# 2 38.8168 85.5276 52.3433 0.0000 0.0000 0.0000
# 3 84.5206 52.3433 143.8913 0.0000 0.0000 0.0000
# 4 0.0000 0.0000 0.0000 23.2701 0.0000 0.0000
# 5 0.0000 0.0000 0.0000 0.0000 20.1286 0.0000
# 6 0.0000 0.0000 0.0000 0.0000 0.0000 34.1979
#
#
#
# Elastic Compliance Matrix: (Units=1/GPa)
#
#
# Indices 1 2 3 4 5 6 
#
# 1 0.007649 -0.000928 -0.004155 0.000000 0.000000 0.000000
# 2 -0.000928 0.015153 -0.004967 0.000000 0.000000 0.000000
# 3 -0.004155 -0.004967 0.011197 0.000000 0.000000 0.000000
# 4 0.000000 0.000000 0.000000 0.042974 0.000000 0.000000
# 5 0.000000 0.000000 0.000000 0.000000 0.049681 0.000000
# 6 0.000000 0.000000 0.000000 0.000000 0.000000 0.029242
#
#
# Mechanical properties :
#
#
# Convention : Reuss Voigt Hill
#
# Bulk Modulus (GPa) = 71.95134 84.68294 78.31714
# Shear Modulus (GPa) = 27.68108 31.19294 29.43701
#
# Velocity S-wave (km/s) = 3.77290 4.00509 3.89072
# Velocity P-wave (km/s) = 7.48198 8.05823 7.77545
#
# Compressibility (1/GPa) = 0.01389828
#
# Stress axis : x y z
#
# Youngs Moduli (GPa) = 130.73981 65.99211 89.30820
#
# Poissons Ratio (x) = 0.06127 0.37108
# Poissons Ratio (y) = 0.12139 0.44359
# Poissons Ratio (z) = 0.54323 0.32778
#
# Static dielectric constant tensor:
#      x y z
#    x 1.812010 0.000000 0.000000 
#    y 0.000000 1.969550 0.000000 
#    z 0.000000 0.000000 1.634440 
# 
# From -- ./inp_files/39360.got.cif
#   From: 2010.05.17/outbox.cif.g08.bks.cpg/sg68_20_cif.got.tgz:39360.got - 2010.06.03 18:57:09.
