data_PCOD9505306
_publ_section_title
;
Structure prediction by ZEFSAII (Michael W. Deem and Ramdas Pophale) SiO2 
 PCOD9505306
Probable space group: C C C A
;
_chemical_formula_sum "Si O2"
_cell_formula_units_Z 72
_cell_length_a 9.073128
_cell_length_b 23.193401
_cell_length_c 17.981912
_cell_angle_alpha 90.000000
_cell_angle_beta 90.000000
_cell_angle_gamma 90.000000
_cell_volume 3784.054150
_symmetry_space_group_name_H-M "C C C A"
_symmetry_group_IT_number 68
_space_group.IT_coordinate_system_code '2'
_symmetry_cell_setting 'orthorhombic'
loop_
_space_group_symop_operation_xyz
x,y,z
-x,1/2-y,z
x,1/2-y,1/2-z
-x,y,1/2-z
-x,-y,-z
x,1/2+y,-z
-x,1/2+y,1/2+z
x,-y,1/2+z
1/2+x,1/2+y,z
1/2-x,-y,z
1/2+x,-y,1/2-z
1/2-x,1/2+y,1/2-z
1/2-x,1/2-y,-z
1/2+x,y,-z
1/2-x,y,1/2+z
1/2+x,1/2-y,1/2+z
loop_
_atom_site_type_symbol
_atom_site_label
_atom_site_fract_x
_atom_site_fract_y
_atom_site_fract_z
Si Si1 0.576115 0.666997 0.859123
Si Si2 0.878058 0.793697 0.975871
Si Si3 0.751103 0.750000 0.750000
Si Si4 0.267973 0.645629 0.335767
Si Si5 0.329510 0.442410 0.226077
O O1 0.654757 0.718952 0.814893
O O2 0.407493 0.659571 0.834243
O O3 0.659688 0.608746 0.834620
O O4 0.572101 0.678383 0.946593
O O5 0.828755 0.842438 0.917674
O O6 0.000000 0.750000 0.943830
O O7 0.750000 0.750000 0.000000
O O8 0.836388 0.696971 0.713331
O O9 0.267300 0.584401 0.294557
O O10 0.500000 0.453502 0.250000
O O11 0.250000 0.500000 0.199854
#
# Coordination Sequence:
#
# PCOD9505306 Si02
#       5
#    16  16   8  16  16
#     4  10  18  32  57  79 107 146 184 219 276 339
#     4  12  21  34  54  83 122 146 176 219 275 344
#     4  10  15  28  53  80 101 142 183 216 263 346
#     4  10  19  33  55  80 110 145 182 222 279 331
#     4   9  20  40  61  79 104 144 196 240 273 322
#
# _framework density 19.027211000000001
#
# number of rings (size 3 to 8) (size 9 to 14) (size 15 to 20)
#    0.000    1.778    4.444    3.333    0.000    0.000 
#    4.000    1.667    0.000    5.333    0.000    0.000 
#    0.000    0.000    0.000    0.000    0.000    0.000 
#
# Total GULP energy -200662.807083 kJ/mol
# GULP energy per Si atom -5573.966863 kJ/mol
# Density = 1.898390 g / cm^3
# Si number density = 19.027211 Si / 1000 Ang^3
#
#
#
# Elastic Constant Matrix: (Units=GPa)
#
#
# Indices 1 2 3 4 5 6 
#
# 1 37.5626 20.8587 -0.8316 0.0000 0.0000 0.0000
# 2 20.8587 115.0131 16.8553 0.0000 0.0000 0.0000
# 3 -0.8316 16.8553 79.9244 0.0000 0.0000 0.0000
# 4 0.0000 0.0000 0.0000 20.5195 0.0000 0.0000
# 5 0.0000 0.0000 0.0000 0.0000 21.7217 0.0000
# 6 0.0000 0.0000 0.0000 0.0000 0.0000 26.6309
#
#
#
# Elastic Compliance Matrix: (Units=1/GPa)
#
#
# Indices 1 2 3 4 5 6 
#
# 1 0.029776 -0.005619 0.001495 0.000000 0.000000 0.000000
# 2 -0.005619 0.010032 -0.002174 0.000000 0.000000 0.000000
# 3 0.001495 -0.002174 0.012986 0.000000 0.000000 0.000000
# 4 0.000000 0.000000 0.000000 0.048734 0.000000 0.000000
# 5 0.000000 0.000000 0.000000 0.000000 0.046037 0.000000
# 6 0.000000 0.000000 0.000000 0.000000 0.000000 0.037550
#
#
# Mechanical properties :
#
#
# Convention : Reuss Voigt Hill
#
# Bulk Modulus (GPa) = 24.87756 34.02944 29.45350
# Shear Modulus (GPa) = 23.68417 26.81558 25.24988
#
# Velocity S-wave (km/s) = 3.53193 3.75817 3.64681
# Velocity P-wave (km/s) = 5.45306 6.06261 5.76590
#
# Compressibility (1/GPa) = 0.04019688
#
# Stress axis : x y z
#
# Youngs Moduli (GPa) = 33.58445 99.67717 77.00659
#
# Poissons Ratio (x) = 0.56010 -0.11511
# Poissons Ratio (y) = 0.18872 0.16743
# Poissons Ratio (z) = -0.05020 0.21672
#
# Static dielectric constant tensor:
#      x y z
#    x 1.693190 0.000000 0.000000 
#    y 0.000000 1.657430 0.000000 
#    z 0.000000 0.000000 1.709400 
# 
# From -- ./inp_files/28156.got.cif
#   From: 2010.05.17/outbox.cif.g08.bks.cpg/sg68_15_cif.got.tgz:28156.got - 2010.06.03 18:57:09.
