data_PCOD9505436
_publ_section_title
;
Structure prediction by ZEFSAII (Michael W. Deem and Ramdas Pophale) SiO2 
 PCOD9505436
Probable space group: C C C A
;
_chemical_formula_sum "Si O2"
_cell_formula_units_Z 64
_cell_length_a 5.381840
_cell_length_b 14.393386
_cell_length_c 33.163205
_cell_angle_alpha 90.000000
_cell_angle_beta 90.000000
_cell_angle_gamma 90.000000
_cell_volume 2568.918050
_symmetry_space_group_name_H-M "C C C A"
_symmetry_group_IT_number 68
_space_group.IT_coordinate_system_code '2'
_symmetry_cell_setting 'orthorhombic'
loop_
_space_group_symop_operation_xyz
x,y,z
-x,1/2-y,z
x,1/2-y,1/2-z
-x,y,1/2-z
-x,-y,-z
x,1/2+y,-z
-x,1/2+y,1/2+z
x,-y,1/2+z
1/2+x,1/2+y,z
1/2-x,-y,z
1/2+x,-y,1/2-z
1/2-x,1/2+y,1/2-z
1/2-x,1/2-y,-z
1/2+x,y,-z
1/2-x,y,1/2+z
1/2+x,1/2-y,1/2+z
loop_
_atom_site_type_symbol
_atom_site_label
_atom_site_fract_x
_atom_site_fract_y
_atom_site_fract_z
Si Si1 0.953704 0.394498 0.015318
Si Si2 0.756057 0.355993 0.767277
Si Si3 0.948441 0.857234 0.141824
Si Si4 0.046138 0.638440 0.893383
O O1 0.875067 0.387875 0.061664
O O2 0.728229 0.352107 0.989662
O O3 0.000000 0.500000 0.000000
O O4 0.755865 0.250000 0.750000
O O5 0.500000 0.394109 0.750000
O O6 0.811956 0.355943 0.814682
O O7 0.000000 0.403207 0.750000
O O8 0.731733 0.899112 0.114403
O O9 0.000000 0.750000 0.130935
O O10 0.230724 0.893629 0.136509
O O11 0.000000 0.750000 0.889955
#
# Coordination Sequence:
#
# PCOD9505436 Si02
#       4
#    16  16  16  16
#     4  10  21  38  58  77  99 135 182 238 280 335
#     4  10  17  24  41  63  95 147 196 206 243 308
#     4  10  18  30  43  69 108 145 188 218 261 321
#     4  10  21  32  50  75 107 143 180 225 283 325
#
# _framework density 24.913215000000001
#
# number of rings (size 3 to 8) (size 9 to 14) (size 15 to 20)
#    0.000    2.000    2.500    3.000    7.000    1.000 
#    0.000    0.000    0.000    0.000    0.000    0.000 
#    0.000    0.000    0.000  252.000    0.000    0.000 
#
# Total GULP energy -178437.683794 kJ/mol
# GULP energy per Si atom -5576.177619 kJ/mol
# Density = 2.485651 g / cm^3
# Si number density = 24.913215 Si / 1000 Ang^3
#
#
#
# Elastic Constant Matrix: (Units=GPa)
#
#
# Indices 1 2 3 4 5 6 
#
# 1 261.7446 14.2103 44.9289 0.0000 0.0000 0.0000
# 2 14.2103 119.6481 -3.0178 0.0000 0.0000 0.0000
# 3 44.9289 -3.0178 97.0474 0.0000 0.0000 0.0000
# 4 0.0000 0.0000 0.0000 94.6801 0.0000 0.0000
# 5 0.0000 0.0000 0.0000 0.0000 48.5589 0.0000
# 6 0.0000 0.0000 0.0000 0.0000 0.0000 -25.3386
#
#
#
# Elastic Compliance Matrix: (Units=1/GPa)
#
#
# Indices 1 2 3 4 5 6 
#
# 1 0.004186 -0.000546 -0.001955 0.000000 0.000000 0.000000
# 2 -0.000546 0.008436 0.000515 0.000000 0.000000 0.000000
# 3 -0.001955 0.000515 0.011225 0.000000 0.000000 0.000000
# 4 0.000000 0.000000 0.000000 0.010562 0.000000 0.000000
# 5 0.000000 0.000000 0.000000 0.000000 0.020594 0.000000
# 6 0.000000 0.000000 0.000000 0.000000 0.000000 -0.039466
#
#
# Mechanical properties :
#
#
# Convention : Reuss Voigt Hill
#
# Bulk Modulus (GPa) = 50.31490 65.63143 57.97316
# Shear Modulus (GPa) = 191.32559 51.73468 121.53013
#
# Velocity S-wave (km/s) = 8.77289 4.56191 6.99194
# Velocity P-wave (km/s) = 11.08413 7.35862 9.40764
#
# Compressibility (1/GPa) = 0.01987483
#
# Stress axis : x y z
#
# Youngs Moduli (GPa) = 238.90689 118.54333 89.08476
#
# Poissons Ratio (x) = 0.06478 0.17414
# Poissons Ratio (y) = 0.13055 -0.04590
# Poissons Ratio (z) = 0.46702 -0.06108
#
# Static dielectric constant tensor:
#      x y z
#    x 2.070090 0.000000 0.000000 
#    y 0.000000 1.770260 0.000000 
#    z 0.000000 0.000000 1.998160 
# 
# From -- ./inp_files/48091.got.cif
#   From: 2010.05.17/outbox.cif.g08.bks.cpg/sg68_25_cif.got.tgz:48091.got - 2010.06.03 18:57:09.
