data_PCOD9505607
_publ_section_title
;
Structure prediction by ZEFSAII (Michael W. Deem and Ramdas Pophale) SiO2 
 PCOD9505607
Probable space group: C C C A
;
_chemical_formula_sum "Si O2"
_cell_formula_units_Z 80
_cell_length_a 5.475870
_cell_length_b 18.697554
_cell_length_c 32.478034
_cell_angle_alpha 90.000000
_cell_angle_beta 90.000000
_cell_angle_gamma 90.000000
_cell_volume 3325.275691
_symmetry_space_group_name_H-M "C C C A"
_symmetry_group_IT_number 68
_space_group.IT_coordinate_system_code '2'
_symmetry_cell_setting 'orthorhombic'
loop_
_space_group_symop_operation_xyz
x,y,z
-x,1/2-y,z
x,1/2-y,1/2-z
-x,y,1/2-z
-x,-y,-z
x,1/2+y,-z
-x,1/2+y,1/2+z
x,-y,1/2+z
1/2+x,1/2+y,z
1/2-x,-y,z
1/2+x,-y,1/2-z
1/2-x,1/2+y,1/2-z
1/2-x,1/2-y,-z
1/2+x,y,-z
1/2-x,y,1/2+z
1/2+x,1/2-y,1/2+z
loop_
_atom_site_type_symbol
_atom_site_label
_atom_site_fract_x
_atom_site_fract_y
_atom_site_fract_z
Si Si1 0.596653 0.140839 0.137453
Si Si2 0.248365 0.586146 0.225900
Si Si3 0.999805 0.001429 0.580894
Si Si4 0.091554 0.344618 0.391174
Si Si5 0.935163 0.830539 0.985905
O O1 0.708928 0.120713 0.181398
O O2 0.538098 0.070149 0.109960
O O3 0.322044 0.172309 0.137805
O O4 0.818849 0.184755 0.116843
O O5 0.500000 0.605436 0.250000
O O6 0.250000 0.500000 0.220937
O O7 0.000000 0.604621 0.250000
O O8 0.250000 0.000000 0.556026
O O9 0.037111 0.930939 0.609352
O O10 0.750000 0.000000 0.556687
O O11 0.150084 0.328969 0.438673
O O12 0.000000 0.750000 0.000712
O O13 0.207668 0.862871 0.989331
#
# Coordination Sequence:
#
# PCOD9505607 Si02
#       5
#    16  16  16  16  16
#     4  10  18  30  47  69  98 133 169 199 232 276
#     4  10  19  28  41  65 100 138 171 202 237 276
#     4   8  15  25  42  63  88 120 159 193 223 264
#     4  10  18  30  51  70  91 127 166 197 236 289
#     4  10  21  37  55  75  99 123 150 197 260 309
#
# _framework density 24.058154999999999
#
# number of rings (size 3 to 8) (size 9 to 14) (size 15 to 20)
#    0.000    2.400    0.000    4.200    0.000    5.600 
#    0.000    0.000    0.000   32.400    0.000    0.000 
#    0.000   12.000    0.000    0.000    0.000    0.000 
#
# Total GULP energy -222850.117619 kJ/mol
# GULP energy per Si atom -5571.252940 kJ/mol
# Density = 2.400340 g / cm^3
# Si number density = 24.058155 Si / 1000 Ang^3
#
#
#
# Elastic Constant Matrix: (Units=GPa)
#
#
# Indices 1 2 3 4 5 6 
#
# 1 291.7021 12.6909 45.4025 0.0000 0.0000 0.0000
# 2 12.6909 57.0910 12.0126 0.0000 0.0000 0.0000
# 3 45.4025 12.0126 104.3225 0.0000 0.0000 0.0000
# 4 0.0000 0.0000 0.0000 11.8331 0.0000 0.0000
# 5 0.0000 0.0000 0.0000 0.0000 22.0335 0.0000
# 6 0.0000 0.0000 0.0000 0.0000 0.0000 6.4776
#
#
#
# Elastic Compliance Matrix: (Units=1/GPa)
#
#
# Indices 1 2 3 4 5 6 
#
# 1 0.003691 -0.000494 -0.001549 0.000000 0.000000 0.000000
# 2 -0.000494 0.018017 -0.001859 0.000000 0.000000 0.000000
# 3 -0.001549 -0.001859 0.010474 0.000000 0.000000 0.000000
# 4 0.000000 0.000000 0.000000 0.084508 0.000000 0.000000
# 5 0.000000 0.000000 0.000000 0.000000 0.045385 0.000000
# 6 0.000000 0.000000 0.000000 0.000000 0.000000 0.154378
#
#
# Mechanical properties :
#
#
# Convention : Reuss Voigt Hill
#
# Bulk Modulus (GPa) = 41.02491 65.92531 53.47511
# Shear Modulus (GPa) = 15.04279 33.60282 24.32280
#
# Velocity S-wave (km/s) = 2.50325 3.74134 3.18307
# Velocity P-wave (km/s) = 5.04425 6.79158 5.98205
#
# Compressibility (1/GPa) = 0.02437543
#
# Stress axis : x y z
#
# Youngs Moduli (GPa) = 270.94260 55.50297 95.47377
#
# Poissons Ratio (x) = 0.02744 0.14792
# Poissons Ratio (y) = 0.13396 0.17753
# Poissons Ratio (z) = 0.41979 0.10321
#
# Static dielectric constant tensor:
#      x y z
#    x 2.219560 0.000000 0.000000 
#    y 0.000000 2.108910 0.000000 
#    z 0.000000 0.000000 1.854040 
# 
# From -- ./inp_files/53159.got.cif
#   From: 2010.05.17/outbox.cif.g08.bks.cpg/sg68_27_cif.got.tgz:53159.got - 2010.06.03 18:57:09.
