data_PCOD9505457
_publ_section_title
;
Structure prediction by ZEFSAII (Michael W. Deem and Ramdas Pophale) SiO2 
 PCOD9505457
Probable space group: C C C A
;
_chemical_formula_sum "Si O2"
_cell_formula_units_Z 68
_cell_length_a 36.264018
_cell_length_b 5.497040
_cell_length_c 13.665123
_cell_angle_alpha 90.000000
_cell_angle_beta 90.000000
_cell_angle_gamma 90.000000
_cell_volume 2724.070631
_symmetry_space_group_name_H-M "C C C A"
_symmetry_group_IT_number 68
_space_group.IT_coordinate_system_code '2'
_symmetry_cell_setting 'orthorhombic'
loop_
_space_group_symop_operation_xyz
x,y,z
-x,1/2-y,z
x,1/2-y,1/2-z
-x,y,1/2-z
-x,-y,-z
x,1/2+y,-z
-x,1/2+y,1/2+z
x,-y,1/2+z
1/2+x,1/2+y,z
1/2-x,-y,z
1/2+x,-y,1/2-z
1/2-x,1/2+y,1/2-z
1/2-x,1/2-y,-z
1/2+x,y,-z
1/2-x,y,1/2+z
1/2+x,1/2-y,1/2+z
loop_
_atom_site_type_symbol
_atom_site_label
_atom_site_fract_x
_atom_site_fract_y
_atom_site_fract_z
Si Si1 0.318535 0.109722 0.393162
Si Si2 0.903123 0.991153 0.130197
Si Si3 0.209121 0.105134 0.117130
Si Si4 0.067844 0.510092 0.847905
Si Si5 0.500000 0.250000 0.750000
O O1 0.361244 0.043111 0.400974
O O2 0.316012 0.379800 0.348045
O O3 0.300444 0.136088 0.501157
O O4 0.297798 0.878668 0.344653
O O5 0.927565 0.754196 0.106492
O O6 0.917056 0.254502 0.096373
O O7 0.907737 0.001347 0.248341
O O8 0.250000 0.000000 0.129024
O O9 0.026798 0.580362 0.813913
#
# Coordination Sequence:
#
# PCOD9505457 Si02
#       5
#    16  16  16  16   4
#     4  10  17  28  45  63  92 115 140 181 235 257
#     4   9  17  28  42  66  91 119 140 177 216 268
#     4  10  19  30  45  69  87 109 150 192 226 269
#     4   9  18  29  45  68  93 111 150 172 214 264
#     4   8  16  30  48  66  96 122 132 194 224 242
#
# _framework density 24.962644000000001
#
# number of rings (size 3 to 8) (size 9 to 14) (size 15 to 20)
#    0.000    2.824    0.000    4.941    0.000    7.529 
#    0.000    0.000    0.000    0.000    0.000  112.000 
#    0.000  399.059    0.000    0.000    0.000    0.000 
#
# Total GULP energy -189947.582991 kJ/mol
# GULP energy per Si atom -5586.693617 kJ/mol
# Density = 2.490583 g / cm^3
# Si number density = 24.962644 Si / 1000 Ang^3
#
#
#
# Elastic Constant Matrix: (Units=GPa)
#
#
# Indices 1 2 3 4 5 6 
#
# 1 143.8970 43.2855 -16.2760 0.0000 0.0000 0.0000
# 2 43.2855 266.5398 12.5986 0.0000 0.0000 0.0000
# 3 -16.2760 12.5986 80.7595 0.0000 0.0000 0.0000
# 4 0.0000 0.0000 0.0000 -9.5393 0.0000 0.0000
# 5 0.0000 0.0000 0.0000 0.0000 41.7616 0.0000
# 6 0.0000 0.0000 0.0000 0.0000 0.0000 27.9124
#
#
#
# Elastic Compliance Matrix: (Units=1/GPa)
#
#
# Indices 1 2 3 4 5 6 
#
# 1 0.007537 -0.001305 0.001723 0.000000 0.000000 0.000000
# 2 -0.001305 0.004006 -0.000888 0.000000 0.000000 0.000000
# 3 0.001723 -0.000888 0.012868 0.000000 0.000000 0.000000
# 4 0.000000 0.000000 0.000000 -0.104830 0.000000 0.000000
# 5 0.000000 0.000000 0.000000 0.000000 0.023945 0.000000
# 6 0.000000 0.000000 0.000000 0.000000 0.000000 0.035826
#
#
# Mechanical properties :
#
#
# Convention : Reuss Voigt Hill
#
# Bulk Modulus (GPa) = 42.60892 63.37916 52.99404
# Shear Modulus (GPa) = -420.77695 42.13283 -189.32206
#
# Velocity S-wave (km/s) = -12.99725 4.11278 -8.71819
# Velocity P-wave (km/s) = 14.42678 6.92806 8.94801
#
# Compressibility (1/GPa) = 0.02346926
#
# Stress axis : x y z
#
# Youngs Moduli (GPa) = 132.67990 249.64095 77.71132
#
# Poissons Ratio (x) = 0.32588 -0.13387
# Poissons Ratio (y) = 0.17320 0.06901
# Poissons Ratio (z) = -0.22856 0.22168
#
# Static dielectric constant tensor:
#      x y z
#    x 1.874230 0.000000 0.000000 
#    y 0.000000 2.137590 0.000000 
#    z 0.000000 0.000000 1.915120 
# 
# From -- ./inp_files/41492.got.cif
#   From: 2010.05.17/outbox.cif.g08.bks.cpg/sg68_21_cif.got.tgz:41492.got - 2010.06.03 18:57:09.
