data_PCOD9505661
_publ_section_title
;
Structure prediction by ZEFSAII (Michael W. Deem and Ramdas Pophale) SiO2 
 PCOD9505661
Probable space group: C C C A
;
_chemical_formula_sum "Si O2"
_cell_formula_units_Z 88
_cell_length_a 22.806952
_cell_length_b 5.589591
_cell_length_c 35.826524
_cell_angle_alpha 90.000000
_cell_angle_beta 90.000000
_cell_angle_gamma 90.000000
_cell_volume 4567.220224
_symmetry_space_group_name_H-M "C C C A"
_symmetry_group_IT_number 68
_space_group.IT_coordinate_system_code '2'
_symmetry_cell_setting 'orthorhombic'
loop_
_space_group_symop_operation_xyz
x,y,z
-x,1/2-y,z
x,1/2-y,1/2-z
-x,y,1/2-z
-x,-y,-z
x,1/2+y,-z
-x,1/2+y,1/2+z
x,-y,1/2+z
1/2+x,1/2+y,z
1/2-x,-y,z
1/2+x,-y,1/2-z
1/2-x,1/2+y,1/2-z
1/2-x,1/2-y,-z
1/2+x,y,-z
1/2-x,y,1/2+z
1/2+x,1/2-y,1/2+z
loop_
_atom_site_type_symbol
_atom_site_label
_atom_site_fract_x
_atom_site_fract_y
_atom_site_fract_z
Si Si1 0.928651 0.746949 0.206569
Si Si2 0.750000 0.000000 0.912126
Si Si3 0.367686 0.219880 0.590450
Si Si4 0.190984 0.606370 0.036334
Si Si5 0.419118 0.623220 0.485598
Si Si6 0.929408 0.744665 0.832138
O O1 0.911481 0.750000 0.250000
O O2 0.909917 0.497954 0.186577
O O3 0.000000 0.750000 0.205230
O O4 0.909465 0.997968 0.187824
O O5 0.692993 0.111497 0.892697
O O6 0.782430 0.186474 0.938652
O O7 0.343192 0.440356 0.566068
O O8 0.405433 0.080861 0.558267
O O9 0.408786 0.269709 0.625177
O O10 0.250000 0.500000 0.018861
O O11 0.144465 0.667808 0.005048
O O12 0.445440 0.387136 0.505653
O O13 0.000000 0.750000 0.830415
#
# Coordination Sequence:
#
# PCOD9505661 Si02
#       6
#    16   8  16  16  16  16
#     4   9  18  35  60  87 110 132 166 212 262 316
#     4  10  18  32  48  74 102 140 178 236 272 310
#     4  10  21  31  49  74 111 139 179 218 274 318
#     4   9  19  30  46  70 101 138 181 233 277 307
#     4  10  19  30  45  67  97 136 177 225 268 310
#     4  10  21  35  56  83 115 144 165 208 268 325
#
# _framework density 19.267738000000001
#
# number of rings (size 3 to 8) (size 9 to 14) (size 15 to 20)
#    0.000    2.364    1.818    0.545    3.818    4.364 
#    0.000    0.000    0.000    4.364    0.000    2.545 
#    0.000    0.000    0.000    0.000    0.000    0.000 
#
# Total GULP energy -244991.301086 kJ/mol
# GULP energy per Si atom -5567.984116 kJ/mol
# Density = 1.922388 g / cm^3
# Si number density = 19.267738 Si / 1000 Ang^3
#
#
#
# Elastic Constant Matrix: (Units=GPa)
#
#
# Indices 1 2 3 4 5 6 
#
# 1 28.4240 23.8879 8.9933 0.0000 0.0000 0.0000
# 2 23.8879 122.1438 42.2845 0.0000 0.0000 0.0000
# 3 8.9933 42.2845 111.9078 0.0000 0.0000 0.0000
# 4 0.0000 0.0000 0.0000 10.9914 0.0000 0.0000
# 5 0.0000 0.0000 0.0000 0.0000 22.6578 0.0000
# 6 0.0000 0.0000 0.0000 0.0000 0.0000 26.3175
#
#
#
# Elastic Compliance Matrix: (Units=1/GPa)
#
#
# Indices 1 2 3 4 5 6 
#
# 1 0.042111 -0.008127 -0.000313 0.000000 0.000000 0.000000
# 2 -0.008127 0.010988 -0.003499 0.000000 0.000000 0.000000
# 3 -0.000313 -0.003499 0.010283 0.000000 0.000000 0.000000
# 4 0.000000 0.000000 0.000000 0.090980 0.000000 0.000000
# 5 0.000000 0.000000 0.000000 0.000000 0.044135 0.000000
# 6 0.000000 0.000000 0.000000 0.000000 0.000000 0.037997
#
#
# Mechanical properties :
#
#
# Convention : Reuss Voigt Hill
#
# Bulk Modulus (GPa) = 25.31430 45.86743 35.59087
# Shear Modulus (GPa) = 18.27887 24.48069 21.37978
#
# Velocity S-wave (km/s) = 3.08340 3.56835 3.33470
# Velocity P-wave (km/s) = 5.08362 6.39019 5.77398
#
# Compressibility (1/GPa) = 0.03950336
#
# Stress axis : x y z
#
# Youngs Moduli (GPa) = 23.74686 91.01092 97.24748
#
# Poissons Ratio (x) = 0.73967 0.03047
# Poissons Ratio (y) = 0.19300 0.34023
# Poissons Ratio (z) = 0.00744 0.31841
#
# Static dielectric constant tensor:
#      x y z
#    x 1.716780 0.000000 0.000000 
#    y 0.000000 1.859620 0.000000 
#    z 0.000000 0.000000 1.624450 
# 
# From -- ./inp_files/56163.got.cif
#   From: 2010.05.17/outbox.cif.g08.bks.cpg/sg68_29_cif.got.tgz:56163.got - 2010.06.03 18:57:09.
