data_PCOD9505714
_publ_section_title
;
Structure prediction by ZEFSAII (Michael W. Deem and Ramdas Pophale) SiO2 
 PCOD9505714
Probable space group: C C C A
;
_chemical_formula_sum "Si O2"
_cell_formula_units_Z 72
_cell_length_a 24.868201
_cell_length_b 15.555820
_cell_length_c 9.233037
_cell_angle_alpha 90.000000
_cell_angle_beta 90.000000
_cell_angle_gamma 90.000000
_cell_volume 3571.756585
_symmetry_space_group_name_H-M "C C C A"
_symmetry_group_IT_number 68
_space_group.IT_coordinate_system_code '2'
_symmetry_cell_setting 'orthorhombic'
loop_
_space_group_symop_operation_xyz
x,y,z
-x,1/2-y,z
x,1/2-y,1/2-z
-x,y,1/2-z
-x,-y,-z
x,1/2+y,-z
-x,1/2+y,1/2+z
x,-y,1/2+z
1/2+x,1/2+y,z
1/2-x,-y,z
1/2+x,-y,1/2-z
1/2-x,1/2+y,1/2-z
1/2-x,1/2-y,-z
1/2+x,y,-z
1/2-x,y,1/2+z
1/2+x,1/2-y,1/2+z
loop_
_atom_site_type_symbol
_atom_site_label
_atom_site_fract_x
_atom_site_fract_y
_atom_site_fract_z
Si Si1 0.876696 0.486679 0.552888
Si Si2 0.685343 0.345491 0.571640
Si Si3 0.278894 0.592915 0.107424
Si Si4 0.060296 0.436251 0.200779
Si Si5 0.109905 0.750000 0.750000
O O1 0.854416 0.581027 0.511793
O O2 0.828365 0.424148 0.503573
O O3 0.928601 0.456614 0.465157
O O4 0.896880 0.502634 0.715460
O O5 0.704821 0.378713 0.730971
O O6 0.735649 0.343491 0.465011
O O7 0.649191 0.263791 0.611589
O O8 0.250000 0.500000 0.120841
O O9 0.076192 0.337098 0.233394
O O10 0.000000 0.451811 0.250000
#
# Coordination Sequence:
#
# PCOD9505714 Si02
#       5
#    16  16  16  16   8
#     4  10  19  36  57  86 112 145 195 241 280 342
#     4  10  21  33  58  82 122 150 187 223 285 352
#     4  10  18  33  56  86 113 152 183 231 279 338
#     4  11  22  38  62  84 111 150 199 246 291 333
#     4  10  21  40  52  88 120 154 187 236 288 346
#
# _framework density 20.158147
#
# number of rings (size 3 to 8) (size 9 to 14) (size 15 to 20)
#    0.000    1.778    4.444    3.000    3.111    0.889 
#    0.000    0.000    0.000    5.333    0.000   12.444 
#    0.000    0.000    0.000    0.000    0.000    0.000 
#
# Total GULP energy -200698.891802 kJ/mol
# GULP energy per Si atom -5574.969217 kJ/mol
# Density = 2.011227 g / cm^3
# Si number density = 20.158147 Si / 1000 Ang^3
#
#
#
# Elastic Constant Matrix: (Units=GPa)
#
#
# Indices 1 2 3 4 5 6 
#
# 1 84.4228 6.9108 9.9339 0.0000 0.0000 0.0000
# 2 6.9108 54.3773 21.3800 0.0000 0.0000 0.0000
# 3 9.9339 21.3800 57.7678 0.0000 0.0000 0.0000
# 4 0.0000 0.0000 0.0000 25.4591 0.0000 0.0000
# 5 0.0000 0.0000 0.0000 0.0000 25.3353 0.0000
# 6 0.0000 0.0000 0.0000 0.0000 0.0000 28.3893
#
#
#
# Elastic Compliance Matrix: (Units=1/GPa)
#
#
# Indices 1 2 3 4 5 6 
#
# 1 0.012123 -0.000844 -0.001772 0.000000 0.000000 0.000000
# 2 -0.000844 0.021581 -0.007842 0.000000 0.000000 0.000000
# 3 -0.001772 -0.007842 0.020518 0.000000 0.000000 0.000000
# 4 0.000000 0.000000 0.000000 0.039279 0.000000 0.000000
# 5 0.000000 0.000000 0.000000 0.000000 0.039471 0.000000
# 6 0.000000 0.000000 0.000000 0.000000 0.000000 0.035225
#
#
# Mechanical properties :
#
#
# Convention : Reuss Voigt Hill
#
# Bulk Modulus (GPa) = 30.02563 30.33527 30.18045
# Shear Modulus (GPa) = 24.97342 26.39293 25.68317
#
# Velocity S-wave (km/s) = 3.52358 3.62234 3.57330
# Velocity P-wave (km/s) = 5.61084 5.70758 5.65942
#
# Compressibility (1/GPa) = 0.03330488
#
# Stress axis : x y z
#
# Youngs Moduli (GPa) = 82.48938 46.33800 48.73825
#
# Poissons Ratio (x) = 0.03910 0.08638
# Poissons Ratio (y) = 0.06961 0.38220
# Poissons Ratio (z) = 0.14620 0.36338
#
# Static dielectric constant tensor:
#      x y z
#    x 1.752470 0.000000 0.000000 
#    y 0.000000 1.751490 0.000000 
#    z 0.000000 0.000000 1.696590 
# 
# From -- ./inp_files/5193.got.cif
#   From: 2010.05.17/outbox.cif.g08.bks.cpg/sg68_3_cif.got.tgz:5193.got - 2010.06.03 18:57:09.
