data_PCOD9505244
_publ_section_title
;
Structure prediction by ZEFSAII (Michael W. Deem and Ramdas Pophale) SiO2 
 PCOD9505244
Probable space group: C M M A
;
_chemical_formula_sum "Si O2"
_cell_formula_units_Z 56
_cell_length_a 15.000000
_cell_length_b 30.000000
_cell_length_c 12.000000
_cell_angle_alpha 90.000000
_cell_angle_beta 90.000000
_cell_angle_gamma 90.000000
_cell_volume 5400.000000
_symmetry_space_group_name_H-M "C M M A"
_symmetry_group_IT_number 67
_symmetry_cell_setting 'orthorhombic'
loop_
_space_group_symop_operation_xyz
x,y,z
-x,1/2-y,z
x,-y,-z
-x,1/2+y,-z
-x,-y,-z
x,1/2+y,-z
-x,y,z
x,1/2-y,z
1/2+x,1/2+y,z
1/2-x,-y,z
1/2+x,1/2-y,-z
1/2-x,y,-z
1/2-x,1/2-y,-z
1/2+x,y,-z
1/2-x,1/2+y,z
1/2+x,-y,z
loop_
_atom_site_type_symbol
_atom_site_label
_atom_site_fract_x
_atom_site_fract_y
_atom_site_fract_z
Si Si1 0.792525 0.696488 0.758266
Si Si2 0.900488 0.454716 0.950914
Si Si3 0.394968 0.447642 0.467599
Si Si4 0.603441 0.354180 0.565733
Si Si5 0.277211 0.947874 0.744572
Si Si6 0.898911 0.697160 0.331909
Si Si7 0.176431 0.384348 0.098928
O O1 0.808403 0.750000 0.765661
O O2 0.834768 0.674729 0.646917
O O3 0.685038 0.689068 0.749344
O O4 0.832992 0.665999 0.857249
O O5 0.851412 0.442432 0.839169
O O6 0.000000 0.466668 0.920096
O O7 0.857454 0.500000 0.000000
O O8 0.897743 0.414636 0.039281
O O9 0.382489 0.500000 0.500000
O O10 0.500000 0.443631 0.433886
O O11 0.380700 0.407673 0.556555
O O12 0.324218 0.437553 0.371394
O O13 0.500000 0.348326 0.600606
O O14 0.611760 0.333191 0.441687
O O15 0.204155 0.913833 0.792846
O O16 0.250000 0.000000 0.742448
O O17 0.894042 0.750000 0.362697
O O18 0.000000 0.689245 0.287773
O O19 0.250000 0.383922 0.000000
#
# Coordination Sequence:
#
# PCOD9505244 Si02
#       7
#    16  16  16  16  16  16  16
#     4  11  23  39  62  92 122 162 212 266 325 380
#     4  10  20  37  62  88 119 160 206 254 312 375
#     4  10  23  40  56  84 124 166 207 246 300 371
#     4  10  21  37  58  84 123 165 205 255 308 376
#     4  11  21  36  59  88 119 158 202 252 306 373
#     4   9  18  35  60  88 117 154 203 256 309 373
#     4  10  23  40  60  88 119 155 203 262 311 371
#
# _framework density 10.370369999999999
#
# number of rings (size 3 to 8) (size 9 to 14) (size 15 to 20)
#    0.000    1.857    1.429    2.143    2.000    3.143 
#    0.000    2.857    0.000    0.000    0.000    2.000 
#    0.000    0.000    0.000    0.000    0.000    0.000 
#
# Total GULP energy -312415.383278 kJ/mol
# GULP energy per Si atom -5578.846130 kJ/mol
# Density = 1.034677 g / cm^3
# Si number density = 10.370370 Si / 1000 Ang^3
#
#
#
# Elastic Constant Matrix: (Units=GPa)
#
#
# Indices 1 2 3 4 5 6 
#
# 1 67.8761 17.7766 21.6200 0.0000 0.0000 0.0000
# 2 17.7766 125.5947 14.8574 0.0000 0.0000 0.0000
# 3 21.6200 14.8574 53.3777 0.0000 0.0000 0.0000
# 4 0.0000 0.0000 0.0000 34.8491 0.0000 0.0000
# 5 0.0000 0.0000 0.0000 0.0000 10.2283 0.0000
# 6 0.0000 0.0000 0.0000 0.0000 0.0000 15.6151
#
#
#
# Elastic Compliance Matrix: (Units=1/GPa)
#
#
# Indices 1 2 3 4 5 6 
#
# 1 0.017247 -0.001670 -0.006521 0.000000 0.000000 0.000000
# 2 -0.001670 0.008395 -0.001660 0.000000 0.000000 0.000000
# 3 -0.006521 -0.001660 0.021838 0.000000 0.000000 0.000000
# 4 0.000000 0.000000 0.000000 0.028695 0.000000 0.000000
# 5 0.000000 0.000000 0.000000 0.000000 0.097767 0.000000
# 6 0.000000 0.000000 0.000000 0.000000 0.000000 0.064040
#
#
# Mechanical properties :
#
#
# Convention : Reuss Voigt Hill
#
# Bulk Modulus (GPa) = 36.00018 39.48406 37.74212
# Shear Modulus (GPa) = 18.73051 24.97816 21.85434
#
# Velocity S-wave (km/s) = 3.00839 3.47407 3.24958
# Velocity P-wave (km/s) = 5.42790 5.93047 5.68474
#
# Compressibility (1/GPa) = 0.02777764
#
# Stress axis : x y z
#
# Youngs Moduli (GPa) = 57.98079 119.12042 45.79218
#
# Poissons Ratio (x) = 0.19890 0.29861
# Poissons Ratio (y) = 0.09681 0.07603
# Poissons Ratio (z) = 0.37809 0.19778
#
# Static dielectric constant tensor:
#      x y z
#    x 1.777560 0.000000 0.000000 
#    y 0.000000 1.777280 0.000000 
#    z 0.000000 0.000000 1.736910 
# 
# From -- ./inp_files/18647.got.cif
#   From: 2010.05.17/outbox.ucp.g08.bks.cvg/sg67_10_cif.got.tgz:18647.got - 2010.06.11 16:47:20.
