data_PCOD9505196
_publ_section_title
;
Structure prediction by ZEFSAII (Michael W. Deem and Ramdas Pophale) SiO2 
 PCOD9505196
Probable space group: C M M A
;
_chemical_formula_sum "Si O2"
_cell_formula_units_Z 48
_cell_length_a 21.000000
_cell_length_b 15.000000
_cell_length_c 15.000000
_cell_angle_alpha 90.000000
_cell_angle_beta 90.000000
_cell_angle_gamma 90.000000
_cell_volume 4725.000000
_symmetry_space_group_name_H-M "C M M A"
_symmetry_group_IT_number 67
_symmetry_cell_setting 'orthorhombic'
loop_
_space_group_symop_operation_xyz
x,y,z
-x,1/2-y,z
x,-y,-z
-x,1/2+y,-z
-x,-y,-z
x,1/2+y,-z
-x,y,z
x,1/2-y,z
1/2+x,1/2+y,z
1/2-x,-y,z
1/2+x,1/2-y,-z
1/2-x,y,-z
1/2-x,1/2-y,-z
1/2+x,y,-z
1/2-x,1/2+y,z
1/2+x,-y,z
loop_
_atom_site_type_symbol
_atom_site_label
_atom_site_fract_x
_atom_site_fract_y
_atom_site_fract_z
Si Si1 0.312908 0.097524 0.043655
Si Si2 0.872542 0.142072 0.262586
Si Si3 0.805599 0.146933 0.563733
Si Si4 0.278665 0.857333 0.758370
Si Si5 0.429452 0.644574 0.073825
Si Si6 0.572864 0.597141 0.454042
O O1 0.304344 0.099799 0.150080
O O2 0.250000 0.143080 0.000000
O O3 0.378881 0.134675 0.005657
O O4 0.313189 0.000000 0.000000
O O5 0.880897 0.250000 0.271680
O O6 0.796874 0.126501 0.253634
O O7 0.903571 0.110121 0.169368
O O8 0.903320 0.099730 0.351321
O O9 0.786291 0.250000 0.578399
O O10 0.750000 0.107570 0.500000
O O11 0.808990 0.109968 0.664579
O O12 0.872024 0.144947 0.511385
O O13 0.288308 0.750000 0.769262
O O14 0.500000 0.608439 0.054207
O O15 0.434741 0.750000 0.087895
O O16 0.571583 0.500000 0.500000
O O17 0.500000 0.632363 0.457887
#
# Coordination Sequence:
#
# PCOD9505196 Si02
#       6
#    16  16  16  16  16  16
#     4  11  23  38  57  88 123 160 195 240 299 369
#     4  10  19  36  63  89 114 149 199 259 300 336
#     4  10  20  38  61  88 117 151 202 254 300 352
#     4  10  20  37  63  90 117 152 202 256 300 349
#     4  10  21  37  60  89 117 152 202 253 300 350
#     4  11  24  39  55  85 126 164 198 237 298 365
#
# _framework density 10.15873
#
# number of rings (size 3 to 8) (size 9 to 14) (size 15 to 20)
#    0.000    1.667    3.333    1.500    0.000    4.667 
#    0.000    0.833    0.000    1.000    0.000    0.000 
#    0.000    0.000    0.000    0.000    0.000    0.000 
#
# Total GULP energy -267913.315965 kJ/mol
# GULP energy per Si atom -5581.527416 kJ/mol
# Density = 1.013561 g / cm^3
# Si number density = 10.158730 Si / 1000 Ang^3
#
#
#
# Elastic Constant Matrix: (Units=GPa)
#
#
# Indices 1 2 3 4 5 6 
#
# 1 153.0440 9.3858 88.9334 0.0000 0.0000 0.0000
# 2 9.3858 44.5437 20.0652 0.0000 0.0000 0.0000
# 3 88.9334 20.0652 217.2658 0.0000 0.0000 0.0000
# 4 0.0000 0.0000 0.0000 24.2929 0.0000 0.0000
# 5 0.0000 0.0000 0.0000 0.0000 28.5981 0.0000
# 6 0.0000 0.0000 0.0000 0.0000 0.0000 20.7737
#
#
#
# Elastic Compliance Matrix: (Units=1/GPa)
#
#
# Indices 1 2 3 4 5 6 
#
# 1 0.008576 -0.000236 -0.003489 0.000000 0.000000 0.000000
# 2 -0.000236 0.023431 -0.002068 0.000000 0.000000 0.000000
# 3 -0.003489 -0.002068 0.006222 0.000000 0.000000 0.000000
# 4 0.000000 0.000000 0.000000 0.041164 0.000000 0.000000
# 5 0.000000 0.000000 0.000000 0.000000 0.034967 0.000000
# 6 0.000000 0.000000 0.000000 0.000000 0.000000 0.048138
#
#
# Mechanical properties :
#
#
# Convention : Reuss Voigt Hill
#
# Bulk Modulus (GPa) = 37.53058 72.40248 54.96653
# Shear Modulus (GPa) = 27.32804 34.49755 30.91280
#
# Velocity S-wave (km/s) = 3.67147 4.12506 3.90486
# Velocity P-wave (km/s) = 6.04029 7.64206 6.88790
#
# Compressibility (1/GPa) = 0.02664494
#
# Stress axis : x y z
#
# Youngs Moduli (GPa) = 116.60864 42.67880 160.73138
#
# Poissons Ratio (x) = 0.01005 0.56072
# Poissons Ratio (y) = 0.02747 0.33231
# Poissons Ratio (z) = 0.40679 0.08824
#
# Static dielectric constant tensor:
#      x y z
#    x 1.759210 0.000000 0.000000 
#    y 0.000000 1.016070 0.000000 
#    z 0.000000 0.000000 1.709000 
# 
# From -- ./inp_files/29260.got.cif
#   From: 2010.05.17/outbox.ucp.g08.bks.cvg/sg67_15_cif.got.tgz:29260.got - 2010.06.11 16:47:20.
