data_PCOD9505356
_publ_section_title
;
Structure prediction by ZEFSAII (Michael W. Deem and Ramdas Pophale) SiO2 
 PCOD9505356
Probable space group: C C C A
;
_chemical_formula_sum "Si O2"
_cell_formula_units_Z 80
_cell_length_a 20.902457
_cell_length_b 37.643965
_cell_length_c 5.039723
_cell_angle_alpha 90.000000
_cell_angle_beta 90.000000
_cell_angle_gamma 90.000000
_cell_volume 3965.512895
_symmetry_space_group_name_H-M "C C C A"
_symmetry_group_IT_number 68
_space_group.IT_coordinate_system_code '2'
_symmetry_cell_setting 'orthorhombic'
loop_
_space_group_symop_operation_xyz
x,y,z
-x,1/2-y,z
x,1/2-y,1/2-z
-x,y,1/2-z
-x,-y,-z
x,1/2+y,-z
-x,1/2+y,1/2+z
x,-y,1/2+z
1/2+x,1/2+y,z
1/2-x,-y,z
1/2+x,-y,1/2-z
1/2-x,1/2+y,1/2-z
1/2-x,1/2-y,-z
1/2+x,y,-z
1/2-x,y,1/2+z
1/2+x,1/2-y,1/2+z
loop_
_atom_site_type_symbol
_atom_site_label
_atom_site_fract_x
_atom_site_fract_y
_atom_site_fract_z
Si Si1 0.327901 0.787554 0.205063
Si Si2 0.789847 0.091942 0.929672
Si Si3 0.323081 0.515233 0.739831
Si Si4 0.957470 0.301844 0.990449
Si Si5 0.155187 0.833202 0.237876
O O1 0.293697 0.750000 0.250000
O O2 0.396971 0.777886 0.071820
O O3 0.341752 0.807999 0.479038
O O4 0.302930 0.814918 0.976883
O O5 0.726860 0.091911 0.740209
O O6 0.822096 0.054951 0.847682
O O7 0.824426 0.127911 0.847123
O O8 0.353476 0.510715 0.454403
O O9 0.250000 0.500000 0.694918
O O10 0.916141 0.334139 0.864237
O O11 0.000000 0.288362 0.750000
O O12 0.000000 0.308734 0.250000
#
# Coordination Sequence:
#
# PCOD9505356 Si02
#       5
#    16  16  16  16  16
#     4  10  20  36  52  72 103 131 166 221 263 302
#     4  12  21  33  55  73 108 141 167 206 243 308
#     4  10  16  30  47  78 102 129 150 198 261 297
#     4  10  18  34  51  76 102 127 163 215 262 316
#     4  10  22  34  48  78 100 136 175 202 260 306
#
# _framework density 20.173935
#
# number of rings (size 3 to 8) (size 9 to 14) (size 15 to 20)
#    1.200    0.400    6.000    1.800    0.000    0.400 
#    3.600    0.000    0.000   12.000    0.000    0.000 
#    0.000    4.800    0.000    0.000    0.000    0.000 
#
# Total GULP energy -222721.656162 kJ/mol
# GULP energy per Si atom -5568.041404 kJ/mol
# Density = 2.012802 g / cm^3
# Si number density = 20.173935 Si / 1000 Ang^3
#
#
#
# Elastic Constant Matrix: (Units=GPa)
#
#
# Indices 1 2 3 4 5 6 
#
# 1 42.6044 4.1107 6.7104 0.0000 0.0000 0.0000
# 2 4.1107 112.6312 10.6335 0.0000 0.0000 0.0000
# 3 6.7104 10.6335 132.7682 0.0000 0.0000 0.0000
# 4 0.0000 0.0000 0.0000 23.8682 0.0000 0.0000
# 5 0.0000 0.0000 0.0000 0.0000 14.8688 0.0000
# 6 0.0000 0.0000 0.0000 0.0000 0.0000 4.3723
#
#
#
# Elastic Compliance Matrix: (Units=1/GPa)
#
#
# Indices 1 2 3 4 5 6 
#
# 1 0.023724 -0.000758 -0.001138 0.000000 0.000000 0.000000
# 2 -0.000758 0.008970 -0.000680 0.000000 0.000000 0.000000
# 3 -0.001138 -0.000680 0.007644 0.000000 0.000000 0.000000
# 4 0.000000 0.000000 0.000000 0.041897 0.000000 0.000000
# 5 0.000000 0.000000 0.000000 0.000000 0.067255 0.000000
# 6 0.000000 0.000000 0.000000 0.000000 0.000000 0.228711
#
#
# Mechanical properties :
#
#
# Convention : Reuss Voigt Hill
#
# Bulk Modulus (GPa) = 28.42129 36.76809 32.59469
# Shear Modulus (GPa) = 12.65557 26.39181 19.52369
#
# Velocity S-wave (km/s) = 2.50736 3.62085 3.11427
# Velocity P-wave (km/s) = 4.74354 5.97878 5.39662
#
# Compressibility (1/GPa) = 0.03518490
#
# Stress axis : x y z
#
# Youngs Moduli (GPa) = 42.15105 111.47749 130.82282
#
# Poissons Ratio (x) = 0.08454 0.14892
# Poissons Ratio (y) = 0.03197 0.08897
# Poissons Ratio (z) = 0.04798 0.07582
#
# Static dielectric constant tensor:
#      x y z
#    x 1.834650 0.000000 0.000000 
#    y 0.000000 1.753930 0.000000 
#    z 0.000000 0.000000 1.813710 
# 
# From -- ./inp_files/2003.got.cif
#   From: 2010.05.17/outbox.cif.g08.bks.cpg/sg68_2_cif.got.tgz:2003.got - 2010.06.03 18:57:09.
