data_PCOD9505472
_publ_section_title
;
Structure prediction by ZEFSAII (Michael W. Deem and Ramdas Pophale) SiO2 
 PCOD9505472
Probable space group: C C C A
;
_chemical_formula_sum "Si O2"
_cell_formula_units_Z 104
_cell_length_a 7.453142
_cell_length_b 30.251877
_cell_length_c 19.687775
_cell_angle_alpha 90.000000
_cell_angle_beta 90.000000
_cell_angle_gamma 90.000000
_cell_volume 4439.032851
_symmetry_space_group_name_H-M "C C C A"
_symmetry_group_IT_number 68
_space_group.IT_coordinate_system_code '2'
_symmetry_cell_setting 'orthorhombic'
loop_
_space_group_symop_operation_xyz
x,y,z
-x,1/2-y,z
x,1/2-y,1/2-z
-x,y,1/2-z
-x,-y,-z
x,1/2+y,-z
-x,1/2+y,1/2+z
x,-y,1/2+z
1/2+x,1/2+y,z
1/2-x,-y,z
1/2+x,-y,1/2-z
1/2-x,1/2+y,1/2-z
1/2-x,1/2-y,-z
1/2+x,y,-z
1/2-x,y,1/2+z
1/2+x,1/2-y,1/2+z
loop_
_atom_site_type_symbol
_atom_site_label
_atom_site_fract_x
_atom_site_fract_y
_atom_site_fract_z
Si Si1 0.305611 0.294576 0.714854
Si Si2 0.212659 0.670427 0.932912
Si Si3 0.500000 0.250000 0.592380
Si Si4 0.750000 0.000000 0.666184
Si Si5 0.000000 0.432384 0.250000
Si Si6 0.553588 0.924298 0.601113
Si Si7 0.099821 0.113023 0.469304
Si Si8 0.692058 0.368601 0.200099
O O1 0.231165 0.250000 0.750000
O O2 0.500000 0.303142 0.750000
O O3 0.368620 0.280402 0.639753
O O4 0.190247 0.338260 0.731140
O O5 0.289083 0.669260 0.857350
O O6 0.121923 0.716341 0.947290
O O7 0.079676 0.627912 0.932574
O O8 0.351201 0.657398 0.989872
O O9 0.635428 0.035598 0.708811
O O10 0.893092 0.026687 0.621648
O O11 0.864836 0.400185 0.209730
O O12 0.740834 0.900695 0.579986
O O13 0.439065 0.920690 0.531384
O O14 0.455933 0.900952 0.665230
#
# Coordination Sequence:
#
# PCOD9505472 Si02
#       8
#    16  16   8   8   8  16  16  16
#     4   9  15  29  53  95 120 158 216 243 294 381
#     4  10  18  33  57  84 118 161 213 252 319 364
#     4  10  17  28  54  86 120 166 206 265 296 370
#     4  12  26  44  62  96 122 164 206 272 326 402
#     4  12  24  40  63  92 130 158 211 248 324 408
#     4  10  23  41  66  90 127 160 216 269 334 383
#     4   9  21  40  58  89 117 164 215 268 319 397
#     4  11  19  36  64  92 123 174 199 257 318 385
#
# _framework density 23.428528
#
# number of rings (size 3 to 8) (size 9 to 14) (size 15 to 20)
#    0.000    2.000    3.846    1.846    0.000    1.231 
#    0.000    0.000    0.000    0.000   12.000    0.000 
#    0.000    0.000    0.000    0.000    0.000    0.000 
#
# Total GULP energy -290156.341190 kJ/mol
# GULP energy per Si atom -5579.929638 kJ/mol
# Density = 2.337520 g / cm^3
# Si number density = 23.428528 Si / 1000 Ang^3
#
#
#
# Elastic Constant Matrix: (Units=GPa)
#
#
# Indices 1 2 3 4 5 6 
#
# 1 81.0682 26.1347 28.5001 0.0000 0.0000 0.0000
# 2 26.1347 115.6924 45.0049 0.0000 0.0000 0.0000
# 3 28.5001 45.0049 79.4012 0.0000 0.0000 0.0000
# 4 0.0000 0.0000 0.0000 21.3717 0.0000 0.0000
# 5 0.0000 0.0000 0.0000 0.0000 31.3751 0.0000
# 6 0.0000 0.0000 0.0000 0.0000 0.0000 37.4684
#
#
#
# Elastic Compliance Matrix: (Units=1/GPa)
#
#
# Indices 1 2 3 4 5 6 
#
# 1 0.014340 -0.001587 -0.004248 0.000000 0.000000 0.000000
# 2 -0.001587 0.011264 -0.005815 0.000000 0.000000 0.000000
# 3 -0.004248 -0.005815 0.017415 0.000000 0.000000 0.000000
# 4 0.000000 0.000000 0.000000 0.046791 0.000000 0.000000
# 5 0.000000 0.000000 0.000000 0.000000 0.031872 0.000000
# 6 0.000000 0.000000 0.000000 0.000000 0.000000 0.026689
#
#
# Mechanical properties :
#
#
# Convention : Reuss Voigt Hill
#
# Bulk Modulus (GPa) = 50.71022 52.82681 51.76852
# Shear Modulus (GPa) = 28.05138 29.81118 28.93128
#
# Velocity S-wave (km/s) = 3.46398 3.57098 3.51789
# Velocity P-wave (km/s) = 6.13926 6.29282 6.21651
#
# Compressibility (1/GPa) = 0.01971989
#
# Stress axis : x y z
#
# Youngs Moduli (GPa) = 69.73390 88.77723 57.42227
#
# Poissons Ratio (x) = 0.14089 0.24391
# Poissons Ratio (y) = 0.11067 0.33391
# Poissons Ratio (z) = 0.29621 0.51623
#
# Static dielectric constant tensor:
#      x y z
#    x 2.028290 0.000000 0.000000 
#    y 0.000000 1.850790 0.000000 
#    z 0.000000 0.000000 1.959320 
# 
# From -- ./inp_files/36737.got.cif
#   From: 2010.05.17/outbox.cif.g08.bks.cpg/sg68_19_cif.got.tgz:36737.got - 2010.06.03 18:57:09.
