data_PCOD9505133
_publ_section_title
;
Structure prediction by ZEFSAII (Michael W. Deem and Ramdas Pophale) SiO2 
 PCOD9505133
Probable space group: C M M A
;
_chemical_formula_sum "Si O2"
_cell_formula_units_Z 80
_cell_length_a 7.729500
_cell_length_b 39.107940
_cell_length_c 14.131119
_cell_angle_alpha 90.000000
_cell_angle_beta 90.000000
_cell_angle_gamma 90.000000
_cell_volume 4271.622795
_symmetry_space_group_name_H-M "C M M A"
_symmetry_group_IT_number 67
_symmetry_cell_setting 'orthorhombic'
loop_
_space_group_symop_operation_xyz
x,y,z
-x,1/2-y,z
x,-y,-z
-x,1/2+y,-z
-x,-y,-z
x,1/2+y,-z
-x,y,z
x,1/2-y,z
1/2+x,1/2+y,z
1/2-x,-y,z
1/2+x,1/2-y,-z
1/2-x,y,-z
1/2-x,1/2-y,-z
1/2+x,y,-z
1/2-x,1/2+y,z
1/2+x,-y,z
loop_
_atom_site_type_symbol
_atom_site_label
_atom_site_fract_x
_atom_site_fract_y
_atom_site_fract_z
Si Si1 0.788187 0.857089 0.704485
Si Si2 0.708251 0.712093 0.389518
Si Si3 0.292411 0.538474 0.203470
Si Si4 0.207340 0.606780 0.893305
Si Si5 0.207218 0.926600 0.607169
O O1 0.726432 0.820315 0.669318
O O2 0.732719 0.867932 0.809948
O O3 0.733706 0.888245 0.635503
O O4 0.000000 0.856495 0.703018
O O5 0.500000 0.712614 0.380434
O O6 0.772938 0.750000 0.362207
O O7 0.750000 0.706998 0.500000
O O8 0.500000 0.540715 0.204887
O O9 0.250000 0.500000 0.176425
O O10 0.228728 0.568648 0.134414
O O11 0.229346 0.548209 0.309587
O O12 0.000000 0.606061 0.886307
O O13 0.250000 0.616184 0.000000
O O14 0.250000 0.935749 0.500000
O O15 0.000000 0.926210 0.613701
#
# Coordination Sequence:
#
# PCOD9505133 Si02
#       5
#    16  16  16  16  16
#     4   8  15  29  46  63  88 118 145 176 213 255
#     4   9  16  26  43  68  95 122 149 175 207 248
#     4   9  19  33  46  62  86 113 140 174 217 262
#     4   9  18  33  50  66  84 109 143 181 220 260
#     4   9  17  29  44  62  85 115 147 176 209 250
#
# _framework density 18.728245999999999
#
# number of rings (size 3 to 8) (size 9 to 14) (size 15 to 20)
#    0.000    3.200    0.000    3.000    0.000    2.400 
#    0.000    8.000    0.000    0.600    0.000    0.000 
#    0.000    0.000    0.000    0.000    0.000    0.000 
#
# Total GULP energy -222905.358163 kJ/mol
# GULP energy per Si atom -5572.633954 kJ/mol
# Density = 1.868562 g / cm^3
# Si number density = 18.728246 Si / 1000 Ang^3
#
#
#
# Elastic Constant Matrix: (Units=GPa)
#
#
# Indices 1 2 3 4 5 6 
#
# 1 24.8806 3.4352 -3.2401 0.0000 0.0000 0.0000
# 2 3.4352 117.8289 24.4803 0.0000 0.0000 0.0000
# 3 -3.2401 24.4803 66.3515 0.0000 0.0000 0.0000
# 4 0.0000 0.0000 0.0000 14.1612 0.0000 0.0000
# 5 0.0000 0.0000 0.0000 0.0000 22.3560 0.0000
# 6 0.0000 0.0000 0.0000 0.0000 0.0000 9.6940
#
#
#
# Elastic Compliance Matrix: (Units=1/GPa)
#
#
# Indices 1 2 3 4 5 6 
#
# 1 0.040774 -0.001735 0.002631 0.000000 0.000000 0.000000
# 2 -0.001735 0.009265 -0.003503 0.000000 0.000000 0.000000
# 3 0.002631 -0.003503 0.016492 0.000000 0.000000 0.000000
# 4 0.000000 0.000000 0.000000 0.070615 0.000000 0.000000
# 5 0.000000 0.000000 0.000000 0.000000 0.044731 0.000000
# 6 0.000000 0.000000 0.000000 0.000000 0.000000 0.103156
#
#
# Mechanical properties :
#
#
# Convention : Reuss Voigt Hill
#
# Bulk Modulus (GPa) = 16.30862 28.71244 22.51053
# Shear Modulus (GPa) = 16.09333 21.53462 18.81398
#
# Velocity S-wave (km/s) = 2.93458 3.39462 3.17295
# Velocity P-wave (km/s) = 4.49547 5.54337 5.04669
#
# Compressibility (1/GPa) = 0.06131726
#
# Stress axis : x y z
#
# Youngs Moduli (GPa) = 24.52532 107.92963 60.63461
#
# Poissons Ratio (x) = 0.18730 -0.15955
# Poissons Ratio (y) = 0.04256 0.21241
# Poissons Ratio (z) = -0.06454 0.37810
#
# Static dielectric constant tensor:
#      x y z
#    x 1.698930 0.000000 0.000000 
#    y 0.000000 1.661010 0.000000 
#    z 0.000000 0.000000 1.637830 
# 
# From -- ./inp_files/16770.got.cif
#   From: 2010.05.17/outbox.cif.g08.bks.cpg/sg67_9_cif.got.tgz:16770.got - 2010.06.03 18:28:57.
