data_PCOD9505177
_publ_section_title
;
Structure prediction by ZEFSAII (Michael W. Deem and Ramdas Pophale) SiO2 
 PCOD9505177
Probable space group: C M M A
;
_chemical_formula_sum "Si O2"
_cell_formula_units_Z 48
_cell_length_a 15.000000
_cell_length_b 21.000000
_cell_length_c 15.000000
_cell_angle_alpha 90.000000
_cell_angle_beta 90.000000
_cell_angle_gamma 90.000000
_cell_volume 4725.000000
_symmetry_space_group_name_H-M "C M M A"
_symmetry_group_IT_number 67
_symmetry_cell_setting 'orthorhombic'
loop_
_space_group_symop_operation_xyz
x,y,z
-x,1/2-y,z
x,-y,-z
-x,1/2+y,-z
-x,-y,-z
x,1/2+y,-z
-x,y,z
x,1/2-y,z
1/2+x,1/2+y,z
1/2-x,-y,z
1/2+x,1/2-y,-z
1/2-x,y,-z
1/2-x,1/2-y,-z
1/2+x,y,-z
1/2-x,1/2+y,z
1/2+x,-y,z
loop_
_atom_site_type_symbol
_atom_site_label
_atom_site_fract_x
_atom_site_fract_y
_atom_site_fract_z
Si Si1 0.147633 0.430948 0.029854
Si Si2 0.104931 0.176610 0.891657
Si Si3 0.108256 0.558574 0.763036
Si Si4 0.108668 0.822102 0.433329
Si Si5 0.108901 0.177279 0.360385
Si Si6 0.609218 0.412118 0.272485
O O1 0.137000 0.427861 0.135698
O O2 0.107834 0.500000 0.000000
O O3 0.250000 0.432840 0.000000
O O4 0.112116 0.368076 0.979318
O O5 0.140647 0.250000 0.898272
O O6 0.140270 0.132338 0.810345
O O7 0.000000 0.183590 0.873355
O O8 0.138097 0.617318 0.699880
O O9 0.137296 0.486255 0.736682
O O10 0.000000 0.558056 0.760647
O O11 0.135837 0.750000 0.406369
O O12 0.136111 0.832177 0.536089
O O13 0.136905 0.875881 0.363133
O O14 0.000000 0.822478 0.432924
O O15 0.135757 0.250000 0.333629
O O16 0.000000 0.177167 0.358678
O O17 0.500000 0.413091 0.270678
#
# Coordination Sequence:
#
# PCOD9505177 Si02
#       6
#    16  16  16  16  16  16
#     4  11  23  38  54  72 100 139 177 219 268 318
#     4  10  20  34  54  79 104 132 171 218 265 315
#     4  10  19  31  51  75 101 135 174 218 263 309
#     4   8  13  23  40  65 103 142 167 198 249 303
#     4   8  15  27  43  68 103 139 171 203 247 306
#     4   9  16  26  44  72 103 134 167 207 253 303
#
# _framework density 10.15873
#
# number of rings (size 3 to 8) (size 9 to 14) (size 15 to 20)
#    0.000    2.667    1.667    2.000    0.000    4.333 
#    0.000    5.000    0.000    0.000    0.000    1.167 
#    0.000    4.000    0.000    0.000    0.000    0.000 
#
# Total GULP energy -267856.618918 kJ/mol
# GULP energy per Si atom -5580.346227 kJ/mol
# Density = 1.013561 g / cm^3
# Si number density = 10.158730 Si / 1000 Ang^3
#
#
#
# Elastic Constant Matrix: (Units=GPa)
#
#
# Indices 1 2 3 4 5 6 
#
# 1 25.8257 9.1829 0.3309 0.0000 0.0000 0.0000
# 2 9.1829 248.4000 131.1516 0.0000 0.0000 0.0000
# 3 0.3309 131.1516 167.3509 0.0000 0.0000 0.0000
# 4 0.0000 0.0000 0.0000 41.3174 0.0000 0.0000
# 5 0.0000 0.0000 0.0000 0.0000 9.3891 0.0000
# 6 0.0000 0.0000 0.0000 0.0000 0.0000 6.8659
#
#
#
# Elastic Compliance Matrix: (Units=1/GPa)
#
#
# Indices 1 2 3 4 5 6 
#
# 1 0.039560 -0.002424 0.001822 0.000000 0.000000 0.000000
# 2 -0.002424 0.007016 -0.005493 0.000000 0.000000 0.000000
# 3 0.001822 -0.005493 0.010277 0.000000 0.000000 0.000000
# 4 0.000000 0.000000 0.000000 0.024203 0.000000 0.000000
# 5 0.000000 0.000000 0.000000 0.000000 0.106507 0.000000
# 6 0.000000 0.000000 0.000000 0.000000 0.000000 0.145647
#
#
# Mechanical properties :
#
#
# Convention : Reuss Voigt Hill
#
# Bulk Modulus (GPa) = 22.39117 80.32305 51.35711
# Shear Modulus (GPa) = 13.87777 31.57522 22.72650
#
# Velocity S-wave (km/s) = 2.61635 3.94648 3.34813
# Velocity P-wave (km/s) = 4.49128 7.77085 6.34656
#
# Compressibility (1/GPa) = 0.04466045
#
# Stress axis : x y z
#
# Youngs Moduli (GPa) = 25.27824 142.53409 97.30398
#
# Poissons Ratio (x) = 0.34554 -0.17725
# Poissons Ratio (y) = 0.06128 0.53454
# Poissons Ratio (z) = -0.04605 0.78301
#
# Static dielectric constant tensor:
#      x y z
#    x 1.821910 0.000000 0.000000 
#    y 0.000000 1.723080 0.000000 
#    z 0.000000 0.000000 1.705900 
# 
# From -- ./inp_files/27214.got.cif
#   From: 2010.05.17/outbox.ucp.g08.bks.cvg/sg67_14_cif.got.tgz:27214.got - 2010.06.11 16:47:20.
