data_PCOD9505478
_publ_section_title
;
Structure prediction by ZEFSAII (Michael W. Deem and Ramdas Pophale) SiO2 
 PCOD9505478
Probable space group: C C C A
;
_chemical_formula_sum "Si O2"
_cell_formula_units_Z 104
_cell_length_a 11.014072
_cell_length_b 18.791161
_cell_length_c 26.632128
_cell_angle_alpha 90.000000
_cell_angle_beta 90.000000
_cell_angle_gamma 90.000000
_cell_volume 5511.976968
_symmetry_space_group_name_H-M "C C C A"
_symmetry_group_IT_number 68
_space_group.IT_coordinate_system_code '2'
_symmetry_cell_setting 'orthorhombic'
loop_
_space_group_symop_operation_xyz
x,y,z
-x,1/2-y,z
x,1/2-y,1/2-z
-x,y,1/2-z
-x,-y,-z
x,1/2+y,-z
-x,1/2+y,1/2+z
x,-y,1/2+z
1/2+x,1/2+y,z
1/2-x,-y,z
1/2+x,-y,1/2-z
1/2-x,1/2+y,1/2-z
1/2-x,1/2-y,-z
1/2+x,y,-z
1/2-x,y,1/2+z
1/2+x,1/2-y,1/2+z
loop_
_atom_site_type_symbol
_atom_site_label
_atom_site_fract_x
_atom_site_fract_y
_atom_site_fract_z
Si Si1 0.467427 0.675650 0.042900
Si Si2 0.703191 0.642452 0.973984
Si Si3 0.839136 0.066750 0.626669
Si Si4 0.459397 0.543210 0.391670
Si Si5 0.884782 0.421001 0.219742
Si Si6 0.250000 0.500000 0.466822
Si Si7 0.135829 0.414466 0.741695
O O1 0.500000 0.750000 0.069479
O O2 0.329991 0.685538 0.022264
O O3 0.471398 0.607054 0.079354
O O4 0.577224 0.663841 0.002150
O O5 0.675497 0.626056 0.915720
O O6 0.748124 0.568380 0.998255
O O7 0.827697 0.092102 0.683529
O O8 0.750000 0.000000 0.618222
O O9 0.966188 0.026725 0.622270
O O10 0.409874 0.573393 0.339296
O O11 0.361753 0.513611 0.430387
O O12 0.874425 0.501836 0.242241
O O13 0.753034 0.386207 0.228486
O O14 0.000000 0.389309 0.250000
O O15 0.000000 0.384638 0.750000
#
# Coordination Sequence:
#
# PCOD9505478 Si02
#       7
#    16  16  16  16  16   8  16
#     4  11  24  41  57  76 108 151 195 229 268 319
#     4  11  22  37  58  81 111 143 179 235 276 339
#     4  12  18  30  53  84 111 141 175 210 290 333
#     4  11  20  32  54  81 114 146 177 227 270 341
#     4  10  17  29  46  74 108 145 173 207 268 324
#     4  10  20  32  52  84 114 136 172 222 294 324
#     4  10  18  28  47  78 115 147 166 213 271 345
#
# _framework density 18.868003000000002
#
# number of rings (size 3 to 8) (size 9 to 14) (size 15 to 20)
#    0.000    1.231    6.923    2.308    0.000    2.462 
#    0.000    0.000    0.000    0.462    0.000    0.000 
#    0.000    0.000    0.000    0.000    0.000    0.000 
#
# Total GULP energy -289524.627556 kJ/mol
# GULP energy per Si atom -5567.781299 kJ/mol
# Density = 1.882506 g / cm^3
# Si number density = 18.868003 Si / 1000 Ang^3
#
#
#
# Elastic Constant Matrix: (Units=GPa)
#
#
# Indices 1 2 3 4 5 6 
#
# 1 127.1029 5.5608 32.9127 0.0000 0.0000 0.0000
# 2 5.5608 13.2514 -3.3390 0.0000 0.0000 0.0000
# 3 32.9127 -3.3390 105.0382 0.0000 0.0000 0.0000
# 4 0.0000 0.0000 0.0000 9.3227 0.0000 0.0000
# 5 0.0000 0.0000 0.0000 0.0000 34.3109 0.0000
# 6 0.0000 0.0000 0.0000 0.0000 0.0000 6.3369
#
#
#
# Elastic Compliance Matrix: (Units=1/GPa)
#
#
# Indices 1 2 3 4 5 6 
#
# 1 0.008813 -0.004430 -0.002902 0.000000 0.000000 0.000000
# 2 -0.004430 0.078299 0.003877 0.000000 0.000000 0.000000
# 3 -0.002902 0.003877 0.010553 0.000000 0.000000 0.000000
# 4 0.000000 0.000000 0.000000 0.107265 0.000000 0.000000
# 5 0.000000 0.000000 0.000000 0.000000 0.029145 0.000000
# 6 0.000000 0.000000 0.000000 0.000000 0.000000 0.157805
#
#
# Mechanical properties :
#
#
# Convention : Reuss Voigt Hill
#
# Bulk Modulus (GPa) = 11.01860 35.07350 23.04605
# Shear Modulus (GPa) = 11.65385 24.01131 17.83258
#
# Velocity S-wave (km/s) = 2.48796 3.57121 3.07762
# Velocity P-wave (km/s) = 3.75576 5.96942 4.98697
#
# Compressibility (1/GPa) = 0.09075566
#
# Stress axis : x y z
#
# Youngs Moduli (GPa) = 113.46925 12.77148 94.75997
#
# Poissons Ratio (x) = 0.05657 0.27502
# Poissons Ratio (y) = 0.50262 -0.36738
# Poissons Ratio (z) = 0.32932 -0.04951
#
# Static dielectric constant tensor:
#      x y z
#    x 1.796060 0.000000 0.000000 
#    y 0.000000 1.652460 0.000000 
#    z 0.000000 0.000000 1.692430 
# 
# From -- ./inp_files/50321.got.cif
#   From: 2010.05.17/outbox.cif.g08.bks.cpg/sg68_26_cif.got.tgz:50321.got - 2010.06.03 18:57:09.
