data_PCOD9505471
_publ_section_title
;
Structure prediction by ZEFSAII (Michael W. Deem and Ramdas Pophale) SiO2 
 PCOD9505471
Probable space group: C C C A
;
_chemical_formula_sum "Si O2"
_cell_formula_units_Z 88
_cell_length_a 17.553502
_cell_length_b 12.835385
_cell_length_c 15.806157
_cell_angle_alpha 90.000000
_cell_angle_beta 90.000000
_cell_angle_gamma 90.000000
_cell_volume 3561.221318
_symmetry_space_group_name_H-M "C C C A"
_symmetry_group_IT_number 68
_space_group.IT_coordinate_system_code '2'
_symmetry_cell_setting 'orthorhombic'
loop_
_space_group_symop_operation_xyz
x,y,z
-x,1/2-y,z
x,1/2-y,1/2-z
-x,y,1/2-z
-x,-y,-z
x,1/2+y,-z
-x,1/2+y,1/2+z
x,-y,1/2+z
1/2+x,1/2+y,z
1/2-x,-y,z
1/2+x,-y,1/2-z
1/2-x,1/2+y,1/2-z
1/2-x,1/2-y,-z
1/2+x,y,-z
1/2-x,y,1/2+z
1/2+x,1/2-y,1/2+z
loop_
_atom_site_type_symbol
_atom_site_label
_atom_site_fract_x
_atom_site_fract_y
_atom_site_fract_z
Si Si1 0.959727 0.947077 0.343058
Si Si2 0.901112 0.021109 0.086820
Si Si3 0.000000 0.750000 0.042510
Si Si4 0.279950 0.805770 0.378326
Si Si5 0.845203 0.131004 0.735093
Si Si6 0.848102 0.146511 0.478115
O O1 0.974970 0.846176 0.399600
O O2 0.871515 0.938097 0.314660
O O3 0.000000 0.939811 0.250000
O O4 0.009322 0.034462 0.392816
O O5 0.877123 0.931734 0.154219
O O6 0.874383 0.971568 0.997700
O O7 0.851229 0.120603 0.104302
O O8 0.924997 0.787284 0.993599
O O9 0.241104 0.846487 0.292656
O O10 0.215402 0.825586 0.450319
O O11 0.309439 0.688042 0.392293
O O12 0.876174 0.250000 0.750000
#
# Coordination Sequence:
#
# PCOD9505471 Si02
#       6
#    16  16   8  16  16  16
#     4   9  15  25  47  79 107 136 178 234 288 332
#     4   9  18  32  53  80 113 147 184 234 290 344
#     4  10  17  30  52  82 113 140 184 242 290 340
#     4  10  19  33  54  80 112 153 191 233 292 351
#     4  10  17  28  53  81 106 141 191 245 291 336
#     4   9  18  31  52  77 108 152 190 226 284 351
#
# _framework density 24.710622999999998
#
# number of rings (size 3 to 8) (size 9 to 14) (size 15 to 20)
#    0.000    2.545    0.000    7.909    0.000    0.727 
#    0.000    3.636    0.000   30.545    0.000    0.000 
#    0.000    0.000    0.000    9.091    0.000    0.000 
#
# Total GULP energy -245032.227912 kJ/mol
# GULP energy per Si atom -5568.914271 kJ/mol
# Density = 2.465438 g / cm^3
# Si number density = 24.710623 Si / 1000 Ang^3
#
#
#
# Elastic Constant Matrix: (Units=GPa)
#
#
# Indices 1 2 3 4 5 6 
#
# 1 114.8253 45.0248 68.3366 0.0000 0.0000 0.0000
# 2 45.0248 65.7517 30.6567 0.0000 0.0000 0.0000
# 3 68.3366 30.6567 83.7393 0.0000 0.0000 0.0000
# 4 0.0000 0.0000 0.0000 -325.4688 0.0000 0.0000
# 5 0.0000 0.0000 0.0000 0.0000 -191.1869 0.0000
# 6 0.0000 0.0000 0.0000 0.0000 0.0000 16.5590
#
#
#
# Elastic Compliance Matrix: (Units=1/GPa)
#
#
# Indices 1 2 3 4 5 6 
#
# 1 0.019336 -0.007095 -0.013182 0.000000 0.000000 0.000000
# 2 -0.007095 0.020942 -0.001877 0.000000 0.000000 0.000000
# 3 -0.013182 -0.001877 0.023386 0.000000 0.000000 0.000000
# 4 0.000000 0.000000 0.000000 -0.003072 0.000000 0.000000
# 5 0.000000 0.000000 0.000000 0.000000 -0.005230 0.000000
# 6 0.000000 0.000000 0.000000 0.000000 0.000000 0.060390
#
#
# Mechanical properties :
#
#
# Convention : Reuss Voigt Hill
#
# Bulk Modulus (GPa) = 51.66132 61.37250 56.51691
# Shear Modulus (GPa) = 30.02800 -91.99946 -30.98573
#
# Velocity S-wave (km/s) = 3.48973 -6.10832 -3.54495
# Velocity P-wave (km/s) = 6.09832 4.98581 2.48306
#
# Compressibility (1/GPa) = 0.01935684
#
# Stress axis : x y z
#
# Youngs Moduli (GPa) = 51.71744 47.75069 42.75981
#
# Poissons Ratio (x) = 0.33877 0.56366
# Poissons Ratio (y) = 0.36691 0.08027
# Poissons Ratio (z) = 0.68174 0.08964
#
# Static dielectric constant tensor:
#      x y z
#    x 2.055650 0.000000 0.000000 
#    y 0.000000 1.960730 0.000000 
#    z 0.000000 0.000000 2.031310 
# 
# From -- ./inp_files/31885.got.cif
#   From: 2010.05.17/outbox.cif.g08.bks.cpg/sg68_16_cif.got.tgz:31885.got - 2010.06.03 18:57:09.
