data_PCOD9505617
_publ_section_title
;
Structure prediction by ZEFSAII (Michael W. Deem and Ramdas Pophale) SiO2 
 PCOD9505617
Probable space group: C C C A
;
_chemical_formula_sum "Si O2"
_cell_formula_units_Z 96
_cell_length_a 24.771445
_cell_length_b 18.394195
_cell_length_c 13.463885
_cell_angle_alpha 90.000000
_cell_angle_beta 90.000000
_cell_angle_gamma 90.000000
_cell_volume 6134.829834
_symmetry_space_group_name_H-M "C C C A"
_symmetry_group_IT_number 68
_space_group.IT_coordinate_system_code '2'
_symmetry_cell_setting 'orthorhombic'
loop_
_space_group_symop_operation_xyz
x,y,z
-x,1/2-y,z
x,1/2-y,1/2-z
-x,y,1/2-z
-x,-y,-z
x,1/2+y,-z
-x,1/2+y,1/2+z
x,-y,1/2+z
1/2+x,1/2+y,z
1/2-x,-y,z
1/2+x,-y,1/2-z
1/2-x,1/2+y,1/2-z
1/2-x,1/2-y,-z
1/2+x,y,-z
1/2-x,y,1/2+z
1/2+x,1/2-y,1/2+z
loop_
_atom_site_type_symbol
_atom_site_label
_atom_site_fract_x
_atom_site_fract_y
_atom_site_fract_z
Si Si1 0.057060 0.663241 0.875190
Si Si2 0.174807 0.165333 0.445727
Si Si3 0.222387 0.328419 0.697350
Si Si4 0.562968 0.339367 0.853876
Si Si5 0.160093 0.166015 0.000594
Si Si6 0.742447 0.585623 0.607764
O O1 0.060323 0.751239 0.863914
O O2 0.068549 0.639046 0.761838
O O3 0.995686 0.638294 0.895269
O O4 0.101214 0.644283 0.958186
O O5 0.220079 0.171989 0.359921
O O6 0.117219 0.137620 0.408183
O O7 0.167448 0.247276 0.485709
O O8 0.198048 0.113725 0.530218
O O9 0.213589 0.250000 0.750000
O O10 0.177790 0.346821 0.613330
O O11 0.226047 0.387436 0.783639
O O12 0.203219 0.126346 0.071651
O O13 0.750000 0.500000 0.603195
#
# Coordination Sequence:
#
# PCOD9505617 Si02
#       6
#    16  16  16  16  16  16
#     4   8  14  25  43  75 100 125 158 211 247 280
#     4  10  18  30  52  72  96 130 161 204 243 299
#     4  11  18  30  48  72  95 132 168 195 244 295
#     4   8  14  24  45  73 102 122 160 207 253 276
#     4  10  18  31  52  71  98 130 163 202 245 299
#     4  11  22  33  46  72 103 129 162 204 248 295
#
# _framework density 15.648356
#
# number of rings (size 3 to 8) (size 9 to 14) (size 15 to 20)
#    0.000    2.333    3.333    3.000    2.333    2.667 
#    0.000    0.000    0.000    2.000    0.000    2.333 
#    0.000    0.000    0.000    0.000    0.000    0.000 
#
# Total GULP energy -267244.989871 kJ/mol
# GULP energy per Si atom -5567.603956 kJ/mol
# Density = 1.561274 g / cm^3
# Si number density = 15.648356 Si / 1000 Ang^3
#
#
#
# Elastic Constant Matrix: (Units=GPa)
#
#
# Indices 1 2 3 4 5 6 
#
# 1 120.6602 20.8960 69.9323 0.0000 0.0000 0.0000
# 2 20.8960 60.8271 30.6771 0.0000 0.0000 0.0000
# 3 69.9323 30.6771 111.8928 0.0000 0.0000 0.0000
# 4 0.0000 0.0000 0.0000 -5.3120 0.0000 0.0000
# 5 0.0000 0.0000 0.0000 0.0000 24.7331 0.0000
# 6 0.0000 0.0000 0.0000 0.0000 0.0000 -0.1586
#
#
#
# Elastic Compliance Matrix: (Units=1/GPa)
#
#
# Indices 1 2 3 4 5 6 
#
# 1 0.013005 -0.000427 -0.008011 0.000000 0.000000 0.000000
# 2 -0.000427 0.019092 -0.004967 0.000000 0.000000 0.000000
# 3 -0.008011 -0.004967 0.015305 0.000000 0.000000 0.000000
# 4 0.000000 0.000000 0.000000 -0.188254 0.000000 0.000000
# 5 0.000000 0.000000 0.000000 0.000000 0.040432 0.000000
# 6 0.000000 0.000000 0.000000 0.000000 0.000000 -6.305463
#
#
# Mechanical properties :
#
#
# Convention : Reuss Voigt Hill
#
# Bulk Modulus (GPa) = 48.56352 59.59900 54.08126
# Shear Modulus (GPa) = -0.78466 15.31082 7.26308
#
# Velocity S-wave (km/s) = -0.70889 3.13138 2.15674
# Velocity P-wave (km/s) = 5.51649 7.15843 6.39041
#
# Compressibility (1/GPa) = 0.02059159
#
# Stress axis : x y z
#
# Youngs Moduli (GPa) = 76.89642 52.37797 65.33608
#
# Poissons Ratio (x) = 0.02239 0.52338
# Poissons Ratio (y) = 0.03287 0.32454
# Poissons Ratio (z) = 0.61598 0.26017
#
# Static dielectric constant tensor:
#      x y z
#    x 1.545710 0.000000 0.000000 
#    y 0.000000 1.503870 0.000000 
#    z 0.000000 0.000000 1.524310 
# 
# From -- ./inp_files/16440.got.cif
#   From: 2010.05.17/outbox.cif.g08.bks.cpg/sg68_9_cif.got.tgz:16440.got - 2010.06.03 18:57:09.
