data_PCOD9505693
_publ_section_title
;
Structure prediction by ZEFSAII (Michael W. Deem and Ramdas Pophale) SiO2 
 PCOD9505693
Probable space group: C C C A
;
_chemical_formula_sum "Si O2"
_cell_formula_units_Z 88
_cell_length_a 17.132468
_cell_length_b 18.028666
_cell_length_c 16.594012
_cell_angle_alpha 90.000000
_cell_angle_beta 90.000000
_cell_angle_gamma 90.000000
_cell_volume 5125.484472
_symmetry_space_group_name_H-M "C C C A"
_symmetry_group_IT_number 68
_space_group.IT_coordinate_system_code '2'
_symmetry_cell_setting 'orthorhombic'
loop_
_space_group_symop_operation_xyz
x,y,z
-x,1/2-y,z
x,1/2-y,1/2-z
-x,y,1/2-z
-x,-y,-z
x,1/2+y,-z
-x,1/2+y,1/2+z
x,-y,1/2+z
1/2+x,1/2+y,z
1/2-x,-y,z
1/2+x,-y,1/2-z
1/2-x,1/2+y,1/2-z
1/2-x,1/2-y,-z
1/2+x,y,-z
1/2-x,y,1/2+z
1/2+x,1/2-y,1/2+z
loop_
_atom_site_type_symbol
_atom_site_label
_atom_site_fract_x
_atom_site_fract_y
_atom_site_fract_z
Si Si1 0.167190 0.819863 0.498018
Si Si2 0.515143 0.913160 0.498464
Si Si3 0.466866 0.833231 0.336621
Si Si4 0.826939 0.750000 0.250000
Si Si5 0.925211 0.299995 0.609186
Si Si6 0.705908 0.704114 0.378479
O O1 0.104622 0.885455 0.489837
O O2 0.126028 0.749489 0.452937
O O3 0.248798 0.834929 0.452807
O O4 0.185211 0.786566 0.586457
O O5 0.494737 0.882464 0.410307
O O6 0.459106 0.871414 0.563257
O O7 0.500000 0.000000 0.500000
O O8 0.500000 0.750000 0.349719
O O9 0.500000 0.857314 0.250000
O O10 0.373473 0.828992 0.344021
O O11 0.877675 0.803640 0.307586
O O12 0.770241 0.706208 0.309361
O O13 0.000000 0.250000 0.628312
#
# Coordination Sequence:
#
# PCOD9505693 Si02
#       6
#    16  16  16   8  16  16
#     4   9  18  34  57  80 111 144 190 240 287 351
#     4  11  21  37  58  82 115 158 195 232 293 369
#     4  11  20  35  59  86 112 144 195 251 290 343
#     4  10  19  28  55  92 106 138 176 250 297 324
#     4   9  17  34  55  82 108 141 195 239 282 335
#     4  10  18  32  56  86 112 138 186 248 297 335
#
# _framework density 17.169108999999999
#
# number of rings (size 3 to 8) (size 9 to 14) (size 15 to 20)
#    0.000    2.000    3.636    1.909    0.000    0.000 
#    0.000    6.364    0.000    0.000    0.000    0.000 
#    0.000    0.000    0.000    0.000    0.000    0.000 
#
# Total GULP energy -245053.512161 kJ/mol
# GULP energy per Si atom -5569.398004 kJ/mol
# Density = 1.713003 g / cm^3
# Si number density = 17.169109 Si / 1000 Ang^3
#
#
#
# Elastic Constant Matrix: (Units=GPa)
#
#
# Indices 1 2 3 4 5 6 
#
# 1 138.7955 35.0628 54.3394 0.0000 0.0000 0.0000
# 2 35.0628 73.8295 34.3129 0.0000 0.0000 0.0000
# 3 54.3394 34.3129 113.4148 0.0000 0.0000 0.0000
# 4 0.0000 0.0000 0.0000 4.9580 0.0000 0.0000
# 5 0.0000 0.0000 0.0000 0.0000 39.2568 0.0000
# 6 0.0000 0.0000 0.0000 0.0000 0.0000 14.3137
#
#
#
# Elastic Compliance Matrix: (Units=1/GPa)
#
#
# Indices 1 2 3 4 5 6 
#
# 1 0.009320 -0.002736 -0.003638 0.000000 0.000000 0.000000
# 2 -0.002736 0.016564 -0.003701 0.000000 0.000000 0.000000
# 3 -0.003638 -0.003701 0.011680 0.000000 0.000000 0.000000
# 4 0.000000 0.000000 0.000000 0.201694 0.000000 0.000000
# 5 0.000000 0.000000 0.000000 0.000000 0.025473 0.000000
# 6 0.000000 0.000000 0.000000 0.000000 0.000000 0.069863
#
#
# Mechanical properties :
#
#
# Convention : Reuss Voigt Hill
#
# Bulk Modulus (GPa) = 57.41962 63.71890 60.56926
# Shear Modulus (GPa) = 13.86781 25.19402 19.53092
#
# Velocity S-wave (km/s) = 2.84512 3.83483 3.37643
# Velocity P-wave (km/s) = 6.65651 7.53664 7.11021
#
# Compressibility (1/GPa) = 0.01741565
#
# Stress axis : x y z
#
# Youngs Moduli (GPa) = 107.29435 60.37275 85.61830
#
# Poissons Ratio (x) = 0.16515 0.31147
# Poissons Ratio (y) = 0.29351 0.31684
# Poissons Ratio (z) = 0.39032 0.22341
#
# Static dielectric constant tensor:
#      x y z
#    x 1.639000 0.000000 0.000000 
#    y 0.000000 1.553550 0.000000 
#    z 0.000000 0.000000 1.659780 
# 
# From -- ./inp_files/23607.got.cif
#   From: 2010.05.17/outbox.cif.g08.bks.cpg/sg68_12_cif.got.tgz:23607.got - 2010.06.03 18:57:09.
