data_PCOD9505760
_publ_section_title
;
Structure prediction by ZEFSAII (Michael W. Deem and Ramdas Pophale) SiO2 
 PCOD9505760
Probable space group: C C C A
;
_chemical_formula_sum "Si O2"
_cell_formula_units_Z 96
_cell_length_a 19.824608
_cell_length_b 11.655712
_cell_length_c 22.068180
_cell_angle_alpha 90.000000
_cell_angle_beta 90.000000
_cell_angle_gamma 90.000000
_cell_volume 5099.292617
_symmetry_space_group_name_H-M "C C C A"
_symmetry_group_IT_number 68
_space_group.IT_coordinate_system_code '2'
_symmetry_cell_setting 'orthorhombic'
loop_
_space_group_symop_operation_xyz
x,y,z
-x,1/2-y,z
x,1/2-y,1/2-z
-x,y,1/2-z
-x,-y,-z
x,1/2+y,-z
-x,1/2+y,1/2+z
x,-y,1/2+z
1/2+x,1/2+y,z
1/2-x,-y,z
1/2+x,-y,1/2-z
1/2-x,1/2+y,1/2-z
1/2-x,1/2-y,-z
1/2+x,y,-z
1/2-x,y,1/2+z
1/2+x,1/2-y,1/2+z
loop_
_atom_site_type_symbol
_atom_site_label
_atom_site_fract_x
_atom_site_fract_y
_atom_site_fract_z
Si Si1 0.695955 0.717791 0.644439
Si Si2 0.174290 0.665703 0.698771
Si Si3 0.000000 0.053032 0.750000
Si Si4 0.444576 0.452140 0.628895
Si Si5 0.000000 0.750000 0.952857
Si Si6 0.895028 0.750000 0.250000
Si Si7 0.750000 0.500000 0.208219
Si Si8 0.072685 0.799328 0.429150
O O1 0.769775 0.773292 0.655293
O O2 0.652664 0.782125 0.695539
O O3 0.706821 0.586273 0.665834
O O4 0.643049 0.736998 0.589510
O O5 0.142606 0.750000 0.750000
O O6 0.122186 0.606168 0.654906
O O7 0.207451 0.575757 0.745041
O O8 0.939244 0.140094 0.764100
O O9 0.986142 0.983152 0.689408
O O10 0.481923 0.359908 0.587063
O O11 0.427700 0.569012 0.592663
O O12 0.060169 0.717021 0.999350
O O13 0.000000 0.750000 0.402530
#
# Coordination Sequence:
#
# PCOD9505760 Si02
#       8
#    16  16   8  16   8   8   8  16
#     4  11  19  38  62  95 137 167 219 260 336 404
#     4  10  22  36  58  97 137 172 201 254 351 408
#     4  11  24  31  68 104 126 167 211 270 346 382
#     4  12  23  44  63  95 138 168 216 279 329 401
#     4  10  28  45  66  91 124 186 230 274 330 374
#     4  11  18  38  58 104 136 159 212 268 318 407
#     4  10  18  34  58  98 134 174 196 270 330 412
#     4  10  23  45  67  92 120 173 234 269 317 377
#
# _framework density 18.826139999999999
#
# number of rings (size 3 to 8) (size 9 to 14) (size 15 to 20)
#    0.500    0.833    4.167    3.500    2.333    0.000 
#    3.000    0.833    0.000    1.000    0.000    0.000 
#    0.000    0.000    0.000    0.000    0.000    0.000 
#
# Total GULP energy -267236.727629 kJ/mol
# GULP energy per Si atom -5567.431826 kJ/mol
# Density = 1.878329 g / cm^3
# Si number density = 18.826140 Si / 1000 Ang^3
#
#
#
# Elastic Constant Matrix: (Units=GPa)
#
#
# Indices 1 2 3 4 5 6 
#
# 1 54.5633 15.9865 24.9362 0.0000 0.0000 0.0000
# 2 15.9865 80.5035 35.1258 0.0000 0.0000 0.0000
# 3 24.9362 35.1258 102.3742 0.0000 0.0000 0.0000
# 4 0.0000 0.0000 0.0000 -114.6738 0.0000 0.0000
# 5 0.0000 0.0000 0.0000 0.0000 82.1443 0.0000
# 6 0.0000 0.0000 0.0000 0.0000 0.0000 22.1114
#
#
#
# Elastic Compliance Matrix: (Units=1/GPa)
#
#
# Indices 1 2 3 4 5 6 
#
# 1 0.020972 -0.002277 -0.004327 0.000000 0.000000 0.000000
# 2 -0.002277 0.014856 -0.004543 0.000000 0.000000 0.000000
# 3 -0.004327 -0.004543 0.012381 0.000000 0.000000 0.000000
# 4 0.000000 0.000000 0.000000 -0.008720 0.000000 0.000000
# 5 0.000000 0.000000 0.000000 0.000000 0.012174 0.000000
# 6 0.000000 0.000000 0.000000 0.000000 0.000000 0.045226
#
#
# Mechanical properties :
#
#
# Convention : Reuss Voigt Hill
#
# Bulk Modulus (GPa) = 38.58665 43.28200 40.93433
# Shear Modulus (GPa) = 39.11775 8.67587 23.89681
#
# Velocity S-wave (km/s) = 4.56328 2.14905 3.56665
# Velocity P-wave (km/s) = 6.95022 5.40353 6.22510
#
# Compressibility (1/GPa) = 0.02591570
#
# Stress axis : x y z
#
# Youngs Moduli (GPa) = 47.68273 67.31278 80.77033
#
# Poissons Ratio (x) = 0.15324 0.34951
# Poissons Ratio (y) = 0.10855 0.36692
# Poissons Ratio (z) = 0.20633 0.30579
#
# Static dielectric constant tensor:
#      x y z
#    x 1.720040 0.000000 0.000000 
#    y 0.000000 1.702070 0.000000 
#    z 0.000000 0.000000 2.009910 
# 
# From -- ./inp_files/46644.got.cif
#   From: 2010.05.17/outbox.cif.g08.bks.cpg/sg68_24_cif.got.tgz:46644.got - 2010.06.03 18:57:09.
