data_PCOD9505546
_publ_section_title
;
Structure prediction by ZEFSAII (Michael W. Deem and Ramdas Pophale) SiO2 
 PCOD9505546
Probable space group: C C C A
;
_chemical_formula_sum "Si O2"
_cell_formula_units_Z 92
_cell_length_a 19.115778
_cell_length_b 8.907007
_cell_length_c 27.580843
_cell_angle_alpha 90.000000
_cell_angle_beta 90.000000
_cell_angle_gamma 90.000000
_cell_volume 4696.034815
_symmetry_space_group_name_H-M "C C C A"
_symmetry_group_IT_number 68
_space_group.IT_coordinate_system_code '2'
_symmetry_cell_setting 'orthorhombic'
loop_
_space_group_symop_operation_xyz
x,y,z
-x,1/2-y,z
x,1/2-y,1/2-z
-x,y,1/2-z
-x,-y,-z
x,1/2+y,-z
-x,1/2+y,1/2+z
x,-y,1/2+z
1/2+x,1/2+y,z
1/2-x,-y,z
1/2+x,-y,1/2-z
1/2-x,1/2+y,1/2-z
1/2-x,1/2-y,-z
1/2+x,y,-z
1/2-x,y,1/2+z
1/2+x,1/2-y,1/2+z
loop_
_atom_site_type_symbol
_atom_site_label
_atom_site_fract_x
_atom_site_fract_y
_atom_site_fract_z
Si Si1 0.104924 0.124343 0.324943
Si Si2 0.216716 0.355654 0.342741
Si Si3 0.000000 0.750000 0.596362
Si Si4 0.315180 0.111241 0.385787
Si Si5 0.500000 0.250000 0.750000
Si Si6 0.169646 0.228049 0.517412
Si Si7 0.619021 0.919486 0.435553
O O1 0.168504 0.238978 0.313983
O O2 0.062609 0.189961 0.370496
O O3 0.049574 0.141416 0.281835
O O4 0.136482 0.969626 0.345698
O O5 0.250000 0.500000 0.317048
O O6 0.280427 0.260327 0.364290
O O7 0.168082 0.410639 0.387804
O O8 0.963860 0.600843 0.573585
O O9 0.346052 0.159812 0.437607
O O10 0.250000 0.000000 0.395537
O O11 0.250000 0.250000 0.500000
O O12 0.130051 0.274402 0.469180
O O13 0.147047 0.064103 0.535529
#
# Coordination Sequence:
#
# PCOD9505546 Si02
#       7
#    16  16   8  16   4  16  16
#     4   9  21  38  68  83 112 157 194 254 304 394
#     4  10  17  35  58  91 122 152 190 247 310 351
#     4   9  22  41  52  78 116 164 218 231 296 361
#     4  10  19  33  56  92 122 151 204 250 306 354
#     4  10  20  48  68  86 112 156 200 236 336 386
#     4  12  21  33  54  87 122 167 215 259 304 342
#     4  11  22  34  53  79 123 174 209 255 285 350
#
# _framework density 19.590997000000002
#
# number of rings (size 3 to 8) (size 9 to 14) (size 15 to 20)
#    0.000    1.739    3.478    1.565    4.870    0.696 
#    0.000    2.609    0.000    1.043    0.000    0.000 
#    0.000    0.000    0.000    0.000    0.000    0.000 
#
# Total GULP energy -256091.245249 kJ/mol
# GULP energy per Si atom -5567.200984 kJ/mol
# Density = 1.954641 g / cm^3
# Si number density = 19.590997 Si / 1000 Ang^3
#
#
#
# Elastic Constant Matrix: (Units=GPa)
#
#
# Indices 1 2 3 4 5 6 
#
# 1 80.1404 30.4837 25.1975 0.0000 0.0000 0.0000
# 2 30.4837 83.6931 10.6004 0.0000 0.0000 0.0000
# 3 25.1975 10.6004 58.1925 0.0000 0.0000 0.0000
# 4 0.0000 0.0000 0.0000 12.0661 0.0000 0.0000
# 5 0.0000 0.0000 0.0000 0.0000 28.1070 0.0000
# 6 0.0000 0.0000 0.0000 0.0000 0.0000 15.1827
#
#
#
# Elastic Compliance Matrix: (Units=1/GPa)
#
#
# Indices 1 2 3 4 5 6 
#
# 1 0.016386 -0.005189 -0.006150 0.000000 0.000000 0.000000
# 2 -0.005189 0.013874 -0.000280 0.000000 0.000000 0.000000
# 3 -0.006150 -0.000280 0.019898 0.000000 0.000000 0.000000
# 4 0.000000 0.000000 0.000000 0.082877 0.000000 0.000000
# 5 0.000000 0.000000 0.000000 0.000000 0.035578 0.000000
# 6 0.000000 0.000000 0.000000 0.000000 0.000000 0.065864
#
#
# Mechanical properties :
#
#
# Convention : Reuss Voigt Hill
#
# Bulk Modulus (GPa) = 37.14818 39.39881 38.27350
# Shear Modulus (GPa) = 18.74844 21.45412 20.10128
#
# Velocity S-wave (km/s) = 3.09689 3.31282 3.20667
# Velocity P-wave (km/s) = 5.63832 5.89808 5.76966
#
# Compressibility (1/GPa) = 0.02691922
#
# Stress axis : x y z
#
# Youngs Moduli (GPa) = 61.02933 72.07722 50.25565
#
# Poissons Ratio (x) = 0.37403 0.30906
# Poissons Ratio (y) = 0.31670 0.01409
# Poissons Ratio (z) = 0.37531 0.02021
#
# Static dielectric constant tensor:
#      x y z
#    x 1.995210 0.000000 0.000000 
#    y 0.000000 1.750810 0.000000 
#    z 0.000000 0.000000 1.722170 
# 
# From -- ./inp_files/51798.got.cif
#   From: 2010.05.17/outbox.cif.g08.bks.cpg/sg68_26_cif.got.tgz:51798.got - 2010.06.03 18:57:09.
