data_PCOD9505917
_publ_section_title
;
Structure prediction by ZEFSAII (Michael W. Deem and Ramdas Pophale) SiO2 
 PCOD9505917
Probable space group: C C C A
;
_chemical_formula_sum "Si O2"
_cell_formula_units_Z 104
_cell_length_a 28.142414
_cell_length_b 18.069754
_cell_length_c 8.555794
_cell_angle_alpha 90.000000
_cell_angle_beta 90.000000
_cell_angle_gamma 90.000000
_cell_volume 4350.847960
_symmetry_space_group_name_H-M "C C C A"
_symmetry_group_IT_number 68
_space_group.IT_coordinate_system_code '2'
_symmetry_cell_setting 'orthorhombic'
loop_
_space_group_symop_operation_xyz
x,y,z
-x,1/2-y,z
x,1/2-y,1/2-z
-x,y,1/2-z
-x,-y,-z
x,1/2+y,-z
-x,1/2+y,1/2+z
x,-y,1/2+z
1/2+x,1/2+y,z
1/2-x,-y,z
1/2+x,-y,1/2-z
1/2-x,1/2+y,1/2-z
1/2-x,1/2-y,-z
1/2+x,y,-z
1/2-x,y,1/2+z
1/2+x,1/2-y,1/2+z
loop_
_atom_site_type_symbol
_atom_site_label
_atom_site_fract_x
_atom_site_fract_y
_atom_site_fract_z
Si Si1 0.238182 0.411085 0.486930
Si Si2 0.819572 0.623403 0.807468
Si Si3 0.848590 0.950996 0.174592
Si Si4 0.500000 0.552358 0.750000
Si Si5 0.575319 0.145741 0.702134
Si Si6 0.515913 0.176122 0.001991
Si Si7 0.087141 0.021141 0.549754
O O1 0.250000 0.500000 0.455569
O O2 0.212781 0.369390 0.345343
O O3 0.286029 0.371570 0.542202
O O4 0.199727 0.410601 0.628791
O O5 0.833081 0.536089 0.800998
O O6 0.869222 0.666482 0.812372
O O7 0.879216 0.933298 0.328872
O O8 0.881542 0.954384 0.018993
O O9 0.478854 0.608379 0.621836
O O10 0.538936 0.508422 0.647337
O O11 0.558305 0.163683 0.877598
O O12 0.531963 0.177893 0.603813
O O13 0.575666 0.067019 0.606568
O O14 0.500000 0.250000 0.092166
#
# Coordination Sequence:
#
# PCOD9505917 Si02
#       7
#    16  16  16   8  16  16  16
#     4  10  19  30  48  71 104 156 204 238 263 305
#     4  10  20  31  49  77 109 151 198 245 270 315
#     4  10  19  33  49  70 110 164 203 227 268 310
#     4  10  23  36  56  88 118 134 186 250 281 354
#     4   9  20  35  55  84 112 139 185 242 286 347
#     4  10  20  41  67  87 107 138 177 234 315 382
#     4  10  21  33  50  76 115 160 197 237 268 322
#
# _framework density 23.903385
#
# number of rings (size 3 to 8) (size 9 to 14) (size 15 to 20)
#    0.000    2.154    1.538    2.538    6.462    0.615 
#    0.000    6.154    0.000    0.000    0.000    4.308 
#    0.000    0.000    0.000    0.000    0.000    0.000 
#
# Total GULP energy -289517.737713 kJ/mol
# GULP energy per Si atom -5567.648802 kJ/mol
# Density = 2.384898 g / cm^3
# Si number density = 23.903385 Si / 1000 Ang^3
#
#
#
# Elastic Constant Matrix: (Units=GPa)
#
#
# Indices 1 2 3 4 5 6 
#
# 1 190.7648 17.4908 73.1923 0.0000 0.0000 0.0000
# 2 17.4908 23.5831 7.6806 0.0000 0.0000 0.0000
# 3 73.1923 7.6806 106.0150 0.0000 0.0000 0.0000
# 4 0.0000 0.0000 0.0000 -76.5948 0.0000 0.0000
# 5 0.0000 0.0000 0.0000 0.0000 36.9075 0.0000
# 6 0.0000 0.0000 0.0000 0.0000 0.0000 6.2185
#
#
#
# Elastic Compliance Matrix: (Units=1/GPa)
#
#
# Indices 1 2 3 4 5 6 
#
# 1 0.007475 -0.003956 -0.004874 0.000000 0.000000 0.000000
# 2 -0.003956 0.045522 -0.000566 0.000000 0.000000 0.000000
# 3 -0.004874 -0.000566 0.012839 0.000000 0.000000 0.000000
# 4 0.000000 0.000000 0.000000 -0.013056 0.000000 0.000000
# 5 0.000000 0.000000 0.000000 0.000000 0.027095 0.000000
# 6 0.000000 0.000000 0.000000 0.000000 0.000000 0.160810
#
#
# Mechanical properties :
#
#
# Convention : Reuss Voigt Hill
#
# Bulk Modulus (GPa) = 21.25767 57.45448 39.35607
# Shear Modulus (GPa) = 18.17128 8.10619 13.13873
#
# Velocity S-wave (km/s) = 2.76016 1.84353 2.34703
# Velocity P-wave (km/s) = 4.36697 5.34974 4.88314
#
# Compressibility (1/GPa) = 0.04704185
#
# Stress axis : x y z
#
# Youngs Moduli (GPa) = 133.78195 21.96730 77.88993
#
# Poissons Ratio (x) = 0.08691 0.37963
# Poissons Ratio (y) = 0.52931 0.04412
# Poissons Ratio (z) = 0.65205 0.01244
#
# Static dielectric constant tensor:
#      x y z
#    x 2.020370 0.000000 0.000000 
#    y 0.000000 -1.644650 0.000000 
#    z 0.000000 0.000000 1.991310 
# 
# From -- ./inp_files/8295.got.cif
#   From: 2010.05.17/outbox.cif.g08.bks.cpg/sg68_5_cif.got.tgz:8295.got - 2010.06.03 18:57:09.
