data_PCOD9505522
_publ_section_title
;
Structure prediction by ZEFSAII (Michael W. Deem and Ramdas Pophale) SiO2 
 PCOD9505522
Probable space group: C C C A
;
_chemical_formula_sum "Si O2"
_cell_formula_units_Z 80
_cell_length_a 12.223160
_cell_length_b 13.557062
_cell_length_c 26.331145
_cell_angle_alpha 90.000000
_cell_angle_beta 90.000000
_cell_angle_gamma 90.000000
_cell_volume 4363.337670
_symmetry_space_group_name_H-M "C C C A"
_symmetry_group_IT_number 68
_space_group.IT_coordinate_system_code '2'
_symmetry_cell_setting 'orthorhombic'
loop_
_space_group_symop_operation_xyz
x,y,z
-x,1/2-y,z
x,1/2-y,1/2-z
-x,y,1/2-z
-x,-y,-z
x,1/2+y,-z
-x,1/2+y,1/2+z
x,-y,1/2+z
1/2+x,1/2+y,z
1/2-x,-y,z
1/2+x,-y,1/2-z
1/2-x,1/2+y,1/2-z
1/2-x,1/2-y,-z
1/2+x,y,-z
1/2-x,y,1/2+z
1/2+x,1/2-y,1/2+z
loop_
_atom_site_type_symbol
_atom_site_label
_atom_site_fract_x
_atom_site_fract_y
_atom_site_fract_z
Si Si1 0.599622 0.403995 0.932400
Si Si2 0.644859 0.874630 0.579664
Si Si3 0.500000 0.750000 0.509790
Si Si4 0.500000 0.973262 0.750000
Si Si5 0.198319 0.607747 0.193417
Si Si6 0.563660 0.651354 0.316676
O O1 0.583088 0.522004 0.931626
O O2 0.729687 0.388095 0.936741
O O3 0.570535 0.362558 0.876961
O O4 0.537597 0.340720 0.974459
O O5 0.594408 0.787920 0.546940
O O6 0.644985 0.856594 0.640639
O O7 0.503200 0.052985 0.704171
O O8 0.392503 0.907845 0.762795
O O9 0.250000 0.500000 0.180568
O O10 0.312289 0.661729 0.204899
O O11 0.500000 0.750000 0.304968
#
# Coordination Sequence:
#
# PCOD9505522 Si02
#       6
#    16  16   8   8  16  16
#     4  10  19  37  57  82 114 160 194 237 290 350
#     4  10  19  37  56  79 119 156 189 238 302 338
#     4  12  22  30  60  90 112 152 208 238 278 354
#     4  10  17  32  64  81 102 152 198 235 298 355
#     4   9  17  35  62  79 112 160 190 230 302 351
#     4  10  18  33  61  88 113 148 203 241 289 352
#
# _framework density 18.334588
#
# number of rings (size 3 to 8) (size 9 to 14) (size 15 to 20)
#    0.000    2.000    7.000    1.500    0.000    0.000 
#    0.000    0.000   39.600    0.000    0.000    0.000 
#    0.000    0.000    0.000    0.000    0.000    0.000 
#
# Total GULP energy -222756.998265 kJ/mol
# GULP energy per Si atom -5568.924957 kJ/mol
# Density = 1.829286 g / cm^3
# Si number density = 18.334588 Si / 1000 Ang^3
#
#
#
# Elastic Constant Matrix: (Units=GPa)
#
#
# Indices 1 2 3 4 5 6 
#
# 1 85.1126 30.7820 51.9781 0.0000 0.0000 0.0000
# 2 30.7820 43.1264 20.1875 0.0000 0.0000 0.0000
# 3 51.9781 20.1875 90.5956 0.0000 0.0000 0.0000
# 4 0.0000 0.0000 0.0000 -37.6914 0.0000 0.0000
# 5 0.0000 0.0000 0.0000 0.0000 22.6393 0.0000
# 6 0.0000 0.0000 0.0000 0.0000 0.0000 36.6342
#
#
#
# Elastic Compliance Matrix: (Units=1/GPa)
#
#
# Indices 1 2 3 4 5 6 
#
# 1 0.021859 -0.010865 -0.010120 0.000000 0.000000 0.000000
# 2 -0.010865 0.031288 -0.000738 0.000000 0.000000 0.000000
# 3 -0.010120 -0.000738 0.017009 0.000000 0.000000 0.000000
# 4 0.000000 0.000000 0.000000 -0.026531 0.000000 0.000000
# 5 0.000000 0.000000 0.000000 0.000000 0.044171 0.000000
# 6 0.000000 0.000000 0.000000 0.000000 0.000000 0.027297
#
#
# Mechanical properties :
#
#
# Convention : Reuss Voigt Hill
#
# Bulk Modulus (GPa) = 37.44040 47.19220 42.31630
# Shear Modulus (GPa) = 29.86095 12.04224 20.95159
#
# Velocity S-wave (km/s) = 4.04005 2.56560 3.38411
# Velocity P-wave (km/s) = 6.49828 5.87977 6.19675
#
# Compressibility (1/GPa) = 0.02670912
#
# Stress axis : x y z
#
# Youngs Moduli (GPa) = 45.74783 31.96093 58.79235
#
# Poissons Ratio (x) = 0.34725 0.59500
# Poissons Ratio (y) = 0.49704 0.04342
# Poissons Ratio (z) = 0.46298 0.02360
#
# Static dielectric constant tensor:
#      x y z
#    x 1.657130 0.000000 0.000000 
#    y 0.000000 1.674530 0.000000 
#    z 0.000000 0.000000 1.642650 
# 
# From -- ./inp_files/44148.got.cif
#   From: 2010.05.17/outbox.cif.g08.bks.cpg/sg68_23_cif.got.tgz:44148.got - 2010.06.03 18:57:09.
