data_PCOD9505431
_publ_section_title
;
Structure prediction by ZEFSAII (Michael W. Deem and Ramdas Pophale) SiO2 
 PCOD9505431
Probable space group: C C C A
;
_chemical_formula_sum "Si O2"
_cell_formula_units_Z 52
_cell_length_a 12.314787
_cell_length_b 11.567506
_cell_length_c 14.792534
_cell_angle_alpha 90.000000
_cell_angle_beta 90.000000
_cell_angle_gamma 90.000000
_cell_volume 2107.216771
_symmetry_space_group_name_H-M "C C C A"
_symmetry_group_IT_number 68
_space_group.IT_coordinate_system_code '2'
_symmetry_cell_setting 'orthorhombic'
loop_
_space_group_symop_operation_xyz
x,y,z
-x,1/2-y,z
x,1/2-y,1/2-z
-x,y,1/2-z
-x,-y,-z
x,1/2+y,-z
-x,1/2+y,1/2+z
x,-y,1/2+z
1/2+x,1/2+y,z
1/2-x,-y,z
1/2+x,-y,1/2-z
1/2-x,1/2+y,1/2-z
1/2-x,1/2-y,-z
1/2+x,y,-z
1/2-x,y,1/2+z
1/2+x,1/2-y,1/2+z
loop_
_atom_site_type_symbol
_atom_site_label
_atom_site_fract_x
_atom_site_fract_y
_atom_site_fract_z
Si Si1 0.500000 0.750000 0.050755
Si Si2 0.329000 0.230130 0.397389
Si Si3 0.636872 0.862651 0.312607
Si Si4 0.000000 0.250000 0.750000
Si Si5 0.250000 0.000000 0.830883
O O1 0.539507 0.644255 0.115099
O O2 0.602954 0.765613 0.984901
O O3 0.249623 0.332430 0.364816
O O4 0.416380 0.196518 0.320606
O O5 0.264059 0.110140 0.395726
O O6 0.622785 0.750000 0.250000
O O7 0.655585 0.964985 0.241930
#
# Coordination Sequence:
#
# PCOD9505431 Si02
#       5
#     8  16  16   4   8
#     4  11  23  39  65  96 134 168 207 271 329 371
#     4  10  21  40  65  91 126 168 218 265 315 380
#     4  10  21  43  62  90 130 171 213 265 322 382
#     4  10  16  40  66  86 120 172 210 256 324 380
#     4  10  20  42  68  88 128 174 218 260 314 384
#
# _framework density 24.677099999999999
#
# number of rings (size 3 to 8) (size 9 to 14) (size 15 to 20)
#    0.000    1.846    4.615    1.385    0.000    1.231 
#   11.077    7.692    0.000    0.000    0.000    0.000 
#    0.000    0.000    0.000    0.000    0.000    0.000 
#
# Total GULP energy -144819.142880 kJ/mol
# GULP energy per Si atom -5569.967034 kJ/mol
# Density = 2.462093 g / cm^3
# Si number density = 24.677100 Si / 1000 Ang^3
#
#
#
# Elastic Constant Matrix: (Units=GPa)
#
#
# Indices 1 2 3 4 5 6 
#
# 1 112.4494 34.5517 84.1446 0.0000 0.0000 0.0000
# 2 34.5517 69.8239 32.2420 0.0000 0.0000 0.0000
# 3 84.1446 32.2420 142.7129 0.0000 0.0000 0.0000
# 4 0.0000 0.0000 0.0000 25.5227 0.0000 0.0000
# 5 0.0000 0.0000 0.0000 0.0000 56.9093 0.0000
# 6 0.0000 0.0000 0.0000 0.0000 0.0000 6.0670
#
#
#
# Elastic Compliance Matrix: (Units=1/GPa)
#
#
# Indices 1 2 3 4 5 6 
#
# 1 0.016956 -0.004214 -0.009046 0.000000 0.000000 0.000000
# 2 -0.004214 0.017037 -0.001365 0.000000 0.000000 0.000000
# 3 -0.009046 -0.001365 0.012649 0.000000 0.000000 0.000000
# 4 0.000000 0.000000 0.000000 0.039181 0.000000 0.000000
# 5 0.000000 0.000000 0.000000 0.000000 0.017572 0.000000
# 6 0.000000 0.000000 0.000000 0.000000 0.000000 0.164826
#
#
# Mechanical properties :
#
#
# Convention : Reuss Voigt Hill
#
# Bulk Modulus (GPa) = 57.49050 69.65141 63.57096
# Shear Modulus (GPa) = 16.48713 29.30300 22.89507
#
# Velocity S-wave (km/s) = 2.58760 3.44969 3.04926
# Velocity P-wave (km/s) = 5.68113 6.64481 6.18178
#
# Compressibility (1/GPa) = 0.01739418
#
# Stress axis : x y z
#
# Youngs Moduli (GPa) = 58.97497 58.69583 79.05943
#
# Poissons Ratio (x) = 0.24733 0.71514
# Poissons Ratio (y) = 0.24851 0.10788
# Poissons Ratio (z) = 0.53346 0.08009
#
# Static dielectric constant tensor:
#      x y z
#    x 2.075390 0.000000 0.000000 
#    y 0.000000 1.963110 0.000000 
#    z 0.000000 0.000000 2.024110 
# 
# From -- ./inp_files/20175.got.cif
#   From: 2010.05.17/outbox.cif.g08.bks.cpg/sg68_11_cif.got.tgz:20175.got - 2010.06.03 18:57:09.
