data_PCOD9505585
_publ_section_title
;
Structure prediction by ZEFSAII (Michael W. Deem and Ramdas Pophale) SiO2 
 PCOD9505585
Probable space group: C C C A
;
_chemical_formula_sum "Si O2"
_cell_formula_units_Z 88
_cell_length_a 9.088362
_cell_length_b 29.130119
_cell_length_c 17.241789
_cell_angle_alpha 90.000000
_cell_angle_beta 90.000000
_cell_angle_gamma 90.000000
_cell_volume 4564.678577
_symmetry_space_group_name_H-M "C C C A"
_symmetry_group_IT_number 68
_space_group.IT_coordinate_system_code '2'
_symmetry_cell_setting 'orthorhombic'
loop_
_space_group_symop_operation_xyz
x,y,z
-x,1/2-y,z
x,1/2-y,1/2-z
-x,y,1/2-z
-x,-y,-z
x,1/2+y,-z
-x,1/2+y,1/2+z
x,-y,1/2+z
1/2+x,1/2+y,z
1/2-x,-y,z
1/2+x,-y,1/2-z
1/2-x,1/2+y,1/2-z
1/2-x,1/2-y,-z
1/2+x,y,-z
1/2-x,y,1/2+z
1/2+x,1/2-y,1/2+z
loop_
_atom_site_type_symbol
_atom_site_label
_atom_site_fract_x
_atom_site_fract_y
_atom_site_fract_z
Si Si1 0.417328 0.551387 0.555804
Si Si2 0.433601 0.872079 0.167171
Si Si3 0.152697 0.388775 0.034593
Si Si4 0.000000 0.750000 0.487695
Si Si5 0.896574 0.022830 0.378262
Si Si6 0.255642 0.189768 0.570841
O O1 0.267669 0.577491 0.576885
O O2 0.553409 0.584671 0.530043
O O3 0.379105 0.530553 0.471194
O O4 0.470601 0.514045 0.618436
O O5 0.500000 0.861723 0.250000
O O6 0.548924 0.865023 0.097192
O O7 0.409672 0.927108 0.159135
O O8 0.298680 0.838157 0.148045
O O9 0.247278 0.350818 0.992023
O O10 0.899768 0.783898 0.435419
O O11 0.883769 0.723843 0.542711
O O12 0.750000 0.000000 0.346635
#
# Coordination Sequence:
#
# PCOD9505585 Si02
#       6
#    16  16  16   8  16  16
#     4  10  18  28  56  89 109 154 213 251 285 334
#     4  11  24  38  57  88 127 167 196 246 316 373
#     4  11  18  36  61  87 116 161 201 250 297 358
#     4  10  22  34  69 101 110 138 204 266 292 360
#     4  10  18  32  53  80 120 156 207 255 289 343
#     4  11  19  39  64  95 120 148 201 251 309 369
#
# _framework density 19.278466000000002
#
# number of rings (size 3 to 8) (size 9 to 14) (size 15 to 20)
#    0.000    1.455    7.273    0.000    0.000    0.000 
#    3.273    0.455    0.000    6.545    0.000    0.000 
#    0.000    0.000    0.000    0.000    0.000    0.000 
#
# Total GULP energy -245160.665376 kJ/mol
# GULP energy per Si atom -5571.833304 kJ/mol
# Density = 1.923459 g / cm^3
# Si number density = 19.278466 Si / 1000 Ang^3
#
#
#
# Elastic Constant Matrix: (Units=GPa)
#
#
# Indices 1 2 3 4 5 6 
#
# 1 82.9342 29.9909 5.5550 0.0000 0.0000 0.0000
# 2 29.9909 70.3624 16.3157 0.0000 0.0000 0.0000
# 3 5.5550 16.3157 43.1675 0.0000 0.0000 0.0000
# 4 0.0000 0.0000 0.0000 -2.2194 0.0000 0.0000
# 5 0.0000 0.0000 0.0000 0.0000 11.8598 0.0000
# 6 0.0000 0.0000 0.0000 0.0000 0.0000 60.9327
#
#
#
# Elastic Compliance Matrix: (Units=1/GPa)
#
#
# Indices 1 2 3 4 5 6 
#
# 1 0.014265 -0.006198 0.000507 0.000000 0.000000 0.000000
# 2 -0.006198 0.018270 -0.006108 0.000000 0.000000 0.000000
# 3 0.000507 -0.006108 0.025409 0.000000 0.000000 0.000000
# 4 0.000000 0.000000 0.000000 -0.450580 0.000000 0.000000
# 5 0.000000 0.000000 0.000000 0.000000 0.084318 0.000000
# 6 0.000000 0.000000 0.000000 0.000000 0.000000 0.016412
#
#
# Mechanical properties :
#
#
# Convention : Reuss Voigt Hill
#
# Bulk Modulus (GPa) = 29.11509 33.35415 31.23462
# Shear Modulus (GPa) = -19.46589 23.75479 2.14445
#
# Velocity S-wave (km/s) = -3.18106 3.51407 1.05583
# Velocity P-wave (km/s) = 1.28179 5.81410 4.20991
#
# Compressibility (1/GPa) = 0.03434645
#
# Stress axis : x y z
#
# Youngs Moduli (GPa) = 70.10126 54.73403 39.35632
#
# Poissons Ratio (x) = 0.33923 -0.01995
# Poissons Ratio (y) = 0.43447 0.24038
# Poissons Ratio (z) = -0.03553 0.33431
#
# Static dielectric constant tensor:
#      x y z
#    x 1.751230 0.000000 0.000000 
#    y 0.000000 1.261510 0.000000 
#    z 0.000000 0.000000 1.623420 
# 
# From -- ./inp_files/28508.got.cif
#   From: 2010.05.17/outbox.cif.g08.bks.cpg/sg68_15_cif.got.tgz:28508.got - 2010.06.03 18:57:09.
