data_PCOD9505947
_publ_section_title
;
Structure prediction by ZEFSAII (Michael W. Deem and Ramdas Pophale) SiO2 
 PCOD9505947
Probable space group: C C C A
;
_chemical_formula_sum "Si O2"
_cell_formula_units_Z 88
_cell_length_a 29.043219
_cell_length_b 5.662541
_cell_length_c 21.514541
_cell_angle_alpha 90.000000
_cell_angle_beta 90.000000
_cell_angle_gamma 90.000000
_cell_volume 3538.247385
_symmetry_space_group_name_H-M "C C C A"
_symmetry_group_IT_number 68
_space_group.IT_coordinate_system_code '2'
_symmetry_cell_setting 'orthorhombic'
loop_
_space_group_symop_operation_xyz
x,y,z
-x,1/2-y,z
x,1/2-y,1/2-z
-x,y,1/2-z
-x,-y,-z
x,1/2+y,-z
-x,1/2+y,1/2+z
x,-y,1/2+z
1/2+x,1/2+y,z
1/2-x,-y,z
1/2+x,-y,1/2-z
1/2-x,1/2+y,1/2-z
1/2-x,1/2-y,-z
1/2+x,y,-z
1/2-x,y,1/2+z
1/2+x,1/2-y,1/2+z
loop_
_atom_site_type_symbol
_atom_site_label
_atom_site_fract_x
_atom_site_fract_y
_atom_site_fract_z
Si Si1 0.250000 0.000000 0.064632
Si Si2 0.518196 0.999382 0.320225
Si Si3 0.884753 0.151387 0.352542
Si Si4 0.294986 0.611548 0.153371
Si Si5 0.424510 0.757707 0.479032
Si Si6 0.836009 0.729736 0.060280
O O1 0.272527 0.814550 0.111760
O O2 0.207879 0.890036 0.027203
O O3 0.500000 0.750000 0.348741
O O4 0.500000 0.001579 0.250000
O O5 0.573351 0.970218 0.316395
O O6 0.500000 0.250000 0.348364
O O7 0.843116 0.288989 0.318656
O O8 0.910859 0.300413 0.407087
O O9 0.859800 0.948396 0.391613
O O10 0.250000 0.500000 0.188723
O O11 0.314768 0.426182 0.104176
O O12 0.446331 0.494289 0.490060
O O13 0.375670 0.706548 0.513018
#
# Coordination Sequence:
#
# PCOD9505947 Si02
#       6
#     8  16  16  16  16  16
#     4   8  16  28  44  70 118 170 224 264 286 342
#     4  10  24  45  70  98 123 142 201 274 340 408
#     4  10  20  34  59  84 122 168 203 263 331 362
#     4   9  16  30  49  81 124 167 221 250 298 371
#     4  10  19  31  48  78 114 168 215 249 291 371
#     4   9  17  30  48  77 118 170 219 255 299 365
#
# _framework density 24.871072000000002
#
# number of rings (size 3 to 8) (size 9 to 14) (size 15 to 20)
#    0.000    2.545    1.818    0.000    2.545    0.000 
#    1.636    3.636    0.000   13.091    0.000    0.000 
#   65.455    0.000    0.000    0.000    0.000    0.000 
#
# Total GULP energy -245316.064648 kJ/mol
# GULP energy per Si atom -5575.365106 kJ/mol
# Density = 2.481446 g / cm^3
# Si number density = 24.871072 Si / 1000 Ang^3
#
#
#
# Elastic Constant Matrix: (Units=GPa)
#
#
# Indices 1 2 3 4 5 6 
#
# 1 213.7782 50.5904 35.4204 0.0000 0.0000 0.0000
# 2 50.5904 146.1843 3.3318 0.0000 0.0000 0.0000
# 3 35.4204 3.3318 49.7002 0.0000 0.0000 0.0000
# 4 0.0000 0.0000 0.0000 -25.8278 0.0000 0.0000
# 5 0.0000 0.0000 0.0000 0.0000 7.3523 0.0000
# 6 0.0000 0.0000 0.0000 0.0000 0.0000 15.9534
#
#
#
# Elastic Compliance Matrix: (Units=1/GPa)
#
#
# Indices 1 2 3 4 5 6 
#
# 1 0.005793 -0.001914 -0.004001 0.000000 0.000000 0.000000
# 2 -0.001914 0.007483 0.000862 0.000000 0.000000 0.000000
# 3 -0.004001 0.000862 0.022914 0.000000 0.000000 0.000000
# 4 0.000000 0.000000 0.000000 -0.038718 0.000000 0.000000
# 5 0.000000 0.000000 0.000000 0.000000 0.136011 0.000000
# 6 0.000000 0.000000 0.000000 0.000000 0.000000 0.062683
#
#
# Mechanical properties :
#
#
# Convention : Reuss Voigt Hill
#
# Bulk Modulus (GPa) = 38.33393 65.37200 51.85297
# Shear Modulus (GPa) = 23.25940 20.85025 22.05483
#
# Velocity S-wave (km/s) = 3.06142 2.89854 2.98109
# Velocity P-wave (km/s) = 5.28611 6.12727 5.72217
#
# Compressibility (1/GPa) = 0.02608655
#
# Stress axis : x y z
#
# Youngs Moduli (GPa) = 172.60733 133.63019 43.64137
#
# Poissons Ratio (x) = 0.25574 0.17459
# Poissons Ratio (y) = 0.33033 -0.03763
# Poissons Ratio (z) = 0.69054 -0.11522
#
# Static dielectric constant tensor:
#      x y z
#    x 2.058070 0.000000 0.000000 
#    y 0.000000 2.160410 0.000000 
#    z 0.000000 0.000000 1.882840 
# 
# From -- ./inp_files/56152.got.cif
#   From: 2010.05.17/outbox.cif.g08.bks.cpg/sg68_29_cif.got.tgz:56152.got - 2010.06.03 18:57:09.
