data_PCOD9505182
_publ_section_title
;
Structure prediction by ZEFSAII (Michael W. Deem and Ramdas Pophale) SiO2 
 PCOD9505182
Probable space group: C M M A
;
_chemical_formula_sum "Si O2"
_cell_formula_units_Z 48
_cell_length_a 9.000000
_cell_length_b 21.000000
_cell_length_c 27.000000
_cell_angle_alpha 90.000000
_cell_angle_beta 90.000000
_cell_angle_gamma 90.000000
_cell_volume 5103.000000
_symmetry_space_group_name_H-M "C M M A"
_symmetry_group_IT_number 67
_symmetry_cell_setting 'orthorhombic'
loop_
_space_group_symop_operation_xyz
x,y,z
-x,1/2-y,z
x,-y,-z
-x,1/2+y,-z
-x,-y,-z
x,1/2+y,-z
-x,y,z
x,1/2-y,z
1/2+x,1/2+y,z
1/2-x,-y,z
1/2+x,1/2-y,-z
1/2-x,y,-z
1/2-x,1/2-y,-z
1/2+x,y,-z
1/2-x,1/2+y,z
1/2+x,-y,z
loop_
_atom_site_type_symbol
_atom_site_label
_atom_site_fract_x
_atom_site_fract_y
_atom_site_fract_z
Si Si1 0.174890 0.438587 0.553775
Si Si2 0.679894 0.562659 0.220260
Si Si3 0.172999 0.822276 0.601864
Si Si4 0.322778 0.682635 0.280228
Si Si5 0.676239 0.178423 0.946067
Si Si6 0.821763 0.936241 0.111508
O O1 0.250000 0.500000 0.579258
O O2 0.250000 0.434521 0.500000
O O3 0.217285 0.373507 0.579972
O O4 0.000000 0.447837 0.549784
O O5 0.500000 0.558895 0.217711
O O6 0.750000 0.500000 0.243929
O O7 0.733196 0.622677 0.251214
O O8 0.749664 0.567414 0.165923
O O9 0.199393 0.750000 0.584445
O O10 0.191143 0.822795 0.661002
O O11 0.000000 0.838344 0.590623
O O12 0.500000 0.684230 0.270637
O O13 0.257505 0.750000 0.263915
O O14 0.500000 0.163636 0.948673
O O15 0.690090 0.250000 0.924876
O O16 0.765240 0.126027 0.916028
O O17 0.750000 0.179490 0.000000
O O18 0.000000 0.941083 0.113349
O O19 0.750000 0.000000 0.088056
#
# Coordination Sequence:
#
# PCOD9505182 Si02
#       6
#    16  16  16  16  16  16
#     4  11  22  37  56  78 106 138 176 219 265 316
#     4  10  19  33  53  77 106 139 177 219 265 315
#     4   9  18  35  57  80 108 141 177 217 262 313
#     4   8  16  32  54  78 104 137 176 216 259 310
#     4  10  21  38  59  83 111 142 177 218 265 317
#     4  11  22  37  56  79 109 143 182 224 268 316
#
# _framework density 9.4062319999999993
#
# number of rings (size 3 to 8) (size 9 to 14) (size 15 to 20)
#    0.000    2.167    0.000    6.500    0.000    3.333 
#    0.000    6.667    0.000    3.500    0.000    0.000 
#    0.000    0.000    0.000    0.000    0.000    0.000 
#
# Total GULP energy -267534.123431 kJ/mol
# GULP energy per Si atom -5573.627571 kJ/mol
# Density = 0.938482 g / cm^3
# Si number density = 9.406232 Si / 1000 Ang^3
#
#
#
# Elastic Constant Matrix: (Units=GPa)
#
#
# Indices 1 2 3 4 5 6 
#
# 1 134.9843 69.6804 19.6293 0.0000 0.0000 0.0000
# 2 69.6804 142.5881 43.5232 0.0000 0.0000 0.0000
# 3 19.6293 43.5232 5.7166 0.0000 0.0000 0.0000
# 4 0.0000 0.0000 0.0000 54.0521 0.0000 0.0000
# 5 0.0000 0.0000 0.0000 0.0000 14.1602 0.0000
# 6 0.0000 0.0000 0.0000 0.0000 0.0000 28.9642
#
#
#
# Elastic Compliance Matrix: (Units=1/GPa)
#
#
# Indices 1 2 3 4 5 6 
#
# 1 0.009873 -0.004172 -0.002139 0.000000 0.000000 0.000000
# 2 -0.004172 -0.003535 0.041235 0.000000 0.000000 0.000000
# 3 -0.002139 0.041235 -0.131668 0.000000 0.000000 0.000000
# 4 0.000000 0.000000 0.000000 0.018501 0.000000 0.000000
# 5 0.000000 0.000000 0.000000 0.000000 0.070621 0.000000
# 6 0.000000 0.000000 0.000000 0.000000 0.000000 0.034525
#
#
# Mechanical properties :
#
#
# Convention : Reuss Voigt Hill
#
# Bulk Modulus (GPa) = -18.02426 60.99497 21.48535
# Shear Modulus (GPa) = -55.54003 29.46571 -13.03716
#
# Velocity S-wave (km/s) = -5.43940 3.96193 -2.63536
# Velocity P-wave (km/s) = 7.00366 7.30905 1.47833
#
# Compressibility (1/GPa) = -0.05548077
#
# Stress axis : x y z
#
# Youngs Moduli (GPa) = 101.28791 -282.91607 -7.59488
#
# Poissons Ratio (x) = -1.18026 -0.01625
# Poissons Ratio (y) = 0.42255 0.31318
# Poissons Ratio (z) = 0.21666 11.66609
#
# Static dielectric constant tensor:
#      x y z
#    x 1.625430 0.000000 0.000000 
#    y 0.000000 1.736770 0.000000 
#    z 0.000000 0.000000 1.676080 
# 
# From -- ./inp_files/43505.got.cif
#   From: 2010.05.17/outbox.ucp.g08.bks.cvg/sg67_22_cif.got.tgz:43505.got - 2010.06.11 16:47:20.
