data_PCOD9505892
_publ_section_title
;
Structure prediction by ZEFSAII (Michael W. Deem and Ramdas Pophale) SiO2 
 PCOD9505892
Probable space group: C C C A
;
_chemical_formula_sum "Si O2"
_cell_formula_units_Z 72
_cell_length_a 25.722751
_cell_length_b 13.330886
_cell_length_c 10.891385
_cell_angle_alpha 90.000000
_cell_angle_beta 90.000000
_cell_angle_gamma 90.000000
_cell_volume 3734.732823
_symmetry_space_group_name_H-M "C C C A"
_symmetry_group_IT_number 68
_space_group.IT_coordinate_system_code '2'
_symmetry_cell_setting 'orthorhombic'
loop_
_space_group_symop_operation_xyz
x,y,z
-x,1/2-y,z
x,1/2-y,1/2-z
-x,y,1/2-z
-x,-y,-z
x,1/2+y,-z
-x,1/2+y,1/2+z
x,-y,1/2+z
1/2+x,1/2+y,z
1/2-x,-y,z
1/2+x,-y,1/2-z
1/2-x,1/2+y,1/2-z
1/2-x,1/2-y,-z
1/2+x,y,-z
1/2-x,y,1/2+z
1/2+x,1/2-y,1/2+z
loop_
_atom_site_type_symbol
_atom_site_label
_atom_site_fract_x
_atom_site_fract_y
_atom_site_fract_z
Si Si1 0.826564 0.250000 0.250000
Si Si2 0.505362 0.582498 0.107292
Si Si3 0.584224 0.255019 0.938698
Si Si4 0.672601 0.260805 0.394100
Si Si5 0.736379 0.114959 0.931180
O O1 0.867047 0.216496 0.146374
O O2 0.791558 0.335594 0.187692
O O3 0.500000 0.547619 0.250000
O O4 0.459670 0.662510 0.080276
O O5 0.558363 0.648129 0.095695
O O6 0.500000 0.500000 0.000000
O O7 0.612405 0.248356 0.069411
O O8 0.678149 0.250000 0.250000
O O9 0.697655 0.360415 0.455316
O O10 0.709958 0.174851 0.450211
O O11 0.750000 0.000000 0.916336
#
# Coordination Sequence:
#
# PCOD9505892 Si02
#       5
#     8  16  16  16  16
#     4  10  18  41  68  90 124 175 220 260 328 396
#     4  11  23  43  68  98 125 166 223 274 336 404
#     4  10  21  42  67  87 128 177 207 266 334 393
#     4  10  22  41  59  94 134 171 222 273 327 392
#     4  10  22  40  63  93 130 177 221 272 324 389
#
# _framework density 19.278486999999998
#
# number of rings (size 3 to 8) (size 9 to 14) (size 15 to 20)
#    0.000    1.778    3.333    0.667    0.000    6.222 
#    4.000    2.222    0.000    0.000    0.000    0.000 
#    0.000    0.000    0.000    0.000    0.000    0.000 
#
# Total GULP energy -200640.599863 kJ/mol
# GULP energy per Si atom -5573.349996 kJ/mol
# Density = 1.923461 g / cm^3
# Si number density = 19.278487 Si / 1000 Ang^3
#
#
#
# Elastic Constant Matrix: (Units=GPa)
#
#
# Indices 1 2 3 4 5 6 
#
# 1 106.6939 37.6173 48.1076 0.0000 0.0000 0.0000
# 2 37.6173 118.6896 58.4995 0.0000 0.0000 0.0000
# 3 48.1076 58.4995 144.7555 0.0000 0.0000 0.0000
# 4 0.0000 0.0000 0.0000 6.2765 0.0000 0.0000
# 5 0.0000 0.0000 0.0000 0.0000 35.5848 0.0000
# 6 0.0000 0.0000 0.0000 0.0000 0.0000 6.6277
#
#
#
# Elastic Compliance Matrix: (Units=1/GPa)
#
#
# Indices 1 2 3 4 5 6 
#
# 1 0.011464 -0.002192 -0.002924 0.000000 0.000000 0.000000
# 2 -0.002192 0.010940 -0.003693 0.000000 0.000000 0.000000
# 3 -0.002924 -0.003693 0.009372 0.000000 0.000000 0.000000
# 4 0.000000 0.000000 0.000000 0.159325 0.000000 0.000000
# 5 0.000000 0.000000 0.000000 0.000000 0.028102 0.000000
# 6 0.000000 0.000000 0.000000 0.000000 0.000000 0.150882
#
#
# Mechanical properties :
#
#
# Convention : Reuss Voigt Hill
#
# Bulk Modulus (GPa) = 70.62806 73.17644 71.90225
# Shear Modulus (GPa) = 12.74137 24.75876 18.75007
#
# Velocity S-wave (km/s) = 2.57361 3.58756 3.12202
# Velocity P-wave (km/s) = 6.74881 7.42972 7.09744
#
# Compressibility (1/GPa) = 0.01415868
#
# Stress axis : x y z
#
# Youngs Moduli (GPa) = 87.23030 91.40633 106.69815
#
# Poissons Ratio (x) = 0.20038 0.31198
# Poissons Ratio (y) = 0.19123 0.39400
# Poissons Ratio (z) = 0.25506 0.33753
#
# Static dielectric constant tensor:
#      x y z
#    x 1.695120 0.000000 0.000000 
#    y 0.000000 1.661890 0.000000 
#    z 0.000000 0.000000 1.772560 
# 
# From -- ./inp_files/16950.got.cif
#   From: 2010.05.17/outbox.cif.g08.bks.cpg/sg68_9_cif.got.tgz:16950.got - 2010.06.03 18:57:09.
