data_PCOD9505103
_publ_section_title
;
Structure prediction by ZEFSAII (Michael W. Deem and Ramdas Pophale) SiO2 
 PCOD9505103
Probable space group: C M M A
;
_chemical_formula_sum "Si O2"
_cell_formula_units_Z 112
_cell_length_a 14.429802
_cell_length_b 14.110764
_cell_length_c 24.778962
_cell_angle_alpha 90.000000
_cell_angle_beta 90.000000
_cell_angle_gamma 90.000000
_cell_volume 5045.381495
_symmetry_space_group_name_H-M "C M M A"
_symmetry_group_IT_number 67
_symmetry_cell_setting 'orthorhombic'
loop_
_space_group_symop_operation_xyz
x,y,z
-x,1/2-y,z
x,-y,-z
-x,1/2+y,-z
-x,-y,-z
x,1/2+y,-z
-x,y,z
x,1/2-y,z
1/2+x,1/2+y,z
1/2-x,-y,z
1/2+x,1/2-y,-z
1/2-x,y,-z
1/2-x,1/2-y,-z
1/2+x,y,-z
1/2-x,1/2+y,z
1/2+x,-y,z
loop_
_atom_site_type_symbol
_atom_site_label
_atom_site_fract_x
_atom_site_fract_y
_atom_site_fract_z
Si Si1 0.893064 0.143693 0.904873
Si Si2 0.395047 0.134164 0.528976
Si Si3 0.144730 0.858390 0.981201
Si Si4 0.389255 0.136899 0.307955
Si Si5 0.294188 0.634412 0.581310
Si Si6 0.887847 0.856861 0.860807
Si Si7 0.113570 0.466023 0.800974
O O1 0.852498 0.250000 0.910069
O O2 0.851578 0.089862 0.854154
O O3 0.000000 0.154434 0.890224
O O4 0.896140 0.097414 0.964348
O O5 0.500000 0.101900 0.540140
O O6 0.396799 0.250000 0.530308
O O7 0.359947 0.107030 0.469000
O O8 0.311327 0.104235 0.568519
O O9 0.107364 0.750000 0.976990
O O10 0.137353 0.895314 0.920597
O O11 0.250000 0.855615 0.000000
O O12 0.500000 0.122850 0.315892
O O13 0.375832 0.250000 0.299686
O O14 0.335034 0.105865 0.361381
O O15 0.358236 0.080933 0.254770
O O16 0.294113 0.750000 0.580984
O O17 0.853009 0.750000 0.855014
O O18 0.000000 0.854368 0.860779
O O19 0.858778 0.926313 0.813085
O O20 0.000000 0.463940 0.800598
#
# Coordination Sequence:
#
# PCOD9505103 Si02
#       7
#    16  16  16  16  16  16  16
#     4   9  16  27  43  62  87 118 148 182 232 293
#     4   8  12  18  28  45  75 116 163 213 261 311
#     4   9  17  29  45  65  90 118 148 189 242 297
#     4   9  15  23  36  55  82 115 154 204 259 314
#     4   8  13  19  29  48  76 116 163 209 262 317
#     4   9  17  30  46  62  84 116 151 189 241 306
#     4   9  17  27  40  59  81 110 152 197 240 295
#
# _framework density 22.198519999999998
#
# number of rings (size 3 to 8) (size 9 to 14) (size 15 to 20)
#    0.000    3.286    0.000    2.143    0.000    5.714 
#    0.000    3.571    0.000    0.000    0.000    0.000 
#    0.000    4.571    0.000   28.000    0.000    7.000 
#
# Total GULP energy -312433.329039 kJ/mol
# GULP energy per Si atom -5579.166590 kJ/mol
# Density = 2.214800 g / cm^3
# Si number density = 22.198520 Si / 1000 Ang^3
#
#
#
# Elastic Constant Matrix: (Units=GPa)
#
#
# Indices 1 2 3 4 5 6 
#
# 1 109.0557 22.2546 55.6685 0.0000 0.0000 0.0000
# 2 22.2546 76.8061 72.3026 0.0000 0.0000 0.0000
# 3 55.6685 72.3026 202.6061 0.0000 0.0000 0.0000
# 4 0.0000 0.0000 0.0000 26.4383 0.0000 0.0000
# 5 0.0000 0.0000 0.0000 0.0000 28.0781 0.0000
# 6 0.0000 0.0000 0.0000 0.0000 0.0000 4.7726
#
#
#
# Elastic Compliance Matrix: (Units=1/GPa)
#
#
# Indices 1 2 3 4 5 6 
#
# 1 0.010678 -0.000500 -0.002756 0.000000 0.000000 0.000000
# 2 -0.000500 0.019630 -0.006868 0.000000 0.000000 0.000000
# 3 -0.002756 -0.006868 0.008144 0.000000 0.000000 0.000000
# 4 0.000000 0.000000 0.000000 0.037824 0.000000 0.000000
# 5 0.000000 0.000000 0.000000 0.000000 0.035615 0.000000
# 6 0.000000 0.000000 0.000000 0.000000 0.000000 0.209531
#
#
# Mechanical properties :
#
#
# Convention : Reuss Voigt Hill
#
# Bulk Modulus (GPa) = 54.93002 76.54658 65.73830
# Shear Modulus (GPa) = 14.37871 27.74061 21.05966
#
# Velocity S-wave (km/s) = 2.54782 3.53889 3.08343
# Velocity P-wave (km/s) = 5.78393 7.15932 6.50806
#
# Compressibility (1/GPa) = 0.01820498
#
# Stress axis : x y z
#
# Youngs Moduli (GPa) = 93.64826 50.94314 122.79535
#
# Poissons Ratio (x) = 0.02548 0.33837
# Poissons Ratio (y) = 0.04683 0.84332
# Poissons Ratio (z) = 0.25805 0.34986
#
# Static dielectric constant tensor:
#      x y z
#    x 1.937300 0.000000 0.000000 
#    y 0.000000 1.889300 0.000000 
#    z 0.000000 0.000000 1.776550 
# 
# From -- ./inp_files/41930.got.cif
#   From: 2010.05.17/outbox.cif.g08.bks.cpg/sg67_21_cif.got.tgz:41930.got - 2010.06.03 18:28:57.
