data_PCOD9505397
_publ_section_title
;
Structure prediction by ZEFSAII (Michael W. Deem and Ramdas Pophale) SiO2 
 PCOD9505397
Probable space group: C C C A
;
_chemical_formula_sum "Si O2"
_cell_formula_units_Z 88
_cell_length_a 13.447303
_cell_length_b 22.183170
_cell_length_c 12.792432
_cell_angle_alpha 90.000000
_cell_angle_beta 90.000000
_cell_angle_gamma 90.000000
_cell_volume 3816.031185
_symmetry_space_group_name_H-M "C C C A"
_symmetry_group_IT_number 68
_space_group.IT_coordinate_system_code '2'
_symmetry_cell_setting 'orthorhombic'
loop_
_space_group_symop_operation_xyz
x,y,z
-x,1/2-y,z
x,1/2-y,1/2-z
-x,y,1/2-z
-x,-y,-z
x,1/2+y,-z
-x,1/2+y,1/2+z
x,-y,1/2+z
1/2+x,1/2+y,z
1/2-x,-y,z
1/2+x,-y,1/2-z
1/2-x,1/2+y,1/2-z
1/2-x,1/2-y,-z
1/2+x,y,-z
1/2-x,y,1/2+z
1/2+x,1/2-y,1/2+z
loop_
_atom_site_type_symbol
_atom_site_label
_atom_site_fract_x
_atom_site_fract_y
_atom_site_fract_z
Si Si1 0.659664 0.750000 0.250000
Si Si2 0.804471 0.937003 0.876428
Si Si3 0.615915 0.633530 0.549520
Si Si4 0.866820 0.763565 0.986138
Si Si5 0.595151 0.896746 0.574068
Si Si6 0.205287 0.119797 0.322394
O O1 0.607796 0.734656 0.138203
O O2 0.715727 0.688882 0.283202
O O3 0.879593 0.936060 0.972385
O O4 0.849292 0.917878 0.766568
O O5 0.750000 0.000000 0.871582
O O6 0.718220 0.886611 0.896749
O O7 0.591144 0.704856 0.545130
O O8 0.521175 0.599838 0.598486
O O9 0.640697 0.618910 0.428079
O O10 0.887108 0.827792 0.036194
O O11 0.750000 0.750000 0.000000
O O12 0.684854 0.907086 0.655049
#
# Coordination Sequence:
#
# PCOD9505397 Si02
#       6
#     8  16  16  16  16  16
#     4  10  16  32  61  83 118 160 194 238 295 359
#     4  11  24  43  63  84 122 164 206 250 299 358
#     4  10  23  39  62  95 120 158 204 246 307 359
#     4  11  17  36  61  91 127 157 192 246 302 364
#     4  11  22  39  64  91 126 158 199 254 300 358
#     4  10  21  38  62  87 123 161 199 248 303 358
#
# _framework density 23.060608999999999
#
# number of rings (size 3 to 8) (size 9 to 14) (size 15 to 20)
#    0.000    1.455    7.273    0.545    0.000    5.091 
#    0.000    2.727    0.000    0.000    0.000    0.000 
#    0.000    0.000    0.000    0.000    0.000    0.000 
#
# Total GULP energy -245543.920408 kJ/mol
# GULP energy per Si atom -5580.543646 kJ/mol
# Density = 2.300812 g / cm^3
# Si number density = 23.060609 Si / 1000 Ang^3
#
#
#
# Elastic Constant Matrix: (Units=GPa)
#
#
# Indices 1 2 3 4 5 6 
#
# 1 70.1245 -28.9949 -22.0266 0.0000 0.0000 0.0000
# 2 -28.9949 39.2424 3.0060 0.0000 0.0000 0.0000
# 3 -22.0266 3.0060 59.6253 0.0000 0.0000 0.0000
# 4 0.0000 0.0000 0.0000 7.2385 0.0000 0.0000
# 5 0.0000 0.0000 0.0000 0.0000 -11.0408 0.0000
# 6 0.0000 0.0000 0.0000 0.0000 0.0000 6.4221
#
#
#
# Elastic Compliance Matrix: (Units=1/GPa)
#
#
# Indices 1 2 3 4 5 6 
#
# 1 0.023755 0.016945 0.007921 0.000000 0.000000 0.000000
# 2 0.016945 0.037669 0.004361 0.000000 0.000000 0.000000
# 3 0.007921 0.004361 0.019478 0.000000 0.000000 0.000000
# 4 0.000000 0.000000 0.000000 0.138149 0.000000 0.000000
# 5 0.000000 0.000000 0.000000 0.000000 -0.090573 0.000000
# 6 0.000000 0.000000 0.000000 0.000000 0.000000 0.155712
#
#
# Mechanical properties :
#
#
# Convention : Reuss Voigt Hill
#
# Bulk Modulus (GPa) = 7.17595 8.10680 7.64138
# Shear Modulus (GPa) = 18.36971 14.99115 16.68043
#
# Velocity S-wave (km/s) = 2.82544 2.55243 2.69240
# Velocity P-wave (km/s) = 3.70981 3.49422 3.60363
#
# Compressibility (1/GPa) = 0.13935436
#
# Stress axis : x y z
#
# Youngs Moduli (GPa) = 42.09682 26.54730 51.34062
#
# Poissons Ratio (x) = -0.44984 -0.40668
# Poissons Ratio (y) = -0.71332 -0.22388
# Poissons Ratio (z) = -0.33345 -0.11576
#
# Static dielectric constant tensor:
#      x y z
#    x 1.977570 0.000000 0.000000 
#    y 0.000000 1.883580 0.000000 
#    z 0.000000 0.000000 1.910680 
# 
# From -- ./inp_files/22264.got.cif
#   From: 2010.05.17/outbox.cif.g08.bks.cpg/sg68_12_cif.got.tgz:22264.got - 2010.06.03 18:57:09.
