data_PCOD9505757
_publ_section_title
;
Structure prediction by ZEFSAII (Michael W. Deem and Ramdas Pophale) SiO2 
 PCOD9505757
Probable space group: C C C A
;
_chemical_formula_sum "Si O2"
_cell_formula_units_Z 104
_cell_length_a 20.653410
_cell_length_b 17.594128
_cell_length_c 14.984335
_cell_angle_alpha 90.000000
_cell_angle_beta 90.000000
_cell_angle_gamma 90.000000
_cell_volume 5444.988760
_symmetry_space_group_name_H-M "C C C A"
_symmetry_group_IT_number 68
_space_group.IT_coordinate_system_code '2'
_symmetry_cell_setting 'orthorhombic'
loop_
_space_group_symop_operation_xyz
x,y,z
-x,1/2-y,z
x,1/2-y,1/2-z
-x,y,1/2-z
-x,-y,-z
x,1/2+y,-z
-x,1/2+y,1/2+z
x,-y,1/2+z
1/2+x,1/2+y,z
1/2-x,-y,z
1/2+x,-y,1/2-z
1/2-x,1/2+y,1/2-z
1/2-x,1/2-y,-z
1/2+x,y,-z
1/2-x,y,1/2+z
1/2+x,1/2-y,1/2+z
loop_
_atom_site_type_symbol
_atom_site_label
_atom_site_fract_x
_atom_site_fract_y
_atom_site_fract_z
Si Si1 0.000000 0.068654 0.250000
Si Si2 0.705815 0.261205 0.853976
Si Si3 0.434083 0.794138 0.580720
Si Si4 0.412898 0.136412 0.889497
Si Si5 0.452947 0.453631 0.372140
Si Si6 0.402994 0.974401 0.946712
Si Si7 0.821520 0.675651 0.467330
O O1 0.973222 0.120858 0.173018
O O2 0.947480 0.010483 0.289647
O O3 0.725682 0.250000 0.750000
O O4 0.637922 0.305228 0.850603
O O5 0.757792 0.311722 0.908117
O O6 0.693892 0.193152 0.927372
O O7 0.500000 0.750000 0.602701
O O8 0.439370 0.832880 0.483160
O O9 0.426549 0.868758 0.642512
O O10 0.373573 0.737866 0.569436
O O11 0.380840 0.053254 0.901792
O O12 0.420518 0.497299 0.454144
O O13 0.529389 0.448842 0.399757
O O14 0.353185 0.906072 0.952178
#
# Coordination Sequence:
#
# PCOD9505757 Si02
#       7
#     8  16  16  16  16  16  16
#     4  10  20  32  54  90 122 142 178 248 298 348
#     4  10  23  41  58  86 116 155 202 247 290 351
#     4  10  18  34  58  84 108 150 193 229 289 359
#     4   9  21  35  57  86 119 144 192 243 295 352
#     4   9  18  32  52  86 121 142 184 227 298 355
#     4   9  17  34  59  81 112 158 180 232 291 354
#     4  10  21  38  63  81 116 159 196 239 295 345
#
# _framework density 19.100131999999999
#
# number of rings (size 3 to 8) (size 9 to 14) (size 15 to 20)
#    0.000    2.462    1.538    0.923    2.154    1.846 
#    5.538    0.385    0.000    1.846    0.000    0.000 
#    0.000    0.000    0.000    0.000    0.000    0.000 
#
# Total GULP energy -289644.549926 kJ/mol
# GULP energy per Si atom -5570.087499 kJ/mol
# Density = 1.905666 g / cm^3
# Si number density = 19.100132 Si / 1000 Ang^3
#
#
#
# Elastic Constant Matrix: (Units=GPa)
#
#
# Indices 1 2 3 4 5 6 
#
# 1 18.4295 -6.6209 -6.6234 0.0000 0.0000 0.0000
# 2 -6.6209 43.3551 -2.5222 0.0000 0.0000 0.0000
# 3 -6.6234 -2.5222 49.7084 0.0000 0.0000 0.0000
# 4 0.0000 0.0000 0.0000 3.0436 0.0000 0.0000
# 5 0.0000 0.0000 0.0000 0.0000 12.6396 0.0000
# 6 0.0000 0.0000 0.0000 0.0000 0.0000 28.4386
#
#
#
# Elastic Compliance Matrix: (Units=1/GPa)
#
#
# Indices 1 2 3 4 5 6 
#
# 1 0.060874 0.009797 0.008608 0.000000 0.000000 0.000000
# 2 0.009797 0.024710 0.002559 0.000000 0.000000 0.000000
# 3 0.008608 0.002559 0.021394 0.000000 0.000000 0.000000
# 4 0.000000 0.000000 0.000000 0.328560 0.000000 0.000000
# 5 0.000000 0.000000 0.000000 0.000000 0.079117 0.000000
# 6 0.000000 0.000000 0.000000 0.000000 0.000000 0.035163
#
#
# Mechanical properties :
#
#
# Convention : Reuss Voigt Hill
#
# Bulk Modulus (GPa) = 6.71557 8.88445 7.80001
# Shear Modulus (GPa) = 8.96820 17.30832 13.13826
#
# Velocity S-wave (km/s) = 2.16923 3.01356 2.62556
# Velocity P-wave (km/s) = 3.13012 4.09516 3.64472
#
# Compressibility (1/GPa) = 0.14890775
#
# Stress axis : x y z
#
# Youngs Moduli (GPa) = 16.42734 40.46889 46.74163
#
# Poissons Ratio (x) = -0.39647 -0.40237
# Poissons Ratio (y) = -0.16094 -0.11962
# Poissons Ratio (z) = -0.14141 -0.10357
#
# Static dielectric constant tensor:
#      x y z
#    x 1.668170 0.000000 0.000000 
#    y 0.000000 1.685520 0.000000 
#    z 0.000000 0.000000 1.708870 
# 
# From -- ./inp_files/24660.got.cif
#   From: 2010.05.17/outbox.cif.g08.bks.cpg/sg68_13_cif.got.tgz:24660.got - 2010.06.03 18:57:09.
