data_PCOD9505831
_publ_section_title
;
Structure prediction by ZEFSAII (Michael W. Deem and Ramdas Pophale) SiO2 
 PCOD9505831
Probable space group: C C C A
;
_chemical_formula_sum "Si O2"
_cell_formula_units_Z 64
_cell_length_a 12.718918
_cell_length_b 13.201685
_cell_length_c 12.823708
_cell_angle_alpha 90.000000
_cell_angle_beta 90.000000
_cell_angle_gamma 90.000000
_cell_volume 2153.243544
_symmetry_space_group_name_H-M "C C C A"
_symmetry_group_IT_number 68
_space_group.IT_coordinate_system_code '2'
_symmetry_cell_setting 'orthorhombic'
loop_
_space_group_symop_operation_xyz
x,y,z
-x,1/2-y,z
x,1/2-y,1/2-z
-x,y,1/2-z
-x,-y,-z
x,1/2+y,-z
-x,1/2+y,1/2+z
x,-y,1/2+z
1/2+x,1/2+y,z
1/2-x,-y,z
1/2+x,-y,1/2-z
1/2-x,1/2+y,1/2-z
1/2-x,1/2-y,-z
1/2+x,y,-z
1/2-x,y,1/2+z
1/2+x,1/2-y,1/2+z
loop_
_atom_site_type_symbol
_atom_site_label
_atom_site_fract_x
_atom_site_fract_y
_atom_site_fract_z
Si Si1 0.045236 0.380903 0.921439
Si Si2 0.500000 0.750000 0.383416
Si Si3 0.332743 0.250000 0.250000
Si Si4 0.294905 0.889351 0.916381
Si Si5 0.161974 0.080060 0.137083
O O1 0.099363 0.318117 0.828265
O O2 0.085695 0.494723 0.912730
O O3 0.060394 0.323880 0.032130
O O4 0.920744 0.384482 0.900908
O O5 0.579908 0.831191 0.328494
O O6 0.259221 0.319719 0.178112
O O7 0.250000 0.000000 0.904219
O O8 0.279078 0.866778 0.038658
O O9 0.250000 0.000000 0.184154
#
# Coordination Sequence:
#
# PCOD9505831 Si02
#       5
#    16   8   8  16  16
#     4  11  20  37  63  92 119 165 220 268 332 406
#     4  10  18  37  60  90 127 166 214 274 338 385
#     4  12  21  40  68  88 121 174 223 266 332 412
#     4  10  20  37  60  92 124 163 211 275 331 396
#     4  10  22  38  59  97 129 170 221 277 337 410
#
# _framework density 29.7226
#
# number of rings (size 3 to 8) (size 9 to 14) (size 15 to 20)
#    0.000    1.500    5.000    4.500    0.000    2.000 
#    4.500    0.000    0.000    0.000    0.000    0.000 
#    0.000    0.000    0.000    0.000    0.000    0.000 
#
# Total GULP energy -179010.012692 kJ/mol
# GULP energy per Si atom -5594.062897 kJ/mol
# Density = 2.965495 g / cm^3
# Si number density = 29.722600 Si / 1000 Ang^3
#
#
#
# Elastic Constant Matrix: (Units=GPa)
#
#
# Indices 1 2 3 4 5 6 
#
# 1 153.6332 93.0702 60.7483 0.0000 0.0000 0.0000
# 2 93.0702 236.9948 50.6383 0.0000 0.0000 0.0000
# 3 60.7483 50.6383 120.9470 0.0000 0.0000 0.0000
# 4 0.0000 0.0000 0.0000 64.7567 0.0000 0.0000
# 5 0.0000 0.0000 0.0000 0.0000 49.2654 0.0000
# 6 0.0000 0.0000 0.0000 0.0000 0.0000 95.0874
#
#
#
# Elastic Compliance Matrix: (Units=1/GPa)
#
#
# Indices 1 2 3 4 5 6 
#
# 1 0.009811 -0.003075 -0.003640 0.000000 0.000000 0.000000
# 2 -0.003075 0.005598 -0.000799 0.000000 0.000000 0.000000
# 3 -0.003640 -0.000799 0.010431 0.000000 0.000000 0.000000
# 4 0.000000 0.000000 0.000000 0.015442 0.000000 0.000000
# 5 0.000000 0.000000 0.000000 0.000000 0.020298 0.000000
# 6 0.000000 0.000000 0.000000 0.000000 0.000000 0.010517
#
#
# Mechanical properties :
#
#
# Convention : Reuss Voigt Hill
#
# Bulk Modulus (GPa) = 92.49951 102.27652 97.38802
# Shear Modulus (GPa) = 55.10790 62.29646 58.70218
#
# Velocity S-wave (km/s) = 4.31057 4.58310 4.44892
# Velocity P-wave (km/s) = 7.48085 7.90515 7.69593
#
# Compressibility (1/GPa) = 0.01081087
#
# Stress axis : x y z
#
# Youngs Moduli (GPa) = 101.92193 178.63797 95.86630
#
# Poissons Ratio (x) = 0.54935 0.34900
# Poissons Ratio (y) = 0.31343 0.07661
# Poissons Ratio (z) = 0.37105 0.14276
#
# Static dielectric constant tensor:
#      x y z
#    x 2.404650 0.000000 0.000000 
#    y 0.000000 2.413090 0.000000 
#    z 0.000000 0.000000 2.377500 
# 
# From -- ./inp_files/30502.got.cif
#   From: 2010.05.17/outbox.cif.g08.bks.cpg/sg68_16_cif.got.tgz:30502.got - 2010.06.03 18:57:09.
