data_PCOD9505913
_publ_section_title
;
Structure prediction by ZEFSAII (Michael W. Deem and Ramdas Pophale) SiO2 
 PCOD9505913
Probable space group: C C C A
;
_chemical_formula_sum "Si O2"
_cell_formula_units_Z 88
_cell_length_a 17.215219
_cell_length_b 13.829353
_cell_length_c 15.033861
_cell_angle_alpha 90.000000
_cell_angle_beta 90.000000
_cell_angle_gamma 90.000000
_cell_volume 3579.191577
_symmetry_space_group_name_H-M "C C C A"
_symmetry_group_IT_number 68
_space_group.IT_coordinate_system_code '2'
_symmetry_cell_setting 'orthorhombic'
loop_
_space_group_symop_operation_xyz
x,y,z
-x,1/2-y,z
x,1/2-y,1/2-z
-x,y,1/2-z
-x,-y,-z
x,1/2+y,-z
-x,1/2+y,1/2+z
x,-y,1/2+z
1/2+x,1/2+y,z
1/2-x,-y,z
1/2+x,-y,1/2-z
1/2-x,1/2+y,1/2-z
1/2-x,1/2-y,-z
1/2+x,y,-z
1/2-x,y,1/2+z
1/2+x,1/2-y,1/2+z
loop_
_atom_site_type_symbol
_atom_site_label
_atom_site_fract_x
_atom_site_fract_y
_atom_site_fract_z
Si Si1 0.968448 0.920526 0.349535
Si Si2 0.886073 0.027744 0.090080
Si Si3 0.000000 0.750000 0.013110
Si Si4 0.269734 0.797703 0.379050
Si Si5 0.808351 0.075348 0.761665
Si Si6 0.849935 0.145701 0.468983
O O1 0.877333 0.916474 0.330755
O O2 0.000000 0.897603 0.250000
O O3 0.021896 0.010818 0.385896
O O4 0.979641 0.837503 0.421315
O O5 0.846159 0.976410 0.174595
O O6 0.866286 0.963680 0.002206
O O7 0.840581 0.129950 0.089711
O O8 0.069293 0.702354 0.958755
O O9 0.236415 0.838174 0.287010
O O10 0.198107 0.810941 0.447252
O O11 0.299164 0.687387 0.387747
O O12 0.750000 0.000000 0.802768
#
# Coordination Sequence:
#
# PCOD9505913 Si02
#       6
#    16  16   8  16  16  16
#     4   9  16  27  46  73 104 134 169 222 279 332
#     4   8  15  28  47  74 103 137 176 220 276 330
#     4  10  19  30  46  76 108 138 175 224 278 328
#     4   9  16  29  50  73 100 144 187 221 270 333
#     4   8  14  26  47  73 100 133 172 218 274 328
#     4   9  17  29  47  71 102 140 183 221 262 332
#
# _framework density 24.586559000000001
#
# number of rings (size 3 to 8) (size 9 to 14) (size 15 to 20)
#    0.000    3.273    0.000    3.000    0.000    0.000 
#    0.000    3.636    0.000   12.000    0.000   10.182 
#    0.000    0.000    0.000  191.636    0.000    9.818 
#
# Total GULP energy -245222.487886 kJ/mol
# GULP energy per Si atom -5573.238361 kJ/mol
# Density = 2.453060 g / cm^3
# Si number density = 24.586559 Si / 1000 Ang^3
#
#
#
# Elastic Constant Matrix: (Units=GPa)
#
#
# Indices 1 2 3 4 5 6 
#
# 1 126.8427 49.8816 26.8701 0.0000 0.0000 0.0000
# 2 49.8816 114.7179 22.5601 0.0000 0.0000 0.0000
# 3 26.8701 22.5601 60.2114 0.0000 0.0000 0.0000
# 4 0.0000 0.0000 0.0000 23.5364 0.0000 0.0000
# 5 0.0000 0.0000 0.0000 0.0000 21.3282 0.0000
# 6 0.0000 0.0000 0.0000 0.0000 0.0000 24.7525
#
#
#
# Elastic Compliance Matrix: (Units=1/GPa)
#
#
# Indices 1 2 3 4 5 6 
#
# 1 0.010007 -0.003749 -0.003061 0.000000 0.000000 0.000000
# 2 -0.003749 0.010815 -0.002379 0.000000 0.000000 0.000000
# 3 -0.003061 -0.002379 0.018865 0.000000 0.000000 0.000000
# 4 0.000000 0.000000 0.000000 0.042487 0.000000 0.000000
# 5 0.000000 0.000000 0.000000 0.000000 0.046886 0.000000
# 6 0.000000 0.000000 0.000000 0.000000 0.000000 0.040400
#
#
# Mechanical properties :
#
#
# Convention : Reuss Voigt Hill
#
# Bulk Modulus (GPa) = 46.92848 55.59948 51.26398
# Shear Modulus (GPa) = 25.64867 27.42076 26.53472
#
# Velocity S-wave (km/s) = 3.23336 3.34320 3.28874
# Velocity P-wave (km/s) = 5.75048 6.12907 5.94279
#
# Compressibility (1/GPa) = 0.02130902
#
# Stress axis : x y z
#
# Youngs Moduli (GPa) = 99.93469 92.46336 53.00681
#
# Poissons Ratio (x) = 0.34666 0.16224
# Poissons Ratio (y) = 0.37467 0.12611
# Poissons Ratio (z) = 0.30588 0.21998
#
# Static dielectric constant tensor:
#      x y z
#    x 2.084130 0.000000 0.000000 
#    y 0.000000 2.031340 0.000000 
#    z 0.000000 0.000000 1.873260 
# 
# From -- ./inp_files/31884.got.cif
#   From: 2010.05.17/outbox.cif.g08.bks.cpg/sg68_16_cif.got.tgz:31884.got - 2010.06.03 18:57:09.
