data_PCOD9505549
_publ_section_title
;
Structure prediction by ZEFSAII (Michael W. Deem and Ramdas Pophale) SiO2 
 PCOD9505549
Probable space group: C C C A
;
_chemical_formula_sum "Si O2"
_cell_formula_units_Z 76
_cell_length_a 8.790657
_cell_length_b 15.641306
_cell_length_c 28.427515
_cell_angle_alpha 90.000000
_cell_angle_beta 90.000000
_cell_angle_gamma 90.000000
_cell_volume 3908.708152
_symmetry_space_group_name_H-M "C C C A"
_symmetry_group_IT_number 68
_space_group.IT_coordinate_system_code '2'
_symmetry_cell_setting 'orthorhombic'
loop_
_space_group_symop_operation_xyz
x,y,z
-x,1/2-y,z
x,1/2-y,1/2-z
-x,y,1/2-z
-x,-y,-z
x,1/2+y,-z
-x,1/2+y,1/2+z
x,-y,1/2+z
1/2+x,1/2+y,z
1/2-x,-y,z
1/2+x,-y,1/2-z
1/2-x,1/2+y,1/2-z
1/2-x,1/2-y,-z
1/2+x,y,-z
1/2-x,y,1/2+z
1/2+x,1/2-y,1/2+z
loop_
_atom_site_type_symbol
_atom_site_label
_atom_site_fract_x
_atom_site_fract_y
_atom_site_fract_z
Si Si1 0.510406 0.908921 0.433020
Si Si2 0.706910 0.654219 0.981303
Si Si3 0.705463 0.820565 0.829891
Si Si4 0.500000 0.750000 0.750000
Si Si5 0.000000 0.250000 0.139443
Si Si6 0.250000 0.000000 0.626261
Si Si7 0.500000 0.750000 0.588063
O O1 0.630173 0.890034 0.474337
O O2 0.345050 0.900792 0.458774
O O3 0.498504 0.831514 0.395320
O O4 0.595257 0.985922 0.404989
O O5 0.578210 0.676927 0.943126
O O6 0.750000 0.750000 0.000000
O O7 0.602019 0.806173 0.784871
O O8 0.854322 0.762109 0.828070
O O9 0.624584 0.789190 0.877683
O O10 0.740099 0.918144 0.840508
#
# Coordination Sequence:
#
# PCOD9505549 Si02
#       7
#    16  16  16   4   8   8   8
#     4  11  21  33  55  85 127 176 217 252 297 352
#     4  12  18  31  55  86 121 173 227 259 277 345
#     4  10  22  42  68  92 120 154 199 265 321 387
#     4  10  24  46  74  96 108 148 210 252 316 404
#     4  10  17  35  63  88 118 164 211 243 305 372
#     4  10  24  42  58  90 138 162 194 268 332 368
#     4  11  19  35  62  88 118 166 218 263 289 357
#
# _framework density 19.443764000000002
#
# number of rings (size 3 to 8) (size 9 to 14) (size 15 to 20)
#    0.000    1.263    6.316    1.263    0.000    1.263 
#    0.000    4.211    0.000    0.000    0.000    0.000 
#    0.000    0.000    0.000    0.000    0.000    0.000 
#
# Total GULP energy -211934.383090 kJ/mol
# GULP energy per Si atom -5577.220608 kJ/mol
# Density = 1.939951 g / cm^3
# Si number density = 19.443764 Si / 1000 Ang^3
#
#
#
# Elastic Constant Matrix: (Units=GPa)
#
#
# Indices 1 2 3 4 5 6 
#
# 1 133.2195 35.4239 49.6561 0.0000 0.0000 0.0000
# 2 35.4239 59.6648 28.8835 0.0000 0.0000 0.0000
# 3 49.6561 28.8835 104.1847 0.0000 0.0000 0.0000
# 4 0.0000 0.0000 0.0000 -27.4773 0.0000 0.0000
# 5 0.0000 0.0000 0.0000 0.0000 -58.2321 0.0000
# 6 0.0000 0.0000 0.0000 0.0000 0.0000 30.9703
#
#
#
# Elastic Compliance Matrix: (Units=1/GPa)
#
#
# Indices 1 2 3 4 5 6 
#
# 1 0.009953 -0.004173 -0.003587 0.000000 0.000000 0.000000
# 2 -0.004173 0.021108 -0.003863 0.000000 0.000000 0.000000
# 3 -0.003587 -0.003863 0.012379 0.000000 0.000000 0.000000
# 4 0.000000 0.000000 0.000000 -0.036394 0.000000 0.000000
# 5 0.000000 0.000000 0.000000 0.000000 -0.017173 0.000000
# 6 0.000000 0.000000 0.000000 0.000000 0.000000 0.032289
#
#
# Mechanical properties :
#
#
# Convention : Reuss Voigt Hill
#
# Bulk Modulus (GPa) = 49.51903 58.33291 53.92597
# Shear Modulus (GPa) = 95.89729 1.25920 48.57824
#
# Velocity S-wave (km/s) = 7.03046 0.80562 5.00382
# Velocity P-wave (km/s) = 9.56171 5.56159 7.82169
#
# Compressibility (1/GPa) = 0.02019426
#
# Stress axis : x y z
#
# Youngs Moduli (GPa) = 100.47257 47.37585 80.78296
#
# Poissons Ratio (x) = 0.19769 0.28976
# Poissons Ratio (y) = 0.41925 0.31206
# Poissons Ratio (z) = 0.36038 0.18301
#
# Static dielectric constant tensor:
#      x y z
#    x 1.709320 0.000000 0.000000 
#    y 0.000000 1.683280 0.000000 
#    z 0.000000 0.000000 1.648460 
# 
# From -- ./inp_files/49213.got.cif
#   From: 2010.05.17/outbox.cif.g08.bks.cpg/sg68_25_cif.got.tgz:49213.got - 2010.06.03 18:57:09.
