data_PCOD9505372
_publ_section_title
;
Structure prediction by ZEFSAII (Michael W. Deem and Ramdas Pophale) SiO2 
 PCOD9505372
Probable space group: C C C A
;
_chemical_formula_sum "Si O2"
_cell_formula_units_Z 48
_cell_length_a 5.332967
_cell_length_b 22.808008
_cell_length_c 17.095974
_cell_angle_alpha 90.000000
_cell_angle_beta 90.000000
_cell_angle_gamma 90.000000
_cell_volume 2079.457753
_symmetry_space_group_name_H-M "C C C A"
_symmetry_group_IT_number 68
_space_group.IT_coordinate_system_code '2'
_symmetry_cell_setting 'orthorhombic'
loop_
_space_group_symop_operation_xyz
x,y,z
-x,1/2-y,z
x,1/2-y,1/2-z
-x,y,1/2-z
-x,-y,-z
x,1/2+y,-z
-x,1/2+y,1/2+z
x,-y,1/2+z
1/2+x,1/2+y,z
1/2-x,-y,z
1/2+x,-y,1/2-z
1/2-x,1/2+y,1/2-z
1/2-x,1/2-y,-z
1/2+x,y,-z
1/2-x,y,1/2+z
1/2+x,1/2-y,1/2+z
loop_
_atom_site_type_symbol
_atom_site_label
_atom_site_fract_x
_atom_site_fract_y
_atom_site_fract_z
Si Si1 0.420091 0.662150 0.952769
Si Si2 0.504991 0.525575 0.588418
Si Si3 0.254307 0.315806 0.283535
O O1 0.450643 0.594107 0.926868
O O2 0.303152 0.690543 0.875233
O O3 0.702873 0.675066 0.982699
O O4 0.500000 0.500000 0.500000
O O5 0.250000 0.500000 0.624460
O O6 0.750000 0.500000 0.629502
O O7 0.251268 0.250000 0.250000
O O8 0.500000 0.347309 0.250000
O O9 0.000000 0.343609 0.250000
#
# Coordination Sequence:
#
# PCOD9505372 Si02
#       3
#    16  16  16
#     4  12  21  35  65 100 116 158 222 266 305 385
#     4  10  16  30  51  90 132 147 178 259 321 348
#     4  10  23  45  62  82 128 177 203 261 340 383
#
# _framework density 23.082940000000001
#
# number of rings (size 3 to 8) (size 9 to 14) (size 15 to 20)
#    0.000    1.333    6.667    2.000    0.000    0.000 
#    0.000   20.000    0.000    4.000    0.000    0.000 
#    0.000    0.000    0.000    0.000    0.000    0.000 
#
# Total GULP energy -133723.269941 kJ/mol
# GULP energy per Si atom -5571.802914 kJ/mol
# Density = 2.303040 g / cm^3
# Si number density = 23.082940 Si / 1000 Ang^3
#
#
#
# Elastic Constant Matrix: (Units=GPa)
#
#
# Indices 1 2 3 4 5 6 
#
# 1 262.1233 9.3347 20.5883 0.0000 0.0000 0.0000
# 2 9.3347 73.3439 30.9914 0.0000 0.0000 0.0000
# 3 20.5883 30.9914 80.8667 0.0000 0.0000 0.0000
# 4 0.0000 0.0000 0.0000 -26.1731 0.0000 0.0000
# 5 0.0000 0.0000 0.0000 0.0000 19.4044 0.0000
# 6 0.0000 0.0000 0.0000 0.0000 0.0000 -3.4883
#
#
#
# Elastic Compliance Matrix: (Units=1/GPa)
#
#
# Indices 1 2 3 4 5 6 
#
# 1 0.003893 -0.000091 -0.000956 0.000000 0.000000 0.000000
# 2 -0.000091 0.016271 -0.006212 0.000000 0.000000 0.000000
# 3 -0.000956 -0.006212 0.014990 0.000000 0.000000 0.000000
# 4 0.000000 0.000000 0.000000 -0.038207 0.000000 0.000000
# 5 0.000000 0.000000 0.000000 0.000000 0.051535 0.000000
# 6 0.000000 0.000000 0.000000 0.000000 0.000000 -0.286676
#
#
# Mechanical properties :
#
#
# Convention : Reuss Voigt Hill
#
# Bulk Modulus (GPa) = 48.46238 59.79586 54.12912
# Shear Modulus (GPa) = -23.06321 21.64324 -0.70999
#
# Velocity S-wave (km/s) = -3.16435 3.06539 -0.55520
# Velocity P-wave (km/s) = 2.77302 6.20402 4.80518
#
# Compressibility (1/GPa) = 0.02063456
#
# Stress axis : x y z
#
# Youngs Moduli (GPa) = 256.84773 61.45859 66.70968
#
# Poissons Ratio (x) = 0.00562 0.06379
# Poissons Ratio (y) = 0.02350 0.41443
# Poissons Ratio (z) = 0.24559 0.38181
#
# Static dielectric constant tensor:
#      x y z
#    x 1.313730 0.000000 0.000000 
#    y 0.000000 -1.891290 0.000000 
#    z 0.000000 0.000000 1.879060 
# 
# From -- ./inp_files/18199.got.cif
#   From: 2010.05.17/outbox.cif.g08.bks.cpg/sg68_10_cif.got.tgz:18199.got - 2010.06.03 18:57:09.
