data_PCOD9505751
_publ_section_title
;
Structure prediction by ZEFSAII (Michael W. Deem and Ramdas Pophale) SiO2 
 PCOD9505751
Probable space group: C C C A
;
_chemical_formula_sum "Si O2"
_cell_formula_units_Z 120
_cell_length_a 10.619600
_cell_length_b 17.891703
_cell_length_c 28.364938
_cell_angle_alpha 90.000000
_cell_angle_beta 90.000000
_cell_angle_gamma 90.000000
_cell_volume 5389.415633
_symmetry_space_group_name_H-M "C C C A"
_symmetry_group_IT_number 68
_space_group.IT_coordinate_system_code '2'
_symmetry_cell_setting 'orthorhombic'
loop_
_space_group_symop_operation_xyz
x,y,z
-x,1/2-y,z
x,1/2-y,1/2-z
-x,y,1/2-z
-x,-y,-z
x,1/2+y,-z
-x,1/2+y,1/2+z
x,-y,1/2+z
1/2+x,1/2+y,z
1/2-x,-y,z
1/2+x,-y,1/2-z
1/2-x,1/2+y,1/2-z
1/2-x,1/2-y,-z
1/2+x,y,-z
1/2-x,y,1/2+z
1/2+x,1/2-y,1/2+z
loop_
_atom_site_type_symbol
_atom_site_label
_atom_site_fract_x
_atom_site_fract_y
_atom_site_fract_z
Si Si1 0.136206 0.621750 0.396050
Si Si2 0.000000 0.750000 0.338640
Si Si3 0.440166 0.037329 0.183230
Si Si4 0.771858 0.276156 0.316113
Si Si5 0.801973 0.918516 0.229739
Si Si6 0.592551 0.678871 0.402447
Si Si7 0.609731 0.624882 0.164810
Si Si8 0.125545 0.198034 0.505366
O O1 0.082865 0.546161 0.372485
O O2 0.274956 0.623807 0.372780
O O3 0.139551 0.642138 0.450631
O O4 0.043403 0.682550 0.372272
O O5 0.874851 0.740249 0.307858
O O6 0.569531 0.074502 0.199508
O O7 0.341209 0.084083 0.215291
O O8 0.413604 0.950522 0.194669
O O9 0.787661 0.351745 0.286510
O O10 0.786936 0.296410 0.371849
O O11 0.863317 0.204973 0.309554
O O12 0.750000 0.000000 0.220687
O O13 0.500000 0.750000 0.407390
O O14 0.515565 0.627627 0.367031
O O15 0.617008 0.654767 0.455441
O O16 0.250000 0.250000 0.500000
O O17 0.000000 0.250000 0.511581
#
# Coordination Sequence:
#
# PCOD9505751 Si02
#       8
#    16   8  16  16  16  16  16  16
#     4  11  20  36  61  89 128 169 210 269 329 389
#     4  10  18  34  55  92 120 158 200 260 329 362
#     4  11  24  42  64  92 132 175 222 270 344 405
#     4  10  20  38  66  92 130 163 217 271 325 390
#     4  11  23  42  66  96 129 173 220 275 338 400
#     4   9  19  36  60  96 126 169 216 269 327 395
#     4  10  21  40  63  88 130 178 215 264 334 407
#     4  11  21  35  61  97 132 167 221 281 338 403
#
# _framework density 22.265865000000002
#
# number of rings (size 3 to 8) (size 9 to 14) (size 15 to 20)
#    0.000    1.600    2.000    5.200    0.000    0.000 
#    0.000    7.333    0.000    6.400    0.000    2.800 
#    0.000    0.000    0.000    0.000    0.000    0.000 
#
# Total GULP energy -334572.248874 kJ/mol
# GULP energy per Si atom -5576.204148 kJ/mol
# Density = 2.221519 g / cm^3
# Si number density = 22.265865 Si / 1000 Ang^3
#
#
#
# Elastic Constant Matrix: (Units=GPa)
#
#
# Indices 1 2 3 4 5 6 
#
# 1 89.0677 15.0835 28.2960 0.0000 0.0000 0.0000
# 2 15.0835 126.2814 47.1611 0.0000 0.0000 0.0000
# 3 28.2960 47.1611 157.8067 0.0000 0.0000 0.0000
# 4 0.0000 0.0000 0.0000 33.8517 0.0000 0.0000
# 5 0.0000 0.0000 0.0000 0.0000 20.3899 0.0000
# 6 0.0000 0.0000 0.0000 0.0000 0.0000 27.6390
#
#
#
# Elastic Compliance Matrix: (Units=1/GPa)
#
#
# Indices 1 2 3 4 5 6 
#
# 1 0.011961 -0.000707 -0.001934 0.000000 0.000000 0.000000
# 2 -0.000707 0.008955 -0.002550 0.000000 0.000000 0.000000
# 3 -0.001934 -0.002550 0.007446 0.000000 0.000000 0.000000
# 4 0.000000 0.000000 0.000000 0.029541 0.000000 0.000000
# 5 0.000000 0.000000 0.000000 0.000000 0.049044 0.000000
# 6 0.000000 0.000000 0.000000 0.000000 0.000000 0.036181
#
#
# Mechanical properties :
#
#
# Convention : Reuss Voigt Hill
#
# Bulk Modulus (GPa) = 55.60920 61.58188 58.59554
# Shear Modulus (GPa) = 31.34767 35.21713 33.28240
#
# Velocity S-wave (km/s) = 3.75624 3.98133 3.87042
# Velocity P-wave (km/s) = 6.62131 6.98944 6.80786
#
# Compressibility (1/GPa) = 0.01798264
#
# Stress axis : x y z
#
# Youngs Moduli (GPa) = 83.60255 111.66421 134.30838
#
# Poissons Ratio (x) = 0.07890 0.25970
# Poissons Ratio (y) = 0.05907 0.34244
# Poissons Ratio (z) = 0.16165 0.28471
#
# Static dielectric constant tensor:
#      x y z
#    x 1.965900 0.000000 0.000000 
#    y 0.000000 1.907730 0.000000 
#    z 0.000000 0.000000 1.841770 
# 
# From -- ./inp_files/50433.got.cif
#   From: 2010.05.17/outbox.cif.g08.bks.cpg/sg68_26_cif.got.tgz:50433.got - 2010.06.03 18:57:09.
