data_PCOD9505621
_publ_section_title
;
Structure prediction by ZEFSAII (Michael W. Deem and Ramdas Pophale) SiO2 
 PCOD9505621
Probable space group: C C C A
;
_chemical_formula_sum "Si O2"
_cell_formula_units_Z 72
_cell_length_a 14.503366
_cell_length_b 11.174170
_cell_length_c 22.470957
_cell_angle_alpha 90.000000
_cell_angle_beta 90.000000
_cell_angle_gamma 90.000000
_cell_volume 3641.712440
_symmetry_space_group_name_H-M "C C C A"
_symmetry_group_IT_number 68
_space_group.IT_coordinate_system_code '2'
_symmetry_cell_setting 'orthorhombic'
loop_
_space_group_symop_operation_xyz
x,y,z
-x,1/2-y,z
x,1/2-y,1/2-z
-x,y,1/2-z
-x,-y,-z
x,1/2+y,-z
-x,1/2+y,1/2+z
x,-y,1/2+z
1/2+x,1/2+y,z
1/2-x,-y,z
1/2+x,-y,1/2-z
1/2-x,1/2+y,1/2-z
1/2-x,1/2-y,-z
1/2+x,y,-z
1/2-x,y,1/2+z
1/2+x,1/2-y,1/2+z
loop_
_atom_site_type_symbol
_atom_site_label
_atom_site_fract_x
_atom_site_fract_y
_atom_site_fract_z
Si Si1 0.589395 0.185072 0.869038
Si Si2 0.250000 0.000000 0.885049
Si Si3 0.852847 0.938794 0.402224
Si Si4 0.159307 0.677578 0.523042
Si Si5 0.714516 0.265461 0.319102
O O1 0.500000 0.250000 0.844490
O O2 0.603209 0.229040 0.937364
O O3 0.679504 0.226686 0.832916
O O4 0.585696 0.042476 0.873802
O O5 0.314305 0.075030 0.929618
O O6 0.203012 0.100212 0.843713
O O7 0.882963 0.886629 0.465746
O O8 0.843002 0.827394 0.358374
O O9 0.750000 0.000000 0.410081
O O10 0.250000 0.750000 0.500000
O O11 0.695150 0.250000 0.250000
#
# Coordination Sequence:
#
# PCOD9505621 Si02
#       5
#    16   8  16  16  16
#     4  10  22  35  53  84 118 151 186 239 311 354
#     4  10  18  30  54  86 108 132 196 246 288 338
#     4  10  18  33  56  82 112 145 190 245 287 344
#     4  11  16  33  57  83 110 148 189 240 291 350
#     4  10  22  35  58  83 108 152 203 245 283 351
#
# _framework density 19.77092
#
# number of rings (size 3 to 8) (size 9 to 14) (size 15 to 20)
#    0.000    1.778    7.778    0.000    4.667    1.333 
#    0.000    0.000    0.000    0.000    0.000    6.222 
#    0.000    0.000    0.000    0.000    0.000    0.000 
#
# Total GULP energy -200845.296831 kJ/mol
# GULP energy per Si atom -5579.036023 kJ/mol
# Density = 1.972592 g / cm^3
# Si number density = 19.770920 Si / 1000 Ang^3
#
#
#
# Elastic Constant Matrix: (Units=GPa)
#
#
# Indices 1 2 3 4 5 6 
#
# 1 17.8553 10.4298 -8.6360 0.0000 0.0000 0.0000
# 2 10.4298 169.5275 54.6966 0.0000 0.0000 0.0000
# 3 -8.6360 54.6966 133.3257 0.0000 0.0000 0.0000
# 4 0.0000 0.0000 0.0000 25.3384 0.0000 0.0000
# 5 0.0000 0.0000 0.0000 0.0000 8.3206 0.0000
# 6 0.0000 0.0000 0.0000 0.0000 0.0000 15.9611
#
#
#
# Elastic Compliance Matrix: (Units=1/GPa)
#
#
# Indices 1 2 3 4 5 6 
#
# 1 0.062623 -0.005949 0.006497 0.000000 0.000000 0.000000
# 2 -0.005949 0.007364 -0.003406 0.000000 0.000000 0.000000
# 3 0.006497 -0.003406 0.009319 0.000000 0.000000 0.000000
# 4 0.000000 0.000000 0.000000 0.039466 0.000000 0.000000
# 5 0.000000 0.000000 0.000000 0.000000 0.120183 0.000000
# 6 0.000000 0.000000 0.000000 0.000000 0.000000 0.062652
#
#
# Mechanical properties :
#
#
# Convention : Reuss Voigt Hill
#
# Bulk Modulus (GPa) = 13.58904 48.18771 30.88837
# Shear Modulus (GPa) = 15.06690 27.53855 21.30273
#
# Velocity S-wave (km/s) = 2.76356 3.73618 3.28606
# Velocity P-wave (km/s) = 4.13173 6.56034 5.48221
#
# Compressibility (1/GPa) = 0.07358874
#
# Stress axis : x y z
#
# Youngs Moduli (GPa) = 15.96857 135.80027 107.31131
#
# Poissons Ratio (x) = 0.80786 -0.69719
# Poissons Ratio (y) = 0.09500 0.36553
# Poissons Ratio (z) = -0.10375 0.46258
#
# Static dielectric constant tensor:
#      x y z
#    x 1.752420 0.000000 0.000000 
#    y 0.000000 1.752110 0.000000 
#    z 0.000000 0.000000 1.669440 
# 
# From -- ./inp_files/39290.got.cif
#   From: 2010.05.17/outbox.cif.g08.bks.cpg/sg68_20_cif.got.tgz:39290.got - 2010.06.03 18:57:09.
