data_PCOD9505292
_publ_section_title
;
Structure prediction by ZEFSAII (Michael W. Deem and Ramdas Pophale) SiO2 
 PCOD9505292
Probable space group: C C C A
;
_chemical_formula_sum "Si O2"
_cell_formula_units_Z 88
_cell_length_a 11.487862
_cell_length_b 15.559744
_cell_length_c 20.152200
_cell_angle_alpha 90.000000
_cell_angle_beta 90.000000
_cell_angle_gamma 90.000000
_cell_volume 3602.169311
_symmetry_space_group_name_H-M "C C C A"
_symmetry_group_IT_number 68
_space_group.IT_coordinate_system_code '2'
_symmetry_cell_setting 'orthorhombic'
loop_
_space_group_symop_operation_xyz
x,y,z
-x,1/2-y,z
x,1/2-y,1/2-z
-x,y,1/2-z
-x,-y,-z
x,1/2+y,-z
-x,1/2+y,1/2+z
x,-y,1/2+z
1/2+x,1/2+y,z
1/2-x,-y,z
1/2+x,-y,1/2-z
1/2-x,1/2+y,1/2-z
1/2-x,1/2-y,-z
1/2+x,y,-z
1/2-x,y,1/2+z
1/2+x,1/2-y,1/2+z
loop_
_atom_site_type_symbol
_atom_site_label
_atom_site_fract_x
_atom_site_fract_y
_atom_site_fract_z
Si Si1 0.194883 0.139489 0.128880
Si Si2 0.137114 0.547550 0.583289
Si Si3 0.000000 0.102670 0.750000
Si Si4 0.917932 0.542922 0.112794
Si Si5 0.620826 0.771806 0.025341
Si Si6 0.757918 0.101147 0.225928
O O1 0.331198 0.124245 0.108353
O O2 0.126790 0.215087 0.093020
O O3 0.187691 0.145409 0.208945
O O4 0.143038 0.048893 0.105043
O O5 0.250000 0.500000 0.558326
O O6 0.110030 0.628177 0.539132
O O7 0.172806 0.589698 0.656031
O O8 0.040260 0.473500 0.578299
O O9 0.958332 0.047451 0.811111
O O10 0.875071 0.140504 0.722512
O O11 0.500000 0.750000 0.988352
O O12 0.750000 0.750000 0.000000
O O13 0.750000 0.000000 0.245095
#
# Coordination Sequence:
#
# PCOD9505292 Si02
#       6
#    16  16   8  16  16  16
#     4  10  20  37  66 100 133 177 211 268 336 402
#     4  11  22  41  70 104 139 175 221 270 341 413
#     4  10  14  28  54  98 150 178 204 250 320 416
#     4  10  16  33  65  99 133 174 215 253 325 414
#     4  12  29  53  69  94 135 178 235 301 344 387
#     4  10  17  30  61 105 142 173 208 262 334 411
#
# _framework density 24.429724
#
# number of rings (size 3 to 8) (size 9 to 14) (size 15 to 20)
#    0.000    1.455    9.091    0.000    0.000    2.182 
#    3.273    2.727    0.000    1.091    0.000    0.000 
#    0.000    0.000    0.000    0.000    0.000    0.000 
#
# Total GULP energy -244990.206720 kJ/mol
# GULP energy per Si atom -5567.959244 kJ/mol
# Density = 2.437412 g / cm^3
# Si number density = 24.429724 Si / 1000 Ang^3
#
#
#
# Elastic Constant Matrix: (Units=GPa)
#
#
# Indices 1 2 3 4 5 6 
#
# 1 154.0845 13.8129 4.6944 0.0000 0.0000 0.0000
# 2 13.8129 55.9165 -5.2956 0.0000 0.0000 0.0000
# 3 4.6944 -5.2956 63.6485 0.0000 0.0000 0.0000
# 4 0.0000 0.0000 0.0000 -13.2520 0.0000 0.0000
# 5 0.0000 0.0000 0.0000 0.0000 23.1101 0.0000
# 6 0.0000 0.0000 0.0000 0.0000 0.0000 23.9169
#
#
#
# Elastic Compliance Matrix: (Units=1/GPa)
#
#
# Indices 1 2 3 4 5 6 
#
# 1 0.006662 -0.001706 -0.000633 0.000000 0.000000 0.000000
# 2 -0.001706 0.018463 0.001662 0.000000 0.000000 0.000000
# 3 -0.000633 0.001662 0.015896 0.000000 0.000000 0.000000
# 4 0.000000 0.000000 0.000000 -0.075460 0.000000 0.000000
# 5 0.000000 0.000000 0.000000 0.000000 0.043271 0.000000
# 6 0.000000 0.000000 0.000000 0.000000 0.000000 0.041811
#
#
# Mechanical properties :
#
#
# Convention : Reuss Voigt Hill
#
# Bulk Modulus (GPa) = 25.21002 33.34145 29.27573
# Shear Modulus (GPa) = 76.66361 24.11750 50.39056
#
# Velocity S-wave (km/s) = 5.60798 3.14541 4.54659
# Velocity P-wave (km/s) = 7.23010 5.18353 6.29060
#
# Compressibility (1/GPa) = 0.03966677
#
# Stress axis : x y z
#
# Youngs Moduli (GPa) = 150.10180 54.16370 62.90781
#
# Poissons Ratio (x) = 0.09239 0.03984
# Poissons Ratio (y) = 0.25603 -0.10455
# Poissons Ratio (z) = 0.09506 -0.09001
#
# Static dielectric constant tensor:
#      x y z
#    x 2.162380 0.000000 0.000000 
#    y 0.000000 1.802410 0.000000 
#    z 0.000000 0.000000 4.018050 
# 
# From -- ./inp_files/44245.got.cif
#   From: 2010.05.17/outbox.cif.g08.bks.cpg/sg68_23_cif.got.tgz:44245.got - 2010.06.03 18:57:09.
