data_PCOD9505291
_publ_section_title
;
Structure prediction by ZEFSAII (Michael W. Deem and Ramdas Pophale) SiO2 
 PCOD9505291
Probable space group: C C C A
;
_chemical_formula_sum "Si O2"
_cell_formula_units_Z 112
_cell_length_a 20.054807
_cell_length_b 16.336751
_cell_length_c 18.086204
_cell_angle_alpha 90.000000
_cell_angle_beta 90.000000
_cell_angle_gamma 90.000000
_cell_volume 5925.590040
_symmetry_space_group_name_H-M "C C C A"
_symmetry_group_IT_number 68
_space_group.IT_coordinate_system_code '2'
_symmetry_cell_setting 'orthorhombic'
loop_
_space_group_symop_operation_xyz
x,y,z
-x,1/2-y,z
x,1/2-y,1/2-z
-x,y,1/2-z
-x,-y,-z
x,1/2+y,-z
-x,1/2+y,1/2+z
x,-y,1/2+z
1/2+x,1/2+y,z
1/2-x,-y,z
1/2+x,-y,1/2-z
1/2-x,1/2+y,1/2-z
1/2-x,1/2-y,-z
1/2+x,y,-z
1/2-x,y,1/2+z
1/2+x,1/2-y,1/2+z
loop_
_atom_site_type_symbol
_atom_site_label
_atom_site_fract_x
_atom_site_fract_y
_atom_site_fract_z
Si Si1 0.948854 0.172572 0.972868
Si Si2 0.797470 0.222508 0.934076
Si Si3 0.748936 0.094021 0.315314
Si Si4 0.841838 0.327681 0.803774
Si Si5 0.986723 0.848553 0.169236
Si Si6 0.489207 0.349365 0.632640
Si Si7 0.892830 0.348428 0.236367
O O1 0.872681 0.203053 0.963112
O O2 0.000000 0.250000 0.972983
O O3 0.968633 0.122886 0.898956
O O4 0.965951 0.129243 0.050171
O O5 0.769517 0.145871 0.887850
O O6 0.798988 0.292427 0.870848
O O7 0.750000 0.250000 0.000000
O O8 0.694833 0.111439 0.251096
O O9 0.819216 0.121745 0.280783
O O10 0.750000 0.000000 0.334482
O O11 0.859377 0.250000 0.750000
O O12 0.908592 0.360248 0.841260
O O13 0.000000 0.750000 0.173858
O O14 0.000000 0.884195 0.250000
O O15 0.500000 0.250000 0.634318
O O16 0.431853 0.376188 0.689963
O O17 0.559814 0.375135 0.667763
O O18 0.889765 0.250000 0.250000
#
# Coordination Sequence:
#
# PCOD9505291 Si02
#       7
#    16  16  16  16  16  16  16
#     4  10  18  30  54  90 127 141 182 259 316 339
#     4  11  23  35  61  95 117 154 203 249 295 363
#     4  11  25  40  57  81 127 163 197 247 309 357
#     4  10  18  34  56  85 109 149 201 237 285 352
#     4  10  14  26  50  78 116 143 176 244 293 334
#     4   8  17  29  57  90 112 142 196 253 306 335
#     4   9  17  35  61  86 110 149 200 256 286 352
#
# _framework density 18.901071000000002
#
# number of rings (size 3 to 8) (size 9 to 14) (size 15 to 20)
#    0.000    2.143    4.286    3.000    8.000    0.000 
#    0.000    0.714    9.429    0.857    0.000    0.000 
#    0.000    0.000    0.000    0.000    0.000    0.000 
#
# Total GULP energy -311879.422009 kJ/mol
# GULP energy per Si atom -5569.275393 kJ/mol
# Density = 1.885805 g / cm^3
# Si number density = 18.901071 Si / 1000 Ang^3
#
#
#
# Elastic Constant Matrix: (Units=GPa)
#
#
# Indices 1 2 3 4 5 6 
#
# 1 131.4999 27.2656 58.9119 0.0000 0.0000 0.0000
# 2 27.2656 38.5616 28.5627 0.0000 0.0000 0.0000
# 3 58.9119 28.5627 158.4066 0.0000 0.0000 0.0000
# 4 0.0000 0.0000 0.0000 3.9581 0.0000 0.0000
# 5 0.0000 0.0000 0.0000 0.0000 28.9856 0.0000
# 6 0.0000 0.0000 0.0000 0.0000 0.0000 -12.7155
#
#
#
# Elastic Compliance Matrix: (Units=1/GPa)
#
#
# Indices 1 2 3 4 5 6 
#
# 1 0.009872 -0.004917 -0.002785 0.000000 0.000000 0.000000
# 2 -0.004917 0.032379 -0.004010 0.000000 0.000000 0.000000
# 3 -0.002785 -0.004010 0.008071 0.000000 0.000000 0.000000
# 4 0.000000 0.000000 0.000000 0.252649 0.000000 0.000000
# 5 0.000000 0.000000 0.000000 0.000000 0.034500 0.000000
# 6 0.000000 0.000000 0.000000 0.000000 0.000000 -0.078644
#
#
# Mechanical properties :
#
#
# Convention : Reuss Voigt Hill
#
# Bulk Modulus (GPa) = 37.17567 61.99426 49.58497
# Shear Modulus (GPa) = 17.16930 18.29415 17.73172
#
# Velocity S-wave (km/s) = 3.01720 3.11447 3.06622
# Velocity P-wave (km/s) = 5.64351 6.76785 6.23109
#
# Compressibility (1/GPa) = 0.02689931
#
# Stress axis : x y z
#
# Youngs Moduli (GPa) = 101.30009 30.88384 123.89316
#
# Poissons Ratio (x) = 0.15187 0.34500
# Poissons Ratio (y) = 0.49813 0.49677
# Poissons Ratio (z) = 0.28208 0.12383
#
# Static dielectric constant tensor:
#      x y z
#    x 1.682910 0.000000 0.000000 
#    y 0.000000 1.691380 0.000000 
#    z 0.000000 0.000000 1.702070 
# 
# From -- ./inp_files/32231.got.cif
#   From: 2010.05.17/outbox.cif.g08.bks.cpg/sg68_17_cif.got.tgz:32231.got - 2010.06.03 18:57:09.
