data_PCOD9505544
_publ_section_title
;
Structure prediction by ZEFSAII (Michael W. Deem and Ramdas Pophale) SiO2 
 PCOD9505544
Probable space group: C C C A
;
_chemical_formula_sum "Si O2"
_cell_formula_units_Z 88
_cell_length_a 15.048421
_cell_length_b 17.245031
_cell_length_c 18.752972
_cell_angle_alpha 90.000000
_cell_angle_beta 90.000000
_cell_angle_gamma 90.000000
_cell_volume 4866.592890
_symmetry_space_group_name_H-M "C C C A"
_symmetry_group_IT_number 68
_space_group.IT_coordinate_system_code '2'
_symmetry_cell_setting 'orthorhombic'
loop_
_space_group_symop_operation_xyz
x,y,z
-x,1/2-y,z
x,1/2-y,1/2-z
-x,y,1/2-z
-x,-y,-z
x,1/2+y,-z
-x,1/2+y,1/2+z
x,-y,1/2+z
1/2+x,1/2+y,z
1/2-x,-y,z
1/2+x,-y,1/2-z
1/2-x,1/2+y,1/2-z
1/2-x,1/2-y,-z
1/2+x,y,-z
1/2-x,y,1/2+z
1/2+x,1/2-y,1/2+z
loop_
_atom_site_type_symbol
_atom_site_label
_atom_site_fract_x
_atom_site_fract_y
_atom_site_fract_z
Si Si1 0.020461 0.165463 0.046414
Si Si2 0.515493 0.643442 0.878309
Si Si3 0.944209 0.512426 0.926317
Si Si4 0.731232 0.829205 0.452957
Si Si5 0.149458 0.733959 0.329570
Si Si6 0.250000 0.500000 0.016867
O O1 0.125968 0.156874 0.050484
O O2 0.000000 0.250000 0.073615
O O3 0.966221 0.100907 0.089091
O O4 0.993989 0.161154 0.962033
O O5 0.521371 0.551635 0.871904
O O6 0.437558 0.678800 0.830976
O O7 0.608012 0.686868 0.862367
O O8 0.841547 0.493776 0.939793
O O9 0.000000 0.500000 0.000000
O O10 0.750000 0.750000 0.500000
O O11 0.777917 0.805900 0.379223
O O12 0.763763 0.915687 0.477648
O O13 0.180202 0.750000 0.250000
#
# Coordination Sequence:
#
# PCOD9505544 Si02
#       6
#    16  16  16  16  16   8
#     4  11  19  33  56  89 120 155 196 257 304 362
#     4  10  17  35  53  81 123 149 197 248 311 349
#     4  10  19  31  49  88 122 152 202 250 306 363
#     4  12  21  36  58  89 124 160 204 258 311 370
#     4  11  22  35  59  88 117 160 201 251 309 372
#     4  12  20  32  60  90 128 168 192 268 322 364
#
# _framework density 18.082466
#
# number of rings (size 3 to 8) (size 9 to 14) (size 15 to 20)
#    0.000    1.091    7.273    4.364    0.000    0.000 
#    0.000    0.000    0.000    7.091    0.000    0.000 
#    0.000    0.000    0.000    0.000    0.000    0.000 
#
# Total GULP energy -245050.905048 kJ/mol
# GULP energy per Si atom -5569.338751 kJ/mol
# Density = 1.804131 g / cm^3
# Si number density = 18.082466 Si / 1000 Ang^3
#
#
#
# Elastic Constant Matrix: (Units=GPa)
#
#
# Indices 1 2 3 4 5 6 
#
# 1 65.4568 4.9910 17.9013 0.0000 0.0000 0.0000
# 2 4.9910 165.2005 36.8388 0.0000 0.0000 0.0000
# 3 17.9013 36.8388 49.4603 0.0000 0.0000 0.0000
# 4 0.0000 0.0000 0.0000 14.9911 0.0000 0.0000
# 5 0.0000 0.0000 0.0000 0.0000 16.5885 0.0000
# 6 0.0000 0.0000 0.0000 0.0000 0.0000 30.1702
#
#
#
# Elastic Compliance Matrix: (Units=1/GPa)
#
#
# Indices 1 2 3 4 5 6 
#
# 1 0.017102 0.001036 -0.006961 0.000000 0.000000 0.000000
# 2 0.001036 0.007322 -0.005828 0.000000 0.000000 0.000000
# 3 -0.006961 -0.005828 0.027079 0.000000 0.000000 0.000000
# 4 0.000000 0.000000 0.000000 0.066706 0.000000 0.000000
# 5 0.000000 0.000000 0.000000 0.000000 0.060283 0.000000
# 6 0.000000 0.000000 0.000000 0.000000 0.000000 0.033145
#
#
# Mechanical properties :
#
#
# Convention : Reuss Voigt Hill
#
# Bulk Modulus (GPa) = 35.72065 44.39774 40.05920
# Shear Modulus (GPa) = 20.45197 27.04239 23.74718
#
# Velocity S-wave (km/s) = 3.36674 3.87137 3.62784
# Velocity P-wave (km/s) = 5.90851 6.67754 6.30476
#
# Compressibility (1/GPa) = 0.02799501
#
# Stress axis : x y z
#
# Youngs Moduli (GPa) = 58.47255 136.58247 36.92965
#
# Poissons Ratio (x) = -0.14145 0.25707
# Poissons Ratio (y) = -0.06055 0.21523
# Poissons Ratio (z) = 0.40703 0.79601
#
# Static dielectric constant tensor:
#      x y z
#    x 1.645500 0.000000 0.000000 
#    y 0.000000 1.697020 0.000000 
#    z 0.000000 0.000000 1.608860 
# 
# From -- ./inp_files/30904.got.cif
#   From: 2010.05.17/outbox.cif.g08.bks.cpg/sg68_16_cif.got.tgz:30904.got - 2010.06.03 18:57:09.
