data_PCOD9505203
_publ_section_title
;
Structure prediction by ZEFSAII (Michael W. Deem and Ramdas Pophale) SiO2 
 PCOD9505203
Probable space group: C M M A
;
_chemical_formula_sum "Si O2"
_cell_formula_units_Z 40
_cell_length_a 18.000000
_cell_length_b 9.000000
_cell_length_c 27.000000
_cell_angle_alpha 90.000000
_cell_angle_beta 90.000000
_cell_angle_gamma 90.000000
_cell_volume 4374.000000
_symmetry_space_group_name_H-M "C M M A"
_symmetry_group_IT_number 67
_symmetry_cell_setting 'orthorhombic'
loop_
_space_group_symop_operation_xyz
x,y,z
-x,1/2-y,z
x,-y,-z
-x,1/2+y,-z
-x,-y,-z
x,1/2+y,-z
-x,y,z
x,1/2-y,z
1/2+x,1/2+y,z
1/2-x,-y,z
1/2+x,1/2-y,-z
1/2-x,y,-z
1/2-x,1/2-y,-z
1/2+x,y,-z
1/2-x,1/2+y,z
1/2+x,-y,z
loop_
_atom_site_type_symbol
_atom_site_label
_atom_site_fract_x
_atom_site_fract_y
_atom_site_fract_z
Si Si1 0.589608 0.422065 0.347167
Si Si2 0.168478 0.427830 0.143493
Si Si3 0.331413 0.572404 0.255096
Si Si4 0.409365 0.078272 0.550873
Si Si5 0.910424 0.422307 0.948835
O O1 0.500000 0.427564 0.346527
O O2 0.612649 0.250000 0.345541
O O3 0.620078 0.507061 0.299415
O O4 0.614582 0.495755 0.398956
O O5 0.173575 0.250000 0.138548
O O6 0.250000 0.500000 0.140200
O O7 0.139605 0.460685 0.199315
O O8 0.120194 0.494899 0.099346
O O9 0.325869 0.750000 0.259735
O O10 0.250000 0.500000 0.258506
O O11 0.500000 0.074658 0.550640
O O12 0.386677 0.250000 0.551705
O O13 0.384913 0.000000 0.500000
O O14 0.887176 0.250000 0.948417
O O15 0.000000 0.427423 0.947925
O O16 0.885718 0.500000 0.000000
#
# Coordination Sequence:
#
# PCOD9505203 Si02
#       5
#    16  16  16  16  16
#     4  10  20  33  51  77 107 138 175 218 261 308
#     4  10  21  37  57  80 106 137 176 219 261 309
#     4  10  21  37  56  77 104 139 176 216 263 313
#     4   9  16  27  45  70 101 135 171 213 261 310
#     4  10  21  37  57  81 110 142 175 213 259 310
#
# _framework density 9.1449470000000002
#
# number of rings (size 3 to 8) (size 9 to 14) (size 15 to 20)
#    0.000    2.200    0.000    3.000    0.000    8.400 
#    0.000    6.000    0.000    0.600    0.000    4.200 
#    0.000    0.000    0.000    0.000    0.000    0.000 
#
# Total GULP energy -223249.183230 kJ/mol
# GULP energy per Si atom -5581.229581 kJ/mol
# Density = 0.912413 g / cm^3
# Si number density = 9.144947 Si / 1000 Ang^3
#
#
#
# Elastic Constant Matrix: (Units=GPa)
#
#
# Indices 1 2 3 4 5 6 
#
# 1 8.3456 26.7080 35.1779 0.0000 0.0000 0.0000
# 2 26.7080 154.5707 112.9311 0.0000 0.0000 0.0000
# 3 35.1779 112.9311 206.0318 0.0000 0.0000 0.0000
# 4 0.0000 0.0000 0.0000 41.4983 0.0000 0.0000
# 5 0.0000 0.0000 0.0000 0.0000 229.3980 0.0000
# 6 0.0000 0.0000 0.0000 0.0000 0.0000 26.4185
#
#
#
# Elastic Compliance Matrix: (Units=1/GPa)
#
#
# Indices 1 2 3 4 5 6 
#
# 1 0.573332 -0.045944 -0.072708 0.000000 0.000000 0.000000
# 2 -0.045944 0.014473 -0.000088 0.000000 0.000000 0.000000
# 3 -0.072708 -0.000088 0.017316 0.000000 0.000000 0.000000
# 4 0.000000 0.000000 0.000000 0.024097 0.000000 0.000000
# 5 0.000000 0.000000 0.000000 0.000000 0.004359 0.000000
# 6 0.000000 0.000000 0.000000 0.000000 0.000000 0.037852
#
#
# Mechanical properties :
#
#
# Convention : Reuss Voigt Hill
#
# Bulk Modulus (GPa) = 2.72005 79.84244 41.28124
# Shear Modulus (GPa) = 4.84751 72.40503 38.62627
#
# Velocity S-wave (km/s) = 1.62976 6.29868 4.60052
# Velocity P-wave (km/s) = 2.24319 9.83089 7.13016
#
# Compressibility (1/GPa) = 0.36764092
#
# Stress axis : x y z
#
# Youngs Moduli (GPa) = 1.74419 69.09598 57.74945
#
# Poissons Ratio (x) = 3.17453 4.19884
# Poissons Ratio (y) = 0.08013 0.00510
# Poissons Ratio (z) = 0.12682 0.00610
#
# Static dielectric constant tensor:
#      x y z
#    x 1.612250 0.000000 0.000000 
#    y 0.000000 1.616660 0.000000 
#    z 0.000000 0.000000 1.614950 
# 
# From -- ./inp_files/43255.got.cif
#   From: 2010.05.17/outbox.ucp.g08.bks.cvg/sg67_22_cif.got.tgz:43255.got - 2010.06.11 16:47:20.
