data_PCOD9505439
_publ_section_title
;
Structure prediction by ZEFSAII (Michael W. Deem and Ramdas Pophale) SiO2 
 PCOD9505439
Probable space group: C C C A
;
_chemical_formula_sum "Si O2"
_cell_formula_units_Z 64
_cell_length_a 5.359892
_cell_length_b 14.536991
_cell_length_c 36.714890
_cell_angle_alpha 90.000000
_cell_angle_beta 90.000000
_cell_angle_gamma 90.000000
_cell_volume 2860.703134
_symmetry_space_group_name_H-M "C C C A"
_symmetry_group_IT_number 68
_space_group.IT_coordinate_system_code '2'
_symmetry_cell_setting 'orthorhombic'
loop_
_space_group_symop_operation_xyz
x,y,z
-x,1/2-y,z
x,1/2-y,1/2-z
-x,y,1/2-z
-x,-y,-z
x,1/2+y,-z
-x,1/2+y,1/2+z
x,-y,1/2+z
1/2+x,1/2+y,z
1/2-x,-y,z
1/2+x,-y,1/2-z
1/2-x,1/2+y,1/2-z
1/2-x,1/2-y,-z
1/2+x,y,-z
1/2-x,y,1/2+z
1/2+x,1/2-y,1/2+z
loop_
_atom_site_type_symbol
_atom_site_label
_atom_site_fract_x
_atom_site_fract_y
_atom_site_fract_z
Si Si1 0.494312 0.641017 0.131493
Si Si2 0.509064 0.140349 0.405069
Si Si3 0.197502 0.356569 0.987067
Si Si4 0.501185 0.061776 0.709900
O O1 0.500000 0.750000 0.124330
O O2 0.755190 0.602838 0.116856
O O3 0.479817 0.624524 0.174464
O O4 0.254312 0.604425 0.109587
O O5 0.500000 0.250000 0.397982
O O6 0.573648 0.133554 0.447609
O O7 0.250000 0.250000 0.000000
O O8 0.478722 0.395460 0.987023
O O9 0.500000 0.107677 0.750000
O O10 0.250000 0.000000 0.707115
O O11 0.750000 0.000000 0.709213
#
# Coordination Sequence:
#
# PCOD9505439 Si02
#       4
#    16  16  16  16
#     4  10  21  33  52  80 114 145 168 225 276 330
#     4  10  18  29  44  71 112 148 169 212 276 320
#     4  10  17  24  41  64 100 151 176 212 254 326
#     4  10  21  39  61  81 105 141 187 227 261 319
#
# _framework density 22.372123999999999
#
# number of rings (size 3 to 8) (size 9 to 14) (size 15 to 20)
#    0.000    2.000    2.500    3.000    7.000    0.500 
#    0.000    0.000    0.000    9.000    0.000    0.000 
#    0.000   70.000    0.000    0.000    0.000    0.000 
#
# Total GULP energy -178539.657970 kJ/mol
# GULP energy per Si atom -5579.364312 kJ/mol
# Density = 2.232120 g / cm^3
# Si number density = 22.372124 Si / 1000 Ang^3
#
#
#
# Elastic Constant Matrix: (Units=GPa)
#
#
# Indices 1 2 3 4 5 6 
#
# 1 229.0060 14.4816 75.4758 0.0000 0.0000 0.0000
# 2 14.4816 61.6951 6.9664 0.0000 0.0000 0.0000
# 3 75.4758 6.9664 144.6780 0.0000 0.0000 0.0000
# 4 0.0000 0.0000 0.0000 866.4679 0.0000 0.0000
# 5 0.0000 0.0000 0.0000 0.0000 42.3702 0.0000
# 6 0.0000 0.0000 0.0000 0.0000 0.0000 -13.1099
#
#
#
# Elastic Compliance Matrix: (Units=1/GPa)
#
#
# Indices 1 2 3 4 5 6 
#
# 1 0.005327 -0.000942 -0.002734 0.000000 0.000000 0.000000
# 2 -0.000942 0.016464 -0.000301 0.000000 0.000000 0.000000
# 3 -0.002734 -0.000301 0.008353 0.000000 0.000000 0.000000
# 4 0.000000 0.000000 0.000000 0.001154 0.000000 0.000000
# 5 0.000000 0.000000 0.000000 0.000000 0.023601 0.000000
# 6 0.000000 0.000000 0.000000 0.000000 0.000000 -0.076278
#
#
# Mechanical properties :
#
#
# Convention : Reuss Voigt Hill
#
# Bulk Modulus (GPa) = 45.06602 69.91407 57.49004
# Shear Modulus (GPa) = -829.42111 201.70933 -313.85589
#
# Velocity S-wave (km/s) = -19.27546 9.50562 -11.85721
# Velocity P-wave (km/s) = 21.79917 12.32047 12.71632
#
# Compressibility (1/GPa) = 0.02218967
#
# Stress axis : x y z
#
# Youngs Moduli (GPa) = 187.71406 60.73920 119.72352
#
# Poissons Ratio (x) = 0.05720 0.32730
# Poissons Ratio (y) = 0.17678 0.03609
# Poissons Ratio (z) = 0.51317 0.01831
#
# Static dielectric constant tensor:
#      x y z
#    x 1.875910 0.000000 0.000000 
#    y 0.000000 1.892490 0.000000 
#    z 0.000000 0.000000 1.842570 
# 
# From -- ./inp_files/48099.got.cif
#   From: 2010.05.17/outbox.cif.g08.bks.cpg/sg68_25_cif.got.tgz:48099.got - 2010.06.03 18:57:09.
