data_PCOD9505403
_publ_section_title
;
Structure prediction by ZEFSAII (Michael W. Deem and Ramdas Pophale) SiO2 
 PCOD9505403
Probable space group: C C C A
;
_chemical_formula_sum "Si O2"
_cell_formula_units_Z 96
_cell_length_a 19.095133
_cell_length_b 19.210087
_cell_length_c 16.009246
_cell_angle_alpha 90.000000
_cell_angle_beta 90.000000
_cell_angle_gamma 90.000000
_cell_volume 5872.498269
_symmetry_space_group_name_H-M "C C C A"
_symmetry_group_IT_number 68
_space_group.IT_coordinate_system_code '2'
_symmetry_cell_setting 'orthorhombic'
loop_
_space_group_symop_operation_xyz
x,y,z
-x,1/2-y,z
x,1/2-y,1/2-z
-x,y,1/2-z
-x,-y,-z
x,1/2+y,-z
-x,1/2+y,1/2+z
x,-y,1/2+z
1/2+x,1/2+y,z
1/2-x,-y,z
1/2+x,-y,1/2-z
1/2-x,1/2+y,1/2-z
1/2-x,1/2-y,-z
1/2+x,y,-z
1/2-x,y,1/2+z
1/2+x,1/2-y,1/2+z
loop_
_atom_site_type_symbol
_atom_site_label
_atom_site_fract_x
_atom_site_fract_y
_atom_site_fract_z
Si Si1 0.279503 0.930046 0.524145
Si Si2 0.826613 0.469572 0.708595
Si Si3 0.706540 0.324812 0.262130
Si Si4 0.082675 0.396416 0.258735
Si Si5 0.828190 0.669567 0.889802
Si Si6 0.323030 0.672484 0.386644
O O1 0.318065 0.955615 0.609045
O O2 0.328162 0.884587 0.464996
O O3 0.214534 0.880215 0.550251
O O4 0.250000 0.000000 0.482270
O O5 0.750000 0.500000 0.734003
O O6 0.837549 0.394237 0.749178
O O7 0.882325 0.527321 0.734057
O O8 0.670373 0.250000 0.250000
O O9 0.751254 0.331759 0.346543
O O10 0.766056 0.323945 0.189123
O O11 0.117378 0.354408 0.181380
O O12 0.108245 0.358291 0.343261
O O13 0.000000 0.399052 0.250000
O O14 0.837193 0.749573 0.917346
#
# Coordination Sequence:
#
# PCOD9505403 Si02
#       6
#    16  16  16  16  16  16
#     4  10  18  30  52  75 104 135 166 217 263 298
#     4  10  16  33  51  68 107 139 164 213 269 297
#     4   8  15  27  48  74  99 125 169 224 254 286
#     4  11  21  34  53  80 106 140 173 213 262 317
#     4  10  19  28  51  80 100 131 181 210 249 313
#     4   9  17  33  48  74 108 136 163 214 267 304
#
# _framework density 16.347386
#
# number of rings (size 3 to 8) (size 9 to 14) (size 15 to 20)
#    0.000    2.333    6.667    2.000    2.333    1.333 
#    0.000    0.833    0.000    0.500    0.000    0.000 
#    0.000    0.000    0.000    0.000    0.000    0.000 
#
# Total GULP energy -267273.842846 kJ/mol
# GULP energy per Si atom -5568.205059 kJ/mol
# Density = 1.631018 g / cm^3
# Si number density = 16.347386 Si / 1000 Ang^3
#
#
#
# Elastic Constant Matrix: (Units=GPa)
#
#
# Indices 1 2 3 4 5 6 
#
# 1 58.7013 28.8213 15.2354 0.0000 0.0000 0.0000
# 2 28.8213 142.4351 16.7015 0.0000 0.0000 0.0000
# 3 15.2354 16.7015 23.5687 0.0000 0.0000 0.0000
# 4 0.0000 0.0000 0.0000 21.5974 0.0000 0.0000
# 5 0.0000 0.0000 0.0000 0.0000 8.7739 0.0000
# 6 0.0000 0.0000 0.0000 0.0000 0.0000 13.1487
#
#
#
# Elastic Compliance Matrix: (Units=1/GPa)
#
#
# Indices 1 2 3 4 5 6 
#
# 1 0.021568 -0.002977 -0.011833 0.000000 0.000000 0.000000
# 2 -0.002977 0.008068 -0.003793 0.000000 0.000000 0.000000
# 3 -0.011833 -0.003793 0.052766 0.000000 0.000000 0.000000
# 4 0.000000 0.000000 0.000000 0.046302 0.000000 0.000000
# 5 0.000000 0.000000 0.000000 0.000000 0.113974 0.000000
# 6 0.000000 0.000000 0.000000 0.000000 0.000000 0.076053
#
#
# Mechanical properties :
#
#
# Convention : Reuss Voigt Hill
#
# Bulk Modulus (GPa) = 22.12531 38.46904 30.29717
# Shear Modulus (GPa) = 13.47704 19.63379 16.55541
#
# Velocity S-wave (km/s) = 2.87438 3.46936 3.18579
# Velocity P-wave (km/s) = 4.95781 6.29539 5.66621
#
# Compressibility (1/GPa) = 0.04519711
#
# Stress axis : x y z
#
# Youngs Moduli (GPa) = 46.36497 123.94928 18.95167
#
# Poissons Ratio (x) = 0.36897 0.22425
# Poissons Ratio (y) = 0.13802 0.07188
# Poissons Ratio (z) = 0.54862 0.47012
#
# Static dielectric constant tensor:
#      x y z
#    x 1.511140 0.000000 0.000000 
#    y 0.000000 1.611020 0.000000 
#    z 0.000000 0.000000 1.578480 
# 
# From -- ./inp_files/24713.got.cif
#   From: 2010.05.17/outbox.cif.g08.bks.cpg/sg68_13_cif.got.tgz:24713.got - 2010.06.03 18:57:09.
