data_PCOD9505597
_publ_section_title
;
Structure prediction by ZEFSAII (Michael W. Deem and Ramdas Pophale) SiO2 
 PCOD9505597
Probable space group: C C C A
;
_chemical_formula_sum "Si O2"
_cell_formula_units_Z 104
_cell_length_a 7.682811
_cell_length_b 33.800825
_cell_length_c 21.786849
_cell_angle_alpha 90.000000
_cell_angle_beta 90.000000
_cell_angle_gamma 90.000000
_cell_volume 5657.725511
_symmetry_space_group_name_H-M "C C C A"
_symmetry_group_IT_number 68
_space_group.IT_coordinate_system_code '2'
_symmetry_cell_setting 'orthorhombic'
loop_
_space_group_symop_operation_xyz
x,y,z
-x,1/2-y,z
x,1/2-y,1/2-z
-x,y,1/2-z
-x,-y,-z
x,1/2+y,-z
-x,1/2+y,1/2+z
x,-y,1/2+z
1/2+x,1/2+y,z
1/2-x,-y,z
1/2+x,-y,1/2-z
1/2-x,1/2+y,1/2-z
1/2-x,1/2-y,-z
1/2+x,y,-z
1/2-x,y,1/2+z
1/2+x,1/2-y,1/2+z
loop_
_atom_site_type_symbol
_atom_site_label
_atom_site_fract_x
_atom_site_fract_y
_atom_site_fract_z
Si Si1 0.857975 0.540541 0.524724
Si Si2 0.000000 0.322573 0.250000
Si Si3 0.253242 0.750000 0.250000
Si Si4 0.784250 0.041575 0.102474
Si Si5 0.849284 0.630157 0.549262
Si Si6 0.013943 0.165653 0.921053
Si Si7 0.500000 0.250000 0.137007
Si Si8 0.331428 0.873226 0.357336
O O1 0.750000 0.500000 0.538027
O O2 0.863946 0.544629 0.450483
O O3 0.790596 0.584302 0.541671
O O4 0.040356 0.538613 0.560804
O O5 0.146396 0.290362 0.267379
O O6 0.080018 0.351126 0.199022
O O7 0.152191 0.742103 0.186751
O O8 0.798604 0.079647 0.144958
O O9 0.750000 0.000000 0.135205
O O10 0.899881 0.651816 0.485630
O O11 0.683366 0.650242 0.580194
O O12 0.026692 0.631480 0.588220
O O13 0.998249 0.211890 0.906477
O O14 0.146772 0.146556 0.872463
#
# Coordination Sequence:
#
# PCOD9505597 Si02
#       8
#    16   8   8  16  16  16   8  16
#     4  10  18  29  51  83 123 160 201 244 294 351
#     4  11  22  44  68  86 112 162 206 266 308 361
#     4  10  22  42  66  88 116 142 220 270 296 352
#     4  10  19  30  53  87 121 158 200 245 298 362
#     4  11  22  38  58  91 130 163 201 249 307 387
#     4  12  22  39  60  87 129 160 195 250 317 375
#     4  11  24  40  60  94 116 157 204 260 308 373
#     4  11  23  40  62  91 121 166 211 251 314 365
#
# _framework density 18.381945999999999
#
# number of rings (size 3 to 8) (size 9 to 14) (size 15 to 20)
#    0.000    1.231    4.615    3.692    2.154    0.615 
#    0.000    0.000    0.000    3.692    0.000    0.000 
#    0.000    0.000    0.000    0.000    0.000    0.000 
#
# Total GULP energy -289483.892797 kJ/mol
# GULP energy per Si atom -5566.997938 kJ/mol
# Density = 1.834011 g / cm^3
# Si number density = 18.381946 Si / 1000 Ang^3
#
#
#
# Elastic Constant Matrix: (Units=GPa)
#
#
# Indices 1 2 3 4 5 6 
#
# 1 59.2678 40.7653 -3.1349 0.0000 0.0000 0.0000
# 2 40.7653 190.7797 32.2922 0.0000 0.0000 0.0000
# 3 -3.1349 32.2922 26.6576 0.0000 0.0000 0.0000
# 4 0.0000 0.0000 0.0000 23.0973 0.0000 0.0000
# 5 0.0000 0.0000 0.0000 0.0000 4.6398 0.0000
# 6 0.0000 0.0000 0.0000 0.0000 0.0000 40.7083
#
#
#
# Elastic Compliance Matrix: (Units=1/GPa)
#
#
# Indices 1 2 3 4 5 6 
#
# 1 0.021832 -0.006415 0.010338 0.000000 0.000000 0.000000
# 2 -0.006415 0.008478 -0.011025 0.000000 0.000000 0.000000
# 3 0.010338 -0.011025 0.052084 0.000000 0.000000 0.000000
# 4 0.000000 0.000000 0.000000 0.043295 0.000000 0.000000
# 5 0.000000 0.000000 0.000000 0.000000 0.215525 0.000000
# 6 0.000000 0.000000 0.000000 0.000000 0.000000 0.024565
#
#
# Mechanical properties :
#
#
# Convention : Reuss Voigt Hill
#
# Bulk Modulus (GPa) = 14.66483 46.28335 30.47409
# Shear Modulus (GPa) = 12.41580 27.47459 19.94520
#
# Velocity S-wave (km/s) = 2.60173 3.87027 3.29757
# Velocity P-wave (km/s) = 4.12559 6.72349 5.57789
#
# Compressibility (1/GPa) = 0.06819034
#
# Stress axis : x y z
#
# Youngs Moduli (GPa) = 45.80528 117.94598 19.19987
#
# Poissons Ratio (x) = 0.75659 -0.19849
# Poissons Ratio (y) = 0.29383 0.21168
# Poissons Ratio (z) = -0.47353 1.30034
#
# Static dielectric constant tensor:
#      x y z
#    x 1.697510 0.000000 0.000000 
#    y 0.000000 1.669720 0.000000 
#    z 0.000000 0.000000 1.595610 
# 
# From -- ./inp_files/36746.got.cif
#   From: 2010.05.17/outbox.cif.g08.bks.cpg/sg68_19_cif.got.tgz:36746.got - 2010.06.03 18:57:09.
