data_PCOD9505755
_publ_section_title
;
Structure prediction by ZEFSAII (Michael W. Deem and Ramdas Pophale) SiO2 
 PCOD9505755
Probable space group: C C C A
;
_chemical_formula_sum "Si O2"
_cell_formula_units_Z 80
_cell_length_a 24.312284
_cell_length_b 17.434934
_cell_length_c 8.916755
_cell_angle_alpha 90.000000
_cell_angle_beta 90.000000
_cell_angle_gamma 90.000000
_cell_volume 3779.661456
_symmetry_space_group_name_H-M "C C C A"
_symmetry_group_IT_number 68
_space_group.IT_coordinate_system_code '2'
_symmetry_cell_setting 'orthorhombic'
loop_
_space_group_symop_operation_xyz
x,y,z
-x,1/2-y,z
x,1/2-y,1/2-z
-x,y,1/2-z
-x,-y,-z
x,1/2+y,-z
-x,1/2+y,1/2+z
x,-y,1/2+z
1/2+x,1/2+y,z
1/2-x,-y,z
1/2+x,-y,1/2-z
1/2-x,1/2+y,1/2-z
1/2-x,1/2-y,-z
1/2+x,y,-z
1/2-x,y,1/2+z
1/2+x,1/2-y,1/2+z
loop_
_atom_site_type_symbol
_atom_site_label
_atom_site_fract_x
_atom_site_fract_y
_atom_site_fract_z
Si Si1 0.151433 0.439800 0.855464
Si Si2 0.736709 0.662080 0.469814
Si Si3 0.078831 0.469716 0.603268
Si Si4 0.678974 0.893528 0.322758
Si Si5 0.449004 0.607322 0.320420
O O1 0.190002 0.375240 0.923305
O O2 0.112098 0.416180 0.719109
O O3 0.181998 0.515449 0.791722
O O4 0.116586 0.479656 0.990061
O O5 0.750000 0.750000 0.500000
O O6 0.714528 0.648771 0.303118
O O7 0.792594 0.618986 0.516926
O O8 0.041760 0.419854 0.491606
O O9 0.053316 0.533016 0.711619
O O10 0.615191 0.866097 0.318165
O O11 0.500000 0.653805 0.250000
#
# Coordination Sequence:
#
# PCOD9505755 Si02
#       5
#    16  16  16  16  16
#     4  10  18  37  60  85 123 164 203 254 307 382
#     4  12  24  40  60  88 127 162 207 266 312 376
#     4   8  17  31  56  88 120 159 206 252 315 359
#     4  10  24  38  58  91 122 165 209 249 324 370
#     4  10  18  34  57  85 127 154 209 260 308 362
#
# _framework density 21.165917
#
# number of rings (size 3 to 8) (size 9 to 14) (size 15 to 20)
#    0.000    2.400    4.000    1.800    5.600    1.600 
#    0.000    0.000    0.000    2.400    0.000    0.000 
#    0.000    0.000    0.000    0.000    0.000    0.000 
#
# Total GULP energy -222886.180511 kJ/mol
# GULP energy per Si atom -5572.154513 kJ/mol
# Density = 2.111774 g / cm^3
# Si number density = 21.165917 Si / 1000 Ang^3
#
#
#
# Elastic Constant Matrix: (Units=GPa)
#
#
# Indices 1 2 3 4 5 6 
#
# 1 109.2773 -3.4340 29.8689 0.0000 0.0000 0.0000
# 2 -3.4340 54.2921 3.3030 0.0000 0.0000 0.0000
# 3 29.8689 3.3030 93.5157 0.0000 0.0000 0.0000
# 4 0.0000 0.0000 0.0000 21.6465 0.0000 0.0000
# 5 0.0000 0.0000 0.0000 0.0000 48.9072 0.0000
# 6 0.0000 0.0000 0.0000 0.0000 0.0000 -14.4401
#
#
#
# Elastic Compliance Matrix: (Units=1/GPa)
#
#
# Indices 1 2 3 4 5 6 
#
# 1 0.010064 0.000834 -0.003244 0.000000 0.000000 0.000000
# 2 0.000834 0.018528 -0.000921 0.000000 0.000000 0.000000
# 3 -0.003244 -0.000921 0.011762 0.000000 0.000000 0.000000
# 4 0.000000 0.000000 0.000000 0.046197 0.000000 0.000000
# 5 0.000000 0.000000 0.000000 0.000000 0.020447 0.000000
# 6 0.000000 0.000000 0.000000 0.000000 0.000000 -0.069252
#
#
# Mechanical properties :
#
#
# Convention : Reuss Voigt Hill
#
# Bulk Modulus (GPa) = 29.68054 35.17344 32.42699
# Shear Modulus (GPa) = 89.86706 26.37920 58.12313
#
# Velocity S-wave (km/s) = 6.52308 3.53414 5.24598
# Velocity P-wave (km/s) = 8.41352 5.77127 7.21439
#
# Compressibility (1/GPa) = 0.03369211
#
# Stress axis : x y z
#
# Youngs Moduli (GPa) = 99.36522 53.97342 85.01949
#
# Poissons Ratio (x) = -0.04501 0.27579
# Poissons Ratio (y) = -0.08286 0.07828
# Poissons Ratio (z) = 0.32233 0.04970
#
# Static dielectric constant tensor:
#      x y z
#    x 1.937180 0.000000 0.000000 
#    y 0.000000 1.762860 0.000000 
#    z 0.000000 0.000000 1.830370 
# 
# From -- ./inp_files/8760.got.cif
#   From: 2010.05.17/outbox.cif.g08.bks.cpg/sg68_5_cif.got.tgz:8760.got - 2010.06.03 18:57:09.
