data_PCOD9505655
_publ_section_title
;
Structure prediction by ZEFSAII (Michael W. Deem and Ramdas Pophale) SiO2 
 PCOD9505655
Probable space group: C C C A
;
_chemical_formula_sum "Si O2"
_cell_formula_units_Z 96
_cell_length_a 19.851758
_cell_length_b 21.455102
_cell_length_c 12.281481
_cell_angle_alpha 90.000000
_cell_angle_beta 90.000000
_cell_angle_gamma 90.000000
_cell_volume 5230.946721
_symmetry_space_group_name_H-M "C C C A"
_symmetry_group_IT_number 68
_space_group.IT_coordinate_system_code '2'
_symmetry_cell_setting 'orthorhombic'
loop_
_space_group_symop_operation_xyz
x,y,z
-x,1/2-y,z
x,1/2-y,1/2-z
-x,y,1/2-z
-x,-y,-z
x,1/2+y,-z
-x,1/2+y,1/2+z
x,-y,1/2+z
1/2+x,1/2+y,z
1/2-x,-y,z
1/2+x,-y,1/2-z
1/2-x,1/2+y,1/2-z
1/2-x,1/2-y,-z
1/2+x,y,-z
1/2-x,y,1/2+z
1/2+x,1/2-y,1/2+z
loop_
_atom_site_type_symbol
_atom_site_label
_atom_site_fract_x
_atom_site_fract_y
_atom_site_fract_z
Si Si1 0.423190 0.928271 0.272655
Si Si2 0.826493 0.251799 0.955537
Si Si3 0.769944 0.150020 0.692315
Si Si4 0.641555 0.190671 0.824961
Si Si5 0.322133 0.466596 0.311931
Si Si6 0.653500 0.114644 0.519612
O O1 0.500000 0.944503 0.250000
O O2 0.403631 0.868202 0.201047
O O3 0.403989 0.905834 0.394911
O O4 0.375402 0.984743 0.235536
O O5 0.817134 0.294185 0.849559
O O6 0.750000 0.250000 0.000000
O O7 0.863675 0.289607 0.050706
O O8 0.854663 0.181445 0.958243
O O9 0.717962 0.172426 0.786826
O O10 0.813109 0.092629 0.733741
O O11 0.719810 0.126116 0.595783
O O12 0.623997 0.250000 0.750000
O O13 0.250000 0.500000 0.316639
O O14 0.338193 0.438876 0.430571
#
# Coordination Sequence:
#
# PCOD9505655 Si02
#       6
#    16  16  16  16  16  16
#     4  11  26  44  60  84 125 171 214 255 306 380
#     4  10  18  31  57  89 125 151 187 254 315 376
#     4  10  20  33  58  94 127 149 190 256 320 371
#     4  11  18  35  58  91 119 154 198 248 320 366
#     4  12  24  37  62  90 123 167 209 261 313 375
#     4  10  22  36  59  90 123 155 206 252 318 371
#
# _framework density 18.352318
#
# number of rings (size 3 to 8) (size 9 to 14) (size 15 to 20)
#    0.000    1.333    8.333    2.000    2.333    1.000 
#    0.000    0.000    0.000    0.000    0.000    1.167 
#    0.000    0.000    0.000    0.000    0.000    0.000 
#
# Total GULP energy -267809.542498 kJ/mol
# GULP energy per Si atom -5579.365469 kJ/mol
# Density = 1.831055 g / cm^3
# Si number density = 18.352318 Si / 1000 Ang^3
#
#
#
# Elastic Constant Matrix: (Units=GPa)
#
#
# Indices 1 2 3 4 5 6 
#
# 1 86.5033 53.0100 33.1897 0.0000 0.0000 0.0000
# 2 53.0100 130.2558 46.6927 0.0000 0.0000 0.0000
# 3 33.1897 46.6927 54.0161 0.0000 0.0000 0.0000
# 4 0.0000 0.0000 0.0000 45.5406 0.0000 0.0000
# 5 0.0000 0.0000 0.0000 0.0000 10.6773 0.0000
# 6 0.0000 0.0000 0.0000 0.0000 0.0000 12.4691
#
#
#
# Elastic Compliance Matrix: (Units=1/GPa)
#
#
# Indices 1 2 3 4 5 6 
#
# 1 0.016798 -0.004545 -0.006393 0.000000 0.000000 0.000000
# 2 -0.004545 0.012354 -0.007886 0.000000 0.000000 0.000000
# 3 -0.006393 -0.007886 0.029258 0.000000 0.000000 0.000000
# 4 0.000000 0.000000 0.000000 0.021958 0.000000 0.000000
# 5 0.000000 0.000000 0.000000 0.000000 0.093656 0.000000
# 6 0.000000 0.000000 0.000000 0.000000 0.000000 0.080198
#
#
# Mechanical properties :
#
#
# Convention : Reuss Voigt Hill
#
# Bulk Modulus (GPa) = 48.16472 59.61779 53.89125
# Shear Modulus (GPa) = 16.73404 22.92958 19.83181
#
# Velocity S-wave (km/s) = 3.02291 3.53854 3.29084
# Velocity P-wave (km/s) = 6.20367 7.01788 6.62330
#
# Compressibility (1/GPa) = 0.02076208
#
# Stress axis : x y z
#
# Youngs Moduli (GPa) = 59.53057 80.94690 34.17829
#
# Poissons Ratio (x) = 0.36787 0.21850
# Poissons Ratio (y) = 0.27054 0.26955
# Poissons Ratio (z) = 0.38058 0.63839
#
# Static dielectric constant tensor:
#      x y z
#    x 1.628100 0.000000 0.000000 
#    y 0.000000 1.647360 0.000000 
#    z 0.000000 0.000000 1.763110 
# 
# From -- ./inp_files/14610.got.cif
#   From: 2010.05.17/outbox.cif.g08.bks.cpg/sg68_8_cif.got.tgz:14610.got - 2010.06.03 18:57:09.
