data_PCOD9505337
_publ_section_title
;
Structure prediction by ZEFSAII (Michael W. Deem and Ramdas Pophale) SiO2 
 PCOD9505337
Probable space group: C C C A
;
_chemical_formula_sum "Si O2"
_cell_formula_units_Z 48
_cell_length_a 5.145727
_cell_length_b 28.350216
_cell_length_c 14.610103
_cell_angle_alpha 90.000000
_cell_angle_beta 90.000000
_cell_angle_gamma 90.000000
_cell_volume 2131.357941
_symmetry_space_group_name_H-M "C C C A"
_symmetry_group_IT_number 68
_space_group.IT_coordinate_system_code '2'
_symmetry_cell_setting 'orthorhombic'
loop_
_space_group_symop_operation_xyz
x,y,z
-x,1/2-y,z
x,1/2-y,1/2-z
-x,y,1/2-z
-x,-y,-z
x,1/2+y,-z
-x,1/2+y,1/2+z
x,-y,1/2+z
1/2+x,1/2+y,z
1/2-x,-y,z
1/2+x,-y,1/2-z
1/2-x,1/2+y,1/2-z
1/2-x,1/2-y,-z
1/2+x,y,-z
1/2-x,y,1/2+z
1/2+x,1/2-y,1/2+z
loop_
_atom_site_type_symbol
_atom_site_label
_atom_site_fract_x
_atom_site_fract_y
_atom_site_fract_z
Si Si1 0.001590 0.852967 0.640666
Si Si2 0.991776 0.406164 0.861613
Si Si3 0.000000 0.750000 0.563652
Si Si4 0.750000 0.000000 0.185622
O O1 0.228678 0.888049 0.606546
O O2 0.000000 0.858331 0.750000
O O3 0.723257 0.869607 0.605097
O O4 0.030187 0.798066 0.620133
O O5 0.874833 0.458329 0.874763
O O6 0.000000 0.404306 0.750000
O O7 0.750000 0.750000 0.500000
O O8 0.500000 0.984284 0.250000
#
# Coordination Sequence:
#
# PCOD9505337 Si02
#       4
#    16  16   8   8
#     4  10  20  36  56  80 109 143 182 224 272 328
#     4   9  17  29  50  80 112 143 175 217 270 322
#     4  12  25  40  57  80 106 142 186 234 285 332
#     4  10  16  26  46  80 120 148 172 218 276 328
#
# _framework density 22.520855000000001
#
# number of rings (size 3 to 8) (size 9 to 14) (size 15 to 20)
#    0.000    2.000    0.000    7.500    0.000    0.000 
#    0.000    6.667    0.000    0.000    0.000   23.333 
#    0.000    0.000    0.000    0.000    0.000    0.000 
#
# Total GULP energy -133958.061923 kJ/mol
# GULP energy per Si atom -5581.585913 kJ/mol
# Density = 2.246960 g / cm^3
# Si number density = 22.520855 Si / 1000 Ang^3
#
#
#
# Elastic Constant Matrix: (Units=GPa)
#
#
# Indices 1 2 3 4 5 6 
#
# 1 159.8478 44.5563 6.6498 0.0000 0.0000 0.0000
# 2 44.5563 165.0643 3.5647 0.0000 0.0000 0.0000
# 3 6.6498 3.5647 45.6156 0.0000 0.0000 0.0000
# 4 0.0000 0.0000 0.0000 -22.6419 0.0000 0.0000
# 5 0.0000 0.0000 0.0000 0.0000 5.3136 0.0000
# 6 0.0000 0.0000 0.0000 0.0000 0.0000 41.6551
#
#
#
# Elastic Compliance Matrix: (Units=1/GPa)
#
#
# Indices 1 2 3 4 5 6 
#
# 1 0.006798 -0.001817 -0.000849 0.000000 0.000000 0.000000
# 2 -0.001817 0.006554 -0.000247 0.000000 0.000000 0.000000
# 3 -0.000849 -0.000247 0.022065 0.000000 0.000000 0.000000
# 4 0.000000 0.000000 0.000000 -0.044166 0.000000 0.000000
# 5 0.000000 0.000000 0.000000 0.000000 0.188196 0.000000
# 6 0.000000 0.000000 0.000000 0.000000 0.000000 0.024007
#
#
# Mechanical properties :
#
#
# Convention : Reuss Voigt Hill
#
# Bulk Modulus (GPa) = 33.79387 53.34102 43.56745
# Shear Modulus (GPa) = 22.81617 25.91583 24.36600
#
# Velocity S-wave (km/s) = 3.18640 3.39595 3.29284
# Velocity P-wave (km/s) = 5.34562 6.25406 5.81760
#
# Compressibility (1/GPa) = 0.02959116
#
# Stress axis : x y z
#
# Youngs Moduli (GPa) = 147.11023 152.57997 45.31979
#
# Poissons Ratio (x) = 0.27717 0.03848
# Poissons Ratio (y) = 0.26724 0.01121
# Poissons Ratio (z) = 0.12489 0.03774
#
# Static dielectric constant tensor:
#      x y z
#    x 1.832460 0.000000 0.000000 
#    y 0.000000 1.883390 0.000000 
#    z 0.000000 0.000000 1.927930 
# 
# From -- ./inp_files/18232.got.cif
#   From: 2010.05.17/outbox.cif.g08.bks.cpg/sg68_10_cif.got.tgz:18232.got - 2010.06.03 18:57:09.
