data_PCOD9505531
_publ_section_title
;
Structure prediction by ZEFSAII (Michael W. Deem and Ramdas Pophale) SiO2 
 PCOD9505531
Probable space group: C C C A
;
_chemical_formula_sum "Si O2"
_cell_formula_units_Z 72
_cell_length_a 8.511892
_cell_length_b 15.216040
_cell_length_c 27.338995
_cell_angle_alpha 90.000000
_cell_angle_beta 90.000000
_cell_angle_gamma 90.000000
_cell_volume 3540.872520
_symmetry_space_group_name_H-M "C C C A"
_symmetry_group_IT_number 68
_space_group.IT_coordinate_system_code '2'
_symmetry_cell_setting 'orthorhombic'
loop_
_space_group_symop_operation_xyz
x,y,z
-x,1/2-y,z
x,1/2-y,1/2-z
-x,y,1/2-z
-x,-y,-z
x,1/2+y,-z
-x,1/2+y,1/2+z
x,-y,1/2+z
1/2+x,1/2+y,z
1/2-x,-y,z
1/2+x,-y,1/2-z
1/2-x,1/2+y,1/2-z
1/2-x,1/2-y,-z
1/2+x,y,-z
1/2-x,y,1/2+z
1/2+x,1/2-y,1/2+z
loop_
_atom_site_type_symbol
_atom_site_label
_atom_site_fract_x
_atom_site_fract_y
_atom_site_fract_z
Si Si1 0.000000 0.250000 0.366106
Si Si2 0.250000 0.000000 0.002505
Si Si3 0.767219 0.307351 0.705946
Si Si4 0.071456 0.459931 0.840940
Si Si5 0.000000 0.433308 0.250000
Si Si6 0.491531 0.571856 0.071069
O O1 0.152391 0.256022 0.331159
O O2 0.006132 0.161463 0.398205
O O3 0.144863 0.059677 0.037777
O O4 0.351356 0.061296 0.966983
O O5 0.830620 0.250000 0.750000
O O6 0.895385 0.360354 0.674655
O O7 0.648056 0.374684 0.734110
O O8 0.250000 0.500000 0.843515
O O9 0.976230 0.505569 0.797065
O O10 0.992208 0.489588 0.891119
#
# Coordination Sequence:
#
# PCOD9505531 Si02
#       6
#     8   8  16  16   8  16
#     4  12  19  34  62  88 118 150 204 247 298 358
#     4  10  24  42  66  86 116 154 204 248 316 366
#     4  11  18  33  56  86 118 163 202 239 285 357
#     4  10  19  35  59  85 119 162 193 244 296 353
#     4  10  17  34  55  84 114 158 198 232 287 365
#     4  11  21  42  64  91 116 157 199 255 304 363
#
# _framework density 20.333970999999998
#
# number of rings (size 3 to 8) (size 9 to 14) (size 15 to 20)
#    0.000    1.333    7.778    0.000    0.000    0.889 
#   10.000    0.556    0.000    0.000    0.000    0.000 
#    0.000    0.000    0.000    0.000    0.000    0.000 
#
# Total GULP energy -201013.772375 kJ/mol
# GULP energy per Si atom -5583.715899 kJ/mol
# Density = 2.028769 g / cm^3
# Si number density = 20.333971 Si / 1000 Ang^3
#
#
#
# Elastic Constant Matrix: (Units=GPa)
#
#
# Indices 1 2 3 4 5 6 
#
# 1 61.8481 36.3895 55.1504 0.0000 0.0000 0.0000
# 2 36.3895 101.2714 69.4198 0.0000 0.0000 0.0000
# 3 55.1504 69.4198 174.6831 0.0000 0.0000 0.0000
# 4 0.0000 0.0000 0.0000 26.2966 0.0000 0.0000
# 5 0.0000 0.0000 0.0000 0.0000 -2.1616 0.0000
# 6 0.0000 0.0000 0.0000 0.0000 0.0000 7.9731
#
#
#
# Elastic Compliance Matrix: (Units=1/GPa)
#
#
# Indices 1 2 3 4 5 6 
#
# 1 0.024042 -0.004722 -0.005714 0.000000 0.000000 0.000000
# 2 -0.004722 0.014499 -0.004271 0.000000 0.000000 0.000000
# 3 -0.005714 -0.004271 0.009226 0.000000 0.000000 0.000000
# 4 0.000000 0.000000 0.000000 0.038028 0.000000 0.000000
# 5 0.000000 0.000000 0.000000 0.000000 -0.462622 0.000000
# 6 0.000000 0.000000 0.000000 0.000000 0.000000 0.125423
#
#
# Mechanical properties :
#
#
# Convention : Reuss Voigt Hill
#
# Bulk Modulus (GPa) = 54.48766 73.30245 63.89505
# Shear Modulus (GPa) = -23.16182 18.21113 -2.47534
#
# Velocity S-wave (km/s) = -3.37867 2.99591 -1.10453
# Velocity P-wave (km/s) = 3.41086 6.93504 5.46483
#
# Compressibility (1/GPa) = 0.01835278
#
# Stress axis : x y z
#
# Youngs Moduli (GPa) = 41.59360 68.97007 108.38956
#
# Poissons Ratio (x) = 0.32569 0.61933
# Poissons Ratio (y) = 0.19641 0.46294
# Poissons Ratio (z) = 0.23766 0.29458
#
# Static dielectric constant tensor:
#      x y z
#    x 1.743890 0.000000 0.000000 
#    y 0.000000 1.767280 0.000000 
#    z 0.000000 0.000000 1.696730 
# 
# From -- ./inp_files/53925.got.cif
#   From: 2010.05.17/outbox.cif.g08.bks.cpg/sg68_27_cif.got.tgz:53925.got - 2010.06.03 18:57:09.
