data_PCOD9505998
_publ_section_title
;
Structure prediction by ZEFSAII (Michael W. Deem and Ramdas Pophale) SiO2 
 PCOD9505998
Probable space group: C C C A
;
_chemical_formula_sum "Si O2"
_cell_formula_units_Z 96
_cell_length_a 16.927402
_cell_length_b 12.576415
_cell_length_c 22.294553
_cell_angle_alpha 90.000000
_cell_angle_beta 90.000000
_cell_angle_gamma 90.000000
_cell_volume 4746.198933
_symmetry_space_group_name_H-M "C C C A"
_symmetry_group_IT_number 68
_space_group.IT_coordinate_system_code '2'
_symmetry_cell_setting 'orthorhombic'
loop_
_space_group_symop_operation_xyz
x,y,z
-x,1/2-y,z
x,1/2-y,1/2-z
-x,y,1/2-z
-x,-y,-z
x,1/2+y,-z
-x,1/2+y,1/2+z
x,-y,1/2+z
1/2+x,1/2+y,z
1/2-x,-y,z
1/2+x,-y,1/2-z
1/2-x,1/2+y,1/2-z
1/2-x,1/2-y,-z
1/2+x,y,-z
1/2-x,y,1/2+z
1/2+x,1/2-y,1/2+z
loop_
_atom_site_type_symbol
_atom_site_label
_atom_site_fract_x
_atom_site_fract_y
_atom_site_fract_z
Si Si1 0.422380 0.434763 0.921732
Si Si2 0.881121 0.250000 0.250000
Si Si3 0.500000 0.750000 0.154112
Si Si4 0.569672 0.065714 0.064737
Si Si5 0.219961 0.605376 0.836032
Si Si6 0.307649 0.098422 0.970040
Si Si7 0.322303 0.755903 0.583064
O O1 0.461279 0.336879 0.887478
O O2 0.481646 0.535183 0.914739
O O3 0.335868 0.434458 0.891645
O O4 0.424276 0.413668 0.992849
O O5 0.829838 0.329766 0.211576
O O6 0.937039 0.197693 0.199566
O O7 0.608585 0.170213 0.093374
O O8 0.623924 0.958550 0.068676
O O9 0.250000 0.500000 0.805146
O O10 0.291276 0.675191 0.861899
O O11 0.253694 0.183499 0.935569
O O12 0.250000 0.000000 0.986975
O O13 0.339151 0.162819 0.027842
#
# Coordination Sequence:
#
# PCOD9505998 Si02
#       7
#    16   8   8  16  16  16  16
#     4  10  21  35  57  86 125 157 195 233 296 348
#     4   9  22  42  64  88 101 146 214 252 305 326
#     4   9  20  40  64  84 112 150 196 259 286 346
#     4  10  21  33  49  94 123 163 192 227 279 376
#     4  11  22  42  62  86 112 156 198 261 301 356
#     4   9  17  30  49  78 121 163 197 229 272 363
#     4  10  19  32  54  81 120 159 195 232 298 343
#
# _framework density 20.226713
#
# number of rings (size 3 to 8) (size 9 to 14) (size 15 to 20)
#    0.000    2.167    0.000    4.500    7.000    0.000 
#    3.000    0.000    0.000    0.000    0.000    0.000 
#    0.000    0.000    0.000    0.000    0.000    0.000 
#
# Total GULP energy -267830.140359 kJ/mol
# GULP energy per Si atom -5579.794591 kJ/mol
# Density = 2.018068 g / cm^3
# Si number density = 20.226713 Si / 1000 Ang^3
#
#
#
# Elastic Constant Matrix: (Units=GPa)
#
#
# Indices 1 2 3 4 5 6 
#
# 1 64.2362 27.0194 6.1813 0.0000 0.0000 0.0000
# 2 27.0194 90.8970 12.6026 0.0000 0.0000 0.0000
# 3 6.1813 12.6026 34.3668 0.0000 0.0000 0.0000
# 4 0.0000 0.0000 0.0000 16.6668 0.0000 0.0000
# 5 0.0000 0.0000 0.0000 0.0000 15.1109 0.0000
# 6 0.0000 0.0000 0.0000 0.0000 0.0000 31.5308
#
#
#
# Elastic Compliance Matrix: (Units=1/GPa)
#
#
# Indices 1 2 3 4 5 6 
#
# 1 0.017850 -0.005121 -0.001333 0.000000 0.000000 0.000000
# 2 -0.005121 0.013060 -0.003868 0.000000 0.000000 0.000000
# 3 -0.001333 -0.003868 0.030756 0.000000 0.000000 0.000000
# 4 0.000000 0.000000 0.000000 0.060000 0.000000 0.000000
# 5 0.000000 0.000000 0.000000 0.000000 0.066178 0.000000
# 6 0.000000 0.000000 0.000000 0.000000 0.000000 0.031715
#
#
# Mechanical properties :
#
#
# Convention : Reuss Voigt Hill
#
# Bulk Modulus (GPa) = 24.37701 31.23406 27.80553
# Shear Modulus (GPa) = 19.69465 22.24146 20.96806
#
# Velocity S-wave (km/s) = 3.12379 3.31963 3.22320
# Velocity P-wave (km/s) = 5.00888 5.49261 5.25631
#
# Compressibility (1/GPa) = 0.04102225
#
# Stress axis : x y z
#
# Youngs Moduli (GPa) = 56.02283 76.56949 32.51395
#
# Poissons Ratio (x) = 0.39212 0.04333
# Poissons Ratio (y) = 0.28690 0.12577
# Poissons Ratio (z) = 0.07465 0.29618
#
# Static dielectric constant tensor:
#      x y z
#    x 1.806570 0.000000 0.000000 
#    y 0.000000 1.725150 0.000000 
#    z 0.000000 0.000000 1.680680 
# 
# From -- ./inp_files/46044.got.cif
#   From: 2010.05.17/outbox.cif.g08.bks.cpg/sg68_24_cif.got.tgz:46044.got - 2010.06.03 18:57:09.
