data_PCOD9505047
_publ_section_title
;
Structure prediction by ZEFSAII (Michael W. Deem and Ramdas Pophale) SiO2 
 PCOD9505047
Probable space group: C M M A
;
_chemical_formula_sum "Si O2"
_cell_formula_units_Z 52
_cell_length_a 16.569233
_cell_length_b 15.107463
_cell_length_c 9.577915
_cell_angle_alpha 90.000000
_cell_angle_beta 90.000000
_cell_angle_gamma 90.000000
_cell_volume 2397.534818
_symmetry_space_group_name_H-M "C M M A"
_symmetry_group_IT_number 67
_symmetry_cell_setting 'orthorhombic'
loop_
_space_group_symop_operation_xyz
x,y,z
-x,1/2-y,z
x,-y,-z
-x,1/2+y,-z
-x,-y,-z
x,1/2+y,-z
-x,y,z
x,1/2-y,z
1/2+x,1/2+y,z
1/2-x,-y,z
1/2+x,1/2-y,-z
1/2-x,y,-z
1/2-x,1/2-y,-z
1/2+x,y,-z
1/2-x,1/2+y,z
1/2+x,-y,z
loop_
_atom_site_type_symbol
_atom_site_label
_atom_site_fract_x
_atom_site_fract_y
_atom_site_fract_z
Si Si1 0.000000 0.856566 0.031084
Si Si2 0.000000 0.146372 0.659435
Si Si3 0.841886 0.895415 0.522652
Si Si4 0.250000 0.000000 0.000000
Si Si5 0.847308 0.854242 0.841731
O O1 0.922010 0.877880 0.941243
O O2 0.000000 0.750000 0.039839
O O3 0.000000 0.896721 0.186177
O O4 0.916589 0.128892 0.577879
O O5 0.000000 0.250000 0.682376
O O6 0.750000 0.859306 0.500000
O O7 0.866011 0.867958 0.679069
O O8 0.835494 0.000000 0.500000
O O9 0.215738 0.072287 0.110479
O O10 0.825292 0.750000 0.862905
#
# Coordination Sequence:
#
# PCOD9505047 Si02
#       5
#     8   8  16   4  16
#     4   9  23  44  69  99 136 184 235 286 346 415
#     4  11  24  43  69 101 140 184 235 290 351 420
#     4  11  25  45  70 104 140 182 236 292 355 421
#     4  12  26  42  70 106 140 178 232 292 344 420
#     4  11  25  46  71 100 140 185 231 286 353 417
#
# _framework density 21.688945
#
# number of rings (size 3 to 8) (size 9 to 14) (size 15 to 20)
#    0.000    1.231    0.000    4.615    8.615    4.308 
#    0.000    0.000    0.000    0.000    0.000    0.000 
#    0.000    0.000    0.000    0.000    0.000    0.000 
#
# Total GULP energy -144956.665215 kJ/mol
# GULP energy per Si atom -5575.256354 kJ/mol
# Density = 2.163958 g / cm^3
# Si number density = 21.688945 Si / 1000 Ang^3
#
#
#
# Elastic Constant Matrix: (Units=GPa)
#
#
# Indices 1 2 3 4 5 6 
#
# 1 90.9506 25.0995 69.9270 0.0000 0.0000 0.0000
# 2 25.0995 121.4133 27.4327 0.0000 0.0000 0.0000
# 3 69.9270 27.4327 195.1549 0.0000 0.0000 0.0000
# 4 0.0000 0.0000 0.0000 34.4757 0.0000 0.0000
# 5 0.0000 0.0000 0.0000 0.0000 31.5834 0.0000
# 6 0.0000 0.0000 0.0000 0.0000 0.0000 38.9128
#
#
#
# Elastic Compliance Matrix: (Units=1/GPa)
#
#
# Indices 1 2 3 4 5 6 
#
# 1 0.015647 -0.002032 -0.005321 0.000000 0.000000 0.000000
# 2 -0.002032 0.008771 -0.000505 0.000000 0.000000 0.000000
# 3 -0.005321 -0.000505 0.007102 0.000000 0.000000 0.000000
# 4 0.000000 0.000000 0.000000 0.029006 0.000000 0.000000
# 5 0.000000 0.000000 0.000000 0.000000 0.031662 0.000000
# 6 0.000000 0.000000 0.000000 0.000000 0.000000 0.025699
#
#
# Mechanical properties :
#
#
# Convention : Reuss Voigt Hill
#
# Bulk Modulus (GPa) = 63.27827 72.49302 67.88565
# Shear Modulus (GPa) = 36.00521 39.99834 38.00177
#
# Velocity S-wave (km/s) = 4.07882 4.29905 4.19038
# Velocity P-wave (km/s) = 7.17085 7.62489 7.40135
#
# Compressibility (1/GPa) = 0.01580321
#
# Stress axis : x y z
#
# Youngs Moduli (GPa) = 63.91119 114.01854 140.81369
#
# Poissons Ratio (x) = 0.23173 0.74924
# Poissons Ratio (y) = 0.12989 0.07106
# Poissons Ratio (z) = 0.34006 0.05754
#
# Static dielectric constant tensor:
#      x y z
#    x 1.912510 0.000000 0.000000 
#    y 0.000000 1.760900 0.000000 
#    z 0.000000 0.000000 1.834910 
# 
# From -- ./inp_files/9020.got.cif
#   From: 2010.05.17/outbox.cif.g08.bks.cpg/sg67_5_cif.got.tgz:9020.got - 2010.06.03 18:28:57.
