data_PCOD9505423
_publ_section_title
;
Structure prediction by ZEFSAII (Michael W. Deem and Ramdas Pophale) SiO2 
 PCOD9505423
Probable space group: C C C A
;
_chemical_formula_sum "Si O2"
_cell_formula_units_Z 60
_cell_length_a 9.712646
_cell_length_b 16.518402
_cell_length_c 18.120533
_cell_angle_alpha 90.000000
_cell_angle_beta 90.000000
_cell_angle_gamma 90.000000
_cell_volume 2907.211040
_symmetry_space_group_name_H-M "C C C A"
_symmetry_group_IT_number 68
_space_group.IT_coordinate_system_code '2'
_symmetry_cell_setting 'orthorhombic'
loop_
_space_group_symop_operation_xyz
x,y,z
-x,1/2-y,z
x,1/2-y,1/2-z
-x,y,1/2-z
-x,-y,-z
x,1/2+y,-z
-x,1/2+y,1/2+z
x,-y,1/2+z
1/2+x,1/2+y,z
1/2-x,-y,z
1/2+x,-y,1/2-z
1/2-x,1/2+y,1/2-z
1/2-x,1/2-y,-z
1/2+x,y,-z
1/2-x,y,1/2+z
1/2+x,1/2-y,1/2+z
loop_
_atom_site_type_symbol
_atom_site_label
_atom_site_fract_x
_atom_site_fract_y
_atom_site_fract_z
Si Si1 0.040173 0.615386 0.147103
Si Si2 0.875623 0.688245 0.502163
Si Si3 0.000000 0.533049 0.750000
Si Si4 0.781120 0.907882 0.860350
Si Si5 0.500000 0.250000 0.250000
O O1 0.058874 0.529256 0.187629
O O2 0.873242 0.627444 0.145312
O O3 0.087561 0.689514 0.198675
O O4 0.107118 0.628150 0.067603
O O5 0.750000 0.750000 0.500000
O O6 0.864668 0.637851 0.576954
O O7 0.000000 0.750000 0.500021
O O8 0.123437 0.583240 0.787590
O O9 0.750000 0.000000 0.884031
#
# Coordination Sequence:
#
# PCOD9505423 Si02
#       5
#    16  16   8  16   4
#     4  10  20  40  65  90 132 169 221 275 340 396
#     4  12  23  44  68 101 135 182 229 280 347 411
#     4   9  22  41  61  92 123 178 216 270 341 408
#     4  10  22  44  64  95 135 170 228 281 337 404
#     4  10  16  36  60  82 118 170 206 252 336 392
#
# _framework density 20.638335999999999
#
# number of rings (size 3 to 8) (size 9 to 14) (size 15 to 20)
#    0.000    1.600    4.000    0.000    0.000    4.267 
#   24.000    0.000    0.000    0.000    0.000    0.000 
#    0.000    0.000    0.000    0.000    0.000    0.000 
#
# Total GULP energy -167333.389761 kJ/mol
# GULP energy per Si atom -5577.779659 kJ/mol
# Density = 2.059136 g / cm^3
# Si number density = 20.638336 Si / 1000 Ang^3
#
#
#
# Elastic Constant Matrix: (Units=GPa)
#
#
# Indices 1 2 3 4 5 6 
#
# 1 92.7606 20.9940 46.8351 0.0000 0.0000 0.0000
# 2 20.9940 46.3168 34.1300 0.0000 0.0000 0.0000
# 3 46.8351 34.1300 143.6656 0.0000 0.0000 0.0000
# 4 0.0000 0.0000 0.0000 41.5862 0.0000 0.0000
# 5 0.0000 0.0000 0.0000 0.0000 24.6624 0.0000
# 6 0.0000 0.0000 0.0000 0.0000 0.0000 22.4358
#
#
#
# Elastic Compliance Matrix: (Units=1/GPa)
#
#
# Indices 1 2 3 4 5 6 
#
# 1 0.013343 -0.003446 -0.003531 0.000000 0.000000 0.000000
# 2 -0.003446 0.027062 -0.005306 0.000000 0.000000 0.000000
# 3 -0.003531 -0.005306 0.009372 0.000000 0.000000 0.000000
# 4 0.000000 0.000000 0.000000 0.024046 0.000000 0.000000
# 5 0.000000 0.000000 0.000000 0.000000 0.040548 0.000000
# 6 0.000000 0.000000 0.000000 0.000000 0.000000 0.044572
#
#
# Mechanical properties :
#
#
# Convention : Reuss Voigt Hill
#
# Bulk Modulus (GPa) = 39.66396 54.07347 46.86871
# Shear Modulus (GPa) = 26.05351 29.78915 27.92133
#
# Velocity S-wave (km/s) = 3.55686 3.80332 3.68215
# Velocity P-wave (km/s) = 6.01071 6.74865 6.39034
#
# Compressibility (1/GPa) = 0.02521181
#
# Stress axis : x y z
#
# Youngs Moduli (GPa) = 74.94401 36.95222 106.69812
#
# Poissons Ratio (x) = 0.12734 0.37678
# Poissons Ratio (y) = 0.25825 0.56610
# Poissons Ratio (z) = 0.26465 0.19605
#
# Static dielectric constant tensor:
#      x y z
#    x 1.770230 0.000000 0.000000 
#    y 0.000000 1.740930 0.000000 
#    z 0.000000 0.000000 1.778780 
# 
# From -- ./inp_files/27719.got.cif
#   From: 2010.05.17/outbox.cif.g08.bks.cpg/sg68_14_cif.got.tgz:27719.got - 2010.06.03 18:57:09.
