data_PCOD9505112
_publ_section_title
;
Structure prediction by ZEFSAII (Michael W. Deem and Ramdas Pophale) SiO2 
 PCOD9505112
Probable space group: C M M A
;
_chemical_formula_sum "Si O2"
_cell_formula_units_Z 96
_cell_length_a 14.114932
_cell_length_b 10.777195
_cell_length_c 29.605554
_cell_angle_alpha 90.000000
_cell_angle_beta 90.000000
_cell_angle_gamma 90.000000
_cell_volume 4503.578358
_symmetry_space_group_name_H-M "C M M A"
_symmetry_group_IT_number 67
_symmetry_cell_setting 'orthorhombic'
loop_
_space_group_symop_operation_xyz
x,y,z
-x,1/2-y,z
x,-y,-z
-x,1/2+y,-z
-x,-y,-z
x,1/2+y,-z
-x,y,z
x,1/2-y,z
1/2+x,1/2+y,z
1/2-x,-y,z
1/2+x,1/2-y,-z
1/2-x,y,-z
1/2-x,1/2-y,-z
1/2+x,y,-z
1/2-x,1/2+y,z
1/2+x,-y,z
loop_
_atom_site_type_symbol
_atom_site_label
_atom_site_fract_x
_atom_site_fract_y
_atom_site_fract_z
Si Si1 0.115366 0.610162 0.532946
Si Si2 0.648059 0.884845 0.024153
Si Si3 0.115327 0.889289 0.193835
Si Si4 0.384637 0.889805 0.363333
Si Si5 0.385445 0.890280 0.127566
Si Si6 0.115367 0.389583 0.702387
O O1 0.145338 0.500000 0.500000
O O2 0.143098 0.750000 0.518863
O O3 0.145881 0.590561 0.584808
O O4 0.000000 0.608943 0.533244
O O5 0.603065 0.750000 0.018482
O O6 0.655977 0.906774 0.077541
O O7 0.750000 0.876954 0.000000
O O8 0.599884 0.000000 0.000000
O O9 0.143923 0.750000 0.179176
O O10 0.146036 0.907946 0.245709
O O11 0.000000 0.889843 0.194278
O O12 0.143875 0.001012 0.161346
O O13 0.500000 0.891086 0.363647
O O14 0.356928 0.750000 0.349246
O O15 0.354626 0.999843 0.330350
O O16 0.500000 0.896820 0.122744
O O17 0.363384 0.750000 0.143490
O O18 0.142899 0.250000 0.687933
O O19 0.000000 0.391073 0.702769
#
# Coordination Sequence:
#
# PCOD9505112 Si02
#       6
#    16  16  16  16  16  16
#     4   8  13  19  24  30  41  58  83 118 160 205
#     4   9  18  32  47  62  82 107 132 158 189 225
#     4   8  14  24  36  51  72  95 117 143 178 220
#     4   8  13  19  25  34  48  66  91 124 162 206
#     4   9  17  28  42  61  82 102 127 158 189 224
#     4   8  13  20  29  41  57  77 101 128 160 204
#
# _framework density 21.316382000000001
#
# number of rings (size 3 to 8) (size 9 to 14) (size 15 to 20)
#    0.000    3.667    0.000    2.000    0.000    2.333 
#    0.000    6.667    0.000    0.000    0.000    0.000 
#    0.000    0.000    0.000    0.000    0.000    0.000 
#
# Total GULP energy -267720.119915 kJ/mol
# GULP energy per Si atom -5577.502498 kJ/mol
# Density = 2.126786 g / cm^3
# Si number density = 21.316382 Si / 1000 Ang^3
#
#
#
# Elastic Constant Matrix: (Units=GPa)
#
#
# Indices 1 2 3 4 5 6 
#
# 1 82.7068 15.4984 19.6670 0.0000 0.0000 0.0000
# 2 15.4984 275.2977 153.5455 0.0000 0.0000 0.0000
# 3 19.6670 153.5455 129.8399 0.0000 0.0000 0.0000
# 4 0.0000 0.0000 0.0000 6.5158 0.0000 0.0000
# 5 0.0000 0.0000 0.0000 0.0000 4.6105 0.0000
# 6 0.0000 0.0000 0.0000 0.0000 0.0000 -39.3543
#
#
#
# Elastic Compliance Matrix: (Units=1/GPa)
#
#
# Indices 1 2 3 4 5 6 
#
# 1 0.012645 0.001047 -0.003153 0.000000 0.000000 0.000000
# 2 0.001047 0.010757 -0.012879 0.000000 0.000000 0.000000
# 3 -0.003153 -0.012879 0.023410 0.000000 0.000000 0.000000
# 4 0.000000 0.000000 0.000000 0.153474 0.000000 0.000000
# 5 0.000000 0.000000 0.000000 0.000000 0.216894 0.000000
# 6 0.000000 0.000000 0.000000 0.000000 0.000000 -0.025410
#
#
# Mechanical properties :
#
#
# Convention : Reuss Voigt Hill
#
# Bulk Modulus (GPa) = 59.38211 96.14069 77.76140
# Shear Modulus (GPa) = 11.69987 14.29664 12.99826
#
# Velocity S-wave (km/s) = 2.34533 2.59257 2.47205
# Velocity P-wave (km/s) = 5.93735 7.35946 6.68632
#
# Compressibility (1/GPa) = 0.01684009
#
# Stress axis : x y z
#
# Youngs Moduli (GPa) = 79.08533 92.96339 42.71613
#
# Poissons Ratio (x) = -0.09732 0.13470
# Poissons Ratio (y) = -0.08279 0.55016
# Poissons Ratio (z) = 0.24938 1.19732
#
# Static dielectric constant tensor:
#      x y z
#    x 1.783950 0.000000 0.000000 
#    y 0.000000 1.782910 0.000000 
#    z 0.000000 0.000000 1.719830 
# 
# From -- ./inp_files/42160.got.cif
#   From: 2010.05.17/outbox.cif.g08.bks.cpg/sg67_22_cif.got.tgz:42160.got - 2010.06.03 18:28:57.
