data_PCOD9505691
_publ_section_title
;
Structure prediction by ZEFSAII (Michael W. Deem and Ramdas Pophale) SiO2 
 PCOD9505691
Probable space group: C C C A
;
_chemical_formula_sum "Si O2"
_cell_formula_units_Z 108
_cell_length_a 27.364223
_cell_length_b 5.736176
_cell_length_c 30.911572
_cell_angle_alpha 90.000000
_cell_angle_beta 90.000000
_cell_angle_gamma 90.000000
_cell_volume 4852.065787
_symmetry_space_group_name_H-M "C C C A"
_symmetry_group_IT_number 68
_space_group.IT_coordinate_system_code '2'
_symmetry_cell_setting 'orthorhombic'
loop_
_space_group_symop_operation_xyz
x,y,z
-x,1/2-y,z
x,1/2-y,1/2-z
-x,y,1/2-z
-x,-y,-z
x,1/2+y,-z
-x,1/2+y,1/2+z
x,-y,1/2+z
1/2+x,1/2+y,z
1/2-x,-y,z
1/2+x,-y,1/2-z
1/2-x,1/2+y,1/2-z
1/2-x,1/2-y,-z
1/2+x,y,-z
1/2-x,y,1/2+z
1/2+x,1/2-y,1/2+z
loop_
_atom_site_type_symbol
_atom_site_label
_atom_site_fract_x
_atom_site_fract_y
_atom_site_fract_z
Si Si1 0.687561 0.621379 0.481313
Si Si2 0.388209 0.334465 0.391138
Si Si3 0.000000 0.250000 0.250000
Si Si4 0.340620 0.539221 0.172771
Si Si5 0.416193 0.429542 0.807084
Si Si6 0.703724 0.834985 0.394886
Si Si7 0.654769 0.750000 0.750000
Si Si8 0.424250 0.832450 0.513066
O O1 0.704236 0.370047 0.498660
O O2 0.701777 0.640510 0.431549
O O3 0.629041 0.633546 0.489970
O O4 0.421044 0.460626 0.354699
O O5 0.344470 0.510711 0.402936
O O6 0.415537 0.284878 0.435794
O O7 0.361594 0.125158 0.365445
O O8 0.965631 0.400664 0.218970
O O9 0.387927 0.684279 0.188577
O O10 0.302729 0.716954 0.151515
O O11 0.318839 0.402806 0.213630
O O12 0.379768 0.589265 0.779499
O O13 0.750000 0.000000 0.397981
O O14 0.446537 0.592978 0.493552
#
# Coordination Sequence:
#
# PCOD9505691 Si02
#       8
#    16  16   4  16  16  16   8  16
#     4  10  19  34  51  80 119 167 210 270 325 378
#     4  10  21  37  56  86 122 166 210 257 320 368
#     4  12  20  42  64 104 132 148 186 242 332 424
#     4  10  20  38  57  86 115 157 204 249 322 384
#     4  10  22  36  63  94 126 155 183 243 318 399
#     4  11  23  35  53  83 120 164 217 274 323 368
#     4  10  18  39  62  92 109 164 189 242 322 399
#     4  10  18  32  56  82 119 167 221 268 302 372
#
# _framework density 22.258559000000002
#
# number of rings (size 3 to 8) (size 9 to 14) (size 15 to 20)
#    0.000    1.778    4.444    1.778    2.074    1.481 
#    0.000    0.000    0.000    0.000  138.667    1.037 
#    0.000    0.000    0.000    0.000    0.000    0.000 
#
# Total GULP energy -301704.019527 kJ/mol
# GULP energy per Si atom -5587.111473 kJ/mol
# Density = 2.220790 g / cm^3
# Si number density = 22.258559 Si / 1000 Ang^3
#
#
#
# Elastic Constant Matrix: (Units=GPa)
#
#
# Indices 1 2 3 4 5 6 
#
# 1 48.9474 11.9865 22.3583 0.0000 0.0000 0.0000
# 2 11.9865 119.3592 28.4854 0.0000 0.0000 0.0000
# 3 22.3583 28.4854 132.6710 0.0000 0.0000 0.0000
# 4 0.0000 0.0000 0.0000 41.5149 0.0000 0.0000
# 5 0.0000 0.0000 0.0000 0.0000 17.1993 0.0000
# 6 0.0000 0.0000 0.0000 0.0000 0.0000 4.1684
#
#
#
# Elastic Compliance Matrix: (Units=1/GPa)
#
#
# Indices 1 2 3 4 5 6 
#
# 1 0.022360 -0.001419 -0.003463 0.000000 0.000000 0.000000
# 2 -0.001419 0.008921 -0.001676 0.000000 0.000000 0.000000
# 3 -0.003463 -0.001676 0.008481 0.000000 0.000000 0.000000
# 4 0.000000 0.000000 0.000000 0.024088 0.000000 0.000000
# 5 0.000000 0.000000 0.000000 0.000000 0.058142 0.000000
# 6 0.000000 0.000000 0.000000 0.000000 0.000000 0.239899
#
#
# Mechanical properties :
#
#
# Convention : Reuss Voigt Hill
#
# Bulk Modulus (GPa) = 37.53177 47.40422 42.46800
# Shear Modulus (GPa) = 13.02463 28.45302 20.73882
#
# Velocity S-wave (km/s) = 2.42161 3.57920 3.05573
# Velocity P-wave (km/s) = 4.97165 6.19873 5.61879
#
# Compressibility (1/GPa) = 0.02664409
#
# Stress axis : x y z
#
# Youngs Moduli (GPa) = 44.72353 112.10025 117.91037
#
# Poissons Ratio (x) = 0.15905 0.40838
# Poissons Ratio (y) = 0.06346 0.19764
# Poissons Ratio (z) = 0.15490 0.18790
#
# Static dielectric constant tensor:
#      x y z
#    x 1.805620 0.000000 0.000000 
#    y 0.000000 1.919260 0.000000 
#    z 0.000000 0.000000 1.850970 
# 
# From -- ./inp_files/56315.got.cif
#   From: 2010.05.17/outbox.cif.g08.bks.cpg/sg68_29_cif.got.tgz:56315.got - 2010.06.03 18:57:09.
