data_PCOD9505247
_publ_section_title
;
Structure prediction by ZEFSAII (Michael W. Deem and Ramdas Pophale) SiO2 
 PCOD9505247
Probable space group: C M M A
;
_chemical_formula_sum "Si O2"
_cell_formula_units_Z 32
_cell_length_a 15.000000
_cell_length_b 9.000000
_cell_length_c 24.000000
_cell_angle_alpha 90.000000
_cell_angle_beta 90.000000
_cell_angle_gamma 90.000000
_cell_volume 3240.000000
_symmetry_space_group_name_H-M "C M M A"
_symmetry_group_IT_number 67
_symmetry_cell_setting 'orthorhombic'
loop_
_space_group_symop_operation_xyz
x,y,z
-x,1/2-y,z
x,-y,-z
-x,1/2+y,-z
-x,-y,-z
x,1/2+y,-z
-x,y,z
x,1/2-y,z
1/2+x,1/2+y,z
1/2-x,-y,z
1/2+x,1/2-y,-z
1/2-x,y,-z
1/2-x,1/2-y,-z
1/2+x,y,-z
1/2-x,1/2+y,z
1/2+x,-y,z
loop_
_atom_site_type_symbol
_atom_site_label
_atom_site_fract_x
_atom_site_fract_y
_atom_site_fract_z
Si Si1 0.500000 0.571932 0.439138
Si Si2 0.107053 0.419135 0.261154
Si Si3 0.155767 0.926985 0.867833
Si Si4 0.341635 0.425825 0.370417
Si Si5 0.000000 0.428008 0.939110
O O1 0.500000 0.750000 0.441804
O O2 0.500000 0.500000 0.500000
O O3 0.416851 0.510268 0.404707
O O4 0.135293 0.250000 0.276548
O O5 0.135233 0.447561 0.197833
O O6 0.144436 0.535099 0.305293
O O7 0.000000 0.423604 0.263704
O O8 0.153663 0.750000 0.878575
O O9 0.250000 0.000000 0.880036
O O10 0.083786 0.010794 0.904791
O O11 0.344715 0.250000 0.379311
O O12 0.250000 0.500000 0.388186
O O13 0.000000 0.250000 0.942297
O O14 0.000000 0.500000 0.000000
#
# Coordination Sequence:
#
# PCOD9505247 Si02
#       5
#     8  16  16  16   8
#     4  12  26  47  70  95 128 167 215 269 321 380
#     4  10  20  38  65  96 133 172 209 259 319 379
#     4  11  23  42  66  97 132 169 212 262 318 381
#     4  12  25  42  66  98 132 172 216 263 318 380
#     4  12  26  45  68  93 124 167 215 267 321 378
#
# _framework density 9.8765429999999999
#
# number of rings (size 3 to 8) (size 9 to 14) (size 15 to 20)
#    0.000    0.750    2.500    6.000    0.000    5.000 
#    0.000    5.000    0.000    0.000    0.000    0.000 
#    0.000    0.000    0.000    0.000    0.000    0.000 
#
# Total GULP energy -179042.800975 kJ/mol
# GULP energy per Si atom -5595.087530 kJ/mol
# Density = 0.985406 g / cm^3
# Si number density = 9.876543 Si / 1000 Ang^3
#
#
#
# Elastic Constant Matrix: (Units=GPa)
#
#
# Indices 1 2 3 4 5 6 
#
# 1 168.7385 90.5877 61.2141 0.0000 0.0000 0.0000
# 2 90.5877 216.3996 90.3629 0.0000 0.0000 0.0000
# 3 61.2141 90.3629 100.8043 0.0000 0.0000 0.0000
# 4 0.0000 0.0000 0.0000 39.9942 0.0000 0.0000
# 5 0.0000 0.0000 0.0000 0.0000 207.7236 0.0000
# 6 0.0000 0.0000 0.0000 0.0000 0.0000 30.0790
#
#
#
# Elastic Compliance Matrix: (Units=1/GPa)
#
#
# Indices 1 2 3 4 5 6 
#
# 1 0.008187 -0.002160 -0.003036 0.000000 0.000000 0.000000
# 2 -0.002160 0.007955 -0.005820 0.000000 0.000000 0.000000
# 3 -0.003036 -0.005820 0.016981 0.000000 0.000000 0.000000
# 4 0.000000 0.000000 0.000000 0.025004 0.000000 0.000000
# 5 0.000000 0.000000 0.000000 0.000000 0.004814 0.000000
# 6 0.000000 0.000000 0.000000 0.000000 0.000000 0.033246
#
#
# Mechanical properties :
#
#
# Convention : Reuss Voigt Hill
#
# Bulk Modulus (GPa) = 90.14953 107.80799 98.97876
# Shear Modulus (GPa) = 41.01232 71.81120 56.41176
#
# Velocity S-wave (km/s) = 4.56153 6.03600 5.34981
# Velocity P-wave (km/s) = 8.57209 10.16238 9.40092
#
# Compressibility (1/GPa) = 0.01109268
#
# Stress axis : x y z
#
# Youngs Moduli (GPa) = 122.14529 125.70170 58.89002
#
# Poissons Ratio (x) = 0.27146 0.17878
# Poissons Ratio (y) = 0.26377 0.34274
# Poissons Ratio (z) = 0.37080 0.73158
#
# Static dielectric constant tensor:
#      x y z
#    x 1.619610 0.000000 0.000000 
#    y 0.000000 1.652410 0.000000 
#    z 0.000000 0.000000 1.678370 
# 
# From -- ./inp_files/41722.got.cif
#   From: 2010.05.17/outbox.ucp.g08.bks.cvg/sg67_21_cif.got.tgz:41722.got - 2010.06.11 16:47:20.
