data_PCOD9505878
_publ_section_title
;
Structure prediction by ZEFSAII (Michael W. Deem and Ramdas Pophale) SiO2 
 PCOD9505878
Probable space group: C C C A
;
_chemical_formula_sum "Si O2"
_cell_formula_units_Z 80
_cell_length_a 14.538168
_cell_length_b 22.590987
_cell_length_c 11.101527
_cell_angle_alpha 90.000000
_cell_angle_beta 90.000000
_cell_angle_gamma 90.000000
_cell_volume 3646.091879
_symmetry_space_group_name_H-M "C C C A"
_symmetry_group_IT_number 68
_space_group.IT_coordinate_system_code '2'
_symmetry_cell_setting 'orthorhombic'
loop_
_space_group_symop_operation_xyz
x,y,z
-x,1/2-y,z
x,1/2-y,1/2-z
-x,y,1/2-z
-x,-y,-z
x,1/2+y,-z
-x,1/2+y,1/2+z
x,-y,1/2+z
1/2+x,1/2+y,z
1/2-x,-y,z
1/2+x,-y,1/2-z
1/2-x,1/2+y,1/2-z
1/2-x,1/2-y,-z
1/2+x,y,-z
1/2-x,y,1/2+z
1/2+x,1/2-y,1/2+z
loop_
_atom_site_type_symbol
_atom_site_label
_atom_site_fract_x
_atom_site_fract_y
_atom_site_fract_z
Si Si1 0.641003 0.006553 0.204538
Si Si2 0.601663 0.876973 0.245707
Si Si3 0.598714 0.112077 0.021837
Si Si4 0.788860 0.317735 0.786947
Si Si5 0.425545 0.392530 0.353561
O O1 0.621542 0.051831 0.095142
O O2 0.599713 0.039729 0.322175
O O3 0.750000 0.000000 0.218239
O O4 0.599955 0.941990 0.186362
O O5 0.500000 0.849901 0.250000
O O6 0.627696 0.889423 0.384962
O O7 0.684193 0.838228 0.193658
O O8 0.652719 0.163129 0.095328
O O9 0.487521 0.118941 0.030798
O O10 0.794694 0.250000 0.750000
O O11 0.835982 0.354961 0.677471
O O12 0.500000 0.375368 0.250000
#
# Coordination Sequence:
#
# PCOD9505878 Si02
#       5
#    16  16  16  16  16
#     4  10  18  39  62  94 123 159 209 252 308 381
#     4  12  25  40  62  95 133 165 204 258 320 380
#     4  10  23  41  64  95 125 166 208 259 322 366
#     4  10  22  44  66  88 121 165 219 263 303 373
#     4   8  17  36  61  90 118 150 208 253 300 373
#
# _framework density 21.941299999999998
#
# number of rings (size 3 to 8) (size 9 to 14) (size 15 to 20)
#    0.000    2.400    4.000    1.800    0.000   10.400 
#    0.000    2.000    0.000    0.000    0.000    0.000 
#    0.000    0.000    0.000    0.000    0.000    0.000 
#
# Total GULP energy -223260.735687 kJ/mol
# GULP energy per Si atom -5581.518392 kJ/mol
# Density = 2.189136 g / cm^3
# Si number density = 21.941300 Si / 1000 Ang^3
#
#
#
# Elastic Constant Matrix: (Units=GPa)
#
#
# Indices 1 2 3 4 5 6 
#
# 1 153.2731 29.1419 -2.6587 0.0000 0.0000 0.0000
# 2 29.1419 110.8683 22.1102 0.0000 0.0000 0.0000
# 3 -2.6587 22.1102 44.6044 0.0000 0.0000 0.0000
# 4 0.0000 0.0000 0.0000 -0.3674 0.0000 0.0000
# 5 0.0000 0.0000 0.0000 0.0000 14.8465 0.0000
# 6 0.0000 0.0000 0.0000 0.0000 0.0000 16.7099
#
#
#
# Elastic Compliance Matrix: (Units=1/GPa)
#
#
# Indices 1 2 3 4 5 6 
#
# 1 0.006953 -0.002120 0.001465 0.000000 0.000000 0.000000
# 2 -0.002120 0.010655 -0.005408 0.000000 0.000000 0.000000
# 3 0.001465 -0.005408 0.025187 0.000000 0.000000 0.000000
# 4 0.000000 0.000000 0.000000 -2.722089 0.000000 0.000000
# 5 0.000000 0.000000 0.000000 0.000000 0.067356 0.000000
# 6 0.000000 0.000000 0.000000 0.000000 0.000000 0.059845
#
#
# Mechanical properties :
#
#
# Convention : Reuss Voigt Hill
#
# Bulk Modulus (GPa) = 32.60505 45.10362 38.85433
# Shear Modulus (GPa) = -1.97648 23.58129 10.80241
#
# Velocity S-wave (km/s) = -0.95014 3.28189 2.22126
# Velocity P-wave (km/s) = 3.69982 5.91288 4.93208
#
# Compressibility (1/GPa) = 0.03067010
#
# Stress axis : x y z
#
# Youngs Moduli (GPa) = 143.82806 93.84881 39.70232
#
# Poissons Ratio (x) = 0.19893 -0.05817
# Poissons Ratio (y) = 0.30488 0.21472
# Poissons Ratio (z) = -0.21073 0.50755
#
# Static dielectric constant tensor:
#      x y z
#    x 1.851160 0.000000 0.000000 
#    y 0.000000 1.767780 0.000000 
#    z 0.000000 0.000000 1.881590 
# 
# From -- ./inp_files/13212.got.cif
#   From: 2010.05.17/outbox.cif.g08.bks.cpg/sg68_7_cif.got.tgz:13212.got - 2010.06.03 18:57:09.
