data_PCOD9505695
_publ_section_title
;
Structure prediction by ZEFSAII (Michael W. Deem and Ramdas Pophale) SiO2 
 PCOD9505695
Probable space group: C C C A
;
_chemical_formula_sum "Si O2"
_cell_formula_units_Z 88
_cell_length_a 18.545795
_cell_length_b 22.057491
_cell_length_c 9.291445
_cell_angle_alpha 90.000000
_cell_angle_beta 90.000000
_cell_angle_gamma 90.000000
_cell_volume 3800.885843
_symmetry_space_group_name_H-M "C C C A"
_symmetry_group_IT_number 68
_space_group.IT_coordinate_system_code '2'
_symmetry_cell_setting 'orthorhombic'
loop_
_space_group_symop_operation_xyz
x,y,z
-x,1/2-y,z
x,1/2-y,1/2-z
-x,y,1/2-z
-x,-y,-z
x,1/2+y,-z
-x,1/2+y,1/2+z
x,-y,1/2+z
1/2+x,1/2+y,z
1/2-x,-y,z
1/2+x,-y,1/2-z
1/2-x,1/2+y,1/2-z
1/2-x,1/2-y,-z
1/2+x,y,-z
1/2-x,y,1/2+z
1/2+x,1/2-y,1/2+z
loop_
_atom_site_type_symbol
_atom_site_label
_atom_site_fract_x
_atom_site_fract_y
_atom_site_fract_z
Si Si1 0.579218 0.865308 0.735567
Si Si2 0.051753 0.926157 0.565488
Si Si3 0.221225 0.307244 0.653072
Si Si4 0.397077 0.053555 0.996436
Si Si5 0.696779 0.624159 0.127830
Si Si6 0.250000 0.000000 0.483270
O O1 0.500000 0.837902 0.750000
O O2 0.565836 0.913365 0.606193
O O3 0.637566 0.817717 0.685698
O O4 0.611694 0.895611 0.879937
O O5 0.110122 0.881027 0.634033
O O6 0.966232 0.923317 0.594231
O O7 0.073779 0.995583 0.586026
O O8 0.243735 0.250000 0.750000
O O9 0.267902 0.360998 0.721734
O O10 0.223245 0.323225 0.483902
O O11 0.325212 0.027424 0.918949
O O12 0.723136 0.558652 0.071872
#
# Coordination Sequence:
#
# PCOD9505695 Si02
#       6
#    16  16  16  16  16   8
#     4   9  17  32  52  75 108 144 193 244 290 347
#     4   8  17  30  49  73 110 147 181 226 293 354
#     4  11  22  38  57  81 114 153 200 247 297 354
#     4   9  15  30  48  76 111 144 178 230 291 351
#     4  10  21  37  56  87 112 154 192 245 299 358
#     4  10  18  32  56  86 116 142 188 240 296 360
#
# _framework density 23.152498000000001
#
# number of rings (size 3 to 8) (size 9 to 14) (size 15 to 20)
#    0.000    2.545    1.818    0.545    0.000    1.091 
#    9.818    0.000    0.000    0.000    0.000    1.273 
#    0.000    0.000    0.000    0.000    0.000    0.000 
#
# Total GULP energy -245014.756136 kJ/mol
# GULP energy per Si atom -5568.517185 kJ/mol
# Density = 2.309980 g / cm^3
# Si number density = 23.152498 Si / 1000 Ang^3
#
#
#
# Elastic Constant Matrix: (Units=GPa)
#
#
# Indices 1 2 3 4 5 6 
#
# 1 155.8051 0.1661 39.6589 0.0000 0.0000 0.0000
# 2 0.1661 64.1345 26.6144 0.0000 0.0000 0.0000
# 3 39.6589 26.6144 79.6495 0.0000 0.0000 0.0000
# 4 0.0000 0.0000 0.0000 18.3796 0.0000 0.0000
# 5 0.0000 0.0000 0.0000 0.0000 16.9578 0.0000
# 6 0.0000 0.0000 0.0000 0.0000 0.0000 4.8980
#
#
#
# Elastic Compliance Matrix: (Units=1/GPa)
#
#
# Indices 1 2 3 4 5 6 
#
# 1 0.007521 0.001782 -0.004340 0.000000 0.000000 0.000000
# 2 0.001782 0.018524 -0.007077 0.000000 0.000000 0.000000
# 3 -0.004340 -0.007077 0.017081 0.000000 0.000000 0.000000
# 4 0.000000 0.000000 0.000000 0.054408 0.000000 0.000000
# 5 0.000000 0.000000 0.000000 0.000000 0.058970 0.000000
# 6 0.000000 0.000000 0.000000 0.000000 0.000000 0.204164
#
#
# Mechanical properties :
#
#
# Convention : Reuss Voigt Hill
#
# Bulk Modulus (GPa) = 41.91943 48.05199 44.98571
# Shear Modulus (GPa) = 12.89021 23.59039 18.24030
#
# Velocity S-wave (km/s) = 2.36212 3.19551 2.80988
# Velocity P-wave (km/s) = 5.05812 5.86640 5.47719
#
# Compressibility (1/GPa) = 0.02385528
#
# Stress axis : x y z
#
# Youngs Moduli (GPa) = 132.95853 53.98288 58.54533
#
# Poissons Ratio (x) = -0.09618 0.25410
# Poissons Ratio (y) = -0.23688 0.41432
# Poissons Ratio (z) = 0.57707 0.38203
#
# Static dielectric constant tensor:
#      x y z
#    x 1.954640 0.000000 0.000000 
#    y 0.000000 1.843340 0.000000 
#    z 0.000000 0.000000 1.953600 
# 
# From -- ./inp_files/14446.got.cif
#   From: 2010.05.17/outbox.cif.g08.bks.cpg/sg68_8_cif.got.tgz:14446.got - 2010.06.03 18:57:09.
