data_PCOD9505989
_publ_section_title
;
Structure prediction by ZEFSAII (Michael W. Deem and Ramdas Pophale) SiO2 
 PCOD9505989
Probable space group: C C C A
;
_chemical_formula_sum "Si O2"
_cell_formula_units_Z 88
_cell_length_a 28.062457
_cell_length_b 18.174586
_cell_length_c 9.048036
_cell_angle_alpha 90.000000
_cell_angle_beta 90.000000
_cell_angle_gamma 90.000000
_cell_volume 4614.711334
_symmetry_space_group_name_H-M "C C C A"
_symmetry_group_IT_number 68
_space_group.IT_coordinate_system_code '2'
_symmetry_cell_setting 'orthorhombic'
loop_
_space_group_symop_operation_xyz
x,y,z
-x,1/2-y,z
x,1/2-y,1/2-z
-x,y,1/2-z
-x,-y,-z
x,1/2+y,-z
-x,1/2+y,1/2+z
x,-y,1/2+z
1/2+x,1/2+y,z
1/2-x,-y,z
1/2+x,-y,1/2-z
1/2-x,1/2+y,1/2-z
1/2-x,1/2-y,-z
1/2+x,y,-z
1/2-x,y,1/2+z
1/2+x,1/2-y,1/2+z
loop_
_atom_site_type_symbol
_atom_site_label
_atom_site_fract_x
_atom_site_fract_y
_atom_site_fract_z
Si Si1 0.250000 0.500000 0.643555
Si Si2 0.392120 0.854654 0.482761
Si Si3 0.318840 0.542918 0.896096
Si Si4 0.470079 0.453918 0.382257
Si Si5 0.897072 0.077123 0.334361
Si Si6 0.052639 0.777229 0.578534
O O1 0.286752 0.541178 0.750716
O O2 0.283095 0.453856 0.533940
O O3 0.353158 0.887636 0.591399
O O4 0.440818 0.895227 0.526177
O O5 0.380937 0.882448 0.316138
O O6 0.404740 0.769754 0.492606
O O7 0.352047 0.468254 0.902776
O O8 0.500000 0.419427 0.250000
O O9 0.500000 0.500000 0.500000
O O10 0.433985 0.511149 0.303773
O O11 0.929051 0.138212 0.421917
O O12 0.052053 0.750000 0.750000
O O13 0.000000 0.750000 0.523713
#
# Coordination Sequence:
#
# PCOD9505989 Si02
#       6
#     8  16  16  16  16  16
#     4  10  20  36  60  82 106 134 174 240 294 362
#     4  10  19  33  52  81 112 145 190 229 274 328
#     4  10  20  35  58  84 107 135 182 233 295 333
#     4  11  20  30  50  77 110 147 192 236 270 312
#     4  10  19  32  53  81 111 146 187 230 275 330
#     4   9  18  31  52  78 116 157 191 218 260 327
#
# _framework density 19.069448000000001
#
# number of rings (size 3 to 8) (size 9 to 14) (size 15 to 20)
#    0.000    2.000    3.636    1.091    2.545    0.000 
#    0.000    0.000    0.000   16.909    0.000    0.000 
#    0.000    0.000    0.000    0.000    0.000    0.000 
#
# Total GULP energy -244957.401214 kJ/mol
# GULP energy per Si atom -5567.213664 kJ/mol
# Density = 1.902605 g / cm^3
# Si number density = 19.069448 Si / 1000 Ang^3
#
#
#
# Elastic Constant Matrix: (Units=GPa)
#
#
# Indices 1 2 3 4 5 6 
#
# 1 90.9178 24.8367 19.5250 0.0000 0.0000 0.0000
# 2 24.8367 83.6639 -4.5229 0.0000 0.0000 0.0000
# 3 19.5250 -4.5229 51.4763 0.0000 0.0000 0.0000
# 4 0.0000 0.0000 0.0000 11.8328 0.0000 0.0000
# 5 0.0000 0.0000 0.0000 0.0000 32.4812 0.0000
# 6 0.0000 0.0000 0.0000 0.0000 0.0000 14.1162
#
#
#
# Elastic Compliance Matrix: (Units=1/GPa)
#
#
# Indices 1 2 3 4 5 6 
#
# 1 0.013325 -0.004249 -0.005428 0.000000 0.000000 0.000000
# 2 -0.004249 0.013365 0.002786 0.000000 0.000000 0.000000
# 3 -0.005428 0.002786 0.021730 0.000000 0.000000 0.000000
# 4 0.000000 0.000000 0.000000 0.084511 0.000000 0.000000
# 5 0.000000 0.000000 0.000000 0.000000 0.030787 0.000000
# 6 0.000000 0.000000 0.000000 0.000000 0.000000 0.070840
#
#
# Mechanical properties :
#
#
# Convention : Reuss Voigt Hill
#
# Bulk Modulus (GPa) = 28.86993 33.97063 31.42028
# Shear Modulus (GPa) = 19.23918 24.10064 21.66991
#
# Velocity S-wave (km/s) = 3.17977 3.55890 3.37466
# Velocity P-wave (km/s) = 5.35289 5.89411 5.63001
#
# Compressibility (1/GPa) = 0.03463811
#
# Stress axis : x y z
#
# Youngs Moduli (GPa) = 75.04486 74.82436 46.01948
#
# Poissons Ratio (x) = 0.31795 0.24978
# Poissons Ratio (y) = 0.31888 -0.12821
# Poissons Ratio (z) = 0.40732 -0.20846
#
# Static dielectric constant tensor:
#      x y z
#    x 1.710220 0.000000 0.000000 
#    y 0.000000 1.670330 0.000000 
#    z 0.000000 0.000000 1.698360 
# 
# From -- ./inp_files/9520.got.cif
#   From: 2010.05.17/outbox.cif.g08.bks.cpg/sg68_5_cif.got.tgz:9520.got - 2010.06.03 18:57:09.
