data_PCOD9505205
_publ_section_title
;
Structure prediction by ZEFSAII (Michael W. Deem and Ramdas Pophale) SiO2 
 PCOD9505205
Probable space group: C M M A
;
_chemical_formula_sum "Si O2"
_cell_formula_units_Z 52
_cell_length_a 9.000000
_cell_length_b 30.000000
_cell_length_c 21.000000
_cell_angle_alpha 90.000000
_cell_angle_beta 90.000000
_cell_angle_gamma 90.000000
_cell_volume 5670.000000
_symmetry_space_group_name_H-M "C M M A"
_symmetry_group_IT_number 67
_symmetry_cell_setting 'orthorhombic'
loop_
_space_group_symop_operation_xyz
x,y,z
-x,1/2-y,z
x,-y,-z
-x,1/2+y,-z
-x,-y,-z
x,1/2+y,-z
-x,y,z
x,1/2-y,z
1/2+x,1/2+y,z
1/2-x,-y,z
1/2+x,1/2-y,-z
1/2-x,y,-z
1/2-x,1/2-y,-z
1/2+x,y,-z
1/2-x,1/2+y,z
1/2+x,-y,z
loop_
_atom_site_type_symbol
_atom_site_label
_atom_site_fract_x
_atom_site_fract_y
_atom_site_fract_z
Si Si1 0.000000 0.031761 0.412796
Si Si2 0.321514 0.197844 0.066789
Si Si3 0.500000 0.429905 0.455755
Si Si4 0.180779 0.147311 0.802913
Si Si5 0.166763 0.452163 0.774658
Si Si6 0.743813 0.581530 0.639730
Si Si7 0.682514 0.750000 0.574231
Si Si8 0.172037 0.820596 0.673062
O O1 0.000000 0.068391 0.469168
O O2 0.143331 0.042087 0.373281
O O3 0.000000 0.982157 0.437553
O O4 0.500000 0.195393 0.060849
O O5 0.280685 0.250000 0.075742
O O6 0.280242 0.170397 0.130078
O O7 0.250000 0.182663 0.000000
O O8 0.642239 0.410478 0.421509
O O9 0.229313 0.094756 0.803794
O O10 0.248778 0.175098 0.742853
O O11 0.000000 0.147430 0.795391
O O12 0.250000 0.500000 0.780231
O O13 0.157851 0.435875 0.701213
O O14 0.000000 0.458919 0.799505
O O15 0.824873 0.627651 0.652823
O O16 0.500000 0.750000 0.570536
O O17 0.750000 0.750000 0.500000
O O18 0.741937 0.708536 0.618876
O O19 0.000000 0.805661 0.678090
#
# Coordination Sequence:
#
# PCOD9505205 Si02
#       8
#     8  16   8  16  16  16   8  16
#     4  11  22  36  48  77 105 141 178 234 291 353
#     4   9  18  34  58  90 124 158 193 233 287 351
#     4  11  22  34  54  73 105 141 186 224 291 361
#     4   9  20  37  59  89 121 159 201 241 292 349
#     4  10  20  33  54  79 110 148 192 243 289 340
#     4  11  22  37  55  78 106 142 184 236 291 349
#     4  12  28  48  70  88 113 150 195 248 308 368
#     4  11  24  43  62  88 118 147 196 247 297 353
#
# _framework density 9.1710759999999993
#
# number of rings (size 3 to 8) (size 9 to 14) (size 15 to 20)
#    0.000    1.692    1.538    3.000    4.308    3.692 
#    0.000    0.000    0.000    0.462    0.000    3.231 
#    0.000    0.000    0.000    0.000    0.000    0.000 
#
# Total GULP energy -289648.938301 kJ/mol
# GULP energy per Si atom -5570.171890 kJ/mol
# Density = 0.915020 g / cm^3
# Si number density = 9.171076 Si / 1000 Ang^3
#
#
#
# Elastic Constant Matrix: (Units=GPa)
#
#
# Indices 1 2 3 4 5 6 
#
# 1 85.7177 32.1652 40.8476 0.0000 0.0000 0.0000
# 2 32.1652 98.7701 56.9905 0.0000 0.0000 0.0000
# 3 40.8476 56.9905 135.8403 0.0000 0.0000 0.0000
# 4 0.0000 0.0000 0.0000 32.5102 0.0000 0.0000
# 5 0.0000 0.0000 0.0000 0.0000 27.4220 0.0000
# 6 0.0000 0.0000 0.0000 0.0000 0.0000 26.1692
#
#
#
# Elastic Compliance Matrix: (Units=1/GPa)
#
#
# Indices 1 2 3 4 5 6 
#
# 1 0.014201 -0.002851 -0.003074 0.000000 0.000000 0.000000
# 2 -0.002851 0.013931 -0.004987 0.000000 0.000000 0.000000
# 3 -0.003074 -0.004987 0.010378 0.000000 0.000000 0.000000
# 4 0.000000 0.000000 0.000000 0.030760 0.000000 0.000000
# 5 0.000000 0.000000 0.000000 0.000000 0.036467 0.000000
# 6 0.000000 0.000000 0.000000 0.000000 0.000000 0.038213
#
#
# Mechanical properties :
#
#
# Convention : Reuss Voigt Hill
#
# Bulk Modulus (GPa) = 59.93273 64.48163 62.20718
# Shear Modulus (GPa) = 29.18252 29.90861 29.54557
#
# Velocity S-wave (km/s) = 3.99307 4.04244 4.01783
# Velocity P-wave (km/s) = 7.34883 7.55114 7.45067
#
# Compressibility (1/GPa) = 0.01668537
#
# Stress axis : x y z
#
# Youngs Moduli (GPa) = 70.41791 71.78490 96.35445
#
# Poissons Ratio (x) = 0.20464 0.29622
# Poissons Ratio (y) = 0.20075 0.48054
# Poissons Ratio (z) = 0.21648 0.35800
#
# Static dielectric constant tensor:
#      x y z
#    x 1.667530 0.000000 0.000000 
#    y 0.000000 1.643040 0.000000 
#    z 0.000000 0.000000 1.627980 
# 
# From -- ./inp_files/37594.got.cif
#   From: 2010.05.17/outbox.ucp.g08.bks.cvg/sg67_19_cif.got.tgz:37594.got - 2010.06.11 16:47:20.
