data_PCOD9505701
_publ_section_title
;
Structure prediction by ZEFSAII (Michael W. Deem and Ramdas Pophale) SiO2 
 PCOD9505701
Probable space group: C C C A
;
_chemical_formula_sum "Si O2"
_cell_formula_units_Z 80
_cell_length_a 24.942615
_cell_length_b 7.594818
_cell_length_c 18.394058
_cell_angle_alpha 90.000000
_cell_angle_beta 90.000000
_cell_angle_gamma 90.000000
_cell_volume 3484.471413
_symmetry_space_group_name_H-M "C C C A"
_symmetry_group_IT_number 68
_space_group.IT_coordinate_system_code '2'
_symmetry_cell_setting 'orthorhombic'
loop_
_space_group_symop_operation_xyz
x,y,z
-x,1/2-y,z
x,1/2-y,1/2-z
-x,y,1/2-z
-x,-y,-z
x,1/2+y,-z
-x,1/2+y,1/2+z
x,-y,1/2+z
1/2+x,1/2+y,z
1/2-x,-y,z
1/2+x,-y,1/2-z
1/2-x,1/2+y,1/2-z
1/2-x,1/2-y,-z
1/2+x,y,-z
1/2-x,y,1/2+z
1/2+x,1/2-y,1/2+z
loop_
_atom_site_type_symbol
_atom_site_label
_atom_site_fract_x
_atom_site_fract_y
_atom_site_fract_z
Si Si1 0.273788 0.309601 0.078819
Si Si2 0.497971 0.460401 0.585915
Si Si3 0.114489 0.436450 0.401896
Si Si4 0.380692 0.510469 0.072702
Si Si5 0.794236 0.104334 0.302232
O O1 0.250000 0.500000 0.087532
O O2 0.336358 0.361813 0.090189
O O3 0.244704 0.186497 0.136630
O O4 0.250000 0.250000 0.000000
O O5 0.500000 0.250000 0.593569
O O6 0.500000 0.500000 0.500000
O O7 0.555385 0.505188 0.619822
O O8 0.439593 0.535006 0.605141
O O9 0.123747 0.220439 0.407012
O O10 0.121476 0.504521 0.484314
O O11 0.158535 0.492695 0.344019
O O12 0.819010 0.250000 0.250000
O O13 0.750000 0.000000 0.255735
#
# Coordination Sequence:
#
# PCOD9505701 Si02
#       5
#    16  16  16  16  16
#     4  12  21  35  58  90 122 158 202 252 310 373
#     4   8  16  30  51  84 117 151 182 235 298 357
#     4  10  20  35  58  86 122 153 196 247 309 371
#     4  10  18  32  58  88 123 149 194 244 304 365
#     4  12  27  42  58  82 117 161 210 256 318 380
#
# _framework density 22.959005000000001
#
# number of rings (size 3 to 8) (size 9 to 14) (size 15 to 20)
#    0.000    1.600    4.000    1.200    2.800    0.000 
#    0.000    0.000    0.000    5.400    0.000    1.400 
#    0.000    0.000    0.000    0.000    0.000    0.000 
#
# Total GULP energy -222707.799854 kJ/mol
# GULP energy per Si atom -5567.694996 kJ/mol
# Density = 2.290675 g / cm^3
# Si number density = 22.959005 Si / 1000 Ang^3
#
#
#
# Elastic Constant Matrix: (Units=GPa)
#
#
# Indices 1 2 3 4 5 6 
#
# 1 233.8156 33.9190 31.5280 0.0000 0.0000 0.0000
# 2 33.9190 74.7869 11.5704 0.0000 0.0000 0.0000
# 3 31.5280 11.5704 54.8170 0.0000 0.0000 0.0000
# 4 0.0000 0.0000 0.0000 17.7195 0.0000 0.0000
# 5 0.0000 0.0000 0.0000 0.0000 -7.5238 0.0000
# 6 0.0000 0.0000 0.0000 0.0000 0.0000 34.6798
#
#
#
# Elastic Compliance Matrix: (Units=1/GPa)
#
#
# Indices 1 2 3 4 5 6 
#
# 1 0.004868 -0.001835 -0.002413 0.000000 0.000000 0.000000
# 2 -0.001835 0.014514 -0.002008 0.000000 0.000000 0.000000
# 3 -0.002413 -0.002008 0.020054 0.000000 0.000000 0.000000
# 4 0.000000 0.000000 0.000000 0.056435 0.000000 0.000000
# 5 0.000000 0.000000 0.000000 0.000000 -0.132911 0.000000
# 6 0.000000 0.000000 0.000000 0.000000 0.000000 0.028835
#
#
# Mechanical properties :
#
#
# Convention : Reuss Voigt Hill
#
# Bulk Modulus (GPa) = 37.14018 57.49493 47.31756
# Shear Modulus (GPa) = 376.44248 28.06856 202.25552
#
# Velocity S-wave (km/s) = 12.81869 3.50029 9.39603
# Velocity P-wave (km/s) = 15.33961 6.43684 11.76300
#
# Compressibility (1/GPa) = 0.02692501
#
# Stress axis : x y z
#
# Youngs Moduli (GPa) = 205.40730 68.89821 49.86505
#
# Poissons Ratio (x) = 0.12641 0.12031
# Poissons Ratio (y) = 0.37687 0.10014
# Poissons Ratio (z) = 0.49560 0.13837
#
# Static dielectric constant tensor:
#      x y z
#    x 2.817580 0.000000 0.000000 
#    y 0.000000 2.030560 0.000000 
#    z 0.000000 0.000000 1.725190 
# 
# From -- ./inp_files/33968.got.cif
#   From: 2010.05.17/outbox.cif.g08.bks.cpg/sg68_17_cif.got.tgz:33968.got - 2010.06.03 18:57:09.
