data_PCOD9505025
_publ_section_title
;
Structure prediction by ZEFSAII (Michael W. Deem and Ramdas Pophale) SiO2 
 PCOD9505025
Probable space group: C M M A
;
_chemical_formula_sum "Si O2"
_cell_formula_units_Z 64
_cell_length_a 28.741772
_cell_length_b 8.258343
_cell_length_c 11.470559
_cell_angle_alpha 90.000000
_cell_angle_beta 90.000000
_cell_angle_gamma 90.000000
_cell_volume 2722.645135
_symmetry_space_group_name_H-M "C M M A"
_symmetry_group_IT_number 67
_symmetry_cell_setting 'orthorhombic'
loop_
_space_group_symop_operation_xyz
x,y,z
-x,1/2-y,z
x,-y,-z
-x,1/2+y,-z
-x,-y,-z
x,1/2+y,-z
-x,y,z
x,1/2-y,z
1/2+x,1/2+y,z
1/2-x,-y,z
1/2+x,1/2-y,-z
1/2-x,y,-z
1/2-x,1/2-y,-z
1/2+x,y,-z
1/2-x,1/2+y,z
1/2+x,-y,z
loop_
_atom_site_type_symbol
_atom_site_label
_atom_site_fract_x
_atom_site_fract_y
_atom_site_fract_z
Si Si1 0.196511 0.442914 0.130069
Si Si2 0.444965 0.428439 0.884665
Si Si3 0.948831 0.565018 0.354753
Si Si4 0.847416 0.945410 0.377380
O O1 0.194248 0.250000 0.130333
O O2 0.250000 0.500000 0.139163
O O3 0.172141 0.503145 0.250474
O O4 0.180648 0.500000 0.000000
O O5 0.500000 0.406824 0.905122
O O6 0.426473 0.250000 0.852885
O O7 0.443313 0.559221 0.783915
O O8 0.423156 0.500000 0.000000
O O9 0.950247 0.750000 0.396530
O O10 0.900253 0.483990 0.387109
O O11 0.000000 0.488971 0.378267
O O12 0.849209 0.750000 0.377050
O O13 0.823646 0.000000 0.500000
#
# Coordination Sequence:
#
# PCOD9505025 Si02
#       4
#    16  16  16  16
#     4  11  23  44  74 106 138 172 213 263 325 396
#     4   9  16  26  43  68  99 138 188 247 309 370
#     4   9  19  36  56  79 114 163 217 271 324 379
#     4  11  24  42  64  95 134 176 224 276 332 393
#
# _framework density 23.506551000000002
#
# number of rings (size 3 to 8) (size 9 to 14) (size 15 to 20)
#    0.000    2.000    0.000    4.500    0.000    7.000 
#    0.000    2.500    0.000    0.000    0.000    0.000 
#    0.000    0.000    0.000    0.000    0.000    0.000 
#
# Total GULP energy -178211.796055 kJ/mol
# GULP energy per Si atom -5569.118627 kJ/mol
# Density = 2.345305 g / cm^3
# Si number density = 23.506551 Si / 1000 Ang^3
#
#
#
# Elastic Constant Matrix: (Units=GPa)
#
#
# Indices 1 2 3 4 5 6 
#
# 1 122.1725 12.8215 61.4243 0.0000 0.0000 0.0000
# 2 12.8215 121.5485 47.3738 0.0000 0.0000 0.0000
# 3 61.4243 47.3738 226.6642 0.0000 0.0000 0.0000
# 4 0.0000 0.0000 0.0000 33.2283 0.0000 0.0000
# 5 0.0000 0.0000 0.0000 0.0000 25.7935 0.0000
# 6 0.0000 0.0000 0.0000 0.0000 0.0000 0.0256
#
#
#
# Elastic Compliance Matrix: (Units=1/GPa)
#
#
# Indices 1 2 3 4 5 6 
#
# 1 0.009476 0.000001 -0.002568 0.000000 0.000000 0.000000
# 2 0.000001 0.008957 -0.001872 0.000000 0.000000 0.000000
# 3 -0.002568 -0.001872 0.005499 0.000000 0.000000 0.000000
# 4 0.000000 0.000000 0.000000 0.030095 0.000000 0.000000
# 5 0.000000 0.000000 0.000000 0.000000 0.038770 0.000000
# 6 0.000000 0.000000 0.000000 0.000000 0.000000 39.066471
#
#
# Mechanical properties :
#
#
# Convention : Reuss Voigt Hill
#
# Bulk Modulus (GPa) = 66.42921 79.29162 72.86042
# Shear Modulus (GPa) = 0.12764 35.06050 17.59407
#
# Velocity S-wave (km/s) = 0.23327 3.86621 2.73880
# Velocity P-wave (km/s) = 5.32858 7.33042 6.40815
#
# Compressibility (1/GPa) = 0.01505362
#
# Stress axis : x y z
#
# Youngs Moduli (GPa) = 105.52698 111.64719 181.84675
#
# Poissons Ratio (x) = -0.00016 0.46703
# Poissons Ratio (y) = -0.00015 0.34049
# Poissons Ratio (z) = 0.27102 0.20905
#
# Static dielectric constant tensor:
#      x y z
#    x 1.964060 0.000000 0.000000 
#    y 0.000000 1.907760 0.000000 
#    z 0.000000 0.000000 1.968760 
# 
# From -- ./inp_files/23397.got.cif
#   From: 2010.05.17/outbox.cif.g08.bks.cpg/sg67_12_cif.got.tgz:23397.got - 2010.06.03 18:28:57.
