data_PCOD9505830
_publ_section_title
;
Structure prediction by ZEFSAII (Michael W. Deem and Ramdas Pophale) SiO2 
 PCOD9505830
Probable space group: C C C A
;
_chemical_formula_sum "Si O2"
_cell_formula_units_Z 100
_cell_length_a 22.764168
_cell_length_b 15.066222
_cell_length_c 15.484527
_cell_angle_alpha 90.000000
_cell_angle_beta 90.000000
_cell_angle_gamma 90.000000
_cell_volume 5310.728360
_symmetry_space_group_name_H-M "C C C A"
_symmetry_group_IT_number 68
_space_group.IT_coordinate_system_code '2'
_symmetry_cell_setting 'orthorhombic'
loop_
_space_group_symop_operation_xyz
x,y,z
-x,1/2-y,z
x,1/2-y,1/2-z
-x,y,1/2-z
-x,-y,-z
x,1/2+y,-z
-x,1/2+y,1/2+z
x,-y,1/2+z
1/2+x,1/2+y,z
1/2-x,-y,z
1/2+x,-y,1/2-z
1/2-x,1/2+y,1/2-z
1/2-x,1/2-y,-z
1/2+x,y,-z
1/2-x,y,1/2+z
1/2+x,1/2-y,1/2+z
loop_
_atom_site_type_symbol
_atom_site_label
_atom_site_fract_x
_atom_site_fract_y
_atom_site_fract_z
Si Si1 0.111098 0.357831 0.300869
Si Si2 0.875508 0.051329 0.802067
Si Si3 0.000000 0.750000 0.099122
Si Si4 0.669173 0.316633 0.867354
Si Si5 0.873433 0.792524 0.443345
Si Si6 0.500000 0.607077 0.750000
Si Si7 0.000000 0.750000 0.750000
Si Si8 0.197634 0.169707 0.819734
O O1 0.127489 0.452678 0.339608
O O2 0.126630 0.367834 0.198930
O O3 0.155590 0.285414 0.340289
O O4 0.045756 0.313874 0.302846
O O5 0.871711 0.126441 0.875550
O O6 0.830779 0.084916 0.727977
O O7 0.940869 0.053777 0.762796
O O8 0.941392 0.734314 0.045461
O O9 0.991583 0.831283 0.165867
O O10 0.735658 0.343467 0.848297
O O11 0.654097 0.322813 0.967198
O O12 0.840181 0.709364 0.399050
O O13 0.196873 0.250000 0.750000
#
# Coordination Sequence:
#
# PCOD9505830 Si02
#       8
#    16  16   8  16  16   8   4  16
#     4  10  21  39  60  81 115 163 203 240 286 366
#     4  10  20  34  62  90 118 147 203 248 294 349
#     4   9  16  31  54  86 116 148 182 243 299 362
#     4  10  21  39  57  76 119 162 199 232 297 359
#     4  10  20  34  59  89 117 152 195 246 306 352
#     4   9  15  32  55  85 118 146 182 234 308 357
#     4   8  18  38  66  82 110 172 206 224 294 370
#     4  10  18  37  59  81 114 161 192 240 304 354
#
# _framework density 18.829808
#
# number of rings (size 3 to 8) (size 9 to 14) (size 15 to 20)
#    0.000    2.400    3.200    0.960    0.000    3.200 
#    2.880    0.000    3.520    7.680    0.000    0.000 
#    0.000    0.000    0.000    0.000    0.000    0.000 
#
# Total GULP energy -278549.072934 kJ/mol
# GULP energy per Si atom -5570.981459 kJ/mol
# Density = 1.878695 g / cm^3
# Si number density = 18.829808 Si / 1000 Ang^3
#
#
#
# Elastic Constant Matrix: (Units=GPa)
#
#
# Indices 1 2 3 4 5 6 
#
# 1 130.1860 31.4727 43.0503 0.0000 0.0000 0.0000
# 2 31.4727 71.2184 -9.5031 0.0000 0.0000 0.0000
# 3 43.0503 -9.5031 65.6909 0.0000 0.0000 0.0000
# 4 0.0000 0.0000 0.0000 6.7282 0.0000 0.0000
# 5 0.0000 0.0000 0.0000 0.0000 17.5493 0.0000
# 6 0.0000 0.0000 0.0000 0.0000 0.0000 7.3890
#
#
#
# Elastic Compliance Matrix: (Units=1/GPa)
#
#
# Indices 1 2 3 4 5 6 
#
# 1 0.012251 -0.006613 -0.008986 0.000000 0.000000 0.000000
# 2 -0.006613 0.017887 0.006922 0.000000 0.000000 0.000000
# 3 -0.008986 0.006922 0.022113 0.000000 0.000000 0.000000
# 4 0.000000 0.000000 0.000000 0.148627 0.000000 0.000000
# 5 0.000000 0.000000 0.000000 0.000000 0.056982 0.000000
# 6 0.000000 0.000000 0.000000 0.000000 0.000000 0.135337
#
#
# Mechanical properties :
#
#
# Convention : Reuss Voigt Hill
#
# Bulk Modulus (GPa) = 28.65561 44.12614 36.39088
# Shear Modulus (GPa) = 11.84314 19.80499 15.82407
#
# Velocity S-wave (km/s) = 2.51062 3.24665 2.90206
# Velocity P-wave (km/s) = 4.86370 6.12694 5.53150
#
# Compressibility (1/GPa) = 0.03489718
#
# Stress axis : x y z
#
# Youngs Moduli (GPa) = 81.62287 55.90537 45.22264
#
# Poissons Ratio (x) = 0.36971 0.40635
# Poissons Ratio (y) = 0.53978 -0.31301
# Poissons Ratio (z) = 0.73343 -0.38695
#
# Static dielectric constant tensor:
#      x y z
#    x 1.661770 0.000000 0.000000 
#    y 0.000000 1.685150 0.000000 
#    z 0.000000 0.000000 1.652250 
# 
# From -- ./inp_files/26042.got.cif
#   From: 2010.05.17/outbox.cif.g08.bks.cpg/sg68_14_cif.got.tgz:26042.got - 2010.06.03 18:57:09.
