data_PCOD9505572
_publ_section_title
;
Structure prediction by ZEFSAII (Michael W. Deem and Ramdas Pophale) SiO2 
 PCOD9505572
Probable space group: C C C A
;
_chemical_formula_sum "Si O2"
_cell_formula_units_Z 96
_cell_length_a 28.184800
_cell_length_b 10.288341
_cell_length_c 14.529559
_cell_angle_alpha 90.000000
_cell_angle_beta 90.000000
_cell_angle_gamma 90.000000
_cell_volume 4213.206451
_symmetry_space_group_name_H-M "C C C A"
_symmetry_group_IT_number 68
_space_group.IT_coordinate_system_code '2'
_symmetry_cell_setting 'orthorhombic'
loop_
_space_group_symop_operation_xyz
x,y,z
-x,1/2-y,z
x,1/2-y,1/2-z
-x,y,1/2-z
-x,-y,-z
x,1/2+y,-z
-x,1/2+y,1/2+z
x,-y,1/2+z
1/2+x,1/2+y,z
1/2-x,-y,z
1/2+x,-y,1/2-z
1/2-x,1/2+y,1/2-z
1/2-x,1/2-y,-z
1/2+x,y,-z
1/2-x,y,1/2+z
1/2+x,1/2-y,1/2+z
loop_
_atom_site_type_symbol
_atom_site_label
_atom_site_fract_x
_atom_site_fract_y
_atom_site_fract_z
Si Si1 0.007343 0.102075 0.419752
Si Si2 0.611266 0.487281 0.866661
Si Si3 0.737991 0.150334 0.336377
Si Si4 0.133293 0.225421 0.638987
Si Si5 0.164692 0.756928 0.636889
Si Si6 0.910114 0.030261 0.346450
O O1 0.964604 0.073073 0.348223
O O2 0.000000 0.250000 0.449437
O O3 0.000000 0.000000 0.500000
O O4 0.060145 0.073250 0.387140
O O5 0.620775 0.633069 0.900341
O O6 0.651126 0.385693 0.897049
O O7 0.610366 0.488116 0.755683
O O8 0.736382 0.250000 0.250000
O O9 0.686126 0.170618 0.379588
O O10 0.783829 0.195268 0.393605
O O11 0.750000 0.000000 0.309959
O O12 0.129972 0.250000 0.750000
O O13 0.097301 0.111699 0.609334
O O14 0.165226 0.750000 0.750000
O O15 0.123319 0.858252 0.612054
#
# Coordination Sequence:
#
# PCOD9505572 Si02
#       6
#    16  16  16  16  16  16
#     4  12  27  42  59  83 112 147 190 237 293 348
#     4  10  21  37  59  86 112 150 193 237 277 335
#     4  10  18  27  45  79 122 155 183 226 281 335
#     4   9  19  31  51  84 121 149 184 229 284 330
#     4   9  17  29  52  80 114 147 187 227 276 329
#     4  10  19  37  60  84 112 151 191 232 279 332
#
# _framework density 22.785495999999998
#
# number of rings (size 3 to 8) (size 9 to 14) (size 15 to 20)
#    0.000    2.000    3.333    0.500    9.333    0.667 
#    0.000    2.500    0.000    0.000    0.000    7.000 
#    0.000    0.000    0.000    0.000    0.000    0.000 
#
# Total GULP energy -267972.283697 kJ/mol
# GULP energy per Si atom -5582.755910 kJ/mol
# Density = 2.273363 g / cm^3
# Si number density = 22.785496 Si / 1000 Ang^3
#
#
#
# Elastic Constant Matrix: (Units=GPa)
#
#
# Indices 1 2 3 4 5 6 
#
# 1 110.1089 54.9710 -9.8346 0.0000 0.0000 0.0000
# 2 54.9710 220.3922 10.5335 0.0000 0.0000 0.0000
# 3 -9.8346 10.5335 44.0330 0.0000 0.0000 0.0000
# 4 0.0000 0.0000 0.0000 394.6012 0.0000 0.0000
# 5 0.0000 0.0000 0.0000 0.0000 -16.4551 0.0000
# 6 0.0000 0.0000 0.0000 0.0000 0.0000 42.8878
#
#
#
# Elastic Compliance Matrix: (Units=1/GPa)
#
#
# Indices 1 2 3 4 5 6 
#
# 1 0.010772 -0.002834 0.003084 0.000000 0.000000 0.000000
# 2 -0.002834 0.005336 -0.001909 0.000000 0.000000 0.000000
# 3 0.003084 -0.001909 0.023856 0.000000 0.000000 0.000000
# 4 0.000000 0.000000 0.000000 0.002534 0.000000 0.000000
# 5 0.000000 0.000000 0.000000 0.000000 -0.060771 0.000000
# 6 0.000000 0.000000 0.000000 0.000000 0.000000 0.023317
#
#
# Mechanical properties :
#
#
# Convention : Reuss Voigt Hill
#
# Bulk Modulus (GPa) = 27.28934 53.98598 40.63766
# Shear Modulus (GPa) = 242.98574 105.46439 174.22506
#
# Velocity S-wave (km/s) = 10.33789 6.81074 8.75381
# Velocity P-wave (km/s) = 12.42975 9.25164 10.95654
#
# Compressibility (1/GPa) = 0.03664434
#
# Stress axis : x y z
#
# Youngs Moduli (GPa) = 92.83022 187.42178 41.91851
#
# Poissons Ratio (x) = 0.53120 -0.12928
# Poissons Ratio (y) = 0.26311 0.08004
# Poissons Ratio (z) = -0.28629 0.35786
#
# Static dielectric constant tensor:
#      x y z
#    x 1.604610 0.000000 0.000000 
#    y 0.000000 1.311610 0.000000 
#    z 0.000000 0.000000 2.129760 
# 
# From -- ./inp_files/47192.got.cif
#   From: 2010.05.17/outbox.cif.g08.bks.cpg/sg68_24_cif.got.tgz:47192.got - 2010.06.03 18:57:09.
