data_PCOD9505796
_publ_section_title
;
Structure prediction by ZEFSAII (Michael W. Deem and Ramdas Pophale) SiO2 
 PCOD9505796
Probable space group: C C C A
;
_chemical_formula_sum "Si O2"
_cell_formula_units_Z 96
_cell_length_a 11.189120
_cell_length_b 17.023526
_cell_length_c 26.005505
_cell_angle_alpha 90.000000
_cell_angle_beta 90.000000
_cell_angle_gamma 90.000000
_cell_volume 4953.483739
_symmetry_space_group_name_H-M "C C C A"
_symmetry_group_IT_number 68
_space_group.IT_coordinate_system_code '2'
_symmetry_cell_setting 'orthorhombic'
loop_
_space_group_symop_operation_xyz
x,y,z
-x,1/2-y,z
x,1/2-y,1/2-z
-x,y,1/2-z
-x,-y,-z
x,1/2+y,-z
-x,1/2+y,1/2+z
x,-y,1/2+z
1/2+x,1/2+y,z
1/2-x,-y,z
1/2+x,-y,1/2-z
1/2-x,1/2+y,1/2-z
1/2-x,1/2-y,-z
1/2+x,y,-z
1/2-x,y,1/2+z
1/2+x,1/2-y,1/2+z
loop_
_atom_site_type_symbol
_atom_site_label
_atom_site_fract_x
_atom_site_fract_y
_atom_site_fract_z
Si Si1 0.388518 0.979648 0.785695
Si Si2 0.734682 0.383728 0.957210
Si Si3 0.856062 0.753991 0.406842
Si Si4 0.127303 0.205294 0.796720
Si Si5 0.325365 0.430464 0.426985
Si Si6 0.078047 0.996133 0.906543
O O1 0.500000 0.007425 0.750000
O O2 0.391435 0.885108 0.784857
O O3 0.412414 0.005572 0.844793
O O4 0.250000 0.000000 0.771639
O O5 0.781541 0.295619 0.948582
O O6 0.829330 0.439078 0.927938
O O7 0.611111 0.411491 0.930530
O O8 0.723516 0.410134 0.016177
O O9 0.820290 0.713407 0.353216
O O10 0.828292 0.845833 0.400770
O O11 0.000000 0.750000 0.417017
O O12 0.191720 0.250000 0.750000
O O13 0.000000 0.250000 0.801755
O O14 0.250000 0.500000 0.401613
O O15 0.455098 0.469052 0.427203
#
# Coordination Sequence:
#
# PCOD9505796 Si02
#       6
#    16  16  16  16  16  16
#     4  12  23  41  69 103 131 168 221 279 333 395
#     4  11  21  40  66  86 124 180 216 259 323 399
#     4  11  21  39  61  90 127 169 227 271 315 395
#     4  10  18  35  63  91 118 172 223 272 309 393
#     4  12  25  37  62  98 132 165 218 282 325 377
#     4  11  21  42  65  89 131 175 214 261 334 397
#
# _framework density 19.380299999999998
#
# number of rings (size 3 to 8) (size 9 to 14) (size 15 to 20)
#    0.000    0.833    8.333    2.000    0.000    0.667 
#    0.000    0.833    0.000    0.500    0.000    0.000 
#    0.000    0.000    0.000    0.000    0.000    0.000 
#
# Total GULP energy -267489.783759 kJ/mol
# GULP energy per Si atom -5572.703828 kJ/mol
# Density = 1.933619 g / cm^3
# Si number density = 19.380300 Si / 1000 Ang^3
#
#
#
# Elastic Constant Matrix: (Units=GPa)
#
#
# Indices 1 2 3 4 5 6 
#
# 1 78.2929 36.8470 17.0885 0.0000 0.0000 0.0000
# 2 36.8470 110.0756 -14.8552 0.0000 0.0000 0.0000
# 3 17.0885 -14.8552 60.4575 0.0000 0.0000 0.0000
# 4 0.0000 0.0000 0.0000 -233.5943 0.0000 0.0000
# 5 0.0000 0.0000 0.0000 0.0000 27.0785 0.0000
# 6 0.0000 0.0000 0.0000 0.0000 0.0000 26.0433
#
#
#
# Elastic Compliance Matrix: (Units=1/GPa)
#
#
# Indices 1 2 3 4 5 6 
#
# 1 0.017351 -0.006692 -0.006549 0.000000 0.000000 0.000000
# 2 -0.006692 0.011977 0.004834 0.000000 0.000000 0.000000
# 3 -0.006549 0.004834 0.019579 0.000000 0.000000 0.000000
# 4 0.000000 0.000000 0.000000 -0.004281 0.000000 0.000000
# 5 0.000000 0.000000 0.000000 0.000000 0.036930 0.000000
# 6 0.000000 0.000000 0.000000 0.000000 0.000000 0.038398
#
#
# Mechanical properties :
#
#
# Convention : Reuss Voigt Hill
#
# Bulk Modulus (GPa) = 31.15703 36.33183 33.74443
# Shear Modulus (GPa) = 33.90628 -22.11144 5.89742
#
# Velocity S-wave (km/s) = 4.18727 -3.38142 1.74631
# Velocity P-wave (km/s) = 6.28404 1.88206 4.63850
#
# Compressibility (1/GPa) = 0.03209549
#
# Stress axis : x y z
#
# Youngs Moduli (GPa) = 57.63238 83.49188 51.07394
#
# Poissons Ratio (x) = 0.55873 0.33447
# Poissons Ratio (y) = 0.38568 -0.24692
# Poissons Ratio (z) = 0.37742 -0.40364
#
# Static dielectric constant tensor:
#      x y z
#    x 1.711940 0.000000 0.000000 
#    y 0.000000 1.702380 0.000000 
#    z 0.000000 0.000000 1.748760 
# 
# From -- ./inp_files/50247.got.cif
#   From: 2010.05.17/outbox.cif.g08.bks.cpg/sg68_26_cif.got.tgz:50247.got - 2010.06.03 18:57:09.
