data_PCOD9505368
_publ_section_title
;
Structure prediction by ZEFSAII (Michael W. Deem and Ramdas Pophale) SiO2 
 PCOD9505368
Probable space group: C C C A
;
_chemical_formula_sum "Si O2"
_cell_formula_units_Z 80
_cell_length_a 25.334204
_cell_length_b 25.436013
_cell_length_c 5.359860
_cell_angle_alpha 90.000000
_cell_angle_beta 90.000000
_cell_angle_gamma 90.000000
_cell_volume 3453.899907
_symmetry_space_group_name_H-M "C C C A"
_symmetry_group_IT_number 68
_space_group.IT_coordinate_system_code '2'
_symmetry_cell_setting 'orthorhombic'
loop_
_space_group_symop_operation_xyz
x,y,z
-x,1/2-y,z
x,1/2-y,1/2-z
-x,y,1/2-z
-x,-y,-z
x,1/2+y,-z
-x,1/2+y,1/2+z
x,-y,1/2+z
1/2+x,1/2+y,z
1/2-x,-y,z
1/2+x,-y,1/2-z
1/2-x,1/2+y,1/2-z
1/2-x,1/2-y,-z
1/2+x,y,-z
1/2-x,y,1/2+z
1/2+x,1/2-y,1/2+z
loop_
_atom_site_type_symbol
_atom_site_label
_atom_site_fract_x
_atom_site_fract_y
_atom_site_fract_z
Si Si1 0.967909 0.137978 0.003772
Si Si2 0.699962 0.801016 0.359839
Si Si3 0.770020 0.592516 0.141320
Si Si4 0.439458 0.021143 0.965567
Si Si5 0.142465 0.670315 0.355810
O O1 0.943299 0.082493 0.092455
O O2 0.919889 0.171662 0.893232
O O3 0.000000 0.125671 0.750000
O O4 0.000000 0.157736 0.250000
O O5 0.730715 0.750000 0.250000
O O6 0.737840 0.851318 0.381196
O O7 0.664469 0.800932 0.608651
O O8 0.662848 0.809633 0.121535
O O9 0.745415 0.565778 0.383065
O O10 0.830344 0.611939 0.165446
O O11 0.414358 0.008600 0.232241
O O12 0.500000 0.000000 0.000000
#
# Coordination Sequence:
#
# PCOD9505368 Si02
#       5
#    16  16  16  16  16
#     4  12  21  33  52  72 107 144 164 207 258 301
#     4  10  19  34  55  76 100 128 165 222 272 303
#     4   8  16  29  47  71 101 122 154 206 261 312
#     4  10  16  30  49  74  97 126 161 210 254 298
#     4  10  21  32  47  78 103 129 172 204 260 318
#
# _framework density 23.162223999999998
#
# number of rings (size 3 to 8) (size 9 to 14) (size 15 to 20)
#    0.000    2.000    4.000    1.800    0.000    7.200 
#    0.000    0.000    0.000    9.000    0.000    0.000 
#    0.000   43.200    0.000    0.000    0.000    0.000 
#
# Total GULP energy -222899.116719 kJ/mol
# GULP energy per Si atom -5572.477918 kJ/mol
# Density = 2.310951 g / cm^3
# Si number density = 23.162224 Si / 1000 Ang^3
#
#
#
# Elastic Constant Matrix: (Units=GPa)
#
#
# Indices 1 2 3 4 5 6 
#
# 1 65.8088 16.0316 37.6084 0.0000 0.0000 0.0000
# 2 16.0316 32.0909 11.6906 0.0000 0.0000 0.0000
# 3 37.6084 11.6906 231.9888 0.0000 0.0000 0.0000
# 4 0.0000 0.0000 0.0000 9.9784 0.0000 0.0000
# 5 0.0000 0.0000 0.0000 0.0000 23.3177 0.0000
# 6 0.0000 0.0000 0.0000 0.0000 0.0000 91.7331
#
#
#
# Elastic Compliance Matrix: (Units=1/GPa)
#
#
# Indices 1 2 3 4 5 6 
#
# 1 0.018738 -0.008409 -0.002614 0.000000 0.000000 0.000000
# 2 -0.008409 0.035518 -0.000427 0.000000 0.000000 0.000000
# 3 -0.002614 -0.000427 0.004756 0.000000 0.000000 0.000000
# 4 0.000000 0.000000 0.000000 0.100217 0.000000 0.000000
# 5 0.000000 0.000000 0.000000 0.000000 0.042886 0.000000
# 6 0.000000 0.000000 0.000000 0.000000 0.000000 0.010901
#
#
# Mechanical properties :
#
#
# Convention : Reuss Voigt Hill
#
# Bulk Modulus (GPa) = 27.69100 51.17219 39.43160
# Shear Modulus (GPa) = 20.16528 42.64302 31.40415
#
# Velocity S-wave (km/s) = 2.95381 4.29541 3.68616
# Velocity P-wave (km/s) = 4.85948 6.83679 5.93111
#
# Compressibility (1/GPa) = 0.03611281
#
# Stress axis : x y z
#
# Youngs Moduli (GPa) = 53.36825 28.15507 210.26942
#
# Poissons Ratio (x) = 0.23674 0.54962
# Poissons Ratio (y) = 0.44875 0.08972
# Poissons Ratio (z) = 0.13950 0.01201
#
# Static dielectric constant tensor:
#      x y z
#    x 1.923470 0.000000 0.000000 
#    y 0.000000 2.018240 0.000000 
#    z 0.000000 0.000000 2.065000 
# 
# From -- ./inp_files/2010.got.cif
#   From: 2010.05.17/outbox.cif.g08.bks.cpg/sg68_2_cif.got.tgz:2010.got - 2010.06.03 18:57:09.
