data_PCOD9505286
_publ_section_title
;
Structure prediction by ZEFSAII (Michael W. Deem and Ramdas Pophale) SiO2 
 PCOD9505286
Probable space group: C M M A
;
_chemical_formula_sum "Si O2"
_cell_formula_units_Z 52
_cell_length_a 21.000000
_cell_length_b 27.000000
_cell_length_c 9.000000
_cell_angle_alpha 90.000000
_cell_angle_beta 90.000000
_cell_angle_gamma 90.000000
_cell_volume 5103.000000
_symmetry_space_group_name_H-M "C M M A"
_symmetry_group_IT_number 67
_symmetry_cell_setting 'orthorhombic'
loop_
_space_group_symop_operation_xyz
x,y,z
-x,1/2-y,z
x,-y,-z
-x,1/2+y,-z
-x,-y,-z
x,1/2+y,-z
-x,y,z
x,1/2-y,z
1/2+x,1/2+y,z
1/2-x,-y,z
1/2+x,1/2-y,-z
1/2-x,y,-z
1/2-x,1/2-y,-z
1/2+x,y,-z
1/2-x,1/2+y,z
1/2+x,-y,z
loop_
_atom_site_type_symbol
_atom_site_label
_atom_site_fract_x
_atom_site_fract_y
_atom_site_fract_z
Si Si1 0.361983 0.383339 0.801025
Si Si2 0.250000 0.580078 0.000000
Si Si3 0.192614 0.464963 0.715798
Si Si4 0.926986 0.690070 0.308773
Si Si5 0.424114 0.805367 0.020207
Si Si6 0.928602 0.983578 0.828680
Si Si7 0.681023 0.133520 0.476618
O O1 0.393766 0.332312 0.842709
O O2 0.412947 0.425735 0.832258
O O3 0.340692 0.386851 0.633905
O O4 0.300532 0.389746 0.904554
O O5 0.289437 0.547748 0.884806
O O6 0.250000 0.500000 0.662362
O O7 0.124931 0.491795 0.725308
O O8 0.189527 0.413781 0.629079
O O9 0.926255 0.750000 0.305852
O O10 0.873472 0.668857 0.414583
O O11 0.000000 0.675433 0.345389
O O12 0.911615 0.671113 0.141567
O O13 0.500000 0.804291 0.033986
O O14 0.399244 0.750000 0.013650
O O15 0.000000 0.994251 0.777085
O O16 0.923258 0.000000 0.000000
O O17 0.750000 0.158154 0.500000
#
# Coordination Sequence:
#
# PCOD9505286 Si02
#       7
#    16   8  16  16  16  16  16
#     4  12  24  40  62  94 130 165 212 266 320 384
#     4  12  21  40  65  86 118 166 217 258 309 378
#     4  12  22  43  64  89 123 174 218 259 318 383
#     4   9  21  44  71  96 128 172 216 263 326 394
#     4   9  20  42  71  98 125 165 216 268 320 379
#     4  11  23  38  61  93 123 159 215 274 317 364
#     4  12  26  41  62  97 135 171 215 264 325 387
#
# _framework density 10.190084000000001
#
# number of rings (size 3 to 8) (size 9 to 14) (size 15 to 20)
#    0.000    1.077    4.615    2.538    0.000    4.923 
#    0.000    2.692    0.000    0.000    0.000    0.000 
#    0.000    0.000    0.000    0.000    0.000    0.000 
#
# Total GULP energy -290292.101314 kJ/mol
# GULP energy per Si atom -5582.540410 kJ/mol
# Density = 1.016689 g / cm^3
# Si number density = 10.190084 Si / 1000 Ang^3
#
#
#
# Elastic Constant Matrix: (Units=GPa)
#
#
# Indices 1 2 3 4 5 6 
#
# 1 105.4400 28.9196 51.9414 0.0000 0.0000 0.0000
# 2 28.9196 37.7571 34.5006 0.0000 0.0000 0.0000
# 3 51.9414 34.5006 80.0718 0.0000 0.0000 0.0000
# 4 0.0000 0.0000 0.0000 -221.9890 0.0000 0.0000
# 5 0.0000 0.0000 0.0000 0.0000 -102.8219 0.0000
# 6 0.0000 0.0000 0.0000 0.0000 0.0000 33.4613
#
#
#
# Elastic Compliance Matrix: (Units=1/GPa)
#
#
# Indices 1 2 3 4 5 6 
#
# 1 0.014311 -0.004088 -0.007522 0.000000 0.000000 0.000000
# 2 -0.004088 0.044852 -0.016673 0.000000 0.000000 0.000000
# 3 -0.007522 -0.016673 0.024552 0.000000 0.000000 0.000000
# 4 0.000000 0.000000 0.000000 -0.004505 0.000000 0.000000
# 5 0.000000 0.000000 0.000000 0.000000 -0.009726 0.000000
# 6 0.000000 0.000000 0.000000 0.000000 0.000000 0.029885
#
#
# Mechanical properties :
#
#
# Convention : Reuss Voigt Hill
#
# Bulk Modulus (GPa) = 36.83506 50.44357 43.63931
# Shear Modulus (GPa) = 30.30582 -51.07611 -10.38515
#
# Velocity S-wave (km/s) = 3.86038 -5.01159 -2.25982
# Velocity P-wave (km/s) = 6.16306 2.94671 3.82754
#
# Compressibility (1/GPa) = 0.02714805
#
# Stress axis : x y z
#
# Youngs Moduli (GPa) = 69.87815 22.29574 40.72985
#
# Poissons Ratio (x) = 0.09115 0.30635
# Poissons Ratio (y) = 0.28567 0.67910
# Poissons Ratio (z) = 0.52560 0.37174
#
# Static dielectric constant tensor:
#      x y z
#    x 1.729110 0.000000 0.000000 
#    y 0.000000 1.726850 0.000000 
#    z 0.000000 0.000000 1.756360 
# 
# From -- ./inp_files/11590.got.cif
#   From: 2010.05.17/outbox.ucp.g08.bks.cvg/sg67_6_cif.got.tgz:11590.got - 2010.06.11 16:47:20.
