data_PCOD9505026
_publ_section_title
;
Structure prediction by ZEFSAII (Michael W. Deem and Ramdas Pophale) SiO2 
 PCOD9505026
Probable space group: C M M A
;
_chemical_formula_sum "Si O2"
_cell_formula_units_Z 48
_cell_length_a 12.934884
_cell_length_b 14.812913
_cell_length_c 12.774942
_cell_angle_alpha 90.000000
_cell_angle_beta 90.000000
_cell_angle_gamma 90.000000
_cell_volume 2447.721190
_symmetry_space_group_name_H-M "C M M A"
_symmetry_group_IT_number 67
_symmetry_cell_setting 'orthorhombic'
loop_
_space_group_symop_operation_xyz
x,y,z
-x,1/2-y,z
x,-y,-z
-x,1/2+y,-z
-x,-y,-z
x,1/2+y,-z
-x,y,z
x,1/2-y,z
1/2+x,1/2+y,z
1/2-x,-y,z
1/2+x,1/2-y,-z
1/2-x,y,-z
1/2-x,1/2-y,-z
1/2+x,y,-z
1/2-x,1/2+y,z
1/2+x,-y,z
loop_
_atom_site_type_symbol
_atom_site_label
_atom_site_fract_x
_atom_site_fract_y
_atom_site_fract_z
Si Si1 0.500000 0.593390 0.060931
Si Si2 0.228438 0.894751 0.622402
Si Si3 0.879889 0.250000 0.724320
Si Si4 0.866040 0.750000 0.026906
Si Si5 0.000000 0.644249 0.708847
O O1 0.500000 0.584748 0.185768
O O2 0.500000 0.500000 0.000000
O O3 0.408066 0.658634 0.024921
O O4 0.250000 0.876851 0.500000
O O5 0.310746 0.834679 0.686274
O O6 0.108316 0.873056 0.648926
O O7 0.250000 0.000000 0.643054
O O8 0.885882 0.250000 0.849779
O O9 0.000000 0.250000 0.685143
O O10 0.750000 0.750000 0.000000
O O11 0.000000 0.750000 0.740329
#
# Coordination Sequence:
#
# PCOD9505026 Si02
#       5
#     8  16   8   8   8
#     4  11  25  44  66 100 133 179 220 269 341 389
#     4  11  28  45  70 104 134 182 227 281 345 401
#     4  12  25  43  70 101 141 175 228 285 341 399
#     4  11  23  45  64  98 136 173 227 276 329 404
#     4  12  24  48  72  95 143 179 233 278 333 420
#
# _framework density 19.610075999999999
#
# number of rings (size 3 to 8) (size 9 to 14) (size 15 to 20)
#    0.000    0.667    5.000    2.500    9.333    2.000 
#    0.000    0.000    0.000    0.000    0.000    0.000 
#    0.000    0.000    0.000    0.000    0.000    0.000 
#
# Total GULP energy -134008.556353 kJ/mol
# GULP energy per Si atom -5583.689848 kJ/mol
# Density = 1.956544 g / cm^3
# Si number density = 19.610076 Si / 1000 Ang^3
#
#
#
# Elastic Constant Matrix: (Units=GPa)
#
#
# Indices 1 2 3 4 5 6 
#
# 1 225.1363 57.7327 65.0215 0.0000 0.0000 0.0000
# 2 57.7327 94.4348 33.2391 0.0000 0.0000 0.0000
# 3 65.0215 33.2391 124.3046 0.0000 0.0000 0.0000
# 4 0.0000 0.0000 0.0000 18.8444 0.0000 0.0000
# 5 0.0000 0.0000 0.0000 0.0000 31.4211 0.0000
# 6 0.0000 0.0000 0.0000 0.0000 0.0000 -7.1667
#
#
#
# Elastic Compliance Matrix: (Units=1/GPa)
#
#
# Indices 1 2 3 4 5 6 
#
# 1 0.005811 -0.002740 -0.002307 0.000000 0.000000 0.000000
# 2 -0.002740 0.012982 -0.002038 0.000000 0.000000 0.000000
# 3 -0.002307 -0.002038 0.009796 0.000000 0.000000 0.000000
# 4 0.000000 0.000000 0.000000 0.053066 0.000000 0.000000
# 5 0.000000 0.000000 0.000000 0.000000 0.031826 0.000000
# 6 0.000000 0.000000 0.000000 0.000000 0.000000 -0.139534
#
#
# Mechanical properties :
#
#
# Convention : Reuss Voigt Hill
#
# Bulk Modulus (GPa) = 69.35350 83.98469 76.66910
# Shear Modulus (GPa) = -706.55429 27.81191 -339.37119
#
# Velocity S-wave (km/s) = -19.00221 3.77005 -13.16948
# Velocity P-wave (km/s) = 21.11876 7.86583 13.85877
#
# Compressibility (1/GPa) = 0.01441888
#
# Stress axis : x y z
#
# Youngs Moduli (GPa) = 172.09660 77.02976 102.07968
#
# Poissons Ratio (x) = 0.21110 0.23546
# Poissons Ratio (y) = 0.47162 0.20803
# Poissons Ratio (z) = 0.39697 0.15698
#
# Static dielectric constant tensor:
#      x y z
#    x 1.684070 0.000000 0.000000 
#    y 0.000000 1.666490 0.000000 
#    z 0.000000 0.000000 1.720690 
# 
# From -- ./inp_files/25510.got.cif
#   From: 2010.05.17/outbox.cif.g08.bks.cpg/sg67_13_cif.got.tgz:25510.got - 2010.06.03 18:28:57.
