data_PCOD9505446
_publ_section_title
;
Structure prediction by ZEFSAII (Michael W. Deem and Ramdas Pophale) SiO2 
 PCOD9505446
Probable space group: C C C A
;
_chemical_formula_sum "Si O2"
_cell_formula_units_Z 52
_cell_length_a 5.216650
_cell_length_b 13.645323
_cell_length_c 28.719781
_cell_angle_alpha 90.000000
_cell_angle_beta 90.000000
_cell_angle_gamma 90.000000
_cell_volume 2044.356559
_symmetry_space_group_name_H-M "C C C A"
_symmetry_group_IT_number 68
_space_group.IT_coordinate_system_code '2'
_symmetry_cell_setting 'orthorhombic'
loop_
_space_group_symop_operation_xyz
x,y,z
-x,1/2-y,z
x,1/2-y,1/2-z
-x,y,1/2-z
-x,-y,-z
x,1/2+y,-z
-x,1/2+y,1/2+z
x,-y,1/2+z
1/2+x,1/2+y,z
1/2-x,-y,z
1/2+x,-y,1/2-z
1/2-x,1/2+y,1/2-z
1/2-x,1/2-y,-z
1/2+x,y,-z
1/2-x,y,1/2+z
1/2+x,1/2-y,1/2+z
loop_
_atom_site_type_symbol
_atom_site_label
_atom_site_fract_x
_atom_site_fract_y
_atom_site_fract_z
Si Si1 0.233445 0.881627 0.825787
Si Si2 0.543981 0.886195 0.482505
Si Si3 0.265781 0.883410 0.619581
Si Si4 0.000000 0.750000 0.250000
O O1 0.445936 0.857822 0.865763
O O2 0.326065 0.821102 0.781495
O O3 0.952090 0.853058 0.843721
O O4 0.250000 0.000000 0.817591
O O5 0.756047 0.847273 0.518220
O O6 0.673156 0.867181 0.432892
O O7 0.500000 0.000000 0.500000
O O8 0.250000 0.000000 0.622912
#
# Coordination Sequence:
#
# PCOD9505446 Si02
#       4
#    16  16  16   4
#     4  10  25  42  70  98 138 179 234 301 349 439
#     4  10  17  25  51  91 138 175 221 279 326 419
#     4  10  19  36  57  98 143 170 226 292 341 402
#     4  12  28  54  76 104 140 198 244 302 392 420
#
# _framework density 25.435873000000001
#
# number of rings (size 3 to 8) (size 9 to 14) (size 15 to 20)
#    0.000    1.846    3.077    1.846    8.615    7.385 
#    0.000    0.000    0.000    0.000    0.000   21.538 
#    0.000    0.000    0.000    0.000    0.000    0.615 
#
# Total GULP energy -145340.901461 kJ/mol
# GULP energy per Si atom -5590.034672 kJ/mol
# Density = 2.537798 g / cm^3
# Si number density = 25.435873 Si / 1000 Ang^3
#
#
#
# Elastic Constant Matrix: (Units=GPa)
#
#
# Indices 1 2 3 4 5 6 
#
# 1 166.7522 -17.6745 36.6820 0.0000 0.0000 0.0000
# 2 -17.6745 139.0117 21.5287 0.0000 0.0000 0.0000
# 3 36.6820 21.5287 142.6865 0.0000 0.0000 0.0000
# 4 0.0000 0.0000 0.0000 18.2409 0.0000 0.0000
# 5 0.0000 0.0000 0.0000 0.0000 29.6845 0.0000
# 6 0.0000 0.0000 0.0000 0.0000 0.0000 -2.9915
#
#
#
# Elastic Compliance Matrix: (Units=1/GPa)
#
#
# Indices 1 2 3 4 5 6 
#
# 1 0.006521 0.001115 -0.001845 0.000000 0.000000 0.000000
# 2 0.001115 0.007556 -0.001427 0.000000 0.000000 0.000000
# 3 -0.001845 -0.001427 0.007698 0.000000 0.000000 0.000000
# 4 0.000000 0.000000 0.000000 0.054822 0.000000 0.000000
# 5 0.000000 0.000000 0.000000 0.000000 0.033688 0.000000
# 6 0.000000 0.000000 0.000000 0.000000 0.000000 -0.334282
#
#
# Mechanical properties :
#
#
# Convention : Reuss Voigt Hill
#
# Bulk Modulus (GPa) = 57.26727 58.83587 58.05157
# Shear Modulus (GPa) = -23.37940 36.18106 6.40083
#
# Velocity S-wave (km/s) = -3.03504 3.77562 1.58806
# Velocity P-wave (km/s) = 3.20645 6.49526 5.12199
#
# Compressibility (1/GPa) = 0.01746198
#
# Stress axis : x y z
#
# Youngs Moduli (GPa) = 153.35423 132.33947 129.90654
#
# Poissons Ratio (x) = -0.14753 0.23962
# Poissons Ratio (y) = -0.17095 0.18534
# Poissons Ratio (z) = 0.28287 0.18881
#
# Static dielectric constant tensor:
#      x y z
#    x 2.179700 0.000000 0.000000 
#    y 0.000000 2.382270 0.000000 
#    z 0.000000 0.000000 2.022660 
# 
# From -- ./inp_files/47925.got.cif
#   From: 2010.05.17/outbox.cif.g08.bks.cpg/sg68_24_cif.got.tgz:47925.got - 2010.06.03 18:57:09.
