data_PCOD9505262
_publ_section_title
;
Structure prediction by ZEFSAII (Michael W. Deem and Ramdas Pophale) SiO2 
 PCOD9505262
Probable space group: C M M A
;
_chemical_formula_sum "Si O2"
_cell_formula_units_Z 40
_cell_length_a 18.000000
_cell_length_b 9.000000
_cell_length_c 27.000000
_cell_angle_alpha 90.000000
_cell_angle_beta 90.000000
_cell_angle_gamma 90.000000
_cell_volume 4374.000000
_symmetry_space_group_name_H-M "C M M A"
_symmetry_group_IT_number 67
_symmetry_cell_setting 'orthorhombic'
loop_
_space_group_symop_operation_xyz
x,y,z
-x,1/2-y,z
x,-y,-z
-x,1/2+y,-z
-x,-y,-z
x,1/2+y,-z
-x,y,z
x,1/2-y,z
1/2+x,1/2+y,z
1/2-x,-y,z
1/2+x,1/2-y,-z
1/2-x,y,-z
1/2-x,1/2-y,-z
1/2+x,y,-z
1/2-x,1/2+y,z
1/2+x,-y,z
loop_
_atom_site_type_symbol
_atom_site_label
_atom_site_fract_x
_atom_site_fract_y
_atom_site_fract_z
Si Si1 0.330821 0.928805 0.643738
Si Si2 0.410413 0.577235 0.448681
Si Si3 0.168603 0.428785 0.842193
Si Si4 0.915574 0.430822 0.743746
Si Si5 0.167383 0.571895 0.048688
O O1 0.327190 0.750000 0.641805
O O2 0.368382 0.973945 0.695797
O O3 0.250000 0.000000 0.640920
O O4 0.378153 0.990107 0.597961
O O5 0.386829 0.500000 0.500000
O O6 0.500000 0.572064 0.446736
O O7 0.387510 0.750000 0.447718
O O8 0.176599 0.250000 0.839636
O O9 0.250000 0.500000 0.838828
O O10 0.120372 0.479221 0.795539
O O11 0.135155 0.461033 0.896769
O O12 0.916616 0.250000 0.744518
O O13 0.000000 0.482722 0.739055
O O14 0.172589 0.750000 0.042702
O O15 0.250000 0.500000 0.050797
O O16 0.130835 0.500000 0.000000
#
# Coordination Sequence:
#
# PCOD9505262 Si02
#       5
#    16  16  16  16  16
#     4  11  22  36  56  81 109 140 175 216 262 309
#     4  10  21  38  60  85 113 144 178 215 255 303
#     4   9  17  29  47  71  97 126 162 204 249 296
#     4   9  18  33  53  75  99 130 169 210 252 304
#     4   9  15  23  38  62  91 122 156 196 242 291
#
# _framework density 9.1449470000000002
#
# number of rings (size 3 to 8) (size 9 to 14) (size 15 to 20)
#    0.000    2.400    0.000    3.600    0.000    3.200 
#    0.000    3.000    0.000    3.600    0.000    0.000 
#    0.000    0.000    0.000    0.000    0.000    5.400 
#
# Total GULP energy -223037.258418 kJ/mol
# GULP energy per Si atom -5575.931460 kJ/mol
# Density = 0.912413 g / cm^3
# Si number density = 9.144947 Si / 1000 Ang^3
#
#
#
# Elastic Constant Matrix: (Units=GPa)
#
#
# Indices 1 2 3 4 5 6 
#
# 1 31.3919 20.2875 36.4315 0.0000 0.0000 0.0000
# 2 20.2875 69.6021 53.0910 0.0000 0.0000 0.0000
# 3 36.4315 53.0910 183.3438 0.0000 0.0000 0.0000
# 4 0.0000 0.0000 0.0000 -209.2404 0.0000 0.0000
# 5 0.0000 0.0000 0.0000 0.0000 29.6558 0.0000
# 6 0.0000 0.0000 0.0000 0.0000 0.0000 12.0458
#
#
#
# Elastic Compliance Matrix: (Units=1/GPa)
#
#
# Indices 1 2 3 4 5 6 
#
# 1 0.044635 -0.008015 -0.006548 0.000000 0.000000 0.000000
# 2 -0.008015 0.019880 -0.004164 0.000000 0.000000 0.000000
# 3 -0.006548 -0.004164 0.007961 0.000000 0.000000 0.000000
# 4 0.000000 0.000000 0.000000 -0.004779 0.000000 0.000000
# 5 0.000000 0.000000 0.000000 0.000000 0.033720 0.000000
# 6 0.000000 0.000000 0.000000 0.000000 0.000000 0.083016
#
#
# Mechanical properties :
#
#
# Convention : Reuss Voigt Hill
#
# Bulk Modulus (GPa) = 28.55432 55.99532 42.27482
# Shear Modulus (GPa) = 21.40765 -21.87257 -0.23246
#
# Velocity S-wave (km/s) = 3.42491 -3.46191 -0.35689
# Velocity P-wave (km/s) = 5.59339 3.83434 4.79522
#
# Compressibility (1/GPa) = 0.03502097
#
# Stress axis : x y z
#
# Youngs Moduli (GPa) = 22.40406 50.30230 125.60984
#
# Poissons Ratio (x) = 0.40318 0.82252
# Poissons Ratio (y) = 0.17957 0.52303
# Poissons Ratio (z) = 0.14671 0.20946
#
# Static dielectric constant tensor:
#      x y z
#    x 1.606610 0.000000 0.000000 
#    y 0.000000 1.613380 0.000000 
#    z 0.000000 0.000000 1.657410 
# 
# From -- ./inp_files/43275.got.cif
#   From: 2010.05.17/outbox.ucp.g08.bks.cvg/sg67_22_cif.got.tgz:43275.got - 2010.06.11 16:47:20.
