data_PCOD9505575
_publ_section_title
;
Structure prediction by ZEFSAII (Michael W. Deem and Ramdas Pophale) SiO2 
 PCOD9505575
Probable space group: C C C A
;
_chemical_formula_sum "Si O2"
_cell_formula_units_Z 68
_cell_length_a 5.521753
_cell_length_b 14.059856
_cell_length_c 35.437586
_cell_angle_alpha 90.000000
_cell_angle_beta 90.000000
_cell_angle_gamma 90.000000
_cell_volume 2751.198834
_symmetry_space_group_name_H-M "C C C A"
_symmetry_group_IT_number 68
_space_group.IT_coordinate_system_code '2'
_symmetry_cell_setting 'orthorhombic'
loop_
_space_group_symop_operation_xyz
x,y,z
-x,1/2-y,z
x,1/2-y,1/2-z
-x,y,1/2-z
-x,-y,-z
x,1/2+y,-z
-x,1/2+y,1/2+z
x,-y,1/2+z
1/2+x,1/2+y,z
1/2-x,-y,z
1/2+x,-y,1/2-z
1/2-x,1/2+y,1/2-z
1/2-x,1/2-y,-z
1/2+x,y,-z
1/2-x,y,1/2+z
1/2+x,1/2-y,1/2+z
loop_
_atom_site_type_symbol
_atom_site_label
_atom_site_fract_x
_atom_site_fract_y
_atom_site_fract_z
Si Si1 0.529100 0.115036 0.100871
Si Si2 0.024555 0.099496 0.129307
Si Si3 0.111561 0.643552 0.788640
Si Si4 0.779808 0.114085 0.517186
Si Si5 0.000000 0.750000 0.250000
O O1 0.260363 0.149826 0.111403
O O2 0.613705 0.134522 0.058484
O O3 0.759098 0.145061 0.125887
O O4 0.501173 0.001259 0.107935
O O5 0.074914 0.086420 0.173542
O O6 0.379136 0.674678 0.778379
O O7 0.000000 0.750000 0.793661
O O8 0.000000 0.602217 0.750000
O O9 0.502170 0.146340 0.509936
O O10 0.750000 0.000000 0.513296
#
# Coordination Sequence:
#
# PCOD9505575 Si02
#       5
#    16  16  16  16   4
#     4  10  20  34  47  79 114 138 163 200 260 310
#     4  10  20  33  51  73 108 139 161 209 260 306
#     4   9  20  36  57  76  95 131 178 223 260 296
#     4  10  18  27  48  70 104 141 170 204 236 295
#     4   8  18  36  56  78  96 120 186 228 268 288
#
# _framework density 24.716498999999999
#
# number of rings (size 3 to 8) (size 9 to 14) (size 15 to 20)
#    0.000    2.588    2.353    1.412   13.176    0.000 
#    0.000    4.706    0.000    0.000    0.000    0.000 
#    0.000   32.000    0.000    0.000    0.000    0.000 
#
# Total GULP energy -189539.718952 kJ/mol
# GULP energy per Si atom -5574.697616 kJ/mol
# Density = 2.466024 g / cm^3
# Si number density = 24.716499 Si / 1000 Ang^3
#
#
#
# Elastic Constant Matrix: (Units=GPa)
#
#
# Indices 1 2 3 4 5 6 
#
# 1 198.4142 -7.8298 55.8063 0.0000 0.0000 0.0000
# 2 -7.8298 76.7495 -3.9503 0.0000 0.0000 0.0000
# 3 55.8063 -3.9503 159.1121 0.0000 0.0000 0.0000
# 4 0.0000 0.0000 0.0000 -19.1189 0.0000 0.0000
# 5 0.0000 0.0000 0.0000 0.0000 98.1034 0.0000
# 6 0.0000 0.0000 0.0000 0.0000 0.0000 -726.6047
#
#
#
# Elastic Compliance Matrix: (Units=1/GPa)
#
#
# Indices 1 2 3 4 5 6 
#
# 1 0.005609 0.000472 -0.001955 0.000000 0.000000 0.000000
# 2 0.000472 0.013086 0.000160 0.000000 0.000000 0.000000
# 3 -0.001955 0.000160 0.006975 0.000000 0.000000 0.000000
# 4 0.000000 0.000000 0.000000 -0.052304 0.000000 0.000000
# 5 0.000000 0.000000 0.000000 0.000000 0.010193 0.000000
# 6 0.000000 0.000000 0.000000 0.000000 0.000000 -0.001376
#
#
# Mechanical properties :
#
#
# Convention : Reuss Voigt Hill
#
# Bulk Modulus (GPa) = 43.44018 58.03645 50.73832
# Shear Modulus (GPa) = -667.01123 -103.50740 -385.25931
#
# Velocity S-wave (km/s) = -16.44538 -6.47833 -12.49839
# Velocity P-wave (km/s) = 18.51992 5.69443 13.70062
#
# Compressibility (1/GPa) = 0.02302016
#
# Stress axis : x y z
#
# Youngs Moduli (GPa) = 178.29919 76.41925 143.37593
#
# Poissons Ratio (x) = -0.03603 0.28036
# Poissons Ratio (y) = -0.08407 -0.02287
# Poissons Ratio (z) = 0.34865 -0.01219
#
# Static dielectric constant tensor:
#      x y z
#    x 1.957870 0.000000 0.000000 
#    y 0.000000 1.879360 0.000000 
#    z 0.000000 0.000000 1.921180 
# 
# From -- ./inp_files/53041.got.cif
#   From: 2010.05.17/outbox.cif.g08.bks.cpg/sg68_27_cif.got.tgz:53041.got - 2010.06.03 18:57:09.
