data_PCOD9505523
_publ_section_title
;
Structure prediction by ZEFSAII (Michael W. Deem and Ramdas Pophale) SiO2 
 PCOD9505523
Probable space group: C C C A
;
_chemical_formula_sum "Si O2"
_cell_formula_units_Z 80
_cell_length_a 16.351479
_cell_length_b 16.294429
_cell_length_c 14.811339
_cell_angle_alpha 90.000000
_cell_angle_beta 90.000000
_cell_angle_gamma 90.000000
_cell_volume 3946.303742
_symmetry_space_group_name_H-M "C C C A"
_symmetry_group_IT_number 68
_space_group.IT_coordinate_system_code '2'
_symmetry_cell_setting 'orthorhombic'
loop_
_space_group_symop_operation_xyz
x,y,z
-x,1/2-y,z
x,1/2-y,1/2-z
-x,y,1/2-z
-x,-y,-z
x,1/2+y,-z
-x,1/2+y,1/2+z
x,-y,1/2+z
1/2+x,1/2+y,z
1/2-x,-y,z
1/2+x,-y,1/2-z
1/2-x,1/2+y,1/2-z
1/2-x,1/2-y,-z
1/2+x,y,-z
1/2-x,y,1/2+z
1/2+x,1/2-y,1/2+z
loop_
_atom_site_type_symbol
_atom_site_label
_atom_site_fract_x
_atom_site_fract_y
_atom_site_fract_z
Si Si1 0.500000 0.250000 0.896016
Si Si2 0.143569 0.642147 0.914325
Si Si3 0.068273 0.465062 0.933153
Si Si4 0.877864 0.368793 0.290261
Si Si5 0.500000 0.983691 0.750000
Si Si6 0.283663 0.594013 0.038599
O O1 0.566485 0.195350 0.947843
O O2 0.552689 0.311797 0.834636
O O3 0.120328 0.546448 0.911123
O O4 0.152134 0.661801 0.807691
O O5 0.219883 0.646882 0.980694
O O6 0.028961 0.436127 0.839189
O O7 0.129994 0.406249 0.985318
O O8 0.000000 0.500000 0.000000
O O9 0.804442 0.376081 0.361215
O O10 0.925439 0.455986 0.279932
O O11 0.250000 0.500000 0.044264
#
# Coordination Sequence:
#
# PCOD9505523 Si02
#       6
#     8  16  16  16   8  16
#     4  12  19  36  60  78 103 138 195 230 254 326
#     4  10  21  33  52  82 106 141 179 226 273 311
#     4  10  17  33  51  76 110 140 180 218 263 332
#     4  11  19  34  57  80 103 142 181 224 268 318
#     4  10  18  29  56  80  96 145 186 212 272 316
#     4  10  22  35  51  81 117 138 171 229 276 325
#
# _framework density 20.272134999999999
#
# number of rings (size 3 to 8) (size 9 to 14) (size 15 to 20)
#    0.000    1.600    6.000    1.200    0.000    4.800 
#    0.000    0.000    0.000    0.000    0.000    1.400 
#    0.000    0.000    0.000    0.000    0.000    0.000 
#
# Total GULP energy -223165.105959 kJ/mol
# GULP energy per Si atom -5579.127649 kJ/mol
# Density = 2.022599 g / cm^3
# Si number density = 20.272135 Si / 1000 Ang^3
#
#
#
# Elastic Constant Matrix: (Units=GPa)
#
#
# Indices 1 2 3 4 5 6 
#
# 1 118.5770 11.6066 69.0881 0.0000 0.0000 0.0000
# 2 11.6066 25.8685 9.9150 0.0000 0.0000 0.0000
# 3 69.0881 9.9150 118.6125 0.0000 0.0000 0.0000
# 4 0.0000 0.0000 0.0000 12.9206 0.0000 0.0000
# 5 0.0000 0.0000 0.0000 0.0000 41.6404 0.0000
# 6 0.0000 0.0000 0.0000 0.0000 0.0000 24.5732
#
#
#
# Elastic Compliance Matrix: (Units=1/GPa)
#
#
# Indices 1 2 3 4 5 6 
#
# 1 0.012991 -0.003025 -0.007314 0.000000 0.000000 0.000000
# 2 -0.003025 0.040641 -0.001635 0.000000 0.000000 0.000000
# 3 -0.007314 -0.001635 0.012828 0.000000 0.000000 0.000000
# 4 0.000000 0.000000 0.000000 0.077396 0.000000 0.000000
# 5 0.000000 0.000000 0.000000 0.000000 0.024015 0.000000
# 6 0.000000 0.000000 0.000000 0.000000 0.000000 0.040695
#
#
# Mechanical properties :
#
#
# Convention : Reuss Voigt Hill
#
# Bulk Modulus (GPa) = 23.52336 49.36417 36.44377
# Shear Modulus (GPa) = 20.26885 27.32340 23.79613
#
# Velocity S-wave (km/s) = 3.16545 3.67526 3.42984
# Velocity P-wave (km/s) = 4.99891 6.51258 5.80529
#
# Compressibility (1/GPa) = 0.04251093
#
# Stress axis : x y z
#
# Youngs Moduli (GPa) = 76.97722 24.60562 77.95696
#
# Poissons Ratio (x) = 0.07444 0.57017
# Poissons Ratio (y) = 0.23289 0.12746
# Poissons Ratio (z) = 0.56300 0.04023
#
# Static dielectric constant tensor:
#      x y z
#    x 1.721760 0.000000 0.000000 
#    y 0.000000 1.798550 0.000000 
#    z 0.000000 0.000000 1.750830 
# 
# From -- ./inp_files/23528.got.cif
#   From: 2010.05.17/outbox.cif.g08.bks.cpg/sg68_12_cif.got.tgz:23528.got - 2010.06.03 18:57:09.
