data_PCOD9505275
_publ_section_title
;
Structure prediction by ZEFSAII (Michael W. Deem and Ramdas Pophale) SiO2 
 PCOD9505275
Probable space group: C M M A
;
_chemical_formula_sum "Si O2"
_cell_formula_units_Z 30
_cell_length_a 12.000000
_cell_length_b 21.000000
_cell_length_c 12.000000
_cell_angle_alpha 90.000000
_cell_angle_beta 90.000000
_cell_angle_gamma 90.000000
_cell_volume 3024.000000
_symmetry_space_group_name_H-M "C M M A"
_symmetry_group_IT_number 67
_symmetry_cell_setting 'orthorhombic'
loop_
_space_group_symop_operation_xyz
x,y,z
-x,1/2-y,z
x,-y,-z
-x,1/2+y,-z
-x,-y,-z
x,1/2+y,-z
-x,y,z
x,1/2-y,z
1/2+x,1/2+y,z
1/2-x,-y,z
1/2+x,1/2-y,-z
1/2-x,y,-z
1/2-x,1/2-y,-z
1/2+x,y,-z
1/2-x,1/2+y,z
1/2+x,-y,z
loop_
_atom_site_type_symbol
_atom_site_label
_atom_site_fract_x
_atom_site_fract_y
_atom_site_fract_z
Si Si1 0.500000 0.889486 0.228648
Si Si2 0.000000 0.250000 0.266317
Si Si3 0.500000 0.424213 0.508041
Si Si4 0.231830 0.750000 0.629046
Si Si5 0.876527 0.133667 0.688612
Si Si6 0.764710 0.425966 0.122916
O O1 0.500000 0.814827 0.200330
O O2 0.500000 0.901062 0.363817
O O3 0.386260 0.915220 0.176200
O O4 0.895624 0.250000 0.345626
O O5 0.500000 0.500000 0.500000
O O6 0.396120 0.399296 0.432381
O O7 0.250000 0.750000 0.500000
O O8 0.288534 0.688759 0.679084
O O9 0.830311 0.091743 0.788068
O O10 0.000000 0.158286 0.715851
O O11 0.750000 0.500000 0.108525
O O12 0.750000 0.395034 0.000000
#
# Coordination Sequence:
#
# PCOD9505275 Si02
#       6
#     8   4   8   8  16  16
#     4  12  24  44  68 100 136 178 232 277 352 412
#     4  12  24  42  64  96 138 178 224 278 342 402
#     4  10  22  39  68 101 138 174 215 282 344 410
#     4  12  23  42  65  98 137 184 227 276 343 414
#     4  10  24  41  66  97 137 173 225 273 344 397
#     4  11  26  44  70  97 133 182 231 286 336 408
#
# _framework density 9.9206350000000008
#
# number of rings (size 3 to 8) (size 9 to 14) (size 15 to 20)
#    0.800    0.267    2.667    3.600    5.600    1.067 
#    0.000    5.333    0.000    0.000    0.000    0.000 
#    0.000    0.000    0.000    0.000    0.000    0.000 
#
# Total GULP energy -167103.758884 kJ/mol
# GULP energy per Si atom -5570.125296 kJ/mol
# Density = 0.989806 g / cm^3
# Si number density = 9.920635 Si / 1000 Ang^3
#
#
#
# Elastic Constant Matrix: (Units=GPa)
#
#
# Indices 1 2 3 4 5 6 
#
# 1 155.3716 33.5196 50.1552 0.0000 0.0000 0.0000
# 2 33.5196 100.8033 28.3638 0.0000 0.0000 0.0000
# 3 50.1552 28.3638 140.0117 0.0000 0.0000 0.0000
# 4 0.0000 0.0000 0.0000 17.0085 0.0000 0.0000
# 5 0.0000 0.0000 0.0000 0.0000 0.2523 0.0000
# 6 0.0000 0.0000 0.0000 0.0000 0.0000 28.6252
#
#
#
# Elastic Compliance Matrix: (Units=1/GPa)
#
#
# Indices 1 2 3 4 5 6 
#
# 1 0.007595 -0.001866 -0.002343 0.000000 0.000000 0.000000
# 2 -0.001866 0.010979 -0.001555 0.000000 0.000000 0.000000
# 3 -0.002343 -0.001555 0.008297 0.000000 0.000000 0.000000
# 4 0.000000 0.000000 0.000000 0.058794 0.000000 0.000000
# 5 0.000000 0.000000 0.000000 0.000000 3.963040 0.000000
# 6 0.000000 0.000000 0.000000 0.000000 0.000000 0.034934
#
#
# Mechanical properties :
#
#
# Convention : Reuss Voigt Hill
#
# Bulk Modulus (GPa) = 65.18380 68.91820 67.05100
# Shear Modulus (GPa) = 1.21943 28.12039 14.66991
#
# Velocity S-wave (km/s) = 0.78481 3.76875 2.72207
# Velocity P-wave (km/s) = 5.80906 7.33131 6.61412
#
# Compressibility (1/GPa) = 0.01534123
#
# Stress axis : x y z
#
# Youngs Moduli (GPa) = 131.66475 91.08626 120.53207
#
# Poissons Ratio (x) = 0.17000 0.28236
# Poissons Ratio (y) = 0.24574 0.18749
# Poissons Ratio (z) = 0.30844 0.14168
#
# Static dielectric constant tensor:
#      x y z
#    x 1.676460 0.000000 0.000000 
#    y 0.000000 1.684810 0.000000 
#    z 0.000000 0.000000 1.889050 
# 
# From -- ./inp_files/16373.got.cif
#   From: 2010.05.17/outbox.ucp.g08.bks.cvg/sg67_9_cif.got.tgz:16373.got - 2010.06.11 16:47:20.
