data_PCOD9505738
_publ_section_title
;
Structure prediction by ZEFSAII (Michael W. Deem and Ramdas Pophale) SiO2 
 PCOD9505738
Probable space group: C C C A
;
_chemical_formula_sum "Si O2"
_cell_formula_units_Z 96
_cell_length_a 8.568403
_cell_length_b 23.544118
_cell_length_c 19.406468
_cell_angle_alpha 90.000000
_cell_angle_beta 90.000000
_cell_angle_gamma 90.000000
_cell_volume 3914.973356
_symmetry_space_group_name_H-M "C C C A"
_symmetry_group_IT_number 68
_space_group.IT_coordinate_system_code '2'
_symmetry_cell_setting 'orthorhombic'
loop_
_space_group_symop_operation_xyz
x,y,z
-x,1/2-y,z
x,1/2-y,1/2-z
-x,y,1/2-z
-x,-y,-z
x,1/2+y,-z
-x,1/2+y,1/2+z
x,-y,1/2+z
1/2+x,1/2+y,z
1/2-x,-y,z
1/2+x,-y,1/2-z
1/2-x,1/2+y,1/2-z
1/2-x,1/2-y,-z
1/2+x,y,-z
1/2-x,y,1/2+z
1/2+x,1/2-y,1/2+z
loop_
_atom_site_type_symbol
_atom_site_label
_atom_site_fract_x
_atom_site_fract_y
_atom_site_fract_z
Si Si1 0.921325 0.312033 0.614065
Si Si2 0.127121 0.791306 0.964106
Si Si3 0.378137 0.460562 0.957729
Si Si4 0.882600 0.595942 0.300976
Si Si5 0.817530 0.592480 0.918100
Si Si6 0.178449 0.311665 0.276682
O O1 0.936522 0.323526 0.532396
O O2 0.744916 0.312249 0.644586
O O3 0.000000 0.250000 0.625130
O O4 0.009744 0.360823 0.655185
O O5 0.190222 0.839027 0.914220
O O6 0.000000 0.750000 0.932299
O O7 0.250000 0.750000 0.000000
O O8 0.250000 0.500000 0.919794
O O9 0.499575 0.422735 0.915769
O O10 0.500000 0.500000 0.000000
O O11 0.272902 0.425975 0.012401
O O12 0.778427 0.564440 0.356592
O O13 0.766922 0.635878 0.257970
O O14 0.000000 0.563738 0.250000
O O15 0.235396 0.250000 0.250000
O O16 0.000000 0.315238 0.250000
#
# Coordination Sequence:
#
# PCOD9505738 Si02
#       6
#    16  16  16  16  16  16
#     4  10  18  34  48  66 107 162 218 262 301 366
#     4  11  23  34  50  83 126 173 208 249 320 380
#     4   9  20  38  65  97 123 158 209 271 349 405
#     4  10  21  35  56  79 114 171 217 255 315 369
#     4  11  20  38  60  92 132 167 214 274 323 401
#     4  10  20  31  48  72 101 154 226 276 300 346
#
# _framework density 24.521239000000001
#
# number of rings (size 3 to 8) (size 9 to 14) (size 15 to 20)
#    0.000    1.833    1.667    4.000    0.000    2.667 
#    0.000    1.667    0.000    0.000    0.000   35.000 
#    0.000    0.000    0.000    0.500    0.000    0.000 
#
# Total GULP energy -268152.904635 kJ/mol
# GULP energy per Si atom -5586.518847 kJ/mol
# Density = 2.446543 g / cm^3
# Si number density = 24.521239 Si / 1000 Ang^3
#
#
#
# Elastic Constant Matrix: (Units=GPa)
#
#
# Indices 1 2 3 4 5 6 
#
# 1 166.1889 36.2930 41.4076 0.0000 0.0000 0.0000
# 2 36.2930 70.5209 -1.6199 0.0000 0.0000 0.0000
# 3 41.4076 -1.6199 76.0485 0.0000 0.0000 0.0000
# 4 0.0000 0.0000 0.0000 -8.0038 0.0000 0.0000
# 5 0.0000 0.0000 0.0000 0.0000 36.9351 0.0000
# 6 0.0000 0.0000 0.0000 0.0000 0.0000 38.6878
#
#
#
# Elastic Compliance Matrix: (Units=1/GPa)
#
#
# Indices 1 2 3 4 5 6 
#
# 1 0.008062 -0.004252 -0.004480 0.000000 0.000000 0.000000
# 2 -0.004252 0.016430 0.002665 0.000000 0.000000 0.000000
# 3 -0.004480 0.002665 0.015646 0.000000 0.000000 0.000000
# 4 0.000000 0.000000 0.000000 -0.124941 0.000000 0.000000
# 5 0.000000 0.000000 0.000000 0.000000 0.027075 0.000000
# 6 0.000000 0.000000 0.000000 0.000000 0.000000 0.025848
#
#
# Mechanical properties :
#
#
# Convention : Reuss Voigt Hill
#
# Bulk Modulus (GPa) = 35.71024 51.65776 43.68400
# Shear Modulus (GPa) = -480.21778 29.30233 -225.45772
#
# Velocity S-wave (km/s) = -14.00938 3.46059 -9.59914
# Velocity P-wave (km/s) = 15.71906 6.08933 10.24717
#
# Compressibility (1/GPa) = 0.02800317
#
# Stress axis : x y z
#
# Youngs Moduli (GPa) = 124.03653 60.86544 63.91512
#
# Poissons Ratio (x) = 0.25880 0.28636
# Poissons Ratio (y) = 0.52741 -0.17034
# Poissons Ratio (z) = 0.55572 -0.16222
#
# Static dielectric constant tensor:
#      x y z
#    x 1.976780 0.000000 0.000000 
#    y 0.000000 1.999610 0.000000 
#    z 0.000000 0.000000 2.084550 
# 
# From -- ./inp_files/36480.got.cif
#   From: 2010.05.17/outbox.cif.g08.bks.cpg/sg68_19_cif.got.tgz:36480.got - 2010.06.03 18:57:09.
