data_PCOD9505990
_publ_section_title
;
Structure prediction by ZEFSAII (Michael W. Deem and Ramdas Pophale) SiO2 
 PCOD9505990
Probable space group: C C C A
;
_chemical_formula_sum "Si O2"
_cell_formula_units_Z 80
_cell_length_a 8.281548
_cell_length_b 15.220570
_cell_length_c 29.287644
_cell_angle_alpha 90.000000
_cell_angle_beta 90.000000
_cell_angle_gamma 90.000000
_cell_volume 3691.704042
_symmetry_space_group_name_H-M "C C C A"
_symmetry_group_IT_number 68
_space_group.IT_coordinate_system_code '2'
_symmetry_cell_setting 'orthorhombic'
loop_
_space_group_symop_operation_xyz
x,y,z
-x,1/2-y,z
x,1/2-y,1/2-z
-x,y,1/2-z
-x,-y,-z
x,1/2+y,-z
-x,1/2+y,1/2+z
x,-y,1/2+z
1/2+x,1/2+y,z
1/2-x,-y,z
1/2+x,-y,1/2-z
1/2-x,1/2+y,1/2-z
1/2-x,1/2-y,-z
1/2+x,y,-z
1/2-x,y,1/2+z
1/2+x,1/2-y,1/2+z
loop_
_atom_site_type_symbol
_atom_site_label
_atom_site_fract_x
_atom_site_fract_y
_atom_site_fract_z
Si Si1 0.931231 0.650809 0.560172
Si Si2 0.132189 0.084425 0.880365
Si Si3 0.941526 0.351516 0.533014
Si Si4 0.558631 0.512011 0.701573
Si Si5 0.440678 0.653684 0.154880
O O1 0.745441 0.647292 0.546189
O O2 0.000000 0.750000 0.564172
O O3 0.029644 0.610438 0.517753
O O4 0.958938 0.616298 0.611013
O O5 0.257482 0.158802 0.863566
O O6 0.047919 0.103392 0.928100
O O7 0.250000 0.000000 0.883175
O O8 0.002143 0.070095 0.840712
O O9 0.000000 0.250000 0.531350
O O10 0.500000 0.548555 0.750000
O O11 0.750000 0.500000 0.701138
O O12 0.467963 0.418319 0.693747
O O13 0.500000 0.750000 0.167770
#
# Coordination Sequence:
#
# PCOD9505990 Si02
#       5
#    16  16  16  16  16
#     4  10  19  32  53  84 117 153 192 240 289 334
#     4  10  22  39  59  87 120 154 190 237 292 347
#     4  11  19  33  56  82 115 158 200 236 279 341
#     4  11  23  42  63  85 115 154 190 234 296 353
#     4  10  20  38  61  87 117 151 194 241 284 338
#
# _framework density 21.670210000000001
#
# number of rings (size 3 to 8) (size 9 to 14) (size 15 to 20)
#    0.000    1.600    0.000    9.000    0.000    0.400 
#    0.000   10.000    0.000    4.200    0.000    0.000 
#    0.000    0.000    0.000    0.000    0.000    0.000 
#
# Total GULP energy -223605.690978 kJ/mol
# GULP energy per Si atom -5590.142274 kJ/mol
# Density = 2.162089 g / cm^3
# Si number density = 21.670210 Si / 1000 Ang^3
#
#
#
# Elastic Constant Matrix: (Units=GPa)
#
#
# Indices 1 2 3 4 5 6 
#
# 1 111.0436 -13.1748 -12.4131 0.0000 0.0000 0.0000
# 2 -13.1748 29.8519 -0.2454 0.0000 0.0000 0.0000
# 3 -12.4131 -0.2454 82.5937 0.0000 0.0000 0.0000
# 4 0.0000 0.0000 0.0000 22.5201 0.0000 0.0000
# 5 0.0000 0.0000 0.0000 0.0000 37.3923 0.0000
# 6 0.0000 0.0000 0.0000 0.0000 0.0000 24.2075
#
#
#
# Elastic Compliance Matrix: (Units=1/GPa)
#
#
# Indices 1 2 3 4 5 6 
#
# 1 0.009678 0.004283 0.001467 0.000000 0.000000 0.000000
# 2 0.004283 0.035395 0.000749 0.000000 0.000000 0.000000
# 3 0.001467 0.000749 0.012330 0.000000 0.000000 0.000000
# 4 0.000000 0.000000 0.000000 0.044405 0.000000 0.000000
# 5 0.000000 0.000000 0.000000 0.000000 0.026744 0.000000
# 6 0.000000 0.000000 0.000000 0.000000 0.000000 0.041309
#
#
# Mechanical properties :
#
#
# Convention : Reuss Voigt Hill
#
# Bulk Modulus (GPa) = 14.20421 19.09138 16.64780
# Shear Modulus (GPa) = 27.72701 33.44547 30.58624
#
# Velocity S-wave (km/s) = 3.58089 3.93286 3.76099
# Velocity P-wave (km/s) = 4.86477 5.42699 5.15355
#
# Compressibility (1/GPa) = 0.07040167
#
# Stress axis : x y z
#
# Youngs Moduli (GPa) = 103.33070 28.25240 81.10168
#
# Poissons Ratio (x) = -0.12101 -0.11899
# Poissons Ratio (y) = -0.44259 -0.06074
# Poissons Ratio (z) = -0.15161 -0.02116
#
# Static dielectric constant tensor:
#      x y z
#    x 1.790610 0.000000 0.000000 
#    y 0.000000 1.831360 0.000000 
#    z 0.000000 0.000000 1.786690 
# 
# From -- ./inp_files/49147.got.cif
#   From: 2010.05.17/outbox.cif.g08.bks.cpg/sg68_25_cif.got.tgz:49147.got - 2010.06.03 18:57:09.
