data_PCOD9505624
_publ_section_title
;
Structure prediction by ZEFSAII (Michael W. Deem and Ramdas Pophale) SiO2 
 PCOD9505624
Probable space group: C C C A
;
_chemical_formula_sum "Si O2"
_cell_formula_units_Z 104
_cell_length_a 19.170616
_cell_length_b 15.887275
_cell_length_c 17.957145
_cell_angle_alpha 90.000000
_cell_angle_beta 90.000000
_cell_angle_gamma 90.000000
_cell_volume 5469.186972
_symmetry_space_group_name_H-M "C C C A"
_symmetry_group_IT_number 68
_space_group.IT_coordinate_system_code '2'
_symmetry_cell_setting 'orthorhombic'
loop_
_space_group_symop_operation_xyz
x,y,z
-x,1/2-y,z
x,1/2-y,1/2-z
-x,y,1/2-z
-x,-y,-z
x,1/2+y,-z
-x,1/2+y,1/2+z
x,-y,1/2+z
1/2+x,1/2+y,z
1/2-x,-y,z
1/2+x,-y,1/2-z
1/2-x,1/2+y,1/2-z
1/2-x,1/2-y,-z
1/2+x,y,-z
1/2-x,y,1/2+z
1/2+x,1/2-y,1/2+z
loop_
_atom_site_type_symbol
_atom_site_label
_atom_site_fract_x
_atom_site_fract_y
_atom_site_fract_z
Si Si1 0.967433 0.091675 0.923819
Si Si2 0.806009 0.936443 0.168775
Si Si3 0.715788 0.249915 0.386959
Si Si4 0.354685 0.198436 0.539561
Si Si5 0.500000 0.750000 0.474478
Si Si6 0.604961 0.661472 0.716672
Si Si7 0.109644 0.480685 0.529550
O O1 0.947306 0.119042 0.841388
O O2 0.991463 0.171721 0.970701
O O3 0.902141 0.052761 0.968805
O O4 0.033989 0.030344 0.930554
O O5 0.775841 0.845986 0.141774
O O6 0.868499 0.904889 0.222128
O O7 0.750000 0.000000 0.204211
O O8 0.835501 0.985651 0.096360
O O9 0.669316 0.256931 0.462233
O O10 0.790172 0.210744 0.405999
O O11 0.672775 0.193848 0.329253
O O12 0.427412 0.237257 0.567854
O O13 0.369426 0.102527 0.516538
O O14 0.577904 0.750000 0.750000
#
# Coordination Sequence:
#
# PCOD9505624 Si02
#       7
#    16  16  16  16   8  16  16
#     4  10  20  36  56  82 119 146 183 242 290 344
#     4  10  22  36  52  79 114 150 192 233 287 343
#     4   9  18  34  53  79 110 147 189 236 278 343
#     4   9  17  31  53  81 109 144 191 228 283 337
#     4  10  18  30  55  86 107 146 184 238 288 336
#     4  10  21  37  56  84 112 151 195 236 288 344
#     4   9  21  36  52  84 117 145 188 235 287 348
#
# _framework density 19.015623000000001
#
# number of rings (size 3 to 8) (size 9 to 14) (size 15 to 20)
#    0.000    2.462    1.538    0.000    4.308    3.077 
#    0.000    0.000    0.000    0.000    0.000    3.769 
#    0.000    0.000    0.000    0.000    0.000    0.000 
#
# Total GULP energy -289938.888184 kJ/mol
# GULP energy per Si atom -5575.747850 kJ/mol
# Density = 1.897234 g / cm^3
# Si number density = 19.015623 Si / 1000 Ang^3
#
#
#
# Elastic Constant Matrix: (Units=GPa)
#
#
# Indices 1 2 3 4 5 6 
#
# 1 87.1098 21.3233 21.2702 0.0000 0.0000 0.0000
# 2 21.3233 40.9077 16.2165 0.0000 0.0000 0.0000
# 3 21.2702 16.2165 56.2757 0.0000 0.0000 0.0000
# 4 0.0000 0.0000 0.0000 19.5595 0.0000 0.0000
# 5 0.0000 0.0000 0.0000 0.0000 -2.3423 0.0000
# 6 0.0000 0.0000 0.0000 0.0000 0.0000 22.3397
#
#
#
# Elastic Compliance Matrix: (Units=1/GPa)
#
#
# Indices 1 2 3 4 5 6 
#
# 1 0.013755 -0.005768 -0.003537 0.000000 0.000000 0.000000
# 2 -0.005768 0.030016 -0.006470 0.000000 0.000000 0.000000
# 3 -0.003537 -0.006470 0.020971 0.000000 0.000000 0.000000
# 4 0.000000 0.000000 0.000000 0.051126 0.000000 0.000000
# 5 0.000000 0.000000 0.000000 0.000000 -0.426931 0.000000
# 6 0.000000 0.000000 0.000000 0.000000 0.000000 0.044763
#
#
# Mechanical properties :
#
#
# Convention : Reuss Voigt Hill
#
# Bulk Modulus (GPa) = 30.12611 33.54592 31.83602
# Shear Modulus (GPa) = -22.35284 16.27691 -3.03797
#
# Velocity S-wave (km/s) = -3.43227 2.92888 -1.26534
# Velocity P-wave (km/s) = 0.41216 5.39605 3.82670
#
# Compressibility (1/GPa) = 0.03319380
#
# Stress axis : x y z
#
# Youngs Moduli (GPa) = 72.69916 33.31506 47.68543
#
# Poissons Ratio (x) = 0.19216 0.16866
# Poissons Ratio (y) = 0.41932 0.30850
# Poissons Ratio (z) = 0.25713 0.21553
#
# Static dielectric constant tensor:
#      x y z
#    x 1.712400 0.000000 0.000000 
#    y 0.000000 1.666620 0.000000 
#    z 0.000000 0.000000 1.663740 
# 
# From -- ./inp_files/38899.got.cif
#   From: 2010.05.17/outbox.cif.g08.bks.cpg/sg68_20_cif.got.tgz:38899.got - 2010.06.03 18:57:09.
