data_PCOD9505076
_publ_section_title
;
Structure prediction by ZEFSAII (Michael W. Deem and Ramdas Pophale) SiO2 
 PCOD9505076
Probable space group: C M M A
;
_chemical_formula_sum "Si O2"
_cell_formula_units_Z 68
_cell_length_a 10.523719
_cell_length_b 13.993790
_cell_length_c 22.810621
_cell_angle_alpha 90.000000
_cell_angle_beta 90.000000
_cell_angle_gamma 90.000000
_cell_volume 3359.245192
_symmetry_space_group_name_H-M "C M M A"
_symmetry_group_IT_number 67
_symmetry_cell_setting 'orthorhombic'
loop_
_space_group_symop_operation_xyz
x,y,z
-x,1/2-y,z
x,-y,-z
-x,1/2+y,-z
-x,-y,-z
x,1/2+y,-z
-x,y,z
x,1/2-y,z
1/2+x,1/2+y,z
1/2-x,-y,z
1/2+x,1/2-y,-z
1/2-x,y,-z
1/2-x,1/2-y,-z
1/2+x,y,-z
1/2-x,1/2+y,z
1/2+x,-y,z
loop_
_atom_site_type_symbol
_atom_site_label
_atom_site_fract_x
_atom_site_fract_y
_atom_site_fract_z
Si Si1 0.250000 0.000000 0.500000
Si Si2 0.353936 0.366264 0.725621
Si Si3 0.849089 0.642694 0.595953
Si Si4 0.644350 0.633643 0.819839
Si Si5 0.143761 0.133715 0.953901
O O1 0.176321 0.929907 0.543834
O O2 0.500000 0.398966 0.734605
O O3 0.358612 0.250000 0.726072
O O4 0.304939 0.390850 0.660305
O O5 0.254451 0.395522 0.775228
O O6 0.798118 0.750000 0.583871
O O7 0.000000 0.650748 0.602683
O O8 0.500000 0.604410 0.803822
O O9 0.644145 0.750000 0.819741
O O10 0.669128 0.603479 0.886924
O O11 0.144611 0.250000 0.953454
O O12 0.000000 0.104896 0.969838
O O13 0.250000 0.103867 0.000000
#
# Coordination Sequence:
#
# PCOD9505076 Si02
#       5
#     4  16  16  16  16
#     4  12  20  32  56  80 100 132 170 204 252 312
#     4   8  14  26  43  60  81 115 156 195 240 296
#     4   9  19  35  52  73 103 134 167 211 258 305
#     4   8  13  21  33  51  76 106 145 196 246 286
#     4   8  13  19  26  40  67 103 142 186 235 284
#
# _framework density 20.242643000000001
#
# number of rings (size 3 to 8) (size 9 to 14) (size 15 to 20)
#    0.000    3.529    0.000    3.529    0.000    0.941 
#    0.000    7.059    0.000    5.647    0.000    0.000 
#    0.000    0.000    0.000    1.059    0.000   19.529 
#
# Total GULP energy -189519.366383 kJ/mol
# GULP energy per Si atom -5574.099011 kJ/mol
# Density = 2.019657 g / cm^3
# Si number density = 20.242643 Si / 1000 Ang^3
#
#
#
# Elastic Constant Matrix: (Units=GPa)
#
#
# Indices 1 2 3 4 5 6 
#
# 1 113.2420 26.7873 112.8740 0.0000 0.0000 0.0000
# 2 26.7873 84.6031 38.1536 0.0000 0.0000 0.0000
# 3 112.8740 38.1536 176.9964 0.0000 0.0000 0.0000
# 4 0.0000 0.0000 0.0000 2.7943 0.0000 0.0000
# 5 0.0000 0.0000 0.0000 0.0000 32.7308 0.0000
# 6 0.0000 0.0000 0.0000 0.0000 0.0000 -99.7667
#
#
#
# Elastic Compliance Matrix: (Units=1/GPa)
#
#
# Indices 1 2 3 4 5 6 
#
# 1 0.024283 -0.000781 -0.015317 0.000000 0.000000 0.000000
# 2 -0.000781 0.013118 -0.002330 0.000000 0.000000 0.000000
# 3 -0.015317 -0.002330 0.015920 0.000000 0.000000 0.000000
# 4 0.000000 0.000000 0.000000 0.357868 0.000000 0.000000
# 5 0.000000 0.000000 0.000000 0.000000 0.030552 0.000000
# 6 0.000000 0.000000 0.000000 0.000000 0.000000 -0.010023
#
#
# Mechanical properties :
#
#
# Convention : Reuss Voigt Hill
#
# Bulk Modulus (GPa) = 60.73474 81.16349 70.94911
# Shear Modulus (GPa) = 10.54713 0.28679 5.41696
#
# Velocity S-wave (km/s) = 2.28510 0.37680 1.63763
# Velocity P-wave (km/s) = 6.08529 6.35387 6.22103
#
# Compressibility (1/GPa) = 0.01646504
#
# Stress axis : x y z
#
# Youngs Moduli (GPa) = 41.18108 76.23245 62.81313
#
# Poissons Ratio (x) = 0.05953 0.96213
# Poissons Ratio (y) = 0.03216 0.14634
# Poissons Ratio (z) = 0.63079 0.17760
#
# Static dielectric constant tensor:
#      x y z
#    x 1.691530 0.000000 0.000000 
#    y 0.000000 1.873350 0.000000 
#    z 0.000000 0.000000 1.715660 
# 
# From -- ./inp_files/32781.got.cif
#   From: 2010.05.17/outbox.cif.g08.bks.cpg/sg67_17_cif.got.tgz:32781.got - 2010.06.03 18:28:57.
