data_PCOD9505152
_publ_section_title
;
Structure prediction by ZEFSAII (Michael W. Deem and Ramdas Pophale) SiO2 
 PCOD9505152
Probable space group: C M M A
;
_chemical_formula_sum "Si O2"
_cell_formula_units_Z 64
_cell_length_a 10.944815
_cell_length_b 29.777562
_cell_length_c 9.485277
_cell_angle_alpha 90.000000
_cell_angle_beta 90.000000
_cell_angle_gamma 90.000000
_cell_volume 3091.345747
_symmetry_space_group_name_H-M "C M M A"
_symmetry_group_IT_number 67
_symmetry_cell_setting 'orthorhombic'
loop_
_space_group_symop_operation_xyz
x,y,z
-x,1/2-y,z
x,-y,-z
-x,1/2+y,-z
-x,-y,-z
x,1/2+y,-z
-x,y,z
x,1/2-y,z
1/2+x,1/2+y,z
1/2-x,-y,z
1/2+x,1/2-y,-z
1/2-x,y,-z
1/2-x,1/2-y,-z
1/2+x,y,-z
1/2-x,1/2+y,z
1/2+x,-y,z
loop_
_atom_site_type_symbol
_atom_site_label
_atom_site_fract_x
_atom_site_fract_y
_atom_site_fract_z
Si Si1 0.636019 0.670901 0.906055
Si Si2 0.366180 0.549078 0.572739
Si Si3 0.637757 0.062274 0.099222
Si Si4 0.366655 0.303517 0.418710
O O1 0.500000 0.683572 0.959836
O O2 0.639946 0.616657 0.897271
O O3 0.647106 0.688463 0.747488
O O4 0.750000 0.686135 0.000000
O O5 0.372744 0.500000 0.500000
O O6 0.500000 0.570375 0.552370
O O7 0.250000 0.571993 0.500000
O O8 0.346615 0.545685 0.740304
O O9 0.500000 0.049640 0.051086
O O10 0.750000 0.048546 0.000000
O O11 0.500000 0.321453 0.462263
O O12 0.369538 0.250000 0.442710
O O13 0.250000 0.322051 0.500000
#
# Coordination Sequence:
#
# PCOD9505152 Si02
#       4
#    16  16  16  16
#     4   9  18  32  49  71  98 126 160 201 242 285
#     4   9  18  33  51  71  96 124 155 192 235 284
#     4   9  18  33  52  73  97 126 160 198 240 286
#     4   9  18  32  48  68  97 131 165 201 240 283
#
# _framework density 20.702957999999999
#
# number of rings (size 3 to 8) (size 9 to 14) (size 15 to 20)
#    0.000    3.000    0.000    0.000    0.000    3.500 
#    0.000    2.500    0.000   13.500    0.000    0.000 
#    0.000    0.000    0.000    0.000    0.000    0.000 
#
# Total GULP energy -178434.406052 kJ/mol
# GULP energy per Si atom -5576.075189 kJ/mol
# Density = 2.065584 g / cm^3
# Si number density = 20.702958 Si / 1000 Ang^3
#
#
#
# Elastic Constant Matrix: (Units=GPa)
#
#
# Indices 1 2 3 4 5 6 
#
# 1 273.4902 17.1038 116.9178 0.0000 0.0000 0.0000
# 2 17.1038 34.5727 -3.3758 0.0000 0.0000 0.0000
# 3 116.9178 -3.3758 84.2596 0.0000 0.0000 0.0000
# 4 0.0000 0.0000 0.0000 33.7162 0.0000 0.0000
# 5 0.0000 0.0000 0.0000 0.0000 43.1699 0.0000
# 6 0.0000 0.0000 0.0000 0.0000 0.0000 -38.9701
#
#
#
# Elastic Compliance Matrix: (Units=1/GPa)
#
#
# Indices 1 2 3 4 5 6 
#
# 1 0.010259 -0.006491 -0.014496 0.000000 0.000000 0.000000
# 2 -0.006491 0.033145 0.010335 0.000000 0.000000 0.000000
# 3 -0.014496 0.010335 0.032396 0.000000 0.000000 0.000000
# 4 0.000000 0.000000 0.000000 0.029659 0.000000 0.000000
# 5 0.000000 0.000000 0.000000 0.000000 0.023164 0.000000
# 6 0.000000 0.000000 0.000000 0.000000 0.000000 -0.025661
#
#
# Mechanical properties :
#
#
# Convention : Reuss Voigt Hill
#
# Bulk Modulus (GPa) = 18.34984 72.62378 45.48681
# Shear Modulus (GPa) = 35.10412 25.02833 30.06622
#
# Velocity S-wave (km/s) = 4.12224 3.48073 3.81500
# Velocity P-wave (km/s) = 5.61603 7.16304 6.43618
#
# Compressibility (1/GPa) = 0.05449640
#
# Stress axis : x y z
#
# Youngs Moduli (GPa) = 97.47150 30.17060 30.86754
#
# Poissons Ratio (x) = 0.19584 0.44745
# Poissons Ratio (y) = 0.63268 -0.31901
# Poissons Ratio (z) = 1.41294 -0.31180
#
# Static dielectric constant tensor:
#      x y z
#    x 1.824710 0.000000 0.000000 
#    y 0.000000 1.755230 0.000000 
#    z 0.000000 0.000000 1.672330 
# 
# From -- ./inp_files/6702.got.cif
#   From: 2010.05.17/outbox.cif.g08.bks.cpg/sg67_4_cif.got.tgz:6702.got - 2010.06.03 18:28:57.
