data_PCOD9505500
_publ_section_title
;
Structure prediction by ZEFSAII (Michael W. Deem and Ramdas Pophale) SiO2 
 PCOD9505500
Probable space group: C C C A
;
_chemical_formula_sum "Si O2"
_cell_formula_units_Z 80
_cell_length_a 16.577653
_cell_length_b 9.999525
_cell_length_c 25.900902
_cell_angle_alpha 90.000000
_cell_angle_beta 90.000000
_cell_angle_gamma 90.000000
_cell_volume 4293.557704
_symmetry_space_group_name_H-M "C C C A"
_symmetry_group_IT_number 68
_space_group.IT_coordinate_system_code '2'
_symmetry_cell_setting 'orthorhombic'
loop_
_space_group_symop_operation_xyz
x,y,z
-x,1/2-y,z
x,1/2-y,1/2-z
-x,y,1/2-z
-x,-y,-z
x,1/2+y,-z
-x,1/2+y,1/2+z
x,-y,1/2+z
1/2+x,1/2+y,z
1/2-x,-y,z
1/2+x,-y,1/2-z
1/2-x,1/2+y,1/2-z
1/2-x,1/2-y,-z
1/2+x,y,-z
1/2-x,y,1/2+z
1/2+x,1/2-y,1/2+z
loop_
_atom_site_type_symbol
_atom_site_label
_atom_site_fract_x
_atom_site_fract_y
_atom_site_fract_z
Si Si1 0.397587 0.325371 0.061927
Si Si2 0.488010 0.910307 0.310046
Si Si3 0.831075 0.444019 0.377312
Si Si4 0.930420 0.437714 0.600197
Si Si5 0.904208 0.714637 0.556284
O O1 0.341502 0.446944 0.077063
O O2 0.486146 0.390626 0.072137
O O3 0.383275 0.201148 0.100421
O O4 0.389641 0.269165 0.004504
O O5 0.500000 0.750000 0.316344
O O6 0.500000 0.940669 0.250000
O O7 0.401623 0.947110 0.334546
O O8 0.548986 0.996273 0.345112
O O9 0.750000 0.500000 0.351829
O O10 0.847811 0.304255 0.407045
O O11 0.893367 0.558249 0.567925
O O12 0.000000 0.750000 0.565727
#
# Coordination Sequence:
#
# PCOD9505500 Si02
#       5
#    16  16  16  16  16
#     4  10  20  30  55  86 116 150 189 238 277 326
#     4  10  19  37  66  84  98 145 203 244 282 349
#     4  11  23  38  54  84 125 154 184 239 302 345
#     4  10  17  31  54  87 107 135 198 253 269 316
#     4  12  17  33  58  84 112 158 202 228 268 346
#
# _framework density 18.632566000000001
#
# number of rings (size 3 to 8) (size 9 to 14) (size 15 to 20)
#    0.000    1.400    8.000    1.800    0.000    0.800 
#    0.000    9.000    8.800    0.000    0.000    0.000 
#    0.000    0.000    0.000    0.000    0.000    0.000 
#
# Total GULP energy -222740.018488 kJ/mol
# GULP energy per Si atom -5568.500462 kJ/mol
# Density = 1.859016 g / cm^3
# Si number density = 18.632566 Si / 1000 Ang^3
#
#
#
# Elastic Constant Matrix: (Units=GPa)
#
#
# Indices 1 2 3 4 5 6 
#
# 1 39.5330 17.8475 11.9923 0.0000 0.0000 0.0000
# 2 17.8475 134.0897 25.6424 0.0000 0.0000 0.0000
# 3 11.9923 25.6424 127.8950 0.0000 0.0000 0.0000
# 4 0.0000 0.0000 0.0000 13.8461 0.0000 0.0000
# 5 0.0000 0.0000 0.0000 0.0000 7.9619 0.0000
# 6 0.0000 0.0000 0.0000 0.0000 0.0000 13.3423
#
#
#
# Elastic Compliance Matrix: (Units=1/GPa)
#
#
# Indices 1 2 3 4 5 6 
#
# 1 0.027353 -0.003276 -0.001908 0.000000 0.000000 0.000000
# 2 -0.003276 0.008147 -0.001326 0.000000 0.000000 0.000000
# 3 -0.001908 -0.001326 0.008264 0.000000 0.000000 0.000000
# 4 0.000000 0.000000 0.000000 0.072222 0.000000 0.000000
# 5 0.000000 0.000000 0.000000 0.000000 0.125597 0.000000
# 6 0.000000 0.000000 0.000000 0.000000 0.000000 0.074949
#
#
# Mechanical properties :
#
#
# Convention : Reuss Voigt Hill
#
# Bulk Modulus (GPa) = 32.52696 45.83134 39.17915
# Shear Modulus (GPa) = 14.71446 23.43244 19.07345
#
# Velocity S-wave (km/s) = 2.81324 3.55012 3.20294
# Velocity P-wave (km/s) = 5.29598 6.43858 5.89503
#
# Compressibility (1/GPa) = 0.03074373
#
# Stress axis : x y z
#
# Youngs Moduli (GPa) = 36.55902 122.73920 121.01049
#
# Poissons Ratio (x) = 0.40208 0.23089
# Poissons Ratio (y) = 0.11976 0.16050
# Poissons Ratio (z) = 0.06975 0.16279
#
# Static dielectric constant tensor:
#      x y z
#    x 1.799050 0.000000 0.000000 
#    y 0.000000 1.668210 0.000000 
#    z 0.000000 0.000000 1.637330 
# 
# From -- ./inp_files/51293.got.cif
#   From: 2010.05.17/outbox.cif.g08.bks.cpg/sg68_26_cif.got.tgz:51293.got - 2010.06.03 18:57:09.
