data_PCOD9505988
_publ_section_title
;
Structure prediction by ZEFSAII (Michael W. Deem and Ramdas Pophale) SiO2 
 PCOD9505988
Probable space group: C C C A
;
_chemical_formula_sum "Si O2"
_cell_formula_units_Z 104
_cell_length_a 14.052834
_cell_length_b 17.701397
_cell_length_c 19.505189
_cell_angle_alpha 90.000000
_cell_angle_beta 90.000000
_cell_angle_gamma 90.000000
_cell_volume 4852.009264
_symmetry_space_group_name_H-M "C C C A"
_symmetry_group_IT_number 68
_space_group.IT_coordinate_system_code '2'
_symmetry_cell_setting 'orthorhombic'
loop_
_space_group_symop_operation_xyz
x,y,z
-x,1/2-y,z
x,1/2-y,1/2-z
-x,y,1/2-z
-x,-y,-z
x,1/2+y,-z
-x,1/2+y,1/2+z
x,-y,1/2+z
1/2+x,1/2+y,z
1/2-x,-y,z
1/2+x,-y,1/2-z
1/2-x,1/2+y,1/2-z
1/2-x,1/2-y,-z
1/2+x,y,-z
1/2-x,y,1/2+z
1/2+x,1/2-y,1/2+z
loop_
_atom_site_type_symbol
_atom_site_label
_atom_site_fract_x
_atom_site_fract_y
_atom_site_fract_z
Si Si1 0.000000 0.750000 0.885404
Si Si2 0.675006 0.433995 0.842162
Si Si3 0.074764 0.409185 0.416273
Si Si4 0.087904 0.489603 0.788093
Si Si5 0.202688 0.378078 0.883804
Si Si6 0.641384 0.969397 0.009273
Si Si7 0.713849 0.767499 0.170974
O O1 0.976168 0.828506 0.923559
O O2 0.900320 0.740759 0.844402
O O3 0.750000 0.500000 0.845167
O O4 0.625991 0.450946 0.768926
O O5 0.729601 0.354971 0.843155
O O6 0.619855 0.440155 0.914814
O O7 0.048836 0.460145 0.350541
O O8 0.187206 0.397602 0.398059
O O9 0.079421 0.459646 0.484138
O O10 0.161554 0.429414 0.821173
O O11 0.000000 0.449088 0.750000
O O12 0.143467 0.404754 0.950511
O O13 0.215237 0.289249 0.868599
O O14 0.750000 0.000000 0.010483
O O15 0.727408 0.750000 0.250000
#
# Coordination Sequence:
#
# PCOD9505988 Si02
#       7
#     8  16  16  16  16  16  16
#     4  10  19  32  52  84 116 140 177 230 286 338
#     4  11  21  35  58  85 109 140 188 236 278 337
#     4   9  17  33  55  80 116 150 183 229 293 349
#     4  11  20  33  54  82 111 145 188 234 285 344
#     4   9  19  36  55  76 110 152 186 227 290 350
#     4   8  17  34  55  78 109 151 190 225 274 349
#     4  11  21  33  54  83 112 141 180 235 290 333
#
# _framework density 21.434419999999999
#
# number of rings (size 3 to 8) (size 9 to 14) (size 15 to 20)
#    0.000    2.154    0.000    6.231    0.000    0.615 
#    0.000    6.923    0.000    4.154    0.000    0.000 
#    0.000    0.000    0.000    0.000    0.000    0.000 
#
# Total GULP energy -289803.912805 kJ/mol
# GULP energy per Si atom -5573.152169 kJ/mol
# Density = 2.138563 g / cm^3
# Si number density = 21.434420 Si / 1000 Ang^3
#
#
#
# Elastic Constant Matrix: (Units=GPa)
#
#
# Indices 1 2 3 4 5 6 
#
# 1 54.8798 50.2786 25.0270 0.0000 0.0000 0.0000
# 2 50.2786 188.3444 67.2308 0.0000 0.0000 0.0000
# 3 25.0270 67.2308 118.2919 0.0000 0.0000 0.0000
# 4 0.0000 0.0000 0.0000 21.7162 0.0000 0.0000
# 5 0.0000 0.0000 0.0000 0.0000 34.0620 0.0000
# 6 0.0000 0.0000 0.0000 0.0000 0.0000 36.0218
#
#
#
# Elastic Compliance Matrix: (Units=1/GPa)
#
#
# Indices 1 2 3 4 5 6 
#
# 1 0.024434 -0.005868 -0.001835 0.000000 0.000000 0.000000
# 2 -0.005868 0.008070 -0.003345 0.000000 0.000000 0.000000
# 3 -0.001835 -0.003345 0.010743 0.000000 0.000000 0.000000
# 4 0.000000 0.000000 0.000000 0.046049 0.000000 0.000000
# 5 0.000000 0.000000 0.000000 0.000000 0.029358 0.000000
# 6 0.000000 0.000000 0.000000 0.000000 0.000000 0.027761
#
#
# Mechanical properties :
#
#
# Convention : Reuss Voigt Hill
#
# Bulk Modulus (GPa) = 47.27664 71.84322 59.55993
# Shear Modulus (GPa) = 28.48024 32.95865 30.71944
#
# Velocity S-wave (km/s) = 3.64911 3.92554 3.78985
# Velocity P-wave (km/s) = 6.31340 7.35778 6.85551
#
# Compressibility (1/GPa) = 0.02115209
#
# Stress axis : x y z
#
# Youngs Moduli (GPa) = 40.92633 123.91767 93.08447
#
# Poissons Ratio (x) = 0.72713 0.17077
# Poissons Ratio (y) = 0.24015 0.31137
# Poissons Ratio (z) = 0.07508 0.41451
#
# Static dielectric constant tensor:
#      x y z
#    x 1.906820 0.000000 0.000000 
#    y 0.000000 1.761450 0.000000 
#    z 0.000000 0.000000 1.802110 
# 
# From -- ./inp_files/38767.got.cif
#   From: 2010.05.17/outbox.cif.g08.bks.cpg/sg68_20_cif.got.tgz:38767.got - 2010.06.03 18:57:09.
