data_PCOD9505640
_publ_section_title
;
Structure prediction by ZEFSAII (Michael W. Deem and Ramdas Pophale) SiO2 
 PCOD9505640
Probable space group: C C C A
;
_chemical_formula_sum "Si O2"
_cell_formula_units_Z 52
_cell_length_a 25.495094
_cell_length_b 5.398172
_cell_length_c 16.878654
_cell_angle_alpha 90.000000
_cell_angle_beta 90.000000
_cell_angle_gamma 90.000000
_cell_volume 2322.956870
_symmetry_space_group_name_H-M "C C C A"
_symmetry_group_IT_number 68
_space_group.IT_coordinate_system_code '2'
_symmetry_cell_setting 'orthorhombic'
loop_
_space_group_symop_operation_xyz
x,y,z
-x,1/2-y,z
x,1/2-y,1/2-z
-x,y,1/2-z
-x,-y,-z
x,1/2+y,-z
-x,1/2+y,1/2+z
x,-y,1/2+z
1/2+x,1/2+y,z
1/2-x,-y,z
1/2+x,-y,1/2-z
1/2-x,1/2+y,1/2-z
1/2-x,1/2-y,-z
1/2+x,y,-z
1/2-x,y,1/2+z
1/2+x,1/2-y,1/2+z
loop_
_atom_site_type_symbol
_atom_site_label
_atom_site_fract_x
_atom_site_fract_y
_atom_site_fract_z
Si Si1 0.968923 0.493081 0.400326
Si Si2 0.500000 0.750000 0.250000
Si Si3 0.350759 0.577420 0.582342
Si Si4 0.690298 0.075833 0.903468
O O1 0.911166 0.517225 0.434839
O O2 0.000000 0.250000 0.432618
O O3 0.965286 0.418372 0.307643
O O4 0.000000 0.750000 0.404335
O O5 0.345087 0.844100 0.623132
O O6 0.320589 0.603374 0.498338
O O7 0.325543 0.345404 0.627950
O O8 0.750000 0.000000 0.889845
#
# Coordination Sequence:
#
# PCOD9505640 Si02
#       4
#    16   4  16  16
#     4  10  20  35  52  76 101 130 173 209 255 302
#     4   8  22  36  58  64 106 120 178 216 270 282
#     4  10  18  31  51  75 104 137 174 194 246 300
#     4  10  19  33  50  76 112 138 168 199 239 298
#
# _framework density 22.385262999999998
#
# number of rings (size 3 to 8) (size 9 to 14) (size 15 to 20)
#    0.923    1.231    0.000    6.923    0.000    0.000 
#    0.000   18.462    0.000    0.000    0.000    6.462 
#    0.000    0.000    0.000    0.000    0.000    0.000 
#
# Total GULP energy -144989.283701 kJ/mol
# GULP energy per Si atom -5576.510912 kJ/mol
# Density = 2.233431 g / cm^3
# Si number density = 22.385263 Si / 1000 Ang^3
#
#
#
# Elastic Constant Matrix: (Units=GPa)
#
#
# Indices 1 2 3 4 5 6 
#
# 1 66.0601 -15.1911 -10.9903 0.0000 0.0000 0.0000
# 2 -15.1911 156.5668 2.6694 0.0000 0.0000 0.0000
# 3 -10.9903 2.6694 41.2805 0.0000 0.0000 0.0000
# 4 0.0000 0.0000 0.0000 -2.5083 0.0000 0.0000
# 5 0.0000 0.0000 0.0000 0.0000 -2.6917 0.0000
# 6 0.0000 0.0000 0.0000 0.0000 0.0000 40.9939
#
#
#
# Elastic Compliance Matrix: (Units=1/GPa)
#
#
# Indices 1 2 3 4 5 6 
#
# 1 0.016183 0.001498 0.004212 0.000000 0.000000 0.000000
# 2 0.001498 0.006533 -0.000024 0.000000 0.000000 0.000000
# 3 0.004212 -0.000024 0.025347 0.000000 0.000000 0.000000
# 4 0.000000 0.000000 0.000000 -0.398677 0.000000 0.000000
# 5 0.000000 0.000000 0.000000 0.000000 -0.371516 0.000000
# 6 0.000000 0.000000 0.000000 0.000000 0.000000 0.024394
#
#
# Mechanical properties :
#
#
# Convention : Reuss Voigt Hill
#
# Bulk Modulus (GPa) = 16.82483 24.09815 20.46149
# Shear Modulus (GPa) = -7.25377 26.32009 9.53316
#
# Velocity S-wave (km/s) = -1.80207 3.43268 2.06589
# Velocity P-wave (km/s) = 1.78953 5.14778 3.85370
#
# Compressibility (1/GPa) = 0.05943598
#
# Stress axis : x y z
#
# Youngs Moduli (GPa) = 61.79335 153.07301 39.45192
#
# Poissons Ratio (x) = -0.22936 -0.16616
# Poissons Ratio (y) = -0.09259 0.00093
# Poissons Ratio (z) = -0.26025 0.00360
#
# Static dielectric constant tensor:
#      x y z
#    x 1.825100 0.000000 0.000000 
#    y 0.000000 1.955040 0.000000 
#    z 0.000000 0.000000 1.887030 
# 
# From -- ./inp_files/34819.got.cif
#   From: 2010.05.17/outbox.cif.g08.bks.cpg/sg68_18_cif.got.tgz:34819.got - 2010.06.03 18:57:09.
