data_PCOD9505168
_publ_section_title
;
Structure prediction by ZEFSAII (Michael W. Deem and Ramdas Pophale) SiO2 
 PCOD9505168
Probable space group: C M M A
;
_chemical_formula_sum "Si O2"
_cell_formula_units_Z 40
_cell_length_a 24.000000
_cell_length_b 9.000000
_cell_length_c 21.000000
_cell_angle_alpha 90.000000
_cell_angle_beta 90.000000
_cell_angle_gamma 90.000000
_cell_volume 4536.000000
_symmetry_space_group_name_H-M "C M M A"
_symmetry_group_IT_number 67
_symmetry_cell_setting 'orthorhombic'
loop_
_space_group_symop_operation_xyz
x,y,z
-x,1/2-y,z
x,-y,-z
-x,1/2+y,-z
-x,-y,-z
x,1/2+y,-z
-x,y,z
x,1/2-y,z
1/2+x,1/2+y,z
1/2-x,-y,z
1/2+x,1/2-y,-z
1/2-x,y,-z
1/2-x,1/2-y,-z
1/2+x,y,-z
1/2-x,1/2+y,z
1/2+x,-y,z
loop_
_atom_site_type_symbol
_atom_site_label
_atom_site_fract_x
_atom_site_fract_y
_atom_site_fract_z
Si Si1 0.000000 0.074491 0.597627
Si Si2 0.882406 0.071205 0.435288
Si Si3 0.810786 0.929412 0.691359
Si Si4 0.887144 0.076329 0.191226
Si Si5 0.065566 0.572340 0.068273
Si Si6 0.500000 0.917930 0.272396
O O1 0.000000 0.250000 0.584035
O O2 0.055901 0.996994 0.572256
O O3 0.000000 0.039889 0.672963
O O4 0.885016 0.250000 0.440585
O O5 0.847787 0.033589 0.371167
O O6 0.857983 0.000000 0.500000
O O7 0.807107 0.750000 0.692932
O O8 0.841406 0.976033 0.757165
O O9 0.750000 0.000000 0.686470
O O10 0.876351 0.250000 0.176385
O O11 0.945392 0.069669 0.229553
O O12 0.896759 0.988108 0.125949
O O13 0.069728 0.750000 0.064066
O O14 0.000000 0.534790 0.081276
O O15 0.079539 0.500000 0.000000
O O16 0.500000 0.750000 0.301584
#
# Coordination Sequence:
#
# PCOD9505168 Si02
#       6
#     8  16  16  16  16   8
#     4  12  23  35  56  87 118 149 184 229 280 339
#     4  11  23  41  60  83 114 150 187 229 285 343
#     4  10  23  41  61  82 109 146 191 238 286 335
#     4  10  19  35  58  82 111 150 185 227 282 333
#     4  10  20  32  50  82 120 155 187 223 269 329
#     4  10  18  33  56  81 114 149 184 227 282 343
#
# _framework density 8.8183419999999995
#
# number of rings (size 3 to 8) (size 9 to 14) (size 15 to 20)
#    0.000    1.600    3.000    2.400    0.000    4.400 
#    0.000    2.000    0.000    0.600    0.000    4.200 
#    0.000    0.000    0.000    0.000    0.000    0.000 
#
# Total GULP energy -223366.149793 kJ/mol
# GULP energy per Si atom -5584.153745 kJ/mol
# Density = 0.879827 g / cm^3
# Si number density = 8.818342 Si / 1000 Ang^3
#
#
#
# Elastic Constant Matrix: (Units=GPa)
#
#
# Indices 1 2 3 4 5 6 
#
# 1 106.3389 37.5516 60.5250 0.0000 0.0000 0.0000
# 2 37.5516 70.8440 62.6272 0.0000 0.0000 0.0000
# 3 60.5250 62.6272 163.6666 0.0000 0.0000 0.0000
# 4 0.0000 0.0000 0.0000 38.4133 0.0000 0.0000
# 5 0.0000 0.0000 0.0000 0.0000 2.9092 0.0000
# 6 0.0000 0.0000 0.0000 0.0000 0.0000 27.4753
#
#
#
# Elastic Compliance Matrix: (Units=1/GPa)
#
#
# Indices 1 2 3 4 5 6 
#
# 1 0.012573 -0.003860 -0.003173 0.000000 0.000000 0.000000
# 2 -0.003860 0.022516 -0.007188 0.000000 0.000000 0.000000
# 3 -0.003173 -0.007188 0.010034 0.000000 0.000000 0.000000
# 4 0.000000 0.000000 0.000000 0.026033 0.000000 0.000000
# 5 0.000000 0.000000 0.000000 0.000000 0.343743 0.000000
# 6 0.000000 0.000000 0.000000 0.000000 0.000000 0.036396
#
#
# Mechanical properties :
#
#
# Convention : Reuss Voigt Hill
#
# Bulk Modulus (GPa) = 59.94767 73.58414 66.76590
# Shear Modulus (GPa) = 10.30299 25.76927 18.03613
#
# Velocity S-wave (km/s) = 2.41960 3.82660 3.20136
# Velocity P-wave (km/s) = 6.47071 7.83177 7.18355
#
# Compressibility (1/GPa) = 0.01668122
#
# Stress axis : x y z
#
# Youngs Moduli (GPa) = 79.53825 44.41269 99.66244
#
# Poissons Ratio (x) = 0.17142 0.31618
# Poissons Ratio (y) = 0.30699 0.71642
# Poissons Ratio (z) = 0.25234 0.31926
#
# Static dielectric constant tensor:
#      x y z
#    x 1.583910 0.000000 0.000000 
#    y 0.000000 1.595660 0.000000 
#    z 0.000000 0.000000 1.611280 
# 
# From -- ./inp_files/35796.got.cif
#   From: 2010.05.17/outbox.ucp.g08.bks.cvg/sg67_18_cif.got.tgz:35796.got - 2010.06.11 16:47:20.
