data_PCOD9505685
_publ_section_title
;
Structure prediction by ZEFSAII (Michael W. Deem and Ramdas Pophale) SiO2 
 PCOD9505685
Probable space group: C C C A
;
_chemical_formula_sum "Si O2"
_cell_formula_units_Z 72
_cell_length_a 23.270700
_cell_length_b 21.195191
_cell_length_c 5.613085
_cell_angle_alpha 90.000000
_cell_angle_beta 90.000000
_cell_angle_gamma 90.000000
_cell_volume 2768.524689
_symmetry_space_group_name_H-M "C C C A"
_symmetry_group_IT_number 68
_space_group.IT_coordinate_system_code '2'
_symmetry_cell_setting 'orthorhombic'
loop_
_space_group_symop_operation_xyz
x,y,z
-x,1/2-y,z
x,1/2-y,1/2-z
-x,y,1/2-z
-x,-y,-z
x,1/2+y,-z
-x,1/2+y,1/2+z
x,-y,1/2+z
1/2+x,1/2+y,z
1/2-x,-y,z
1/2+x,-y,1/2-z
1/2-x,1/2+y,1/2-z
1/2-x,1/2-y,-z
1/2+x,y,-z
1/2-x,y,1/2+z
1/2+x,1/2-y,1/2+z
loop_
_atom_site_type_symbol
_atom_site_label
_atom_site_fract_x
_atom_site_fract_y
_atom_site_fract_z
Si Si1 0.054420 0.560850 0.630719
Si Si2 0.731226 0.319890 0.693594
Si Si3 0.386856 0.849568 0.985078
Si Si4 0.336954 0.022598 0.384623
Si Si5 0.000000 0.345915 0.750000
O O1 0.084103 0.608593 0.812576
O O2 0.102397 0.511882 0.560652
O O3 0.000000 0.527293 0.750000
O O4 0.028977 0.607501 0.437525
O O5 0.755931 0.250000 0.750000
O O6 0.762630 0.349673 0.459729
O O7 0.665227 0.312715 0.608419
O O8 0.352866 0.904124 0.834375
O O9 0.441994 0.815254 0.865233
O O10 0.310461 0.011920 0.651325
#
# Coordination Sequence:
#
# PCOD9505685 Si02
#       5
#    16  16  16  16   8
#     4   9  19  30  49  84 132 174 212 237 284 370
#     4  10  24  46  73  95 109 153 222 287 327 365
#     4  10  21  34  60  90 129 160 210 259 315 378
#     4  10  19  30  48  81 125 168 203 242 283 361
#     4  10  18  32  54  95 132 172 199 246 310 376
#
# _framework density 26.006629
#
# number of rings (size 3 to 8) (size 9 to 14) (size 15 to 20)
#    0.000    2.222    2.222    0.000    4.667    2.667 
#    0.000    0.000    0.000   23.333    0.000    0.000 
#    0.000    0.000    0.000    0.000    0.000    0.000 
#
# Total GULP energy -200674.153375 kJ/mol
# GULP energy per Si atom -5574.282038 kJ/mol
# Density = 2.594744 g / cm^3
# Si number density = 26.006629 Si / 1000 Ang^3
#
#
#
# Elastic Constant Matrix: (Units=GPa)
#
#
# Indices 1 2 3 4 5 6 
#
# 1 180.3526 15.0853 59.7040 0.0000 0.0000 0.0000
# 2 15.0853 49.3932 22.5317 0.0000 0.0000 0.0000
# 3 59.7040 22.5317 177.0761 0.0000 0.0000 0.0000
# 4 0.0000 0.0000 0.0000 31.3192 0.0000 0.0000
# 5 0.0000 0.0000 0.0000 0.0000 25.8788 0.0000
# 6 0.0000 0.0000 0.0000 0.0000 0.0000 18.3061
#
#
#
# Elastic Compliance Matrix: (Units=1/GPa)
#
#
# Indices 1 2 3 4 5 6 
#
# 1 0.006289 -0.001012 -0.001992 0.000000 0.000000 0.000000
# 2 -0.001012 0.021656 -0.002414 0.000000 0.000000 0.000000
# 3 -0.001992 -0.002414 0.006626 0.000000 0.000000 0.000000
# 4 0.000000 0.000000 0.000000 0.031929 0.000000 0.000000
# 5 0.000000 0.000000 0.000000 0.000000 0.038642 0.000000
# 6 0.000000 0.000000 0.000000 0.000000 0.000000 0.054627
#
#
# Mechanical properties :
#
#
# Convention : Reuss Voigt Hill
#
# Bulk Modulus (GPa) = 42.13232 66.82934 54.48083
# Shear Modulus (GPa) = 28.00871 35.73422 31.87146
#
# Velocity S-wave (km/s) = 3.28530 3.71083 3.50453
# Velocity P-wave (km/s) = 5.53414 6.64177 6.11310
#
# Compressibility (1/GPa) = 0.02373475
#
# Stress axis : x y z
#
# Youngs Moduli (GPa) = 159.01721 46.17619 150.92128
#
# Poissons Ratio (x) = 0.04674 0.30056
# Poissons Ratio (y) = 0.16095 0.36438
# Poissons Ratio (z) = 0.31669 0.11148
#
# Static dielectric constant tensor:
#      x y z
#    x 2.094550 0.000000 0.000000 
#    y 0.000000 2.023510 0.000000 
#    z 0.000000 0.000000 2.228980 
# 
# From -- ./inp_files/1978.got.cif
#   From: 2010.05.17/outbox.cif.g08.bks.cpg/sg68_1_cif.got.tgz:1978.got - 2010.06.03 18:57:09.
