data_PCOD9505778
_publ_section_title
;
Structure prediction by ZEFSAII (Michael W. Deem and Ramdas Pophale) SiO2 
 PCOD9505778
Probable space group: C C C A
;
_chemical_formula_sum "Si O2"
_cell_formula_units_Z 76
_cell_length_a 24.320745
_cell_length_b 14.468077
_cell_length_c 12.749135
_cell_angle_alpha 90.000000
_cell_angle_beta 90.000000
_cell_angle_gamma 90.000000
_cell_volume 4486.094373
_symmetry_space_group_name_H-M "C C C A"
_symmetry_group_IT_number 68
_space_group.IT_coordinate_system_code '2'
_symmetry_cell_setting 'orthorhombic'
loop_
_space_group_symop_operation_xyz
x,y,z
-x,1/2-y,z
x,1/2-y,1/2-z
-x,y,1/2-z
-x,-y,-z
x,1/2+y,-z
-x,1/2+y,1/2+z
x,-y,1/2+z
1/2+x,1/2+y,z
1/2-x,-y,z
1/2+x,-y,1/2-z
1/2-x,1/2+y,1/2-z
1/2-x,1/2-y,-z
1/2+x,y,-z
1/2-x,y,1/2+z
1/2+x,1/2-y,1/2+z
loop_
_atom_site_type_symbol
_atom_site_label
_atom_site_fract_x
_atom_site_fract_y
_atom_site_fract_z
Si Si1 0.100614 0.335313 0.135510
Si Si2 0.750000 0.000000 0.622002
Si Si3 0.717238 0.351571 0.206990
Si Si4 0.000000 0.750000 0.750000
Si Si5 0.348349 0.548391 0.969540
Si Si6 0.656797 0.358474 0.643572
O O1 0.134068 0.371362 0.237787
O O2 0.130637 0.238302 0.106832
O O3 0.040282 0.310739 0.177721
O O4 0.104597 0.404416 0.038782
O O5 0.775994 0.077384 0.697078
O O6 0.703491 0.042091 0.547938
O O7 0.705824 0.250000 0.250000
O O8 0.671742 0.389535 0.127585
O O9 0.777191 0.351175 0.150558
O O10 0.359303 0.445837 0.926399
#
# Coordination Sequence:
#
# PCOD9505778 Si02
#       6
#    16   8  16   4  16  16
#     4  10  21  38  59  78 105 146 187 244 274 326
#     4  12  20  32  48  76 124 156 176 216 252 342
#     4  12  21  32  46  79 119 151 183 215 262 332
#     4   8  20  44  64  76 102 134 204 252 276 310
#     4  12  21  32  54  82 114 152 185 217 278 330
#     4  10  18  35  51  79 113 144 184 218 267 338
#
# _framework density 16.941240000000001
#
# number of rings (size 3 to 8) (size 9 to 14) (size 15 to 20)
#    0.000    1.263    8.421    0.000    2.947    1.684 
#    0.000    4.211    0.000    0.000    0.000    0.000 
#    0.000    0.000    0.000    0.000    0.000    0.000 
#
# Total GULP energy -212127.565966 kJ/mol
# GULP energy per Si atom -5582.304368 kJ/mol
# Density = 1.690268 g / cm^3
# Si number density = 16.941240 Si / 1000 Ang^3
#
#
#
# Elastic Constant Matrix: (Units=GPa)
#
#
# Indices 1 2 3 4 5 6 
#
# 1 55.0152 1.6654 16.7379 0.0000 0.0000 0.0000
# 2 1.6654 82.6187 62.4796 0.0000 0.0000 0.0000
# 3 16.7379 62.4796 86.9422 0.0000 0.0000 0.0000
# 4 0.0000 0.0000 0.0000 22.1070 0.0000 0.0000
# 5 0.0000 0.0000 0.0000 0.0000 14.5725 0.0000
# 6 0.0000 0.0000 0.0000 0.0000 0.0000 11.0862
#
#
#
# Elastic Compliance Matrix: (Units=1/GPa)
#
#
# Indices 1 2 3 4 5 6 
#
# 1 0.020431 0.005613 -0.007967 0.000000 0.000000 0.000000
# 2 0.005613 0.028054 -0.021241 0.000000 0.000000 0.000000
# 3 -0.007967 -0.021241 0.028300 0.000000 0.000000 0.000000
# 4 0.000000 0.000000 0.000000 0.045235 0.000000 0.000000
# 5 0.000000 0.000000 0.000000 0.000000 0.068623 0.000000
# 6 0.000000 0.000000 0.000000 0.000000 0.000000 0.090202
#
#
# Mechanical properties :
#
#
# Convention : Reuss Voigt Hill
#
# Bulk Modulus (GPa) = 33.78955 42.92688 38.35821
# Shear Modulus (GPa) = 14.79727 19.13269 16.96498
#
# Velocity S-wave (km/s) = 2.95862 3.36423 3.16793
# Velocity P-wave (km/s) = 5.62669 6.36274 6.00600
#
# Compressibility (1/GPa) = 0.02959495
#
# Stress axis : x y z
#
# Youngs Moduli (GPa) = 48.94575 35.64538 35.33523
#
# Poissons Ratio (x) = -0.20009 0.28152
# Poissons Ratio (y) = -0.27474 0.75056
# Poissons Ratio (z) = 0.38996 0.75715
#
# Static dielectric constant tensor:
#      x y z
#    x 1.562360 0.000000 0.000000 
#    y 0.000000 1.580040 0.000000 
#    z 0.000000 0.000000 1.580190 
# 
# From -- ./inp_files/13426.got.cif
#   From: 2010.05.17/outbox.cif.g08.bks.cpg/sg68_7_cif.got.tgz:13426.got - 2010.06.03 18:57:09.
