data_PCOD9505564
_publ_section_title
;
Structure prediction by ZEFSAII (Michael W. Deem and Ramdas Pophale) SiO2 
 PCOD9505564
Probable space group: C C C A
;
_chemical_formula_sum "Si O2"
_cell_formula_units_Z 64
_cell_length_a 10.502849
_cell_length_b 16.439449
_cell_length_c 17.322393
_cell_angle_alpha 90.000000
_cell_angle_beta 90.000000
_cell_angle_gamma 90.000000
_cell_volume 2990.902572
_symmetry_space_group_name_H-M "C C C A"
_symmetry_group_IT_number 68
_space_group.IT_coordinate_system_code '2'
_symmetry_cell_setting 'orthorhombic'
loop_
_space_group_symop_operation_xyz
x,y,z
-x,1/2-y,z
x,1/2-y,1/2-z
-x,y,1/2-z
-x,-y,-z
x,1/2+y,-z
-x,1/2+y,1/2+z
x,-y,1/2+z
1/2+x,1/2+y,z
1/2-x,-y,z
1/2+x,-y,1/2-z
1/2-x,1/2+y,1/2-z
1/2-x,1/2-y,-z
1/2+x,y,-z
1/2-x,y,1/2+z
1/2+x,1/2-y,1/2+z
loop_
_atom_site_type_symbol
_atom_site_label
_atom_site_fract_x
_atom_site_fract_y
_atom_site_fract_z
Si Si1 0.638551 0.846291 0.735748
Si Si2 0.496728 0.160501 0.530216
Si Si3 0.389927 0.163314 0.702620
Si Si4 0.226005 0.594121 0.070606
O O1 0.625355 0.750000 0.750000
O O2 0.500000 0.883714 0.750000
O O3 0.751161 0.875563 0.792055
O O4 0.690159 0.861514 0.650135
O O5 0.500000 0.250000 0.492530
O O6 0.437713 0.171557 0.615950
O O7 0.641470 0.129435 0.536917
O O8 0.395872 0.105935 0.484500
O O9 0.378451 0.250000 0.750000
O O10 0.500000 0.117299 0.750000
O O11 0.250000 0.500000 0.086666
#
# Coordination Sequence:
#
# PCOD9505564 Si02
#       4
#    16  16  16  16
#     4  10  22  41  70  97 133 174 238 292 331 409
#     4  12  24  43  76  98 136 190 241 282 339 425
#     4  10  17  38  66  97 126 171 230 289 332 394
#     4  12  28  47  65 106 149 183 227 289 362 417
#
# _framework density 21.398222000000001
#
# number of rings (size 3 to 8) (size 9 to 14) (size 15 to 20)
#    0.000    1.000    5.000    3.000    7.000    0.000 
#    4.500    0.000    0.000    0.000    0.000    0.000 
#    0.000    0.000    0.000    0.000    0.000    0.000 
#
# Total GULP energy -178609.420444 kJ/mol
# GULP energy per Si atom -5581.544389 kJ/mol
# Density = 2.134952 g / cm^3
# Si number density = 21.398222 Si / 1000 Ang^3
#
#
#
# Elastic Constant Matrix: (Units=GPa)
#
#
# Indices 1 2 3 4 5 6 
#
# 1 226.1591 26.2644 24.4613 0.0000 0.0000 0.0000
# 2 26.2644 79.6102 27.3913 0.0000 0.0000 0.0000
# 3 24.4613 27.3913 69.3884 0.0000 0.0000 0.0000
# 4 0.0000 0.0000 0.0000 -684.6580 0.0000 0.0000
# 5 0.0000 0.0000 0.0000 0.0000 45.3644 0.0000
# 6 0.0000 0.0000 0.0000 0.0000 0.0000 12.4185
#
#
#
# Elastic Compliance Matrix: (Units=1/GPa)
#
#
# Indices 1 2 3 4 5 6 
#
# 1 0.004683 -0.001131 -0.001205 0.000000 0.000000 0.000000
# 2 -0.001131 0.014808 -0.005447 0.000000 0.000000 0.000000
# 3 -0.001205 -0.005447 0.016987 0.000000 0.000000 0.000000
# 4 0.000000 0.000000 0.000000 -0.001461 0.000000 0.000000
# 5 0.000000 0.000000 0.000000 0.000000 0.022044 0.000000
# 6 0.000000 0.000000 0.000000 0.000000 0.000000 0.080525
#
#
# Mechanical properties :
#
#
# Convention : Reuss Voigt Hill
#
# Bulk Modulus (GPa) = 47.81600 59.04351 53.42975
# Shear Modulus (GPa) = 31.22618 -105.57231 -37.17306
#
# Velocity S-wave (km/s) = 3.82421 -7.03165 -4.17250
# Velocity P-wave (km/s) = 6.47254 6.18650 1.34553
#
# Compressibility (1/GPa) = 0.02091350
#
# Stress axis : x y z
#
# Youngs Moduli (GPa) = 213.52647 67.52938 58.87000
#
# Poissons Ratio (x) = 0.07635 0.07092
# Poissons Ratio (y) = 0.24141 0.32067
# Poissons Ratio (z) = 0.25723 0.36784
#
# Static dielectric constant tensor:
#      x y z
#    x 1.885590 0.000000 0.000000 
#    y 0.000000 1.808100 0.000000 
#    z 0.000000 0.000000 1.794200 
# 
# From -- ./inp_files/29142.got.cif
#   From: 2010.05.17/outbox.cif.g08.bks.cpg/sg68_15_cif.got.tgz:29142.got - 2010.06.03 18:57:09.
