data_PCOD9505096
_publ_section_title
;
Structure prediction by ZEFSAII (Michael W. Deem and Ramdas Pophale) SiO2 
 PCOD9505096
Probable space group: C M M A
;
_chemical_formula_sum "Si O2"
_cell_formula_units_Z 72
_cell_length_a 15.276152
_cell_length_b 8.760348
_cell_length_c 26.284290
_cell_angle_alpha 90.000000
_cell_angle_beta 90.000000
_cell_angle_gamma 90.000000
_cell_volume 3517.479539
_symmetry_space_group_name_H-M "C M M A"
_symmetry_group_IT_number 67
_symmetry_cell_setting 'orthorhombic'
loop_
_space_group_symop_operation_xyz
x,y,z
-x,1/2-y,z
x,-y,-z
-x,1/2+y,-z
-x,-y,-z
x,1/2+y,-z
-x,y,z
x,1/2-y,z
1/2+x,1/2+y,z
1/2-x,-y,z
1/2+x,1/2-y,-z
1/2-x,y,-z
1/2-x,1/2-y,-z
1/2+x,y,-z
1/2-x,1/2+y,z
1/2+x,-y,z
loop_
_atom_site_type_symbol
_atom_site_label
_atom_site_fract_x
_atom_site_fract_y
_atom_site_fract_z
Si Si1 0.657507 0.569063 0.621285
Si Si2 0.393610 0.070411 0.727174
Si Si3 0.393452 0.429657 0.947470
Si Si4 0.500000 0.432062 0.556386
Si Si5 0.896230 0.064641 0.161859
O O1 0.655136 0.750000 0.615205
O O2 0.750000 0.500000 0.605737
O O3 0.641466 0.524966 0.680187
O O4 0.583047 0.491545 0.587685
O O5 0.500000 0.063263 0.726665
O O6 0.370559 0.250000 0.720737
O O7 0.362278 0.015034 0.782970
O O8 0.500000 0.447236 0.947051
O O9 0.375532 0.250000 0.948863
O O10 0.361302 0.491991 0.892679
O O11 0.360700 0.500000 0.000000
O O12 0.500000 0.250000 0.554497
O O13 0.500000 0.500000 0.500000
O O14 0.889970 0.250000 0.161576
O O15 0.000000 0.029163 0.162006
#
# Coordination Sequence:
#
# PCOD9505096 Si02
#       5
#    16  16  16   8  16
#     4  12  25  42  65  96 131 169 211 256 305 360
#     4   9  16  30  54  80 110 150 196 246 303 362
#     4   8  12  18  28  45  75 117 167 220 276 338
#     4  12  26  48  74 102 134 170 209 252 301 354
#     4   7  11  20  36  59  87 127 178 227 281 350
#
# _framework density 20.469201000000002
#
# number of rings (size 3 to 8) (size 9 to 14) (size 15 to 20)
#    0.000    2.667    1.111    5.667    0.000    0.444 
#    0.000    3.333    0.000    4.000    0.000    0.000 
#    0.000    0.889    0.000   10.222    0.000   12.000 
#
# Total GULP energy -200819.606054 kJ/mol
# GULP energy per Si atom -5578.322390 kJ/mol
# Density = 2.042261 g / cm^3
# Si number density = 20.469201 Si / 1000 Ang^3
#
#
#
# Elastic Constant Matrix: (Units=GPa)
#
#
# Indices 1 2 3 4 5 6 
#
# 1 85.9378 42.2573 59.6767 0.0000 0.0000 0.0000
# 2 42.2573 101.0143 70.7510 0.0000 0.0000 0.0000
# 3 59.6767 70.7510 199.7511 0.0000 0.0000 0.0000
# 4 0.0000 0.0000 0.0000 35.5355 0.0000 0.0000
# 5 0.0000 0.0000 0.0000 0.0000 -27.4502 0.0000
# 6 0.0000 0.0000 0.0000 0.0000 0.0000 15.7689
#
#
#
# Elastic Compliance Matrix: (Units=1/GPa)
#
#
# Indices 1 2 3 4 5 6 
#
# 1 0.016068 -0.004468 -0.003218 0.000000 0.000000 0.000000
# 2 -0.004468 0.014408 -0.003768 0.000000 0.000000 0.000000
# 3 -0.003218 -0.003768 0.007302 0.000000 0.000000 0.000000
# 4 0.000000 0.000000 0.000000 0.028141 0.000000 0.000000
# 5 0.000000 0.000000 0.000000 0.000000 -0.036430 0.000000
# 6 0.000000 0.000000 0.000000 0.000000 0.000000 0.063416
#
#
# Mechanical properties :
#
#
# Convention : Reuss Voigt Hill
#
# Bulk Modulus (GPa) = 67.25002 81.34146 74.29574
# Shear Modulus (GPa) = 41.40087 19.03873 30.21980
#
# Velocity S-wave (km/s) = 4.50220 3.05309 3.84650
# Velocity P-wave (km/s) = 7.74287 7.22864 7.49017
#
# Compressibility (1/GPa) = 0.01486988
#
# Stress axis : x y z
#
# Youngs Moduli (GPa) = 62.23639 69.40549 136.94196
#
# Poissons Ratio (x) = 0.31009 0.44066
# Poissons Ratio (y) = 0.27806 0.51607
# Poissons Ratio (z) = 0.20027 0.26155
#
# Static dielectric constant tensor:
#      x y z
#    x 1.948810 0.000000 0.000000 
#    y 0.000000 1.687690 0.000000 
#    z 0.000000 0.000000 1.774400 
# 
# From -- ./inp_files/44259.got.cif
#   From: 2010.05.17/outbox.cif.g08.bks.cpg/sg67_23_cif.got.tgz:44259.got - 2010.06.03 18:28:57.
