data_PCOD9505717
_publ_section_title
;
Structure prediction by ZEFSAII (Michael W. Deem and Ramdas Pophale) SiO2 
 PCOD9505717
Probable space group: C C C A
;
_chemical_formula_sum "Si O2"
_cell_formula_units_Z 88
_cell_length_a 16.057727
_cell_length_b 24.909126
_cell_length_c 9.214695
_cell_angle_alpha 90.000000
_cell_angle_beta 90.000000
_cell_angle_gamma 90.000000
_cell_volume 3685.730059
_symmetry_space_group_name_H-M "C C C A"
_symmetry_group_IT_number 68
_space_group.IT_coordinate_system_code '2'
_symmetry_cell_setting 'orthorhombic'
loop_
_space_group_symop_operation_xyz
x,y,z
-x,1/2-y,z
x,1/2-y,1/2-z
-x,y,1/2-z
-x,-y,-z
x,1/2+y,-z
-x,1/2+y,1/2+z
x,-y,1/2+z
1/2+x,1/2+y,z
1/2-x,-y,z
1/2+x,-y,1/2-z
1/2-x,1/2+y,1/2-z
1/2-x,1/2-y,-z
1/2+x,y,-z
1/2-x,y,1/2+z
1/2+x,1/2-y,1/2+z
loop_
_atom_site_type_symbol
_atom_site_label
_atom_site_fract_x
_atom_site_fract_y
_atom_site_fract_z
Si Si1 0.500000 0.250000 0.750000
Si Si2 0.651317 0.482421 0.215969
Si Si3 0.698510 0.121080 0.437121
Si Si4 0.742118 0.305794 0.833172
Si Si5 0.879513 0.070572 0.490105
Si Si6 0.408143 0.811294 0.997616
Si Si7 0.000000 0.750000 0.250000
O O1 0.557658 0.215648 0.857789
O O2 0.750000 0.500000 0.230502
O O3 0.644025 0.429670 0.113081
O O4 0.607265 0.533490 0.147337
O O5 0.614354 0.465363 0.368386
O O6 0.673753 0.160811 0.570889
O O7 0.719835 0.154837 0.291027
O O8 0.783515 0.091681 0.487508
O O9 0.725768 0.250000 0.750000
O O10 0.812077 0.298477 0.958604
O O11 0.927570 0.125976 0.493702
O O12 0.449552 0.787275 0.856157
#
# Coordination Sequence:
#
# PCOD9505717 Si02
#       7
#     4  16  16  16  16  16   4
#     4  10  24  46  72  86 112 150 212 278 322 360
#     4  10  18  33  56  86 125 173 197 237 280 363
#     4  10  19  34  54  85 132 170 196 237 285 371
#     4  11  21  37  54  92 132 166 203 243 300 364
#     4  10  21  35  58  90 126 156 212 238 296 360
#     4  10  21  43  64  94 109 158 208 265 313 365
#     4  10  20  42  76  78 116 154 212 270 322 364
#
# _framework density 23.875869000000002
#
# number of rings (size 3 to 8) (size 9 to 14) (size 15 to 20)
#    0.000    1.818    4.545    2.182    2.545    0.000 
#   13.091    3.636    0.000    3.273    0.000    0.000 
#    0.000    0.000    0.000    0.000    0.000    0.000 
#
# Total GULP energy -245907.595711 kJ/mol
# GULP energy per Si atom -5588.808993 kJ/mol
# Density = 2.382153 g / cm^3
# Si number density = 23.875869 Si / 1000 Ang^3
#
#
#
# Elastic Constant Matrix: (Units=GPa)
#
#
# Indices 1 2 3 4 5 6 
#
# 1 23.1381 23.2973 27.7360 0.0000 0.0000 0.0000
# 2 23.2973 177.4940 102.4931 0.0000 0.0000 0.0000
# 3 27.7360 102.4931 177.1407 0.0000 0.0000 0.0000
# 4 0.0000 0.0000 0.0000 115.7036 0.0000 0.0000
# 5 0.0000 0.0000 0.0000 0.0000 66.9871 0.0000
# 6 0.0000 0.0000 0.0000 0.0000 0.0000 39.6446
#
#
#
# Elastic Compliance Matrix: (Units=1/GPa)
#
#
# Indices 1 2 3 4 5 6 
#
# 1 0.054494 -0.003342 -0.006599 0.000000 0.000000 0.000000
# 2 -0.003342 0.008666 -0.004491 0.000000 0.000000 0.000000
# 3 -0.006599 -0.004491 0.009277 0.000000 0.000000 0.000000
# 4 0.000000 0.000000 0.000000 0.008643 0.000000 0.000000
# 5 0.000000 0.000000 0.000000 0.000000 0.014928 0.000000
# 6 0.000000 0.000000 0.000000 0.000000 0.000000 0.025224
#
#
# Mechanical properties :
#
#
# Convention : Reuss Voigt Hill
#
# Bulk Modulus (GPa) = 22.94989 76.09173 49.52081
# Shear Modulus (GPa) = 30.37311 59.41681 44.89496
#
# Velocity S-wave (km/s) = 3.57056 4.99397 4.34100
# Velocity P-wave (km/s) = 5.16058 8.07415 6.77582
#
# Compressibility (1/GPa) = 0.04357319
#
# Stress axis : x y z
#
# Youngs Moduli (GPa) = 18.35067 115.39570 107.79700
#
# Poissons Ratio (x) = 0.38570 0.71130
# Poissons Ratio (y) = 0.06134 0.48408
# Poissons Ratio (z) = 0.12109 0.51821
#
# Static dielectric constant tensor:
#      x y z
#    x 1.999830 0.000000 0.000000 
#    y 0.000000 1.931320 0.000000 
#    z 0.000000 0.000000 1.843070 
# 
# From -- ./inp_files/7155.got.cif
#   From: 2010.05.17/outbox.cif.g08.bks.cpg/sg68_4_cif.got.tgz:7155.got - 2010.06.03 18:57:09.
