data_PCOD9505240
_publ_section_title
;
Structure prediction by ZEFSAII (Michael W. Deem and Ramdas Pophale) SiO2 
 PCOD9505240
Probable space group: C M M A
;
_chemical_formula_sum "Si O2"
_cell_formula_units_Z 48
_cell_length_a 15.000000
_cell_length_b 21.000000
_cell_length_c 15.000000
_cell_angle_alpha 90.000000
_cell_angle_beta 90.000000
_cell_angle_gamma 90.000000
_cell_volume 4725.000000
_symmetry_space_group_name_H-M "C M M A"
_symmetry_group_IT_number 67
_symmetry_cell_setting 'orthorhombic'
loop_
_space_group_symop_operation_xyz
x,y,z
-x,1/2-y,z
x,-y,-z
-x,1/2+y,-z
-x,-y,-z
x,1/2+y,-z
-x,y,z
x,1/2-y,z
1/2+x,1/2+y,z
1/2-x,-y,z
1/2+x,1/2-y,-z
1/2-x,y,-z
1/2-x,1/2-y,-z
1/2+x,y,-z
1/2-x,1/2+y,z
1/2+x,-y,z
loop_
_atom_site_type_symbol
_atom_site_label
_atom_site_fract_x
_atom_site_fract_y
_atom_site_fract_z
Si Si1 0.211838 0.250000 0.402439
Si Si2 0.716898 0.173237 0.876609
Si Si3 0.903350 0.875219 0.195107
Si Si4 0.104657 0.646406 0.695889
Si Si5 0.106241 0.061174 0.060702
Si Si6 0.094657 0.750000 0.314705
Si Si7 0.854242 0.509675 0.741300
O O1 0.250000 0.250000 0.500000
O O2 0.151822 0.311464 0.379533
O O3 0.304907 0.250000 0.349574
O O4 0.725176 0.250000 0.896274
O O5 0.812563 0.138531 0.859739
O O6 0.659786 0.166757 0.784737
O O7 0.660671 0.127804 0.944174
O O8 0.908909 0.813118 0.255572
O O9 0.000000 0.881250 0.146301
O O10 0.894227 0.938711 0.255376
O O11 0.113372 0.569858 0.683126
O O12 0.000000 0.661444 0.706028
O O13 0.126468 0.035181 0.159408
O O14 0.000000 0.072203 0.052582
O O15 0.131060 0.000000 0.000000
O O16 0.000000 0.750000 0.369179
O O17 0.750000 0.500000 0.726009
#
# Coordination Sequence:
#
# PCOD9505240 Si02
#       7
#     8  16  16  16  16   8  16
#     4  12  23  39  60  91 134 171 199 251 331 398
#     4  11  19  35  62  93 123 158 219 280 328 378
#     4  11  19  33  58  89 121 157 210 272 315 368
#     4  11  21  36  59  94 126 159 214 272 317 372
#     4  10  22  38  56  85 124 166 209 261 333 407
#     4  10  20  37  58  83 118 160 209 259 309 372
#     4  11  19  35  61  89 119 161 215 270 321 372
#
# _framework density 10.15873
#
# number of rings (size 3 to 8) (size 9 to 14) (size 15 to 20)
#    0.000    1.167    6.667    3.250    0.000    2.000 
#    0.000    0.000    1.833    6.000    0.000    7.000 
#    0.000    0.000    0.000    0.000    0.000    0.000 
#
# Total GULP energy -267660.688138 kJ/mol
# GULP energy per Si atom -5576.264336 kJ/mol
# Density = 1.013561 g / cm^3
# Si number density = 10.158730 Si / 1000 Ang^3
#
#
#
# Elastic Constant Matrix: (Units=GPa)
#
#
# Indices 1 2 3 4 5 6 
#
# 1 197.9675 45.7199 31.6930 0.0000 0.0000 0.0000
# 2 45.7199 187.5421 27.3584 0.0000 0.0000 0.0000
# 3 31.6930 27.3584 54.7442 0.0000 0.0000 0.0000
# 4 0.0000 0.0000 0.0000 7.5412 0.0000 0.0000
# 5 0.0000 0.0000 0.0000 0.0000 -1.3655 0.0000
# 6 0.0000 0.0000 0.0000 0.0000 0.0000 46.0602
#
#
#
# Elastic Compliance Matrix: (Units=1/GPa)
#
#
# Indices 1 2 3 4 5 6 
#
# 1 0.005731 -0.000985 -0.002826 0.000000 0.000000 0.000000
# 2 -0.000985 0.005921 -0.002389 0.000000 0.000000 0.000000
# 3 -0.002826 -0.002389 0.021096 0.000000 0.000000 0.000000
# 4 0.000000 0.000000 0.000000 0.132605 0.000000 0.000000
# 5 0.000000 0.000000 0.000000 0.000000 -0.732327 0.000000
# 6 0.000000 0.000000 0.000000 0.000000 0.000000 0.021711
#
#
# Mechanical properties :
#
#
# Convention : Reuss Voigt Hill
#
# Bulk Modulus (GPa) = 49.14096 72.19961 60.67028
# Shear Modulus (GPa) = -9.50423 32.81269 11.65423
#
# Velocity S-wave (km/s) = -2.16518 4.02307 2.39761
# Velocity P-wave (km/s) = 4.24127 7.56260 6.13112
#
# Compressibility (1/GPa) = 0.02034962
#
# Stress axis : x y z
#
# Youngs Moduli (GPa) = 174.48416 168.89874 47.40150
#
# Poissons Ratio (x) = 0.16636 0.13394
# Poissons Ratio (y) = 0.17186 0.11323
# Poissons Ratio (z) = 0.49304 0.40344
#
# Static dielectric constant tensor:
#      x y z
#    x 3.034390 0.000000 0.000000 
#    y 0.000000 1.752990 0.000000 
#    z 0.000000 0.000000 1.861950 
# 
# From -- ./inp_files/27256.got.cif
#   From: 2010.05.17/outbox.ucp.g08.bks.cvg/sg67_14_cif.got.tgz:27256.got - 2010.06.11 16:47:20.
