data_PCOD9505451
_publ_section_title
;
Structure prediction by ZEFSAII (Michael W. Deem and Ramdas Pophale) SiO2 
 PCOD9505451
Probable space group: C C C A
;
_chemical_formula_sum "Si O2"
_cell_formula_units_Z 112
_cell_length_a 25.769119
_cell_length_b 9.542259
_cell_length_c 25.266847
_cell_angle_alpha 90.000000
_cell_angle_beta 90.000000
_cell_angle_gamma 90.000000
_cell_volume 6213.006698
_symmetry_space_group_name_H-M "C C C A"
_symmetry_group_IT_number 68
_space_group.IT_coordinate_system_code '2'
_symmetry_cell_setting 'orthorhombic'
loop_
_space_group_symop_operation_xyz
x,y,z
-x,1/2-y,z
x,1/2-y,1/2-z
-x,y,1/2-z
-x,-y,-z
x,1/2+y,-z
-x,1/2+y,1/2+z
x,-y,1/2+z
1/2+x,1/2+y,z
1/2-x,-y,z
1/2+x,-y,1/2-z
1/2-x,1/2+y,1/2-z
1/2-x,1/2-y,-z
1/2+x,y,-z
1/2-x,y,1/2+z
1/2+x,1/2-y,1/2+z
loop_
_atom_site_type_symbol
_atom_site_label
_atom_site_fract_x
_atom_site_fract_y
_atom_site_fract_z
Si Si1 0.690669 0.964392 0.937899
Si Si2 0.012253 0.516325 0.914169
Si Si3 0.148175 0.670741 0.028440
Si Si4 0.603232 0.029264 0.351480
Si Si5 0.049093 0.161723 0.494520
Si Si6 0.418739 0.140424 0.372162
Si Si7 0.439267 0.581147 0.742801
O O1 0.750000 0.000000 0.926445
O O2 0.684653 0.799394 0.952830
O O3 0.654124 0.996191 0.886817
O O4 0.672291 0.058794 0.988191
O O5 0.055437 0.562891 0.873367
O O6 0.968119 0.617848 0.936409
O O7 0.977069 0.395436 0.889389
O O8 0.046399 0.468841 0.965330
O O9 0.121464 0.602810 0.080785
O O10 0.100978 0.753087 0.999966
O O11 0.588857 0.192450 0.364909
O O12 0.598403 0.021165 0.288332
O O13 0.000000 0.250000 0.513418
O O14 0.415484 0.063124 0.315705
O O15 0.441164 0.750000 0.750000
O O16 0.500000 0.534662 0.750000
#
# Coordination Sequence:
#
# PCOD9505451 Si02
#       7
#    16  16  16  16  16  16  16
#     4  11  23  38  55  75 103 141 185 231 270 314
#     4  11  17  26  43  72 106 140 161 195 256 325
#     4  11  21  35  53  78 108 140 176 222 278 324
#     4  10  18  30  47  72 106 138 170 213 267 311
#     4  11  19  26  43  71 108 137 164 198 253 331
#     4  10  17  27  46  75 108 136 161 209 264 322
#     4   9  16  25  44  74 109 137 165 208 264 318
#
# _framework density 18.026699000000001
#
# number of rings (size 3 to 8) (size 9 to 14) (size 15 to 20)
#    0.000    1.571    5.714    2.571    0.000    0.000 
#    0.000    0.000    0.000    0.857    0.000   20.000 
#    0.000    0.000    0.000    0.000    0.000    0.000 
#
# Total GULP energy -311846.583093 kJ/mol
# GULP energy per Si atom -5568.688984 kJ/mol
# Density = 1.798567 g / cm^3
# Si number density = 18.026699 Si / 1000 Ang^3
#
#
#
# Elastic Constant Matrix: (Units=GPa)
#
#
# Indices 1 2 3 4 5 6 
#
# 1 114.9601 21.5820 64.0431 0.0000 0.0000 0.0000
# 2 21.5820 24.0980 27.7695 0.0000 0.0000 0.0000
# 3 64.0431 27.7695 150.8785 0.0000 0.0000 0.0000
# 4 0.0000 0.0000 0.0000 13.4191 0.0000 0.0000
# 5 0.0000 0.0000 0.0000 0.0000 16.0927 0.0000
# 6 0.0000 0.0000 0.0000 0.0000 0.0000 17.3567
#
#
#
# Elastic Compliance Matrix: (Units=1/GPa)
#
#
# Indices 1 2 3 4 5 6 
#
# 1 0.012089 -0.006236 -0.003983 0.000000 0.000000 0.000000
# 2 -0.006236 0.055885 -0.007639 0.000000 0.000000 0.000000
# 3 -0.003983 -0.007639 0.009725 0.000000 0.000000 0.000000
# 4 0.000000 0.000000 0.000000 0.074520 0.000000 0.000000
# 5 0.000000 0.000000 0.000000 0.000000 0.062140 0.000000
# 6 0.000000 0.000000 0.000000 0.000000 0.000000 0.057615
#
#
# Mechanical properties :
#
#
# Convention : Reuss Voigt Hill
#
# Bulk Modulus (GPa) = 23.82007 57.41398 40.61702
# Shear Modulus (GPa) = 15.54326 21.14318 18.34322
#
# Velocity S-wave (km/s) = 2.93957 3.42845 3.19338
# Velocity P-wave (km/s) = 4.97633 6.89862 6.01477
#
# Compressibility (1/GPa) = 0.04198141
#
# Stress axis : x y z
#
# Youngs Moduli (GPa) = 82.72314 17.89403 102.83201
#
# Poissons Ratio (x) = 0.11159 0.40962
# Poissons Ratio (y) = 0.51586 0.78550
# Poissons Ratio (z) = 0.32952 0.13669
#
# Static dielectric constant tensor:
#      x y z
#    x 1.609700 0.000000 0.000000 
#    y 0.000000 1.710510 0.000000 
#    z 0.000000 0.000000 1.693790 
# 
# From -- ./inp_files/47033.got.cif
#   From: 2010.05.17/outbox.cif.g08.bks.cpg/sg68_24_cif.got.tgz:47033.got - 2010.06.03 18:57:09.
