data_PCOD9505049
_publ_section_title
;
Structure prediction by ZEFSAII (Michael W. Deem and Ramdas Pophale) SiO2 
 PCOD9505049
Probable space group: C M M A
;
_chemical_formula_sum "Si O2"
_cell_formula_units_Z 72
_cell_length_a 27.384343
_cell_length_b 14.051197
_cell_length_c 9.198788
_cell_angle_alpha 90.000000
_cell_angle_beta 90.000000
_cell_angle_gamma 90.000000
_cell_volume 3539.535387
_symmetry_space_group_name_H-M "C M M A"
_symmetry_group_IT_number 67
_symmetry_cell_setting 'orthorhombic'
loop_
_space_group_symop_operation_xyz
x,y,z
-x,1/2-y,z
x,-y,-z
-x,1/2+y,-z
-x,-y,-z
x,1/2+y,-z
-x,y,z
x,1/2-y,z
1/2+x,1/2+y,z
1/2-x,-y,z
1/2+x,1/2-y,-z
1/2-x,y,-z
1/2-x,1/2-y,-z
1/2+x,y,-z
1/2-x,1/2+y,z
1/2+x,-y,z
loop_
_atom_site_type_symbol
_atom_site_label
_atom_site_fract_x
_atom_site_fract_y
_atom_site_fract_z
Si Si1 0.168697 0.593613 0.197519
Si Si2 0.500000 0.039318 0.164362
Si Si3 0.387894 0.750000 0.985874
Si Si4 0.750000 0.500000 0.000000
Si Si5 0.696521 0.250000 0.433372
Si Si6 0.500000 0.250000 0.071751
Si Si7 0.618125 0.750000 0.311925
Si Si8 0.907849 0.038744 0.336520
O O1 0.130927 0.658161 0.103459
O O2 0.186041 0.658818 0.331644
O O3 0.140770 0.501020 0.257893
O O4 0.214377 0.563363 0.099737
O O5 0.500000 0.153205 0.162210
O O6 0.547220 0.002356 0.247063
O O7 0.500000 0.000000 0.000000
O O8 0.446851 0.750000 0.006762
O O9 0.364401 0.750000 0.145115
O O10 0.750000 0.250000 0.500000
O O11 0.660205 0.250000 0.568840
O O12 0.589474 0.847784 0.334819
O O13 0.908383 0.000000 0.500000
#
# Coordination Sequence:
#
# PCOD9505049 Si02
#       8
#    16   8   8   4   8   4   8  16
#     4  11  26  47  72 106 145 193 246 301 373 430
#     4  12  27  45  77 112 147 193 250 295 370 436
#     4  11  24  45  79 106 146 195 242 294 367 441
#     4  12  28  42  74 106 144 194 258 318 356 438
#     4  11  27  46  71 104 142 193 242 299 376 440
#     4  12  22  46  78 112 150 192 238 308 368 434
#     4  12  26  45  73 103 146 186 241 301 358 437
#     4  12  26  48  72 107 148 193 241 300 370 443
#
# _framework density 20.341653000000001
#
# number of rings (size 3 to 8) (size 9 to 14) (size 15 to 20)
#    0.000    0.444    4.444    3.000    7.778    2.222 
#    0.000    0.000    0.000    0.000    0.000    0.000 
#    0.000    0.000    0.000    0.000    0.000    0.000 
#
# Total GULP energy -201451.811640 kJ/mol
# GULP energy per Si atom -5595.883657 kJ/mol
# Density = 2.029535 g / cm^3
# Si number density = 20.341653 Si / 1000 Ang^3
#
#
#
# Elastic Constant Matrix: (Units=GPa)
#
#
# Indices 1 2 3 4 5 6 
#
# 1 135.8822 48.8944 65.4084 0.0000 0.0000 0.0000
# 2 48.8944 174.6873 54.4129 0.0000 0.0000 0.0000
# 3 65.4084 54.4129 155.2551 0.0000 0.0000 0.0000
# 4 0.0000 0.0000 0.0000 21.5749 0.0000 0.0000
# 5 0.0000 0.0000 0.0000 0.0000 41.1836 0.0000
# 6 0.0000 0.0000 0.0000 0.0000 0.0000 30.6389
#
#
#
# Elastic Compliance Matrix: (Units=1/GPa)
#
#
# Indices 1 2 3 4 5 6 
#
# 1 0.009616 -0.001605 -0.003489 0.000000 0.000000 0.000000
# 2 -0.001605 0.006694 -0.001670 0.000000 0.000000 0.000000
# 3 -0.003489 -0.001670 0.008496 0.000000 0.000000 0.000000
# 4 0.000000 0.000000 0.000000 0.046350 0.000000 0.000000
# 5 0.000000 0.000000 0.000000 0.000000 0.024281 0.000000
# 6 0.000000 0.000000 0.000000 0.000000 0.000000 0.032638
#
#
# Mechanical properties :
#
#
# Convention : Reuss Voigt Hill
#
# Bulk Modulus (GPa) = 88.66013 89.25068 88.95540
# Shear Modulus (GPa) = 34.39673 38.48676 36.44175
#
# Velocity S-wave (km/s) = 4.11658 4.35445 4.23718
# Velocity P-wave (km/s) = 8.14095 8.32182 8.23188
#
# Compressibility (1/GPa) = 0.01127903
#
# Stress axis : x y z
#
# Youngs Moduli (GPa) = 103.99180 149.39072 117.70109
#
# Poissons Ratio (x) = 0.23974 0.41064
# Poissons Ratio (y) = 0.16689 0.19655
# Poissons Ratio (z) = 0.36281 0.24947
#
# Static dielectric constant tensor:
#      x y z
#    x 1.723430 0.000000 0.000000 
#    y 0.000000 1.717230 0.000000 
#    z 0.000000 0.000000 1.696430 
# 
# From -- ./inp_files/13401.got.cif
#   From: 2010.05.17/outbox.cif.g08.bks.cpg/sg67_7_cif.got.tgz:13401.got - 2010.06.03 18:28:57.
