data_PCOD9505467
_publ_section_title
;
Structure prediction by ZEFSAII (Michael W. Deem and Ramdas Pophale) SiO2 
 PCOD9505467
Probable space group: C C C A
;
_chemical_formula_sum "Si O2"
_cell_formula_units_Z 96
_cell_length_a 20.966606
_cell_length_b 8.310775
_cell_length_c 26.971664
_cell_angle_alpha 90.000000
_cell_angle_beta 90.000000
_cell_angle_gamma 90.000000
_cell_volume 4699.778602
_symmetry_space_group_name_H-M "C C C A"
_symmetry_group_IT_number 68
_space_group.IT_coordinate_system_code '2'
_symmetry_cell_setting 'orthorhombic'
loop_
_space_group_symop_operation_xyz
x,y,z
-x,1/2-y,z
x,1/2-y,1/2-z
-x,y,1/2-z
-x,-y,-z
x,1/2+y,-z
-x,1/2+y,1/2+z
x,-y,1/2+z
1/2+x,1/2+y,z
1/2-x,-y,z
1/2+x,-y,1/2-z
1/2-x,1/2+y,1/2-z
1/2-x,1/2-y,-z
1/2+x,y,-z
1/2-x,y,1/2+z
1/2+x,1/2-y,1/2+z
loop_
_atom_site_type_symbol
_atom_site_label
_atom_site_fract_x
_atom_site_fract_y
_atom_site_fract_z
Si Si1 0.115442 0.418678 0.069304
Si Si2 0.180908 0.871243 0.353264
Si Si3 0.065354 0.348033 0.880795
Si Si4 0.928135 0.770871 0.012451
Si Si5 0.433659 0.793551 0.158413
Si Si6 0.802428 0.691814 0.802431
O O1 0.171162 0.518402 0.097273
O O2 0.079521 0.554354 0.037139
O O3 0.076467 0.337014 0.114150
O O4 0.123092 0.276036 0.029360
O O5 0.122659 0.748815 0.354811
O O6 0.248188 0.783459 0.344458
O O7 0.179958 0.002796 0.308865
O O8 0.078000 0.344471 0.939775
O O9 0.060806 0.528205 0.862648
O O10 0.000000 0.250000 0.872827
O O11 0.000000 0.750000 0.992028
O O12 0.500000 0.750000 0.184527
O O13 0.368440 0.783238 0.188752
O O14 0.776442 0.750000 0.750000
#
# Coordination Sequence:
#
# PCOD9505467 Si02
#       6
#    16  16  16  16  16  16
#     4  10  19  32  54  85 121 161 199 243 285 340
#     4   9  21  39  59  87 122 152 195 246 295 353
#     4  10  20  35  57  88 124 160 200 246 291 340
#     4  10  17  28  50  83 119 159 207 241 278 338
#     4  11  21  36  59  86 118 154 194 246 307 352
#     4  10  22  41  65  84 109 149 192 242 300 371
#
# _framework density 20.426494000000002
#
# number of rings (size 3 to 8) (size 9 to 14) (size 15 to 20)
#    0.000    2.000    0.000    6.000    0.000    3.667 
#    0.000    0.000    0.000   69.500    0.000    0.000 
#    0.000    0.000    0.000    0.000    0.000    0.000 
#
# Total GULP energy -267479.532262 kJ/mol
# GULP energy per Si atom -5572.490255 kJ/mol
# Density = 2.038000 g / cm^3
# Si number density = 20.426494 Si / 1000 Ang^3
#
#
#
# Elastic Constant Matrix: (Units=GPa)
#
#
# Indices 1 2 3 4 5 6 
#
# 1 134.0219 27.9228 39.0250 0.0000 0.0000 0.0000
# 2 27.9228 70.4605 26.8903 0.0000 0.0000 0.0000
# 3 39.0250 26.8903 64.3909 0.0000 0.0000 0.0000
# 4 0.0000 0.0000 0.0000 27.3188 0.0000 0.0000
# 5 0.0000 0.0000 0.0000 0.0000 18.3399 0.0000
# 6 0.0000 0.0000 0.0000 0.0000 0.0000 28.2599
#
#
#
# Elastic Compliance Matrix: (Units=1/GPa)
#
#
# Indices 1 2 3 4 5 6 
#
# 1 0.009252 -0.001816 -0.004849 0.000000 0.000000 0.000000
# 2 -0.001816 0.017240 -0.006099 0.000000 0.000000 0.000000
# 3 -0.004849 -0.006099 0.021016 0.000000 0.000000 0.000000
# 4 0.000000 0.000000 0.000000 0.036605 0.000000 0.000000
# 5 0.000000 0.000000 0.000000 0.000000 0.054526 0.000000
# 6 0.000000 0.000000 0.000000 0.000000 0.000000 0.035386
#
#
# Mechanical properties :
#
#
# Convention : Reuss Voigt Hill
#
# Bulk Modulus (GPa) = 45.49607 50.72772 48.11190
# Shear Modulus (GPa) = 24.16893 26.45274 25.31084
#
# Velocity S-wave (km/s) = 3.44352 3.60254 3.52393
# Velocity P-wave (km/s) = 6.17510 6.49559 6.33737
#
# Compressibility (1/GPa) = 0.02197992
#
# Stress axis : x y z
#
# Youngs Moduli (GPa) = 108.08841 58.00627 47.58328
#
# Poissons Ratio (x) = 0.10533 0.23072
# Poissons Ratio (y) = 0.19628 0.29020
# Poissons Ratio (z) = 0.52410 0.35377
#
# Static dielectric constant tensor:
#      x y z
#    x 1.773590 0.000000 0.000000 
#    y 0.000000 1.794660 0.000000 
#    z 0.000000 0.000000 1.745790 
# 
# From -- ./inp_files/51734.got.cif
#   From: 2010.05.17/outbox.cif.g08.bks.cpg/sg68_26_cif.got.tgz:51734.got - 2010.06.03 18:57:09.
