data_PCOD9505269
_publ_section_title
;
Structure prediction by ZEFSAII (Michael W. Deem and Ramdas Pophale) SiO2 
 PCOD9505269
Probable space group: C M M A
;
_chemical_formula_sum "Si O2"
_cell_formula_units_Z 46
_cell_length_a 24.000000
_cell_length_b 21.000000
_cell_length_c 9.000000
_cell_angle_alpha 90.000000
_cell_angle_beta 90.000000
_cell_angle_gamma 90.000000
_cell_volume 4536.000000
_symmetry_space_group_name_H-M "C M M A"
_symmetry_group_IT_number 67
_symmetry_cell_setting 'orthorhombic'
loop_
_space_group_symop_operation_xyz
x,y,z
-x,1/2-y,z
x,-y,-z
-x,1/2+y,-z
-x,-y,-z
x,1/2+y,-z
-x,y,z
x,1/2-y,z
1/2+x,1/2+y,z
1/2-x,-y,z
1/2+x,1/2-y,-z
1/2-x,y,-z
1/2-x,1/2-y,-z
1/2+x,y,-z
1/2-x,1/2+y,z
1/2+x,-y,z
loop_
_atom_site_type_symbol
_atom_site_label
_atom_site_fract_x
_atom_site_fract_y
_atom_site_fract_z
Si Si1 0.611030 0.481772 0.175113
Si Si2 0.565872 0.750000 0.751385
Si Si3 0.000000 0.008664 0.680998
Si Si4 0.655522 0.638963 0.683766
Si Si5 0.500000 0.637270 0.272275
Si Si6 0.372224 0.884605 0.341938
Si Si7 0.000000 0.250000 0.038098
Si Si8 0.768895 0.675511 0.836052
O O1 0.553574 0.457875 0.251348
O O2 0.650918 0.422895 0.209746
O O3 0.624461 0.544165 0.273830
O O4 0.607021 0.500000 0.000000
O O5 0.500000 0.750000 0.690100
O O6 0.604974 0.689391 0.712492
O O7 0.552850 0.750000 0.927653
O O8 0.000000 0.938510 0.756316
O O9 0.000000 0.000000 0.500000
O O10 0.649251 0.618356 0.511439
O O11 0.716024 0.667412 0.725160
O O12 0.563389 0.643572 0.342041
O O13 0.500000 0.687009 0.138253
O O14 0.325757 0.851778 0.236444
O O15 0.779656 0.750000 0.856921
O O16 0.750000 0.650068 0.000000
#
# Coordination Sequence:
#
# PCOD9505269 Si02
#       8
#    16   8   8  16   8  16   4  16
#     4  11  24  41  71 100 137 181 232 289 348 412
#     4  10  28  41  69 101 147 185 234 282 351 410
#     4  10  21  40  63  97 139 183 230 280 355 416
#     4  12  25  46  71 101 146 179 238 281 354 415
#     4  10  24  40  69 100 141 177 230 285 350 405
#     4  11  26  45  70 104 142 181 235 286 355 411
#     4  10  26  40  66 102 148 176 240 284 348 404
#     4  11  26  45  72  99 140 187 236 285 343 418
#
# _framework density 10.141093
#
# number of rings (size 3 to 8) (size 9 to 14) (size 15 to 20)
#    0.261    0.870    0.870    4.435   12.174    1.391 
#    0.000    3.478    0.000    0.000    0.000    0.000 
#    0.000    0.000    0.000    0.000    0.000    0.000 
#
# Total GULP energy -256505.361707 kJ/mol
# GULP energy per Si atom -5576.203515 kJ/mol
# Density = 1.011801 g / cm^3
# Si number density = 10.141093 Si / 1000 Ang^3
#
#
#
# Elastic Constant Matrix: (Units=GPa)
#
#
# Indices 1 2 3 4 5 6 
#
# 1 132.2637 24.5869 19.4859 0.0000 0.0000 0.0000
# 2 24.5869 89.6726 31.9655 0.0000 0.0000 0.0000
# 3 19.4859 31.9655 133.0152 0.0000 0.0000 0.0000
# 4 0.0000 0.0000 0.0000 33.3094 0.0000 0.0000
# 5 0.0000 0.0000 0.0000 0.0000 39.4498 0.0000
# 6 0.0000 0.0000 0.0000 0.0000 0.0000 31.8683
#
#
#
# Elastic Compliance Matrix: (Units=1/GPa)
#
#
# Indices 1 2 3 4 5 6 
#
# 1 0.008027 -0.001949 -0.000708 0.000000 0.000000 0.000000
# 2 -0.001949 0.012670 -0.002759 0.000000 0.000000 0.000000
# 3 -0.000708 -0.002759 0.008285 0.000000 0.000000 0.000000
# 4 0.000000 0.000000 0.000000 0.030022 0.000000 0.000000
# 5 0.000000 0.000000 0.000000 0.000000 0.025349 0.000000
# 6 0.000000 0.000000 0.000000 0.000000 0.000000 0.031379
#
#
# Mechanical properties :
#
#
# Convention : Reuss Voigt Hill
#
# Bulk Modulus (GPa) = 55.09538 56.33646 55.71592
# Shear Modulus (GPa) = 37.70402 39.51972 38.61187
#
# Velocity S-wave (km/s) = 4.31626 4.41896 4.36791
# Velocity P-wave (km/s) = 7.21550 7.33982 7.27793
#
# Compressibility (1/GPa) = 0.01815034
#
# Stress axis : x y z
#
# Youngs Moduli (GPa) = 124.57720 78.92941 120.70473
#
# Poissons Ratio (x) = 0.15381 0.08541
# Poissons Ratio (y) = 0.24276 0.33305
# Poissons Ratio (z) = 0.08815 0.21778
#
# Static dielectric constant tensor:
#      x y z
#    x 1.786040 0.000000 0.000000 
#    y 0.000000 1.711260 0.000000 
#    z 0.000000 0.000000 1.709210 
# 
# From -- ./inp_files/12531.got.cif
#   From: 2010.05.17/outbox.ucp.g08.bks.cvg/sg67_7_cif.got.tgz:12531.got - 2010.06.11 16:47:20.
