data_PCOD9505501
_publ_section_title
;
Structure prediction by ZEFSAII (Michael W. Deem and Ramdas Pophale) SiO2 
 PCOD9505501
Probable space group: C C C A
;
_chemical_formula_sum "Si O2"
_cell_formula_units_Z 96
_cell_length_a 7.196377
_cell_length_b 24.585825
_cell_length_c 22.131882
_cell_angle_alpha 90.000000
_cell_angle_beta 90.000000
_cell_angle_gamma 90.000000
_cell_volume 3915.768775
_symmetry_space_group_name_H-M "C C C A"
_symmetry_group_IT_number 68
_space_group.IT_coordinate_system_code '2'
_symmetry_cell_setting 'orthorhombic'
loop_
_space_group_symop_operation_xyz
x,y,z
-x,1/2-y,z
x,1/2-y,1/2-z
-x,y,1/2-z
-x,-y,-z
x,1/2+y,-z
-x,1/2+y,1/2+z
x,-y,1/2+z
1/2+x,1/2+y,z
1/2-x,-y,z
1/2+x,-y,1/2-z
1/2-x,1/2+y,1/2-z
1/2-x,1/2-y,-z
1/2+x,y,-z
1/2-x,y,1/2+z
1/2+x,1/2-y,1/2+z
loop_
_atom_site_type_symbol
_atom_site_label
_atom_site_fract_x
_atom_site_fract_y
_atom_site_fract_z
Si Si1 0.258498 0.935085 0.302211
Si Si2 0.184725 0.105850 0.176112
Si Si3 0.761215 0.594956 0.427746
Si Si4 0.717660 0.266312 0.685325
Si Si5 0.127810 0.053837 0.052369
Si Si6 0.303861 0.778042 0.436688
O O1 0.209376 0.920546 0.233074
O O2 0.466580 0.909796 0.311975
O O3 0.153156 0.910999 0.360874
O O4 0.250000 0.000000 0.306264
O O5 0.219255 0.169375 0.178456
O O6 0.219149 0.086246 0.108013
O O7 0.589370 0.551936 0.429922
O O8 0.878863 0.581773 0.486854
O O9 0.689923 0.656689 0.437714
O O10 0.500000 0.250000 0.689284
O O11 0.798777 0.250000 0.750000
O O12 0.799287 0.237761 0.625578
O O13 0.250000 0.000000 0.048070
O O14 0.500000 0.750000 0.427314
O O15 0.250000 0.750000 0.500000
#
# Coordination Sequence:
#
# PCOD9505501 Si02
#       6
#    16  16  16  16  16  16
#     4  10  19  33  53  75 105 143 180 223 271 319
#     4  10  20  35  52  80 110 139 180 228 272 326
#     4  11  22  38  56  83 113 145 185 230 273 329
#     4  10  17  31  56  83 107 137 178 229 276 321
#     4  11  22  37  57  80 112 150 187 227 274 326
#     4  11  21  36  58  85 112 144 181 227 280 330
#
# _framework density 24.516259000000002
#
# number of rings (size 3 to 8) (size 9 to 14) (size 15 to 20)
#    0.000    1.500    0.000   10.500    0.000    1.333 
#    0.000    0.000    0.000    0.500    0.000    7.000 
#    0.000    0.000    0.000    0.000    0.000    0.000 
#
# Total GULP energy -268149.987145 kJ/mol
# GULP energy per Si atom -5586.458066 kJ/mol
# Density = 2.446046 g / cm^3
# Si number density = 24.516259 Si / 1000 Ang^3
#
#
#
# Elastic Constant Matrix: (Units=GPa)
#
#
# Indices 1 2 3 4 5 6 
#
# 1 57.5902 -11.5973 8.9225 0.0000 0.0000 0.0000
# 2 -11.5973 152.8428 50.2520 0.0000 0.0000 0.0000
# 3 8.9225 50.2520 277.3355 0.0000 0.0000 0.0000
# 4 0.0000 0.0000 0.0000 54.5550 0.0000 0.0000
# 5 0.0000 0.0000 0.0000 0.0000 30.4772 0.0000
# 6 0.0000 0.0000 0.0000 0.0000 0.0000 -2.6996
#
#
#
# Elastic Compliance Matrix: (Units=1/GPa)
#
#
# Indices 1 2 3 4 5 6 
#
# 1 0.017829 0.001639 -0.000871 0.000000 0.000000 0.000000
# 2 0.001639 0.007108 -0.001341 0.000000 0.000000 0.000000
# 3 -0.000871 -0.001341 0.003877 0.000000 0.000000 0.000000
# 4 0.000000 0.000000 0.000000 0.018330 0.000000 0.000000
# 5 0.000000 0.000000 0.000000 0.000000 0.032811 0.000000
# 6 0.000000 0.000000 0.000000 0.000000 0.000000 -0.370425
#
#
# Mechanical properties :
#
#
# Convention : Reuss Voigt Hill
#
# Bulk Modulus (GPa) = 36.14134 64.76922 50.45528
# Shear Modulus (GPa) = -17.85063 45.81261 13.98099
#
# Velocity S-wave (km/s) = -2.70129 4.32749 2.39063
# Velocity P-wave (km/s) = 2.24600 7.17257 5.31462
#
# Compressibility (1/GPa) = 0.02766915
#
# Stress axis : x y z
#
# Youngs Moduli (GPa) = 56.08834 140.69025 257.95354
#
# Poissons Ratio (x) = -0.23060 0.22457
# Poissons Ratio (y) = -0.09193 0.34582
# Poissons Ratio (z) = 0.04883 0.18861
#
# Static dielectric constant tensor:
#      x y z
#    x 2.158170 0.000000 0.000000 
#    y 0.000000 2.065000 0.000000 
#    z 0.000000 0.000000 2.070600 
# 
# From -- ./inp_files/37662.got.cif
#   From: 2010.05.17/outbox.cif.g08.bks.cpg/sg68_19_cif.got.tgz:37662.got - 2010.06.03 18:57:09.
