data_PCOD9505858
_publ_section_title
;
Structure prediction by ZEFSAII (Michael W. Deem and Ramdas Pophale) SiO2 
 PCOD9505858
Probable space group: C C C A
;
_chemical_formula_sum "Si O2"
_cell_formula_units_Z 104
_cell_length_a 28.626704
_cell_length_b 19.790341
_cell_length_c 9.587809
_cell_angle_alpha 90.000000
_cell_angle_beta 90.000000
_cell_angle_gamma 90.000000
_cell_volume 5431.802851
_symmetry_space_group_name_H-M "C C C A"
_symmetry_group_IT_number 68
_space_group.IT_coordinate_system_code '2'
_symmetry_cell_setting 'orthorhombic'
loop_
_space_group_symop_operation_xyz
x,y,z
-x,1/2-y,z
x,1/2-y,1/2-z
-x,y,1/2-z
-x,-y,-z
x,1/2+y,-z
-x,1/2+y,1/2+z
x,-y,1/2+z
1/2+x,1/2+y,z
1/2-x,-y,z
1/2+x,-y,1/2-z
1/2-x,1/2+y,1/2-z
1/2-x,1/2-y,-z
1/2+x,y,-z
1/2-x,y,1/2+z
1/2+x,1/2-y,1/2+z
loop_
_atom_site_type_symbol
_atom_site_label
_atom_site_fract_x
_atom_site_fract_y
_atom_site_fract_z
Si Si1 0.409024 0.359627 0.022376
Si Si2 0.703767 0.539976 0.190413
Si Si3 0.663409 0.324261 0.727316
Si Si4 0.493753 0.830114 0.415563
Si Si5 0.389131 0.142601 0.014142
Si Si6 0.643638 0.501712 0.944238
Si Si7 0.111785 0.250000 0.750000
O O1 0.374919 0.332371 0.897449
O O2 0.462189 0.368746 0.977869
O O3 0.387907 0.431756 0.064555
O O4 0.410725 0.302627 0.141629
O O5 0.750000 0.500000 0.229002
O O6 0.703808 0.620787 0.203327
O O7 0.688861 0.521156 0.034916
O O8 0.661382 0.519416 0.292380
O O9 0.682977 0.250000 0.750000
O O10 0.636026 0.337522 0.870417
O O11 0.500000 0.750000 0.437887
O O12 0.500000 0.841181 0.250000
O O13 0.444363 0.848228 0.484947
O O14 0.370029 0.192251 0.137074
O O15 0.378950 0.062479 0.023448
#
# Coordination Sequence:
#
# PCOD9505858 Si02
#       7
#    16  16  16  16  16  16   8
#     4  11  22  36  61  88 122 164 206 250 301 355
#     4  10  21  39  68  89 120 154 196 248 311 376
#     4  10  18  38  62  87 115 159 206 240 292 373
#     4  11  20  35  60  82 114 161 219 248 286 351
#     4  11  22  36  61  88 122 164 206 250 301 355
#     4  10  23  41  62  92 124 160 200 249 311 374
#     4  12  22  35  56  90 130 152 204 254 310 330
#
# _framework density 19.146498999999999
#
# number of rings (size 3 to 8) (size 9 to 14) (size 15 to 20)
#    0.000    1.385    4.615    1.385    0.000    1.846 
#    0.000    0.000    6.769    3.692    0.000    0.000 
#    0.000    0.000    0.000    0.000    0.000    0.000 
#
# Total GULP energy -289484.357860 kJ/mol
# GULP energy per Si atom -5567.006882 kJ/mol
# Density = 1.910292 g / cm^3
# Si number density = 19.146499 Si / 1000 Ang^3
#
#
#
# Elastic Constant Matrix: (Units=GPa)
#
#
# Indices 1 2 3 4 5 6 
#
# 1 63.8129 38.9411 1.1257 0.0000 0.0000 0.0000
# 2 38.9411 144.0828 16.2923 0.0000 0.0000 0.0000
# 3 1.1257 16.2923 67.2394 0.0000 0.0000 0.0000
# 4 0.0000 0.0000 0.0000 19.3745 0.0000 0.0000
# 5 0.0000 0.0000 0.0000 0.0000 10.2666 0.0000
# 6 0.0000 0.0000 0.0000 0.0000 0.0000 12.8591
#
#
#
# Elastic Compliance Matrix: (Units=1/GPa)
#
#
# Indices 1 2 3 4 5 6 
#
# 1 0.018824 -0.005194 0.000943 0.000000 0.000000 0.000000
# 2 -0.005194 0.008569 -0.001989 0.000000 0.000000 0.000000
# 3 0.000943 -0.001989 0.015338 0.000000 0.000000 0.000000
# 4 0.000000 0.000000 0.000000 0.051614 0.000000 0.000000
# 5 0.000000 0.000000 0.000000 0.000000 0.097403 0.000000
# 6 0.000000 0.000000 0.000000 0.000000 0.000000 0.077766
#
#
# Mechanical properties :
#
#
# Convention : Reuss Voigt Hill
#
# Bulk Modulus (GPa) = 33.05648 43.09483 38.07565
# Shear Modulus (GPa) = 17.11866 23.08509 20.10187
#
# Velocity S-wave (km/s) = 2.99337 3.47610 3.24373
# Velocity P-wave (km/s) = 5.40829 6.21834 5.82741
#
# Compressibility (1/GPa) = 0.03025126
#
# Stress axis : x y z
#
# Youngs Moduli (GPa) = 53.12403 116.69648 65.19550
#
# Poissons Ratio (x) = 0.60614 -0.06151
# Poissons Ratio (y) = 0.27594 0.12970
# Poissons Ratio (z) = -0.05012 0.23216
#
# Static dielectric constant tensor:
#      x y z
#    x 1.642680 0.000000 0.000000 
#    y 0.000000 1.720420 0.000000 
#    z 0.000000 0.000000 1.691970 
# 
# From -- ./inp_files/7481.got.cif
#   From: 2010.05.17/outbox.cif.g08.bks.cpg/sg68_4_cif.got.tgz:7481.got - 2010.06.03 18:57:09.
