data_PCOD9505595
_publ_section_title
;
Structure prediction by ZEFSAII (Michael W. Deem and Ramdas Pophale) SiO2 
 PCOD9505595
Probable space group: C C C A
;
_chemical_formula_sum "Si O2"
_cell_formula_units_Z 104
_cell_length_a 23.315336
_cell_length_b 13.473809
_cell_length_c 20.517772
_cell_angle_alpha 90.000000
_cell_angle_beta 90.000000
_cell_angle_gamma 90.000000
_cell_volume 6445.583882
_symmetry_space_group_name_H-M "C C C A"
_symmetry_group_IT_number 68
_space_group.IT_coordinate_system_code '2'
_symmetry_cell_setting 'orthorhombic'
loop_
_space_group_symop_operation_xyz
x,y,z
-x,1/2-y,z
x,1/2-y,1/2-z
-x,y,1/2-z
-x,-y,-z
x,1/2+y,-z
-x,1/2+y,1/2+z
x,-y,1/2+z
1/2+x,1/2+y,z
1/2-x,-y,z
1/2+x,-y,1/2-z
1/2-x,1/2+y,1/2-z
1/2-x,1/2-y,-z
1/2+x,y,-z
1/2-x,y,1/2+z
1/2+x,1/2-y,1/2+z
loop_
_atom_site_type_symbol
_atom_site_label
_atom_site_fract_x
_atom_site_fract_y
_atom_site_fract_z
Si Si1 0.817914 0.529141 0.720928
Si Si2 0.844574 0.611245 0.105366
Si Si3 0.807231 0.250000 0.250000
Si Si4 0.067880 0.262458 0.672895
Si Si5 0.858106 0.438205 0.856193
Si Si6 0.192577 0.069552 0.464935
Si Si7 0.257746 0.217499 0.382455
O O1 0.750000 0.500000 0.723578
O O2 0.840803 0.479563 0.655168
O O3 0.833285 0.645896 0.725145
O O4 0.844704 0.478729 0.784644
O O5 0.895470 0.682932 0.130913
O O6 0.785378 0.674975 0.109087
O O7 0.843739 0.577758 0.030712
O O8 0.771460 0.285371 0.312258
O O9 0.084204 0.250000 0.750000
O O10 0.085067 0.372335 0.648534
O O11 0.000000 0.250000 0.667442
O O12 0.847857 0.524262 0.908526
O O13 0.809823 0.359019 0.876833
O O14 0.216155 0.175284 0.438225
O O15 0.250000 0.000000 0.473691
#
# Coordination Sequence:
#
# PCOD9505595 Si02
#       7
#    16  16   8  16  16  16  16
#     4  12  19  30  48  76 109 143 178 206 251 318
#     4  11  21  33  52  77 110 145 180 216 261 316
#     4  12  20  28  48  76 106 148 178 216 238 304
#     4  10  21  38  61  83  97 123 182 243 277 299
#     4  10  18  34  52  74 107 142 172 216 270 310
#     4  10  20  33  46  78 118 154 171 199 260 334
#     4  10  18  29  49  75 113 146 180 205 252 312
#
# _framework density 16.135078
#
# number of rings (size 3 to 8) (size 9 to 14) (size 15 to 20)
#    0.000    1.385    6.154    1.385    2.154    0.000 
#    0.000    0.769    0.000    0.000    0.000    2.154 
#    0.000    0.000    0.000    0.000    0.000    0.000 
#
# Total GULP energy -289620.617121 kJ/mol
# GULP energy per Si atom -5569.627252 kJ/mol
# Density = 1.609835 g / cm^3
# Si number density = 16.135078 Si / 1000 Ang^3
#
#
#
# Elastic Constant Matrix: (Units=GPa)
#
#
# Indices 1 2 3 4 5 6 
#
# 1 58.0268 22.4449 32.7538 0.0000 0.0000 0.0000
# 2 22.4449 83.2793 20.4147 0.0000 0.0000 0.0000
# 3 32.7538 20.4147 114.0562 0.0000 0.0000 0.0000
# 4 0.0000 0.0000 0.0000 24.8127 0.0000 0.0000
# 5 0.0000 0.0000 0.0000 0.0000 4.0053 0.0000
# 6 0.0000 0.0000 0.0000 0.0000 0.0000 313.8322
#
#
#
# Elastic Compliance Matrix: (Units=1/GPa)
#
#
# Indices 1 2 3 4 5 6 
#
# 1 0.022140 -0.004611 -0.005533 0.000000 0.000000 0.000000
# 2 -0.004611 0.013519 -0.001096 0.000000 0.000000 0.000000
# 3 -0.005533 -0.001096 0.010553 0.000000 0.000000 0.000000
# 4 0.000000 0.000000 0.000000 0.040302 0.000000 0.000000
# 5 0.000000 0.000000 0.000000 0.000000 0.249672 0.000000
# 6 0.000000 0.000000 0.000000 0.000000 0.000000 0.003186
#
#
# Mechanical properties :
#
#
# Convention : Reuss Voigt Hill
#
# Bulk Modulus (GPa) = 42.13499 45.17657 43.65578
# Shear Modulus (GPa) = 13.52224 80.51329 47.01776
#
# Velocity S-wave (km/s) = 2.89808 7.07162 5.40401
# Velocity P-wave (km/s) = 6.11302 9.73329 8.12730
#
# Compressibility (1/GPa) = 0.02373324
#
# Stress axis : x y z
#
# Youngs Moduli (GPa) = 45.16752 73.96985 94.76389
#
# Poissons Ratio (x) = 0.34105 0.52430
# Poissons Ratio (y) = 0.20825 0.10383
# Poissons Ratio (z) = 0.24990 0.08105
#
# Static dielectric constant tensor:
#      x y z
#    x 1.517370 0.000000 0.000000 
#    y 0.000000 1.621830 0.000000 
#    z 0.000000 0.000000 1.555980 
# 
# From -- ./inp_files/40882.got.cif
#   From: 2010.05.17/outbox.cif.g08.bks.cpg/sg68_21_cif.got.tgz:40882.got - 2010.06.03 18:57:09.
