data_PCOD9505378
_publ_section_title
;
Structure prediction by ZEFSAII (Michael W. Deem and Ramdas Pophale) SiO2 
 PCOD9505378
Probable space group: C C C A
;
_chemical_formula_sum "Si O2"
_cell_formula_units_Z 64
_cell_length_a 5.080523
_cell_length_b 14.130172
_cell_length_c 36.783259
_cell_angle_alpha 90.000000
_cell_angle_beta 90.000000
_cell_angle_gamma 90.000000
_cell_volume 2640.621015
_symmetry_space_group_name_H-M "C C C A"
_symmetry_group_IT_number 68
_space_group.IT_coordinate_system_code '2'
_symmetry_cell_setting 'orthorhombic'
loop_
_space_group_symop_operation_xyz
x,y,z
-x,1/2-y,z
x,1/2-y,1/2-z
-x,y,1/2-z
-x,-y,-z
x,1/2+y,-z
-x,1/2+y,1/2+z
x,-y,1/2+z
1/2+x,1/2+y,z
1/2-x,-y,z
1/2+x,-y,1/2-z
1/2-x,1/2+y,1/2-z
1/2-x,1/2-y,-z
1/2+x,y,-z
1/2-x,y,1/2+z
1/2+x,1/2-y,1/2+z
loop_
_atom_site_type_symbol
_atom_site_label
_atom_site_fract_x
_atom_site_fract_y
_atom_site_fract_z
Si Si1 0.755926 0.115176 0.226907
Si Si2 0.756944 0.812175 0.404303
Si Si3 0.501297 0.561480 0.157190
Si Si4 0.715829 0.857534 0.984310
O O1 0.500000 0.144434 0.250000
O O2 0.851140 0.132251 0.185410
O O3 0.000000 0.147294 0.250000
O O4 0.750000 0.000000 0.226218
O O5 0.500000 0.750000 0.414084
O O6 0.650019 0.885305 0.374917
O O7 0.857227 0.855992 0.442202
O O8 0.000000 0.750000 0.389743
O O9 0.250000 0.500000 0.143882
O O10 0.750000 0.500000 0.174545
O O11 0.750000 0.750000 0.000000
O O12 0.498513 0.901522 0.009992
#
# Coordination Sequence:
#
# PCOD9505378 Si02
#       4
#    16  16  16  16
#     4   9  16  30  55  82 107 145 198 239 281 357
#     4  12  22  36  61  92 119 163 214 260 308 376
#     4  11  23  39  58  90 132 160 190 262 336 374
#     4  10  16  31  54  84 106 148 214 275 280 332
#
# _framework density 24.236720999999999
#
# number of rings (size 3 to 8) (size 9 to 14) (size 15 to 20)
#    0.000    1.500    5.000    5.250    0.000    0.000 
#    0.000    0.000    0.000    5.250    0.000   21.000 
#    0.000    0.000    0.000    0.000    0.000    0.000 
#
# Total GULP energy -178415.937906 kJ/mol
# GULP energy per Si atom -5575.498060 kJ/mol
# Density = 2.418156 g / cm^3
# Si number density = 24.236721 Si / 1000 Ang^3
#
#
#
# Elastic Constant Matrix: (Units=GPa)
#
#
# Indices 1 2 3 4 5 6 
#
# 1 209.0806 13.1846 41.0295 0.0000 0.0000 0.0000
# 2 13.1846 61.7649 25.7025 0.0000 0.0000 0.0000
# 3 41.0295 25.7025 154.1464 0.0000 0.0000 0.0000
# 4 0.0000 0.0000 0.0000 15.6163 0.0000 0.0000
# 5 0.0000 0.0000 0.0000 0.0000 33.3158 0.0000
# 6 0.0000 0.0000 0.0000 0.0000 0.0000 -57.6653
#
#
#
# Elastic Compliance Matrix: (Units=1/GPa)
#
#
# Indices 1 2 3 4 5 6 
#
# 1 0.005064 -0.000559 -0.001255 0.000000 0.000000 0.000000
# 2 -0.000559 0.017459 -0.002762 0.000000 0.000000 0.000000
# 3 -0.001255 -0.002762 0.007282 0.000000 0.000000 0.000000
# 4 0.000000 0.000000 0.000000 0.064036 0.000000 0.000000
# 5 0.000000 0.000000 0.000000 0.000000 0.030016 0.000000
# 6 0.000000 0.000000 0.000000 0.000000 0.000000 -0.017341
#
#
# Mechanical properties :
#
#
# Convention : Reuss Voigt Hill
#
# Bulk Modulus (GPa) = 48.41833 64.98057 56.69945
# Shear Modulus (GPa) = 40.79892 21.25838 31.02865
#
# Velocity S-wave (km/s) = 4.10732 2.96482 3.58192
# Velocity P-wave (km/s) = 6.52028 6.21202 6.36802
#
# Compressibility (1/GPa) = 0.02065334
#
# Stress axis : x y z
#
# Youngs Moduli (GPa) = 197.45968 57.27619 137.32611
#
# Poissons Ratio (x) = 0.03201 0.17232
# Poissons Ratio (y) = 0.11036 0.37935
# Poissons Ratio (z) = 0.24777 0.15822
#
# Static dielectric constant tensor:
#      x y z
#    x 2.930940 0.000000 0.000000 
#    y 0.000000 1.854330 0.000000 
#    z 0.000000 0.000000 2.388350 
# 
# From -- ./inp_files/52911.got.cif
#   From: 2010.05.17/outbox.cif.g08.bks.cpg/sg68_27_cif.got.tgz:52911.got - 2010.06.03 18:57:09.
