data_PCOD9505802
_publ_section_title
;
Structure prediction by ZEFSAII (Michael W. Deem and Ramdas Pophale) SiO2 
 PCOD9505802
Probable space group: C C C A
;
_chemical_formula_sum "Si O2"
_cell_formula_units_Z 104
_cell_length_a 8.812758
_cell_length_b 28.151316
_cell_length_c 20.843789
_cell_angle_alpha 90.000000
_cell_angle_beta 90.000000
_cell_angle_gamma 90.000000
_cell_volume 5171.150939
_symmetry_space_group_name_H-M "C C C A"
_symmetry_group_IT_number 68
_space_group.IT_coordinate_system_code '2'
_symmetry_cell_setting 'orthorhombic'
loop_
_space_group_symop_operation_xyz
x,y,z
-x,1/2-y,z
x,1/2-y,1/2-z
-x,y,1/2-z
-x,-y,-z
x,1/2+y,-z
-x,1/2+y,1/2+z
x,-y,1/2+z
1/2+x,1/2+y,z
1/2-x,-y,z
1/2+x,-y,1/2-z
1/2-x,1/2+y,1/2-z
1/2-x,1/2-y,-z
1/2+x,y,-z
1/2-x,y,1/2+z
1/2+x,1/2-y,1/2+z
loop_
_atom_site_type_symbol
_atom_site_label
_atom_site_fract_x
_atom_site_fract_y
_atom_site_fract_z
Si Si1 0.096705 0.404718 0.385925
Si Si2 0.231889 0.186479 0.322154
Si Si3 0.500000 0.250000 0.354700
Si Si4 0.726805 0.124785 0.560128
Si Si5 0.863541 0.536083 0.501420
Si Si6 0.000000 0.375533 0.250000
Si Si7 0.000000 0.750000 0.597130
Si Si8 0.232136 0.686167 0.436316
O O1 0.170367 0.448314 0.424816
O O2 0.203588 0.358680 0.395752
O O3 0.937350 0.397196 0.423847
O O4 0.047676 0.406075 0.311960
O O5 0.374571 0.221045 0.313781
O O6 0.284728 0.148622 0.375247
O O7 0.144637 0.158209 0.266618
O O8 0.096931 0.215565 0.357084
O O9 0.598304 0.214210 0.400058
O O10 0.845794 0.085928 0.535009
O O11 0.697334 0.164192 0.505566
O O12 0.750000 0.500000 0.468242
O O13 0.000000 0.500000 0.500000
O O14 0.875604 0.721408 0.557309
#
# Coordination Sequence:
#
# PCOD9505802 Si02
#       8
#    16  16   8  16  16   8   8  16
#     4  10  21  41  62  87 116 168 201 244 320 370
#     4  10  22  37  59  87 121 168 215 255 300 352
#     4  10  24  35  53  97 123 163 211 272 300 338
#     4  10  21  35  59  89 125 161 202 243 323 379
#     4  11  22  38  66  99 121 146 189 254 315 393
#     4  10  20  43  66  78 118 176 212 244 292 385
#     4  10  18  36  54  87 113 172 218 240 304 346
#     4  10  21  35  53  86 129 159 207 259 309 359
#
# _framework density 20.111575999999999
#
# number of rings (size 3 to 8) (size 9 to 14) (size 15 to 20)
#    0.000    1.846    4.615    0.000    4.308    4.000 
#    0.000    1.538    6.769    0.000    0.000    0.000 
#    0.000    0.000    0.000    0.000    0.000    0.000 
#
# Total GULP energy -289864.293682 kJ/mol
# GULP energy per Si atom -5574.313340 kJ/mol
# Density = 2.006580 g / cm^3
# Si number density = 20.111576 Si / 1000 Ang^3
#
#
#
# Elastic Constant Matrix: (Units=GPa)
#
#
# Indices 1 2 3 4 5 6 
#
# 1 77.4497 26.7647 11.1428 0.0000 0.0000 0.0000
# 2 26.7647 102.4269 34.7721 0.0000 0.0000 0.0000
# 3 11.1428 34.7721 98.4683 0.0000 0.0000 0.0000
# 4 0.0000 0.0000 0.0000 12.5531 0.0000 0.0000
# 5 0.0000 0.0000 0.0000 0.0000 25.4396 0.0000
# 6 0.0000 0.0000 0.0000 0.0000 0.0000 36.8121
#
#
#
# Elastic Compliance Matrix: (Units=1/GPa)
#
#
# Indices 1 2 3 4 5 6 
#
# 1 0.014203 -0.003597 -0.000337 0.000000 0.000000 0.000000
# 2 -0.003597 0.012004 -0.003832 0.000000 0.000000 0.000000
# 3 -0.000337 -0.003832 0.011547 0.000000 0.000000 0.000000
# 4 0.000000 0.000000 0.000000 0.079661 0.000000 0.000000
# 5 0.000000 0.000000 0.000000 0.000000 0.039309 0.000000
# 6 0.000000 0.000000 0.000000 0.000000 0.000000 0.027165
#
#
# Mechanical properties :
#
#
# Convention : Reuss Voigt Hill
#
# Bulk Modulus (GPa) = 45.00035 47.07822 46.03929
# Shear Modulus (GPa) = 24.17467 28.67198 26.42333
#
# Velocity S-wave (km/s) = 3.47079 3.77987 3.62862
# Velocity P-wave (km/s) = 6.20369 6.51991 6.36376
#
# Compressibility (1/GPa) = 0.02222205
#
# Stress axis : x y z
#
# Youngs Moduli (GPa) = 70.40715 83.30692 86.60372
#
# Poissons Ratio (x) = 0.29965 0.02919
# Poissons Ratio (y) = 0.25325 0.33185
# Poissons Ratio (z) = 0.02373 0.31922
#
# Static dielectric constant tensor:
#      x y z
#    x 1.759210 0.000000 0.000000 
#    y 0.000000 1.719550 0.000000 
#    z 0.000000 0.000000 1.727250 
# 
# From -- ./inp_files/36735.got.cif
#   From: 2010.05.17/outbox.cif.g08.bks.cpg/sg68_19_cif.got.tgz:36735.got - 2010.06.03 18:57:09.
