data_PCOD9505139
_publ_section_title
;
Structure prediction by ZEFSAII (Michael W. Deem and Ramdas Pophale) SiO2 
 PCOD9505139
Probable space group: C M M A
;
_chemical_formula_sum "Si O2"
_cell_formula_units_Z 112
_cell_length_a 20.256086
_cell_length_b 14.486440
_cell_length_c 18.183987
_cell_angle_alpha 90.000000
_cell_angle_beta 90.000000
_cell_angle_gamma 90.000000
_cell_volume 5335.883224
_symmetry_space_group_name_H-M "C M M A"
_symmetry_group_IT_number 67
_symmetry_cell_setting 'orthorhombic'
loop_
_space_group_symop_operation_xyz
x,y,z
-x,1/2-y,z
x,-y,-z
-x,1/2+y,-z
-x,-y,-z
x,1/2+y,-z
-x,y,z
x,1/2-y,z
1/2+x,1/2+y,z
1/2-x,-y,z
1/2+x,1/2-y,-z
1/2-x,y,-z
1/2-x,1/2-y,-z
1/2+x,y,-z
1/2-x,1/2+y,z
1/2+x,-y,z
loop_
_atom_site_type_symbol
_atom_site_label
_atom_site_fract_x
_atom_site_fract_y
_atom_site_fract_z
Si Si1 0.154995 0.858271 0.718717
Si Si2 0.175792 0.613747 0.883690
Si Si3 0.680427 0.862558 0.536289
Si Si4 0.423671 0.112053 0.010511
Si Si5 0.695802 0.362294 0.299523
Si Si6 0.573601 0.136816 0.582821
Si Si7 0.825825 0.603136 0.134989
O O1 0.160212 0.750000 0.701532
O O2 0.142892 0.866167 0.804970
O O3 0.228244 0.895725 0.704808
O O4 0.101976 0.894912 0.661561
O O5 0.127467 0.645571 0.947916
O O6 0.179922 0.503363 0.887974
O O7 0.252778 0.645539 0.881906
O O8 0.681766 0.750000 0.537882
O O9 0.750000 0.890727 0.500000
O O10 0.670601 0.892345 0.620598
O O11 0.623033 0.890985 0.481367
O O12 0.500000 0.142744 0.005595
O O13 0.387078 0.137679 0.086760
O O14 0.426147 0.000000 0.000000
O O15 0.694854 0.250000 0.297805
O O16 0.663317 0.392326 0.222765
O O17 0.500000 0.103378 0.571065
O O18 0.571825 0.250000 0.582647
#
# Coordination Sequence:
#
# PCOD9505139 Si02
#       7
#    16  16  16  16  16  16  16
#     4   9  16  27  43  66  91 115 144 182 227 271
#     4   9  17  29  48  69  89 115 146 188 226 265
#     4   9  14  24  43  64  85 115 155 188 214 258
#     4   9  17  30  48  67  87 116 156 189 218 265
#     4   9  16  27  46  69  90 115 150 187 224 268
#     4   9  16  25  39  63  93 119 146 184 224 259
#     4   9  17  30  47  69  91 114 146 189 227 262
#
# _framework density 20.989965000000002
#
# number of rings (size 3 to 8) (size 9 to 14) (size 15 to 20)
#    0.000    3.000    1.429    0.429    0.000    2.286 
#    0.000    1.429    0.000    6.429    0.000    1.000 
#    0.000    0.000    0.000    0.000    0.000    0.000 
#
# Total GULP energy -312290.150778 kJ/mol
# GULP energy per Si atom -5576.609835 kJ/mol
# Density = 2.094219 g / cm^3
# Si number density = 20.989965 Si / 1000 Ang^3
#
#
#
# Elastic Constant Matrix: (Units=GPa)
#
#
# Indices 1 2 3 4 5 6 
#
# 1 148.9024 8.3554 117.7732 0.0000 0.0000 0.0000
# 2 8.3554 63.5975 -5.9506 0.0000 0.0000 0.0000
# 3 117.7732 -5.9506 186.6611 0.0000 0.0000 0.0000
# 4 0.0000 0.0000 0.0000 18.9313 0.0000 0.0000
# 5 0.0000 0.0000 0.0000 0.0000 27.3319 0.0000
# 6 0.0000 0.0000 0.0000 0.0000 0.0000 -3.7988
#
#
#
# Elastic Compliance Matrix: (Units=1/GPa)
#
#
# Indices 1 2 3 4 5 6 
#
# 1 0.013835 -0.002642 -0.008813 0.000000 0.000000 0.000000
# 2 -0.002642 0.016276 0.002186 0.000000 0.000000 0.000000
# 3 -0.008813 0.002186 0.010988 0.000000 0.000000 0.000000
# 4 0.000000 0.000000 0.000000 0.052823 0.000000 0.000000
# 5 0.000000 0.000000 0.000000 0.000000 0.036587 0.000000
# 6 0.000000 0.000000 0.000000 0.000000 0.000000 -0.263243
#
#
# Mechanical properties :
#
#
# Convention : Reuss Voigt Hill
#
# Bulk Modulus (GPa) = 44.32823 71.05744 57.69284
# Shear Modulus (GPa) = -46.87069 27.09176 -9.88946
#
# Velocity S-wave (km/s) = -4.73059 3.59653 -2.17296
# Velocity P-wave (km/s) = 2.94507 7.15355 4.60976
#
# Compressibility (1/GPa) = 0.02255899
#
# Stress axis : x y z
#
# Youngs Moduli (GPa) = 72.28108 61.44183 91.01079
#
# Poissons Ratio (x) = 0.16234 0.80211
# Poissons Ratio (y) = 0.19098 -0.19895
# Poissons Ratio (z) = 0.63703 -0.13431
#
# Static dielectric constant tensor:
#      x y z
#    x 1.721650 0.000000 0.000000 
#    y 0.000000 1.837150 0.000000 
#    z 0.000000 0.000000 1.752720 
# 
# From -- ./inp_files/34417.got.cif
#   From: 2010.05.17/outbox.cif.g08.bks.cpg/sg67_18_cif.got.tgz:34417.got - 2010.06.03 18:28:57.
