data_PCOD9505249
_publ_section_title
;
Structure prediction by ZEFSAII (Michael W. Deem and Ramdas Pophale) SiO2 
 PCOD9505249
Probable space group: C M M A
;
_chemical_formula_sum "Si O2"
_cell_formula_units_Z 48
_cell_length_a 9.000000
_cell_length_b 27.000000
_cell_length_c 24.000000
_cell_angle_alpha 90.000000
_cell_angle_beta 90.000000
_cell_angle_gamma 90.000000
_cell_volume 5832.000000
_symmetry_space_group_name_H-M "C M M A"
_symmetry_group_IT_number 67
_symmetry_cell_setting 'orthorhombic'
loop_
_space_group_symop_operation_xyz
x,y,z
-x,1/2-y,z
x,-y,-z
-x,1/2+y,-z
-x,-y,-z
x,1/2+y,-z
-x,y,z
x,1/2-y,z
1/2+x,1/2+y,z
1/2-x,-y,z
1/2+x,1/2-y,-z
1/2-x,y,-z
1/2-x,1/2-y,-z
1/2+x,y,-z
1/2-x,1/2+y,z
1/2+x,-y,z
loop_
_atom_site_type_symbol
_atom_site_label
_atom_site_fract_x
_atom_site_fract_y
_atom_site_fract_z
Si Si1 0.177726 0.946481 0.172650
Si Si2 0.679043 0.399620 0.286831
Si Si3 0.824859 0.695304 0.666620
Si Si4 0.822613 0.340377 0.556536
Si Si5 0.177327 0.050976 0.598517
Si Si6 0.822921 0.945043 0.053240
O O1 0.227486 0.918753 0.227307
O O2 0.210391 0.921704 0.113183
O O3 0.000000 0.952273 0.175578
O O4 0.250000 0.000000 0.173404
O O5 0.500000 0.394820 0.289174
O O6 0.753148 0.347315 0.297172
O O7 0.720153 0.436552 0.337363
O O8 0.801461 0.750000 0.689586
O O9 0.744551 0.689632 0.607499
O O10 0.000000 0.687039 0.659284
O O11 0.750000 0.322983 0.500000
O O12 0.782717 0.398576 0.566250
O O13 0.000000 0.336783 0.556034
O O14 0.000000 0.045537 0.595714
O O15 0.250000 0.000000 0.579432
O O16 0.000000 0.949723 0.046299
O O17 0.750000 0.000000 0.055840
O O18 0.750000 0.919738 0.000000
#
# Coordination Sequence:
#
# PCOD9505249 Si02
#       6
#    16  16  16  16  16  16
#     4   9  17  27  41  63  91 123 157 190 222 259
#     4   9  18  32  47  66  91 117 148 183 220 264
#     4  10  21  36  53  72  91 112 140 176 221 270
#     4  10  21  36  52  71  93 117 147 180 215 258
#     4   9  18  30  45  65  89 118 148 177 211 252
#     4   9  15  23  35  53  81 118 157 192 222 253
#
# _framework density 8.2304530000000007
#
# number of rings (size 3 to 8) (size 9 to 14) (size 15 to 20)
#    0.000    2.667    0.000    3.500    0.000    6.667 
#    0.000    1.667    0.000    0.000    0.000    0.000 
#    0.000    0.667    0.000    1.500    0.000    3.000 
#
# Total GULP energy -267282.278733 kJ/mol
# GULP energy per Si atom -5568.380807 kJ/mol
# Density = 0.821172 g / cm^3
# Si number density = 8.230453 Si / 1000 Ang^3
#
#
#
# Elastic Constant Matrix: (Units=GPa)
#
#
# Indices 1 2 3 4 5 6 
#
# 1 2.2829 9.5809 17.1712 0.0000 0.0000 0.0000
# 2 9.5809 40.4490 10.9185 0.0000 0.0000 0.0000
# 3 17.1712 10.9185 107.5566 0.0000 0.0000 0.0000
# 4 0.0000 0.0000 0.0000 3.9179 0.0000 0.0000
# 5 0.0000 0.0000 0.0000 0.0000 -2.1699 0.0000
# 6 0.0000 0.0000 0.0000 0.0000 0.0000 19.8989
#
#
#
# Elastic Compliance Matrix: (Units=1/GPa)
#
#
# Indices 1 2 3 4 5 6 
#
# 1 -0.495072 0.098632 0.069024 0.000000 0.000000 0.000000
# 2 0.098632 0.005769 -0.016332 0.000000 0.000000 0.000000
# 3 0.069024 -0.016332 -0.000064 0.000000 0.000000 0.000000
# 4 0.000000 0.000000 0.000000 0.255238 0.000000 0.000000
# 5 0.000000 0.000000 0.000000 0.000000 -0.460848 0.000000
# 6 0.000000 0.000000 0.000000 0.000000 0.000000 0.050254
#
#
# Mechanical properties :
#
#
# Convention : Reuss Voigt Hill
#
# Bulk Modulus (GPa) = -5.35568 25.06997 9.85714
# Shear Modulus (GPa) = -4.95240 11.83725 3.44242
#
# Velocity S-wave (km/s) = -1.73641 2.68454 1.44769
# Velocity P-wave (km/s) = 2.69829 4.98719 2.96574
#
# Compressibility (1/GPa) = -0.18671762
#
# Stress axis : x y z
#
# Youngs Moduli (GPa) = -2.01991 173.35213 -15572.97893
#
# Poissons Ratio (x) = -17.09815 1074.91530
# Poissons Ratio (y) = 0.19923 -254.33835
# Poissons Ratio (z) = 0.13942 2.83119
#
# Static dielectric constant tensor:
#      x y z
#    x 1.542960 0.000000 0.000000 
#    y 0.000000 1.536240 0.000000 
#    z 0.000000 0.000000 1.602460 
# 
# From -- ./inp_files/37193.got.cif
#   From: 2010.05.17/outbox.ucp.g08.bks.cvg/sg67_19_cif.got.tgz:37193.got - 2010.06.11 16:47:20.
