data_PCOD9505974
_publ_section_title
;
Structure prediction by ZEFSAII (Michael W. Deem and Ramdas Pophale) SiO2 
 PCOD9505974
Probable space group: C C C A
;
_chemical_formula_sum "Si O2"
_cell_formula_units_Z 64
_cell_length_a 24.816021
_cell_length_b 5.289851
_cell_length_c 20.224537
_cell_angle_alpha 90.000000
_cell_angle_beta 90.000000
_cell_angle_gamma 90.000000
_cell_volume 2654.936728
_symmetry_space_group_name_H-M "C C C A"
_symmetry_group_IT_number 68
_space_group.IT_coordinate_system_code '2'
_symmetry_cell_setting 'orthorhombic'
loop_
_space_group_symop_operation_xyz
x,y,z
-x,1/2-y,z
x,1/2-y,1/2-z
-x,y,1/2-z
-x,-y,-z
x,1/2+y,-z
-x,1/2+y,1/2+z
x,-y,1/2+z
1/2+x,1/2+y,z
1/2-x,-y,z
1/2+x,-y,1/2-z
1/2-x,1/2+y,1/2-z
1/2-x,1/2-y,-z
1/2+x,y,-z
1/2-x,y,1/2+z
1/2+x,1/2-y,1/2+z
loop_
_atom_site_type_symbol
_atom_site_label
_atom_site_fract_x
_atom_site_fract_y
_atom_site_fract_z
Si Si1 0.718028 0.767077 0.420104
Si Si2 0.899370 0.867364 0.566231
Si Si3 0.558559 0.361841 0.081081
Si Si4 0.688162 0.492814 0.722012
O O1 0.750000 0.500000 0.406060
O O2 0.661325 0.699756 0.453004
O O3 0.750000 0.000000 0.455167
O O4 0.697731 0.918559 0.354059
O O5 0.932869 0.899572 0.498207
O O6 0.926473 0.638827 0.606492
O O7 0.900810 0.138508 0.601147
O O8 0.500000 0.250000 0.094989
O O9 0.664071 0.750000 0.750000
O O10 0.750000 0.500000 0.750427
O O11 0.658430 0.250000 0.750000
#
# Coordination Sequence:
#
# PCOD9505974 Si02
#       4
#    16  16  16  16
#     4  11  21  33  47  71 108 140 166 203 243 295
#     4  10  19  32  50  73  98 133 171 209 255 297
#     4  10  19  35  54  72  97 130 174 225 261 288
#     4   9  16  28  46  64  86 124 164 196 235 278
#
# _framework density 24.106034000000001
#
# number of rings (size 3 to 8) (size 9 to 14) (size 15 to 20)
#    0.000    2.000    0.000    9.000    0.000    0.000 
#    0.000   15.000    0.000    0.000    0.000    0.000 
#    0.000   24.000    0.000    2.000    0.000    0.000 
#
# Total GULP energy -178304.391865 kJ/mol
# GULP energy per Si atom -5572.012246 kJ/mol
# Density = 2.405117 g / cm^3
# Si number density = 24.106034 Si / 1000 Ang^3
#
#
#
# Elastic Constant Matrix: (Units=GPa)
#
#
# Indices 1 2 3 4 5 6 
#
# 1 74.3643 -1.9510 0.1694 0.0000 0.0000 0.0000
# 2 -1.9510 220.6142 14.4790 0.0000 0.0000 0.0000
# 3 0.1694 14.4790 60.2599 0.0000 0.0000 0.0000
# 4 0.0000 0.0000 0.0000 0.9266 0.0000 0.0000
# 5 0.0000 0.0000 0.0000 0.0000 5.0126 0.0000
# 6 0.0000 0.0000 0.0000 0.0000 0.0000 34.6772
#
#
#
# Elastic Compliance Matrix: (Units=1/GPa)
#
#
# Indices 1 2 3 4 5 6 
#
# 1 0.013451 0.000123 -0.000067 0.000000 0.000000 0.000000
# 2 0.000123 0.004607 -0.001107 0.000000 0.000000 0.000000
# 3 -0.000067 -0.001107 0.016861 0.000000 0.000000 0.000000
# 4 0.000000 0.000000 0.000000 1.079228 0.000000 0.000000
# 5 0.000000 0.000000 0.000000 0.000000 0.199498 0.000000
# 6 0.000000 0.000000 0.000000 0.000000 0.000000 0.028837
#
#
# Mechanical properties :
#
#
# Convention : Reuss Voigt Hill
#
# Bulk Modulus (GPa) = 30.47322 42.29259 36.38290
# Shear Modulus (GPa) = 3.68861 30.95934 17.32398
#
# Velocity S-wave (km/s) = 1.23834 3.58760 2.68369
# Velocity P-wave (km/s) = 3.83581 5.89437 4.97278
#
# Compressibility (1/GPa) = 0.03281570
#
# Stress axis : x y z
#
# Youngs Moduli (GPa) = 74.34556 217.08190 59.30846
#
# Poissons Ratio (x) = -0.02678 0.00400
# Poissons Ratio (y) = -0.00917 0.06567
# Poissons Ratio (z) = 0.00502 0.24035
#
# Static dielectric constant tensor:
#      x y z
#    x 1.960170 0.000000 0.000000 
#    y 0.000000 2.229210 0.000000 
#    z 0.000000 0.000000 2.076920 
# 
# From -- ./inp_files/52012.got.cif
#   From: 2010.05.17/outbox.cif.g08.bks.cpg/sg68_27_cif.got.tgz:52012.got - 2010.06.03 18:57:09.
