data_PCOD9505016
_publ_section_title
;
Structure prediction by ZEFSAII (Michael W. Deem and Ramdas Pophale) SiO2 
 PCOD9505016
Probable space group: C M M A
;
_chemical_formula_sum "Si O2"
_cell_formula_units_Z 72
_cell_length_a 9.206258
_cell_length_b 15.045830
_cell_length_c 25.434393
_cell_angle_alpha 90.000000
_cell_angle_beta 90.000000
_cell_angle_gamma 90.000000
_cell_volume 3523.065111
_symmetry_space_group_name_H-M "C M M A"
_symmetry_group_IT_number 67
_symmetry_cell_setting 'orthorhombic'
loop_
_space_group_symop_operation_xyz
x,y,z
-x,1/2-y,z
x,-y,-z
-x,1/2+y,-z
-x,-y,-z
x,1/2+y,-z
-x,y,z
x,1/2-y,z
1/2+x,1/2+y,z
1/2-x,-y,z
1/2+x,1/2-y,-z
1/2-x,y,-z
1/2-x,1/2-y,-z
1/2+x,y,-z
1/2-x,1/2+y,z
1/2+x,-y,z
loop_
_atom_site_type_symbol
_atom_site_label
_atom_site_fract_x
_atom_site_fract_y
_atom_site_fract_z
Si Si1 0.325172 0.091399 0.379595
Si Si2 0.334284 0.358831 0.052305
Si Si3 0.176208 0.250000 0.442815
Si Si4 0.666931 0.142728 0.259520
Si Si5 0.165437 0.641178 0.843481
O O1 0.500000 0.094409 0.388718
O O2 0.240418 0.166718 0.411092
O O3 0.301764 0.105245 0.317084
O O4 0.250000 0.000000 0.395262
O O5 0.500000 0.388452 0.050642
O O6 0.333899 0.250000 0.052369
O O7 0.257788 0.387103 0.106143
O O8 0.250000 0.386850 0.000000
O O9 0.250000 0.250000 0.500000
O O10 0.000000 0.250000 0.445276
O O11 0.500000 0.122278 0.245821
O O12 0.678853 0.250000 0.263733
O O13 0.768611 0.112334 0.212150
O O14 0.167982 0.750000 0.843119
O O15 0.000000 0.612569 0.849071
#
# Coordination Sequence:
#
# PCOD9505016 Si02
#       5
#    16  16   8  16  16
#     4  11  23  42  66  97 132 169 212 260 311 369
#     4   9  15  22  32  48  77 120 169 223 285 349
#     4  12  26  46  72 100 132 172 213 258 309 364
#     4   9  17  32  53  76 109 151 192 240 298 358
#     4   9  16  24  37  61  91 127 177 232 286 350
#
# _framework density 20.436748999999999
#
# number of rings (size 3 to 8) (size 9 to 14) (size 15 to 20)
#    0.000    2.222    1.111    3.000    0.000    7.556 
#    0.000    2.222    0.000    0.000    0.000    0.000 
#    0.000    0.889    0.000    9.333    0.000   14.000 
#
# Total GULP energy -201190.452743 kJ/mol
# GULP energy per Si atom -5588.623687 kJ/mol
# Density = 2.039023 g / cm^3
# Si number density = 20.436749 Si / 1000 Ang^3
#
#
#
# Elastic Constant Matrix: (Units=GPa)
#
#
# Indices 1 2 3 4 5 6 
#
# 1 199.8294 61.1104 116.2071 0.0000 0.0000 0.0000
# 2 61.1104 78.6106 49.6643 0.0000 0.0000 0.0000
# 3 116.2071 49.6643 125.5828 0.0000 0.0000 0.0000
# 4 0.0000 0.0000 0.0000 -37.3473 0.0000 0.0000
# 5 0.0000 0.0000 0.0000 0.0000 42.1629 0.0000
# 6 0.0000 0.0000 0.0000 0.0000 0.0000 13.1274
#
#
#
# Elastic Compliance Matrix: (Units=1/GPa)
#
#
# Indices 1 2 3 4 5 6 
#
# 1 0.011312 -0.002907 -0.009318 0.000000 0.000000 0.000000
# 2 -0.002907 0.017705 -0.004312 0.000000 0.000000 0.000000
# 3 -0.009318 -0.004312 0.018290 0.000000 0.000000 0.000000
# 4 0.000000 0.000000 0.000000 -0.026776 0.000000 0.000000
# 5 0.000000 0.000000 0.000000 0.000000 0.023718 0.000000
# 6 0.000000 0.000000 0.000000 0.000000 0.000000 0.076177
#
#
# Mechanical properties :
#
#
# Convention : Reuss Voigt Hill
#
# Bulk Modulus (GPa) = 70.25499 95.33181 82.79340
# Shear Modulus (GPa) = 31.59709 15.39134 23.49421
#
# Velocity S-wave (km/s) = 3.93630 2.74728 3.39426
# Velocity P-wave (km/s) = 7.42366 7.53737 7.48073
#
# Compressibility (1/GPa) = 0.01423386
#
# Stress axis : x y z
#
# Youngs Moduli (GPa) = 88.40386 56.48175 54.67436
#
# Poissons Ratio (x) = 0.16418 0.50944
# Poissons Ratio (y) = 0.25698 0.23575
# Poissons Ratio (z) = 0.82372 0.24354
#
# Static dielectric constant tensor:
#      x y z
#    x 1.693300 0.000000 0.000000 
#    y 0.000000 1.745010 0.000000 
#    z 0.000000 0.000000 1.687630 
# 
# From -- ./inp_files/42113.got.cif
#   From: 2010.05.17/outbox.cif.g08.bks.cpg/sg67_22_cif.got.tgz:42113.got - 2010.06.03 18:28:57.
