data_PCOD9505282
_publ_section_title
;
Structure prediction by ZEFSAII (Michael W. Deem and Ramdas Pophale) SiO2 
 PCOD9505282
Probable space group: C M M A
;
_chemical_formula_sum "Si O2"
_cell_formula_units_Z 48
_cell_length_a 24.000000
_cell_length_b 24.000000
_cell_length_c 9.000000
_cell_angle_alpha 90.000000
_cell_angle_beta 90.000000
_cell_angle_gamma 90.000000
_cell_volume 5184.000000
_symmetry_space_group_name_H-M "C M M A"
_symmetry_group_IT_number 67
_symmetry_cell_setting 'orthorhombic'
loop_
_space_group_symop_operation_xyz
x,y,z
-x,1/2-y,z
x,-y,-z
-x,1/2+y,-z
-x,-y,-z
x,1/2+y,-z
-x,y,z
x,1/2-y,z
1/2+x,1/2+y,z
1/2-x,-y,z
1/2+x,1/2-y,-z
1/2-x,y,-z
1/2-x,1/2-y,-z
1/2+x,y,-z
1/2-x,1/2+y,z
1/2+x,-y,z
loop_
_atom_site_type_symbol
_atom_site_label
_atom_site_fract_x
_atom_site_fract_y
_atom_site_fract_z
Si Si1 0.906266 0.312601 0.647675
Si Si2 0.000000 0.597725 0.844417
Si Si3 0.800178 0.614752 0.412108
Si Si4 0.733078 0.061792 0.831375
Si Si5 0.000000 0.810095 0.600706
Si Si6 0.000000 0.683064 0.114906
Si Si7 0.647186 0.500000 0.500000
Si Si8 0.113122 0.029123 0.166585
O O1 0.886022 0.250000 0.676119
O O2 0.855926 0.352088 0.611412
O O3 0.947018 0.311344 0.506688
O O4 0.945525 0.329006 0.785189
O O5 0.054691 0.559844 0.845327
O O6 0.000000 0.636249 0.700505
O O7 0.000000 0.641674 0.978336
O O8 0.750000 0.643523 0.500000
O O9 0.772131 0.602777 0.255678
O O10 0.816341 0.556395 0.492102
O O11 0.667104 0.068714 0.821809
O O12 0.750000 0.000000 0.775753
O O13 0.750000 0.063596 0.000000
O O14 0.000000 0.750000 0.681669
O O15 0.000000 0.750000 0.083849
O O16 0.615977 0.499986 0.334789
O O17 0.120781 0.000000 0.000000
#
# Coordination Sequence:
#
# PCOD9505282 Si02
#       8
#    16   8  16  16   8   8   8  16
#     4   9  21  41  64  90 117 156 206 256 315 373
#     4  12  26  39  60  94 120 150 209 262 320 349
#     4  12  21  35  62  92 120 160 207 257 302 368
#     4  11  20  37  60  80 119 167 206 242 296 377
#     4   9  19  42  65  82 113 154 200 251 306 379
#     4   9  21  42  67  86 112 161 212 253 309 379
#     4  12  23  39  64  88 130 169 211 242 306 376
#     4  12  25  42  57  90 130 167 207 251 306 375
#
# _framework density 9.2592590000000001
#
# number of rings (size 3 to 8) (size 9 to 14) (size 15 to 20)
#    0.000    1.167    5.000    2.750    4.667    0.667 
#    0.000    0.000    0.000    0.500    0.000    0.000 
#    0.000    0.000    0.000    0.000    0.000    0.000 
#
# Total GULP energy -267213.340764 kJ/mol
# GULP energy per Si atom -5566.944599 kJ/mol
# Density = 0.923818 g / cm^3
# Si number density = 9.259259 Si / 1000 Ang^3
#
#
#
# Elastic Constant Matrix: (Units=GPa)
#
#
# Indices 1 2 3 4 5 6 
#
# 1 163.9843 60.6315 38.5386 0.0000 0.0000 0.0000
# 2 60.6315 29.5925 30.2459 0.0000 0.0000 0.0000
# 3 38.5386 30.2459 112.8015 0.0000 0.0000 0.0000
# 4 0.0000 0.0000 0.0000 27.2449 0.0000 0.0000
# 5 0.0000 0.0000 0.0000 0.0000 11.6104 0.0000
# 6 0.0000 0.0000 0.0000 0.0000 0.0000 51.7926
#
#
#
# Elastic Compliance Matrix: (Units=1/GPa)
#
#
# Indices 1 2 3 4 5 6 
#
# 1 0.030254 -0.070836 0.008657 0.000000 0.000000 0.000000
# 2 -0.070836 0.212400 -0.032750 0.000000 0.000000 0.000000
# 3 0.008657 -0.032750 0.014689 0.000000 0.000000 0.000000
# 4 0.000000 0.000000 0.000000 0.036704 0.000000 0.000000
# 5 0.000000 0.000000 0.000000 0.000000 0.086129 0.000000
# 6 0.000000 0.000000 0.000000 0.000000 0.000000 0.019308
#
#
# Mechanical properties :
#
#
# Convention : Reuss Voigt Hill
#
# Bulk Modulus (GPa) = 14.81817 62.80114 38.80966
# Shear Modulus (GPa) = 8.17210 29.92708 19.04959
#
# Velocity S-wave (km/s) = 2.10298 4.02439 3.21078
# Velocity P-wave (km/s) = 3.73040 7.45523 5.89476
#
# Compressibility (1/GPa) = 0.06748471
#
# Stress axis : x y z
#
# Youngs Moduli (GPa) = 33.05301 4.70810 68.07835
#
# Poissons Ratio (x) = 0.33350 -0.58936
# Poissons Ratio (y) = 2.34134 2.22960
# Poissons Ratio (z) = -0.28614 0.15419
#
# Static dielectric constant tensor:
#      x y z
#    x 1.501250 0.000000 0.000000 
#    y 0.000000 1.640270 0.000000 
#    z 0.000000 0.000000 2.006280 
# 
# From -- ./inp_files/12725.got.cif
#   From: 2010.05.17/outbox.ucp.g08.bks.cvg/sg67_7_cif.got.tgz:12725.got - 2010.06.11 16:47:20.
