data_PCOD9505153
_publ_section_title
;
Structure prediction by ZEFSAII (Michael W. Deem and Ramdas Pophale) SiO2 
 PCOD9505153
Probable space group: C M M A
;
_chemical_formula_sum "Si O2"
_cell_formula_units_Z 96
_cell_length_a 14.426489
_cell_length_b 20.433807
_cell_length_c 16.241474
_cell_angle_alpha 90.000000
_cell_angle_beta 90.000000
_cell_angle_gamma 90.000000
_cell_volume 4787.793130
_symmetry_space_group_name_H-M "C M M A"
_symmetry_group_IT_number 67
_symmetry_cell_setting 'orthorhombic'
loop_
_space_group_symop_operation_xyz
x,y,z
-x,1/2-y,z
x,-y,-z
-x,1/2+y,-z
-x,-y,-z
x,1/2+y,-z
-x,y,z
x,1/2-y,z
1/2+x,1/2+y,z
1/2-x,-y,z
1/2+x,1/2-y,-z
1/2-x,y,-z
1/2-x,1/2-y,-z
1/2+x,y,-z
1/2-x,1/2+y,z
1/2+x,-y,z
loop_
_atom_site_type_symbol
_atom_site_label
_atom_site_fract_x
_atom_site_fract_y
_atom_site_fract_z
Si Si1 0.669602 0.821771 0.567253
Si Si2 0.887344 0.454784 0.765123
Si Si3 0.387929 0.460268 0.921672
Si Si4 0.105863 0.035417 0.579785
Si Si5 0.391310 0.177130 0.866989
Si Si6 0.782111 0.822547 0.243530
O O1 0.623811 0.750000 0.558135
O O2 0.750000 0.826574 0.500000
O O3 0.608650 0.886780 0.563200
O O4 0.714402 0.823469 0.657911
O O5 0.860458 0.506622 0.835217
O O6 0.856427 0.474613 0.672440
O O7 0.843382 0.383984 0.784889
O O8 0.000000 0.448862 0.763940
O O9 0.500000 0.464199 0.922992
O O10 0.365039 0.383692 0.924259
O O11 0.353564 0.500000 0.000000
O O12 0.000000 0.011875 0.584845
O O13 0.148077 0.000000 0.500000
O O14 0.500000 0.170113 0.844028
O O15 0.380023 0.250000 0.902970
O O16 0.321978 0.171954 0.790226
O O17 0.817061 0.750000 0.217354
#
# Coordination Sequence:
#
# PCOD9505153 Si02
#       6
#    16  16  16  16  16  16
#     4   9  18  32  48  68  97 131 166 205 249 298
#     4   9  18  33  53  76 103 136 171 210 257 304
#     4   9  18  34  55  78 105 136 171 211 254 303
#     4   9  18  32  50  73 100 129 164 207 252 299
#     4   9  18  34  55  76 100 133 170 210 257 303
#     4   9  18  33  52  75 103 133 170 213 253 303
#
# _framework density 20.050991
#
# number of rings (size 3 to 8) (size 9 to 14) (size 15 to 20)
#    0.000    3.000    0.000    0.000    0.000    3.000 
#    0.000   11.667    0.000    8.000    0.000    0.000 
#    0.000    6.000    0.000    0.000    0.000    0.000 
#
# Total GULP energy -267377.597315 kJ/mol
# GULP energy per Si atom -5570.366611 kJ/mol
# Density = 2.000535 g / cm^3
# Si number density = 20.050991 Si / 1000 Ang^3
#
#
#
# Elastic Constant Matrix: (Units=GPa)
#
#
# Indices 1 2 3 4 5 6 
#
# 1 59.7746 32.7477 13.9360 0.0000 0.0000 0.0000
# 2 32.7477 153.8534 79.8326 0.0000 0.0000 0.0000
# 3 13.9360 79.8326 83.6492 0.0000 0.0000 0.0000
# 4 0.0000 0.0000 0.0000 26.9811 0.0000 0.0000
# 5 0.0000 0.0000 0.0000 0.0000 2.6355 0.0000
# 6 0.0000 0.0000 0.0000 0.0000 0.0000 27.3121
#
#
#
# Elastic Compliance Matrix: (Units=1/GPa)
#
#
# Indices 1 2 3 4 5 6 
#
# 1 0.019018 -0.004762 0.001377 0.000000 0.000000 0.000000
# 2 -0.004762 0.014069 -0.012633 0.000000 0.000000 0.000000
# 3 0.001377 -0.012633 0.023782 0.000000 0.000000 0.000000
# 4 0.000000 0.000000 0.000000 0.037063 0.000000 0.000000
# 5 0.000000 0.000000 0.000000 0.000000 0.379435 0.000000
# 6 0.000000 0.000000 0.000000 0.000000 0.000000 0.036614
#
#
# Mechanical properties :
#
#
# Convention : Reuss Voigt Hill
#
# Bulk Modulus (GPa) = 40.27300 61.14552 50.70926
# Shear Modulus (GPa) = 9.08603 22.76979 15.92791
#
# Velocity S-wave (km/s) = 2.13103 3.37351 2.82152
# Velocity P-wave (km/s) = 5.11703 6.76279 5.99664
#
# Compressibility (1/GPa) = 0.02483053
#
# Stress axis : x y z
#
# Youngs Moduli (GPa) = 52.58304 71.08044 42.04823
#
# Poissons Ratio (x) = 0.33850 -0.05788
# Poissons Ratio (y) = 0.25041 0.53121
# Poissons Ratio (z) = -0.07238 0.89798
#
# Static dielectric constant tensor:
#      x y z
#    x 1.705950 0.000000 0.000000 
#    y 0.000000 1.747800 0.000000 
#    z 0.000000 0.000000 1.699850 
# 
# From -- ./inp_files/27136.got.cif
#   From: 2010.05.17/outbox.cif.g08.bks.cpg/sg67_14_cif.got.tgz:27136.got - 2010.06.03 18:28:57.
