data_PCOD9505647
_publ_section_title
;
Structure prediction by ZEFSAII (Michael W. Deem and Ramdas Pophale) SiO2 
 PCOD9505647
Probable space group: C C C A
;
_chemical_formula_sum "Si O2"
_cell_formula_units_Z 48
_cell_length_a 24.621097
_cell_length_b 5.185647
_cell_length_c 14.033001
_cell_angle_alpha 90.000000
_cell_angle_beta 90.000000
_cell_angle_gamma 90.000000
_cell_volume 1791.681895
_symmetry_space_group_name_H-M "C C C A"
_symmetry_group_IT_number 68
_space_group.IT_coordinate_system_code '2'
_symmetry_cell_setting 'orthorhombic'
loop_
_space_group_symop_operation_xyz
x,y,z
-x,1/2-y,z
x,1/2-y,1/2-z
-x,y,1/2-z
-x,-y,-z
x,1/2+y,-z
-x,1/2+y,1/2+z
x,-y,1/2+z
1/2+x,1/2+y,z
1/2-x,-y,z
1/2+x,-y,1/2-z
1/2-x,1/2+y,1/2-z
1/2-x,1/2-y,-z
1/2+x,y,-z
1/2-x,y,1/2+z
1/2+x,1/2-y,1/2+z
loop_
_atom_site_type_symbol
_atom_site_label
_atom_site_fract_x
_atom_site_fract_y
_atom_site_fract_z
Si Si1 0.801353 0.690373 0.363950
Si Si2 0.474882 0.502811 0.393402
Si Si3 0.644461 0.803410 0.364448
O O1 0.801832 0.750000 0.250000
O O2 0.750000 0.500000 0.380645
O O3 0.848909 0.493033 0.398124
O O4 0.810499 0.985269 0.398236
O O5 0.500000 0.750000 0.346216
O O6 0.500000 0.500000 0.500000
O O7 0.411120 0.552848 0.389633
O O8 0.500000 0.250000 0.349426
O O9 0.647892 0.750000 0.250000
#
# Coordination Sequence:
#
# PCOD9505647 Si02
#       3
#    16  16  16
#     4  10  18  31  52  81 118 154 183 224 289 356
#     4  10  21  38  58  81 109 156 207 246 293 350
#     4  10  20  33  53  84 117 148 189 241 288 340
#
# _framework density 26.790469000000002
#
# number of rings (size 3 to 8) (size 9 to 14) (size 15 to 20)
#    0.000    2.000    0.000    6.000    0.000    0.667 
#    0.000    1.667    0.000    0.000    0.000   93.333 
#    0.000    0.000    0.000    0.000    0.000    1.333 
#
# Total GULP energy -133810.647039 kJ/mol
# GULP energy per Si atom -5575.443627 kJ/mol
# Density = 2.672949 g / cm^3
# Si number density = 26.790469 Si / 1000 Ang^3
#
#
#
# Elastic Constant Matrix: (Units=GPa)
#
#
# Indices 1 2 3 4 5 6 
#
# 1 177.9918 95.7895 9.4395 0.0000 0.0000 0.0000
# 2 95.7895 294.1670 18.2723 0.0000 0.0000 0.0000
# 3 9.4395 18.2723 149.2610 0.0000 0.0000 0.0000
# 4 0.0000 0.0000 0.0000 -252.9042 0.0000 0.0000
# 5 0.0000 0.0000 0.0000 0.0000 29.8994 0.0000
# 6 0.0000 0.0000 0.0000 0.0000 0.0000 55.1791
#
#
#
# Elastic Compliance Matrix: (Units=1/GPa)
#
#
# Indices 1 2 3 4 5 6 
#
# 1 0.006816 -0.002209 -0.000161 0.000000 0.000000 0.000000
# 2 -0.002209 0.004142 -0.000367 0.000000 0.000000 0.000000
# 3 -0.000161 -0.000367 0.006755 0.000000 0.000000 0.000000
# 4 0.000000 0.000000 0.000000 -0.003954 0.000000 0.000000
# 5 0.000000 0.000000 0.000000 0.000000 0.033446 0.000000
# 6 0.000000 0.000000 0.000000 0.000000 0.000000 0.018123
#
#
# Mechanical properties :
#
#
# Convention : Reuss Voigt Hill
#
# Bulk Modulus (GPa) = 81.71482 96.49140 89.10311
# Shear Modulus (GPa) = 66.77311 -0.37058 33.20127
#
# Velocity S-wave (km/s) = 4.99783 -0.37232 3.52418
# Velocity P-wave (km/s) = 7.99200 5.99253 7.06337
#
# Compressibility (1/GPa) = 0.01223768
#
# Stress axis : x y z
#
# Youngs Moduli (GPa) = 146.71770 241.44625 148.04304
#
# Poissons Ratio (x) = 0.53347 0.02377
# Poissons Ratio (y) = 0.32417 0.05438
# Poissons Ratio (z) = 0.02356 0.08868
#
# Static dielectric constant tensor:
#      x y z
#    x 2.257390 0.000000 0.000000 
#    y 0.000000 2.069020 0.000000 
#    z 0.000000 0.000000 2.079490 
# 
# From -- ./inp_files/34224.got.cif
#   From: 2010.05.17/outbox.cif.g08.bks.cpg/sg68_18_cif.got.tgz:34224.got - 2010.06.03 18:57:09.
