data_PCOD9505165
_publ_section_title
;
Structure prediction by ZEFSAII (Michael W. Deem and Ramdas Pophale) SiO2 
 PCOD9505165
Probable space group: C M M A
;
_chemical_formula_sum "Si O2"
_cell_formula_units_Z 56
_cell_length_a 15.000000
_cell_length_b 30.000000
_cell_length_c 12.000000
_cell_angle_alpha 90.000000
_cell_angle_beta 90.000000
_cell_angle_gamma 90.000000
_cell_volume 5400.000000
_symmetry_space_group_name_H-M "C M M A"
_symmetry_group_IT_number 67
_symmetry_cell_setting 'orthorhombic'
loop_
_space_group_symop_operation_xyz
x,y,z
-x,1/2-y,z
x,-y,-z
-x,1/2+y,-z
-x,-y,-z
x,1/2+y,-z
-x,y,z
x,1/2-y,z
1/2+x,1/2+y,z
1/2-x,-y,z
1/2+x,1/2-y,-z
1/2-x,y,-z
1/2-x,1/2-y,-z
1/2+x,y,-z
1/2-x,1/2+y,z
1/2+x,-y,z
loop_
_atom_site_type_symbol
_atom_site_label
_atom_site_fract_x
_atom_site_fract_y
_atom_site_fract_z
Si Si1 0.390417 0.385435 0.585390
Si Si2 0.108675 0.699859 0.458458
Si Si3 0.155516 0.982616 0.173743
Si Si4 0.397644 0.582198 0.176005
Si Si5 0.108066 0.388629 0.940779
Si Si6 0.103856 0.540697 0.413873
Si Si7 0.891381 0.301735 0.799108
O O1 0.500000 0.387925 0.586994
O O2 0.362406 0.336147 0.549404
O O3 0.357897 0.403600 0.704607
O O4 0.363805 0.417229 0.483488
O O5 0.137081 0.750000 0.485259
O O6 0.134305 0.689650 0.330280
O O7 0.000000 0.699094 0.458740
O O8 0.127806 0.936534 0.116301
O O9 0.157631 0.970933 0.304393
O O10 0.250000 0.000000 0.132429
O O11 0.100066 0.028495 0.162655
O O12 0.500000 0.597395 0.179865
O O13 0.356512 0.605549 0.067345
O O14 0.138116 0.343679 0.875907
O O15 0.000000 0.385771 0.944508
O O16 0.104749 0.500000 0.500000
O O17 0.000000 0.547750 0.378768
O O18 0.864475 0.250000 0.827474
O O19 0.000000 0.301596 0.802611
#
# Coordination Sequence:
#
# PCOD9505165 Si02
#       7
#    16  16  16  16  16  16  16
#     4   9  16  28  47  70  98 131 167 204 247 302
#     4   8  13  22  40  68 100 129 156 195 251 311
#     4  12  24  35  50  74 106 138 173 220 263 310
#     4  10  20  35  51  70  98 138 181 216 252 308
#     4  10  20  34  54  76 102 139 181 219 263 316
#     4  10  18  32  54  74  97 131 169 207 253 311
#     4   8  14  27  49  78 106 128 162 218 272 312
#
# _framework density 10.370369999999999
#
# number of rings (size 3 to 8) (size 9 to 14) (size 15 to 20)
#    0.000    2.429    1.429    3.429    0.000    4.857 
#    0.000    0.714    0.000    4.286    0.000    3.000 
#    0.000    3.429    0.000    0.000    0.000    0.286 
#
# Total GULP energy -312445.581892 kJ/mol
# GULP energy per Si atom -5579.385391 kJ/mol
# Density = 1.034677 g / cm^3
# Si number density = 10.370370 Si / 1000 Ang^3
#
#
#
# Elastic Constant Matrix: (Units=GPa)
#
#
# Indices 1 2 3 4 5 6 
#
# 1 21.4206 5.2883 9.6532 0.0000 0.0000 0.0000
# 2 5.2883 159.9424 72.4704 0.0000 0.0000 0.0000
# 3 9.6532 72.4704 117.1082 0.0000 0.0000 0.0000
# 4 0.0000 0.0000 0.0000 26.5234 0.0000 0.0000
# 5 0.0000 0.0000 0.0000 0.0000 4.7306 0.0000
# 6 0.0000 0.0000 0.0000 0.0000 0.0000 3.9829
#
#
#
# Elastic Compliance Matrix: (Units=1/GPa)
#
#
# Indices 1 2 3 4 5 6 
#
# 1 0.048495 0.000289 -0.004176 0.000000 0.000000 0.000000
# 2 0.000289 0.008690 -0.005402 0.000000 0.000000 0.000000
# 3 -0.004176 -0.005402 0.012226 0.000000 0.000000 0.000000
# 4 0.000000 0.000000 0.000000 0.037703 0.000000 0.000000
# 5 0.000000 0.000000 0.000000 0.000000 0.211392 0.000000
# 6 0.000000 0.000000 0.000000 0.000000 0.000000 0.251075
#
#
# Mechanical properties :
#
#
# Convention : Reuss Voigt Hill
#
# Bulk Modulus (GPa) = 19.67222 52.58832 36.13027
# Shear Modulus (GPa) = 8.26307 21.11799 14.69053
#
# Velocity S-wave (km/s) = 1.99816 3.19437 2.66427
# Velocity P-wave (km/s) = 3.85083 6.24624 5.18866
#
# Compressibility (1/GPa) = 0.05083310
#
# Stress axis : x y z
#
# Youngs Moduli (GPa) = 20.62082 115.07250 81.79277
#
# Poissons Ratio (x) = -0.03323 0.34158
# Poissons Ratio (y) = -0.00596 0.44181
# Poissons Ratio (z) = 0.08611 0.62157
#
# Static dielectric constant tensor:
#      x y z
#    x 1.858090 0.000000 0.000000 
#    y 0.000000 1.739400 0.000000 
#    z 0.000000 0.000000 1.746440 
# 
# From -- ./inp_files/18655.got.cif
#   From: 2010.05.17/outbox.ucp.g08.bks.cvg/sg67_10_cif.got.tgz:18655.got - 2010.06.11 16:47:20.
