data_PCOD9505533
_publ_section_title
;
Structure prediction by ZEFSAII (Michael W. Deem and Ramdas Pophale) SiO2 
 PCOD9505533
Probable space group: C C C A
;
_chemical_formula_sum "Si O2"
_cell_formula_units_Z 104
_cell_length_a 17.415551
_cell_length_b 15.418840
_cell_length_c 21.972664
_cell_angle_alpha 90.000000
_cell_angle_beta 90.000000
_cell_angle_gamma 90.000000
_cell_volume 5900.266606
_symmetry_space_group_name_H-M "C C C A"
_symmetry_group_IT_number 68
_space_group.IT_coordinate_system_code '2'
_symmetry_cell_setting 'orthorhombic'
loop_
_space_group_symop_operation_xyz
x,y,z
-x,1/2-y,z
x,1/2-y,1/2-z
-x,y,1/2-z
-x,-y,-z
x,1/2+y,-z
-x,1/2+y,1/2+z
x,-y,1/2+z
1/2+x,1/2+y,z
1/2-x,-y,z
1/2+x,-y,1/2-z
1/2-x,1/2+y,1/2-z
1/2-x,1/2-y,-z
1/2+x,y,-z
1/2-x,y,1/2+z
1/2+x,1/2-y,1/2+z
loop_
_atom_site_type_symbol
_atom_site_label
_atom_site_fract_x
_atom_site_fract_y
_atom_site_fract_z
Si Si1 0.189242 0.379912 0.973539
Si Si2 0.750000 0.500000 0.631325
Si Si3 0.106482 0.418807 0.299780
Si Si4 0.592100 0.249393 0.868057
Si Si5 0.849680 0.197671 0.499668
Si Si6 0.431621 0.441704 0.662244
Si Si7 0.079059 0.022028 0.965368
O O1 0.218823 0.423211 0.911783
O O2 0.141870 0.290480 0.967583
O O3 0.265058 0.344230 0.008021
O O4 0.142338 0.455579 0.007072
O O5 0.821446 0.535638 0.669394
O O6 0.112161 0.314864 0.312232
O O7 0.098538 0.452050 0.230843
O O8 0.024316 0.436891 0.331567
O O9 0.500000 0.250000 0.878088
O O10 0.606650 0.350202 0.856892
O O11 0.634049 0.215648 0.928350
O O12 0.905049 0.121844 0.520582
O O13 0.418833 0.506842 0.606960
O O14 0.000000 0.000000 0.000000
#
# Coordination Sequence:
#
# PCOD9505533 Si02
#       7
#    16   8  16  16  16  16  16
#     4  11  22  37  57  84 122 156 186 245 301 363
#     4  12  20  40  58  82 118 164 198 224 300 376
#     4  10  21  37  58  84 113 159 193 241 296 347
#     4  10  17  34  58  85 114 144 194 249 300 345
#     4  11  22  36  56  87 122 155 189 244 307 351
#     4  10  21  37  59  85 117 144 199 252 290 343
#     4  12  22  37  61  90 117 156 196 247 298 358
#
# _framework density 17.626322999999999
#
# number of rings (size 3 to 8) (size 9 to 14) (size 15 to 20)
#    0.000    1.231    4.615    3.231    0.000    1.846 
#    2.769    0.000    0.000    0.000    0.000    2.154 
#    0.000    0.000    0.000    0.000    0.000    0.000 
#
# Total GULP energy -289816.805456 kJ/mol
# GULP energy per Si atom -5573.400105 kJ/mol
# Density = 1.758620 g / cm^3
# Si number density = 17.626323 Si / 1000 Ang^3
#
#
#
# Elastic Constant Matrix: (Units=GPa)
#
#
# Indices 1 2 3 4 5 6 
#
# 1 57.2354 35.2745 46.1760 0.0000 0.0000 0.0000
# 2 35.2745 107.0294 45.4460 0.0000 0.0000 0.0000
# 3 46.1760 45.4460 103.9174 0.0000 0.0000 0.0000
# 4 0.0000 0.0000 0.0000 7.2520 0.0000 0.0000
# 5 0.0000 0.0000 0.0000 0.0000 19.7828 0.0000
# 6 0.0000 0.0000 0.0000 0.0000 0.0000 32.6076
#
#
#
# Elastic Compliance Matrix: (Units=1/GPa)
#
#
# Indices 1 2 3 4 5 6 
#
# 1 0.029319 -0.005073 -0.010809 0.000000 0.000000 0.000000
# 2 -0.005073 0.012352 -0.003147 0.000000 0.000000 0.000000
# 3 -0.010809 -0.003147 0.015803 0.000000 0.000000 0.000000
# 4 0.000000 0.000000 0.000000 0.137893 0.000000 0.000000
# 5 0.000000 0.000000 0.000000 0.000000 0.050549 0.000000
# 6 0.000000 0.000000 0.000000 0.000000 0.000000 0.030668
#
#
# Mechanical properties :
#
#
# Convention : Reuss Voigt Hill
#
# Bulk Modulus (GPa) = 51.51067 57.99723 54.75395
# Shear Modulus (GPa) = 15.57078 21.34753 18.45915
#
# Velocity S-wave (km/s) = 2.97540 3.48389 3.23963
# Velocity P-wave (km/s) = 6.41024 7.01131 6.71750
#
# Compressibility (1/GPa) = 0.01941345
#
# Stress axis : x y z
#
# Youngs Moduli (GPa) = 34.10757 80.96073 63.28043
#
# Poissons Ratio (x) = 0.41072 0.68402
# Poissons Ratio (y) = 0.17303 0.19917
# Poissons Ratio (z) = 0.36868 0.25482
#
# Static dielectric constant tensor:
#      x y z
#    x 1.613830 0.000000 0.000000 
#    y 0.000000 1.623640 0.000000 
#    z 0.000000 0.000000 1.602080 
# 
# From -- ./inp_files/39619.got.cif
#   From: 2010.05.17/outbox.cif.g08.bks.cpg/sg68_20_cif.got.tgz:39619.got - 2010.06.03 18:57:09.
