data_PCOD9505250
_publ_section_title
;
Structure prediction by ZEFSAII (Michael W. Deem and Ramdas Pophale) SiO2 
 PCOD9505250
Probable space group: C M M A
;
_chemical_formula_sum "Si O2"
_cell_formula_units_Z 44
_cell_length_a 18.000000
_cell_length_b 9.000000
_cell_length_c 30.000000
_cell_angle_alpha 90.000000
_cell_angle_beta 90.000000
_cell_angle_gamma 90.000000
_cell_volume 4860.000000
_symmetry_space_group_name_H-M "C M M A"
_symmetry_group_IT_number 67
_symmetry_cell_setting 'orthorhombic'
loop_
_space_group_symop_operation_xyz
x,y,z
-x,1/2-y,z
x,-y,-z
-x,1/2+y,-z
-x,-y,-z
x,1/2+y,-z
-x,y,z
x,1/2-y,z
1/2+x,1/2+y,z
1/2-x,-y,z
1/2+x,1/2-y,-z
1/2-x,y,-z
1/2-x,1/2-y,-z
1/2+x,y,-z
1/2-x,1/2+y,z
1/2+x,-y,z
loop_
_atom_site_type_symbol
_atom_site_label
_atom_site_fract_x
_atom_site_fract_y
_atom_site_fract_z
Si Si1 0.911816 0.923498 0.228926
Si Si2 0.912618 0.571551 0.046124
Si Si3 0.833774 0.931127 0.405925
Si Si4 0.827990 0.928345 0.692112
Si Si5 0.500000 0.571246 0.549076
Si Si6 0.169260 0.570569 0.137047
O O1 0.891290 0.750000 0.237834
O O2 0.874489 0.969445 0.182248
O O3 0.000000 0.929914 0.223778
O O4 0.886171 0.022715 0.270382
O O5 0.906653 0.750000 0.042571
O O6 0.871347 0.523998 0.091255
O O7 0.000000 0.534087 0.050426
O O8 0.884680 0.500000 0.000000
O O9 0.826056 0.750000 0.406269
O O10 0.916032 0.965784 0.429368
O O11 0.750000 0.000000 0.420769
O O12 0.842991 0.996534 0.355997
O O13 0.823191 0.750000 0.687699
O O14 0.750000 0.000000 0.707253
O O15 0.500000 0.750000 0.547242
O O16 0.500000 0.500000 0.500000
O O17 0.173632 0.750000 0.136252
O O18 0.250000 0.500000 0.138670
#
# Coordination Sequence:
#
# PCOD9505250 Si02
#       6
#    16  16  16  16   8  16
#     4  10  21  37  57  80 109 147 186 229 282 339
#     4   9  18  34  55  77 101 131 171 217 266 324
#     4  10  21  40  63  91 123 164 207 253 305 362
#     4  11  22  37  58  86 117 152 192 238 289 345
#     4  10  24  42  64  92 126 164 208 254 307 362
#     4  10  21  36  54  76 104 140 179 221 270 327
#
# _framework density 9.0534979999999994
#
# number of rings (size 3 to 8) (size 9 to 14) (size 15 to 20)
#    0.000    2.000    0.000    4.364    1.273    7.636 
#    0.000    3.636    0.000    3.273    0.000    0.000 
#    0.000    0.000    0.000    0.000    0.000    0.000 
#
# Total GULP energy -245163.895806 kJ/mol
# GULP energy per Si atom -5571.906723 kJ/mol
# Density = 0.903289 g / cm^3
# Si number density = 9.053498 Si / 1000 Ang^3
#
#
#
# Elastic Constant Matrix: (Units=GPa)
#
#
# Indices 1 2 3 4 5 6 
#
# 1 126.8141 37.8868 68.5199 0.0000 0.0000 0.0000
# 2 37.8868 65.9440 38.0393 0.0000 0.0000 0.0000
# 3 68.5199 38.0393 110.3516 0.0000 0.0000 0.0000
# 4 0.0000 0.0000 0.0000 29.6036 0.0000 0.0000
# 5 0.0000 0.0000 0.0000 0.0000 38.6950 0.0000
# 6 0.0000 0.0000 0.0000 0.0000 0.0000 36.0810
#
#
#
# Elastic Compliance Matrix: (Units=1/GPa)
#
#
# Indices 1 2 3 4 5 6 
#
# 1 0.012435 -0.003358 -0.006564 0.000000 0.000000 0.000000
# 2 -0.003358 0.019835 -0.004752 0.000000 0.000000 0.000000
# 3 -0.006564 -0.004752 0.014776 0.000000 0.000000 0.000000
# 4 0.000000 0.000000 0.000000 0.033780 0.000000 0.000000
# 5 0.000000 0.000000 0.000000 0.000000 0.025843 0.000000
# 6 0.000000 0.000000 0.000000 0.000000 0.000000 0.027715
#
#
# Mechanical properties :
#
#
# Convention : Reuss Voigt Hill
#
# Bulk Modulus (GPa) = 56.50434 65.77797 61.14116
# Shear Modulus (GPa) = 29.47559 31.45352 30.46456
#
# Velocity S-wave (km/s) = 4.03905 4.17237 4.10625
# Velocity P-wave (km/s) = 7.28186 7.72125 7.50477
#
# Compressibility (1/GPa) = 0.01769776
#
# Stress axis : x y z
#
# Youngs Moduli (GPa) = 80.41546 50.41590 67.67874
#
# Poissons Ratio (x) = 0.16931 0.44423
# Poissons Ratio (y) = 0.27005 0.32162
# Poissons Ratio (z) = 0.52783 0.23958
#
# Static dielectric constant tensor:
#      x y z
#    x 1.653730 0.000000 0.000000 
#    y 0.000000 1.617200 0.000000 
#    z 0.000000 0.000000 1.614150 
# 
# From -- ./inp_files/45199.got.cif
#   From: 2010.05.17/outbox.ucp.g08.bks.cvg/sg67_23_cif.got.tgz:45199.got - 2010.06.11 16:47:20.
