data_PCOD9505706
_publ_section_title
;
Structure prediction by ZEFSAII (Michael W. Deem and Ramdas Pophale) SiO2 
 PCOD9505706
Probable space group: C C C A
;
_chemical_formula_sum "Si O2"
_cell_formula_units_Z 116
_cell_length_a 31.280234
_cell_length_b 26.095944
_cell_length_c 8.850266
_cell_angle_alpha 90.000000
_cell_angle_beta 90.000000
_cell_angle_gamma 90.000000
_cell_volume 7224.359160
_symmetry_space_group_name_H-M "C C C A"
_symmetry_group_IT_number 68
_space_group.IT_coordinate_system_code '2'
_symmetry_cell_setting 'orthorhombic'
loop_
_space_group_symop_operation_xyz
x,y,z
-x,1/2-y,z
x,1/2-y,1/2-z
-x,y,1/2-z
-x,-y,-z
x,1/2+y,-z
-x,1/2+y,1/2+z
x,-y,1/2+z
1/2+x,1/2+y,z
1/2-x,-y,z
1/2+x,-y,1/2-z
1/2-x,1/2+y,1/2-z
1/2-x,1/2-y,-z
1/2+x,y,-z
1/2-x,y,1/2+z
1/2+x,1/2-y,1/2+z
loop_
_atom_site_type_symbol
_atom_site_label
_atom_site_fract_x
_atom_site_fract_y
_atom_site_fract_z
Si Si1 0.284021 0.559217 0.851271
Si Si2 0.640957 0.363445 0.761654
Si Si3 0.806476 0.961079 0.699200
Si Si4 0.794875 0.324284 0.735568
Si Si5 0.708988 0.200909 0.917675
Si Si6 0.000000 0.750000 0.750000
Si Si7 0.082143 0.288346 0.383692
Si Si8 0.357893 0.716979 0.981547
O O1 0.234303 0.554152 0.803233
O O2 0.311399 0.520268 0.746961
O O3 0.295159 0.617672 0.820843
O O4 0.291845 0.545251 0.025794
O O5 0.653576 0.422896 0.775630
O O6 0.682711 0.337620 0.687712
O O7 0.602648 0.343294 0.652622
O O8 0.633206 0.334609 0.921416
O O9 0.755824 0.295661 0.651723
O O10 0.838637 0.299706 0.677571
O O11 0.788517 0.321507 0.913690
O O12 0.680625 0.252015 0.934090
O O13 0.031627 0.783592 0.644717
O O14 0.098885 0.250000 0.250000
O O15 0.102946 0.257475 0.522127
#
# Coordination Sequence:
#
# PCOD9505706 Si02
#       8
#    16  16  16  16  16   4  16  16
#     4  11  22  32  47  58  80 123 172 210 243 273
#     4  10  18  33  48  65  95 123 153 207 240 275
#     4  11  21  34  46  59  86 121 172 214 244 271
#     4  12  21  32  44  64  89 131 171 203 239 276
#     4  11  22  30  45  62  92 132 167 201 235 284
#     4   8  12  28  52  80 102 120 144 184 242 320
#     4   7  15  27  49  73 100 118 141 182 239 287
#     4  10  19  33  43  68  96 124 149 195 241 282
#
# _framework density 16.056787
#
# number of rings (size 3 to 8) (size 9 to 14) (size 15 to 20)
#    0.414    1.379    2.759    5.379    1.931    1.103 
#    0.000    0.000    0.000    0.000    0.000    7.724 
#    0.000    4.414    0.000    0.000    0.000    0.000 
#
# Total GULP energy -323044.201880 kJ/mol
# GULP energy per Si atom -5569.727619 kJ/mol
# Density = 1.602024 g / cm^3
# Si number density = 16.056787 Si / 1000 Ang^3
#
#
#
# Elastic Constant Matrix: (Units=GPa)
#
#
# Indices 1 2 3 4 5 6 
#
# 1 79.4624 23.3523 15.7448 0.0000 0.0000 0.0000
# 2 23.3523 91.2176 5.2263 0.0000 0.0000 0.0000
# 3 15.7448 5.2263 67.7153 0.0000 0.0000 0.0000
# 4 0.0000 0.0000 0.0000 16.3579 0.0000 0.0000
# 5 0.0000 0.0000 0.0000 0.0000 10.3650 0.0000
# 6 0.0000 0.0000 0.0000 0.0000 0.0000 13.5862
#
#
#
# Elastic Compliance Matrix: (Units=1/GPa)
#
#
# Indices 1 2 3 4 5 6 
#
# 1 0.014203 -0.003462 -0.003035 0.000000 0.000000 0.000000
# 2 -0.003462 0.011855 -0.000110 0.000000 0.000000 0.000000
# 3 -0.003035 -0.000110 0.015482 0.000000 0.000000 0.000000
# 4 0.000000 0.000000 0.000000 0.061132 0.000000 0.000000
# 5 0.000000 0.000000 0.000000 0.000000 0.096478 0.000000
# 6 0.000000 0.000000 0.000000 0.000000 0.000000 0.073604
#
#
# Mechanical properties :
#
#
# Convention : Reuss Voigt Hill
#
# Bulk Modulus (GPa) = 35.30353 36.33802 35.82077
# Shear Modulus (GPa) = 16.92548 20.99996 18.96272
#
# Velocity S-wave (km/s) = 3.25021 3.62035 3.44027
# Velocity P-wave (km/s) = 6.00996 6.33688 6.17558
#
# Compressibility (1/GPa) = 0.02832578
#
# Stress axis : x y z
#
# Youngs Moduli (GPa) = 70.40535 84.34931 64.59132
#
# Poissons Ratio (x) = 0.29204 0.19605
# Poissons Ratio (y) = 0.24376 0.00710
# Poissons Ratio (z) = 0.21370 0.00928
#
# Static dielectric constant tensor:
#      x y z
#    x 1.531420 0.000000 0.000000 
#    y 0.000000 1.602870 0.000000 
#    z 0.000000 0.000000 1.587910 
# 
# From -- ./inp_files/9691.got.cif
#   From: 2010.05.17/outbox.cif.g08.bks.cpg/sg68_5_cif.got.tgz:9691.got - 2010.06.03 18:57:09.
