data_PCOD9505123
_publ_section_title
;
Structure prediction by ZEFSAII (Michael W. Deem and Ramdas Pophale) SiO2 
 PCOD9505123
Probable space group: C M M A
;
_chemical_formula_sum "Si O2"
_cell_formula_units_Z 80
_cell_length_a 7.551770
_cell_length_b 28.418382
_cell_length_c 19.472245
_cell_angle_alpha 90.000000
_cell_angle_beta 90.000000
_cell_angle_gamma 90.000000
_cell_volume 4178.920675
_symmetry_space_group_name_H-M "C M M A"
_symmetry_group_IT_number 67
_symmetry_cell_setting 'orthorhombic'
loop_
_space_group_symop_operation_xyz
x,y,z
-x,1/2-y,z
x,-y,-z
-x,1/2+y,-z
-x,-y,-z
x,1/2+y,-z
-x,y,z
x,1/2-y,z
1/2+x,1/2+y,z
1/2-x,-y,z
1/2+x,1/2-y,-z
1/2-x,y,-z
1/2-x,1/2-y,-z
1/2+x,y,-z
1/2-x,1/2+y,z
1/2+x,-y,z
loop_
_atom_site_type_symbol
_atom_site_label
_atom_site_fract_x
_atom_site_fract_y
_atom_site_fract_z
Si Si1 0.711894 0.446448 0.286082
Si Si2 0.715810 0.697303 0.646319
Si Si3 0.783899 0.146540 0.786746
Si Si4 0.711765 0.397466 0.422439
Si Si5 0.287716 0.803785 0.923547
O O1 0.500000 0.442154 0.287502
O O2 0.750000 0.500000 0.268343
O O3 0.775762 0.405785 0.234413
O O4 0.777886 0.432065 0.362366
O O5 0.500000 0.698183 0.644174
O O6 0.778068 0.750000 0.630972
O O7 0.764383 0.680800 0.723410
O O8 0.775791 0.655412 0.595935
O O9 0.721058 0.165649 0.859789
O O10 0.000000 0.146152 0.788417
O O11 0.500000 0.396053 0.416140
O O12 0.750000 0.411330 0.500000
O O13 0.500000 0.801482 0.916895
O O14 0.219733 0.750000 0.919513
O O15 0.250000 0.822076 0.000000
#
# Coordination Sequence:
#
# PCOD9505123 Si02
#       5
#    16  16  16  16  16
#     4   9  18  32  48  65  83 106 141 182 219 253
#     4   8  13  23  41  63  84 109 143 177 206 242
#     4   8  14  26  44  64  86 112 143 177 209 246
#     4   9  18  30  43  62  87 111 137 173 214 255
#     4   9  16  26  43  68  95 120 143 168 202 245
#
# _framework density 19.143699999999999
#
# number of rings (size 3 to 8) (size 9 to 14) (size 15 to 20)
#    0.000    3.400    0.000    3.000    0.000    4.000 
#    0.000    3.000    0.000    1.800    0.000    4.200 
#    0.000    0.000    0.000    0.000    0.000    0.000 
#
# Total GULP energy -222923.053186 kJ/mol
# GULP energy per Si atom -5573.076330 kJ/mol
# Density = 1.910013 g / cm^3
# Si number density = 19.143700 Si / 1000 Ang^3
#
#
#
# Elastic Constant Matrix: (Units=GPa)
#
#
# Indices 1 2 3 4 5 6 
#
# 1 42.8652 3.0858 1.6333 0.0000 0.0000 0.0000
# 2 3.0858 77.5051 25.0383 0.0000 0.0000 0.0000
# 3 1.6333 25.0383 114.4408 0.0000 0.0000 0.0000
# 4 0.0000 0.0000 0.0000 12.9724 0.0000 0.0000
# 5 0.0000 0.0000 0.0000 0.0000 15.4472 0.0000
# 6 0.0000 0.0000 0.0000 0.0000 0.0000 8.1668
#
#
#
# Elastic Compliance Matrix: (Units=1/GPa)
#
#
# Indices 1 2 3 4 5 6 
#
# 1 0.023398 -0.000886 -0.000140 0.000000 0.000000 0.000000
# 2 -0.000886 0.013917 -0.003032 0.000000 0.000000 0.000000
# 3 -0.000140 -0.003032 0.009404 0.000000 0.000000 0.000000
# 4 0.000000 0.000000 0.000000 0.077087 0.000000 0.000000
# 5 0.000000 0.000000 0.000000 0.000000 0.064737 0.000000
# 6 0.000000 0.000000 0.000000 0.000000 0.000000 0.122447
#
#
# Mechanical properties :
#
#
# Convention : Reuss Voigt Hill
#
# Bulk Modulus (GPa) = 25.90563 32.70288 29.30425
# Shear Modulus (GPa) = 15.06143 20.98751 18.02447
#
# Velocity S-wave (km/s) = 2.80796 3.31466 3.07177
# Velocity P-wave (km/s) = 4.90657 5.63642 5.28411
#
# Compressibility (1/GPa) = 0.03860164
#
# Stress axis : x y z
#
# Youngs Moduli (GPa) = 42.73850 71.85322 106.34266
#
# Poissons Ratio (x) = 0.06369 0.01489
# Poissons Ratio (y) = 0.03788 0.32246
# Poissons Ratio (z) = 0.00598 0.21788
#
# Static dielectric constant tensor:
#      x y z
#    x 1.746070 0.000000 0.000000 
#    y 0.000000 1.667560 0.000000 
#    z 0.000000 0.000000 1.658810 
# 
# From -- ./inp_files/26083.got.cif
#   From: 2010.05.17/outbox.cif.g08.bks.cpg/sg67_14_cif.got.tgz:26083.got - 2010.06.03 18:28:57.
