data_PCOD9505732
_publ_section_title
;
Structure prediction by ZEFSAII (Michael W. Deem and Ramdas Pophale) SiO2 
 PCOD9505732
Probable space group: C C C A
;
_chemical_formula_sum "Si O2"
_cell_formula_units_Z 108
_cell_length_a 28.418225
_cell_length_b 13.702855
_cell_length_c 11.818118
_cell_angle_alpha 90.000000
_cell_angle_beta 90.000000
_cell_angle_gamma 90.000000
_cell_volume 4602.102980
_symmetry_space_group_name_H-M "C C C A"
_symmetry_group_IT_number 68
_space_group.IT_coordinate_system_code '2'
_symmetry_cell_setting 'orthorhombic'
loop_
_space_group_symop_operation_xyz
x,y,z
-x,1/2-y,z
x,1/2-y,1/2-z
-x,y,1/2-z
-x,-y,-z
x,1/2+y,-z
-x,1/2+y,1/2+z
x,-y,1/2+z
1/2+x,1/2+y,z
1/2-x,-y,z
1/2+x,-y,1/2-z
1/2-x,1/2+y,1/2-z
1/2-x,1/2-y,-z
1/2+x,y,-z
1/2-x,y,1/2+z
1/2+x,1/2-y,1/2+z
loop_
_atom_site_type_symbol
_atom_site_label
_atom_site_fract_x
_atom_site_fract_y
_atom_site_fract_z
Si Si1 0.650006 0.250000 0.250000
Si Si2 0.206061 0.133003 0.929174
Si Si3 0.000000 0.250000 0.750000
Si Si4 0.898175 0.858257 0.712707
Si Si5 0.876280 0.562496 0.551883
Si Si6 0.427723 0.237098 0.420747
Si Si7 0.697415 0.298707 0.875587
Si Si8 0.456323 0.069354 0.970749
O O1 0.681659 0.170168 0.186829
O O2 0.614503 0.215164 0.347911
O O3 0.260937 0.124611 0.900179
O O4 0.172970 0.052056 0.986494
O O5 0.201831 0.217741 0.025893
O O6 0.035719 0.308549 0.670063
O O7 0.914658 0.750000 0.750000
O O8 0.873253 0.911572 0.817112
O O9 0.855537 0.838735 0.625608
O O10 0.940096 0.921089 0.659774
O O11 0.903804 0.654363 0.495073
O O12 0.911845 0.475916 0.534078
O O13 0.456445 0.318565 0.488534
O O14 0.704324 0.250000 0.750000
O O15 0.500000 0.000000 0.000000
#
# Coordination Sequence:
#
# PCOD9505732 Si02
#       8
#     8  16   4  16  16  16  16  16
#     4   9  18  31  60  90 132 176 214 283 352 403
#     4  10  18  33  60 105 136 175 244 284 346 437
#     4  10  20  36  64  78 128 170 216 280 356 416
#     4  11  21  46  72  96 141 192 232 293 364 424
#     4  11  23  41  70 101 135 185 239 293 354 428
#     4  10  21  40  60  92 131 179 228 288 358 415
#     4  10  18  34  68 100 136 186 239 286 355 437
#     4  12  27  44  68 101 136 181 247 297 356 427
#
# _framework density 23.467531999999999
#
# number of rings (size 3 to 8) (size 9 to 14) (size 15 to 20)
#    0.000    1.481    5.185    1.778    0.000    5.333 
#    0.000    1.481    0.000    1.778    0.000    0.000 
#    0.000    0.000    0.000    0.000    0.000    0.000 
#
# Total GULP energy -301438.246954 kJ/mol
# GULP energy per Si atom -5582.189758 kJ/mol
# Density = 2.341412 g / cm^3
# Si number density = 23.467532 Si / 1000 Ang^3
#
#
#
# Elastic Constant Matrix: (Units=GPa)
#
#
# Indices 1 2 3 4 5 6 
#
# 1 133.4735 36.1476 26.1728 0.0000 0.0000 0.0000
# 2 36.1476 64.5113 16.0433 0.0000 0.0000 0.0000
# 3 26.1728 16.0433 85.1191 0.0000 0.0000 0.0000
# 4 0.0000 0.0000 0.0000 22.3981 0.0000 0.0000
# 5 0.0000 0.0000 0.0000 0.0000 27.5080 0.0000
# 6 0.0000 0.0000 0.0000 0.0000 0.0000 33.4461
#
#
#
# Elastic Compliance Matrix: (Units=1/GPa)
#
#
# Indices 1 2 3 4 5 6 
#
# 1 0.009126 -0.004633 -0.001933 0.000000 0.000000 0.000000
# 2 -0.004633 0.018615 -0.002084 0.000000 0.000000 0.000000
# 3 -0.001933 -0.002084 0.012735 0.000000 0.000000 0.000000
# 4 0.000000 0.000000 0.000000 0.044647 0.000000 0.000000
# 5 0.000000 0.000000 0.000000 0.000000 0.036353 0.000000
# 6 0.000000 0.000000 0.000000 0.000000 0.000000 0.029899
#
#
# Mechanical properties :
#
#
# Convention : Reuss Voigt Hill
#
# Bulk Modulus (GPa) = 43.14620 48.87016 46.00818
# Shear Modulus (GPa) = 28.34464 30.31980 29.33222
#
# Velocity S-wave (km/s) = 3.47915 3.59832 3.53924
# Velocity P-wave (km/s) = 5.87917 6.17525 6.02903
#
# Compressibility (1/GPa) = 0.02317701
#
# Stress axis : x y z
#
# Youngs Moduli (GPa) = 109.57955 53.71918 78.52139
#
# Poissons Ratio (x) = 0.24887 0.15177
# Poissons Ratio (y) = 0.50766 0.16365
# Poissons Ratio (z) = 0.21180 0.11196
#
# Static dielectric constant tensor:
#      x y z
#    x 1.927090 0.000000 0.000000 
#    y 0.000000 1.934380 0.000000 
#    z 0.000000 0.000000 1.931420 
# 
# From -- ./inp_files/17837.got.cif
#   From: 2010.05.17/outbox.cif.g08.bks.cpg/sg68_9_cif.got.tgz:17837.got - 2010.06.03 18:57:09.
