data_PCOD9505654
_publ_section_title
;
Structure prediction by ZEFSAII (Michael W. Deem and Ramdas Pophale) SiO2 
 PCOD9505654
Probable space group: C C C A
;
_chemical_formula_sum "Si O2"
_cell_formula_units_Z 80
_cell_length_a 16.622213
_cell_length_b 8.821465
_cell_length_c 29.229918
_cell_angle_alpha 90.000000
_cell_angle_beta 90.000000
_cell_angle_gamma 90.000000
_cell_volume 4286.049234
_symmetry_space_group_name_H-M "C C C A"
_symmetry_group_IT_number 68
_space_group.IT_coordinate_system_code '2'
_symmetry_cell_setting 'orthorhombic'
loop_
_space_group_symop_operation_xyz
x,y,z
-x,1/2-y,z
x,1/2-y,1/2-z
-x,y,1/2-z
-x,-y,-z
x,1/2+y,-z
-x,1/2+y,1/2+z
x,-y,1/2+z
1/2+x,1/2+y,z
1/2-x,-y,z
1/2+x,-y,1/2-z
1/2-x,1/2+y,1/2-z
1/2-x,1/2-y,-z
1/2+x,y,-z
1/2-x,y,1/2+z
1/2+x,1/2-y,1/2+z
loop_
_atom_site_type_symbol
_atom_site_label
_atom_site_fract_x
_atom_site_fract_y
_atom_site_fract_z
Si Si1 0.579823 0.851472 0.628974
Si Si2 0.988772 0.425846 0.195923
Si Si3 0.595206 0.064866 0.546311
Si Si4 0.160324 0.448349 0.855691
Si Si5 0.899813 0.086008 0.450895
O O1 0.500000 0.750000 0.615681
O O2 0.644614 0.730955 0.646113
O O3 0.549082 0.966971 0.667623
O O4 0.613538 0.948908 0.587027
O O5 0.900783 0.475741 0.179807
O O6 0.000000 0.250000 0.183307
O O7 0.000000 0.443478 0.250000
O O8 0.624318 0.237410 0.550959
O O9 0.497349 0.076193 0.548734
O O10 0.623215 0.994751 0.498269
O O11 0.250000 0.500000 0.847015
O O12 0.134120 0.502571 0.906504
#
# Coordination Sequence:
#
# PCOD9505654 Si02
#       5
#    16  16  16  16  16
#     4  10  19  34  58  84 116 155 203 239 285 353
#     4  10  21  41  66  90 115 152 203 245 288 362
#     4  10  18  31  56  84 111 159 208 247 277 342
#     4  11  23  39  58  90 127 154 189 251 307 348
#     4  10  19  31  54  83 120 152 203 247 288 344
#
# _framework density 18.665206000000001
#
# number of rings (size 3 to 8) (size 9 to 14) (size 15 to 20)
#    0.000    1.800    4.000    2.400    2.800    3.600 
#    0.000   12.000    0.000    0.000    0.000    0.000 
#    0.000    0.000    0.000    0.000    0.000    0.000 
#
# Total GULP energy -223344.920215 kJ/mol
# GULP energy per Si atom -5583.623005 kJ/mol
# Density = 1.862272 g / cm^3
# Si number density = 18.665206 Si / 1000 Ang^3
#
#
#
# Elastic Constant Matrix: (Units=GPa)
#
#
# Indices 1 2 3 4 5 6 
#
# 1 72.9380 47.8712 45.7907 0.0000 0.0000 0.0000
# 2 47.8712 168.4636 73.0978 0.0000 0.0000 0.0000
# 3 45.7907 73.0978 101.8018 0.0000 0.0000 0.0000
# 4 0.0000 0.0000 0.0000 32.2081 0.0000 0.0000
# 5 0.0000 0.0000 0.0000 0.0000 2.4013 0.0000
# 6 0.0000 0.0000 0.0000 0.0000 0.0000 12.1665
#
#
#
# Elastic Compliance Matrix: (Units=1/GPa)
#
#
# Indices 1 2 3 4 5 6 
#
# 1 0.019840 -0.002565 -0.007083 0.000000 0.000000 0.000000
# 2 -0.002565 0.008954 -0.005276 0.000000 0.000000 0.000000
# 3 -0.007083 -0.005276 0.016797 0.000000 0.000000 0.000000
# 4 0.000000 0.000000 0.000000 0.031048 0.000000 0.000000
# 5 0.000000 0.000000 0.000000 0.000000 0.416445 0.000000
# 6 0.000000 0.000000 0.000000 0.000000 0.000000 0.082193
#
#
# Mechanical properties :
#
#
# Convention : Reuss Voigt Hill
#
# Bulk Modulus (GPa) = 63.51203 75.19143 69.35173
# Shear Modulus (GPa) = 8.19174 21.11808 14.65491
#
# Velocity S-wave (km/s) = 2.09721 3.36730 2.80509
# Velocity P-wave (km/s) = 6.32181 7.44916 6.90852
#
# Compressibility (1/GPa) = 0.01574505
#
# Stress axis : x y z
#
# Youngs Moduli (GPa) = 50.40331 111.68255 59.53460
#
# Poissons Ratio (x) = 0.28642 0.42166
# Poissons Ratio (y) = 0.12926 0.31409
# Poissons Ratio (z) = 0.35699 0.58921
#
# Static dielectric constant tensor:
#      x y z
#    x 1.637130 0.000000 0.000000 
#    y 0.000000 1.655550 0.000000 
#    z 0.000000 0.000000 1.623650 
# 
# From -- ./inp_files/51301.got.cif
#   From: 2010.05.17/outbox.cif.g08.bks.cpg/sg68_26_cif.got.tgz:51301.got - 2010.06.03 18:57:09.
