data_PCOD9505180
_publ_section_title
;
Structure prediction by ZEFSAII (Michael W. Deem and Ramdas Pophale) SiO2 
 PCOD9505180
Probable space group: C M M A
;
_chemical_formula_sum "Si O2"
_cell_formula_units_Z 48
_cell_length_a 15.000000
_cell_length_b 21.000000
_cell_length_c 15.000000
_cell_angle_alpha 90.000000
_cell_angle_beta 90.000000
_cell_angle_gamma 90.000000
_cell_volume 4725.000000
_symmetry_space_group_name_H-M "C M M A"
_symmetry_group_IT_number 67
_symmetry_cell_setting 'orthorhombic'
loop_
_space_group_symop_operation_xyz
x,y,z
-x,1/2-y,z
x,-y,-z
-x,1/2+y,-z
-x,-y,-z
x,1/2+y,-z
-x,y,z
x,1/2-y,z
1/2+x,1/2+y,z
1/2-x,-y,z
1/2+x,1/2-y,-z
1/2-x,y,-z
1/2-x,1/2-y,-z
1/2+x,y,-z
1/2-x,1/2+y,z
1/2+x,-y,z
loop_
_atom_site_type_symbol
_atom_site_label
_atom_site_fract_x
_atom_site_fract_y
_atom_site_fract_z
Si Si1 0.891434 0.921603 0.403029
Si Si2 0.606117 0.180821 0.257302
Si Si3 0.395791 0.102024 0.793649
Si Si4 0.100199 0.527905 0.099518
Si Si5 0.608324 0.431274 0.600362
Si Si6 0.768803 0.145388 0.898620
O O1 0.863104 0.875199 0.323766
O O2 0.863518 0.904552 0.504258
O O3 0.000000 0.920505 0.401375
O O4 0.863374 0.994911 0.390935
O O5 0.500000 0.173151 0.240290
O O6 0.617339 0.250000 0.301422
O O7 0.662443 0.180818 0.166428
O O8 0.500000 0.120418 0.802740
O O9 0.367228 0.104361 0.690548
O O10 0.327096 0.141339 0.852180
O O11 0.390174 0.029206 0.829895
O O12 0.181892 0.576463 0.100723
O O13 0.000000 0.556108 0.114486
O O14 0.099043 0.500000 0.000000
O O15 0.500000 0.432641 0.599469
O O16 0.750000 0.166239 0.000000
#
# Coordination Sequence:
#
# PCOD9505180 Si02
#       6
#    16  16  16  16  16  16
#     4   8  14  29  54  81 109 141 178 225 282 345
#     4  10  22  40  61  84 108 141 191 247 296 340
#     4  10  20  32  49  77 114 150 183 225 277 350
#     4  10  19  32  50  77 115 153 190 229 284 350
#     4   8  14  27  51  82 113 145 176 213 278 352
#     4  12  23  34  54  77 110 150 193 238 286 337
#
# _framework density 10.15873
#
# number of rings (size 3 to 8) (size 9 to 14) (size 15 to 20)
#    0.000    2.333    1.667    3.000    0.000    3.667 
#    0.000    0.833    0.000    4.500    0.000    2.333 
#    0.000    0.000    0.000    0.000    0.000    0.000 
#
# Total GULP energy -267775.584680 kJ/mol
# GULP energy per Si atom -5578.658014 kJ/mol
# Density = 1.013561 g / cm^3
# Si number density = 10.158730 Si / 1000 Ang^3
#
#
#
# Elastic Constant Matrix: (Units=GPa)
#
#
# Indices 1 2 3 4 5 6 
#
# 1 87.6532 17.7155 41.6908 0.0000 0.0000 0.0000
# 2 17.7155 40.0398 28.2602 0.0000 0.0000 0.0000
# 3 41.6908 28.2602 160.1087 0.0000 0.0000 0.0000
# 4 0.0000 0.0000 0.0000 5.6654 0.0000 0.0000
# 5 0.0000 0.0000 0.0000 0.0000 8.6189 0.0000
# 6 0.0000 0.0000 0.0000 0.0000 0.0000 -0.3619
#
#
#
# Elastic Compliance Matrix: (Units=1/GPa)
#
#
# Indices 1 2 3 4 5 6 
#
# 1 0.013562 -0.004007 -0.002824 0.000000 0.000000 0.000000
# 2 -0.004007 0.029713 -0.004201 0.000000 0.000000 0.000000
# 3 -0.002824 -0.004201 0.007723 0.000000 0.000000 0.000000
# 4 0.000000 0.000000 0.000000 0.176509 0.000000 0.000000
# 5 0.000000 0.000000 0.000000 0.000000 0.116024 0.000000
# 6 0.000000 0.000000 0.000000 0.000000 0.000000 -2.763101
#
#
# Mechanical properties :
#
#
# Convention : Reuss Voigt Hill
#
# Bulk Modulus (GPa) = 34.56265 51.45941 43.01103
# Shear Modulus (GPa) = -2.09392 16.12682 7.01645
#
# Velocity S-wave (km/s) = -1.01629 2.82040 1.86035
# Velocity P-wave (km/s) = 3.95868 5.99907 5.08232
#
# Compressibility (1/GPa) = 0.02893297
#
# Stress axis : x y z
#
# Youngs Moduli (GPa) = 73.73715 33.65497 129.48923
#
# Poissons Ratio (x) = 0.13486 0.36569
# Poissons Ratio (y) = 0.29547 0.54401
# Poissons Ratio (z) = 0.20824 0.14139
#
# Static dielectric constant tensor:
#      x y z
#    x 1.737320 0.000000 0.000000 
#    y 0.000000 1.724050 0.000000 
#    z 0.000000 0.000000 1.733350 
# 
# From -- ./inp_files/27185.got.cif
#   From: 2010.05.17/outbox.ucp.g08.bks.cvg/sg67_14_cif.got.tgz:27185.got - 2010.06.11 16:47:20.
