data_PCOD9505185
_publ_section_title
;
Structure prediction by ZEFSAII (Michael W. Deem and Ramdas Pophale) SiO2 
 PCOD9505185
Probable space group: C M M A
;
_chemical_formula_sum "Si O2"
_cell_formula_units_Z 48
_cell_length_a 15.000000
_cell_length_b 15.000000
_cell_length_c 21.000000
_cell_angle_alpha 90.000000
_cell_angle_beta 90.000000
_cell_angle_gamma 90.000000
_cell_volume 4725.000000
_symmetry_space_group_name_H-M "C M M A"
_symmetry_group_IT_number 67
_symmetry_cell_setting 'orthorhombic'
loop_
_space_group_symop_operation_xyz
x,y,z
-x,1/2-y,z
x,-y,-z
-x,1/2+y,-z
-x,-y,-z
x,1/2+y,-z
-x,y,z
x,1/2-y,z
1/2+x,1/2+y,z
1/2-x,-y,z
1/2+x,1/2-y,-z
1/2-x,y,-z
1/2-x,1/2-y,-z
1/2+x,y,-z
1/2-x,1/2+y,z
1/2+x,-y,z
loop_
_atom_site_type_symbol
_atom_site_label
_atom_site_fract_x
_atom_site_fract_y
_atom_site_fract_z
Si Si1 0.664129 0.351631 0.089282
Si Si2 0.103492 0.601204 0.477797
Si Si3 0.775187 0.852203 0.596925
Si Si4 0.400745 0.015256 0.835712
Si Si5 0.372184 0.851698 0.052095
Si Si6 0.392876 0.143294 0.718924
O O1 0.640381 0.250000 0.108447
O O2 0.651158 0.426954 0.142319
O O3 0.766838 0.351304 0.067929
O O4 0.613972 0.373251 0.022508
O O5 0.095286 0.500000 0.500000
O O6 0.155527 0.646166 0.537320
O O7 0.180225 0.603667 0.422640
O O8 0.000000 0.632763 0.465537
O O9 0.750870 0.750000 0.608922
O O10 0.831456 0.882679 0.658564
O O11 0.500000 0.985191 0.817530
O O12 0.407108 0.077207 0.898229
O O13 0.369046 0.079946 0.778691
O O14 0.402597 0.750000 0.062929
O O15 0.500000 0.133100 0.705775
O O16 0.379966 0.250000 0.732476
#
# Coordination Sequence:
#
# PCOD9505185 Si02
#       6
#    16  16  16  16  16  16
#     4   9  19  35  53  75 106 144 186 233 284 343
#     4  10  20  34  54  85 124 156 186 230 278 331
#     4  10  19  33  57  85 114 152 194 235 286 340
#     4  11  21  32  51  80 112 146 184 230 289 350
#     4   9  18  34  54  75 103 141 187 237 286 339
#     4   9  19  35  53  78 114 153 197 248 296 348
#
# _framework density 10.15873
#
# number of rings (size 3 to 8) (size 9 to 14) (size 15 to 20)
#    0.000    2.333    0.000    5.000    0.000    6.000 
#    0.000    5.000    0.000    0.000    0.000    4.667 
#    0.000   32.000    0.000    0.667    0.000    0.000 
#
# Total GULP energy -267566.233867 kJ/mol
# GULP energy per Si atom -5574.296539 kJ/mol
# Density = 1.013561 g / cm^3
# Si number density = 10.158730 Si / 1000 Ang^3
#
#
#
# Elastic Constant Matrix: (Units=GPa)
#
#
# Indices 1 2 3 4 5 6 
#
# 1 129.5180 44.5342 54.7800 0.0000 0.0000 0.0000
# 2 44.5342 96.9823 64.5771 0.0000 0.0000 0.0000
# 3 54.7800 64.5771 112.4963 0.0000 0.0000 0.0000
# 4 0.0000 0.0000 0.0000 33.3589 0.0000 0.0000
# 5 0.0000 0.0000 0.0000 0.0000 10.4168 0.0000
# 6 0.0000 0.0000 0.0000 0.0000 0.0000 26.5811
#
#
#
# Elastic Compliance Matrix: (Units=1/GPa)
#
#
# Indices 1 2 3 4 5 6 
#
# 1 0.010002 -0.002185 -0.003616 0.000000 0.000000 0.000000
# 2 -0.002185 0.017168 -0.008791 0.000000 0.000000 0.000000
# 3 -0.003616 -0.008791 0.015697 0.000000 0.000000 0.000000
# 4 0.000000 0.000000 0.000000 0.029977 0.000000 0.000000
# 5 0.000000 0.000000 0.000000 0.000000 0.095999 0.000000
# 6 0.000000 0.000000 0.000000 0.000000 0.000000 0.037621
#
#
# Mechanical properties :
#
#
# Convention : Reuss Voigt Hill
#
# Bulk Modulus (GPa) = 73.08921 74.08657 73.58789
# Shear Modulus (GPa) = 20.81529 25.74506 23.28017
#
# Velocity S-wave (km/s) = 3.20426 3.56355 3.38867
# Velocity P-wave (km/s) = 7.05276 7.31270 7.18390
#
# Compressibility (1/GPa) = 0.01368191
#
# Stress axis : x y z
#
# Youngs Moduli (GPa) = 99.98369 58.24692 63.70832
#
# Poissons Ratio (x) = 0.12727 0.23037
# Poissons Ratio (y) = 0.21846 0.56008
# Poissons Ratio (z) = 0.36155 0.51207
#
# Static dielectric constant tensor:
#      x y z
#    x 1.810370 0.000000 0.000000 
#    y 0.000000 1.746040 0.000000 
#    z 0.000000 0.000000 1.720600 
# 
# From -- ./inp_files/38408.got.cif
#   From: 2010.05.17/outbox.ucp.g08.bks.cvg/sg67_20_cif.got.tgz:38408.got - 2010.06.11 16:47:20.
