data_PCOD9505366
_publ_section_title
;
Structure prediction by ZEFSAII (Michael W. Deem and Ramdas Pophale) SiO2 
 PCOD9505366
Probable space group: C C C A
;
_chemical_formula_sum "Si O2"
_cell_formula_units_Z 80
_cell_length_a 17.739483
_cell_length_b 8.315215
_cell_length_c 27.090401
_cell_angle_alpha 90.000000
_cell_angle_beta 90.000000
_cell_angle_gamma 90.000000
_cell_volume 3996.040445
_symmetry_space_group_name_H-M "C C C A"
_symmetry_group_IT_number 68
_space_group.IT_coordinate_system_code '2'
_symmetry_cell_setting 'orthorhombic'
loop_
_space_group_symop_operation_xyz
x,y,z
-x,1/2-y,z
x,1/2-y,1/2-z
-x,y,1/2-z
-x,-y,-z
x,1/2+y,-z
-x,1/2+y,1/2+z
x,-y,1/2+z
1/2+x,1/2+y,z
1/2-x,-y,z
1/2+x,-y,1/2-z
1/2-x,1/2+y,1/2-z
1/2-x,1/2-y,-z
1/2+x,y,-z
1/2-x,y,1/2+z
1/2+x,1/2-y,1/2+z
loop_
_atom_site_type_symbol
_atom_site_label
_atom_site_fract_x
_atom_site_fract_y
_atom_site_fract_z
Si Si1 0.750000 0.500000 0.297890
Si Si2 0.869615 0.106530 0.350417
Si Si3 0.415881 0.756364 0.450073
Si Si4 0.169215 0.918109 0.463278
Si Si5 0.139737 0.750000 0.750000
Si Si6 0.303033 0.728482 0.865577
O O1 0.804652 0.393997 0.265046
O O2 0.697951 0.386639 0.331740
O O3 0.915198 0.166684 0.397615
O O4 0.899169 0.186235 0.299781
O O5 0.783853 0.170297 0.360391
O O6 0.858027 0.914470 0.348739
O O7 0.500000 0.750000 0.470990
O O8 0.361222 0.662175 0.487228
O O9 0.385990 0.938414 0.445965
O O10 0.178489 0.784392 0.420820
O O11 0.250000 0.000000 0.471301
#
# Coordination Sequence:
#
# PCOD9505366 Si02
#       6
#     8  16  16  16   8  16
#     4  10  16  30  48  88 124 146 190 254 318 344
#     4  10  21  36  57  87 120 159 204 251 308 360
#     4  12  26  41  59  89 128 164 202 253 313 369
#     4  12  22  40  63  91 121 166 210 250 301 372
#     4  10  18  32  55  84 120 160 199 252 306 364
#     4  10  19  34  60  90 119 155 200 255 301 363
#
# _framework density 20.019818999999998
#
# number of rings (size 3 to 8) (size 9 to 14) (size 15 to 20)
#    0.000    1.200    3.000    6.000    2.800    0.000 
#    0.000    0.500    0.000    0.000    0.000    2.800 
#    0.000    0.000    0.000    0.000    0.000    0.000 
#
# Total GULP energy -223529.519038 kJ/mol
# GULP energy per Si atom -5588.237976 kJ/mol
# Density = 1.997425 g / cm^3
# Si number density = 20.019819 Si / 1000 Ang^3
#
#
#
# Elastic Constant Matrix: (Units=GPa)
#
#
# Indices 1 2 3 4 5 6 
#
# 1 40.2383 8.5522 5.4544 0.0000 0.0000 0.0000
# 2 8.5522 112.2067 44.1546 0.0000 0.0000 0.0000
# 3 5.4544 44.1546 130.9380 0.0000 0.0000 0.0000
# 4 0.0000 0.0000 0.0000 26.2071 0.0000 0.0000
# 5 0.0000 0.0000 0.0000 0.0000 -18.6705 0.0000
# 6 0.0000 0.0000 0.0000 0.0000 0.0000 7.7735
#
#
#
# Elastic Compliance Matrix: (Units=1/GPa)
#
#
# Indices 1 2 3 4 5 6 
#
# 1 0.025286 -0.001744 -0.000465 0.000000 0.000000 0.000000
# 2 -0.001744 0.010396 -0.003433 0.000000 0.000000 0.000000
# 3 -0.000465 -0.003433 0.008814 0.000000 0.000000 0.000000
# 4 0.000000 0.000000 0.000000 0.038158 0.000000 0.000000
# 5 0.000000 0.000000 0.000000 0.000000 -0.053560 0.000000
# 6 0.000000 0.000000 0.000000 0.000000 0.000000 0.128642
#
#
# Mechanical properties :
#
#
# Convention : Reuss Voigt Hill
#
# Bulk Modulus (GPa) = 30.11034 44.41171 37.26102
# Shear Modulus (GPa) = 27.76381 18.07681 22.92031
#
# Velocity S-wave (km/s) = 3.72804 3.00817 3.38728
# Velocity P-wave (km/s) = 5.79689 5.85640 5.82672
#
# Compressibility (1/GPa) = 0.03321118
#
# Stress axis : x y z
#
# Youngs Moduli (GPa) = 39.54807 96.19073 113.45240
#
# Poissons Ratio (x) = 0.16778 0.05277
# Poissons Ratio (y) = 0.06898 0.38949
# Poissons Ratio (z) = 0.01840 0.33023
#
# Static dielectric constant tensor:
#      x y z
#    x 1.666730 0.000000 0.000000 
#    y 0.000000 1.716020 0.000000 
#    z 0.000000 0.000000 1.736270 
# 
# From -- ./inp_files/46421.got.cif
#   From: 2010.05.17/outbox.cif.g08.bks.cpg/sg68_24_cif.got.tgz:46421.got - 2010.06.03 18:57:09.
