data_PCOD9505872
_publ_section_title
;
Structure prediction by ZEFSAII (Michael W. Deem and Ramdas Pophale) SiO2 
 PCOD9505872
Probable space group: C C C A
;
_chemical_formula_sum "Si O2"
_cell_formula_units_Z 64
_cell_length_a 12.423206
_cell_length_b 13.647436
_cell_length_c 17.072874
_cell_angle_alpha 90.000000
_cell_angle_beta 90.000000
_cell_angle_gamma 90.000000
_cell_volume 2894.618865
_symmetry_space_group_name_H-M "C C C A"
_symmetry_group_IT_number 68
_space_group.IT_coordinate_system_code '2'
_symmetry_cell_setting 'orthorhombic'
loop_
_space_group_symop_operation_xyz
x,y,z
-x,1/2-y,z
x,1/2-y,1/2-z
-x,y,1/2-z
-x,-y,-z
x,1/2+y,-z
-x,1/2+y,1/2+z
x,-y,1/2+z
1/2+x,1/2+y,z
1/2-x,-y,z
1/2+x,-y,1/2-z
1/2-x,1/2+y,1/2-z
1/2-x,1/2-y,-z
1/2+x,y,-z
1/2-x,y,1/2+z
1/2+x,1/2-y,1/2+z
loop_
_atom_site_type_symbol
_atom_site_label
_atom_site_fract_x
_atom_site_fract_y
_atom_site_fract_z
Si Si1 0.183123 0.854323 0.227723
Si Si2 0.500000 0.013375 0.750000
Si Si3 0.700925 0.819985 0.432157
Si Si4 0.874945 0.863630 0.643774
Si Si5 0.750000 0.000000 0.023159
O O1 0.131405 0.750000 0.250000
O O2 0.216814 0.847560 0.137407
O O3 0.287420 0.861611 0.284693
O O4 0.102981 0.943497 0.241864
O O5 0.519774 0.084866 0.677180
O O6 0.750000 0.750000 0.500000
O O7 0.618901 0.745772 0.390003
O O8 0.678377 0.923749 0.472900
O O9 0.825332 0.933984 0.577814
#
# Coordination Sequence:
#
# PCOD9505872 Si02
#       5
#    16   8  16  16   8
#     4  10  21  40  66  91 128 176 222 264 322 392
#     4  12  21  36  71  98 128 162 230 272 320 384
#     4   9  21  39  67  90 126 175 212 264 328 385
#     4  10  21  40  65  98 128 170 222 270 321 390
#     4  10  18  38  68  88 132 178 214 260 338 390
#
# _framework density 22.109992999999999
#
# number of rings (size 3 to 8) (size 9 to 14) (size 15 to 20)
#    0.000    2.000    2.500    0.375    3.500    0.000 
#    0.000   10.625    5.500    0.000    0.000    0.000 
#    0.000    0.000    0.000    0.000    0.000    0.000 
#
# Total GULP energy -178672.724053 kJ/mol
# GULP energy per Si atom -5583.522627 kJ/mol
# Density = 2.205967 g / cm^3
# Si number density = 22.109993 Si / 1000 Ang^3
#
#
#
# Elastic Constant Matrix: (Units=GPa)
#
#
# Indices 1 2 3 4 5 6 
#
# 1 52.4813 39.9397 28.4249 0.0000 0.0000 0.0000
# 2 39.9397 201.8776 66.2581 0.0000 0.0000 0.0000
# 3 28.4249 66.2581 131.7725 0.0000 0.0000 0.0000
# 4 0.0000 0.0000 0.0000 111.1843 0.0000 0.0000
# 5 0.0000 0.0000 0.0000 0.0000 9.8061 0.0000
# 6 0.0000 0.0000 0.0000 0.0000 0.0000 24.5398
#
#
#
# Elastic Compliance Matrix: (Units=1/GPa)
#
#
# Indices 1 2 3 4 5 6 
#
# 1 0.023559 -0.003584 -0.003279 0.000000 0.000000 0.000000
# 2 -0.003584 0.006478 -0.002484 0.000000 0.000000 0.000000
# 3 -0.003279 -0.002484 0.009545 0.000000 0.000000 0.000000
# 4 0.000000 0.000000 0.000000 0.008994 0.000000 0.000000
# 5 0.000000 0.000000 0.000000 0.000000 0.101977 0.000000
# 6 0.000000 0.000000 0.000000 0.000000 0.000000 0.040750
#
#
# Mechanical properties :
#
#
# Convention : Reuss Voigt Hill
#
# Bulk Modulus (GPa) = 47.87958 72.81966 60.34962
# Shear Modulus (GPa) = 23.04560 45.87329 34.45945
#
# Velocity S-wave (km/s) = 3.23199 4.55991 3.95213
# Velocity P-wave (km/s) = 5.96908 7.79297 6.94119
#
# Compressibility (1/GPa) = 0.02088573
#
# Stress axis : x y z
#
# Youngs Moduli (GPa) = 42.44747 154.37010 104.76369
#
# Poissons Ratio (x) = 0.55334 0.34357
# Poissons Ratio (y) = 0.15215 0.26024
# Poissons Ratio (z) = 0.13921 0.38346
#
# Static dielectric constant tensor:
#      x y z
#    x 1.854860 0.000000 0.000000 
#    y 0.000000 1.824130 0.000000 
#    z 0.000000 0.000000 1.818600 
# 
# From -- ./inp_files/30604.got.cif
#   From: 2010.05.17/outbox.cif.g08.bks.cpg/sg68_16_cif.got.tgz:30604.got - 2010.06.03 18:57:09.
