data_PCOD9505707
_publ_section_title
;
Structure prediction by ZEFSAII (Michael W. Deem and Ramdas Pophale) SiO2 
 PCOD9505707
Probable space group: C C C A
;
_chemical_formula_sum "Si O2"
_cell_formula_units_Z 84
_cell_length_a 21.272188
_cell_length_b 23.303564
_cell_length_c 7.058408
_cell_angle_alpha 90.000000
_cell_angle_beta 90.000000
_cell_angle_gamma 90.000000
_cell_volume 3498.978446
_symmetry_space_group_name_H-M "C C C A"
_symmetry_group_IT_number 68
_space_group.IT_coordinate_system_code '2'
_symmetry_cell_setting 'orthorhombic'
loop_
_space_group_symop_operation_xyz
x,y,z
-x,1/2-y,z
x,1/2-y,1/2-z
-x,y,1/2-z
-x,-y,-z
x,1/2+y,-z
-x,1/2+y,1/2+z
x,-y,1/2+z
1/2+x,1/2+y,z
1/2-x,-y,z
1/2+x,-y,1/2-z
1/2-x,1/2+y,1/2-z
1/2-x,1/2-y,-z
1/2+x,y,-z
1/2-x,y,1/2+z
1/2+x,1/2-y,1/2+z
loop_
_atom_site_type_symbol
_atom_site_label
_atom_site_fract_x
_atom_site_fract_y
_atom_site_fract_z
Si Si1 0.613376 0.053900 0.554167
Si Si2 0.409329 0.157113 0.213150
Si Si3 0.748364 0.402844 0.480062
Si Si4 0.237112 0.684826 0.267924
Si Si5 0.500000 0.750000 0.750000
Si Si6 0.895990 0.073576 0.482943
O O1 0.586945 0.100121 0.410219
O O2 0.688973 0.057681 0.514612
O O3 0.599562 0.077560 0.760324
O O4 0.584579 0.990678 0.539173
O O5 0.338966 0.181975 0.219950
O O6 0.454099 0.207011 0.142424
O O7 0.424290 0.129667 0.418157
O O8 0.748637 0.329264 0.483120
O O9 0.755595 0.386805 0.230876
O O10 0.678117 0.426749 0.464216
O O11 0.262004 0.750000 0.250000
#
# Coordination Sequence:
#
# PCOD9505707 Si02
#       6
#    16  16  16  16   4  16
#     4  11  21  38  62  97 137 167 210 254 309 380
#     4  10  24  41  68  92 120 167 213 266 327 373
#     4  10  20  30  52  90 132 179 201 234 302 366
#     4  10  18  33  51  84 124 166 210 245 292 366
#     4  12  24  56  74  84 124 166 212 274 338 390
#     4  11  21  38  62  97 137 167 210 254 309 380
#
# _framework density 24.007007999999999
#
# number of rings (size 3 to 8) (size 9 to 14) (size 15 to 20)
#    0.000    1.524    4.762    1.143    0.000    1.524 
#    0.000    3.810    0.000    0.000    0.000    0.000 
#    0.000    0.000    0.000    0.000    0.000    0.000 
#
# Total GULP energy -233977.031598 kJ/mol
# GULP energy per Si atom -5570.881705 kJ/mol
# Density = 2.395237 g / cm^3
# Si number density = 24.007008 Si / 1000 Ang^3
#
#
#
# Elastic Constant Matrix: (Units=GPa)
#
#
# Indices 1 2 3 4 5 6 
#
# 1 69.2071 25.4354 -0.0035 0.0000 0.0000 0.0000
# 2 25.4354 119.8907 12.7508 0.0000 0.0000 0.0000
# 3 -0.0035 12.7508 132.4616 0.0000 0.0000 0.0000
# 4 0.0000 0.0000 0.0000 23.5552 0.0000 0.0000
# 5 0.0000 0.0000 0.0000 0.0000 -10.3255 0.0000
# 6 0.0000 0.0000 0.0000 0.0000 0.0000 20.9739
#
#
#
# Elastic Compliance Matrix: (Units=1/GPa)
#
#
# Indices 1 2 3 4 5 6 
#
# 1 0.015685 -0.003362 0.000324 0.000000 0.000000 0.000000
# 2 -0.003362 0.009148 -0.000881 0.000000 0.000000 0.000000
# 3 0.000324 -0.000881 0.007634 0.000000 0.000000 0.000000
# 4 0.000000 0.000000 0.000000 0.042453 0.000000 0.000000
# 5 0.000000 0.000000 0.000000 0.000000 -0.096848 0.000000
# 6 0.000000 0.000000 0.000000 0.000000 0.000000 0.047678
#
#
# Mechanical properties :
#
#
# Convention : Reuss Voigt Hill
#
# Bulk Modulus (GPa) = 40.60154 44.21388 42.40771
# Shear Modulus (GPa) = 119.62228 25.73252 72.67740
#
# Velocity S-wave (km/s) = 7.06656 3.27750 5.50810
# Velocity P-wave (km/s) = 9.13952 5.72536 7.62596
#
# Compressibility (1/GPa) = 0.02462960
#
# Stress axis : x y z
#
# Youngs Moduli (GPa) = 63.75488 109.31489 130.99051
#
# Poissons Ratio (x) = 0.36753 -0.04245
# Poissons Ratio (y) = 0.21435 0.11536
# Poissons Ratio (z) = -0.02066 0.09627
#
# Static dielectric constant tensor:
#      x y z
#    x 1.862630 0.000000 0.000000 
#    y 0.000000 1.886210 0.000000 
#    z 0.000000 0.000000 2.544670 
# 
# From -- ./inp_files/7947.got.cif
#   From: 2010.05.17/outbox.cif.g08.bks.cpg/sg68_4_cif.got.tgz:7947.got - 2010.06.03 18:57:09.
