data_PCOD9505147
_publ_section_title
;
Structure prediction by ZEFSAII (Michael W. Deem and Ramdas Pophale) SiO2 
 PCOD9505147
Probable space group: C M M A
;
_chemical_formula_sum "Si O2"
_cell_formula_units_Z 96
_cell_length_a 19.318835
_cell_length_b 7.737377
_cell_length_c 32.650691
_cell_angle_alpha 90.000000
_cell_angle_beta 90.000000
_cell_angle_gamma 90.000000
_cell_volume 4880.530917
_symmetry_space_group_name_H-M "C M M A"
_symmetry_group_IT_number 67
_symmetry_cell_setting 'orthorhombic'
loop_
_space_group_symop_operation_xyz
x,y,z
-x,1/2-y,z
x,-y,-z
-x,1/2+y,-z
-x,-y,-z
x,1/2+y,-z
-x,y,z
x,1/2-y,z
1/2+x,1/2+y,z
1/2-x,-y,z
1/2+x,1/2-y,-z
1/2-x,y,-z
1/2-x,1/2-y,-z
1/2+x,y,-z
1/2-x,1/2+y,z
1/2+x,-y,z
loop_
_atom_site_type_symbol
_atom_site_label
_atom_site_fract_x
_atom_site_fract_y
_atom_site_fract_z
Si Si1 0.831384 0.041501 0.366545
Si Si2 0.668487 0.953988 0.455717
Si Si3 0.330103 0.541925 0.120437
Si Si4 0.420943 0.457938 0.954938
Si Si5 0.579938 0.038002 0.711055
Si Si6 0.669670 0.957952 0.212081
O O1 0.836671 0.250000 0.366792
O O2 0.855189 0.975275 0.411543
O O3 0.877641 0.979150 0.328904
O O4 0.750000 0.000000 0.361102
O O5 0.662844 0.750000 0.453217
O O6 0.637419 0.000000 0.500000
O O7 0.750000 0.000000 0.457276
O O8 0.337139 0.750000 0.121344
O O9 0.250000 0.500000 0.113035
O O10 0.376720 0.475764 0.083256
O O11 0.347611 0.477481 0.166256
O O12 0.500000 0.523204 0.953167
O O13 0.423178 0.250000 0.951980
O O14 0.392328 0.500000 0.000000
O O15 0.500000 0.984837 0.710293
O O16 0.580835 0.250000 0.711066
O O17 0.619878 0.979476 0.751912
O O18 0.664047 0.750000 0.211206
O O19 0.750000 0.000000 0.220602
#
# Coordination Sequence:
#
# PCOD9505147 Si02
#       6
#    16  16  16  16  16  16
#     4   9  17  28  44  66  89 115 146 180 219 260
#     4   9  15  23  37  59  85 110 139 176 216 255
#     4   9  18  31  47  69  94 118 146 182 223 264
#     4   9  18  32  48  66  90 120 153 187 221 259
#     4   9  17  29  46  68  91 115 147 184 218 257
#     4   9  17  30  49  70  91 117 147 180 220 264
#
# _framework density 19.669992000000001
#
# number of rings (size 3 to 8) (size 9 to 14) (size 15 to 20)
#    0.000    3.000    0.000    1.500    0.000    2.333 
#    0.000    5.000    0.000    2.500    0.000    4.667 
#    0.000    0.000    0.000    0.000    0.000    4.500 
#
# Total GULP energy -267464.566666 kJ/mol
# GULP energy per Si atom -5572.178472 kJ/mol
# Density = 1.962522 g / cm^3
# Si number density = 19.669992 Si / 1000 Ang^3
#
#
#
# Elastic Constant Matrix: (Units=GPa)
#
#
# Indices 1 2 3 4 5 6 
#
# 1 90.1880 1.5797 120.2360 0.0000 0.0000 0.0000
# 2 1.5797 28.6187 11.6834 0.0000 0.0000 0.0000
# 3 120.2360 11.6834 244.5755 0.0000 0.0000 0.0000
# 4 0.0000 0.0000 0.0000 20.1227 0.0000 0.0000
# 5 0.0000 0.0000 0.0000 0.0000 -11.4989 0.0000
# 6 0.0000 0.0000 0.0000 0.0000 0.0000 14.0247
#
#
#
# Elastic Compliance Matrix: (Units=1/GPa)
#
#
# Indices 1 2 3 4 5 6 
#
# 1 0.032829 0.004872 -0.016372 0.000000 0.000000 0.000000
# 2 0.004872 0.036360 -0.004132 0.000000 0.000000 0.000000
# 3 -0.016372 -0.004132 0.012335 0.000000 0.000000 0.000000
# 4 0.000000 0.000000 0.000000 0.049695 0.000000 0.000000
# 5 0.000000 0.000000 0.000000 0.000000 -0.086965 0.000000
# 6 0.000000 0.000000 0.000000 0.000000 0.000000 0.071303
#
#
# Mechanical properties :
#
#
# Convention : Reuss Voigt Hill
#
# Bulk Modulus (GPa) = 19.89671 70.04227 44.96949
# Shear Modulus (GPa) = 30.56709 19.85523 25.21116
#
# Velocity S-wave (km/s) = 3.94635 3.18058 3.58398
# Velocity P-wave (km/s) = 5.55897 7.01243 6.32757
#
# Compressibility (1/GPa) = 0.05025957
#
# Stress axis : x y z
#
# Youngs Moduli (GPa) = 30.46076 27.50271 81.07217
#
# Poissons Ratio (x) = -0.13398 1.32730
# Poissons Ratio (y) = -0.14839 0.33498
# Poissons Ratio (z) = 0.49870 0.11364
#
# Static dielectric constant tensor:
#      x y z
#    x 1.640650 0.000000 0.000000 
#    y 0.000000 1.726810 0.000000 
#    z 0.000000 0.000000 1.746070 
# 
# From -- ./inp_files/44582.got.cif
#   From: 2010.05.17/outbox.cif.g08.bks.cpg/sg67_23_cif.got.tgz:44582.got - 2010.06.03 18:28:57.
