data_PCOD9505883
_publ_section_title
;
Structure prediction by ZEFSAII (Michael W. Deem and Ramdas Pophale) SiO2 
 PCOD9505883
Probable space group: C C C A
;
_chemical_formula_sum "Si O2"
_cell_formula_units_Z 100
_cell_length_a 13.471021
_cell_length_b 28.421209
_cell_length_c 13.126405
_cell_angle_alpha 90.000000
_cell_angle_beta 90.000000
_cell_angle_gamma 90.000000
_cell_volume 5025.610903
_symmetry_space_group_name_H-M "C C C A"
_symmetry_group_IT_number 68
_space_group.IT_coordinate_system_code '2'
_symmetry_cell_setting 'orthorhombic'
loop_
_space_group_symop_operation_xyz
x,y,z
-x,1/2-y,z
x,1/2-y,1/2-z
-x,y,1/2-z
-x,-y,-z
x,1/2+y,-z
-x,1/2+y,1/2+z
x,-y,1/2+z
1/2+x,1/2+y,z
1/2-x,-y,z
1/2+x,-y,1/2-z
1/2-x,1/2+y,1/2-z
1/2-x,1/2-y,-z
1/2+x,y,-z
1/2-x,y,1/2+z
1/2+x,1/2-y,1/2+z
loop_
_atom_site_type_symbol
_atom_site_label
_atom_site_fract_x
_atom_site_fract_y
_atom_site_fract_z
Si Si1 0.680091 0.206141 0.678218
Si Si2 0.942250 0.444954 0.115976
Si Si3 0.851019 0.402219 0.309608
Si Si4 0.377671 0.193167 0.416634
Si Si5 0.500000 0.750000 0.750000
Si Si6 0.500000 0.968688 0.750000
Si Si7 0.000000 0.250000 0.421504
Si Si8 0.641368 0.417727 0.399789
O O1 0.708329 0.250000 0.750000
O O2 0.674184 0.152351 0.714736
O O3 0.761573 0.205287 0.589298
O O4 0.570395 0.217329 0.642810
O O5 0.864367 0.425853 0.199560
O O6 0.965968 0.496907 0.158335
O O7 0.044422 0.414208 0.132612
O O8 0.897662 0.442166 0.003242
O O9 0.759048 0.421086 0.376730
O O10 0.431756 0.216884 0.319976
O O11 0.430197 0.216745 0.511775
O O12 0.385815 0.137205 0.413417
O O13 0.585715 0.937712 0.699449
#
# Coordination Sequence:
#
# PCOD9505883 Si02
#       8
#    16  16  16  16   4   8   8  16
#     4  11  22  36  59  88 121 164 208 249 293 363
#     4  10  23  43  64  90 131 155 204 269 310 383
#     4   9  23  41  60  93 128 167 203 255 319 364
#     4  10  22  38  57  87 123 160 210 244 303 366
#     4  10  18  40  54  78 126 164 186 266 292 336
#     4  10  23  42  66  99 119 156 212 257 316 388
#     4  11  23  35  59  88 120 168 205 255 307 351
#     4  11  22  41  66  92 122 168 207 254 319 375
#
# _framework density 19.89808
#
# number of rings (size 3 to 8) (size 9 to 14) (size 15 to 20)
#    0.000    1.920    0.800    2.640    6.720    3.840 
#    0.000    3.200    0.000    0.000    0.000    0.000 
#    0.000    0.000    0.000    0.000    0.000    0.000 
#
# Total GULP energy -278923.040000 kJ/mol
# GULP energy per Si atom -5578.460800 kJ/mol
# Density = 1.985279 g / cm^3
# Si number density = 19.898080 Si / 1000 Ang^3
#
#
#
# Elastic Constant Matrix: (Units=GPa)
#
#
# Indices 1 2 3 4 5 6 
#
# 1 70.5744 10.0560 34.1859 0.0000 0.0000 0.0000
# 2 10.0560 64.1231 14.5326 0.0000 0.0000 0.0000
# 3 34.1859 14.5326 73.8402 0.0000 0.0000 0.0000
# 4 0.0000 0.0000 0.0000 -2.5546 0.0000 0.0000
# 5 0.0000 0.0000 0.0000 0.0000 26.7921 0.0000
# 6 0.0000 0.0000 0.0000 0.0000 0.0000 18.9706
#
#
#
# Elastic Compliance Matrix: (Units=1/GPa)
#
#
# Indices 1 2 3 4 5 6 
#
# 1 0.018326 -0.000995 -0.008289 0.000000 0.000000 0.000000
# 2 -0.000995 0.016377 -0.002762 0.000000 0.000000 0.000000
# 3 -0.008289 -0.002762 0.017924 0.000000 0.000000 0.000000
# 4 0.000000 0.000000 0.000000 -0.391444 0.000000 0.000000
# 5 0.000000 0.000000 0.000000 0.000000 0.037324 0.000000
# 6 0.000000 0.000000 0.000000 0.000000 0.000000 0.052713
#
#
# Mechanical properties :
#
#
# Convention : Reuss Voigt Hill
#
# Bulk Modulus (GPa) = 35.04544 36.23184 35.63864
# Shear Modulus (GPa) = -23.23692 18.62581 -2.30556
#
# Velocity S-wave (km/s) = -3.42101 3.06283 -1.07759
# Velocity P-wave (km/s) = 1.43048 5.54582 4.04984
#
# Compressibility (1/GPa) = 0.02853438
#
# Stress axis : x y z
#
# Youngs Moduli (GPa) = 54.56650 61.06059 55.79169
#
# Poissons Ratio (x) = 0.06078 0.46244
# Poissons Ratio (y) = 0.05432 0.15412
# Poissons Ratio (z) = 0.45228 0.16867
#
# Static dielectric constant tensor:
#      x y z
#    x 1.852220 0.000000 0.000000 
#    y 0.000000 1.879150 0.000000 
#    z 0.000000 0.000000 1.685810 
# 
# From -- ./inp_files/22714.got.cif
#   From: 2010.05.17/outbox.cif.g08.bks.cpg/sg68_12_cif.got.tgz:22714.got - 2010.06.03 18:57:09.
