data_PCOD9505294
_publ_section_title
;
Structure prediction by ZEFSAII (Michael W. Deem and Ramdas Pophale) SiO2 
 PCOD9505294
Probable space group: C C C A
;
_chemical_formula_sum "Si O2"
_cell_formula_units_Z 104
_cell_length_a 18.512756
_cell_length_b 19.789529
_cell_length_c 14.827343
_cell_angle_alpha 90.000000
_cell_angle_beta 90.000000
_cell_angle_gamma 90.000000
_cell_volume 5432.126428
_symmetry_space_group_name_H-M "C C C A"
_symmetry_group_IT_number 68
_space_group.IT_coordinate_system_code '2'
_symmetry_cell_setting 'orthorhombic'
loop_
_space_group_symop_operation_xyz
x,y,z
-x,1/2-y,z
x,1/2-y,1/2-z
-x,y,1/2-z
-x,-y,-z
x,1/2+y,-z
-x,1/2+y,1/2+z
x,-y,1/2+z
1/2+x,1/2+y,z
1/2-x,-y,z
1/2+x,-y,1/2-z
1/2-x,1/2+y,1/2-z
1/2-x,1/2-y,-z
1/2+x,y,-z
1/2-x,y,1/2+z
1/2+x,1/2-y,1/2+z
loop_
_atom_site_type_symbol
_atom_site_label
_atom_site_fract_x
_atom_site_fract_y
_atom_site_fract_z
Si Si1 0.647438 0.359982 0.115397
Si Si2 0.848257 0.168328 0.080100
Si Si3 0.914562 0.621532 0.743926
Si Si4 0.149104 0.750000 0.250000
Si Si5 0.694982 0.368865 0.383073
Si Si6 0.317278 0.324567 0.919123
Si Si7 0.833945 0.480309 0.743507
O O1 0.613296 0.301863 0.179184
O O2 0.734907 0.344826 0.109112
O O3 0.640633 0.432508 0.161410
O O4 0.618298 0.354601 0.014296
O O5 0.894891 0.165673 0.168871
O O6 0.779843 0.120659 0.100392
O O7 0.819621 0.244181 0.068103
O O8 0.874623 0.653121 0.656516
O O9 0.880458 0.547121 0.752262
O O10 0.000000 0.616534 0.750000
O O11 0.189207 0.803872 0.315962
O O12 0.664746 0.355131 0.482564
O O13 0.662516 0.432236 0.331118
O O14 0.750000 0.500000 0.729111
#
# Coordination Sequence:
#
# PCOD9505294 Si02
#       7
#    16  16  16   8  16  16  16
#     4  10  19  32  62  95 123 154 201 269 312 347
#     4  11  20  36  60  94 128 159 203 254 315 368
#     4  12  27  43  59  86 131 175 207 248 309 384
#     4  10  14  30  54  92 122 142 182 266 334 334
#     4  10  19  32  62  95 123 154 201 269 312 347
#     4  11  20  36  60  94 128 159 203 254 315 368
#     4  11  21  39  60  89 123 171 213 257 300 367
#
# _framework density 19.145356
#
# number of rings (size 3 to 8) (size 9 to 14) (size 15 to 20)
#    0.000    1.231    6.154    2.308    0.000    2.462 
#    0.000    3.077    0.000    0.000    0.000    3.231 
#    0.000    0.000    0.000    0.000    0.000    0.000 
#
# Total GULP energy -289990.024406 kJ/mol
# GULP energy per Si atom -5576.731239 kJ/mol
# Density = 1.910178 g / cm^3
# Si number density = 19.145356 Si / 1000 Ang^3
#
#
#
# Elastic Constant Matrix: (Units=GPa)
#
#
# Indices 1 2 3 4 5 6 
#
# 1 46.4797 -3.1861 19.7233 0.0000 0.0000 0.0000
# 2 -3.1861 61.0276 33.2222 0.0000 0.0000 0.0000
# 3 19.7233 33.2222 151.3891 0.0000 0.0000 0.0000
# 4 0.0000 0.0000 0.0000 24.0196 0.0000 0.0000
# 5 0.0000 0.0000 0.0000 0.0000 3.2549 0.0000
# 6 0.0000 0.0000 0.0000 0.0000 0.0000 9.4315
#
#
#
# Elastic Compliance Matrix: (Units=1/GPa)
#
#
# Indices 1 2 3 4 5 6 
#
# 1 0.023332 0.003263 -0.003756 0.000000 0.000000 0.000000
# 2 0.003263 0.019065 -0.004609 0.000000 0.000000 0.000000
# 3 -0.003756 -0.004609 0.008106 0.000000 0.000000 0.000000
# 4 0.000000 0.000000 0.000000 0.041633 0.000000 0.000000
# 5 0.000000 0.000000 0.000000 0.000000 0.307232 0.000000
# 6 0.000000 0.000000 0.000000 0.000000 0.000000 0.106027
#
#
# Mechanical properties :
#
#
# Convention : Reuss Voigt Hill
#
# Bulk Modulus (GPa) = 24.81407 39.82391 32.31899
# Shear Modulus (GPa) = 9.45121 21.28367 15.36744
#
# Velocity S-wave (km/s) = 2.22425 3.33782 2.83622
# Velocity P-wave (km/s) = 4.42554 5.97500 5.25766
#
# Compressibility (1/GPa) = 0.04029972
#
# Stress axis : x y z
#
# Youngs Moduli (GPa) = 42.85932 52.45108 123.36179
#
# Poissons Ratio (x) = -0.17113 0.46332
# Poissons Ratio (y) = -0.13984 0.56857
# Poissons Ratio (z) = 0.16097 0.24174
#
# Static dielectric constant tensor:
#      x y z
#    x 1.676490 0.000000 0.000000 
#    y 0.000000 1.658290 0.000000 
#    z 0.000000 0.000000 1.718360 
# 
# From -- ./inp_files/23806.got.cif
#   From: 2010.05.17/outbox.cif.g08.bks.cpg/sg68_12_cif.got.tgz:23806.got - 2010.06.03 18:57:09.
