data_PCOD9505793
_publ_section_title
;
Structure prediction by ZEFSAII (Michael W. Deem and Ramdas Pophale) SiO2 
 PCOD9505793
Probable space group: C C C A
;
_chemical_formula_sum "Si O2"
_cell_formula_units_Z 64
_cell_length_a 7.432080
_cell_length_b 20.389599
_cell_length_c 16.019464
_cell_angle_alpha 90.000000
_cell_angle_beta 90.000000
_cell_angle_gamma 90.000000
_cell_volume 2427.543614
_symmetry_space_group_name_H-M "C C C A"
_symmetry_group_IT_number 68
_space_group.IT_coordinate_system_code '2'
_symmetry_cell_setting 'orthorhombic'
loop_
_space_group_symop_operation_xyz
x,y,z
-x,1/2-y,z
x,1/2-y,1/2-z
-x,y,1/2-z
-x,-y,-z
x,1/2+y,-z
-x,1/2+y,1/2+z
x,-y,1/2+z
1/2+x,1/2+y,z
1/2-x,-y,z
1/2+x,-y,1/2-z
1/2-x,1/2+y,1/2-z
1/2-x,1/2-y,-z
1/2+x,y,-z
1/2-x,y,1/2+z
1/2+x,1/2-y,1/2+z
loop_
_atom_site_type_symbol
_atom_site_label
_atom_site_fract_x
_atom_site_fract_y
_atom_site_fract_z
Si Si1 0.260072 0.722181 0.342721
Si Si2 0.626914 0.098553 0.402908
Si Si3 0.373806 0.345612 0.588906
Si Si4 0.000425 0.970892 0.653341
O O1 0.284383 0.750000 0.250000
O O2 0.118625 0.662791 0.344546
O O3 0.440420 0.687816 0.379432
O O4 0.232522 0.786773 0.399299
O O5 0.624618 0.128462 0.495152
O O6 0.813739 0.062834 0.377339
O O7 0.487265 0.038543 0.397285
O O8 0.359654 0.411576 0.643427
O O9 0.000000 0.989571 0.750000
#
# Coordination Sequence:
#
# PCOD9505793 Si02
#       4
#    16  16  16  16
#     4  10  20  37  60  88 120 162 204 249 309 374
#     4  10  21  37  58  91 121 152 204 259 307 363
#     4  10  18  35  62  88 117 152 202 259 302 360
#     4  10  21  40  61  87 122 163 204 250 310 375
#
# _framework density 26.364101000000002
#
# number of rings (size 3 to 8) (size 9 to 14) (size 15 to 20)
#    0.000    2.000    0.000    6.000    0.000    0.000 
#    0.000   30.000    0.000    0.000    0.000    0.000 
#    0.000    0.000    0.000    0.000    0.000    0.000 
#
# Total GULP energy -178832.901462 kJ/mol
# GULP energy per Si atom -5588.528171 kJ/mol
# Density = 2.630409 g / cm^3
# Si number density = 26.364101 Si / 1000 Ang^3
#
#
#
# Elastic Constant Matrix: (Units=GPa)
#
#
# Indices 1 2 3 4 5 6 
#
# 1 84.9035 26.5924 -26.9677 0.0000 0.0000 0.0000
# 2 26.5924 289.4078 69.6064 0.0000 0.0000 0.0000
# 3 -26.9677 69.6064 164.1166 0.0000 0.0000 0.0000
# 4 0.0000 0.0000 0.0000 60.2829 0.0000 0.0000
# 5 0.0000 0.0000 0.0000 0.0000 13.6052 0.0000
# 6 0.0000 0.0000 0.0000 0.0000 0.0000 29.8704
#
#
#
# Elastic Compliance Matrix: (Units=1/GPa)
#
#
# Indices 1 2 3 4 5 6 
#
# 1 0.013350 -0.001954 0.003022 0.000000 0.000000 0.000000
# 2 -0.001954 0.004134 -0.002074 0.000000 0.000000 0.000000
# 3 0.003022 -0.002074 0.007470 0.000000 0.000000 0.000000
# 4 0.000000 0.000000 0.000000 0.016588 0.000000 0.000000
# 5 0.000000 0.000000 0.000000 0.000000 0.073501 0.000000
# 6 0.000000 0.000000 0.000000 0.000000 0.000000 0.033478
#
#
# Mechanical properties :
#
#
# Convention : Reuss Voigt Hill
#
# Bulk Modulus (GPa) = 43.58807 75.21002 59.39905
# Shear Modulus (GPa) = 31.60965 52.03146 41.82056
#
# Velocity S-wave (km/s) = 3.46636 4.44731 3.98712
# Velocity P-wave (km/s) = 5.70876 7.41355 6.61629
#
# Compressibility (1/GPa) = 0.02294205
#
# Stress axis : x y z
#
# Youngs Moduli (GPa) = 74.90699 241.91316 133.87633
#
# Poissons Ratio (x) = 0.47259 -0.40460
# Poissons Ratio (y) = 0.14633 0.27769
# Poissons Ratio (z) = -0.22638 0.50178
#
# Static dielectric constant tensor:
#      x y z
#    x 5.528490 0.000000 0.000000 
#    y 0.000000 5.266100 0.000000 
#    z 0.000000 0.000000 1.993140 
# 
# From -- ./inp_files/11533.got.cif
#   From: 2010.05.17/outbox.cif.g08.bks.cpg/sg68_6_cif.got.tgz:11533.got - 2010.06.03 18:57:09.
