data_PCOD9505552
_publ_section_title
;
Structure prediction by ZEFSAII (Michael W. Deem and Ramdas Pophale) SiO2 
 PCOD9505552
Probable space group: C C C A
;
_chemical_formula_sum "Si O2"
_cell_formula_units_Z 80
_cell_length_a 8.548590
_cell_length_b 28.729693
_cell_length_c 17.561694
_cell_angle_alpha 90.000000
_cell_angle_beta 90.000000
_cell_angle_gamma 90.000000
_cell_volume 4313.123356
_symmetry_space_group_name_H-M "C C C A"
_symmetry_group_IT_number 68
_space_group.IT_coordinate_system_code '2'
_symmetry_cell_setting 'orthorhombic'
loop_
_space_group_symop_operation_xyz
x,y,z
-x,1/2-y,z
x,1/2-y,1/2-z
-x,y,1/2-z
-x,-y,-z
x,1/2+y,-z
-x,1/2+y,1/2+z
x,-y,1/2+z
1/2+x,1/2+y,z
1/2-x,-y,z
1/2+x,-y,1/2-z
1/2-x,1/2+y,1/2-z
1/2-x,1/2-y,-z
1/2+x,y,-z
1/2-x,y,1/2+z
1/2+x,1/2-y,1/2+z
loop_
_atom_site_type_symbol
_atom_site_label
_atom_site_fract_x
_atom_site_fract_y
_atom_site_fract_z
Si Si1 0.089512 0.793889 0.896727
Si Si2 0.602865 0.322527 0.458293
Si Si3 0.883033 0.534438 0.958322
Si Si4 0.974656 0.393107 0.163015
Si Si5 0.318490 0.383158 0.428949
O O1 0.277466 0.791116 0.909216
O O2 0.000000 0.750000 0.859565
O O3 0.053460 0.842957 0.855661
O O4 0.006112 0.797695 0.979595
O O5 0.484424 0.357771 0.415768
O O6 0.719055 0.352675 0.510849
O O7 0.750000 0.500000 0.926879
O O8 0.955206 0.568390 0.894544
O O9 0.831540 0.568431 0.026801
O O10 0.000000 0.500000 0.000000
O O11 0.791167 0.387859 0.143889
O O12 0.000000 0.405679 0.250000
#
# Coordination Sequence:
#
# PCOD9505552 Si02
#       5
#    16  16  16  16  16
#     4  10  19  33  59  89 120 159 203 247 305 366
#     4   9  16  31  58  85 119 149 200 254 288 349
#     4  12  21  37  66  84 111 158 208 253 305 380
#     4  11  24  41  57  86 129 156 198 263 321 375
#     4  10  17  36  60  84 116 156 198 244 306 364
#
# _framework density 18.548044000000001
#
# number of rings (size 3 to 8) (size 9 to 14) (size 15 to 20)
#    0.000    1.600    8.000    0.600    0.000    0.400 
#    3.600    1.000    0.000    0.000    0.000    8.400 
#    0.000    0.000    0.000    0.000    0.000    0.000 
#
# Total GULP energy -222801.950149 kJ/mol
# GULP energy per Si atom -5570.048754 kJ/mol
# Density = 1.850583 g / cm^3
# Si number density = 18.548044 Si / 1000 Ang^3
#
#
#
# Elastic Constant Matrix: (Units=GPa)
#
#
# Indices 1 2 3 4 5 6 
#
# 1 124.5888 36.7267 27.0476 0.0000 0.0000 0.0000
# 2 36.7267 100.4096 22.0412 0.0000 0.0000 0.0000
# 3 27.0476 22.0412 70.7763 0.0000 0.0000 0.0000
# 4 0.0000 0.0000 0.0000 6.7680 0.0000 0.0000
# 5 0.0000 0.0000 0.0000 0.0000 7.8562 0.0000
# 6 0.0000 0.0000 0.0000 0.0000 0.0000 29.8487
#
#
#
# Elastic Compliance Matrix: (Units=1/GPa)
#
#
# Indices 1 2 3 4 5 6 
#
# 1 0.009462 -0.002863 -0.002724 0.000000 0.000000 0.000000
# 2 -0.002863 0.011556 -0.002505 0.000000 0.000000 0.000000
# 3 -0.002724 -0.002505 0.015950 0.000000 0.000000 0.000000
# 4 0.000000 0.000000 0.000000 0.147753 0.000000 0.000000
# 5 0.000000 0.000000 0.000000 0.000000 0.127288 0.000000
# 6 0.000000 0.000000 0.000000 0.000000 0.000000 0.033502
#
#
# Mechanical properties :
#
#
# Convention : Reuss Voigt Hill
#
# Bulk Modulus (GPa) = 48.11334 51.93398 50.02366
# Shear Modulus (GPa) = 13.56398 22.89187 18.22793
#
# Velocity S-wave (km/s) = 2.70717 3.51692 3.13827
# Velocity P-wave (km/s) = 5.98062 6.67474 6.33719
#
# Compressibility (1/GPa) = 0.02078426
#
# Stress axis : x y z
#
# Youngs Moduli (GPa) = 105.68881 86.53400 62.69518
#
# Poissons Ratio (x) = 0.24773 0.17080
# Poissons Ratio (y) = 0.30256 0.15704
# Poissons Ratio (z) = 0.28793 0.21675
#
# Static dielectric constant tensor:
#      x y z
#    x 1.773820 0.000000 0.000000 
#    y 0.000000 1.601940 0.000000 
#    z 0.000000 0.000000 1.606790 
# 
# From -- ./inp_files/28312.got.cif
#   From: 2010.05.17/outbox.cif.g08.bks.cpg/sg68_15_cif.got.tgz:28312.got - 2010.06.03 18:57:09.
