data_PCOD9505413
_publ_section_title
;
Structure prediction by ZEFSAII (Michael W. Deem and Ramdas Pophale) SiO2 
 PCOD9505413
Probable space group: C C C A
;
_chemical_formula_sum "Si O2"
_cell_formula_units_Z 84
_cell_length_a 13.218499
_cell_length_b 23.096277
_cell_length_c 11.391311
_cell_angle_alpha 90.000000
_cell_angle_beta 90.000000
_cell_angle_gamma 90.000000
_cell_volume 3477.745769
_symmetry_space_group_name_H-M "C C C A"
_symmetry_group_IT_number 68
_space_group.IT_coordinate_system_code '2'
_symmetry_cell_setting 'orthorhombic'
loop_
_space_group_symop_operation_xyz
x,y,z
-x,1/2-y,z
x,1/2-y,1/2-z
-x,y,1/2-z
-x,-y,-z
x,1/2+y,-z
-x,1/2+y,1/2+z
x,-y,1/2+z
1/2+x,1/2+y,z
1/2-x,-y,z
1/2+x,-y,1/2-z
1/2-x,1/2+y,1/2-z
1/2-x,1/2-y,-z
1/2+x,y,-z
1/2-x,y,1/2+z
1/2+x,1/2-y,1/2+z
loop_
_atom_site_type_symbol
_atom_site_label
_atom_site_fract_x
_atom_site_fract_y
_atom_site_fract_z
Si Si1 0.565715 0.933911 0.400394
Si Si2 0.000000 0.169968 0.250000
Si Si3 0.072535 0.455667 0.653660
Si Si4 0.298578 0.311217 0.629048
Si Si5 0.687280 0.688467 0.636673
Si Si6 0.250000 0.500000 0.790191
Si Si7 0.500000 0.250000 0.250000
O O1 0.558604 0.874726 0.333300
O O2 0.564376 0.921322 0.536110
O O3 0.473656 0.979137 0.371941
O O4 0.668034 0.967221 0.368102
O O5 0.914175 0.198537 0.171061
O O6 0.182755 0.461504 0.704643
O O7 0.000000 0.429428 0.750000
O O8 0.302803 0.339023 0.496047
O O9 0.248090 0.248477 0.621005
O O10 0.236967 0.338049 0.742460
O O11 0.574086 0.709505 0.671146
#
# Coordination Sequence:
#
# PCOD9505413 Si02
#       7
#    16   8  16  16  16   8   4
#     4  10  20  36  57  87 116 147 211 250 307 364
#     4  12  22  39  56  92 125 158 186 276 313 355
#     4   9  18  35  59  80 108 153 205 249 289 368
#     4   9  21  37  64  87 129 154 205 244 311 362
#     4   9  19  39  60  97 113 166 206 237 288 400
#     4  10  16  34  58  84 104 156 200 252 296 370
#     4   8  16  32  72  84 118 144 212 258 274 334
#
# _framework density 24.153576000000001
#
# number of rings (size 3 to 8) (size 9 to 14) (size 15 to 20)
#    0.000    2.667    2.857    0.571    0.000    7.619 
#    3.429    0.000    2.095    0.000    0.000    0.000 
#    0.000    0.000    0.000    0.000    0.000    0.000 
#
# Total GULP energy -234338.230501 kJ/mol
# GULP energy per Si atom -5579.481679 kJ/mol
# Density = 2.409860 g / cm^3
# Si number density = 24.153576 Si / 1000 Ang^3
#
#
#
# Elastic Constant Matrix: (Units=GPa)
#
#
# Indices 1 2 3 4 5 6 
#
# 1 134.3108 29.7969 37.3185 0.0000 0.0000 0.0000
# 2 29.7969 43.0000 11.7502 0.0000 0.0000 0.0000
# 3 37.3185 11.7502 225.5087 0.0000 0.0000 0.0000
# 4 0.0000 0.0000 0.0000 -45.4697 0.0000 0.0000
# 5 0.0000 0.0000 0.0000 0.0000 -30.8312 0.0000
# 6 0.0000 0.0000 0.0000 0.0000 0.0000 11.0811
#
#
#
# Elastic Compliance Matrix: (Units=1/GPa)
#
#
# Indices 1 2 3 4 5 6 
#
# 1 0.009105 -0.005983 -0.001195 0.000000 0.000000 0.000000
# 2 -0.005983 0.027523 -0.000444 0.000000 0.000000 0.000000
# 3 -0.001195 -0.000444 0.004655 0.000000 0.000000 0.000000
# 4 0.000000 0.000000 0.000000 -0.021993 0.000000 0.000000
# 5 0.000000 0.000000 0.000000 0.000000 -0.032435 0.000000
# 6 0.000000 0.000000 0.000000 0.000000 0.000000 0.090244
#
#
# Mechanical properties :
#
#
# Convention : Reuss Voigt Hill
#
# Bulk Modulus (GPa) = 38.40306 62.28341 50.34324
# Shear Modulus (GPa) = 49.49407 8.55297 29.02352
#
# Velocity S-wave (km/s) = 4.53165 1.88382 3.47021
# Velocity P-wave (km/s) = 6.58143 5.52938 6.07821
#
# Compressibility (1/GPa) = 0.02603959
#
# Stress axis : x y z
#
# Youngs Moduli (GPa) = 109.83367 36.33352 214.80863
#
# Poissons Ratio (x) = 0.21737 0.25669
# Poissons Ratio (y) = 0.65709 0.09539
# Poissons Ratio (z) = 0.13125 0.01613
#
# Static dielectric constant tensor:
#      x y z
#    x 1.902850 0.000000 0.000000 
#    y 0.000000 1.969640 0.000000 
#    z 0.000000 0.000000 1.666510 
# 
# From -- ./inp_files/12122.got.cif
#   From: 2010.05.17/outbox.cif.g08.bks.cpg/sg68_7_cif.got.tgz:12122.got - 2010.06.03 18:57:09.
