data_PCOD9505692
_publ_section_title
;
Structure prediction by ZEFSAII (Michael W. Deem and Ramdas Pophale) SiO2 
 PCOD9505692
Probable space group: C C C A
;
_chemical_formula_sum "Si O2"
_cell_formula_units_Z 72
_cell_length_a 8.332479
_cell_length_b 18.173559
_cell_length_c 21.660604
_cell_angle_alpha 90.000000
_cell_angle_beta 90.000000
_cell_angle_gamma 90.000000
_cell_volume 3280.082565
_symmetry_space_group_name_H-M "C C C A"
_symmetry_group_IT_number 68
_space_group.IT_coordinate_system_code '2'
_symmetry_cell_setting 'orthorhombic'
loop_
_space_group_symop_operation_xyz
x,y,z
-x,1/2-y,z
x,1/2-y,1/2-z
-x,y,1/2-z
-x,-y,-z
x,1/2+y,-z
-x,1/2+y,1/2+z
x,-y,1/2+z
1/2+x,1/2+y,z
1/2-x,-y,z
1/2+x,-y,1/2-z
1/2-x,1/2+y,1/2-z
1/2-x,1/2-y,-z
1/2+x,y,-z
1/2-x,y,1/2+z
1/2+x,1/2-y,1/2+z
loop_
_atom_site_type_symbol
_atom_site_label
_atom_site_fract_x
_atom_site_fract_y
_atom_site_fract_z
Si Si1 0.934478 0.670361 0.652266
Si Si2 0.153115 0.714003 0.407224
Si Si3 0.641050 0.349669 0.962210
Si Si4 0.946755 0.491900 0.183452
Si Si5 0.750000 0.500000 0.405550
O O1 0.745468 0.674377 0.647060
O O2 0.983597 0.596259 0.684624
O O3 0.000000 0.750000 0.672805
O O4 0.983070 0.658699 0.579890
O O5 0.252180 0.783073 0.435244
O O6 0.112168 0.663789 0.466014
O O7 0.000000 0.750000 0.378768
O O8 0.715102 0.428297 0.946692
O O9 0.750000 0.500000 0.172338
O O10 0.000000 0.522889 0.250000
O O11 0.085701 0.516266 0.134068
#
# Coordination Sequence:
#
# PCOD9505692 Si02
#       5
#    16  16  16  16   8
#     4   9  20  38  58  87 121 159 203 246 304 364
#     4  10  18  32  56  84 121 162 200 240 289 363
#     4   9  18  34  54  80 121 164 194 236 294 355
#     4  11  23  42  66  89 118 158 203 262 325 369
#     4  10  22  40  60  88 124 158 206 254 300 374
#
# _framework density 21.950666999999999
#
# number of rings (size 3 to 8) (size 9 to 14) (size 15 to 20)
#    0.000    2.222    1.111    3.333    3.111    0.444 
#    2.000    3.333    0.000    0.000    0.000    0.000 
#    0.000    0.000    0.000    0.000    0.000    0.000 
#
# Total GULP energy -200490.112117 kJ/mol
# GULP energy per Si atom -5569.169781 kJ/mol
# Density = 2.190071 g / cm^3
# Si number density = 21.950667 Si / 1000 Ang^3
#
#
#
# Elastic Constant Matrix: (Units=GPa)
#
#
# Indices 1 2 3 4 5 6 
#
# 1 100.7744 -0.9393 9.0019 0.0000 0.0000 0.0000
# 2 -0.9393 110.5170 10.4565 0.0000 0.0000 0.0000
# 3 9.0019 10.4565 30.8448 0.0000 0.0000 0.0000
# 4 0.0000 0.0000 0.0000 -3.8459 0.0000 0.0000
# 5 0.0000 0.0000 0.0000 0.0000 9.3162 0.0000
# 6 0.0000 0.0000 0.0000 0.0000 0.0000 32.5134
#
#
#
# Elastic Compliance Matrix: (Units=1/GPa)
#
#
# Indices 1 2 3 4 5 6 
#
# 1 0.010204 0.000381 -0.003107 0.000000 0.000000 0.000000
# 2 0.000381 0.009362 -0.003285 0.000000 0.000000 0.000000
# 3 -0.003107 -0.003285 0.034441 0.000000 0.000000 0.000000
# 4 0.000000 0.000000 0.000000 -0.260019 0.000000 0.000000
# 5 0.000000 0.000000 0.000000 0.000000 0.107340 0.000000
# 6 0.000000 0.000000 0.000000 0.000000 0.000000 0.030757
#
#
# Mechanical properties :
#
#
# Convention : Reuss Voigt Hill
#
# Bulk Modulus (GPa) = 23.81822 31.01935 27.41879
# Shear Modulus (GPa) = -119.33944 22.50455 -48.41745
#
# Velocity S-wave (km/s) = -7.38141 3.20540 -4.70162
# Velocity P-wave (km/s) = 7.85955 5.27840 4.11770
#
# Compressibility (1/GPa) = 0.04198466
#
# Stress axis : x y z
#
# Youngs Moduli (GPa) = 97.99832 106.80995 29.03535
#
# Poissons Ratio (x) = -0.04066 0.09022
# Poissons Ratio (y) = -0.03731 0.09538
# Poissons Ratio (z) = 0.30449 0.35087
#
# Static dielectric constant tensor:
#      x y z
#    x 2.020800 0.000000 0.000000 
#    y 0.000000 1.813690 0.000000 
#    z 0.000000 0.000000 1.787250 
# 
# From -- ./inp_files/42943.got.cif
#   From: 2010.05.17/outbox.cif.g08.bks.cpg/sg68_22_cif.got.tgz:42943.got - 2010.06.03 18:57:09.
