data_PCOD9505241
_publ_section_title
;
Structure prediction by ZEFSAII (Michael W. Deem and Ramdas Pophale) SiO2 
 PCOD9505241
Probable space group: C M M A
;
_chemical_formula_sum "Si O2"
_cell_formula_units_Z 44
_cell_length_a 21.000000
_cell_length_b 15.000000
_cell_length_c 15.000000
_cell_angle_alpha 90.000000
_cell_angle_beta 90.000000
_cell_angle_gamma 90.000000
_cell_volume 4725.000000
_symmetry_space_group_name_H-M "C M M A"
_symmetry_group_IT_number 67
_symmetry_cell_setting 'orthorhombic'
loop_
_space_group_symop_operation_xyz
x,y,z
-x,1/2-y,z
x,-y,-z
-x,1/2+y,-z
-x,-y,-z
x,1/2+y,-z
-x,y,z
x,1/2-y,z
1/2+x,1/2+y,z
1/2-x,-y,z
1/2+x,1/2-y,-z
1/2-x,y,-z
1/2-x,1/2-y,-z
1/2+x,y,-z
1/2-x,1/2+y,z
1/2+x,-y,z
loop_
_atom_site_type_symbol
_atom_site_label
_atom_site_fract_x
_atom_site_fract_y
_atom_site_fract_z
Si Si1 0.644384 0.532787 0.644369
Si Si2 0.175003 0.857680 0.527537
Si Si3 0.074071 0.105779 0.982623
Si Si4 0.750000 0.000000 0.780660
Si Si5 0.798333 0.851352 0.916803
Si Si6 0.075573 0.149548 0.778790
O O1 0.654437 0.430847 0.604897
O O2 0.642473 0.599692 0.560315
O O3 0.702859 0.548503 0.712011
O O4 0.589588 0.568843 0.710319
O O5 0.162686 0.750000 0.543015
O O6 0.250000 0.865849 0.500000
O O7 0.094986 0.126434 0.880673
O O8 0.000000 0.136787 0.995128
O O9 0.129224 0.143090 0.046747
O O10 0.073600 0.000000 0.000000
O O11 0.784382 0.927044 0.843292
O O12 0.786670 0.750000 0.884023
O O13 0.750000 0.866960 0.000000
O O14 0.100859 0.250000 0.754904
O O15 0.000000 0.157015 0.782304
#
# Coordination Sequence:
#
# PCOD9505241 Si02
#       6
#    16  16  16   8  16  16
#     4  11  20  37  58  84 116 148 187 238 292 348
#     4  10  20  37  59  85 117 152 187 225 283 361
#     4  10  20  37  59  81 112 160 206 245 291 348
#     4  12  23  35  54  84 116 144 188 243 297 350
#     4  11  23  36  52  79 115 153 191 240 298 345
#     4  10  21  36  58  86 114 151 200 245 286 341
#
# _framework density 9.3121690000000008
#
# number of rings (size 3 to 8) (size 9 to 14) (size 15 to 20)
#    0.000    1.455    1.818    5.182    0.000    4.727 
#    0.000    1.818    0.000    1.636    0.000    0.000 
#    0.000    0.000    0.000    0.000    0.000    0.000 
#
# Total GULP energy -245071.294914 kJ/mol
# GULP energy per Si atom -5569.802157 kJ/mol
# Density = 0.929097 g / cm^3
# Si number density = 9.312169 Si / 1000 Ang^3
#
#
#
# Elastic Constant Matrix: (Units=GPa)
#
#
# Indices 1 2 3 4 5 6 
#
# 1 52.2363 18.4558 27.8607 0.0000 0.0000 0.0000
# 2 18.4558 139.9608 48.1550 0.0000 0.0000 0.0000
# 3 27.8607 48.1550 107.3617 0.0000 0.0000 0.0000
# 4 0.0000 0.0000 0.0000 24.2856 0.0000 0.0000
# 5 0.0000 0.0000 0.0000 0.0000 31.8712 0.0000
# 6 0.0000 0.0000 0.0000 0.0000 0.0000 24.8901
#
#
#
# Elastic Compliance Matrix: (Units=1/GPa)
#
#
# Indices 1 2 3 4 5 6 
#
# 1 0.022368 -0.001126 -0.005299 0.000000 0.000000 0.000000
# 2 -0.001126 0.008505 -0.003523 0.000000 0.000000 0.000000
# 3 -0.005299 -0.003523 0.012270 0.000000 0.000000 0.000000
# 4 0.000000 0.000000 0.000000 0.041177 0.000000 0.000000
# 5 0.000000 0.000000 0.000000 0.000000 0.031376 0.000000
# 6 0.000000 0.000000 0.000000 0.000000 0.000000 0.040177
#
#
# Mechanical properties :
#
#
# Convention : Reuss Voigt Hill
#
# Bulk Modulus (GPa) = 43.01734 54.27796 48.64765
# Shear Modulus (GPa) = 27.24527 29.88189 28.56358
#
# Velocity S-wave (km/s) = 3.82892 4.00991 3.92046
# Velocity P-wave (km/s) = 6.53414 7.11660 6.83158
#
# Compressibility (1/GPa) = 0.02324644
#
# Stress axis : x y z
#
# Youngs Moduli (GPa) = 44.70631 117.57275 81.50253
#
# Poissons Ratio (x) = 0.13241 0.43192
# Poissons Ratio (y) = 0.05035 0.28711
# Poissons Ratio (z) = 0.23692 0.41417
#
# Static dielectric constant tensor:
#      x y z
#    x 1.750760 0.000000 0.000000 
#    y 0.000000 1.687810 0.000000 
#    z 0.000000 0.000000 1.639770 
# 
# From -- ./inp_files/29152.got.cif
#   From: 2010.05.17/outbox.ucp.g08.bks.cvg/sg67_15_cif.got.tgz:29152.got - 2010.06.11 16:47:20.
