data_PCOD9505070
_publ_section_title
;
Structure prediction by ZEFSAII (Michael W. Deem and Ramdas Pophale) SiO2 
 PCOD9505070
Probable space group: C M M A
;
_chemical_formula_sum "Si O2"
_cell_formula_units_Z 32
_cell_length_a 27.065324
_cell_length_b 10.274034
_cell_length_c 4.858367
_cell_angle_alpha 90.000000
_cell_angle_beta 90.000000
_cell_angle_gamma 90.000000
_cell_volume 1350.966398
_symmetry_space_group_name_H-M "C M M A"
_symmetry_group_IT_number 67
_symmetry_cell_setting 'orthorhombic'
loop_
_space_group_symop_operation_xyz
x,y,z
-x,1/2-y,z
x,-y,-z
-x,1/2+y,-z
-x,-y,-z
x,1/2+y,-z
-x,y,z
x,1/2-y,z
1/2+x,1/2+y,z
1/2-x,-y,z
1/2+x,1/2-y,-z
1/2-x,y,-z
1/2-x,1/2-y,-z
1/2+x,y,-z
1/2-x,1/2+y,z
1/2+x,-y,z
loop_
_atom_site_type_symbol
_atom_site_label
_atom_site_fract_x
_atom_site_fract_y
_atom_site_fract_z
Si Si1 0.500000 0.381657 0.298041
Si Si2 0.912958 0.000000 0.000000
Si Si3 0.288264 0.750000 0.738552
Si Si4 0.847112 0.000000 0.500000
O O1 0.500000 0.250000 0.463444
O O2 0.500000 0.500000 0.500000
O O3 0.450660 0.394038 0.119826
O O4 0.880771 0.055204 0.252547
O O5 0.250000 0.750000 0.500000
O O6 0.318826 0.616503 0.667826
O O7 0.250000 0.750000 0.000000
#
# Coordination Sequence:
#
# PCOD9505070 Si02
#       4
#     8   8   8   8
#     4  11  26  47  76 108 167 203 260 314 384 451
#     4  11  26  46  71 118 148 210 253 318 378 457
#     4  12  28  52  78 113 152 199 254 332 408 466
#     4  12  27  47  82 110 156 194 268 317 385 482
#
# _framework density 23.686748000000001
#
# number of rings (size 3 to 8) (size 9 to 14) (size 15 to 20)
#    0.000    0.500    2.500    3.750    7.000    6.000 
#    0.000    0.000    0.000    0.000    0.000    0.000 
#    0.000    0.000    0.000    0.000    0.000    0.000 
#
# Total GULP energy -89154.597839 kJ/mol
# GULP energy per Si atom -5572.162365 kJ/mol
# Density = 2.363284 g / cm^3
# Si number density = 23.686748 Si / 1000 Ang^3
#
#
#
# Elastic Constant Matrix: (Units=GPa)
#
#
# Indices 1 2 3 4 5 6 
#
# 1 132.2301 63.2167 82.2698 0.0000 0.0000 0.0000
# 2 63.2167 190.5795 54.7984 0.0000 0.0000 0.0000
# 3 82.2698 54.7984 204.1157 0.0000 0.0000 0.0000
# 4 0.0000 0.0000 0.0000 28.2784 0.0000 0.0000
# 5 0.0000 0.0000 0.0000 0.0000 64.8702 0.0000
# 6 0.0000 0.0000 0.0000 0.0000 0.0000 130.3033
#
#
#
# Elastic Compliance Matrix: (Units=1/GPa)
#
#
# Indices 1 2 3 4 5 6 
#
# 1 0.011179 -0.002614 -0.003804 0.000000 0.000000 0.000000
# 2 -0.002614 0.006298 -0.000637 0.000000 0.000000 0.000000
# 3 -0.003804 -0.000637 0.006603 0.000000 0.000000 0.000000
# 4 0.000000 0.000000 0.000000 0.035363 0.000000 0.000000
# 5 0.000000 0.000000 0.000000 0.000000 0.015415 0.000000
# 6 0.000000 0.000000 0.000000 0.000000 0.000000 0.007674
#
#
# Mechanical properties :
#
#
# Convention : Reuss Voigt Hill
#
# Bulk Modulus (GPa) = 100.30609 103.05501 101.68055
# Shear Modulus (GPa) = 50.01684 66.46641 58.24162
#
# Velocity S-wave (km/s) = 4.60020 5.30297 4.96404
# Velocity P-wave (km/s) = 8.40563 9.00540 8.71068
#
# Compressibility (1/GPa) = 0.00996948
#
# Stress axis : x y z
#
# Youngs Moduli (GPa) = 89.45188 158.79260 151.43794
#
# Poissons Ratio (x) = 0.41516 0.57606
# Poissons Ratio (y) = 0.23387 0.09645
# Poissons Ratio (z) = 0.34027 0.10114
#
# Static dielectric constant tensor:
#      x y z
#    x 1.922130 0.000000 0.000000 
#    y 0.000000 1.619970 0.000000 
#    z 0.000000 0.000000 1.870140 
# 
# From -- ./inp_files/4343.got.cif
#   From: 2010.05.17/outbox.cif.g08.bks.cpg/sg67_3_cif.got.tgz:4343.got - 2010.06.03 18:28:57.
