data_PCOD9505514
_publ_section_title
;
Structure prediction by ZEFSAII (Michael W. Deem and Ramdas Pophale) SiO2 
 PCOD9505514
Probable space group: C C C A
;
_chemical_formula_sum "Si O2"
_cell_formula_units_Z 104
_cell_length_a 25.974495
_cell_length_b 21.602620
_cell_length_c 8.513677
_cell_angle_alpha 90.000000
_cell_angle_beta 90.000000
_cell_angle_gamma 90.000000
_cell_volume 4777.170133
_symmetry_space_group_name_H-M "C C C A"
_symmetry_group_IT_number 68
_space_group.IT_coordinate_system_code '2'
_symmetry_cell_setting 'orthorhombic'
loop_
_space_group_symop_operation_xyz
x,y,z
-x,1/2-y,z
x,1/2-y,1/2-z
-x,y,1/2-z
-x,-y,-z
x,1/2+y,-z
-x,1/2+y,1/2+z
x,-y,1/2+z
1/2+x,1/2+y,z
1/2-x,-y,z
1/2+x,-y,1/2-z
1/2-x,1/2+y,1/2-z
1/2-x,1/2-y,-z
1/2+x,y,-z
1/2-x,y,1/2+z
1/2+x,1/2-y,1/2+z
loop_
_atom_site_type_symbol
_atom_site_label
_atom_site_fract_x
_atom_site_fract_y
_atom_site_fract_z
Si Si1 0.592488 0.366521 0.570178
Si Si2 0.407161 0.584861 0.894104
Si Si3 0.558961 0.978557 0.205542
Si Si4 0.426983 0.250000 0.750000
Si Si5 0.305862 0.571972 0.441535
Si Si6 0.195115 0.930014 0.938987
Si Si7 0.485032 0.183647 0.033915
O O1 0.579498 0.420651 0.694335
O O2 0.603242 0.299370 0.646781
O O3 0.646029 0.388494 0.496183
O O4 0.537375 0.355216 0.487164
O O5 0.408210 0.539267 0.746437
O O6 0.442903 0.644345 0.874992
O O7 0.434724 0.542088 0.026966
O O8 0.352520 0.601572 0.970634
O O9 0.500000 0.990063 0.250000
O O10 0.459426 0.295356 0.633424
O O11 0.250234 0.593756 0.501884
O O12 0.309928 0.501521 0.503960
O O13 0.307128 0.572576 0.250364
O O14 0.500000 0.250000 0.098085
#
# Coordination Sequence:
#
# PCOD9505514 Si02
#       7
#    16  16  16   8  16  16  16
#     4  11  18  33  56  86 117 147 193 240 291 340
#     4  12  22  37  57  89 125 154 192 243 305 347
#     4  12  22  34  55  93 126 148 183 240 305 357
#     4  10  17  32  58  86 118 150 198 246 275 340
#     4  11  22  36  55  81 117 150 197 238 299 351
#     4  11  21  36  54  80 117 154 190 245 295 352
#     4  10  20  33  58  88 115 154 197 242 281 348
#
# _framework density 21.770212000000001
#
# number of rings (size 3 to 8) (size 9 to 14) (size 15 to 20)
#    0.000    0.923    6.154    4.385    0.000    0.000 
#    0.000    0.000    0.000    8.769    0.000    0.000 
#    0.000    0.000    0.000    0.000    0.000    0.000 
#
# Total GULP energy -290644.048503 kJ/mol
# GULP energy per Si atom -5589.308625 kJ/mol
# Density = 2.172066 g / cm^3
# Si number density = 21.770212 Si / 1000 Ang^3
#
#
#
# Elastic Constant Matrix: (Units=GPa)
#
#
# Indices 1 2 3 4 5 6 
#
# 1 171.4436 51.4092 34.9410 0.0000 0.0000 0.0000
# 2 51.4092 100.2815 24.5548 0.0000 0.0000 0.0000
# 3 34.9410 24.5548 60.9155 0.0000 0.0000 0.0000
# 4 0.0000 0.0000 0.0000 -4.6195 0.0000 0.0000
# 5 0.0000 0.0000 0.0000 0.0000 -18.3870 0.0000
# 6 0.0000 0.0000 0.0000 0.0000 0.0000 21.1475
#
#
#
# Elastic Compliance Matrix: (Units=1/GPa)
#
#
# Indices 1 2 3 4 5 6 
#
# 1 0.007354 -0.003037 -0.002994 0.000000 0.000000 0.000000
# 2 -0.003037 0.012318 -0.003223 0.000000 0.000000 0.000000
# 3 -0.002994 -0.003223 0.019433 0.000000 0.000000 0.000000
# 4 0.000000 0.000000 0.000000 -0.216474 0.000000 0.000000
# 5 0.000000 0.000000 0.000000 0.000000 -0.054386 0.000000
# 6 0.000000 0.000000 0.000000 0.000000 0.000000 0.047287
#
#
# Mechanical properties :
#
#
# Convention : Reuss Voigt Hill
#
# Bulk Modulus (GPa) = 48.55263 61.60563 55.07913
# Shear Modulus (GPa) = -31.42764 14.41057 -8.50853
#
# Velocity S-wave (km/s) = -3.80361 2.57561 -1.97910
# Velocity P-wave (km/s) = 1.74953 6.09956 4.48695
#
# Compressibility (1/GPa) = 0.02059621
#
# Stress axis : x y z
#
# Youngs Moduli (GPa) = 135.98800 81.18198 51.45925
#
# Poissons Ratio (x) = 0.24653 0.15406
# Poissons Ratio (y) = 0.41296 0.16588
# Poissons Ratio (z) = 0.40714 0.26169
#
# Static dielectric constant tensor:
#      x y z
#    x 1.843110 0.000000 0.000000 
#    y 0.000000 1.773900 0.000000 
#    z 0.000000 0.000000 1.915170 
# 
# From -- ./inp_files/9120.got.cif
#   From: 2010.05.17/outbox.cif.g08.bks.cpg/sg68_5_cif.got.tgz:9120.got - 2010.06.03 18:57:09.
