data_PCOD9505465
_publ_section_title
;
Structure prediction by ZEFSAII (Michael W. Deem and Ramdas Pophale) SiO2 
 PCOD9505465
Probable space group: C C C A
;
_chemical_formula_sum "Si O2"
_cell_formula_units_Z 120
_cell_length_a 30.136438
_cell_length_b 7.758607
_cell_length_c 26.266065
_cell_angle_alpha 90.000000
_cell_angle_beta 90.000000
_cell_angle_gamma 90.000000
_cell_volume 6141.446711
_symmetry_space_group_name_H-M "C C C A"
_symmetry_group_IT_number 68
_space_group.IT_coordinate_system_code '2'
_symmetry_cell_setting 'orthorhombic'
loop_
_space_group_symop_operation_xyz
x,y,z
-x,1/2-y,z
x,1/2-y,1/2-z
-x,y,1/2-z
-x,-y,-z
x,1/2+y,-z
-x,1/2+y,1/2+z
x,-y,1/2+z
1/2+x,1/2+y,z
1/2-x,-y,z
1/2+x,-y,1/2-z
1/2-x,1/2+y,1/2-z
1/2-x,1/2-y,-z
1/2+x,y,-z
1/2-x,y,1/2+z
1/2+x,1/2-y,1/2+z
loop_
_atom_site_type_symbol
_atom_site_label
_atom_site_fract_x
_atom_site_fract_y
_atom_site_fract_z
Si Si1 0.860619 0.250000 0.250000
Si Si2 0.551808 0.738882 0.058121
Si Si3 0.328849 0.493556 0.393557
Si Si4 0.327422 0.065555 0.427059
Si Si5 0.259673 0.747967 0.440417
Si Si6 0.389484 0.957311 0.519233
Si Si7 0.800228 0.071635 0.781592
Si Si8 0.113716 0.167980 0.360383
O O1 0.829584 0.416518 0.240944
O O2 0.887574 0.303422 0.300237
O O3 0.500000 0.750000 0.048255
O O4 0.570437 0.549111 0.049309
O O5 0.566279 0.816866 0.112211
O O6 0.583964 0.834919 0.018296
O O7 0.286983 0.583570 0.420900
O O8 0.358661 0.391132 0.434767
O O9 0.317628 0.411400 0.339290
O O10 0.358771 0.664929 0.380443
O O11 0.288842 0.209565 0.417000
O O12 0.293888 0.902835 0.431802
O O13 0.355666 0.060213 0.480604
O O14 0.360670 0.002579 0.381761
O O15 0.250000 0.750000 0.500000
O O16 0.802501 0.250000 0.750000
O O17 0.750000 0.000000 0.783004
#
# Coordination Sequence:
#
# PCOD9505465 Si02
#       8
#     8  16  16  16  16  16  16  16
#     4  10  20  42  63  76 118 154 202 266 319 346
#     4  10  20  36  58  84 115 147 185 233 298 380
#     4   9  19  34  51  79 112 156 197 247 294 350
#     4   9  18  29  46  79 114 155 195 236 281 353
#     4  10  17  28  48  75 119 161 201 238 286 342
#     4  10  19  35  54  80 119 150 187 231 295 361
#     4  11  23  40  58  83 115 159 216 265 303 349
#     4   8  18  35  55  76 106 149 191 246 301 351
#
# _framework density 19.539370000000002
#
# number of rings (size 3 to 8) (size 9 to 14) (size 15 to 20)
#    0.000    2.400    2.000    1.200    0.000    2.133 
#    7.200    0.333    0.000    0.000    0.000    0.000 
#    0.000    0.000    0.000    0.000    0.000    0.000 
#
# Total GULP energy -334282.437029 kJ/mol
# GULP energy per Si atom -5571.373950 kJ/mol
# Density = 1.949490 g / cm^3
# Si number density = 19.539370 Si / 1000 Ang^3
#
#
#
# Elastic Constant Matrix: (Units=GPa)
#
#
# Indices 1 2 3 4 5 6 
#
# 1 116.7703 29.8822 41.8025 0.0000 0.0000 0.0000
# 2 29.8822 39.1181 35.8328 0.0000 0.0000 0.0000
# 3 41.8025 35.8328 137.5439 0.0000 0.0000 0.0000
# 4 0.0000 0.0000 0.0000 23.7615 0.0000 0.0000
# 5 0.0000 0.0000 0.0000 0.0000 13.9188 0.0000
# 6 0.0000 0.0000 0.0000 0.0000 0.0000 23.8784
#
#
#
# Elastic Compliance Matrix: (Units=1/GPa)
#
#
# Indices 1 2 3 4 5 6 
#
# 1 0.010875 -0.006935 -0.001498 0.000000 0.000000 0.000000
# 2 -0.006935 0.037998 -0.007792 0.000000 0.000000 0.000000
# 3 -0.001498 -0.007792 0.009756 0.000000 0.000000 0.000000
# 4 0.000000 0.000000 0.000000 0.042085 0.000000 0.000000
# 5 0.000000 0.000000 0.000000 0.000000 0.071845 0.000000
# 6 0.000000 0.000000 0.000000 0.000000 0.000000 0.041879
#
#
# Mechanical properties :
#
#
# Convention : Reuss Voigt Hill
#
# Bulk Modulus (GPa) = 38.19829 56.49639 47.34734
# Shear Modulus (GPa) = 19.56075 24.70607 22.13341
#
# Velocity S-wave (km/s) = 3.16744 3.55973 3.36930
# Velocity P-wave (km/s) = 5.74184 6.77292 6.27858
#
# Compressibility (1/GPa) = 0.02617918
#
# Stress axis : x y z
#
# Youngs Moduli (GPa) = 91.95495 26.31700 102.50402
#
# Poissons Ratio (x) = 0.18250 0.15360
# Poissons Ratio (y) = 0.63768 0.79868
# Poissons Ratio (z) = 0.13779 0.20505
#
# Static dielectric constant tensor:
#      x y z
#    x 1.671280 0.000000 0.000000 
#    y 0.000000 1.874090 0.000000 
#    z 0.000000 0.000000 1.743660 
# 
# From -- ./inp_files/52405.got.cif
#   From: 2010.05.17/outbox.cif.g08.bks.cpg/sg68_27_cif.got.tgz:52405.got - 2010.06.03 18:57:09.
