data_PCOD9505922
_publ_section_title
;
Structure prediction by ZEFSAII (Michael W. Deem and Ramdas Pophale) SiO2 
 PCOD9505922
Probable space group: C C C A
;
_chemical_formula_sum "Si O2"
_cell_formula_units_Z 96
_cell_length_a 24.006432
_cell_length_b 25.645294
_cell_length_c 8.837770
_cell_angle_alpha 90.000000
_cell_angle_beta 90.000000
_cell_angle_gamma 90.000000
_cell_volume 5440.990834
_symmetry_space_group_name_H-M "C C C A"
_symmetry_group_IT_number 68
_space_group.IT_coordinate_system_code '2'
_symmetry_cell_setting 'orthorhombic'
loop_
_space_group_symop_operation_xyz
x,y,z
-x,1/2-y,z
x,1/2-y,1/2-z
-x,y,1/2-z
-x,-y,-z
x,1/2+y,-z
-x,1/2+y,1/2+z
x,-y,1/2+z
1/2+x,1/2+y,z
1/2-x,-y,z
1/2+x,-y,1/2-z
1/2-x,1/2+y,1/2-z
1/2-x,1/2-y,-z
1/2+x,y,-z
1/2-x,y,1/2+z
1/2+x,1/2-y,1/2+z
loop_
_atom_site_type_symbol
_atom_site_label
_atom_site_fract_x
_atom_site_fract_y
_atom_site_fract_z
Si Si1 0.085363 0.172273 0.143734
Si Si2 0.500000 0.492473 0.250000
Si Si3 0.194926 0.806639 0.464376
Si Si4 0.500000 0.250000 0.491829
Si Si5 0.070185 0.345321 0.998835
Si Si6 0.810195 0.817541 0.387269
Si Si7 0.972316 0.074743 0.500757
O O1 0.074083 0.165112 0.320810
O O2 0.045551 0.218366 0.086752
O O3 0.066815 0.120783 0.053688
O O4 0.147472 0.183350 0.088961
O O5 0.473053 0.530723 0.372157
O O6 0.540492 0.454581 0.343829
O O7 0.189518 0.744221 0.432181
O O8 0.189724 0.826815 0.292749
O O9 0.251564 0.830451 0.533607
O O10 0.463493 0.297017 0.418639
O O11 0.032911 0.397171 0.981414
O O12 0.133581 0.344523 0.945080
#
# Coordination Sequence:
#
# PCOD9505922 Si02
#       7
#    16   8  16   8  16  16  16
#     4  11  19  33  52  82 108 148 178 215 261 332
#     4  10  20  40  54  76 112 140 178 238 264 328
#     4  10  21  35  51  75 108 150 188 220 259 307
#     4  10  19  30  49  74 117 146 171 210 257 314
#     4  11  19  33  52  82 108 148 178 215 261 332
#     4  10  21  35  51  75 108 150 188 220 259 307
#     4  10  21  35  57  82 109 142 183 215 283 320
#
# _framework density 17.643844000000001
#
# number of rings (size 3 to 8) (size 9 to 14) (size 15 to 20)
#    0.000    1.667    3.333    3.500    2.333    1.333 
#    0.000    0.833    0.000    0.000    0.000    7.000 
#    0.000    0.000    0.000    0.000    0.000    0.000 
#
# Total GULP energy -267307.214606 kJ/mol
# GULP energy per Si atom -5568.900304 kJ/mol
# Density = 1.760369 g / cm^3
# Si number density = 17.643844 Si / 1000 Ang^3
#
#
#
# Elastic Constant Matrix: (Units=GPa)
#
#
# Indices 1 2 3 4 5 6 
#
# 1 109.9076 12.8681 10.9939 0.0000 0.0000 0.0000
# 2 12.8681 65.0686 24.8803 0.0000 0.0000 0.0000
# 3 10.9939 24.8803 43.1736 0.0000 0.0000 0.0000
# 4 0.0000 0.0000 0.0000 19.0183 0.0000 0.0000
# 5 0.0000 0.0000 0.0000 0.0000 22.4070 0.0000
# 6 0.0000 0.0000 0.0000 0.0000 0.0000 6.6512
#
#
#
# Elastic Compliance Matrix: (Units=1/GPa)
#
#
# Indices 1 2 3 4 5 6 
#
# 1 0.009410 -0.001212 -0.001698 0.000000 0.000000 0.000000
# 2 -0.001212 0.019868 -0.011141 0.000000 0.000000 0.000000
# 3 -0.001698 -0.011141 0.030015 0.000000 0.000000 0.000000
# 4 0.000000 0.000000 0.000000 0.052581 0.000000 0.000000
# 5 0.000000 0.000000 0.000000 0.000000 0.044629 0.000000
# 6 0.000000 0.000000 0.000000 0.000000 0.000000 0.150348
#
#
# Mechanical properties :
#
#
# Convention : Reuss Voigt Hill
#
# Bulk Modulus (GPa) = 32.05964 35.07048 33.56506
# Shear Modulus (GPa) = 14.47807 20.90915 17.69361
#
# Velocity S-wave (km/s) = 2.86767 3.44622 3.17017
# Velocity P-wave (km/s) = 5.40135 5.97957 5.69780
#
# Compressibility (1/GPa) = 0.03119187
#
# Stress axis : x y z
#
# Youngs Moduli (GPa) = 106.26693 50.33212 33.31652
#
# Poissons Ratio (x) = 0.06099 0.05657
# Poissons Ratio (y) = 0.12877 0.37118
# Poissons Ratio (z) = 0.18044 0.56075
#
# Static dielectric constant tensor:
#      x y z
#    x 1.606100 0.000000 0.000000 
#    y 0.000000 1.613050 0.000000 
#    z 0.000000 0.000000 1.635580 
# 
# From -- ./inp_files/8168.got.cif
#   From: 2010.05.17/outbox.cif.g08.bks.cpg/sg68_5_cif.got.tgz:8168.got - 2010.06.03 18:57:09.
