data_PCOD9505082
_publ_section_title
;
Structure prediction by ZEFSAII (Michael W. Deem and Ramdas Pophale) SiO2 
 PCOD9505082
Probable space group: C M M A
;
_chemical_formula_sum "Si O2"
_cell_formula_units_Z 56
_cell_length_a 21.086307
_cell_length_b 10.572029
_cell_length_c 15.257011
_cell_angle_alpha 90.000000
_cell_angle_beta 90.000000
_cell_angle_gamma 90.000000
_cell_volume 3401.169926
_symmetry_space_group_name_H-M "C M M A"
_symmetry_group_IT_number 67
_symmetry_cell_setting 'orthorhombic'
loop_
_space_group_symop_operation_xyz
x,y,z
-x,1/2-y,z
x,-y,-z
-x,1/2+y,-z
-x,-y,-z
x,1/2+y,-z
-x,y,z
x,1/2-y,z
1/2+x,1/2+y,z
1/2-x,-y,z
1/2+x,1/2-y,-z
1/2-x,y,-z
1/2-x,1/2-y,-z
1/2+x,y,-z
1/2-x,1/2+y,z
1/2+x,-y,z
loop_
_atom_site_type_symbol
_atom_site_label
_atom_site_fract_x
_atom_site_fract_y
_atom_site_fract_z
Si Si1 0.500000 0.399403 0.719963
Si Si2 0.167025 0.750000 0.332674
Si Si3 0.000000 0.535353 0.100717
Si Si4 0.612244 0.488819 0.597125
Si Si5 0.206454 0.750000 0.587951
Si Si6 0.930909 0.750000 0.181293
O O1 0.500000 0.250000 0.705283
O O2 0.500000 0.430462 0.823355
O O3 0.560965 0.458136 0.671463
O O4 0.144674 0.622427 0.381134
O O5 0.242818 0.750000 0.333158
O O6 0.129613 0.750000 0.241320
O O7 0.939988 0.626125 0.122408
O O8 0.000000 0.500000 0.000000
O O9 0.582787 0.500000 0.500000
O O10 0.663126 0.374888 0.592320
O O11 0.250000 0.750000 0.500000
O O12 0.000000 0.750000 0.233857
#
# Coordination Sequence:
#
# PCOD9505082 Si02
#       6
#     8   8   8  16   8   8
#     4  12  24  38  56  88 121 143 192 245 304 352
#     4  12  22  36  61  78 119 159 201 240 278 344
#     4   9  19  37  60  86 111 141 182 237 307 354
#     4  12  23  40  57  82 119 163 199 242 284 337
#     4  12  24  39  55  82 117 163 210 242 273 330
#     4   8  18  36  56  85 112 142 188 232 297 343
#
# _framework density 16.464922000000001
#
# number of rings (size 3 to 8) (size 9 to 14) (size 15 to 20)
#    0.857    0.000    7.143    1.286    2.000    0.000 
#    0.000    0.000    0.000    0.000    0.000    6.000 
#    0.000    0.000    0.000    0.000    0.000    0.000 
#
# Total GULP energy -156037.569260 kJ/mol
# GULP energy per Si atom -5572.770331 kJ/mol
# Density = 1.642745 g / cm^3
# Si number density = 16.464922 Si / 1000 Ang^3
#
#
#
# Elastic Constant Matrix: (Units=GPa)
#
#
# Indices 1 2 3 4 5 6 
#
# 1 87.7894 37.1819 46.4770 0.0000 0.0000 0.0000
# 2 37.1819 128.4321 30.0024 0.0000 0.0000 0.0000
# 3 46.4770 30.0024 119.6300 0.0000 0.0000 0.0000
# 4 0.0000 0.0000 0.0000 16.1218 0.0000 0.0000
# 5 0.0000 0.0000 0.0000 0.0000 18.0310 0.0000
# 6 0.0000 0.0000 0.0000 0.0000 0.0000 17.0070
#
#
#
# Elastic Compliance Matrix: (Units=1/GPa)
#
#
# Indices 1 2 3 4 5 6 
#
# 1 0.015541 -0.003281 -0.005215 0.000000 0.000000 0.000000
# 2 -0.003281 0.008963 -0.000973 0.000000 0.000000 0.000000
# 3 -0.005215 -0.000973 0.010629 0.000000 0.000000 0.000000
# 4 0.000000 0.000000 0.000000 0.062028 0.000000 0.000000
# 5 0.000000 0.000000 0.000000 0.000000 0.055460 0.000000
# 6 0.000000 0.000000 0.000000 0.000000 0.000000 0.058799
#
#
# Mechanical properties :
#
#
# Convention : Reuss Voigt Hill
#
# Bulk Modulus (GPa) = 61.74599 62.57490 62.16044
# Shear Modulus (GPa) = 21.20814 25.04465 23.12639
#
# Velocity S-wave (km/s) = 3.59288 3.90435 3.75185
# Velocity P-wave (km/s) = 7.40234 7.64282 7.52354
#
# Compressibility (1/GPa) = 0.01619538
#
# Stress axis : x y z
#
# Youngs Moduli (GPa) = 64.34389 111.56392 94.07970
#
# Poissons Ratio (x) = 0.36605 0.49063
# Poissons Ratio (y) = 0.21112 0.09156
# Poissons Ratio (z) = 0.33556 0.10858
#
# Static dielectric constant tensor:
#      x y z
#    x 1.549130 0.000000 0.000000 
#    y 0.000000 1.584050 0.000000 
#    z 0.000000 0.000000 1.550450 
# 
# From -- ./inp_files/28955.got.cif
#   From: 2010.05.17/outbox.cif.g08.bks.cpg/sg67_15_cif.got.tgz:28955.got - 2010.06.03 18:28:57.
