data_PCOD9505237
_publ_section_title
;
Structure prediction by ZEFSAII (Michael W. Deem and Ramdas Pophale) SiO2 
 PCOD9505237
Probable space group: C M M A
;
_chemical_formula_sum "Si O2"
_cell_formula_units_Z 60
_cell_length_a 24.000000
_cell_length_b 21.000000
_cell_length_c 12.000000
_cell_angle_alpha 90.000000
_cell_angle_beta 90.000000
_cell_angle_gamma 90.000000
_cell_volume 6048.000000
_symmetry_space_group_name_H-M "C M M A"
_symmetry_group_IT_number 67
_symmetry_cell_setting 'orthorhombic'
loop_
_space_group_symop_operation_xyz
x,y,z
-x,1/2-y,z
x,-y,-z
-x,1/2+y,-z
-x,-y,-z
x,1/2+y,-z
-x,y,z
x,1/2-y,z
1/2+x,1/2+y,z
1/2-x,-y,z
1/2+x,1/2-y,-z
1/2-x,y,-z
1/2-x,1/2-y,-z
1/2+x,y,-z
1/2-x,1/2+y,z
1/2+x,-y,z
loop_
_atom_site_type_symbol
_atom_site_label
_atom_site_fract_x
_atom_site_fract_y
_atom_site_fract_z
Si Si1 0.623032 0.365962 0.888655
Si Si2 0.602673 0.099839 0.332826
Si Si3 0.133960 0.676765 0.123012
Si Si4 0.063780 0.642336 0.570256
Si Si5 0.099990 0.250000 0.272782
Si Si6 0.239340 0.824584 0.800474
Si Si7 0.268958 0.569520 0.627221
Si Si8 0.936822 0.534646 0.747222
O O1 0.594424 0.307359 0.822106
O O2 0.688299 0.350024 0.872450
O O3 0.605003 0.432157 0.833474
O O4 0.612670 0.363886 0.019538
O O5 0.608707 0.152485 0.237768
O O6 0.574842 0.129316 0.441733
O O7 0.664723 0.076307 0.364796
O O8 0.572635 0.038376 0.282099
O O9 0.120859 0.750000 0.100883
O O10 0.201160 0.672681 0.138706
O O11 0.102288 0.694061 0.629640
O O12 0.070152 0.575426 0.634000
O O13 0.000000 0.665075 0.588938
O O14 0.226651 0.750000 0.771771
O O15 0.243588 0.871516 0.695519
O O16 0.250000 0.500000 0.671240
O O17 0.250000 0.573234 0.500000
O O18 0.000000 0.544972 0.787076
#
# Coordination Sequence:
#
# PCOD9505237 Si02
#       8
#    16  16  16  16   8  16  16  16
#     4  11  20  38  67  88 120 162 205 252 305 355
#     4  11  23  38  62  86 124 162 198 251 309 369
#     4  10  22  40  59  92 125 160 200 248 300 366
#     4  10  22  39  63  88 117 154 200 255 304 362
#     4  10  21  34  61  91 114 150 201 248 297 354
#     4  10  20  36  60  90 120 159 204 247 302 367
#     4  10  23  35  53  84 125 163 201 247 300 371
#     4  10  23  41  64  91 118 156 209 260 305 356
#
# _framework density 9.9206350000000008
#
# number of rings (size 3 to 8) (size 9 to 14) (size 15 to 20)
#    0.000    1.733    1.333    2.200    8.400    3.467 
#    0.000    2.000    0.000    4.000    0.000    0.000 
#    0.000    0.000    0.000    0.000    0.000    0.000 
#
# Total GULP energy -334008.562755 kJ/mol
# GULP energy per Si atom -5566.809379 kJ/mol
# Density = 0.989806 g / cm^3
# Si number density = 9.920635 Si / 1000 Ang^3
#
#
#
# Elastic Constant Matrix: (Units=GPa)
#
#
# Indices 1 2 3 4 5 6 
#
# 1 7.1575 3.8288 13.0407 0.0000 0.0000 0.0000
# 2 3.8288 14.9664 9.8781 0.0000 0.0000 0.0000
# 3 13.0407 9.8781 101.3778 0.0000 0.0000 0.0000
# 4 0.0000 0.0000 0.0000 16.3842 0.0000 0.0000
# 5 0.0000 0.0000 0.0000 0.0000 0.0896 0.0000
# 6 0.0000 0.0000 0.0000 0.0000 0.0000 775.3915
#
#
#
# Elastic Compliance Matrix: (Units=1/GPa)
#
#
# Indices 1 2 3 4 5 6 
#
# 1 0.199494 -0.036442 -0.022111 0.000000 0.000000 0.000000
# 2 -0.036442 0.078066 -0.002919 0.000000 0.000000 0.000000
# 3 -0.022111 -0.002919 0.012993 0.000000 0.000000 0.000000
# 4 0.000000 0.000000 0.000000 0.061034 0.000000 0.000000
# 5 0.000000 0.000000 0.000000 0.000000 11.164310 0.000000
# 6 0.000000 0.000000 0.000000 0.000000 0.000000 0.001290
#
#
# Mechanical properties :
#
#
# Convention : Reuss Voigt Hill
#
# Bulk Modulus (GPa) = 5.96628 19.66631 12.81630
# Shear Modulus (GPa) = 0.42750 164.82333 82.62541
#
# Velocity S-wave (km/s) = 0.46468 9.12421 6.46016
# Velocity P-wave (km/s) = 1.81699 10.99705 7.88151
#
# Compressibility (1/GPa) = 0.16760861
#
# Stress axis : x y z
#
# Youngs Moduli (GPa) = 5.01268 12.80970 76.96614
#
# Poissons Ratio (x) = 0.46681 1.70179
# Poissons Ratio (y) = 0.18267 0.22466
# Poissons Ratio (z) = 0.11083 0.03739
#
# Static dielectric constant tensor:
#      x y z
#    x 1.775070 0.000000 0.000000 
#    y 0.000000 1.645800 0.000000 
#    z 0.000000 0.000000 1.678560 
# 
# From -- ./inp_files/22223.got.cif
#   From: 2010.05.17/outbox.ucp.g08.bks.cvg/sg67_12_cif.got.tgz:22223.got - 2010.06.11 16:47:20.
