data_PCOD9505181
_publ_section_title
;
Structure prediction by ZEFSAII (Michael W. Deem and Ramdas Pophale) SiO2 
 PCOD9505181
Probable space group: C M M A
;
_chemical_formula_sum "Si O2"
_cell_formula_units_Z 40
_cell_length_a 9.000000
_cell_length_b 18.000000
_cell_length_c 27.000000
_cell_angle_alpha 90.000000
_cell_angle_beta 90.000000
_cell_angle_gamma 90.000000
_cell_volume 4374.000000
_symmetry_space_group_name_H-M "C M M A"
_symmetry_group_IT_number 67
_symmetry_cell_setting 'orthorhombic'
loop_
_space_group_symop_operation_xyz
x,y,z
-x,1/2-y,z
x,-y,-z
-x,1/2+y,-z
-x,-y,-z
x,1/2+y,-z
-x,y,z
x,1/2-y,z
1/2+x,1/2+y,z
1/2-x,-y,z
1/2+x,1/2-y,-z
1/2-x,y,-z
1/2-x,1/2-y,-z
1/2+x,y,-z
1/2-x,1/2+y,z
1/2+x,-y,z
loop_
_atom_site_type_symbol
_atom_site_label
_atom_site_fract_x
_atom_site_fract_y
_atom_site_fract_z
Si Si1 0.320156 0.919610 0.248713
Si Si2 0.179335 0.581737 0.950115
Si Si3 0.677848 0.162767 0.651004
Si Si4 0.171599 0.159376 0.550195
Si Si5 0.819367 0.833991 0.849827
O O1 0.500000 0.923500 0.248127
O O2 0.275795 0.878426 0.299176
O O3 0.271213 0.876200 0.199531
O O4 0.250000 0.000000 0.247919
O O5 0.250000 0.500000 0.945731
O O6 0.220471 0.625855 0.900721
O O7 0.000000 0.577485 0.954342
O O8 0.250000 0.615340 0.000000
O O9 0.500000 0.156909 0.645998
O O10 0.713957 0.250000 0.656235
O O11 0.751770 0.133903 0.600773
O O12 0.181139 0.250000 0.550277
O O13 0.250000 0.133606 0.500000
O O14 0.000000 0.138848 0.549691
O O15 0.765210 0.750000 0.849348
O O16 0.000000 0.832568 0.848533
#
# Coordination Sequence:
#
# PCOD9505181 Si02
#       5
#    16  16  16  16  16
#     4  10  20  34  53  74  98 129 164 203 246 296
#     4  10  19  32  52  75 102 135 169 206 246 293
#     4   9  17  30  49  72  97 127 164 203 242 287
#     4   9  16  26  43  69 100 131 162 199 243 290
#     4   9  18  33  53  76 100 129 167 208 249 293
#
# _framework density 9.1449470000000002
#
# number of rings (size 3 to 8) (size 9 to 14) (size 15 to 20)
#    0.000    2.600    0.000    3.000    0.000    6.000 
#    0.000    1.000    0.000    6.600    0.000    4.200 
#    0.000    0.000    0.000    0.000    0.000    0.000 
#
# Total GULP energy -223034.332958 kJ/mol
# GULP energy per Si atom -5575.858324 kJ/mol
# Density = 0.912413 g / cm^3
# Si number density = 9.144947 Si / 1000 Ang^3
#
#
#
# Elastic Constant Matrix: (Units=GPa)
#
#
# Indices 1 2 3 4 5 6 
#
# 1 31.0288 34.3316 63.6063 0.0000 0.0000 0.0000
# 2 34.3316 77.8303 96.6106 0.0000 0.0000 0.0000
# 3 63.6063 96.6106 245.4973 0.0000 0.0000 0.0000
# 4 0.0000 0.0000 0.0000 42.6340 0.0000 0.0000
# 5 0.0000 0.0000 0.0000 0.0000 13.3423 0.0000
# 6 0.0000 0.0000 0.0000 0.0000 0.0000 12.0368
#
#
#
# Elastic Compliance Matrix: (Units=1/GPa)
#
#
# Indices 1 2 3 4 5 6 
#
# 1 0.080800 -0.018876 -0.013506 0.000000 0.000000 0.000000
# 2 -0.018876 0.029528 -0.006730 0.000000 0.000000 0.000000
# 3 -0.013506 -0.006730 0.010221 0.000000 0.000000 0.000000
# 4 0.000000 0.000000 0.000000 0.023455 0.000000 0.000000
# 5 0.000000 0.000000 0.000000 0.000000 0.074950 0.000000
# 6 0.000000 0.000000 0.000000 0.000000 0.000000 0.083079
#
#
# Mechanical properties :
#
#
# Convention : Reuss Voigt Hill
#
# Bulk Modulus (GPa) = 23.62650 82.60595 53.11623
# Shear Modulus (GPa) = 12.67856 24.25649 18.46752
#
# Velocity S-wave (km/s) = 2.63573 3.64569 3.18104
# Velocity P-wave (km/s) = 4.71260 7.93626 6.52659
#
# Compressibility (1/GPa) = 0.04232535
#
# Stress axis : x y z
#
# Youngs Moduli (GPa) = 12.37617 33.86564 97.83726
#
# Poissons Ratio (x) = 0.63926 1.32142
# Poissons Ratio (y) = 0.23362 0.65841
# Poissons Ratio (z) = 0.16716 0.22790
#
# Static dielectric constant tensor:
#      x y z
#    x 1.615720 0.000000 0.000000 
#    y 0.000000 1.616280 0.000000 
#    z 0.000000 0.000000 1.635440 
# 
# From -- ./inp_files/43241.got.cif
#   From: 2010.05.17/outbox.ucp.g08.bks.cvg/sg67_22_cif.got.tgz:43241.got - 2010.06.11 16:47:20.
