data_PCOD9505955
_publ_section_title
;
Structure prediction by ZEFSAII (Michael W. Deem and Ramdas Pophale) SiO2 
 PCOD9505955
Probable space group: C C C A
;
_chemical_formula_sum "Si O2"
_cell_formula_units_Z 120
_cell_length_a 14.721733
_cell_length_b 19.782536
_cell_length_c 20.700685
_cell_angle_alpha 90.000000
_cell_angle_beta 90.000000
_cell_angle_gamma 90.000000
_cell_volume 6028.727005
_symmetry_space_group_name_H-M "C C C A"
_symmetry_group_IT_number 68
_space_group.IT_coordinate_system_code '2'
_symmetry_cell_setting 'orthorhombic'
loop_
_space_group_symop_operation_xyz
x,y,z
-x,1/2-y,z
x,1/2-y,1/2-z
-x,y,1/2-z
-x,-y,-z
x,1/2+y,-z
-x,1/2+y,1/2+z
x,-y,1/2+z
1/2+x,1/2+y,z
1/2-x,-y,z
1/2+x,-y,1/2-z
1/2-x,1/2+y,1/2-z
1/2-x,1/2-y,-z
1/2+x,y,-z
1/2-x,y,1/2+z
1/2+x,1/2-y,1/2+z
loop_
_atom_site_type_symbol
_atom_site_label
_atom_site_fract_x
_atom_site_fract_y
_atom_site_fract_z
Si Si1 0.988404 0.669631 0.516202
Si Si2 0.645619 0.937796 0.201136
Si Si3 0.130622 0.669010 0.101775
Si Si4 0.671217 0.705812 0.683315
Si Si5 0.872583 0.790916 0.863725
Si Si6 0.849907 0.588354 0.266636
Si Si7 0.334663 0.141988 0.918617
Si Si8 0.000000 0.835370 0.750000
O O1 0.941836 0.647113 0.450595
O O2 0.920615 0.667149 0.578468
O O3 0.000000 0.750000 0.508437
O O4 0.086352 0.636514 0.528676
O O5 0.739722 0.916378 0.235147
O O6 0.665958 0.925342 0.125384
O O7 0.567338 0.885111 0.213116
O O8 0.619203 0.011324 0.226787
O O9 0.124207 0.745577 0.130464
O O10 0.127349 0.624277 0.166008
O O11 0.229641 0.659395 0.067907
O O12 0.684331 0.750000 0.750000
O O13 0.769982 0.689075 0.653906
O O14 0.622159 0.637700 0.708080
O O15 0.866023 0.711543 0.882144
O O16 0.935158 0.798852 0.801245
#
# Coordination Sequence:
#
# PCOD9505955 Si02
#       8
#    16  16  16  16  16  16  16   8
#     4  10  20  34  50  82 113 144 183 226 282 343
#     4  10  19  31  52  80 110 145 179 221 290 343
#     4   9  19  35  57  78 111 148 186 232 281 329
#     4   9  17  31  53  81 107 139 183 228 280 333
#     4  10  20  27  50  81 115 136 171 223 292 341
#     4   9  18  35  54  79 106 146 187 226 274 343
#     4   9  19  33  50  83 114 144 184 228 278 343
#     4  12  20  29  52  84 115 144 160 234 289 344
#
# _framework density 19.904699999999998
#
# number of rings (size 3 to 8) (size 9 to 14) (size 15 to 20)
#    0.000    2.400    2.667    0.800    0.000    5.333 
#    0.000    2.000    0.000    2.800   10.400    0.000 
#    0.000    0.000    0.000    0.000    0.000    0.000 
#
# Total GULP energy -334316.523161 kJ/mol
# GULP energy per Si atom -5571.942053 kJ/mol
# Density = 1.985940 g / cm^3
# Si number density = 19.904700 Si / 1000 Ang^3
#
#
#
# Elastic Constant Matrix: (Units=GPa)
#
#
# Indices 1 2 3 4 5 6 
#
# 1 47.5713 7.3561 27.6438 0.0000 0.0000 0.0000
# 2 7.3561 55.7702 19.6943 0.0000 0.0000 0.0000
# 3 27.6438 19.6943 77.6023 0.0000 0.0000 0.0000
# 4 0.0000 0.0000 0.0000 6.2150 0.0000 0.0000
# 5 0.0000 0.0000 0.0000 0.0000 36.7635 0.0000
# 6 0.0000 0.0000 0.0000 0.0000 0.0000 4.1402
#
#
#
# Elastic Compliance Matrix: (Units=1/GPa)
#
#
# Indices 1 2 3 4 5 6 
#
# 1 0.026510 -0.000178 -0.009398 0.000000 0.000000 0.000000
# 2 -0.000178 0.019697 -0.004936 0.000000 0.000000 0.000000
# 3 -0.009398 -0.004936 0.017487 0.000000 0.000000 0.000000
# 4 0.000000 0.000000 0.000000 0.160902 0.000000 0.000000
# 5 0.000000 0.000000 0.000000 0.000000 0.027201 0.000000
# 6 0.000000 0.000000 0.000000 0.000000 0.000000 0.241536
#
#
# Mechanical properties :
#
#
# Convention : Reuss Voigt Hill
#
# Bulk Modulus (GPa) = 28.84303 32.25915 30.55109
# Shear Modulus (GPa) = 9.36482 17.84037 13.60259
#
# Velocity S-wave (km/s) = 2.17141 2.99706 2.61700
# Velocity P-wave (km/s) = 4.56166 5.31210 4.95112
#
# Compressibility (1/GPa) = 0.03467043
#
# Stress axis : x y z
#
# Youngs Moduli (GPa) = 37.72164 50.76896 57.18627
#
# Poissons Ratio (x) = 0.00903 0.53746
# Poissons Ratio (y) = 0.00671 0.28224
# Poissons Ratio (z) = 0.35452 0.25057
#
# Static dielectric constant tensor:
#      x y z
#    x 1.766420 0.000000 0.000000 
#    y 0.000000 1.732250 0.000000 
#    z 0.000000 0.000000 1.749070 
# 
# From -- ./inp_files/38984.got.cif
#   From: 2010.05.17/outbox.cif.g08.bks.cpg/sg68_20_cif.got.tgz:38984.got - 2010.06.03 18:57:09.
