data_PCOD9505659
_publ_section_title
;
Structure prediction by ZEFSAII (Michael W. Deem and Ramdas Pophale) SiO2 
 PCOD9505659
Probable space group: C C C A
;
_chemical_formula_sum "Si O2"
_cell_formula_units_Z 56
_cell_length_a 29.941736
_cell_length_b 13.498491
_cell_length_c 5.501552
_cell_angle_alpha 90.000000
_cell_angle_beta 90.000000
_cell_angle_gamma 90.000000
_cell_volume 2223.552666
_symmetry_space_group_name_H-M "C C C A"
_symmetry_group_IT_number 68
_space_group.IT_coordinate_system_code '2'
_symmetry_cell_setting 'orthorhombic'
loop_
_space_group_symop_operation_xyz
x,y,z
-x,1/2-y,z
x,1/2-y,1/2-z
-x,y,1/2-z
-x,-y,-z
x,1/2+y,-z
-x,1/2+y,1/2+z
x,-y,1/2+z
1/2+x,1/2+y,z
1/2-x,-y,z
1/2+x,-y,1/2-z
1/2-x,1/2+y,1/2-z
1/2-x,1/2-y,-z
1/2+x,y,-z
1/2-x,y,1/2+z
1/2+x,1/2-y,1/2+z
loop_
_atom_site_type_symbol
_atom_site_label
_atom_site_fract_x
_atom_site_fract_y
_atom_site_fract_z
Si Si1 0.866743 0.112454 0.644761
Si Si2 0.234775 0.636857 0.051245
Si Si3 0.598121 0.883734 0.148471
Si Si4 0.000000 0.936373 0.750000
O O1 0.813803 0.122964 0.669288
O O2 0.876775 0.157133 0.381949
O O3 0.885084 0.999124 0.630136
O O4 0.890908 0.154744 0.881643
O O5 0.266223 0.597277 0.271651
O O6 0.250000 0.750000 0.000000
O O7 0.546248 0.878675 0.221528
O O8 0.000000 0.000000 0.500000
#
# Coordination Sequence:
#
# PCOD9505659 Si02
#       4
#    16  16  16   8
#     4  10  18  32  48  72 104 136 176 211 264 315
#     4  10  21  37  54  70  94 132 184 235 269 308
#     4  10  19  30  48  77 111 143 162 207 259 321
#     4  12  16  30  48  74 114 148 170 190 250 320
#
# _framework density 25.184922
#
# number of rings (size 3 to 8) (size 9 to 14) (size 15 to 20)
#    0.000    1.714    5.714    1.714    0.000    0.000 
#    0.000   17.143    0.000    0.000    0.000    0.000 
#    0.000  109.714    0.000    0.000    0.000    0.000 
#
# Total GULP energy -156332.991453 kJ/mol
# GULP energy per Si atom -5583.321123 kJ/mol
# Density = 2.512760 g / cm^3
# Si number density = 25.184922 Si / 1000 Ang^3
#
#
#
# Elastic Constant Matrix: (Units=GPa)
#
#
# Indices 1 2 3 4 5 6 
#
# 1 167.0339 -3.9257 19.4349 0.0000 0.0000 0.0000
# 2 -3.9257 116.4619 20.6538 0.0000 0.0000 0.0000
# 3 19.4349 20.6538 271.1250 0.0000 0.0000 0.0000
# 4 0.0000 0.0000 0.0000 22.7146 0.0000 0.0000
# 5 0.0000 0.0000 0.0000 0.0000 58.1577 0.0000
# 6 0.0000 0.0000 0.0000 0.0000 0.0000 -55.6758
#
#
#
# Elastic Compliance Matrix: (Units=1/GPa)
#
#
# Indices 1 2 3 4 5 6 
#
# 1 0.006046 0.000285 -0.000455 0.000000 0.000000 0.000000
# 2 0.000285 0.008717 -0.000684 0.000000 0.000000 0.000000
# 3 -0.000455 -0.000684 0.003773 0.000000 0.000000 0.000000
# 4 0.000000 0.000000 0.000000 0.044025 0.000000 0.000000
# 5 0.000000 0.000000 0.000000 0.000000 0.017195 0.000000
# 6 0.000000 0.000000 0.000000 0.000000 0.000000 -0.017961
#
#
# Mechanical properties :
#
#
# Convention : Reuss Voigt Hill
#
# Bulk Modulus (GPa) = 59.42860 69.66077 64.54469
# Shear Modulus (GPa) = 72.34403 39.60315 55.97359
#
# Velocity S-wave (km/s) = 5.36540 3.96977 4.71946
# Velocity P-wave (km/s) = 7.87600 6.98082 7.44189
#
# Compressibility (1/GPa) = 0.01682692
#
# Stress axis : x y z
#
# Youngs Moduli (GPa) = 165.38634 114.71210 265.03407
#
# Poissons Ratio (x) = -0.03264 0.12062
# Poissons Ratio (y) = -0.04706 0.18141
# Poissons Ratio (z) = 0.07527 0.07852
#
# Static dielectric constant tensor:
#      x y z
#    x 2.018380 0.000000 0.000000 
#    y 0.000000 2.035420 0.000000 
#    z 0.000000 0.000000 2.117100 
# 
# From -- ./inp_files/967.got.cif
#   From: 2010.05.17/outbox.cif.g08.bks.cpg/sg68_1_cif.got.tgz:967.got - 2010.06.03 18:57:09.
