data_PCOD9505388
_publ_section_title
;
Structure prediction by ZEFSAII (Michael W. Deem and Ramdas Pophale) SiO2 
 PCOD9505388
Probable space group: C C C A
;
_chemical_formula_sum "Si O2"
_cell_formula_units_Z 108
_cell_length_a 31.214039
_cell_length_b 26.848984
_cell_length_c 5.621298
_cell_angle_alpha 90.000000
_cell_angle_beta 90.000000
_cell_angle_gamma 90.000000
_cell_volume 4711.014422
_symmetry_space_group_name_H-M "C C C A"
_symmetry_group_IT_number 68
_space_group.IT_coordinate_system_code '2'
_symmetry_cell_setting 'orthorhombic'
loop_
_space_group_symop_operation_xyz
x,y,z
-x,1/2-y,z
x,1/2-y,1/2-z
-x,y,1/2-z
-x,-y,-z
x,1/2+y,-z
-x,1/2+y,1/2+z
x,-y,1/2+z
1/2+x,1/2+y,z
1/2-x,-y,z
1/2+x,-y,1/2-z
1/2-x,1/2+y,1/2-z
1/2-x,1/2-y,-z
1/2+x,y,-z
1/2-x,y,1/2+z
1/2+x,1/2-y,1/2+z
loop_
_atom_site_type_symbol
_atom_site_label
_atom_site_fract_x
_atom_site_fract_y
_atom_site_fract_z
Si Si1 0.766484 0.192565 0.502462
Si Si2 0.137918 0.471387 0.295747
Si Si3 0.946259 0.338821 0.081249
Si Si4 0.047047 0.430421 0.149829
Si Si5 0.000000 0.587703 0.250000
Si Si6 0.864544 0.218988 0.502279
Si Si7 0.000000 0.250000 0.250000
Si Si8 0.232608 0.941967 0.744486
O O1 0.750000 0.250000 0.500000
O O2 0.751258 0.171533 0.249904
O O3 0.817396 0.196233 0.508134
O O4 0.141282 0.492860 0.563082
O O5 0.090278 0.449296 0.265350
O O6 0.181030 0.438923 0.265296
O O7 0.947839 0.369991 0.327601
O O8 0.898974 0.325158 0.004267
O O9 0.970486 0.286640 0.099284
O O10 0.971927 0.376131 0.914090
O O11 0.000000 0.444354 0.250000
O O12 0.037324 0.443755 0.877635
O O13 0.869028 0.250000 0.250000
O O14 0.870440 0.250000 0.750000
O O15 0.250754 0.922098 0.495954
O O16 0.250000 0.000000 0.745421
#
# Coordination Sequence:
#
# PCOD9505388 Si02
#       8
#    16  16  16  16   8  16   4  16
#     4  10  16  32  51  77 111 155 187 247 313 367
#     4  12  24  39  71 106 130 180 231 264 320 407
#     4  11  25  40  62  91 125 164 212 278 331 386
#     4  10  25  47  62  89 137 177 214 279 343 384
#     4  10  22  47  62  79 126 182 199 266 354 381
#     4  12  23  34  57  93 117 147 209 263 306 380
#     4  12  20  42  64  90 114 164 232 260 326 400
#     4  10  16  34  59  99 138 165 212 274 322 364
#
# _framework density 22.925000000000001
#
# number of rings (size 3 to 8) (size 9 to 14) (size 15 to 20)
#    0.000    1.185    8.889    0.000    8.296    0.593 
#    0.000    0.000    0.000    1.778    0.000    0.000 
#    0.000    0.000    0.000    0.000    0.000    0.000 
#
# Total GULP energy -301143.129768 kJ/mol
# GULP energy per Si atom -5576.724625 kJ/mol
# Density = 2.287282 g / cm^3
# Si number density = 22.925000 Si / 1000 Ang^3
#
#
#
# Elastic Constant Matrix: (Units=GPa)
#
#
# Indices 1 2 3 4 5 6 
#
# 1 199.4513 23.9075 33.8524 0.0000 0.0000 0.0000
# 2 23.9075 50.5389 29.0420 0.0000 0.0000 0.0000
# 3 33.8524 29.0420 151.4005 0.0000 0.0000 0.0000
# 4 0.0000 0.0000 0.0000 31.2808 0.0000 0.0000
# 5 0.0000 0.0000 0.0000 0.0000 36.1914 0.0000
# 6 0.0000 0.0000 0.0000 0.0000 0.0000 -5.5934
#
#
#
# Elastic Compliance Matrix: (Units=1/GPa)
#
#
# Indices 1 2 3 4 5 6 
#
# 1 0.005401 -0.002092 -0.000806 0.000000 0.000000 0.000000
# 2 -0.002092 0.023048 -0.003953 0.000000 0.000000 0.000000
# 3 -0.000806 -0.003953 0.007544 0.000000 0.000000 0.000000
# 4 0.000000 0.000000 0.000000 0.031969 0.000000 0.000000
# 5 0.000000 0.000000 0.000000 0.000000 0.027631 0.000000
# 6 0.000000 0.000000 0.000000 0.000000 0.000000 -0.178781
#
#
# Mechanical properties :
#
#
# Convention : Reuss Voigt Hill
#
# Bulk Modulus (GPa) = 44.86342 63.88827 54.37584
# Shear Modulus (GPa) = -80.57296 33.34834 -23.61231
#
# Velocity S-wave (km/s) = -5.93487 3.81815 -3.21281
# Velocity P-wave (km/s) = 5.22985 6.88234 3.16348
#
# Compressibility (1/GPa) = 0.02228988
#
# Stress axis : x y z
#
# Youngs Moduli (GPa) = 185.13855 43.38766 132.56126
#
# Poissons Ratio (x) = 0.09075 0.10691
# Poissons Ratio (y) = 0.38725 0.52407
# Poissons Ratio (z) = 0.14931 0.17153
#
# Static dielectric constant tensor:
#      x y z
#    x 1.737260 0.000000 0.000000 
#    y 0.000000 1.899420 0.000000 
#    z 0.000000 0.000000 2.120250 
# 
# From -- ./inp_files/2968.got.cif
#   From: 2010.05.17/outbox.cif.g08.bks.cpg/sg68_2_cif.got.tgz:2968.got - 2010.06.03 18:57:09.
