data_PCOD9505104
_publ_section_title
;
Structure prediction by ZEFSAII (Michael W. Deem and Ramdas Pophale) SiO2 
 PCOD9505104
Probable space group: C M M A
;
_chemical_formula_sum "Si O2"
_cell_formula_units_Z 80
_cell_length_a 14.184259
_cell_length_b 28.743567
_cell_length_c 7.199525
_cell_angle_alpha 90.000000
_cell_angle_beta 90.000000
_cell_angle_gamma 90.000000
_cell_volume 2935.290972
_symmetry_space_group_name_H-M "C M M A"
_symmetry_group_IT_number 67
_symmetry_cell_setting 'orthorhombic'
loop_
_space_group_symop_operation_xyz
x,y,z
-x,1/2-y,z
x,-y,-z
-x,1/2+y,-z
-x,-y,-z
x,1/2+y,-z
-x,y,z
x,1/2-y,z
1/2+x,1/2+y,z
1/2-x,-y,z
1/2+x,1/2-y,-z
1/2-x,y,-z
1/2-x,1/2-y,-z
1/2+x,y,-z
1/2-x,1/2+y,z
1/2+x,-y,z
loop_
_atom_site_type_symbol
_atom_site_label
_atom_site_fract_x
_atom_site_fract_y
_atom_site_fract_z
Si Si1 0.639763 0.349278 0.951728
Si Si2 0.638425 0.948283 0.046450
Si Si3 0.112696 0.250000 0.500542
Si Si4 0.140250 0.750000 0.945992
Si Si5 0.609243 0.051454 0.518793
Si Si6 0.887096 0.849823 0.505081
O O1 0.602709 0.398497 0.029740
O O2 0.601023 0.299363 0.015250
O O3 0.628166 0.348624 0.727995
O O4 0.750000 0.349306 0.000000
O O5 0.615853 0.942907 0.261757
O O6 0.750000 0.949564 0.000000
O O7 0.602745 0.000000 0.000000
O O8 0.128504 0.250000 0.277602
O O9 0.149671 0.300203 0.570683
O O10 0.000000 0.250000 0.529318
O O11 0.250000 0.750000 0.000000
O O12 0.500000 0.048521 0.456450
O O13 0.650062 0.099721 0.437093
O O14 0.651086 0.000000 0.500000
O O15 0.000000 0.850775 0.477523
#
# Coordination Sequence:
#
# PCOD9505104 Si02
#       6
#    16  16   8   8  16  16
#     4   8  13  21  34  52  77 105 135 171 210 252
#     4   9  17  29  43  62  88 117 147 181 220 262
#     4   8  12  18  30  50  77 106 134 167 207 249
#     4   8  12  18  30  50  73 100 132 167 207 249
#     4   9  17  29  45  65  89 117 149 184 221 262
#     4   8  13  21  34  54  80 108 138 172 210 252
#
# _framework density 27.254539000000001
#
# number of rings (size 3 to 8) (size 9 to 14) (size 15 to 20)
#    0.000    3.600    0.000    0.000    0.000    0.400 
#    0.000    2.000    0.000    0.000    0.000    1.400 
#    0.000    0.000    0.000   88.600    0.000    5.200 
#
# Total GULP energy -223023.007879 kJ/mol
# GULP energy per Si atom -5575.575197 kJ/mol
# Density = 2.719251 g / cm^3
# Si number density = 27.254539 Si / 1000 Ang^3
#
#
#
# Elastic Constant Matrix: (Units=GPa)
#
#
# Indices 1 2 3 4 5 6 
#
# 1 153.2719 19.6768 -23.4918 0.0000 0.0000 0.0000
# 2 19.6768 450.0966 11.1280 0.0000 0.0000 0.0000
# 3 -23.4918 11.1280 93.9406 0.0000 0.0000 0.0000
# 4 0.0000 0.0000 0.0000 6.8482 0.0000 0.0000
# 5 0.0000 0.0000 0.0000 0.0000 19.7041 0.0000
# 6 0.0000 0.0000 0.0000 0.0000 0.0000 -39.7279
#
#
#
# Elastic Compliance Matrix: (Units=1/GPa)
#
#
# Indices 1 2 3 4 5 6 
#
# 1 0.006837 -0.000342 0.001750 0.000000 0.000000 0.000000
# 2 -0.000342 0.002245 -0.000352 0.000000 0.000000 0.000000
# 3 0.001750 -0.000352 0.011124 0.000000 0.000000 0.000000
# 4 0.000000 0.000000 0.000000 0.146024 0.000000 0.000000
# 5 0.000000 0.000000 0.000000 0.000000 0.050751 0.000000
# 6 0.000000 0.000000 0.000000 0.000000 0.000000 -0.025171
#
#
# Mechanical properties :
#
#
# Convention : Reuss Voigt Hill
#
# Bulk Modulus (GPa) = 44.80458 79.10391 61.95425
# Shear Modulus (GPa) = 25.36311 43.36462 34.36386
#
# Velocity S-wave (km/s) = 3.05389 3.99318 3.55470
# Velocity P-wave (km/s) = 5.37680 7.09562 6.29515
#
# Compressibility (1/GPa) = 0.02231915
#
# Stress axis : x y z
#
# Youngs Moduli (GPa) = 146.27332 445.35615 89.89311
#
# Poissons Ratio (x) = 0.15237 -0.15733
# Poissons Ratio (y) = 0.05005 0.03160
# Poissons Ratio (z) = -0.25600 0.15656
#
# Static dielectric constant tensor:
#      x y z
#    x 2.039770 0.000000 0.000000 
#    y 0.000000 2.290530 0.000000 
#    z 0.000000 0.000000 2.093430 
# 
# From -- ./inp_files/10157.got.cif
#   From: 2010.05.17/outbox.cif.g08.bks.cpg/sg67_6_cif.got.tgz:10157.got - 2010.06.03 18:28:57.
