data_PCOD9505606
_publ_section_title
;
Structure prediction by ZEFSAII (Michael W. Deem and Ramdas Pophale) SiO2 
 PCOD9505606
Probable space group: C C C A
;
_chemical_formula_sum "Si O2"
_cell_formula_units_Z 80
_cell_length_a 19.092748
_cell_length_b 5.564055
_cell_length_c 31.217872
_cell_angle_alpha 90.000000
_cell_angle_beta 90.000000
_cell_angle_gamma 90.000000
_cell_volume 3316.371317
_symmetry_space_group_name_H-M "C C C A"
_symmetry_group_IT_number 68
_space_group.IT_coordinate_system_code '2'
_symmetry_cell_setting 'orthorhombic'
loop_
_space_group_symop_operation_xyz
x,y,z
-x,1/2-y,z
x,1/2-y,1/2-z
-x,y,1/2-z
-x,-y,-z
x,1/2+y,-z
-x,1/2+y,1/2+z
x,-y,1/2+z
1/2+x,1/2+y,z
1/2-x,-y,z
1/2+x,-y,1/2-z
1/2-x,1/2+y,1/2-z
1/2-x,1/2-y,-z
1/2+x,y,-z
1/2-x,y,1/2+z
1/2+x,1/2-y,1/2+z
loop_
_atom_site_type_symbol
_atom_site_label
_atom_site_fract_x
_atom_site_fract_y
_atom_site_fract_z
Si Si1 0.580857 0.807209 0.515319
Si Si2 0.330488 0.997793 0.233363
Si Si3 0.354729 0.017552 0.632948
Si Si4 0.629023 0.976899 0.605969
Si Si5 0.495128 0.000449 0.327694
O O1 0.500000 0.750000 0.503717
O O2 0.611128 0.533389 0.512254
O O3 0.587282 0.917751 0.562742
O O4 0.362743 0.750000 0.250000
O O5 0.331212 0.978779 0.182238
O O6 0.360823 0.250000 0.250000
O O7 0.250000 0.000000 0.249536
O O8 0.337292 0.259468 0.607213
O O9 0.327910 0.766737 0.613784
O O10 0.440422 0.002840 0.637715
O O11 0.576839 0.993919 0.646387
O O12 0.500000 0.250000 0.303505
O O13 0.500000 0.750000 0.303909
#
# Coordination Sequence:
#
# PCOD9505606 Si02
#       5
#    16  16  16  16  16
#     4  10  19  28  41  65 100 138 170 201 238 277
#     4  10  21  37  55  75  99 122 148 195 257 306
#     4  10  18  30  51  70  91 126 164 195 236 289
#     4  10  18  30  47  69  98 132 167 199 232 276
#     4   8  15  25  42  62  87 120 157 187 218 262
#
# _framework density 24.12275
#
# number of rings (size 3 to 8) (size 9 to 14) (size 15 to 20)
#    0.000    2.400    0.000    4.200    0.000    5.600 
#    0.000    0.000    0.000   32.400    0.000    0.000 
#    0.000   16.000    0.000    0.000    0.000    0.000 
#
# Total GULP energy -222897.582611 kJ/mol
# GULP energy per Si atom -5572.439565 kJ/mol
# Density = 2.406785 g / cm^3
# Si number density = 24.122750 Si / 1000 Ang^3
#
#
#
# Elastic Constant Matrix: (Units=GPa)
#
#
# Indices 1 2 3 4 5 6 
#
# 1 60.0597 8.6097 -1.9931 0.0000 0.0000 0.0000
# 2 8.6097 348.7902 54.8267 0.0000 0.0000 0.0000
# 3 -1.9931 54.8267 67.5285 0.0000 0.0000 0.0000
# 4 0.0000 0.0000 0.0000 -29.7657 0.0000 0.0000
# 5 0.0000 0.0000 0.0000 0.0000 -36.6440 0.0000
# 6 0.0000 0.0000 0.0000 0.0000 0.0000 -19.7514
#
#
#
# Elastic Compliance Matrix: (Units=1/GPa)
#
#
# Indices 1 2 3 4 5 6 
#
# 1 0.016762 -0.000563 0.000952 0.000000 0.000000 0.000000
# 2 -0.000563 0.003305 -0.002700 0.000000 0.000000 0.000000
# 3 0.000952 -0.002700 0.017029 0.000000 0.000000 0.000000
# 4 0.000000 0.000000 0.000000 -0.033596 0.000000 0.000000
# 5 0.000000 0.000000 0.000000 0.000000 -0.027290 0.000000
# 6 0.000000 0.000000 0.000000 0.000000 0.000000 -0.050629
#
#
# Mechanical properties :
#
#
# Convention : Reuss Voigt Hill
#
# Bulk Modulus (GPa) = 30.79400 66.58500 48.68950
# Shear Modulus (GPa) = -84.78875 10.43014 -37.17930
#
# Velocity S-wave (km/s) = -5.93508 2.08163 -3.93014
# Velocity P-wave (km/s) = 5.84582 5.78274 0.60564
#
# Compressibility (1/GPa) = 0.03247386
#
# Stress axis : x y z
#
# Youngs Moduli (GPa) = 59.65711 302.53262 58.72306
#
# Poissons Ratio (x) = 0.17046 -0.05592
# Poissons Ratio (y) = 0.03361 0.15857
# Poissons Ratio (z) = -0.05681 0.81694
#
# Static dielectric constant tensor:
#      x y z
#    x 1.936900 0.000000 0.000000 
#    y 0.000000 2.095480 0.000000 
#    z 0.000000 0.000000 1.867890 
# 
# From -- ./inp_files/48433.got.cif
#   From: 2010.05.17/outbox.cif.g08.bks.cpg/sg68_25_cif.got.tgz:48433.got - 2010.06.03 18:57:09.
