data_PCOD9505268
_publ_section_title
;
Structure prediction by ZEFSAII (Michael W. Deem and Ramdas Pophale) SiO2 
 PCOD9505268
Probable space group: C M M A
;
_chemical_formula_sum "Si O2"
_cell_formula_units_Z 36
_cell_length_a 9.000000
_cell_length_b 15.000000
_cell_length_c 27.000000
_cell_angle_alpha 90.000000
_cell_angle_beta 90.000000
_cell_angle_gamma 90.000000
_cell_volume 3645.000000
_symmetry_space_group_name_H-M "C M M A"
_symmetry_group_IT_number 67
_symmetry_cell_setting 'orthorhombic'
loop_
_space_group_symop_operation_xyz
x,y,z
-x,1/2-y,z
x,-y,-z
-x,1/2+y,-z
-x,-y,-z
x,1/2+y,-z
-x,y,z
x,1/2-y,z
1/2+x,1/2+y,z
1/2-x,-y,z
1/2+x,1/2-y,-z
1/2-x,y,-z
1/2-x,1/2-y,-z
1/2+x,y,-z
1/2-x,1/2+y,z
1/2+x,-y,z
loop_
_atom_site_type_symbol
_atom_site_label
_atom_site_fract_x
_atom_site_fract_y
_atom_site_fract_z
Si Si1 0.819317 0.599517 0.637329
Si Si2 0.821952 0.250000 0.444734
Si Si3 0.819868 0.597876 0.260127
Si Si4 0.331678 0.145788 0.844673
Si Si5 0.680587 0.901396 0.949365
O O1 0.750000 0.500000 0.629559
O O2 0.786492 0.664048 0.590423
O O3 0.747583 0.638440 0.688676
O O4 0.000000 0.593770 0.643111
O O5 0.750000 0.250000 0.500000
O O6 0.000000 0.250000 0.451696
O O7 0.750000 0.500000 0.263821
O O8 0.758175 0.626766 0.206117
O O9 0.000000 0.600831 0.260938
O O10 0.500000 0.102929 0.845396
O O11 0.354168 0.250000 0.843748
O O12 0.240045 0.129574 0.895483
O O13 0.500000 0.899418 0.951625
O O14 0.750000 0.000000 0.950619
O O15 0.750000 0.858155 0.000000
#
# Coordination Sequence:
#
# PCOD9505268 Si02
#       5
#    16   8  16  16  16
#     4  10  21  40  63  92 125 166 210 258 313 370
#     4  10  24  42  64  92 128 168 211 256 311 368
#     4  11  22  38  61  89 119 155 198 246 298 358
#     4  11  24  40  58  83 117 155 193 240 297 355
#     4  11  22  39  62  85 112 147 193 242 292 353
#
# _framework density 9.8765429999999999
#
# number of rings (size 3 to 8) (size 9 to 14) (size 15 to 20)
#    0.000    1.333    0.000    8.000    1.556    4.444 
#    0.000    2.222    0.000    0.000    0.000    0.000 
#    0.000    0.000    0.000    0.000    0.000    0.000 
#
# Total GULP energy -200626.391628 kJ/mol
# GULP energy per Si atom -5572.955323 kJ/mol
# Density = 0.985406 g / cm^3
# Si number density = 9.876543 Si / 1000 Ang^3
#
#
#
# Elastic Constant Matrix: (Units=GPa)
#
#
# Indices 1 2 3 4 5 6 
#
# 1 204.8746 33.3788 101.9465 0.0000 0.0000 0.0000
# 2 33.3788 82.0275 60.2372 0.0000 0.0000 0.0000
# 3 101.9465 60.2372 247.5247 0.0000 0.0000 0.0000
# 4 0.0000 0.0000 0.0000 77.1416 0.0000 0.0000
# 5 0.0000 0.0000 0.0000 0.0000 58.3908 0.0000
# 6 0.0000 0.0000 0.0000 0.0000 0.0000 18.6986
#
#
#
# Elastic Compliance Matrix: (Units=1/GPa)
#
#
# Indices 1 2 3 4 5 6 
#
# 1 0.006181 -0.000786 -0.002354 0.000000 0.000000 0.000000
# 2 -0.000786 0.014944 -0.003313 0.000000 0.000000 0.000000
# 3 -0.002354 -0.003313 0.005816 0.000000 0.000000 0.000000
# 4 0.000000 0.000000 0.000000 0.012963 0.000000 0.000000
# 5 0.000000 0.000000 0.000000 0.000000 0.017126 0.000000
# 6 0.000000 0.000000 0.000000 0.000000 0.000000 0.053480
#
#
# Mechanical properties :
#
#
# Convention : Reuss Voigt Hill
#
# Bulk Modulus (GPa) = 71.25750 102.83908 87.04829
# Shear Modulus (GPa) = 39.03389 53.43715 46.23552
#
# Velocity S-wave (km/s) = 4.45015 5.20685 4.84330
# Velocity P-wave (km/s) = 7.90933 9.39807 8.68565
#
# Compressibility (1/GPa) = 0.01403361
#
# Stress axis : x y z
#
# Youngs Moduli (GPa) = 161.79653 66.91743 171.94392
#
# Poissons Ratio (x) = 0.05261 0.40480
# Poissons Ratio (y) = 0.12720 0.56963
# Poissons Ratio (z) = 0.38091 0.22169
#
# Static dielectric constant tensor:
#      x y z
#    x 1.703370 0.000000 0.000000 
#    y 0.000000 1.816330 0.000000 
#    z 0.000000 0.000000 1.782960 
# 
# From -- ./inp_files/43106.got.cif
#   From: 2010.05.17/outbox.ucp.g08.bks.cvg/sg67_22_cif.got.tgz:43106.got - 2010.06.11 16:47:20.
