data_PCOD9505131
_publ_section_title
;
Structure prediction by ZEFSAII (Michael W. Deem and Ramdas Pophale) SiO2 
 PCOD9505131
Probable space group: C M M A
;
_chemical_formula_sum "Si O2"
_cell_formula_units_Z 52
_cell_length_a 13.950395
_cell_length_b 29.764660
_cell_length_c 5.256761
_cell_angle_alpha 90.000000
_cell_angle_beta 90.000000
_cell_angle_gamma 90.000000
_cell_volume 2182.758373
_symmetry_space_group_name_H-M "C M M A"
_symmetry_group_IT_number 67
_symmetry_cell_setting 'orthorhombic'
loop_
_space_group_symop_operation_xyz
x,y,z
-x,1/2-y,z
x,-y,-z
-x,1/2+y,-z
-x,-y,-z
x,1/2+y,-z
-x,y,z
x,1/2-y,z
1/2+x,1/2+y,z
1/2-x,-y,z
1/2+x,1/2-y,-z
1/2-x,y,-z
1/2-x,1/2-y,-z
1/2+x,y,-z
1/2-x,1/2+y,z
1/2+x,-y,z
loop_
_atom_site_type_symbol
_atom_site_label
_atom_site_fract_x
_atom_site_fract_y
_atom_site_fract_z
Si Si1 0.885470 0.296814 0.881908
Si Si2 0.615737 0.104147 0.013725
Si Si3 0.883740 0.448254 0.480569
Si Si4 0.250000 0.250000 0.500000
O O1 0.868043 0.250000 0.043048
O O2 0.859265 0.343435 0.009555
O O3 0.820678 0.288223 0.636235
O O4 0.000000 0.298227 0.824590
O O5 0.500000 0.103027 0.008897
O O6 0.644035 0.082137 0.280169
O O7 0.648698 0.074243 0.780088
O O8 0.854504 0.500000 0.500000
O O9 0.000000 0.448502 0.477841
#
# Coordination Sequence:
#
# PCOD9505131 Si02
#       4
#    16  16  16   4
#     4   8  15  28  48  75 108 149 200 249 298 359
#     4   9  16  27  44  69 102 141 184 232 285 341
#     4   9  16  26  43  69 102 139 181 228 280 342
#     4   8  14  28  52  72 106 150 198 250 304 356
#
# _framework density 23.823070000000001
#
# number of rings (size 3 to 8) (size 9 to 14) (size 15 to 20)
#    0.923    2.462    0.000    0.923    0.000    3.692 
#    0.000    1.538    0.000   12.923    0.000    1.077 
#    0.000    4.923    0.000    1.846    0.000   20.615 
#
# Total GULP energy -144734.703119 kJ/mol
# GULP energy per Si atom -5566.719351 kJ/mol
# Density = 2.376885 g / cm^3
# Si number density = 23.823070 Si / 1000 Ang^3
#
#
#
# Elastic Constant Matrix: (Units=GPa)
#
#
# Indices 1 2 3 4 5 6 
#
# 1 184.5503 51.7065 29.0003 0.0000 0.0000 0.0000
# 2 51.7065 313.8598 153.3741 0.0000 0.0000 0.0000
# 3 29.0003 153.3741 176.4959 0.0000 0.0000 0.0000
# 4 0.0000 0.0000 0.0000 15.7906 0.0000 0.0000
# 5 0.0000 0.0000 0.0000 0.0000 -2.9319 0.0000
# 6 0.0000 0.0000 0.0000 0.0000 0.0000 -44.1108
#
#
#
# Elastic Compliance Matrix: (Units=1/GPa)
#
#
# Indices 1 2 3 4 5 6 
#
# 1 0.005685 -0.000834 -0.000209 0.000000 0.000000 0.000000
# 2 -0.000834 0.005660 -0.004782 0.000000 0.000000 0.000000
# 3 -0.000209 -0.004782 0.009855 0.000000 0.000000 0.000000
# 4 0.000000 0.000000 0.000000 0.063329 0.000000 0.000000
# 5 0.000000 0.000000 0.000000 0.000000 -0.341081 0.000000
# 6 0.000000 0.000000 0.000000 0.000000 0.000000 -0.022670
#
#
# Mechanical properties :
#
#
# Convention : Reuss Voigt Hill
#
# Bulk Modulus (GPa) = 104.70440 127.00753 115.85597
# Shear Modulus (GPa) = -18.91161 23.13793 2.11316
#
# Velocity S-wave (km/s) = -2.82057 3.11985 0.94284
# Velocity P-wave (km/s) = 5.78263 8.14902 7.06560
#
# Compressibility (1/GPa) = 0.00955070
#
# Stress axis : x y z
#
# Youngs Moduli (GPa) = 175.89470 176.67074 101.46729
#
# Poissons Ratio (x) = 0.14743 0.02121
# Poissons Ratio (y) = 0.14678 0.48518
# Poissons Ratio (z) = 0.03676 0.84477
#
# Static dielectric constant tensor:
#      x y z
#    x 2.022950 0.000000 0.000000 
#    y 0.000000 1.886500 0.000000 
#    z 0.000000 0.000000 -0.551860 
# 
# From -- ./inp_files/2138.got.cif
#   From: 2010.05.17/outbox.cif.g08.bks.cpg/sg67_2_cif.got.tgz:2138.got - 2010.06.03 18:28:57.
