data_PCOD9505105
_publ_section_title
;
Structure prediction by ZEFSAII (Michael W. Deem and Ramdas Pophale) SiO2 
 PCOD9505105
Probable space group: C M M A
;
_chemical_formula_sum "Si O2"
_cell_formula_units_Z 96
_cell_length_a 14.331748
_cell_length_b 14.457850
_cell_length_c 21.329949
_cell_angle_alpha 90.000000
_cell_angle_beta 90.000000
_cell_angle_gamma 90.000000
_cell_volume 4419.699018
_symmetry_space_group_name_H-M "C M M A"
_symmetry_group_IT_number 67
_symmetry_cell_setting 'orthorhombic'
loop_
_space_group_symop_operation_xyz
x,y,z
-x,1/2-y,z
x,-y,-z
-x,1/2+y,-z
-x,-y,-z
x,1/2+y,-z
-x,y,z
x,1/2-y,z
1/2+x,1/2+y,z
1/2-x,-y,z
1/2+x,1/2-y,-z
1/2-x,y,-z
1/2-x,1/2-y,-z
1/2+x,y,-z
1/2-x,1/2+y,z
1/2+x,-y,z
loop_
_atom_site_type_symbol
_atom_site_label
_atom_site_fract_x
_atom_site_fract_y
_atom_site_fract_z
Si Si1 0.614032 0.645191 0.967986
Si Si2 0.887665 0.358775 0.220890
Si Si3 0.855141 0.391815 0.487536
Si Si4 0.902262 0.644639 0.378003
Si Si5 0.304632 0.138593 0.647342
Si Si6 0.613979 0.041477 0.904788
O O1 0.500000 0.647047 0.966512
O O2 0.646151 0.750000 0.956099
O O3 0.643692 0.563325 0.920821
O O4 0.640492 0.608107 0.037176
O O5 0.863910 0.250000 0.211638
O O6 0.846007 0.391749 0.286772
O O7 0.855506 0.418094 0.161461
O O8 0.000000 0.363772 0.224498
O O9 0.861600 0.500000 0.500000
O O10 0.750000 0.358997 0.500000
O O11 0.906712 0.349724 0.546480
O O12 0.869139 0.378802 0.413749
O O13 0.900965 0.750000 0.353563
O O14 0.801328 0.601371 0.362735
O O15 0.000000 0.599961 0.356311
O O16 0.297528 0.250000 0.649455
O O17 0.500000 0.041227 0.904527
#
# Coordination Sequence:
#
# PCOD9505105 Si02
#       6
#    16  16  16  16  16  16
#     4   8  12  18  30  50  79 118 166 217 262 304
#     4   9  16  25  38  57  84 121 164 211 265 321
#     4   9  17  29  45  66  92 120 153 198 249 300
#     4   9  17  29  45  64  88 121 159 200 249 304
#     4   9  17  29  44  64  91 122 159 204 255 312
#     4   8  13  20  31  51  81 119 166 217 263 308
#
# _framework density 21.720935999999998
#
# number of rings (size 3 to 8) (size 9 to 14) (size 15 to 20)
#    0.000    3.333    0.000    2.000    0.000    5.000 
#    0.000    1.667    0.000    0.000    0.000    2.333 
#    0.000    5.333    0.000    3.667    0.000   63.833 
#
# Total GULP energy -267561.003779 kJ/mol
# GULP energy per Si atom -5574.187579 kJ/mol
# Density = 2.167150 g / cm^3
# Si number density = 21.720936 Si / 1000 Ang^3
#
#
#
# Elastic Constant Matrix: (Units=GPa)
#
#
# Indices 1 2 3 4 5 6 
#
# 1 54.4313 19.9630 24.7151 0.0000 0.0000 0.0000
# 2 19.9630 113.9840 64.4208 0.0000 0.0000 0.0000
# 3 24.7151 64.4208 176.6700 0.0000 0.0000 0.0000
# 4 0.0000 0.0000 0.0000 31.6537 0.0000 0.0000
# 5 0.0000 0.0000 0.0000 0.0000 22.1275 0.0000
# 6 0.0000 0.0000 0.0000 0.0000 0.0000 13.2988
#
#
#
# Elastic Compliance Matrix: (Units=1/GPa)
#
#
# Indices 1 2 3 4 5 6 
#
# 1 0.020142 -0.002437 -0.001929 0.000000 0.000000 0.000000
# 2 -0.002437 0.011345 -0.003796 0.000000 0.000000 0.000000
# 3 -0.001929 -0.003796 0.007314 0.000000 0.000000 0.000000
# 4 0.000000 0.000000 0.000000 0.031592 0.000000 0.000000
# 5 0.000000 0.000000 0.000000 0.000000 0.045193 0.000000
# 6 0.000000 0.000000 0.000000 0.000000 0.000000 0.075195
#
#
# Mechanical properties :
#
#
# Convention : Reuss Voigt Hill
#
# Bulk Modulus (GPa) = 44.49062 62.58699 53.53880
# Shear Modulus (GPa) = 23.29943 29.14842 26.22392
#
# Velocity S-wave (km/s) = 3.27872 3.66724 3.47841
# Velocity P-wave (km/s) = 5.90429 6.84165 6.39018
#
# Compressibility (1/GPa) = 0.02247665
#
# Stress axis : x y z
#
# Youngs Moduli (GPa) = 49.64864 88.14097 136.71854
#
# Poissons Ratio (x) = 0.21483 0.26372
# Poissons Ratio (y) = 0.12101 0.51899
# Poissons Ratio (z) = 0.09577 0.33459
#
# Static dielectric constant tensor:
#      x y z
#    x 1.871740 0.000000 0.000000 
#    y 0.000000 1.816410 0.000000 
#    z 0.000000 0.000000 1.759490 
# 
# From -- ./inp_files/38460.got.cif
#   From: 2010.05.17/outbox.cif.g08.bks.cpg/sg67_20_cif.got.tgz:38460.got - 2010.06.03 18:28:57.
