data_PCOD9505587
_publ_section_title
;
Structure prediction by ZEFSAII (Michael W. Deem and Ramdas Pophale) SiO2 
 PCOD9505587
Probable space group: C C C A
;
_chemical_formula_sum "Si O2"
_cell_formula_units_Z 80
_cell_length_a 31.407756
_cell_length_b 5.557180
_cell_length_c 18.224308
_cell_angle_alpha 90.000000
_cell_angle_beta 90.000000
_cell_angle_gamma 90.000000
_cell_volume 3180.844357
_symmetry_space_group_name_H-M "C C C A"
_symmetry_group_IT_number 68
_space_group.IT_coordinate_system_code '2'
_symmetry_cell_setting 'orthorhombic'
loop_
_space_group_symop_operation_xyz
x,y,z
-x,1/2-y,z
x,1/2-y,1/2-z
-x,y,1/2-z
-x,-y,-z
x,1/2+y,-z
-x,1/2+y,1/2+z
x,-y,1/2+z
1/2+x,1/2+y,z
1/2-x,-y,z
1/2+x,-y,1/2-z
1/2-x,1/2+y,1/2-z
1/2-x,1/2-y,-z
1/2+x,y,-z
1/2-x,y,1/2+z
1/2+x,1/2-y,1/2+z
loop_
_atom_site_type_symbol
_atom_site_label
_atom_site_fract_x
_atom_site_fract_y
_atom_site_fract_z
Si Si1 0.119522 0.250000 0.750000
Si Si2 0.882039 0.250000 0.250000
Si Si3 0.546359 0.728043 0.375442
Si Si4 0.832681 0.530750 0.073131
Si Si5 0.200320 0.480041 0.091438
Si Si6 0.575978 0.716300 0.591525
O O1 0.143000 0.502694 0.749550
O O2 0.089557 0.236770 0.677939
O O3 0.914511 0.256471 0.318771
O O4 0.500000 0.750000 0.338855
O O5 0.555769 0.480463 0.419516
O O6 0.547034 0.981946 0.418230
O O7 0.824179 0.270146 0.110039
O O8 0.880367 0.622062 0.053267
O O9 0.817752 0.764033 0.118105
O O10 0.806698 0.511341 0.997211
O O11 0.250000 0.500000 0.107800
#
# Coordination Sequence:
#
# PCOD9505587 Si02
#       6
#     8   8  16  16  16  16
#     4   8  16  28  41  62  96 123 155 196 221 273
#     4   8  15  26  42  60  84 119 159 202 249 271
#     4  10  18  29  43  63  91 126 165 207 237 268
#     4  10  18  30  49  74 101 124 144 184 241 292
#     4  10  19  33  53  79 100 114 142 190 245 296
#     4  10  19  30  45  69  95 127 163 191 235 281
#
# _framework density 25.150556000000002
#
# number of rings (size 3 to 8) (size 9 to 14) (size 15 to 20)
#    0.000    2.400    0.000    5.100    0.000    0.000 
#    0.000    6.000    0.000    0.000    0.000   60.200 
#    0.000    0.000    0.000    0.000    0.000    0.000 
#
# Total GULP energy -222790.703593 kJ/mol
# GULP energy per Si atom -5569.767590 kJ/mol
# Density = 2.509331 g / cm^3
# Si number density = 25.150556 Si / 1000 Ang^3
#
#
#
# Elastic Constant Matrix: (Units=GPa)
#
#
# Indices 1 2 3 4 5 6 
#
# 1 108.0069 42.5260 -12.8895 0.0000 0.0000 0.0000
# 2 42.5260 344.6248 16.2151 0.0000 0.0000 0.0000
# 3 -12.8895 16.2151 80.0975 0.0000 0.0000 0.0000
# 4 0.0000 0.0000 0.0000 -5.2094 0.0000 0.0000
# 5 0.0000 0.0000 0.0000 0.0000 645.0127 0.0000
# 6 0.0000 0.0000 0.0000 0.0000 0.0000 3.7701
#
#
#
# Elastic Compliance Matrix: (Units=1/GPa)
#
#
# Indices 1 2 3 4 5 6 
#
# 1 0.010004 -0.001323 0.001878 0.000000 0.000000 0.000000
# 2 -0.001323 0.003105 -0.000841 0.000000 0.000000 0.000000
# 3 0.001878 -0.000841 0.012957 0.000000 0.000000 0.000000
# 4 0.000000 0.000000 0.000000 -0.191962 0.000000 0.000000
# 5 0.000000 0.000000 0.000000 0.000000 0.001550 0.000000
# 6 0.000000 0.000000 0.000000 0.000000 0.000000 0.265248
#
#
# Mechanical properties :
#
#
# Convention : Reuss Voigt Hill
#
# Bulk Modulus (GPa) = 39.22757 69.38138 54.30448
# Shear Modulus (GPa) = 45.46601 161.17318 103.31959
#
# Velocity S-wave (km/s) = 4.25638 8.01389 6.41636
# Velocity P-wave (km/s) = 6.30767 10.64313 8.74823
#
# Compressibility (1/GPa) = 0.02549227
#
# Stress axis : x y z
#
# Youngs Moduli (GPa) = 99.96447 322.11106 77.17681
#
# Poissons Ratio (x) = 0.42608 -0.14491
# Poissons Ratio (y) = 0.13223 0.06493
# Poissons Ratio (z) = -0.18769 0.27101
#
# Static dielectric constant tensor:
#      x y z
#    x 2.062660 0.000000 0.000000 
#    y 0.000000 2.150930 0.000000 
#    z 0.000000 0.000000 2.048850 
# 
# From -- ./inp_files/52446.got.cif
#   From: 2010.05.17/outbox.cif.g08.bks.cpg/sg68_27_cif.got.tgz:52446.got - 2010.06.03 18:57:09.
