data_PCOD9505421
_publ_section_title
;
Structure prediction by ZEFSAII (Michael W. Deem and Ramdas Pophale) SiO2 
 PCOD9505421
Probable space group: C C C A
;
_chemical_formula_sum "Si O2"
_cell_formula_units_Z 92
_cell_length_a 13.674702
_cell_length_b 12.517324
_cell_length_c 23.648080
_cell_angle_alpha 90.000000
_cell_angle_beta 90.000000
_cell_angle_gamma 90.000000
_cell_volume 4047.857829
_symmetry_space_group_name_H-M "C C C A"
_symmetry_group_IT_number 68
_space_group.IT_coordinate_system_code '2'
_symmetry_cell_setting 'orthorhombic'
loop_
_space_group_symop_operation_xyz
x,y,z
-x,1/2-y,z
x,1/2-y,1/2-z
-x,y,1/2-z
-x,-y,-z
x,1/2+y,-z
-x,1/2+y,1/2+z
x,-y,1/2+z
1/2+x,1/2+y,z
1/2-x,-y,z
1/2+x,-y,1/2-z
1/2-x,1/2+y,1/2-z
1/2-x,1/2-y,-z
1/2+x,y,-z
1/2-x,y,1/2+z
1/2+x,1/2-y,1/2+z
loop_
_atom_site_type_symbol
_atom_site_label
_atom_site_fract_x
_atom_site_fract_y
_atom_site_fract_z
Si Si1 0.857514 0.833583 0.633429
Si Si2 0.153979 0.833010 0.411855
Si Si3 0.478136 0.001160 0.102495
Si Si4 0.500000 0.250000 0.250000
Si Si5 0.350643 0.136011 0.171974
Si Si6 0.406058 0.822746 0.032619
Si Si7 0.197594 0.250000 0.250000
O O1 0.751633 0.881793 0.616469
O O2 0.868608 0.733821 0.590012
O O3 0.858738 0.803567 0.698898
O O4 0.947807 0.910918 0.623873
O O5 0.052153 0.898098 0.403883
O O6 0.151295 0.719844 0.379851
O O7 0.164393 0.821975 0.478982
O O8 0.386535 0.027020 0.143421
O O9 0.433998 0.944910 0.046864
O O10 0.438616 0.173606 0.210925
O O11 0.261534 0.161262 0.214853
O O12 0.500000 0.750000 0.016129
#
# Coordination Sequence:
#
# PCOD9505421 Si02
#       7
#    16  16  16   4  16  16   8
#     4  10  23  43  60  89 125 164 201 254 314 364
#     4  11  20  39  64  92 124 160 200 253 309 360
#     4  11  21  39  63  93 121 158 211 248 311 368
#     4  10  16  36  56  88 116 148 210 240 296 340
#     4  10  20  37  65  89 118 158 207 253 298 362
#     4  10  22  39  62  91 128 163 202 248 305 379
#     4   9  22  45  61  82 125 160 206 257 311 364
#
# _framework density 22.728071
#
# number of rings (size 3 to 8) (size 9 to 14) (size 15 to 20)
#    0.000    1.739    1.739    2.609    0.000    1.391 
#    3.130   11.739    0.000    0.000    0.000    0.000 
#    0.000    0.000    0.000    0.000    0.000    0.000 
#
# Total GULP energy -256597.895741 kJ/mol
# GULP energy per Si atom -5578.215125 kJ/mol
# Density = 2.267634 g / cm^3
# Si number density = 22.728071 Si / 1000 Ang^3
#
#
#
# Elastic Constant Matrix: (Units=GPa)
#
#
# Indices 1 2 3 4 5 6 
#
# 1 50.6110 15.7449 28.7906 0.0000 0.0000 0.0000
# 2 15.7449 52.5165 39.5118 0.0000 0.0000 0.0000
# 3 28.7906 39.5118 174.5681 0.0000 0.0000 0.0000
# 4 0.0000 0.0000 0.0000 10.5563 0.0000 0.0000
# 5 0.0000 0.0000 0.0000 0.0000 37.6289 0.0000
# 6 0.0000 0.0000 0.0000 0.0000 0.0000 31.1534
#
#
#
# Elastic Compliance Matrix: (Units=1/GPa)
#
#
# Indices 1 2 3 4 5 6 
#
# 1 0.022775 -0.004824 -0.002664 0.000000 0.000000 0.000000
# 2 -0.004824 0.023971 -0.004630 0.000000 0.000000 0.000000
# 3 -0.002664 -0.004630 0.007216 0.000000 0.000000 0.000000
# 4 0.000000 0.000000 0.000000 0.094730 0.000000 0.000000
# 5 0.000000 0.000000 0.000000 0.000000 0.026575 0.000000
# 6 0.000000 0.000000 0.000000 0.000000 0.000000 0.032099
#
#
# Mechanical properties :
#
#
# Convention : Reuss Voigt Hill
#
# Bulk Modulus (GPa) = 33.64070 49.53223 41.58646
# Shear Modulus (GPa) = 20.70296 28.77760 24.74028
#
# Velocity S-wave (km/s) = 3.02138 3.56219 3.30287
# Velocity P-wave (km/s) = 5.19665 6.22572 5.73432
#
# Compressibility (1/GPa) = 0.02972590
#
# Stress axis : x y z
#
# Youngs Moduli (GPa) = 43.90823 41.71645 138.58407
#
# Poissons Ratio (x) = 0.20122 0.36924
# Poissons Ratio (y) = 0.21179 0.64167
# Poissons Ratio (z) = 0.11699 0.19315
#
# Static dielectric constant tensor:
#      x y z
#    x 1.873620 0.000000 0.000000 
#    y 0.000000 1.901010 0.000000 
#    z 0.000000 0.000000 1.758600 
# 
# From -- ./inp_files/39472.got.cif
#   From: 2010.05.17/outbox.cif.g08.bks.cpg/sg68_20_cif.got.tgz:39472.got - 2010.06.03 18:57:09.
