data_PCOD9505188
_publ_section_title
;
Structure prediction by ZEFSAII (Michael W. Deem and Ramdas Pophale) SiO2 
 PCOD9505188
Probable space group: C M M A
;
_chemical_formula_sum "Si O2"
_cell_formula_units_Z 40
_cell_length_a 18.000000
_cell_length_b 27.000000
_cell_length_c 9.000000
_cell_angle_alpha 90.000000
_cell_angle_beta 90.000000
_cell_angle_gamma 90.000000
_cell_volume 4374.000000
_symmetry_space_group_name_H-M "C M M A"
_symmetry_group_IT_number 67
_symmetry_cell_setting 'orthorhombic'
loop_
_space_group_symop_operation_xyz
x,y,z
-x,1/2-y,z
x,-y,-z
-x,1/2+y,-z
-x,-y,-z
x,1/2+y,-z
-x,y,z
x,1/2-y,z
1/2+x,1/2+y,z
1/2-x,-y,z
1/2+x,1/2-y,-z
1/2-x,y,-z
1/2-x,1/2-y,-z
1/2+x,y,-z
1/2-x,1/2+y,z
1/2+x,-y,z
loop_
_atom_site_type_symbol
_atom_site_label
_atom_site_fract_x
_atom_site_fract_y
_atom_site_fract_z
Si Si1 0.335729 0.250000 0.555337
Si Si2 0.910129 0.652221 0.067866
Si Si3 0.409216 0.449690 0.917216
Si Si4 0.909523 0.448517 0.426407
Si Si5 0.909783 0.153608 0.588454
Si Si6 0.909246 0.750000 0.875357
O O1 0.250000 0.250000 0.500000
O O2 0.374258 0.299439 0.491538
O O3 0.357847 0.250000 0.729587
O O4 0.887014 0.655314 0.239028
O O5 0.000000 0.649873 0.069469
O O6 0.883851 0.600683 0.996599
O O7 0.892541 0.700851 0.971881
O O8 0.500000 0.449828 0.920209
O O9 0.386690 0.448108 0.745364
O O10 0.385439 0.500000 0.000000
O O11 0.884537 0.500000 0.500000
O O12 0.887512 0.398604 0.513108
O O13 0.000000 0.448889 0.429699
O O14 0.000000 0.157083 0.579679
O O15 0.000000 0.750000 0.841514
#
# Coordination Sequence:
#
# PCOD9505188 Si02
#       6
#     8  16  16  16  16   8
#     4  12  25  38  52  74 104 136 175 218 262 312
#     4   9  17  29  49  76 101 130 169 211 253 303
#     4   9  15  23  37  64 104 139 164 198 248 301
#     4   9  16  26  45  76 109 138 168 206 253 304
#     4  10  19  34  55  77 104 137 174 214 260 312
#     4  10  19  34  55  76  99 130 171 214 260 310
#
# _framework density 9.1449470000000002
#
# number of rings (size 3 to 8) (size 9 to 14) (size 15 to 20)
#    0.000    2.400    0.000    3.900    0.000    9.600 
#    0.000    2.000    0.000    0.600    0.000    0.000 
#    0.000    1.600    0.000    0.000    0.000    0.000 
#
# Total GULP energy -223103.191340 kJ/mol
# GULP energy per Si atom -5577.579783 kJ/mol
# Density = 0.912413 g / cm^3
# Si number density = 9.144947 Si / 1000 Ang^3
#
#
#
# Elastic Constant Matrix: (Units=GPa)
#
#
# Indices 1 2 3 4 5 6 
#
# 1 17.2710 23.9524 23.9373 0.0000 0.0000 0.0000
# 2 23.9524 217.1891 122.6686 0.0000 0.0000 0.0000
# 3 23.9373 122.6686 195.7340 0.0000 0.0000 0.0000
# 4 0.0000 0.0000 0.0000 44.8279 0.0000 0.0000
# 5 0.0000 0.0000 0.0000 0.0000 5.3109 0.0000
# 6 0.0000 0.0000 0.0000 0.0000 0.0000 3.3017
#
#
#
# Elastic Compliance Matrix: (Units=1/GPa)
#
#
# Indices 1 2 3 4 5 6 
#
# 1 0.072608 -0.004632 -0.005977 0.000000 0.000000 0.000000
# 2 -0.004632 0.007422 -0.004085 0.000000 0.000000 0.000000
# 3 -0.005977 -0.004085 0.008400 0.000000 0.000000 0.000000
# 4 0.000000 0.000000 0.000000 0.022308 0.000000 0.000000
# 5 0.000000 0.000000 0.000000 0.000000 0.188292 0.000000
# 6 0.000000 0.000000 0.000000 0.000000 0.000000 0.302873
#
#
# Mechanical properties :
#
#
# Convention : Reuss Voigt Hill
#
# Bulk Modulus (GPa) = 16.93688 85.70116 51.31902
# Shear Modulus (GPa) = 7.68083 27.99716 17.83900
#
# Velocity S-wave (km/s) = 2.05149 3.91672 3.12644
# Velocity P-wave (km/s) = 3.85899 8.21055 6.41502
#
# Compressibility (1/GPa) = 0.05904275
#
# Stress axis : x y z
#
# Youngs Moduli (GPa) = 13.77264 134.72605 119.04465
#
# Poissons Ratio (x) = 0.62402 0.71151
# Poissons Ratio (y) = 0.06379 0.48633
# Poissons Ratio (z) = 0.08232 0.55040
#
# Static dielectric constant tensor:
#      x y z
#    x 1.596750 0.000000 0.000000 
#    y 0.000000 1.614040 0.000000 
#    z 0.000000 0.000000 1.638270 
# 
# From -- ./inp_files/10019.got.cif
#   From: 2010.05.17/outbox.ucp.g08.bks.cvg/sg67_6_cif.got.tgz:10019.got - 2010.06.11 16:47:20.
