data_PCOD9505718
_publ_section_title
;
Structure prediction by ZEFSAII (Michael W. Deem and Ramdas Pophale) SiO2 
 PCOD9505718
Probable space group: C C C A
;
_chemical_formula_sum "Si O2"
_cell_formula_units_Z 128
_cell_length_a 23.636895
_cell_length_b 20.727294
_cell_length_c 12.917385
_cell_angle_alpha 90.000000
_cell_angle_beta 90.000000
_cell_angle_gamma 90.000000
_cell_volume 6328.599861
_symmetry_space_group_name_H-M "C C C A"
_symmetry_group_IT_number 68
_space_group.IT_coordinate_system_code '2'
_symmetry_cell_setting 'orthorhombic'
loop_
_space_group_symop_operation_xyz
x,y,z
-x,1/2-y,z
x,1/2-y,1/2-z
-x,y,1/2-z
-x,-y,-z
x,1/2+y,-z
-x,1/2+y,1/2+z
x,-y,1/2+z
1/2+x,1/2+y,z
1/2-x,-y,z
1/2+x,-y,1/2-z
1/2-x,1/2+y,1/2-z
1/2-x,1/2-y,-z
1/2+x,y,-z
1/2-x,y,1/2+z
1/2+x,1/2-y,1/2+z
loop_
_atom_site_type_symbol
_atom_site_label
_atom_site_fract_x
_atom_site_fract_y
_atom_site_fract_z
Si Si1 0.056145 0.949672 0.133965
Si Si2 0.432681 0.249414 0.126545
Si Si3 0.443034 0.384298 0.058763
Si Si4 0.141602 0.366479 0.972156
Si Si5 0.344392 0.389136 0.706358
Si Si6 0.233009 0.425018 0.815146
Si Si7 0.135251 0.040574 0.827080
Si Si8 0.047040 0.603060 0.833499
O O1 0.097231 0.925569 0.043094
O O2 0.090620 0.935973 0.239079
O O3 0.997969 0.911026 0.119186
O O4 0.046086 0.026008 0.141196
O O5 0.500000 0.250000 0.097315
O O6 0.430737 0.250000 0.250000
O O7 0.412951 0.320550 0.098175
O O8 0.393675 0.193732 0.076972
O O9 0.393529 0.437500 0.067106
O O10 0.463568 0.367697 0.944575
O O11 0.196345 0.389292 0.904348
O O12 0.155915 0.356284 0.093243
O O13 0.288129 0.387878 0.775504
O O14 0.356573 0.464492 0.680381
O O15 0.395553 0.371976 0.782400
O O16 0.250000 0.500000 0.844421
O O17 0.193802 0.430498 0.712582
O O18 0.000000 0.615853 0.750000
#
# Coordination Sequence:
#
# PCOD9505718 Si02
#       8
#    16  16  16  16  16  16  16  16
#     4  10  18  33  56  89 122 160 200 252 324 387
#     4  11  24  39  62  92 120 159 218 266 306 378
#     4  12  21  35  59  85 125 164 207 256 320 383
#     4  11  21  39  64  86 129 170 209 267 324 375
#     4  10  21  38  59  89 125 159 206 261 326 392
#     4   9  20  36  59  94 123 159 208 259 318 384
#     4   9  19  33  58  90 123 157 204 261 319 379
#     4  11  23  35  54  87 126 161 205 259 325 402
#
# _framework density 20.225643000000002
#
# number of rings (size 3 to 8) (size 9 to 14) (size 15 to 20)
#    0.000    1.625    1.250    6.000    1.750    2.500 
#    0.000    0.625    0.000    8.250    0.000    0.000 
#    0.000    0.000    0.000    0.000    0.000    0.000 
#
# Total GULP energy -356788.582805 kJ/mol
# GULP energy per Si atom -5574.821606 kJ/mol
# Density = 2.017961 g / cm^3
# Si number density = 20.225643 Si / 1000 Ang^3
#
#
#
# Elastic Constant Matrix: (Units=GPa)
#
#
# Indices 1 2 3 4 5 6 
#
# 1 128.4292 29.1649 39.8791 0.0000 0.0000 0.0000
# 2 29.1649 60.7447 30.7210 0.0000 0.0000 0.0000
# 3 39.8791 30.7210 76.1235 0.0000 0.0000 0.0000
# 4 0.0000 0.0000 0.0000 20.4068 0.0000 0.0000
# 5 0.0000 0.0000 0.0000 0.0000 12.6665 0.0000
# 6 0.0000 0.0000 0.0000 0.0000 0.0000 28.1519
#
#
#
# Elastic Compliance Matrix: (Units=1/GPa)
#
#
# Indices 1 2 3 4 5 6 
#
# 1 0.009615 -0.002600 -0.003988 0.000000 0.000000 0.000000
# 2 -0.002600 0.021387 -0.007269 0.000000 0.000000 0.000000
# 3 -0.003988 -0.007269 0.018159 0.000000 0.000000 0.000000
# 4 0.000000 0.000000 0.000000 0.049003 0.000000 0.000000
# 5 0.000000 0.000000 0.000000 0.000000 0.078948 0.000000
# 6 0.000000 0.000000 0.000000 0.000000 0.000000 0.035522
#
#
# Mechanical properties :
#
#
# Convention : Reuss Voigt Hill
#
# Bulk Modulus (GPa) = 46.62490 51.64749 49.13619
# Shear Modulus (GPa) = 20.20225 23.28051 21.74138
#
# Velocity S-wave (km/s) = 3.16388 3.39638 3.28219
# Velocity P-wave (km/s) = 6.03732 6.40091 6.22177
#
# Compressibility (1/GPa) = 0.02144777
#
# Stress axis : x y z
#
# Youngs Moduli (GPa) = 104.00368 46.75792 55.06799
#
# Poissons Ratio (x) = 0.12155 0.21961
# Poissons Ratio (y) = 0.27036 0.40030
# Poissons Ratio (z) = 0.41477 0.33989
#
# Static dielectric constant tensor:
#      x y z
#    x 1.771720 0.000000 0.000000 
#    y 0.000000 1.756700 0.000000 
#    z 0.000000 0.000000 1.752910 
# 
# From -- ./inp_files/16685.got.cif
#   From: 2010.05.17/outbox.cif.g08.bks.cpg/sg68_9_cif.got.tgz:16685.got - 2010.06.03 18:57:09.
