data_PCOD9505898
_publ_section_title
;
Structure prediction by ZEFSAII (Michael W. Deem and Ramdas Pophale) SiO2 
 PCOD9505898
Probable space group: C C C A
;
_chemical_formula_sum "Si O2"
_cell_formula_units_Z 92
_cell_length_a 14.002772
_cell_length_b 14.273340
_cell_length_c 20.304627
_cell_angle_alpha 90.000000
_cell_angle_beta 90.000000
_cell_angle_gamma 90.000000
_cell_volume 4058.211193
_symmetry_space_group_name_H-M "C C C A"
_symmetry_group_IT_number 68
_space_group.IT_coordinate_system_code '2'
_symmetry_cell_setting 'orthorhombic'
loop_
_space_group_symop_operation_xyz
x,y,z
-x,1/2-y,z
x,1/2-y,1/2-z
-x,y,1/2-z
-x,-y,-z
x,1/2+y,-z
-x,1/2+y,1/2+z
x,-y,1/2+z
1/2+x,1/2+y,z
1/2-x,-y,z
1/2+x,-y,1/2-z
1/2-x,1/2+y,1/2-z
1/2-x,1/2-y,-z
1/2+x,y,-z
1/2-x,y,1/2+z
1/2+x,1/2-y,1/2+z
loop_
_atom_site_type_symbol
_atom_site_label
_atom_site_fract_x
_atom_site_fract_y
_atom_site_fract_z
Si Si1 0.500000 0.250000 0.750000
Si Si2 0.907466 0.639386 0.529382
Si Si3 0.655675 0.271917 0.659445
Si Si4 0.000000 0.250000 0.586622
Si Si5 0.250000 0.500000 0.014452
Si Si6 0.177290 0.750000 0.250000
Si Si7 0.542043 0.902427 0.682122
Si Si8 0.896054 0.915350 0.604102
O O1 0.568228 0.310450 0.702670
O O2 0.854260 0.698460 0.584932
O O3 0.839426 0.549919 0.520335
O O4 0.924868 0.700601 0.463436
O O5 0.011335 0.613130 0.560249
O O6 0.752457 0.294889 0.695858
O O7 0.632461 0.161465 0.657923
O O8 0.025459 0.163117 0.635448
O O9 0.197106 0.423492 0.058810
O O10 0.116992 0.826994 0.288998
O O11 0.500000 0.942463 0.750000
O O12 0.583317 0.984817 0.637566
#
# Coordination Sequence:
#
# PCOD9505898 Si02
#       8
#     4  16  16   8   8   8  16  16
#     4  10  18  44  62  94 122 178 240 280 340 444
#     4  12  26  48  75 109 146 197 248 311 388 454
#     4  11  24  43  75  97 141 191 243 297 378 438
#     4  12  22  48  78  98 150 204 248 304 394 462
#     4  12  28  40  68 112 148 180 240 314 372 450
#     4  11  25  45  67 104 144 188 249 299 363 455
#     4  12  26  45  74 104 148 203 252 304 377 458
#     4  12  25  46  71 110 144 189 246 310 370 442
#
# _framework density 22.670086000000001
#
# number of rings (size 3 to 8) (size 9 to 14) (size 15 to 20)
#    0.000    0.348    6.957    1.565    1.217    3.478 
#    0.000    0.000    0.000    0.000    0.000    0.000 
#    0.000    0.000    0.000    0.000    0.000    0.000 
#
# Total GULP energy -256846.462700 kJ/mol
# GULP energy per Si atom -5583.618754 kJ/mol
# Density = 2.261849 g / cm^3
# Si number density = 22.670086 Si / 1000 Ang^3
#
#
#
# Elastic Constant Matrix: (Units=GPa)
#
#
# Indices 1 2 3 4 5 6 
#
# 1 90.4819 6.5422 18.7632 0.0000 0.0000 0.0000
# 2 6.5422 80.9427 27.1474 0.0000 0.0000 0.0000
# 3 18.7632 27.1474 111.0299 0.0000 0.0000 0.0000
# 4 0.0000 0.0000 0.0000 8.8988 0.0000 0.0000
# 5 0.0000 0.0000 0.0000 0.0000 22.1636 0.0000
# 6 0.0000 0.0000 0.0000 0.0000 0.0000 19.1261
#
#
#
# Elastic Compliance Matrix: (Units=1/GPa)
#
#
# Indices 1 2 3 4 5 6 
#
# 1 0.011460 -0.000301 -0.001863 0.000000 0.000000 0.000000
# 2 -0.000301 0.013466 -0.003242 0.000000 0.000000 0.000000
# 3 -0.001863 -0.003242 0.010114 0.000000 0.000000 0.000000
# 4 0.000000 0.000000 0.000000 0.112375 0.000000 0.000000
# 5 0.000000 0.000000 0.000000 0.000000 0.045119 0.000000
# 6 0.000000 0.000000 0.000000 0.000000 0.000000 0.052284
#
#
# Mechanical properties :
#
#
# Convention : Reuss Voigt Hill
#
# Bulk Modulus (GPa) = 41.27441 43.04003 42.15722
# Shear Modulus (GPa) = 18.96047 25.37115 22.16581
#
# Velocity S-wave (km/s) = 2.89514 3.34899 3.13030
# Velocity P-wave (km/s) = 5.42419 5.82932 5.63040
#
# Compressibility (1/GPa) = 0.02422808
#
# Stress axis : x y z
#
# Youngs Moduli (GPa) = 87.25962 74.26127 98.87299
#
# Poissons Ratio (x) = 0.02239 0.18420
# Poissons Ratio (y) = 0.02630 0.32050
# Poissons Ratio (z) = 0.16256 0.24072
#
# Static dielectric constant tensor:
#      x y z
#    x 1.854620 0.000000 0.000000 
#    y 0.000000 1.908570 0.000000 
#    z 0.000000 0.000000 1.913120 
# 
# From -- ./inp_files/38648.got.cif
#   From: 2010.05.17/outbox.cif.g08.bks.cpg/sg68_20_cif.got.tgz:38648.got - 2010.06.03 18:57:09.
