data_PCOD9505260
_publ_section_title
;
Structure prediction by ZEFSAII (Michael W. Deem and Ramdas Pophale) SiO2 
 PCOD9505260
Probable space group: C M M A
;
_chemical_formula_sum "Si O2"
_cell_formula_units_Z 48
_cell_length_a 15.000000
_cell_length_b 15.000000
_cell_length_c 21.000000
_cell_angle_alpha 90.000000
_cell_angle_beta 90.000000
_cell_angle_gamma 90.000000
_cell_volume 4725.000000
_symmetry_space_group_name_H-M "C M M A"
_symmetry_group_IT_number 67
_symmetry_cell_setting 'orthorhombic'
loop_
_space_group_symop_operation_xyz
x,y,z
-x,1/2-y,z
x,-y,-z
-x,1/2+y,-z
-x,-y,-z
x,1/2+y,-z
-x,y,z
x,1/2-y,z
1/2+x,1/2+y,z
1/2-x,-y,z
1/2+x,1/2-y,-z
1/2-x,y,-z
1/2-x,1/2-y,-z
1/2+x,y,-z
1/2-x,1/2+y,z
1/2+x,-y,z
loop_
_atom_site_type_symbol
_atom_site_label
_atom_site_fract_x
_atom_site_fract_y
_atom_site_fract_z
Si Si1 0.755002 0.607323 0.402530
Si Si2 0.891542 0.750000 0.905246
Si Si3 0.248960 0.849616 0.741183
Si Si4 0.101835 0.391386 0.493746
Si Si5 0.397323 0.415942 0.820177
Si Si6 0.896517 0.884575 0.154067
Si Si7 0.608421 0.750000 0.952320
O O1 0.750000 0.500000 0.404160
O O2 0.772255 0.637199 0.331597
O O3 0.835432 0.637572 0.447887
O O4 0.659588 0.635242 0.431897
O O5 0.866350 0.838087 0.867036
O O6 0.000000 0.750000 0.907302
O O7 0.856474 0.750000 0.976623
O O8 0.212398 0.750000 0.749068
O O9 0.170531 0.916229 0.761743
O O10 0.332876 0.860426 0.787563
O O11 0.099174 0.500000 0.500000
O O12 0.000000 0.360377 0.494025
O O13 0.500000 0.399930 0.800780
O O14 0.393162 0.510011 0.854703
O O15 0.866933 0.834112 0.090753
O O16 0.000000 0.860468 0.167449
O O17 0.500000 0.750000 0.957043
#
# Coordination Sequence:
#
# PCOD9505260 Si02
#       7
#    16   8  16  16  16  16   8
#     4   9  18  32  52  80 107 138 188 233 274 337
#     4   9  18  35  59  87 118 149 187 237 292 349
#     4  12  23  37  57  80 116 156 191 239 291 341
#     4   8  15  31  54  78 108 142 178 229 282 329
#     4  10  21  38  59  83 114 152 195 241 289 344
#     4  10  21  38  59  83 114 152 195 241 289 344
#     4   9  18  35  59  87 118 149 187 237 292 349
#
# _framework density 10.15873
#
# number of rings (size 3 to 8) (size 9 to 14) (size 15 to 20)
#    0.000    2.333    1.667    2.500    0.000    2.000 
#    0.000   10.000    0.000    3.000    0.000    0.000 
#    0.000    0.000    0.000    0.000    0.000    0.000 
#
# Total GULP energy -267794.212139 kJ/mol
# GULP energy per Si atom -5579.046086 kJ/mol
# Density = 1.013561 g / cm^3
# Si number density = 10.158730 Si / 1000 Ang^3
#
#
#
# Elastic Constant Matrix: (Units=GPa)
#
#
# Indices 1 2 3 4 5 6 
#
# 1 93.5673 6.6605 35.3960 0.0000 0.0000 0.0000
# 2 6.6605 73.9019 12.0337 0.0000 0.0000 0.0000
# 3 35.3960 12.0337 117.3657 0.0000 0.0000 0.0000
# 4 0.0000 0.0000 0.0000 12.6938 0.0000 0.0000
# 5 0.0000 0.0000 0.0000 0.0000 20.2262 0.0000
# 6 0.0000 0.0000 0.0000 0.0000 0.0000 6.3915
#
#
#
# Elastic Compliance Matrix: (Units=1/GPa)
#
#
# Indices 1 2 3 4 5 6 
#
# 1 0.012082 -0.000504 -0.003592 0.000000 0.000000 0.000000
# 2 -0.000504 0.013782 -0.001261 0.000000 0.000000 0.000000
# 3 -0.003592 -0.001261 0.009733 0.000000 0.000000 0.000000
# 4 0.000000 0.000000 0.000000 0.078779 0.000000 0.000000
# 5 0.000000 0.000000 0.000000 0.000000 0.049441 0.000000
# 6 0.000000 0.000000 0.000000 0.000000 0.000000 0.156457
#
#
# Mechanical properties :
#
#
# Convention : Reuss Voigt Hill
#
# Bulk Modulus (GPa) = 40.18819 43.66838 41.92829
# Shear Modulus (GPa) = 14.73697 23.24529 18.99113
#
# Velocity S-wave (km/s) = 2.69613 3.38613 3.06064
# Velocity P-wave (km/s) = 5.43279 6.06857 5.75946
#
# Compressibility (1/GPa) = 0.02488293
#
# Stress axis : x y z
#
# Youngs Moduli (GPa) = 82.76587 72.55722 102.74282
#
# Poissons Ratio (x) = 0.03657 0.36907
# Poissons Ratio (y) = 0.04171 0.12957
# Poissons Ratio (z) = 0.29731 0.09150
#
# Static dielectric constant tensor:
#      x y z
#    x 1.713670 0.000000 0.000000 
#    y 0.000000 1.768680 0.000000 
#    z 0.000000 0.000000 1.683740 
# 
# From -- ./inp_files/38550.got.cif
#   From: 2010.05.17/outbox.ucp.g08.bks.cvg/sg67_20_cif.got.tgz:38550.got - 2010.06.11 16:47:20.
