data_PCOD9505656
_publ_section_title
;
Structure prediction by ZEFSAII (Michael W. Deem and Ramdas Pophale) SiO2 
 PCOD9505656
Probable space group: C C C A
;
_chemical_formula_sum "Si O2"
_cell_formula_units_Z 80
_cell_length_a 25.611790
_cell_length_b 13.979988
_cell_length_c 9.282367
_cell_angle_alpha 90.000000
_cell_angle_beta 90.000000
_cell_angle_gamma 90.000000
_cell_volume 3323.574867
_symmetry_space_group_name_H-M "C C C A"
_symmetry_group_IT_number 68
_space_group.IT_coordinate_system_code '2'
_symmetry_cell_setting 'orthorhombic'
loop_
_space_group_symop_operation_xyz
x,y,z
-x,1/2-y,z
x,1/2-y,1/2-z
-x,y,1/2-z
-x,-y,-z
x,1/2+y,-z
-x,1/2+y,1/2+z
x,-y,1/2+z
1/2+x,1/2+y,z
1/2-x,-y,z
1/2+x,-y,1/2-z
1/2-x,1/2+y,1/2-z
1/2-x,1/2-y,-z
1/2+x,y,-z
1/2-x,y,1/2+z
1/2+x,1/2-y,1/2+z
loop_
_atom_site_type_symbol
_atom_site_label
_atom_site_fract_x
_atom_site_fract_y
_atom_site_fract_z
Si Si1 0.406573 0.155999 0.802711
Si Si2 0.676197 0.363294 0.015749
Si Si3 0.233414 0.113035 0.805145
Si Si4 0.641232 0.585479 0.020228
Si Si5 0.463932 0.963295 0.871999
O O1 0.435611 0.250000 0.750000
O O2 0.364934 0.130794 0.676829
O O3 0.440117 0.060742 0.807302
O O4 0.378164 0.178355 0.954903
O O5 0.709460 0.344615 0.159140
O O6 0.658009 0.474188 0.035846
O O7 0.716343 0.346832 0.885658
O O8 0.250000 0.000000 0.780876
O O9 0.186955 0.124267 0.920690
O O10 0.585976 0.591389 0.936475
O O11 0.500000 0.915311 0.750000
O O12 0.500000 0.000000 0.000000
#
# Coordination Sequence:
#
# PCOD9505656 Si02
#       5
#    16  16  16  16  16
#     4  11  24  41  61  91 130 163 204 257 322 378
#     4  10  19  34  59  88 122 164 212 254 300 370
#     4  10  18  31  59  92 122 160 214 263 300 353
#     4  10  20  36  59  89 122 158 208 259 309 366
#     4  11  22  40  66  93 116 157 209 260 314 374
#
# _framework density 24.070468000000002
#
# number of rings (size 3 to 8) (size 9 to 14) (size 15 to 20)
#    0.000    1.600    2.000    6.600    2.800    0.400 
#    0.000    5.000    0.000    1.200    0.000    0.000 
#    0.000    0.000    0.000    0.000    0.000    0.000 
#
# Total GULP energy -223477.465315 kJ/mol
# GULP energy per Si atom -5586.936633 kJ/mol
# Density = 2.401568 g / cm^3
# Si number density = 24.070468 Si / 1000 Ang^3
#
#
#
# Elastic Constant Matrix: (Units=GPa)
#
#
# Indices 1 2 3 4 5 6 
#
# 1 115.1032 -6.6262 47.6410 0.0000 0.0000 0.0000
# 2 -6.6262 42.3858 8.4946 0.0000 0.0000 0.0000
# 3 47.6410 8.4946 131.4674 0.0000 0.0000 0.0000
# 4 0.0000 0.0000 0.0000 13.4515 0.0000 0.0000
# 5 0.0000 0.0000 0.0000 0.0000 57.7846 0.0000
# 6 0.0000 0.0000 0.0000 0.0000 0.0000 4.0029
#
#
#
# Elastic Compliance Matrix: (Units=1/GPa)
#
#
# Indices 1 2 3 4 5 6 
#
# 1 0.010462 0.002427 -0.003948 0.000000 0.000000 0.000000
# 2 0.002427 0.024465 -0.002460 0.000000 0.000000 0.000000
# 3 -0.003948 -0.002460 0.009196 0.000000 0.000000 0.000000
# 4 0.000000 0.000000 0.000000 0.074341 0.000000 0.000000
# 5 0.000000 0.000000 0.000000 0.000000 0.017306 0.000000
# 6 0.000000 0.000000 0.000000 0.000000 0.000000 0.249821
#
#
# Mechanical properties :
#
#
# Convention : Reuss Voigt Hill
#
# Bulk Modulus (GPa) = 27.65479 43.10836 35.38158
# Shear Modulus (GPa) = 12.32721 31.01092 21.66906
#
# Velocity S-wave (km/s) = 2.26548 3.59324 3.00365
# Velocity P-wave (km/s) = 4.28454 5.92986 5.17303
#
# Compressibility (1/GPa) = 0.03616010
#
# Stress axis : x y z
#
# Youngs Moduli (GPa) = 95.58810 40.87439 108.74268
#
# Poissons Ratio (x) = -0.09919 0.42930
# Poissons Ratio (y) = -0.23196 0.26752
# Poissons Ratio (z) = 0.37737 0.10056
#
# Static dielectric constant tensor:
#      x y z
#    x 1.711650 0.000000 0.000000 
#    y 0.000000 2.100870 0.000000 
#    z 0.000000 0.000000 1.910800 
# 
# From -- ./inp_files/6215.got.cif
#   From: 2010.05.17/outbox.cif.g08.bks.cpg/sg68_4_cif.got.tgz:6215.got - 2010.06.03 18:57:09.
