data_PCOD9505750
_publ_section_title
;
Structure prediction by ZEFSAII (Michael W. Deem and Ramdas Pophale) SiO2 
 PCOD9505750
Probable space group: C C C A
;
_chemical_formula_sum "Si O2"
_cell_formula_units_Z 80
_cell_length_a 8.473597
_cell_length_b 17.087654
_cell_length_c 28.467185
_cell_angle_alpha 90.000000
_cell_angle_beta 90.000000
_cell_angle_gamma 90.000000
_cell_volume 4121.874558
_symmetry_space_group_name_H-M "C C C A"
_symmetry_group_IT_number 68
_space_group.IT_coordinate_system_code '2'
_symmetry_cell_setting 'orthorhombic'
loop_
_space_group_symop_operation_xyz
x,y,z
-x,1/2-y,z
x,1/2-y,1/2-z
-x,y,1/2-z
-x,-y,-z
x,1/2+y,-z
-x,1/2+y,1/2+z
x,-y,1/2+z
1/2+x,1/2+y,z
1/2-x,-y,z
1/2+x,-y,1/2-z
1/2-x,1/2+y,1/2-z
1/2-x,1/2-y,-z
1/2+x,y,-z
1/2-x,y,1/2+z
1/2+x,1/2-y,1/2+z
loop_
_atom_site_type_symbol
_atom_site_label
_atom_site_fract_x
_atom_site_fract_y
_atom_site_fract_z
Si Si1 0.750000 0.000000 0.235402
Si Si2 0.500000 0.250000 0.362135
Si Si3 0.250000 0.500000 0.579065
Si Si4 0.500000 0.750000 0.474285
Si Si5 0.997677 0.536811 0.844611
Si Si6 0.193288 0.333819 0.555431
Si Si7 0.693046 0.610878 0.678734
O O1 0.608587 0.971994 0.202053
O O2 0.798728 0.927461 0.269053
O O3 0.392596 0.197890 0.397478
O O4 0.391892 0.307357 0.330554
O O5 0.120521 0.540285 0.612527
O O6 0.182690 0.427040 0.551640
O O7 0.628469 0.699760 0.445911
O O8 0.602942 0.802277 0.509763
O O9 0.127283 0.604533 0.839621
O O10 0.092854 0.455263 0.848676
#
# Coordination Sequence:
#
# PCOD9505750 Si02
#       7
#     8   8   8   8  16  16  16
#     4   9  18  36  62  83 118 158 210 241 296 344
#     4  11  22  36  57  93 120 152 194 243 302 347
#     4  11  20  36  62  93 114 146 204 245 276 350
#     4   9  22  44  62  81 120 160 176 237 318 354
#     4   9  19  35  59  87 114 161 197 241 290 343
#     4  10  22  40  61  86 118 152 194 238 296 366
#     4  10  18  34  55  87 114 160 194 243 284 345
#
# _framework density 19.408646000000001
#
# number of rings (size 3 to 8) (size 9 to 14) (size 15 to 20)
#    0.000    2.400    2.000    2.400    2.800    0.800 
#    0.000    2.000    0.000    0.000   20.800    0.000 
#    0.000    0.000    0.000    0.000    0.000    0.000 
#
# Total GULP energy -222996.181653 kJ/mol
# GULP energy per Si atom -5574.904541 kJ/mol
# Density = 1.936447 g / cm^3
# Si number density = 19.408646 Si / 1000 Ang^3
#
#
#
# Elastic Constant Matrix: (Units=GPa)
#
#
# Indices 1 2 3 4 5 6 
#
# 1 122.3910 48.8080 31.8370 0.0000 0.0000 0.0000
# 2 48.8080 136.4565 42.7651 0.0000 0.0000 0.0000
# 3 31.8370 42.7651 52.7934 0.0000 0.0000 0.0000
# 4 0.0000 0.0000 0.0000 14.2550 0.0000 0.0000
# 5 0.0000 0.0000 0.0000 0.0000 -19.5577 0.0000
# 6 0.0000 0.0000 0.0000 0.0000 0.0000 37.1079
#
#
#
# Elastic Compliance Matrix: (Units=1/GPa)
#
#
# Indices 1 2 3 4 5 6 
#
# 1 0.010205 -0.002307 -0.004285 0.000000 0.000000 0.000000
# 2 -0.002307 0.010343 -0.006987 0.000000 0.000000 0.000000
# 3 -0.004285 -0.006987 0.027186 0.000000 0.000000 0.000000
# 4 0.000000 0.000000 0.000000 0.070151 0.000000 0.000000
# 5 0.000000 0.000000 0.000000 0.000000 -0.051131 0.000000
# 6 0.000000 0.000000 0.000000 0.000000 0.000000 0.026948
#
#
# Mechanical properties :
#
#
# Convention : Reuss Voigt Hill
#
# Bulk Modulus (GPa) = 48.60245 62.05125 55.32685
# Shear Modulus (GPa) = 39.14767 18.90974 29.02871
#
# Velocity S-wave (km/s) = 4.49600 3.12476 3.87157
# Velocity P-wave (km/s) = 7.21443 6.71261 6.96804
#
# Compressibility (1/GPa) = 0.02057510
#
# Stress axis : x y z
#
# Youngs Moduli (GPa) = 97.98761 96.68020 36.78359
#
# Poissons Ratio (x) = 0.22307 0.15763
# Poissons Ratio (y) = 0.22608 0.25702
# Poissons Ratio (z) = 0.41991 0.67553
#
# Static dielectric constant tensor:
#      x y z
#    x 1.740240 0.000000 0.000000 
#    y 0.000000 1.675290 0.000000 
#    z 0.000000 0.000000 1.670970 
# 
# From -- ./inp_files/49217.got.cif
#   From: 2010.05.17/outbox.cif.g08.bks.cpg/sg68_25_cif.got.tgz:49217.got - 2010.06.03 18:57:09.
