data_PCOD9505044
_publ_section_title
;
Structure prediction by ZEFSAII (Michael W. Deem and Ramdas Pophale) SiO2 
 PCOD9505044
Probable space group: C M M A
;
_chemical_formula_sum "Si O2"
_cell_formula_units_Z 64
_cell_length_a 8.654984
_cell_length_b 24.140454
_cell_length_c 15.734597
_cell_angle_alpha 90.000000
_cell_angle_beta 90.000000
_cell_angle_gamma 90.000000
_cell_volume 3287.511850
_symmetry_space_group_name_H-M "C M M A"
_symmetry_group_IT_number 67
_symmetry_cell_setting 'orthorhombic'
loop_
_space_group_symop_operation_xyz
x,y,z
-x,1/2-y,z
x,-y,-z
-x,1/2+y,-z
-x,-y,-z
x,1/2+y,-z
-x,y,z
x,1/2-y,z
1/2+x,1/2+y,z
1/2-x,-y,z
1/2+x,1/2-y,-z
1/2-x,y,-z
1/2-x,1/2-y,-z
1/2+x,y,-z
1/2-x,1/2+y,z
1/2+x,-y,z
loop_
_atom_site_type_symbol
_atom_site_label
_atom_site_fract_x
_atom_site_fract_y
_atom_site_fract_z
Si Si1 0.184507 0.366741 0.909639
Si Si2 0.184632 0.750000 0.342379
Si Si3 0.815027 0.864494 0.589615
Si Si4 0.814720 0.438191 0.245778
Si Si5 0.314931 0.250000 0.849012
O O1 0.242501 0.405322 0.833271
O O2 0.249235 0.305197 0.892043
O O3 0.000000 0.365290 0.911492
O O4 0.250000 0.386294 0.000000
O O5 0.240409 0.695044 0.390316
O O6 0.261007 0.750000 0.249029
O O7 0.000000 0.750000 0.334124
O O8 0.750000 0.885187 0.500000
O O9 0.777328 0.905055 0.667740
O O10 0.000000 0.858541 0.585197
O O11 0.750000 0.500000 0.249299
O O12 0.000000 0.438906 0.236575
O O13 0.500000 0.250000 0.853162
#
# Coordination Sequence:
#
# PCOD9505044 Si02
#       5
#    16   8  16  16   8
#     4  12  25  43  68  98 132 171 215 264 322 384
#     4  12  23  38  65  97 131 171 214 260 323 386
#     4  11  24  42  66  95 132 171 214 266 323 383
#     4  11  25  45  68  94 128 170 218 272 323 380
#     4  12  23  40  65  97 135 171 212 260 321 386
#
# _framework density 19.467611000000002
#
# number of rings (size 3 to 8) (size 9 to 14) (size 15 to 20)
#    0.000    0.500    2.500    6.750    0.000    4.000 
#    0.000    5.000    0.000    0.000    0.000    0.000 
#    0.000    0.000    0.000    0.000    0.000    0.000 
#
# Total GULP energy -179214.108068 kJ/mol
# GULP energy per Si atom -5600.440877 kJ/mol
# Density = 1.942330 g / cm^3
# Si number density = 19.467611 Si / 1000 Ang^3
#
#
#
# Elastic Constant Matrix: (Units=GPa)
#
#
# Indices 1 2 3 4 5 6 
#
# 1 161.0398 79.0022 93.5346 0.0000 0.0000 0.0000
# 2 79.0022 152.2402 77.6379 0.0000 0.0000 0.0000
# 3 93.5346 77.6379 190.3642 0.0000 0.0000 0.0000
# 4 0.0000 0.0000 0.0000 -11.3514 0.0000 0.0000
# 5 0.0000 0.0000 0.0000 0.0000 38.4897 0.0000
# 6 0.0000 0.0000 0.0000 0.0000 0.0000-1631.7612
#
#
#
# Elastic Compliance Matrix: (Units=1/GPa)
#
#
# Indices 1 2 3 4 5 6 
#
# 1 0.009878 -0.003347 -0.003488 0.000000 0.000000 0.000000
# 2 -0.003347 0.009428 -0.002200 0.000000 0.000000 0.000000
# 3 -0.003488 -0.002200 0.007864 0.000000 0.000000 0.000000
# 4 0.000000 0.000000 0.000000 -0.088095 0.000000 0.000000
# 5 0.000000 0.000000 0.000000 0.000000 0.025981 0.000000
# 6 0.000000 0.000000 0.000000 0.000000 0.000000 -0.000613
#
#
# Mechanical properties :
#
#
# Convention : Reuss Voigt Hill
#
# Bulk Modulus (GPa) = 109.91015 111.55485 110.73250
# Shear Modulus (GPa) = -345.94517 -304.02660 -324.98588
#
# Velocity S-wave (km/s) = -13.34499 -12.51038 -12.93442
# Velocity P-wave (km/s) = 13.44883 12.29846 12.88649
#
# Compressibility (1/GPa) = 0.00909834
#
# Stress axis : x y z
#
# Youngs Moduli (GPa) = 101.23899 106.07251 127.15375
#
# Poissons Ratio (x) = 0.35501 0.44356
# Poissons Ratio (y) = 0.33883 0.27979
# Poissons Ratio (z) = 0.35316 0.23341
#
# Static dielectric constant tensor:
#      x y z
#    x 1.648300 0.000000 0.000000 
#    y 0.000000 1.646850 0.000000 
#    z 0.000000 0.000000 1.682970 
# 
# From -- ./inp_files/24840.got.cif
#   From: 2010.05.17/outbox.cif.g08.bks.cpg/sg67_13_cif.got.tgz:24840.got - 2010.06.03 18:28:57.
