data_PCOD9505899
_publ_section_title
;
Structure prediction by ZEFSAII (Michael W. Deem and Ramdas Pophale) SiO2 
 PCOD9505899
Probable space group: C C C A
;
_chemical_formula_sum "Si O2"
_cell_formula_units_Z 108
_cell_length_a 31.384681
_cell_length_b 30.297595
_cell_length_c 5.033526
_cell_angle_alpha 90.000000
_cell_angle_beta 90.000000
_cell_angle_gamma 90.000000
_cell_volume 4786.280985
_symmetry_space_group_name_H-M "C C C A"
_symmetry_group_IT_number 68
_space_group.IT_coordinate_system_code '2'
_symmetry_cell_setting 'orthorhombic'
loop_
_space_group_symop_operation_xyz
x,y,z
-x,1/2-y,z
x,1/2-y,1/2-z
-x,y,1/2-z
-x,-y,-z
x,1/2+y,-z
-x,1/2+y,1/2+z
x,-y,1/2+z
1/2+x,1/2+y,z
1/2-x,-y,z
1/2+x,-y,1/2-z
1/2-x,1/2+y,1/2-z
1/2-x,1/2-y,-z
1/2+x,y,-z
1/2-x,y,1/2+z
1/2+x,1/2-y,1/2+z
loop_
_atom_site_type_symbol
_atom_site_label
_atom_site_fract_x
_atom_site_fract_y
_atom_site_fract_z
Si Si1 0.279426 0.700319 0.052797
Si Si2 0.350898 0.750000 0.750000
Si Si3 0.576791 0.792138 0.447333
Si Si4 0.029855 0.379312 0.503516
Si Si5 0.334809 0.525682 0.755751
Si Si6 0.562964 0.527011 0.782728
Si Si7 0.500000 0.250000 0.250000
Si Si8 0.721504 0.598241 0.489442
O O1 0.240572 0.706714 0.843357
O O2 0.319830 0.728785 0.967547
O O3 0.291587 0.649346 0.011607
O O4 0.382674 0.712580 0.639253
O O5 0.584703 0.750000 0.250000
O O6 0.565998 0.843876 0.404155
O O7 0.531908 0.777718 0.572288
O O8 0.048380 0.425450 0.613273
O O9 0.000000 0.386667 0.250000
O O10 0.000000 0.363145 0.750000
O O11 0.321003 0.513088 0.459447
O O12 0.385716 0.528336 0.737758
O O13 0.315798 0.568645 0.893007
O O14 0.549201 0.510671 0.492537
O O15 0.739669 0.590528 0.195880
#
# Coordination Sequence:
#
# PCOD9505899 Si02
#       8
#    16   8  16  16  16  16   4  16
#     4  10  23  43  66  92 132 171 217 272 328 386
#     4  11  26  41  68  98 124 178 222 273 332 401
#     4  11  25  42  66 100 135 175 229 278 340 406
#     4  12  26  45  72  99 131 179 222 270 345 402
#     4  10  21  37  59  87 125 166 202 261 325 381
#     4  10  23  44  66  98 133 170 218 275 332 393
#     4  10  18  44  64  82 140 172 206 280 330 398
#     4  10  21  37  58  89 121 163 210 262 314 378
#
# _framework density 22.564491
#
# number of rings (size 3 to 8) (size 9 to 14) (size 15 to 20)
#    0.000    1.481    0.741    3.333    6.222    3.556 
#    0.000    1.481    0.000    0.000    0.000    0.000 
#    0.000    0.000    0.000    0.000    0.000    0.000 
#
# Total GULP energy -301466.837961 kJ/mol
# GULP energy per Si atom -5582.719222 kJ/mol
# Density = 2.251313 g / cm^3
# Si number density = 22.564491 Si / 1000 Ang^3
#
#
#
# Elastic Constant Matrix: (Units=GPa)
#
#
# Indices 1 2 3 4 5 6 
#
# 1 88.7995 46.8703 26.4189 0.0000 0.0000 0.0000
# 2 46.8703 112.8540 16.5553 0.0000 0.0000 0.0000
# 3 26.4189 16.5553 99.6491 0.0000 0.0000 0.0000
# 4 0.0000 0.0000 0.0000 28.6011 0.0000 0.0000
# 5 0.0000 0.0000 0.0000 0.0000 50.8138 0.0000
# 6 0.0000 0.0000 0.0000 0.0000 0.0000 43.4342
#
#
#
# Elastic Compliance Matrix: (Units=1/GPa)
#
#
# Indices 1 2 3 4 5 6 
#
# 1 0.015289 -0.005899 -0.003073 0.000000 0.000000 0.000000
# 2 -0.005899 0.011358 -0.000323 0.000000 0.000000 0.000000
# 3 -0.003073 -0.000323 0.010904 0.000000 0.000000 0.000000
# 4 0.000000 0.000000 0.000000 0.034964 0.000000 0.000000
# 5 0.000000 0.000000 0.000000 0.000000 0.019680 0.000000
# 6 0.000000 0.000000 0.000000 0.000000 0.000000 0.023023
#
#
# Mechanical properties :
#
#
# Convention : Reuss Voigt Hill
#
# Bulk Modulus (GPa) = 52.74191 53.44350 53.09270
# Shear Modulus (GPa) = 35.68126 38.66701 37.17413
#
# Velocity S-wave (km/s) = 3.98087 4.14408 4.06330
# Velocity P-wave (km/s) = 6.67491 6.82892 6.75235
#
# Compressibility (1/GPa) = 0.01896025
#
# Stress axis : x y z
#
# Youngs Moduli (GPa) = 65.40486 88.04059 91.71182
#
# Poissons Ratio (x) = 0.51936 0.28187
# Poissons Ratio (y) = 0.38583 0.02963
# Poissons Ratio (z) = 0.20102 0.02844
#
# Static dielectric constant tensor:
#      x y z
#    x 1.798250 0.000000 0.000000 
#    y 0.000000 1.913500 0.000000 
#    z 0.000000 0.000000 1.856250 
# 
# From -- ./inp_files/2963.got.cif
#   From: 2010.05.17/outbox.cif.g08.bks.cpg/sg68_2_cif.got.tgz:2963.got - 2010.06.03 18:57:09.
