data_PCOD9505749
_publ_section_title
;
Structure prediction by ZEFSAII (Michael W. Deem and Ramdas Pophale) SiO2 
 PCOD9505749
Probable space group: C C C A
;
_chemical_formula_sum "Si O2"
_cell_formula_units_Z 112
_cell_length_a 26.427886
_cell_length_b 14.397343
_cell_length_c 14.052718
_cell_angle_alpha 90.000000
_cell_angle_beta 90.000000
_cell_angle_gamma 90.000000
_cell_volume 5346.937496
_symmetry_space_group_name_H-M "C C C A"
_symmetry_group_IT_number 68
_space_group.IT_coordinate_system_code '2'
_symmetry_cell_setting 'orthorhombic'
loop_
_space_group_symop_operation_xyz
x,y,z
-x,1/2-y,z
x,1/2-y,1/2-z
-x,y,1/2-z
-x,-y,-z
x,1/2+y,-z
-x,1/2+y,1/2+z
x,-y,1/2+z
1/2+x,1/2+y,z
1/2-x,-y,z
1/2+x,-y,1/2-z
1/2-x,1/2+y,1/2-z
1/2-x,1/2-y,-z
1/2+x,y,-z
1/2-x,y,1/2+z
1/2+x,1/2-y,1/2+z
loop_
_atom_site_type_symbol
_atom_site_label
_atom_site_fract_x
_atom_site_fract_y
_atom_site_fract_z
Si Si1 0.660063 0.483299 0.290617
Si Si2 0.910473 0.714625 0.648848
Si Si3 0.692998 0.686771 0.342036
Si Si4 0.148076 0.039382 0.097877
Si Si5 0.507222 0.655891 0.995860
Si Si6 0.776242 0.399030 0.949730
Si Si7 0.572925 0.514203 0.430355
O O1 0.689208 0.580546 0.306491
O O2 0.663983 0.465935 0.178005
O O3 0.686213 0.407694 0.358871
O O4 0.604172 0.501538 0.333576
O O5 0.929811 0.750000 0.750000
O O6 0.862809 0.781179 0.623502
O O7 0.885419 0.613006 0.655879
O O8 0.953775 0.696589 0.573428
O O9 0.705184 0.750000 0.250000
O O10 0.734782 0.678025 0.424230
O O11 0.190822 0.101150 0.045815
O O12 0.114824 0.994648 0.014230
O O13 0.500000 0.750000 0.934879
O O14 0.534931 0.572713 0.941049
O O15 0.459992 0.606047 0.048694
O O16 0.750000 0.500000 0.958643
#
# Coordination Sequence:
#
# PCOD9505749 Si02
#       7
#    16  16  16  16  16  16  16
#     4  10  18  37  60  77 121 159 200 253 304 370
#     4  10  19  33  52  87 119 151 190 254 318 369
#     4  10  18  34  55  86 121 149 197 255 310 369
#     4  10  19  36  59  81 118 158 206 248 313 364
#     4  10  20  36  59  85 125 155 200 260 315 386
#     4   9  21  34  55  85 115 161 203 242 294 377
#     4   9  21  38  57  91 119 160 207 254 317 380
#
# _framework density 20.946569
#
# number of rings (size 3 to 8) (size 9 to 14) (size 15 to 20)
#    0.000    2.286    2.857    0.857    0.000    2.571 
#    2.571    2.143    9.429    0.857    0.000    0.000 
#    0.000    0.000    0.000    0.000    0.000    0.000 
#
# Total GULP energy -312062.107076 kJ/mol
# GULP energy per Si atom -5572.537626 kJ/mol
# Density = 2.089889 g / cm^3
# Si number density = 20.946569 Si / 1000 Ang^3
#
#
#
# Elastic Constant Matrix: (Units=GPa)
#
#
# Indices 1 2 3 4 5 6 
#
# 1 76.0832 19.5276 27.6602 0.0000 0.0000 0.0000
# 2 19.5276 76.0184 5.4252 0.0000 0.0000 0.0000
# 3 27.6602 5.4252 86.2491 0.0000 0.0000 0.0000
# 4 0.0000 0.0000 0.0000 21.7991 0.0000 0.0000
# 5 0.0000 0.0000 0.0000 0.0000 -6.8159 0.0000
# 6 0.0000 0.0000 0.0000 0.0000 0.0000 32.0564
#
#
#
# Elastic Compliance Matrix: (Units=1/GPa)
#
#
# Indices 1 2 3 4 5 6 
#
# 1 0.015865 -0.003729 -0.004853 0.000000 0.000000 0.000000
# 2 -0.003729 0.014091 0.000310 0.000000 0.000000 0.000000
# 3 -0.004853 0.000310 0.013131 0.000000 0.000000 0.000000
# 4 0.000000 0.000000 0.000000 0.045873 0.000000 0.000000
# 5 0.000000 0.000000 0.000000 0.000000 -0.146715 0.000000
# 6 0.000000 0.000000 0.000000 0.000000 0.000000 0.031195
#
#
# Mechanical properties :
#
#
# Convention : Reuss Voigt Hill
#
# Bulk Modulus (GPa) = 37.67719 38.17520 37.92619
# Shear Modulus (GPa) = -4283.21093 21.79044 -2130.71025
#
# Velocity S-wave (km/s) = -45.26882 3.22885 -31.92836
# Velocity P-wave (km/s) = 52.09922 5.67144 36.62078
#
# Compressibility (1/GPa) = 0.02654126
#
# Stress axis : x y z
#
# Youngs Moduli (GPa) = 63.03160 70.96962 76.15369
#
# Poissons Ratio (x) = 0.26465 0.36960
# Poissons Ratio (y) = 0.23505 -0.02358
# Poissons Ratio (z) = 0.30592 -0.02197
#
# Static dielectric constant tensor:
#      x y z
#    x 1.849530 0.000000 0.000000 
#    y 0.000000 1.816430 0.000000 
#    z 0.000000 0.000000 1.825290 
# 
# From -- ./inp_files/26073.got.cif
#   From: 2010.05.17/outbox.cif.g08.bks.cpg/sg68_14_cif.got.tgz:26073.got - 2010.06.03 18:57:09.
