data_PCOD9505126
_publ_section_title
;
Structure prediction by ZEFSAII (Michael W. Deem and Ramdas Pophale) SiO2 
 PCOD9505126
Probable space group: C M M A
;
_chemical_formula_sum "Si O2"
_cell_formula_units_Z 84
_cell_length_a 13.494141
_cell_length_b 18.314009
_cell_length_c 14.086550
_cell_angle_alpha 90.000000
_cell_angle_beta 90.000000
_cell_angle_gamma 90.000000
_cell_volume 3481.234735
_symmetry_space_group_name_H-M "C M M A"
_symmetry_group_IT_number 67
_symmetry_cell_setting 'orthorhombic'
loop_
_space_group_symop_operation_xyz
x,y,z
-x,1/2-y,z
x,-y,-z
-x,1/2+y,-z
-x,-y,-z
x,1/2+y,-z
-x,y,z
x,1/2-y,z
1/2+x,1/2+y,z
1/2-x,-y,z
1/2+x,1/2-y,-z
1/2-x,y,-z
1/2-x,1/2-y,-z
1/2+x,y,-z
1/2-x,1/2+y,z
1/2+x,-y,z
loop_
_atom_site_type_symbol
_atom_site_label
_atom_site_fract_x
_atom_site_fract_y
_atom_site_fract_z
Si Si1 0.885526 0.990633 0.395284
Si Si2 0.620732 0.830544 0.064767
Si Si3 0.379786 0.629133 0.850946
Si Si4 0.619593 0.537995 0.197362
Si Si5 0.750000 0.750000 0.500000
Si Si6 0.827277 0.171294 0.649627
O O1 0.879141 0.904366 0.373831
O O2 0.000000 0.012510 0.398110
O O3 0.846622 0.000000 0.500000
O O4 0.842848 0.035813 0.305988
O O5 0.500000 0.832800 0.066215
O O6 0.650740 0.750000 0.096667
O O7 0.654875 0.896362 0.131694
O O8 0.647083 0.842418 0.954680
O O9 0.500000 0.639117 0.838325
O O10 0.360276 0.542218 0.844723
O O11 0.327465 0.668847 0.762833
O O12 0.500000 0.543162 0.200311
O O13 0.732346 0.814751 0.416939
O O14 0.876557 0.250000 0.616369
#
# Coordination Sequence:
#
# PCOD9505126 Si02
#       6
#    16  16  16  16   4  16
#     4   9  17  29  46  68  93 124 162 196 237 301
#     4   9  15  21  32  56  92 131 169 198 234 295
#     4   9  15  23  40  64  88 125 169 207 247 301
#     4   8  14  24  36  54  89 129 159 196 239 284
#     4   8  20  32  44  64  92 118 154 214 260 292
#     4   9  17  30  45  62  92 119 158 204 254 287
#
# _framework density 24.129367999999999
#
# number of rings (size 3 to 8) (size 9 to 14) (size 15 to 20)
#    0.571    2.667    0.000    2.857    0.000    4.571 
#    0.000    1.429    0.000    3.429    0.000    0.000 
#    0.000    3.048    0.000    8.571    0.000   11.619 
#
# Total GULP energy -233861.160362 kJ/mol
# GULP energy per Si atom -5568.122866 kJ/mol
# Density = 2.407445 g / cm^3
# Si number density = 24.129368 Si / 1000 Ang^3
#
#
#
# Elastic Constant Matrix: (Units=GPa)
#
#
# Indices 1 2 3 4 5 6 
#
# 1 59.3823 -21.6162 -26.5075 0.0000 0.0000 0.0000
# 2 -21.6162 113.0773 42.1091 0.0000 0.0000 0.0000
# 3 -26.5075 42.1091 56.9549 0.0000 0.0000 0.0000
# 4 0.0000 0.0000 0.0000 51.1628 0.0000 0.0000
# 5 0.0000 0.0000 0.0000 0.0000 46.7190 0.0000
# 6 0.0000 0.0000 0.0000 0.0000 0.0000 13.5971
#
#
#
# Elastic Compliance Matrix: (Units=1/GPa)
#
#
# Indices 1 2 3 4 5 6 
#
# 1 0.021279 0.000524 0.009516 0.000000 0.000000 0.000000
# 2 0.000524 0.012216 -0.008788 0.000000 0.000000 0.000000
# 3 0.009516 -0.008788 0.028484 0.000000 0.000000 0.000000
# 4 0.000000 0.000000 0.000000 0.019545 0.000000 0.000000
# 5 0.000000 0.000000 0.000000 0.000000 0.021405 0.000000
# 6 0.000000 0.000000 0.000000 0.000000 0.000000 0.073545
#
#
# Mechanical properties :
#
#
# Convention : Reuss Voigt Hill
#
# Bulk Modulus (GPa) = 15.50812 24.15393 19.83102
# Shear Modulus (GPa) = 25.58008 37.99104 31.78556
#
# Velocity S-wave (km/s) = 3.25948 3.97227 3.63340
# Velocity P-wave (km/s) = 4.53946 5.57409 5.08316
#
# Compressibility (1/GPa) = 0.06448236
#
# Stress axis : x y z
#
# Youngs Moduli (GPa) = 46.99568 81.85781 35.10747
#
# Poissons Ratio (x) = -0.04290 -0.33408
# Poissons Ratio (y) = -0.02463 0.30853
# Poissons Ratio (z) = -0.44720 0.71938
#
# Static dielectric constant tensor:
#      x y z
#    x 1.871180 0.000000 0.000000 
#    y 0.000000 1.893310 0.000000 
#    z 0.000000 0.000000 1.370450 
# 
# From -- ./inp_files/21858.got.cif
#   From: 2010.05.17/outbox.cif.g08.bks.cpg/sg67_11_cif.got.tgz:21858.got - 2010.06.03 18:28:57.
