data_PCOD9505097
_publ_section_title
;
Structure prediction by ZEFSAII (Michael W. Deem and Ramdas Pophale) SiO2 
 PCOD9505097
Probable space group: C M M A
;
_chemical_formula_sum "Si O2"
_cell_formula_units_Z 56
_cell_length_a 8.786840
_cell_length_b 15.442001
_cell_length_c 20.411607
_cell_angle_alpha 90.000000
_cell_angle_beta 90.000000
_cell_angle_gamma 90.000000
_cell_volume 2769.577310
_symmetry_space_group_name_H-M "C M M A"
_symmetry_group_IT_number 67
_symmetry_cell_setting 'orthorhombic'
loop_
_space_group_symop_operation_xyz
x,y,z
-x,1/2-y,z
x,-y,-z
-x,1/2+y,-z
-x,-y,-z
x,1/2+y,-z
-x,y,z
x,1/2-y,z
1/2+x,1/2+y,z
1/2-x,-y,z
1/2+x,1/2-y,-z
1/2-x,y,-z
1/2-x,1/2-y,-z
1/2+x,y,-z
1/2-x,1/2+y,z
1/2+x,-y,z
loop_
_atom_site_type_symbol
_atom_site_label
_atom_site_fract_x
_atom_site_fract_y
_atom_site_fract_z
Si Si1 0.682032 0.750000 0.927372
Si Si2 0.320190 0.144857 0.289029
Si Si3 0.680665 0.908476 0.153767
Si Si4 0.181817 0.646794 0.433124
O O1 0.500000 0.750000 0.929186
O O2 0.742124 0.832977 0.888007
O O3 0.750000 0.750000 0.000000
O O4 0.500000 0.123904 0.280569
O O5 0.309668 0.250000 0.287109
O O6 0.224644 0.107135 0.229666
O O7 0.268636 0.114645 0.361430
O O8 0.500000 0.906620 0.145674
O O9 0.750000 0.000000 0.133305
O O10 0.217645 0.750000 0.432745
O O11 0.250000 0.609641 0.500000
O O12 0.000000 0.638788 0.435622
#
# Coordination Sequence:
#
# PCOD9505097 Si02
#       4
#     8  16  16  16
#     4  12  26  48  74 102 135 168 205 254 306 368
#     4   9  17  32  55  82 118 163 208 259 317 372
#     4  12  25  42  66  98 131 170 215 259 312 372
#     4   8  14  24  41  70 108 152 200 252 310 369
#
# _framework density 20.219691000000001
#
# number of rings (size 3 to 8) (size 9 to 14) (size 15 to 20)
#    0.000    2.000    1.429    5.571    0.000    1.714 
#    0.000    5.714    0.000    0.857    0.000    6.000 
#    0.000    0.000    0.000    0.000    0.000    0.000 
#
# Total GULP energy -156429.262919 kJ/mol
# GULP energy per Si atom -5586.759390 kJ/mol
# Density = 2.017367 g / cm^3
# Si number density = 20.219691 Si / 1000 Ang^3
#
#
#
# Elastic Constant Matrix: (Units=GPa)
#
#
# Indices 1 2 3 4 5 6 
#
# 1 132.4549 56.4220 71.4792 0.0000 0.0000 0.0000
# 2 56.4220 108.5453 65.0146 0.0000 0.0000 0.0000
# 3 71.4792 65.0146 167.9310 0.0000 0.0000 0.0000
# 4 0.0000 0.0000 0.0000 -21.8696 0.0000 0.0000
# 5 0.0000 0.0000 0.0000 0.0000 41.7853 0.0000
# 6 0.0000 0.0000 0.0000 0.0000 0.0000 22.0863
#
#
#
# Elastic Compliance Matrix: (Units=1/GPa)
#
#
# Indices 1 2 3 4 5 6 
#
# 1 0.010856 -0.003743 -0.003172 0.000000 0.000000 0.000000
# 2 -0.003743 0.013285 -0.003550 0.000000 0.000000 0.000000
# 3 -0.003172 -0.003550 0.008679 0.000000 0.000000 0.000000
# 4 0.000000 0.000000 0.000000 -0.045726 0.000000 0.000000
# 5 0.000000 0.000000 0.000000 0.000000 0.023932 0.000000
# 6 0.000000 0.000000 0.000000 0.000000 0.000000 0.045277
#
#
# Mechanical properties :
#
#
# Convention : Reuss Voigt Hill
#
# Bulk Modulus (GPa) = 84.10204 88.30700 86.20452
# Shear Modulus (GPa) = 61.57969 22.80142 42.19055
#
# Velocity S-wave (km/s) = 5.52462 3.36174 4.57290
# Velocity P-wave (km/s) = 9.07632 7.67053 8.40288
#
# Compressibility (1/GPa) = 0.01189032
#
# Stress axis : x y z
#
# Youngs Moduli (GPa) = 92.11714 75.27441 115.21898
#
# Poissons Ratio (x) = 0.28177 0.36542
# Poissons Ratio (y) = 0.34481 0.40902
# Poissons Ratio (z) = 0.29215 0.26722
#
# Static dielectric constant tensor:
#      x y z
#    x 1.670250 0.000000 0.000000 
#    y 0.000000 1.735210 0.000000 
#    z 0.000000 0.000000 1.736720 
# 
# From -- ./inp_files/36514.got.cif
#   From: 2010.05.17/outbox.cif.g08.bks.cpg/sg67_19_cif.got.tgz:36514.got - 2010.06.03 18:28:57.
