data_PCOD9505742
_publ_section_title
;
Structure prediction by ZEFSAII (Michael W. Deem and Ramdas Pophale) SiO2 
 PCOD9505742
Probable space group: C C C A
;
_chemical_formula_sum "Si O2"
_cell_formula_units_Z 56
_cell_length_a 5.226543
_cell_length_b 25.536290
_cell_length_c 22.232371
_cell_angle_alpha 90.000000
_cell_angle_beta 90.000000
_cell_angle_gamma 90.000000
_cell_volume 2967.277139
_symmetry_space_group_name_H-M "C C C A"
_symmetry_group_IT_number 68
_space_group.IT_coordinate_system_code '2'
_symmetry_cell_setting 'orthorhombic'
loop_
_space_group_symop_operation_xyz
x,y,z
-x,1/2-y,z
x,1/2-y,1/2-z
-x,y,1/2-z
-x,-y,-z
x,1/2+y,-z
-x,1/2+y,1/2+z
x,-y,1/2+z
1/2+x,1/2+y,z
1/2-x,-y,z
1/2+x,-y,1/2-z
1/2-x,1/2+y,1/2-z
1/2-x,1/2-y,-z
1/2+x,y,-z
1/2-x,y,1/2+z
1/2+x,1/2-y,1/2+z
loop_
_atom_site_type_symbol
_atom_site_label
_atom_site_fract_x
_atom_site_fract_y
_atom_site_fract_z
Si Si1 0.128266 0.888586 0.684024
Si Si2 0.250000 0.000000 0.207509
Si Si3 0.194639 0.298016 0.138559
Si Si4 0.000000 0.315375 0.750000
Si Si5 0.500000 0.750000 0.542131
O O1 0.366743 0.852546 0.700875
O O2 0.000000 0.894255 0.750000
O O3 0.949132 0.853650 0.641586
O O4 0.200442 0.947805 0.668566
O O5 0.500000 0.009904 0.250000
O O6 0.297808 0.287723 0.206127
O O7 0.421874 0.295368 0.089817
O O8 0.000000 0.250000 0.125154
O O9 0.750000 0.750000 0.500000
#
# Coordination Sequence:
#
# PCOD9505742 Si02
#       5
#    16   8  16   8   8
#     4   9  19  32  52  83 120 161 195 234 289 353
#     4  10  18  34  52  80 122 164 198 232 280 364
#     4  11  23  38  57  87 123 157 201 242 301 365
#     4  10  20  33  54  88 126 156 187 232 292 348
#     4  12  26  45  60  81 112 158 208 260 304 354
#
# _framework density 18.872520999999999
#
# number of rings (size 3 to 8) (size 9 to 14) (size 15 to 20)
#    0.000    1.714    2.857    1.714    0.000   13.714 
#    0.000    0.000    0.000    0.000    0.000    2.000 
#    0.000    0.286    0.000    0.000    0.000    0.000 
#
# Total GULP energy -155883.664609 kJ/mol
# GULP energy per Si atom -5567.273736 kJ/mol
# Density = 1.882957 g / cm^3
# Si number density = 18.872521 Si / 1000 Ang^3
#
#
#
# Elastic Constant Matrix: (Units=GPa)
#
#
# Indices 1 2 3 4 5 6 
#
# 1 109.2557 43.4269 40.6754 0.0000 0.0000 0.0000
# 2 43.4269 119.9858 51.4026 0.0000 0.0000 0.0000
# 3 40.6754 51.4026 87.5647 0.0000 0.0000 0.0000
# 4 0.0000 0.0000 0.0000 -2.4659 0.0000 0.0000
# 5 0.0000 0.0000 0.0000 0.0000 39.9359 0.0000
# 6 0.0000 0.0000 0.0000 0.0000 0.0000 31.1355
#
#
#
# Elastic Compliance Matrix: (Units=1/GPa)
#
#
# Indices 1 2 3 4 5 6 
#
# 1 0.011614 -0.002528 -0.003911 0.000000 0.000000 0.000000
# 2 -0.002528 0.011685 -0.005685 0.000000 0.000000 0.000000
# 3 -0.003911 -0.005685 0.016574 0.000000 0.000000 0.000000
# 4 0.000000 0.000000 0.000000 -0.405530 0.000000 0.000000
# 5 0.000000 0.000000 0.000000 0.000000 0.025040 0.000000
# 6 0.000000 0.000000 0.000000 0.000000 0.000000 0.032118
#
#
# Mechanical properties :
#
#
# Convention : Reuss Voigt Hill
#
# Bulk Modulus (GPa) = 64.00013 65.31289 64.65651
# Shear Modulus (GPa) = -17.91830 25.80785 3.94477
#
# Velocity S-wave (km/s) = -3.08464 3.70196 1.44733
# Velocity P-wave (km/s) = 4.61506 7.27703 6.09319
#
# Compressibility (1/GPa) = 0.01562497
#
# Stress axis : x y z
#
# Youngs Moduli (GPa) = 86.10592 85.58169 60.33570
#
# Poissons Ratio (x) = 0.21635 0.23596
# Poissons Ratio (y) = 0.21767 0.34301
# Poissons Ratio (z) = 0.33674 0.48653
#
# Static dielectric constant tensor:
#      x y z
#    x 1.806460 0.000000 0.000000 
#    y 0.000000 1.779900 0.000000 
#    z 0.000000 0.000000 1.656140 
# 
# From -- ./inp_files/35040.got.cif
#   From: 2010.05.17/outbox.cif.g08.bks.cpg/sg68_18_cif.got.tgz:35040.got - 2010.06.03 18:57:09.
