data_PCOD9505541
_publ_section_title
;
Structure prediction by ZEFSAII (Michael W. Deem and Ramdas Pophale) SiO2 
 PCOD9505541
Probable space group: C C C A
;
_chemical_formula_sum "Si O2"
_cell_formula_units_Z 72
_cell_length_a 16.962822
_cell_length_b 9.308340
_cell_length_c 23.355510
_cell_angle_alpha 90.000000
_cell_angle_beta 90.000000
_cell_angle_gamma 90.000000
_cell_volume 3687.734940
_symmetry_space_group_name_H-M "C C C A"
_symmetry_group_IT_number 68
_space_group.IT_coordinate_system_code '2'
_symmetry_cell_setting 'orthorhombic'
loop_
_space_group_symop_operation_xyz
x,y,z
-x,1/2-y,z
x,1/2-y,1/2-z
-x,y,1/2-z
-x,-y,-z
x,1/2+y,-z
-x,1/2+y,1/2+z
x,-y,1/2+z
1/2+x,1/2+y,z
1/2-x,-y,z
1/2+x,-y,1/2-z
1/2-x,1/2+y,1/2-z
1/2-x,1/2-y,-z
1/2+x,y,-z
1/2-x,y,1/2+z
1/2+x,1/2-y,1/2+z
loop_
_atom_site_type_symbol
_atom_site_label
_atom_site_fract_x
_atom_site_fract_y
_atom_site_fract_z
Si Si1 0.371488 0.407075 0.159476
Si Si2 0.000000 0.448311 0.750000
Si Si3 0.008731 0.919548 0.440056
Si Si4 0.433914 0.376483 0.853096
Si Si5 0.711360 0.210410 0.683364
O O1 0.439408 0.371143 0.206153
O O2 0.411621 0.432545 0.098019
O O3 0.331098 0.555800 0.178515
O O4 0.300097 0.295428 0.159750
O O5 0.951020 0.552215 0.708215
O O6 0.000000 0.750000 0.448320
O O7 0.000000 0.000000 0.500000
O O8 0.945930 0.998345 0.399041
O O9 0.500000 0.250000 0.862272
O O10 0.346935 0.313506 0.851054
O O11 0.715201 0.250000 0.750000
#
# Coordination Sequence:
#
# PCOD9505541 Si02
#       5
#    16   8  16  16  16
#     4  10  23  36  61 100 135 168 229 275 331 407
#     4  10  17  34  63  96 131 180 225 268 331 422
#     4  11  25  44  67  92 121 171 231 288 335 395
#     4  11  18  36  67  92 127 176 224 264 333 416
#     4  11  20  37  64 100 138 178 210 270 344 418
#
# _framework density 19.524180999999999
#
# number of rings (size 3 to 8) (size 9 to 14) (size 15 to 20)
#    0.000    1.333    6.667    1.000    0.000    3.556 
#    0.000    6.111    0.000    0.000    0.000    0.000 
#    0.000    0.000    0.000    0.000    0.000    0.000 
#
# Total GULP energy -200946.798408 kJ/mol
# GULP energy per Si atom -5581.855511 kJ/mol
# Density = 1.947974 g / cm^3
# Si number density = 19.524181 Si / 1000 Ang^3
#
#
#
# Elastic Constant Matrix: (Units=GPa)
#
#
# Indices 1 2 3 4 5 6 
#
# 1 166.4133 55.6603 59.9741 0.0000 0.0000 0.0000
# 2 55.6603 97.0797 58.3508 0.0000 0.0000 0.0000
# 3 59.9741 58.3508 143.1754 0.0000 0.0000 0.0000
# 4 0.0000 0.0000 0.0000 -24.1849 0.0000 0.0000
# 5 0.0000 0.0000 0.0000 0.0000 4.9077 0.0000
# 6 0.0000 0.0000 0.0000 0.0000 0.0000 37.9678
#
#
#
# Elastic Compliance Matrix: (Units=1/GPa)
#
#
# Indices 1 2 3 4 5 6 
#
# 1 0.007813 -0.003327 -0.001917 0.000000 0.000000 0.000000
# 2 -0.003327 0.015060 -0.004744 0.000000 0.000000 0.000000
# 3 -0.001917 -0.004744 0.009721 0.000000 0.000000 0.000000
# 4 0.000000 0.000000 0.000000 -0.041348 0.000000 0.000000
# 5 0.000000 0.000000 0.000000 0.000000 0.203761 0.000000
# 6 0.000000 0.000000 0.000000 0.000000 0.000000 0.026338
#
#
# Mechanical properties :
#
#
# Convention : Reuss Voigt Hill
#
# Bulk Modulus (GPa) = 79.25423 83.84877 81.55150
# Shear Modulus (GPa) = 20.36442 19.25033 19.80737
#
# Velocity S-wave (km/s) = 3.23311 3.14343 3.18858
# Velocity P-wave (km/s) = 7.39042 7.49761 7.44421
#
# Compressibility (1/GPa) = 0.01261762
#
# Stress axis : x y z
#
# Youngs Moduli (GPa) = 127.99526 66.40145 102.87445
#
# Poissons Ratio (x) = 0.22095 0.19717
# Poissons Ratio (y) = 0.42590 0.48802
# Poissons Ratio (z) = 0.24531 0.31500
#
# Static dielectric constant tensor:
#      x y z
#    x 1.689110 0.000000 0.000000 
#    y 0.000000 1.857750 0.000000 
#    z 0.000000 0.000000 1.672210 
# 
# From -- ./inp_files/39285.got.cif
#   From: 2010.05.17/outbox.cif.g08.bks.cpg/sg68_20_cif.got.tgz:39285.got - 2010.06.03 18:57:09.
