data_PCOD9505991
_publ_section_title
;
Structure prediction by ZEFSAII (Michael W. Deem and Ramdas Pophale) SiO2 
 PCOD9505991
Probable space group: C C C A
;
_chemical_formula_sum "Si O2"
_cell_formula_units_Z 88
_cell_length_a 28.111754
_cell_length_b 5.372525
_cell_length_c 30.166149
_cell_angle_alpha 90.000000
_cell_angle_beta 90.000000
_cell_angle_gamma 90.000000
_cell_volume 4556.026701
_symmetry_space_group_name_H-M "C C C A"
_symmetry_group_IT_number 68
_space_group.IT_coordinate_system_code '2'
_symmetry_cell_setting 'orthorhombic'
loop_
_space_group_symop_operation_xyz
x,y,z
-x,1/2-y,z
x,1/2-y,1/2-z
-x,y,1/2-z
-x,-y,-z
x,1/2+y,-z
-x,1/2+y,1/2+z
x,-y,1/2+z
1/2+x,1/2+y,z
1/2-x,-y,z
1/2+x,-y,1/2-z
1/2-x,1/2+y,1/2-z
1/2-x,1/2-y,-z
1/2+x,y,-z
1/2-x,y,1/2+z
1/2+x,1/2-y,1/2+z
loop_
_atom_site_type_symbol
_atom_site_label
_atom_site_fract_x
_atom_site_fract_y
_atom_site_fract_z
Si Si1 0.701730 0.750000 0.750000
Si Si2 0.445986 0.732060 0.527835
Si Si3 0.857788 0.750000 0.750000
Si Si4 0.635479 0.342270 0.098687
Si Si5 0.750000 0.000000 0.672605
Si Si6 0.854596 0.849610 0.650916
Si Si7 0.304149 0.235629 0.019243
O O1 0.671705 0.502500 0.744221
O O2 0.731616 0.787848 0.705920
O O3 0.500000 0.750000 0.545776
O O4 0.441502 0.452126 0.508795
O O5 0.406220 0.797004 0.563564
O O6 0.876666 0.795369 0.699820
O O7 0.633979 0.614982 0.119935
O O8 0.685153 0.308490 0.070853
O O9 0.629851 0.120148 0.133803
O O10 0.796805 0.885510 0.650467
O O11 0.325992 0.499233 0.005769
O O12 0.250000 0.250000 0.000000
#
# Coordination Sequence:
#
# PCOD9505991 Si02
#       7
#     8  16   8  16   8  16  16
#     4  10  19  32  54  66  96 143 202 247 278 314
#     4  10  21  40  66  90 114 145 181 230 294 352
#     4  10  21  40  52  76 107 153 196 243 297 324
#     4  12  23  37  55  87 113 144 190 237 280 339
#     4  10  20  34  48  74 104 152 196 238 280 322
#     4  11  24  35  55  79 115 151 195 242 278 328
#     4  10  21  36  51  69 106 150 179 209 259 322
#
# _framework density 19.315076000000001
#
# number of rings (size 3 to 8) (size 9 to 14) (size 15 to 20)
#    0.000    1.455    0.000    7.636    0.000    8.000 
#    0.000    0.000    0.000    0.000    0.000    3.818 
#    0.000    0.000    0.000    0.000    0.000    0.000 
#
# Total GULP energy -245172.985765 kJ/mol
# GULP energy per Si atom -5572.113313 kJ/mol
# Density = 1.927111 g / cm^3
# Si number density = 19.315076 Si / 1000 Ang^3
#
#
#
# Elastic Constant Matrix: (Units=GPa)
#
#
# Indices 1 2 3 4 5 6 
#
# 1 68.0842 -5.3169 12.4073 0.0000 0.0000 0.0000
# 2 -5.3169 118.8041 -3.5940 0.0000 0.0000 0.0000
# 3 12.4073 -3.5940 47.6527 0.0000 0.0000 0.0000
# 4 0.0000 0.0000 0.0000 40.3518 0.0000 0.0000
# 5 0.0000 0.0000 0.0000 0.0000 16.3327 0.0000
# 6 0.0000 0.0000 0.0000 0.0000 0.0000 12.7924
#
#
#
# Elastic Compliance Matrix: (Units=1/GPa)
#
#
# Indices 1 2 3 4 5 6 
#
# 1 0.015458 0.000571 -0.003982 0.000000 0.000000 0.000000
# 2 0.000571 0.008458 0.000489 0.000000 0.000000 0.000000
# 3 -0.003982 0.000489 0.022059 0.000000 0.000000 0.000000
# 4 0.000000 0.000000 0.000000 0.024782 0.000000 0.000000
# 5 0.000000 0.000000 0.000000 0.000000 0.061227 0.000000
# 6 0.000000 0.000000 0.000000 0.000000 0.000000 0.078171
#
#
# Mechanical properties :
#
#
# Convention : Reuss Voigt Hill
#
# Bulk Modulus (GPa) = 24.91787 26.83708 25.87747
# Shear Modulus (GPa) = 21.79843 29.29834 25.54839
#
# Velocity S-wave (km/s) = 3.36306 3.89892 3.64086
# Velocity P-wave (km/s) = 5.29235 5.84750 5.57684
#
# Compressibility (1/GPa) = 0.04013184
#
# Stress axis : x y z
#
# Youngs Moduli (GPa) = 64.69175 118.23706 45.33347
#
# Poissons Ratio (x) = -0.06755 0.18050
# Poissons Ratio (y) = -0.03696 -0.02217
# Poissons Ratio (z) = 0.25758 -0.05783
#
# Static dielectric constant tensor:
#      x y z
#    x 1.818240 0.000000 0.000000 
#    y 0.000000 1.692590 0.000000 
#    z 0.000000 0.000000 1.733380 
# 
# From -- ./inp_files/52477.got.cif
#   From: 2010.05.17/outbox.cif.g08.bks.cpg/sg68_27_cif.got.tgz:52477.got - 2010.06.03 18:57:09.
