data_PCOD9505046
_publ_section_title
;
Structure prediction by ZEFSAII (Michael W. Deem and Ramdas Pophale) SiO2 
 PCOD9505046
Probable space group: C M M A
;
_chemical_formula_sum "Si O2"
_cell_formula_units_Z 52
_cell_length_a 21.635137
_cell_length_b 7.598168
_cell_length_c 14.351014
_cell_angle_alpha 90.000000
_cell_angle_beta 90.000000
_cell_angle_gamma 90.000000
_cell_volume 2359.125960
_symmetry_space_group_name_H-M "C M M A"
_symmetry_group_IT_number 67
_symmetry_cell_setting 'orthorhombic'
loop_
_space_group_symop_operation_xyz
x,y,z
-x,1/2-y,z
x,-y,-z
-x,1/2+y,-z
-x,-y,-z
x,1/2+y,-z
-x,y,z
x,1/2-y,z
1/2+x,1/2+y,z
1/2-x,-y,z
1/2+x,1/2-y,-z
1/2-x,y,-z
1/2-x,1/2-y,-z
1/2+x,y,-z
1/2-x,1/2+y,z
1/2+x,-y,z
loop_
_atom_site_type_symbol
_atom_site_label
_atom_site_fract_x
_atom_site_fract_y
_atom_site_fract_z
Si Si1 0.000000 0.250000 0.162221
Si Si2 0.431474 0.961580 0.390663
Si Si3 0.902209 0.049465 0.891576
Si Si4 0.680463 0.040447 0.736804
O O1 0.053392 0.405271 0.155269
O O2 0.500000 0.027994 0.362625
O O3 0.433811 0.750000 0.378388
O O4 0.372933 0.027990 0.333091
O O5 0.424045 0.000000 0.500000
O O6 0.925155 0.250000 0.884959
O O7 0.837530 0.035790 0.837326
O O8 0.898196 0.000000 0.000000
O O9 0.675616 0.250000 0.740819
O O10 0.750000 0.000000 0.707464
#
# Coordination Sequence:
#
# PCOD9505046 Si02
#       4
#     4  16  16  16
#     4  12  24  44  66 100 142 162 232 270 334 390
#     4   9  20  39  65  93 128 165 210 273 336 392
#     4  12  25  42  67 100 134 179 217 274 333 392
#     4  11  24  43  65  93 131 176 225 275 329 397
#
# _framework density 22.042061
#
# number of rings (size 3 to 8) (size 9 to 14) (size 15 to 20)
#    0.000    1.231    3.077    1.846    2.154    3.692 
#    0.000    6.154    0.000    0.000    0.000    0.000 
#    0.000    0.000    0.000    0.000    0.000    0.000 
#
# Total GULP energy -144868.329561 kJ/mol
# GULP energy per Si atom -5571.858829 kJ/mol
# Density = 2.199189 g / cm^3
# Si number density = 22.042061 Si / 1000 Ang^3
#
#
#
# Elastic Constant Matrix: (Units=GPa)
#
#
# Indices 1 2 3 4 5 6 
#
# 1 187.3262 37.8832 62.2412 0.0000 0.0000 0.0000
# 2 37.8832 154.0579 21.2634 0.0000 0.0000 0.0000
# 3 62.2412 21.2634 66.4975 0.0000 0.0000 0.0000
# 4 0.0000 0.0000 0.0000 20.1803 0.0000 0.0000
# 5 0.0000 0.0000 0.0000 0.0000 6.3980 0.0000
# 6 0.0000 0.0000 0.0000 0.0000 0.0000 38.4429
#
#
#
# Elastic Compliance Matrix: (Units=1/GPa)
#
#
# Indices 1 2 3 4 5 6 
#
# 1 0.007882 -0.000962 -0.007070 0.000000 0.000000 0.000000
# 2 -0.000962 0.006908 -0.001308 0.000000 0.000000 0.000000
# 3 -0.007070 -0.001308 0.022074 0.000000 0.000000 0.000000
# 4 0.000000 0.000000 0.000000 0.049553 0.000000 0.000000
# 5 0.000000 0.000000 0.000000 0.000000 0.156300 0.000000
# 6 0.000000 0.000000 0.000000 0.000000 0.000000 0.026013
#
#
# Mechanical properties :
#
#
# Convention : Reuss Voigt Hill
#
# Bulk Modulus (GPa) = 54.99560 72.29525 63.64543
# Shear Modulus (GPa) = 17.03746 32.10382 24.57064
#
# Velocity S-wave (km/s) = 2.78322 3.82053 3.34236
# Velocity P-wave (km/s) = 5.94415 7.23408 6.62060
#
# Compressibility (1/GPa) = 0.01818327
#
# Stress axis : x y z
#
# Youngs Moduli (GPa) = 126.87336 144.75378 45.30296
#
# Poissons Ratio (x) = 0.13931 0.32028
# Poissons Ratio (y) = 0.12210 0.05927
# Poissons Ratio (z) = 0.89695 0.18937
#
# Static dielectric constant tensor:
#      x y z
#    x 1.823460 0.000000 0.000000 
#    y 0.000000 1.809870 0.000000 
#    z 0.000000 0.000000 1.843240 
# 
# From -- ./inp_files/24512.got.cif
#   From: 2010.05.17/outbox.cif.g08.bks.cpg/sg67_13_cif.got.tgz:24512.got - 2010.06.03 18:28:57.
