data_PCOD9505092
_publ_section_title
;
Structure prediction by ZEFSAII (Michael W. Deem and Ramdas Pophale) SiO2 
 PCOD9505092
Probable space group: C M M A
;
_chemical_formula_sum "Si O2"
_cell_formula_units_Z 72
_cell_length_a 26.186270
_cell_length_b 8.456550
_cell_length_c 17.350535
_cell_angle_alpha 90.000000
_cell_angle_beta 90.000000
_cell_angle_gamma 90.000000
_cell_volume 3842.197926
_symmetry_space_group_name_H-M "C M M A"
_symmetry_group_IT_number 67
_symmetry_cell_setting 'orthorhombic'
loop_
_space_group_symop_operation_xyz
x,y,z
-x,1/2-y,z
x,-y,-z
-x,1/2+y,-z
-x,-y,-z
x,1/2+y,-z
-x,y,z
x,1/2-y,z
1/2+x,1/2+y,z
1/2-x,-y,z
1/2+x,1/2-y,-z
1/2-x,y,-z
1/2-x,1/2-y,-z
1/2+x,y,-z
1/2-x,1/2+y,z
1/2+x,-y,z
loop_
_atom_site_type_symbol
_atom_site_label
_atom_site_fract_x
_atom_site_fract_y
_atom_site_fract_z
Si Si1 0.444921 0.442014 0.374334
Si Si2 0.834182 0.940585 0.419911
Si Si3 0.000000 0.436872 0.086590
Si Si4 0.696077 0.559398 0.750760
Si Si5 0.414548 0.559611 0.799917
O O1 0.500000 0.501068 0.402048
O O2 0.444964 0.250000 0.379663
O O3 0.393280 0.497377 0.414751
O O4 0.438265 0.480177 0.283791
O O5 0.833527 0.750000 0.420169
O O6 0.809632 0.992949 0.338958
O O7 0.811571 0.000000 0.500000
O O8 0.049934 0.493369 0.133445
O O9 0.000000 0.250000 0.084677
O O10 0.000000 0.500000 0.000000
O O11 0.695800 0.750000 0.750541
O O12 0.750000 0.500000 0.781608
O O13 0.644754 0.507908 0.795408
O O14 0.415195 0.750000 0.805590
#
# Coordination Sequence:
#
# PCOD9505092 Si02
#       5
#    16  16   8  16  16
#     4   8  13  25  48  68  88 128 173 210 256 314
#     4   9  18  30  43  65  95 131 175 220 269 316
#     4  12  24  36  56  88 119 144 167 200 249 302
#     4   9  19  34  54  77 101 137 182 223 268 316
#     4   9  17  34  57  78 104 140 177 213 256 310
#
# _framework density 18.739274000000002
#
# number of rings (size 3 to 8) (size 9 to 14) (size 15 to 20)
#    0.000    2.889    1.111    3.667    0.000    2.667 
#    0.000    5.556    0.000    0.667    0.000    4.667 
#    0.000    0.000    0.000    0.000    0.000    0.000 
#
# Total GULP energy -200675.861576 kJ/mol
# GULP energy per Si atom -5574.329488 kJ/mol
# Density = 1.869662 g / cm^3
# Si number density = 18.739274 Si / 1000 Ang^3
#
#
#
# Elastic Constant Matrix: (Units=GPa)
#
#
# Indices 1 2 3 4 5 6 
#
# 1 161.5718 23.1628 47.9792 0.0000 0.0000 0.0000
# 2 23.1628 18.4423 23.0696 0.0000 0.0000 0.0000
# 3 47.9792 23.0696 106.8771 0.0000 0.0000 0.0000
# 4 0.0000 0.0000 0.0000 21.8212 0.0000 0.0000
# 5 0.0000 0.0000 0.0000 0.0000 59.0341 0.0000
# 6 0.0000 0.0000 0.0000 0.0000 0.0000 19.5899
#
#
#
# Elastic Compliance Matrix: (Units=1/GPa)
#
#
# Indices 1 2 3 4 5 6 
#
# 1 0.007822 -0.007440 -0.001905 0.000000 0.000000 0.000000
# 2 -0.007440 0.081357 -0.014221 0.000000 0.000000 0.000000
# 3 -0.001905 -0.014221 0.013281 0.000000 0.000000 0.000000
# 4 0.000000 0.000000 0.000000 0.045827 0.000000 0.000000
# 5 0.000000 0.000000 0.000000 0.000000 0.016939 0.000000
# 6 0.000000 0.000000 0.000000 0.000000 0.000000 0.051047
#
#
# Mechanical properties :
#
#
# Convention : Reuss Voigt Hill
#
# Bulk Modulus (GPa) = 18.07438 52.81272 35.44355
# Shear Modulus (GPa) = 17.74003 32.93435 25.33719
#
# Velocity S-wave (km/s) = 3.08015 4.19681 3.68107
# Velocity P-wave (km/s) = 4.72397 7.19224 6.08458
#
# Compressibility (1/GPa) = 0.05532692
#
# Stress axis : x y z
#
# Youngs Moduli (GPa) = 127.85097 12.29152 75.29284
#
# Poissons Ratio (x) = 0.09145 0.14345
# Poissons Ratio (y) = 0.95125 1.07074
# Poissons Ratio (z) = 0.24359 0.17480
#
# Static dielectric constant tensor:
#      x y z
#    x 1.689940 0.000000 0.000000 
#    y 0.000000 1.641250 0.000000 
#    z 0.000000 0.000000 1.733330 
# 
# From -- ./inp_files/30528.got.cif
#   From: 2010.05.17/outbox.cif.g08.bks.cpg/sg67_16_cif.got.tgz:30528.got - 2010.06.03 18:28:57.
