data_PCOD9505410
_publ_section_title
;
Structure prediction by ZEFSAII (Michael W. Deem and Ramdas Pophale) SiO2 
 PCOD9505410
Probable space group: C C C A
;
_chemical_formula_sum "Si O2"
_cell_formula_units_Z 104
_cell_length_a 12.637754
_cell_length_b 24.110823
_cell_length_c 18.600018
_cell_angle_alpha 90.000000
_cell_angle_beta 90.000000
_cell_angle_gamma 90.000000
_cell_volume 5667.549171
_symmetry_space_group_name_H-M "C C C A"
_symmetry_group_IT_number 68
_space_group.IT_coordinate_system_code '2'
_symmetry_cell_setting 'orthorhombic'
loop_
_space_group_symop_operation_xyz
x,y,z
-x,1/2-y,z
x,1/2-y,1/2-z
-x,y,1/2-z
-x,-y,-z
x,1/2+y,-z
-x,1/2+y,1/2+z
x,-y,1/2+z
1/2+x,1/2+y,z
1/2-x,-y,z
1/2+x,-y,1/2-z
1/2-x,1/2+y,1/2-z
1/2-x,1/2-y,-z
1/2+x,y,-z
1/2-x,y,1/2+z
1/2+x,1/2-y,1/2+z
loop_
_atom_site_type_symbol
_atom_site_label
_atom_site_fract_x
_atom_site_fract_y
_atom_site_fract_z
Si Si1 0.291772 0.416770 0.691348
Si Si2 0.500000 0.155970 0.250000
Si Si3 0.500000 0.976062 0.250000
Si Si4 0.010734 0.432893 0.870500
Si Si5 0.752744 0.897892 0.396361
Si Si6 0.750000 0.500000 0.201555
Si Si7 0.733638 0.310794 0.226750
Si Si8 0.302371 0.057575 0.459858
O O1 0.404328 0.439313 0.719231
O O2 0.209260 0.455372 0.736977
O O3 0.275518 0.354281 0.714624
O O4 0.269315 0.425587 0.608312
O O5 0.526153 0.116867 0.181763
O O6 0.394152 0.188461 0.230369
O O7 0.468448 0.015522 0.183043
O O8 0.920720 0.447512 0.928028
O O9 0.122103 0.412247 0.902381
O O10 0.709778 0.951569 0.352444
O O11 0.738272 0.842222 0.348680
O O12 0.702479 0.899393 0.474813
O O13 0.771240 0.250000 0.250000
O O14 0.250000 0.000000 0.485811
#
# Coordination Sequence:
#
# PCOD9505410 Si02
#       8
#    16   8   8  16  16   8  16  16
#     4  11  20  34  56  83 113 151 200 240 293 355
#     4   9  17  34  65  90 105 136 196 260 294 342
#     4  11  18  32  58  86 110 158 201 244 286 352
#     4  10  19  34  56  85 122 153 188 239 302 362
#     4  10  22  35  54  86 124 149 193 242 301 359
#     4  10  16  34  52  78 116 146 186 242 282 340
#     4  10  21  39  62  85 109 149 202 254 294 339
#     4  12  21  34  54  87 129 159 186 238 313 380
#
# _framework density 18.350083999999999
#
# number of rings (size 3 to 8) (size 9 to 14) (size 15 to 20)
#    0.000    1.538    6.154    0.231    0.000    0.615 
#    5.538    1.154    0.000    0.000    0.000    0.000 
#    0.000    0.000    0.000    0.000    0.000    0.000 
#
# Total GULP energy -289500.404859 kJ/mol
# GULP energy per Si atom -5567.315478 kJ/mol
# Density = 1.830832 g / cm^3
# Si number density = 18.350084 Si / 1000 Ang^3
#
#
#
# Elastic Constant Matrix: (Units=GPa)
#
#
# Indices 1 2 3 4 5 6 
#
# 1 49.9786 23.7304 19.1809 0.0000 0.0000 0.0000
# 2 23.7304 131.4556 39.5137 0.0000 0.0000 0.0000
# 3 19.1809 39.5137 122.4910 0.0000 0.0000 0.0000
# 4 0.0000 0.0000 0.0000 13.9324 0.0000 0.0000
# 5 0.0000 0.0000 0.0000 0.0000 23.4943 0.0000
# 6 0.0000 0.0000 0.0000 0.0000 0.0000 15.2957
#
#
#
# Elastic Compliance Matrix: (Units=1/GPa)
#
#
# Indices 1 2 3 4 5 6 
#
# 1 0.022531 -0.003330 -0.002454 0.000000 0.000000 0.000000
# 2 -0.003330 0.008916 -0.002355 0.000000 0.000000 0.000000
# 3 -0.002454 -0.002355 0.009308 0.000000 0.000000 0.000000
# 4 0.000000 0.000000 0.000000 0.071775 0.000000 0.000000
# 5 0.000000 0.000000 0.000000 0.000000 0.042564 0.000000
# 6 0.000000 0.000000 0.000000 0.000000 0.000000 0.065378
#
#
# Mechanical properties :
#
#
# Convention : Reuss Voigt Hill
#
# Bulk Modulus (GPa) = 40.85293 52.08612 46.46953
# Shear Modulus (GPa) = 20.41579 25.31114 22.86347
#
# Velocity S-wave (km/s) = 3.33914 3.71799 3.53364
# Velocity P-wave (km/s) = 6.09737 6.84672 6.48288
#
# Compressibility (1/GPa) = 0.02447805
#
# Stress axis : x y z
#
# Youngs Moduli (GPa) = 44.38257 112.15761 107.43715
#
# Poissons Ratio (x) = 0.37345 0.26366
# Poissons Ratio (y) = 0.14778 0.25299
# Poissons Ratio (z) = 0.10892 0.26411
#
# Static dielectric constant tensor:
#      x y z
#    x 1.969520 0.000000 0.000000 
#    y 0.000000 1.641120 0.000000 
#    z 0.000000 0.000000 1.649150 
# 
# From -- ./inp_files/31151.got.cif
#   From: 2010.05.17/outbox.cif.g08.bks.cpg/sg68_16_cif.got.tgz:31151.got - 2010.06.03 18:57:09.
