data_PCOD9505243
_publ_section_title
;
Structure prediction by ZEFSAII (Michael W. Deem and Ramdas Pophale) SiO2 
 PCOD9505243
Probable space group: C M M A
;
_chemical_formula_sum "Si O2"
_cell_formula_units_Z 36
_cell_length_a 9.000000
_cell_length_b 15.000000
_cell_length_c 27.000000
_cell_angle_alpha 90.000000
_cell_angle_beta 90.000000
_cell_angle_gamma 90.000000
_cell_volume 3645.000000
_symmetry_space_group_name_H-M "C M M A"
_symmetry_group_IT_number 67
_symmetry_cell_setting 'orthorhombic'
loop_
_space_group_symop_operation_xyz
x,y,z
-x,1/2-y,z
x,-y,-z
-x,1/2+y,-z
-x,-y,-z
x,1/2+y,-z
-x,y,z
x,1/2-y,z
1/2+x,1/2+y,z
1/2-x,-y,z
1/2+x,1/2-y,-z
1/2-x,y,-z
1/2-x,1/2-y,-z
1/2+x,y,-z
1/2-x,1/2+y,z
1/2+x,-y,z
loop_
_atom_site_type_symbol
_atom_site_label
_atom_site_fract_x
_atom_site_fract_y
_atom_site_fract_z
Si Si1 0.834062 0.250000 0.402187
Si Si2 0.824736 0.404715 0.765285
Si Si3 0.679797 0.250000 0.052887
Si Si4 0.336970 0.250000 0.713464
Si Si5 0.324143 0.914986 0.554005
Si Si6 0.176689 0.594883 0.123268
O O1 0.853806 0.250000 0.344489
O O2 0.734674 0.331998 0.417205
O O3 0.000000 0.250000 0.426028
O O4 0.750000 0.500000 0.760259
O O5 0.753401 0.335994 0.728631
O O6 0.794802 0.371643 0.821195
O O7 0.000000 0.412073 0.758572
O O8 0.500000 0.250000 0.051046
O O9 0.729747 0.164061 0.083139
O O10 0.750000 0.250000 0.000000
O O11 0.500000 0.250000 0.737438
O O12 0.500000 0.922321 0.550011
O O13 0.250000 0.908095 0.500000
O O14 0.250000 0.000000 0.578979
O O15 0.250000 0.500000 0.117312
O O16 0.000000 0.585037 0.118776
#
# Coordination Sequence:
#
# PCOD9505243 Si02
#       6
#     8  16   8   8  16  16
#     4  11  24  41  58  82 117 154 191 232 279 332
#     4  10  20  37  61  85 111 144 185 232 281 332
#     4  10  21  36  52  75 109 144 179 218 269 325
#     4  11  24  39  57  83 116 152 189 230 278 333
#     4  11  22  39  63  89 116 149 190 235 282 332
#     4   9  19  36  57  80 106 139 179 225 272 323
#
# _framework density 9.8765429999999999
#
# number of rings (size 3 to 8) (size 9 to 14) (size 15 to 20)
#    0.000    1.778    0.000    5.000    0.000    6.667 
#    0.000    3.333    0.000    0.000    0.000    0.000 
#    0.000    0.000    0.000    0.000    0.000    0.000 
#
# Total GULP energy -200733.061559 kJ/mol
# GULP energy per Si atom -5575.918377 kJ/mol
# Density = 0.985406 g / cm^3
# Si number density = 9.876543 Si / 1000 Ang^3
#
#
#
# Elastic Constant Matrix: (Units=GPa)
#
#
# Indices 1 2 3 4 5 6 
#
# 1 115.9204 68.8115 55.5518 0.0000 0.0000 0.0000
# 2 68.8115 105.0380 69.1964 0.0000 0.0000 0.0000
# 3 55.5518 69.1964 58.8924 0.0000 0.0000 0.0000
# 4 0.0000 0.0000 0.0000 78.7912 0.0000 0.0000
# 5 0.0000 0.0000 0.0000 0.0000 21.5291 0.0000
# 6 0.0000 0.0000 0.0000 0.0000 0.0000 35.0135
#
#
#
# Elastic Compliance Matrix: (Units=1/GPa)
#
#
# Indices 1 2 3 4 5 6 
#
# 1 0.015875 -0.002368 -0.012192 0.000000 0.000000 0.000000
# 2 -0.002368 0.042486 -0.047685 0.000000 0.000000 0.000000
# 3 -0.012192 -0.047685 0.084510 0.000000 0.000000 0.000000
# 4 0.000000 0.000000 0.000000 0.012692 0.000000 0.000000
# 5 0.000000 0.000000 0.000000 0.000000 0.046449 0.000000
# 6 0.000000 0.000000 0.000000 0.000000 0.000000 0.028560
#
#
# Mechanical properties :
#
#
# Convention : Reuss Voigt Hill
#
# Bulk Modulus (GPa) = 54.41058 74.10781 64.25920
# Shear Modulus (GPa) = 13.84317 32.81950 23.33133
#
# Velocity S-wave (km/s) = 2.65015 4.08056 3.44051
# Velocity P-wave (km/s) = 6.08026 7.73303 6.95591
#
# Compressibility (1/GPa) = 0.01837878
#
# Stress axis : x y z
#
# Youngs Moduli (GPa) = 62.99174 23.53741 11.83297
#
# Poissons Ratio (x) = 0.05573 0.14427
# Poissons Ratio (y) = 0.14916 0.56426
# Poissons Ratio (z) = 0.76802 1.12239
#
# Static dielectric constant tensor:
#      x y z
#    x 1.675570 0.000000 0.000000 
#    y 0.000000 0.721340 0.000000 
#    z 0.000000 0.000000 1.690860 
# 
# From -- ./inp_files/43136.got.cif
#   From: 2010.05.17/outbox.ucp.g08.bks.cvg/sg67_22_cif.got.tgz:43136.got - 2010.06.11 16:47:20.
