data_PCOD9505433
_publ_section_title
;
Structure prediction by ZEFSAII (Michael W. Deem and Ramdas Pophale) SiO2 
 PCOD9505433
Probable space group: C C C A
;
_chemical_formula_sum "Si O2"
_cell_formula_units_Z 92
_cell_length_a 23.975959
_cell_length_b 21.930730
_cell_length_c 10.064946
_cell_angle_alpha 90.000000
_cell_angle_beta 90.000000
_cell_angle_gamma 90.000000
_cell_volume 5292.252108
_symmetry_space_group_name_H-M "C C C A"
_symmetry_group_IT_number 68
_space_group.IT_coordinate_system_code '2'
_symmetry_cell_setting 'orthorhombic'
loop_
_space_group_symop_operation_xyz
x,y,z
-x,1/2-y,z
x,1/2-y,1/2-z
-x,y,1/2-z
-x,-y,-z
x,1/2+y,-z
-x,1/2+y,1/2+z
x,-y,1/2+z
1/2+x,1/2+y,z
1/2-x,-y,z
1/2+x,-y,1/2-z
1/2-x,1/2+y,1/2-z
1/2-x,1/2-y,-z
1/2+x,y,-z
1/2-x,y,1/2+z
1/2+x,1/2-y,1/2+z
loop_
_atom_site_type_symbol
_atom_site_label
_atom_site_fract_x
_atom_site_fract_y
_atom_site_fract_z
Si Si1 0.815601 0.513957 0.195217
Si Si2 0.500000 0.250000 0.750000
Si Si3 0.398215 0.810619 0.383797
Si Si4 0.764899 0.250000 0.750000
Si Si5 0.291849 0.625163 0.619025
Si Si6 0.164045 0.695519 0.898254
Si Si7 0.334685 0.574944 0.075299
O O1 0.750000 0.500000 0.181783
O O2 0.816976 0.575170 0.283761
O O3 0.841915 0.461059 0.286031
O O4 0.835913 0.528083 0.047391
O O5 0.539677 0.207887 0.658471
O O6 0.365353 0.816584 0.242553
O O7 0.371354 0.751934 0.456808
O O8 0.381044 0.873456 0.450657
O O9 0.794163 0.191398 0.688553
O O10 0.724617 0.222026 0.862950
O O11 0.326728 0.636092 0.485316
O O12 0.227609 0.605950 0.584750
#
# Coordination Sequence:
#
# PCOD9505433 Si02
#       7
#    16   4  16   8  16  16  16
#     4  10  23  33  45  71 113 164 189 208 241 309
#     4   8  18  40  60  88  94 128 176 240 302 334
#     4   9  19  34  57  78 103 129 181 227 284 324
#     4  10  17  24  40  69 104 143 168 221 246 308
#     4  11  19  28  47  70 117 147 184 206 261 311
#     4   9  17  29  45  76 100 139 169 217 265 322
#     4  11  21  34  49  73 110 148 192 216 254 312
#
# _framework density 17.383904999999999
#
# number of rings (size 3 to 8) (size 9 to 14) (size 15 to 20)
#    0.000    2.435    3.478    3.130    7.304    0.000 
#    0.000    0.000    0.000    1.043    0.000    4.870 
#    0.000    0.000    0.000    0.000    0.000    0.000 
#
# Total GULP energy -256288.864348 kJ/mol
# GULP energy per Si atom -5571.497051 kJ/mol
# Density = 1.734434 g / cm^3
# Si number density = 17.383905 Si / 1000 Ang^3
#
#
#
# Elastic Constant Matrix: (Units=GPa)
#
#
# Indices 1 2 3 4 5 6 
#
# 1 41.7090 14.3132 12.5644 0.0000 0.0000 0.0000
# 2 14.3132 76.0735 29.1950 0.0000 0.0000 0.0000
# 3 12.5644 29.1950 63.3525 0.0000 0.0000 0.0000
# 4 0.0000 0.0000 0.0000 41.5347 0.0000 0.0000
# 5 0.0000 0.0000 0.0000 0.0000 7.3753 0.0000
# 6 0.0000 0.0000 0.0000 0.0000 0.0000 11.4160
#
#
#
# Elastic Compliance Matrix: (Units=1/GPa)
#
#
# Indices 1 2 3 4 5 6 
#
# 1 0.026276 -0.003576 -0.003563 0.000000 0.000000 0.000000
# 2 -0.003576 0.016456 -0.006874 0.000000 0.000000 0.000000
# 3 -0.003563 -0.006874 0.019659 0.000000 0.000000 0.000000
# 4 0.000000 0.000000 0.000000 0.024076 0.000000 0.000000
# 5 0.000000 0.000000 0.000000 0.000000 0.135587 0.000000
# 6 0.000000 0.000000 0.000000 0.000000 0.000000 0.087596
#
#
# Mechanical properties :
#
#
# Convention : Reuss Voigt Hill
#
# Bulk Modulus (GPa) = 29.10013 32.58668 30.84341
# Shear Modulus (GPa) = 14.32116 20.40271 17.36194
#
# Velocity S-wave (km/s) = 2.87334 3.42958 3.16371
# Velocity P-wave (km/s) = 5.27106 5.87101 5.57911
#
# Compressibility (1/GPa) = 0.03436411
#
# Stress axis : x y z
#
# Youngs Moduli (GPa) = 38.05708 60.76720 50.86664
#
# Poissons Ratio (x) = 0.21733 0.18124
# Poissons Ratio (y) = 0.13611 0.34967
# Poissons Ratio (z) = 0.13560 0.41773
#
# Static dielectric constant tensor:
#      x y z
#    x 1.575610 0.000000 0.000000 
#    y 0.000000 1.676710 0.000000 
#    z 0.000000 0.000000 1.684610 
# 
# From -- ./inp_files/8264.got.cif
#   From: 2010.05.17/outbox.cif.g08.bks.cpg/sg68_5_cif.got.tgz:8264.got - 2010.06.03 18:57:09.
