data_PCOD9505978
_publ_section_title
;
Structure prediction by ZEFSAII (Michael W. Deem and Ramdas Pophale) SiO2 
 PCOD9505978
Probable space group: C C C A
;
_chemical_formula_sum "Si O2"
_cell_formula_units_Z 96
_cell_length_a 23.638855
_cell_length_b 7.811052
_cell_length_c 20.488426
_cell_angle_alpha 90.000000
_cell_angle_beta 90.000000
_cell_angle_gamma 90.000000
_cell_volume 3783.071602
_symmetry_space_group_name_H-M "C C C A"
_symmetry_group_IT_number 68
_space_group.IT_coordinate_system_code '2'
_symmetry_cell_setting 'orthorhombic'
loop_
_space_group_symop_operation_xyz
x,y,z
-x,1/2-y,z
x,1/2-y,1/2-z
-x,y,1/2-z
-x,-y,-z
x,1/2+y,-z
-x,1/2+y,1/2+z
x,-y,1/2+z
1/2+x,1/2+y,z
1/2-x,-y,z
1/2+x,-y,1/2-z
1/2-x,1/2+y,1/2-z
1/2-x,1/2-y,-z
1/2+x,y,-z
1/2-x,y,1/2+z
1/2+x,1/2-y,1/2+z
loop_
_atom_site_type_symbol
_atom_site_label
_atom_site_fract_x
_atom_site_fract_y
_atom_site_fract_z
Si Si1 0.360553 0.123303 0.836835
Si Si2 0.962910 0.408361 0.847461
Si Si3 0.089552 0.276764 0.972679
Si Si4 0.803131 0.099356 0.558360
Si Si5 0.243846 0.795166 0.184018
Si Si6 0.562140 0.875892 0.400008
O O1 0.300623 0.177799 0.807227
O O2 0.394026 0.298415 0.848822
O O3 0.407686 0.987114 0.811407
O O4 0.340453 0.042668 0.905195
O O5 0.940752 0.339376 0.917657
O O6 0.000000 0.250000 0.820346
O O7 0.007128 0.559198 0.862243
O O8 0.153585 0.211285 0.982635
O O9 0.086437 0.461239 0.939503
O O10 0.058497 0.261488 0.041350
O O11 0.782334 0.220823 0.617658
O O12 0.750000 0.000000 0.527262
O O13 0.209419 0.750000 0.250000
O O14 0.250000 0.000000 0.178500
#
# Coordination Sequence:
#
# PCOD9505978 Si02
#       6
#    16  16  16  16  16  16
#     4  10  20  35  55  84 114 147 190 235 282 336
#     4   9  19  33  53  79 113 153 196 237 277 329
#     4  10  19  32  50  79 113 154 199 237 281 334
#     4   9  19  36  54  79 114 145 184 236 286 341
#     4  11  22  40  65  90 113 143 183 234 293 352
#     4  11  20  32  51  77 112 155 195 235 279 334
#
# _framework density 25.376204000000001
#
# number of rings (size 3 to 8) (size 9 to 14) (size 15 to 20)
#    0.000    2.000    0.000    5.500    0.000    2.667 
#    0.000    8.333    0.000    2.000    0.000   10.500 
#    0.000    0.000    0.000    0.000    0.000    0.000 
#
# Total GULP energy -268184.420534 kJ/mol
# GULP energy per Si atom -5587.175428 kJ/mol
# Density = 2.531845 g / cm^3
# Si number density = 25.376204 Si / 1000 Ang^3
#
#
#
# Elastic Constant Matrix: (Units=GPa)
#
#
# Indices 1 2 3 4 5 6 
#
# 1 143.7779 43.9139 9.3931 0.0000 0.0000 0.0000
# 2 43.9139 140.1879 7.9696 0.0000 0.0000 0.0000
# 3 9.3931 7.9696 43.9148 0.0000 0.0000 0.0000
# 4 0.0000 0.0000 0.0000 13.0308 0.0000 0.0000
# 5 0.0000 0.0000 0.0000 0.0000 -0.0020 0.0000
# 6 0.0000 0.0000 0.0000 0.0000 0.0000 50.1059
#
#
#
# Elastic Compliance Matrix: (Units=1/GPa)
#
#
# Indices 1 2 3 4 5 6 
#
# 1 0.007756 -0.002360 -0.001231 0.000000 0.000000 0.000000
# 2 -0.002360 0.007926 -0.000934 0.000000 0.000000 0.000000
# 3 -0.001231 -0.000934 0.023204 0.000000 0.000000 0.000000
# 4 0.000000 0.000000 0.000000 0.076741 0.000000 0.000000
# 5 0.000000 0.000000 0.000000 0.000000********** 0.000000
# 6 0.000000 0.000000 0.000000 0.000000 0.000000 0.019958
#
#
# Mechanical properties :
#
#
# Convention : Reuss Voigt Hill
#
# Bulk Modulus (GPa) = 33.51460 50.04820 41.78140
# Shear Modulus (GPa) = -0.01023 30.40052 15.19515
#
# Velocity S-wave (km/s) = -0.06355 3.46496 2.44968
# Velocity P-wave (km/s) = 3.63736 5.98107 4.94993
#
# Compressibility (1/GPa) = 0.02983774
#
# Stress axis : x y z
#
# Youngs Moduli (GPa) = 128.92750 126.17448 43.09590
#
# Poissons Ratio (x) = 0.29773 0.05304
# Poissons Ratio (y) = 0.30423 0.04023
# Poissons Ratio (z) = 0.15868 0.11780
#
# Static dielectric constant tensor:
#      x y z
#    x 2.056970 0.000000 0.000000 
#    y 0.000000 2.060070 0.000000 
#    z 0.000000 0.000000 1.960370 
# 
# From -- ./inp_files/51746.got.cif
#   From: 2010.05.17/outbox.cif.g08.bks.cpg/sg68_26_cif.got.tgz:51746.got - 2010.06.03 18:57:09.
