data_PCOD9505969
_publ_section_title
;
Structure prediction by ZEFSAII (Michael W. Deem and Ramdas Pophale) SiO2 
 PCOD9505969
Probable space group: C C C A
;
_chemical_formula_sum "Si O2"
_cell_formula_units_Z 96
_cell_length_a 7.962998
_cell_length_b 24.337050
_cell_length_c 28.344260
_cell_angle_alpha 90.000000
_cell_angle_beta 90.000000
_cell_angle_gamma 90.000000
_cell_volume 5493.000823
_symmetry_space_group_name_H-M "C C C A"
_symmetry_group_IT_number 68
_space_group.IT_coordinate_system_code '2'
_symmetry_cell_setting 'orthorhombic'
loop_
_space_group_symop_operation_xyz
x,y,z
-x,1/2-y,z
x,1/2-y,1/2-z
-x,y,1/2-z
-x,-y,-z
x,1/2+y,-z
-x,1/2+y,1/2+z
x,-y,1/2+z
1/2+x,1/2+y,z
1/2-x,-y,z
1/2+x,-y,1/2-z
1/2-x,1/2+y,1/2-z
1/2-x,1/2-y,-z
1/2+x,y,-z
1/2-x,y,1/2+z
1/2+x,1/2-y,1/2+z
loop_
_atom_site_type_symbol
_atom_site_label
_atom_site_fract_x
_atom_site_fract_y
_atom_site_fract_z
Si Si1 0.503951 0.316969 0.195710
Si Si2 0.814676 0.320764 0.132374
Si Si3 0.121158 0.958886 0.971818
Si Si4 0.698705 0.187869 0.628761
Si Si5 0.346334 0.381913 0.961014
Si Si6 0.357910 0.290422 0.033134
O O1 0.500000 0.250000 0.195786
O O2 0.500000 0.334856 0.250000
O O3 0.675573 0.336187 0.170767
O O4 0.341517 0.332649 0.164556
O O5 0.807458 0.254570 0.129991
O O6 0.768878 0.348868 0.082550
O O7 0.012030 0.332879 0.140612
O O8 0.997248 0.920279 0.942871
O O9 0.250000 0.000000 0.946325
O O10 0.220062 0.920377 0.009309
O O11 0.000000 0.000000 0.000000
O O12 0.757383 0.179752 0.574774
O O13 0.421180 0.337169 0.997519
O O14 0.500000 0.250000 0.053764
O O15 0.250000 0.250000 0.000000
#
# Coordination Sequence:
#
# PCOD9505969 Si02
#       6
#    16  16  16  16  16  16
#     4   9  19  34  50  67  98 147 192 224 259 300
#     4  10  19  32  47  73 103 137 181 219 262 314
#     4   9  20  36  49  65  95 142 184 228 261 318
#     4  10  20  31  45  70 109 141 183 223 248 307
#     4  11  20  31  50  73 100 148 177 215 275 312
#     4  12  21  29  44  74 112 147 179 211 262 326
#
# _framework density 17.476786000000001
#
# number of rings (size 3 to 8) (size 9 to 14) (size 15 to 20)
#    0.000    1.833    1.667    4.500    2.333    0.667 
#    0.000    3.333    0.000    0.000    0.000    0.000 
#    0.000    0.000   68.000    0.167    0.000    0.333 
#
# Total GULP energy -267507.536797 kJ/mol
# GULP energy per Si atom -5573.073683 kJ/mol
# Density = 1.743701 g / cm^3
# Si number density = 17.476786 Si / 1000 Ang^3
#
#
#
# Elastic Constant Matrix: (Units=GPa)
#
#
# Indices 1 2 3 4 5 6 
#
# 1 106.9133 25.6988 56.8688 0.0000 0.0000 0.0000
# 2 25.6988 54.0846 13.3949 0.0000 0.0000 0.0000
# 3 56.8688 13.3949 112.8546 0.0000 0.0000 0.0000
# 4 0.0000 0.0000 0.0000 7.1709 0.0000 0.0000
# 5 0.0000 0.0000 0.0000 0.0000 23.9480 0.0000
# 6 0.0000 0.0000 0.0000 0.0000 0.0000 31.9530
#
#
#
# Elastic Compliance Matrix: (Units=1/GPa)
#
#
# Indices 1 2 3 4 5 6 
#
# 1 0.014002 -0.005054 -0.006456 0.000000 0.000000 0.000000
# 2 -0.005054 0.020874 0.000069 0.000000 0.000000 0.000000
# 3 -0.006456 0.000069 0.012106 0.000000 0.000000 0.000000
# 4 0.000000 0.000000 0.000000 0.139452 0.000000 0.000000
# 5 0.000000 0.000000 0.000000 0.000000 0.041757 0.000000
# 6 0.000000 0.000000 0.000000 0.000000 0.000000 0.031296
#
#
# Mechanical properties :
#
#
# Convention : Reuss Voigt Hill
#
# Bulk Modulus (GPa) = 41.49331 51.75307 46.62319
# Shear Modulus (GPa) = 17.21744 24.47371 20.84557
#
# Velocity S-wave (km/s) = 3.14213 3.74619 3.45738
# Velocity P-wave (km/s) = 6.07927 6.95620 6.53246
#
# Compressibility (1/GPa) = 0.02410027
#
# Stress axis : x y z
#
# Youngs Moduli (GPa) = 71.41638 47.90645 82.60358
#
# Poissons Ratio (x) = 0.24214 0.53329
# Poissons Ratio (y) = 0.36097 -0.00573
# Poissons Ratio (z) = 0.46107 -0.00333
#
# Static dielectric constant tensor:
#      x y z
#    x 1.677060 0.000000 0.000000 
#    y 0.000000 1.599820 0.000000 
#    z 0.000000 0.000000 1.613350 
# 
# From -- ./inp_files/49545.got.cif
#   From: 2010.05.17/outbox.cif.g08.bks.cpg/sg68_25_cif.got.tgz:49545.got - 2010.06.03 18:57:09.
