data_PCOD9505141
_publ_section_title
;
Structure prediction by ZEFSAII (Michael W. Deem and Ramdas Pophale) SiO2 
 PCOD9505141
Probable space group: C M M A
;
_chemical_formula_sum "Si O2"
_cell_formula_units_Z 96
_cell_length_a 14.801833
_cell_length_b 8.962531
_cell_length_c 33.519107
_cell_angle_alpha 90.000000
_cell_angle_beta 90.000000
_cell_angle_gamma 90.000000
_cell_volume 4446.707989
_symmetry_space_group_name_H-M "C M M A"
_symmetry_group_IT_number 67
_symmetry_cell_setting 'orthorhombic'
loop_
_space_group_symop_operation_xyz
x,y,z
-x,1/2-y,z
x,-y,-z
-x,1/2+y,-z
-x,-y,-z
x,1/2+y,-z
-x,y,z
x,1/2-y,z
1/2+x,1/2+y,z
1/2-x,-y,z
1/2+x,1/2-y,-z
1/2-x,y,-z
1/2-x,1/2-y,-z
1/2+x,y,-z
1/2-x,1/2+y,z
1/2+x,-y,z
loop_
_atom_site_type_symbol
_atom_site_label
_atom_site_fract_x
_atom_site_fract_y
_atom_site_fract_z
Si Si1 0.850698 0.928765 0.960536
Si Si2 0.649289 0.071110 0.872810
Si Si3 0.893270 0.583286 0.380799
Si Si4 0.848871 0.569503 0.293018
Si Si5 0.389236 0.418511 0.540436
Si Si6 0.148685 0.070142 0.793568
O O1 0.844672 0.750000 0.965180
O O2 0.891486 0.958800 0.916678
O O3 0.750000 0.000000 0.959037
O O4 0.893967 0.000000 0.000000
O O5 0.655200 0.250000 0.868020
O O6 0.750000 0.000000 0.874408
O O7 0.606125 0.999065 0.833430
O O8 0.853215 0.750000 0.381154
O O9 0.885390 0.519809 0.336022
O O10 0.858138 0.491319 0.418190
O O11 0.000000 0.596998 0.387707
O O12 0.847346 0.750000 0.293917
O O13 0.750000 0.500000 0.291620
O O14 0.892369 0.532433 0.249975
O O15 0.361603 0.500000 0.500000
O O16 0.500000 0.418803 0.540634
O O17 0.358099 0.250000 0.538840
O O18 0.153227 0.250000 0.797251
O O19 0.250000 0.000000 0.792399
#
# Coordination Sequence:
#
# PCOD9505141 Si02
#       6
#    16  16  16  16  16  16
#     4   9  15  20  26  36  52  75 105 142 183 227
#     4   9  15  21  29  42  59  81 112 150 190 229
#     4   9  17  30  47  66  89 115 142 173 208 246
#     4   9  18  30  44  63  85 111 142 174 210 249
#     4   9  16  26  42  65  90 114 141 172 206 244
#     4   9  15  23  35  50  68  91 122 158 193 231
#
# _framework density 21.589006000000001
#
# number of rings (size 3 to 8) (size 9 to 14) (size 15 to 20)
#    0.000    3.000    0.000    3.500    0.000    5.333 
#    0.000    0.000    0.000    0.500    0.000    3.500 
#    0.000    0.000    0.000    0.000    0.000    0.833 
#
# Total GULP energy -267317.637637 kJ/mol
# GULP energy per Si atom -5569.117451 kJ/mol
# Density = 2.153987 g / cm^3
# Si number density = 21.589006 Si / 1000 Ang^3
#
#
#
# Elastic Constant Matrix: (Units=GPa)
#
#
# Indices 1 2 3 4 5 6 
#
# 1 48.9077 8.1468 14.4655 0.0000 0.0000 0.0000
# 2 8.1468 92.2167 106.2496 0.0000 0.0000 0.0000
# 3 14.4655 106.2496 295.9787 0.0000 0.0000 0.0000
# 4 0.0000 0.0000 0.0000 37.8048 0.0000 0.0000
# 5 0.0000 0.0000 0.0000 0.0000 7.9615 0.0000
# 6 0.0000 0.0000 0.0000 0.0000 0.0000 -6.9272
#
#
#
# Elastic Compliance Matrix: (Units=1/GPa)
#
#
# Indices 1 2 3 4 5 6 
#
# 1 0.020816 -0.001137 -0.000609 0.000000 0.000000 0.000000
# 2 -0.001137 0.018555 -0.006605 0.000000 0.000000 0.000000
# 3 -0.000609 -0.006605 0.005779 0.000000 0.000000 0.000000
# 4 0.000000 0.000000 0.000000 0.026452 0.000000 0.000000
# 5 0.000000 0.000000 0.000000 0.000000 0.125604 0.000000
# 6 0.000000 0.000000 0.000000 0.000000 0.000000 -0.144359
#
#
# Mechanical properties :
#
#
# Convention : Reuss Voigt Hill
#
# Bulk Modulus (GPa) = 35.15232 77.20296 56.17764
# Shear Modulus (GPa) = 63.26486 28.31725 45.79106
#
# Velocity S-wave (km/s) = 5.41921 3.62560 4.61047
# Velocity P-wave (km/s) = 7.44815 7.30511 7.37698
#
# Compressibility (1/GPa) = 0.02844762
#
# Stress axis : x y z
#
# Youngs Moduli (GPa) = 48.03932 53.89448 173.02553
#
# Poissons Ratio (x) = 0.06129 0.10540
# Poissons Ratio (y) = 0.05463 1.14286
# Poissons Ratio (z) = 0.02926 0.35598
#
# Static dielectric constant tensor:
#      x y z
#    x 1.861200 0.000000 0.000000 
#    y 0.000000 1.753670 0.000000 
#    z 0.000000 0.000000 1.883080 
# 
# From -- ./inp_files/44931.got.cif
#   From: 2010.05.17/outbox.cif.g08.bks.cpg/sg67_23_cif.got.tgz:44931.got - 2010.06.03 18:28:57.
