data_PCOD9505560
_publ_section_title
;
Structure prediction by ZEFSAII (Michael W. Deem and Ramdas Pophale) SiO2 
 PCOD9505560
Probable space group: C C C A
;
_chemical_formula_sum "Si O2"
_cell_formula_units_Z 88
_cell_length_a 15.369406
_cell_length_b 14.435750
_cell_length_c 21.501747
_cell_angle_alpha 90.000000
_cell_angle_beta 90.000000
_cell_angle_gamma 90.000000
_cell_volume 4770.569012
_symmetry_space_group_name_H-M "C C C A"
_symmetry_group_IT_number 68
_space_group.IT_coordinate_system_code '2'
_symmetry_cell_setting 'orthorhombic'
loop_
_space_group_symop_operation_xyz
x,y,z
-x,1/2-y,z
x,1/2-y,1/2-z
-x,y,1/2-z
-x,-y,-z
x,1/2+y,-z
-x,1/2+y,1/2+z
x,-y,1/2+z
1/2+x,1/2+y,z
1/2-x,-y,z
1/2+x,-y,1/2-z
1/2-x,1/2+y,1/2-z
1/2-x,1/2-y,-z
1/2+x,y,-z
1/2-x,y,1/2+z
1/2+x,1/2-y,1/2+z
loop_
_atom_site_type_symbol
_atom_site_label
_atom_site_fract_x
_atom_site_fract_y
_atom_site_fract_z
Si Si1 0.193001 0.416175 0.883670
Si Si2 0.946739 0.525579 0.696553
Si Si3 0.796704 0.145149 0.266861
Si Si4 0.750000 0.000000 0.663753
Si Si5 0.427548 0.520389 0.087672
Si Si6 0.958283 0.853014 0.468957
O O1 0.250000 0.500000 0.914517
O O2 0.125560 0.464076 0.836399
O O3 0.257226 0.365567 0.836165
O O4 0.131542 0.356944 0.928807
O O5 0.894580 0.607087 0.729577
O O6 0.000000 0.473359 0.750000
O O7 0.010547 0.556136 0.642581
O O8 0.792523 0.250000 0.250000
O O9 0.749916 0.085400 0.212781
O O10 0.834202 0.996317 0.619265
O O11 0.471629 0.424578 0.062331
O O12 0.432034 0.596539 0.033328
O O13 0.000000 0.750000 0.473899
#
# Coordination Sequence:
#
# PCOD9505560 Si02
#       6
#    16  16  16   8  16  16
#     4   9  19  38  61  84 121 159 201 254 315 367
#     4  10  17  38  60  82 119 162 190 248 307 368
#     4  11  22  35  61  93 121 154 202 251 315 375
#     4  12  22  42  60  92 126 160 204 254 310 376
#     4  10  23  40  65  85 127 165 207 252 314 362
#     4  10  23  42  63  91 120 165 217 255 303 371
#
# _framework density 18.446437
#
# number of rings (size 3 to 8) (size 9 to 14) (size 15 to 20)
#    0.000    1.818    4.545    0.000    3.818    1.818 
#    0.000    0.909    0.000    0.000    0.000    0.000 
#    0.000    0.000    0.000    0.000    0.000    0.000 
#
# Total GULP energy -245055.059259 kJ/mol
# GULP energy per Si atom -5569.433165 kJ/mol
# Density = 1.840445 g / cm^3
# Si number density = 18.446437 Si / 1000 Ang^3
#
#
#
# Elastic Constant Matrix: (Units=GPa)
#
#
# Indices 1 2 3 4 5 6 
#
# 1 88.9019 28.4903 32.1027 0.0000 0.0000 0.0000
# 2 28.4903 111.7187 36.9493 0.0000 0.0000 0.0000
# 3 32.1027 36.9493 96.9593 0.0000 0.0000 0.0000
# 4 0.0000 0.0000 0.0000 26.2900 0.0000 0.0000
# 5 0.0000 0.0000 0.0000 0.0000 28.2640 0.0000
# 6 0.0000 0.0000 0.0000 0.0000 0.0000 12.7144
#
#
#
# Elastic Compliance Matrix: (Units=1/GPa)
#
#
# Indices 1 2 3 4 5 6 
#
# 1 0.013233 -0.002203 -0.003542 0.000000 0.000000 0.000000
# 2 -0.002203 0.010609 -0.003313 0.000000 0.000000 0.000000
# 3 -0.003542 -0.003313 0.012749 0.000000 0.000000 0.000000
# 4 0.000000 0.000000 0.000000 0.038037 0.000000 0.000000
# 5 0.000000 0.000000 0.000000 0.000000 0.035381 0.000000
# 6 0.000000 0.000000 0.000000 0.000000 0.000000 0.078651
#
#
# Mechanical properties :
#
#
# Convention : Reuss Voigt Hill
#
# Bulk Modulus (GPa) = 54.12971 54.74050 54.43510
# Shear Modulus (GPa) = 23.48130 26.78951 25.13541
#
# Velocity S-wave (km/s) = 3.57171 3.81502 3.69537
# Velocity P-wave (km/s) = 6.81303 7.01040 6.91242
#
# Compressibility (1/GPa) = 0.01847414
#
# Stress axis : x y z
#
# Youngs Moduli (GPa) = 75.56618 94.26166 78.43804
#
# Poissons Ratio (x) = 0.20769 0.27782
# Poissons Ratio (y) = 0.16650 0.25989
# Poissons Ratio (z) = 0.26764 0.31231
#
# Static dielectric constant tensor:
#      x y z
#    x 1.714160 0.000000 0.000000 
#    y 0.000000 1.620040 0.000000 
#    z 0.000000 0.000000 1.670650 
# 
# From -- ./inp_files/38477.got.cif
#   From: 2010.05.17/outbox.cif.g08.bks.cpg/sg68_20_cif.got.tgz:38477.got - 2010.06.03 18:57:09.
