data_PCOD9505997
_publ_section_title
;
Structure prediction by ZEFSAII (Michael W. Deem and Ramdas Pophale) SiO2 
 PCOD9505997
Probable space group: C C C A
;
_chemical_formula_sum "Si O2"
_cell_formula_units_Z 68
_cell_length_a 9.663289
_cell_length_b 17.898775
_cell_length_c 23.141805
_cell_angle_alpha 90.000000
_cell_angle_beta 90.000000
_cell_angle_gamma 90.000000
_cell_volume 4002.630558
_symmetry_space_group_name_H-M "C C C A"
_symmetry_group_IT_number 68
_space_group.IT_coordinate_system_code '2'
_symmetry_cell_setting 'orthorhombic'
loop_
_space_group_symop_operation_xyz
x,y,z
-x,1/2-y,z
x,1/2-y,1/2-z
-x,y,1/2-z
-x,-y,-z
x,1/2+y,-z
-x,1/2+y,1/2+z
x,-y,1/2+z
1/2+x,1/2+y,z
1/2-x,-y,z
1/2+x,-y,1/2-z
1/2-x,1/2+y,1/2-z
1/2-x,1/2-y,-z
1/2+x,y,-z
1/2-x,y,1/2+z
1/2+x,1/2-y,1/2+z
loop_
_atom_site_type_symbol
_atom_site_label
_atom_site_fract_x
_atom_site_fract_y
_atom_site_fract_z
Si Si1 0.866249 0.063456 0.052432
Si Si2 0.883101 0.693080 0.137364
Si Si3 0.601392 0.537304 0.580713
Si Si4 0.335547 0.266545 0.558785
Si Si5 0.000000 0.750000 0.250000
O O1 0.820327 0.145158 0.071365
O O2 0.750000 0.000000 0.054574
O O3 0.911811 0.068212 0.985119
O O4 0.992069 0.028825 0.087928
O O5 0.915905 0.608597 0.120751
O O6 0.738637 0.718057 0.108731
O O7 0.902635 0.704324 0.205920
O O8 0.000000 0.750000 0.112259
O O9 0.750000 0.500000 0.586881
O O10 0.500000 0.250000 0.552776
O O11 0.250000 0.250000 0.500000
#
# Coordination Sequence:
#
# PCOD9505997 Si02
#       5
#    16  16  16  16   4
#     4  10  21  31  50  87 122 150 180 227 301 360
#     4  10  20  40  63  79 109 157 206 241 280 347
#     4  10  19  32  54  81 119 149 181 234 293 353
#     4  12  23  34  57  93 123 154 189 238 300 360
#     4   8  24  40  70  76 108 160 224 234 284 332
#
# _framework density 16.988827000000001
#
# number of rings (size 3 to 8) (size 9 to 14) (size 15 to 20)
#    0.706    0.941    2.353    3.529    6.588    0.000 
#    0.000    0.588    5.176    0.000    0.000    0.000 
#    0.000    0.000    0.000    0.000    0.000    0.000 
#
# Total GULP energy -189478.588337 kJ/mol
# GULP energy per Si atom -5572.899657 kJ/mol
# Density = 1.695016 g / cm^3
# Si number density = 16.988827 Si / 1000 Ang^3
#
#
#
# Elastic Constant Matrix: (Units=GPa)
#
#
# Indices 1 2 3 4 5 6 
#
# 1 100.2320 28.8801 39.4826 0.0000 0.0000 0.0000
# 2 28.8801 122.1913 38.3526 0.0000 0.0000 0.0000
# 3 39.4826 38.3526 89.6707 0.0000 0.0000 0.0000
# 4 0.0000 0.0000 0.0000 42.4288 0.0000 0.0000
# 5 0.0000 0.0000 0.0000 0.0000 24.9534 0.0000
# 6 0.0000 0.0000 0.0000 0.0000 0.0000 24.5528
#
#
#
# Elastic Compliance Matrix: (Units=1/GPa)
#
#
# Indices 1 2 3 4 5 6 
#
# 1 0.012272 -0.001391 -0.004808 0.000000 0.000000 0.000000
# 2 -0.001391 0.009611 -0.003498 0.000000 0.000000 0.000000
# 3 -0.004808 -0.003498 0.014765 0.000000 0.000000 0.000000
# 4 0.000000 0.000000 0.000000 0.023569 0.000000 0.000000
# 5 0.000000 0.000000 0.000000 0.000000 0.040075 0.000000
# 6 0.000000 0.000000 0.000000 0.000000 0.000000 0.040729
#
#
# Mechanical properties :
#
#
# Convention : Reuss Voigt Hill
#
# Bulk Modulus (GPa) = 57.96245 58.39162 58.17704
# Shear Modulus (GPa) = 30.09048 32.07891 31.08469
#
# Velocity S-wave (km/s) = 4.21312 4.35010 4.28216
# Velocity P-wave (km/s) = 7.60652 7.72505 7.66601
#
# Compressibility (1/GPa) = 0.01725255
#
# Stress axis : x y z
#
# Youngs Moduli (GPa) = 81.48788 104.05150 67.72720
#
# Poissons Ratio (x) = 0.14476 0.32565
# Poissons Ratio (y) = 0.11337 0.23691
# Poissons Ratio (z) = 0.39182 0.36397
#
# Static dielectric constant tensor:
#      x y z
#    x 1.586000 0.000000 0.000000 
#    y 0.000000 1.543980 0.000000 
#    z 0.000000 0.000000 1.568290 
# 
# From -- ./inp_files/49058.got.cif
#   From: 2010.05.17/outbox.cif.g08.bks.cpg/sg68_25_cif.got.tgz:49058.got - 2010.06.03 18:57:09.
