data_PCOD9505304
_publ_section_title
;
Structure prediction by ZEFSAII (Michael W. Deem and Ramdas Pophale) SiO2 
 PCOD9505304
Probable space group: C C C A
;
_chemical_formula_sum "Si O2"
_cell_formula_units_Z 88
_cell_length_a 11.031797
_cell_length_b 15.333912
_cell_length_c 27.408461
_cell_angle_alpha 90.000000
_cell_angle_beta 90.000000
_cell_angle_gamma 90.000000
_cell_volume 4636.431828
_symmetry_space_group_name_H-M "C C C A"
_symmetry_group_IT_number 68
_space_group.IT_coordinate_system_code '2'
_symmetry_cell_setting 'orthorhombic'
loop_
_space_group_symop_operation_xyz
x,y,z
-x,1/2-y,z
x,1/2-y,1/2-z
-x,y,1/2-z
-x,-y,-z
x,1/2+y,-z
-x,1/2+y,1/2+z
x,-y,1/2+z
1/2+x,1/2+y,z
1/2-x,-y,z
1/2+x,-y,1/2-z
1/2-x,1/2+y,1/2-z
1/2-x,1/2-y,-z
1/2+x,y,-z
1/2-x,y,1/2+z
1/2+x,1/2-y,1/2+z
loop_
_atom_site_type_symbol
_atom_site_label
_atom_site_fract_x
_atom_site_fract_y
_atom_site_fract_z
Si Si1 0.312087 0.913490 0.651150
Si Si2 0.712949 0.768302 0.193999
Si Si3 0.500000 0.250000 0.625549
Si Si4 0.691489 0.342440 0.560591
Si Si5 0.881043 0.811167 0.042081
Si Si6 0.937171 0.346512 0.852070
O O1 0.257770 0.825436 0.673816
O O2 0.276890 0.903313 0.593667
O O3 0.455107 0.911553 0.660864
O O4 0.250000 0.000000 0.670333
O O5 0.684564 0.750000 0.250000
O O6 0.598554 0.793824 0.161107
O O7 0.823365 0.835065 0.183608
O O8 0.572475 0.317581 0.591615
O O9 0.770186 0.254198 0.553787
O O10 0.650946 0.366185 0.505989
O O11 0.899934 0.863278 0.092045
O O12 0.000000 0.750000 0.032744
O O13 0.000000 0.250000 0.853321
#
# Coordination Sequence:
#
# PCOD9505304 Si02
#       6
#    16  16   8  16  16  16
#     4  10  20  35  54  80 114 140 174 236 298 334
#     4  10  20  35  60  81 103 146 199 236 276 337
#     4  10  17  30  50  86 108 134 181 238 278 324
#     4  10  18  27  51  81 109 141 178 229 283 327
#     4  10  15  28  51  81 101 136 193 238 255 316
#     4   9  16  32  52  78 103 136 192 234 261 327
#
# _framework density 18.980112999999999
#
# number of rings (size 3 to 8) (size 9 to 14) (size 15 to 20)
#    0.000    2.182    8.182    0.273    0.000    3.273 
#    0.000    0.909   16.000    0.000    0.000    0.000 
#    0.000    0.000    0.000    0.000    0.000    0.000 
#
# Total GULP energy -245007.465541 kJ/mol
# GULP energy per Si atom -5568.351490 kJ/mol
# Density = 1.893691 g / cm^3
# Si number density = 18.980113 Si / 1000 Ang^3
#
#
#
# Elastic Constant Matrix: (Units=GPa)
#
#
# Indices 1 2 3 4 5 6 
#
# 1 112.1722 19.8764 21.1138 0.0000 0.0000 0.0000
# 2 19.8764 31.0694 -0.1426 0.0000 0.0000 0.0000
# 3 21.1138 -0.1426 72.2230 0.0000 0.0000 0.0000
# 4 0.0000 0.0000 0.0000 2.0672 0.0000 0.0000
# 5 0.0000 0.0000 0.0000 0.0000 12.4029 0.0000
# 6 0.0000 0.0000 0.0000 0.0000 0.0000 21.1010
#
#
#
# Elastic Compliance Matrix: (Units=1/GPa)
#
#
# Indices 1 2 3 4 5 6 
#
# 1 0.010726 -0.006876 -0.003149 0.000000 0.000000 0.000000
# 2 -0.006876 0.036595 0.002082 0.000000 0.000000 0.000000
# 3 -0.003149 0.002082 0.014771 0.000000 0.000000 0.000000
# 4 0.000000 0.000000 0.000000 0.483758 0.000000 0.000000
# 5 0.000000 0.000000 0.000000 0.000000 0.080626 0.000000
# 6 0.000000 0.000000 0.000000 0.000000 0.000000 0.047391
#
#
# Mechanical properties :
#
#
# Convention : Reuss Voigt Hill
#
# Bulk Modulus (GPa) = 21.64259 33.01779 27.33019
# Shear Modulus (GPa) = 7.09065 18.75535 12.92300
#
# Velocity S-wave (km/s) = 1.93493 3.14691 2.61218
# Velocity P-wave (km/s) = 4.05209 5.53514 4.85063
#
# Compressibility (1/GPa) = 0.04620520
#
# Stress axis : x y z
#
# Youngs Moduli (GPa) = 93.23049 27.32640 67.70124
#
# Poissons Ratio (x) = 0.18791 0.21321
# Poissons Ratio (y) = 0.64109 -0.14099
# Poissons Ratio (z) = 0.29361 -0.05691
#
# Static dielectric constant tensor:
#      x y z
#    x 1.708070 0.000000 0.000000 
#    y 0.000000 1.631560 0.000000 
#    z 0.000000 0.000000 1.708850 
# 
# From -- ./inp_files/54740.got.cif
#   From: 2010.05.17/outbox.cif.g08.bks.cpg/sg68_28_cif.got.tgz:54740.got - 2010.06.03 18:57:09.
