data_PCOD9505963
_publ_section_title
;
Structure prediction by ZEFSAII (Michael W. Deem and Ramdas Pophale) SiO2 
 PCOD9505963
Probable space group: C C C A
;
_chemical_formula_sum "Si O2"
_cell_formula_units_Z 68
_cell_length_a 10.859642
_cell_length_b 12.656469
_cell_length_c 23.338339
_cell_angle_alpha 90.000000
_cell_angle_beta 90.000000
_cell_angle_gamma 90.000000
_cell_volume 3207.731523
_symmetry_space_group_name_H-M "C C C A"
_symmetry_group_IT_number 68
_space_group.IT_coordinate_system_code '2'
_symmetry_cell_setting 'orthorhombic'
loop_
_space_group_symop_operation_xyz
x,y,z
-x,1/2-y,z
x,1/2-y,1/2-z
-x,y,1/2-z
-x,-y,-z
x,1/2+y,-z
-x,1/2+y,1/2+z
x,-y,1/2+z
1/2+x,1/2+y,z
1/2-x,-y,z
1/2+x,-y,1/2-z
1/2-x,1/2+y,1/2-z
1/2-x,1/2-y,-z
1/2+x,y,-z
1/2-x,y,1/2+z
1/2+x,1/2-y,1/2+z
loop_
_atom_site_type_symbol
_atom_site_label
_atom_site_fract_x
_atom_site_fract_y
_atom_site_fract_z
Si Si1 0.119516 0.442417 0.316892
Si Si2 0.787333 0.162839 0.423325
Si Si3 0.500000 0.750000 0.250000
Si Si4 0.709118 0.616160 0.942615
Si Si5 0.022570 0.637393 0.362365
O O1 0.250000 0.500000 0.301183
O O2 0.123789 0.401218 0.382473
O O3 0.021832 0.537997 0.319765
O O4 0.086117 0.335589 0.283103
O O5 0.799007 0.289680 0.422230
O O6 0.798077 0.127676 0.488793
O O7 0.653663 0.139893 0.395205
O O8 0.750000 0.500000 0.927277
O O9 0.579538 0.632174 0.911647
O O10 0.000000 0.750000 0.332376
#
# Coordination Sequence:
#
# PCOD9505963 Si02
#       5
#    16  16   4  16  16
#     4  10  23  47  65  89 129 163 209 284 318 375
#     4   9  20  37  56  85 133 163 201 257 310 375
#     4  12  28  48  70 102 116 176 236 270 344 380
#     4  10  19  31  56  97 122 168 208 237 309 404
#     4   9  19  38  60  87 127 169 203 249 325 387
#
# _framework density 21.198782000000001
#
# number of rings (size 3 to 8) (size 9 to 14) (size 15 to 20)
#    0.000    2.353    0.000    2.118    3.294    3.765 
#   19.059    0.000    0.000    0.000    0.000    0.000 
#    0.000    0.000    0.000    0.000    0.000    0.000 
#
# Total GULP energy -189502.901004 kJ/mol
# GULP energy per Si atom -5573.614735 kJ/mol
# Density = 2.115053 g / cm^3
# Si number density = 21.198782 Si / 1000 Ang^3
#
#
#
# Elastic Constant Matrix: (Units=GPa)
#
#
# Indices 1 2 3 4 5 6 
#
# 1 18.1406 32.8371 6.6966 0.0000 0.0000 0.0000
# 2 32.8371 222.2749 51.7068 0.0000 0.0000 0.0000
# 3 6.6966 51.7068 44.9722 0.0000 0.0000 0.0000
# 4 0.0000 0.0000 0.0000 28.0599 0.0000 0.0000
# 5 0.0000 0.0000 0.0000 0.0000 6.2748 0.0000
# 6 0.0000 0.0000 0.0000 0.0000 0.0000 31.4807
#
#
#
# Elastic Compliance Matrix: (Units=1/GPa)
#
#
# Indices 1 2 3 4 5 6 
#
# 1 0.075400 -0.011641 0.002156 0.000000 0.000000 0.000000
# 2 -0.011641 0.007939 -0.007394 0.000000 0.000000 0.000000
# 3 0.002156 -0.007394 0.030416 0.000000 0.000000 0.000000
# 4 0.000000 0.000000 0.000000 0.035638 0.000000 0.000000
# 5 0.000000 0.000000 0.000000 0.000000 0.159367 0.000000
# 6 0.000000 0.000000 0.000000 0.000000 0.000000 0.031765
#
#
# Mechanical properties :
#
#
# Convention : Reuss Voigt Hill
#
# Bulk Modulus (GPa) = 12.50023 51.98541 32.24282
# Shear Modulus (GPa) = 12.47041 26.10623 19.28832
#
# Velocity S-wave (km/s) = 2.42804 3.51308 3.01969
# Velocity P-wave (km/s) = 3.71079 6.40560 5.23458
#
# Compressibility (1/GPa) = 0.07999853
#
# Stress axis : x y z
#
# Youngs Moduli (GPa) = 13.26253 125.96497 32.87713
#
# Poissons Ratio (x) = 1.46632 -0.07090
# Poissons Ratio (y) = 0.15439 0.24310
# Poissons Ratio (z) = -0.02860 0.93141
#
# Static dielectric constant tensor:
#      x y z
#    x 1.894060 0.000000 0.000000 
#    y 0.000000 1.852760 0.000000 
#    z 0.000000 0.000000 1.746150 
# 
# From -- ./inp_files/38278.got.cif
#   From: 2010.05.17/outbox.cif.g08.bks.cpg/sg68_20_cif.got.tgz:38278.got - 2010.06.03 18:57:09.
