data_PCOD9505568
_publ_section_title
;
Structure prediction by ZEFSAII (Michael W. Deem and Ramdas Pophale) SiO2 
 PCOD9505568
Probable space group: C C C A
;
_chemical_formula_sum "Si O2"
_cell_formula_units_Z 104
_cell_length_a 22.330164
_cell_length_b 8.241579
_cell_length_c 30.962223
_cell_angle_alpha 90.000000
_cell_angle_beta 90.000000
_cell_angle_gamma 90.000000
_cell_volume 5698.157811
_symmetry_space_group_name_H-M "C C C A"
_symmetry_group_IT_number 68
_space_group.IT_coordinate_system_code '2'
_symmetry_cell_setting 'orthorhombic'
loop_
_space_group_symop_operation_xyz
x,y,z
-x,1/2-y,z
x,1/2-y,1/2-z
-x,y,1/2-z
-x,-y,-z
x,1/2+y,-z
-x,1/2+y,1/2+z
x,-y,1/2+z
1/2+x,1/2+y,z
1/2-x,-y,z
1/2+x,-y,1/2-z
1/2-x,1/2+y,1/2-z
1/2-x,1/2-y,-z
1/2+x,y,-z
1/2-x,y,1/2+z
1/2+x,1/2-y,1/2+z
loop_
_atom_site_type_symbol
_atom_site_label
_atom_site_fract_x
_atom_site_fract_y
_atom_site_fract_z
Si Si1 0.819482 0.049536 0.547945
Si Si2 0.590005 0.509013 0.030595
Si Si3 0.824396 0.182681 0.296464
Si Si4 0.187925 0.829955 0.176733
Si Si5 0.677018 0.011795 0.647001
Si Si6 0.192038 0.409419 0.923203
Si Si7 0.500000 0.250000 0.490514
O O1 0.865727 0.993528 0.511173
O O2 0.819674 0.244714 0.550880
O O3 0.750000 0.000000 0.541010
O O4 0.838353 0.993407 0.596172
O O5 0.634745 0.522529 0.070331
O O6 0.544241 0.361180 0.036868
O O7 0.545382 0.652690 0.020422
O O8 0.842901 0.250000 0.250000
O O9 0.751397 0.182822 0.298898
O O10 0.842182 0.319560 0.331430
O O11 0.842547 0.995525 0.305828
O O12 0.157573 0.651505 0.173336
O O13 0.202179 0.865136 0.126373
O O14 0.750000 0.000000 0.648346
O O15 0.250000 0.500000 0.939990
#
# Coordination Sequence:
#
# PCOD9505568 Si02
#       7
#    16  16  16  16  16  16   8
#     4  10  21  34  52  80 104 135 185 220 271 309
#     4  11  22  38  57  72 101 143 178 232 258 325
#     4  10  18  27  44  66  97 148 178 197 247 321
#     4   9  19  30  42  69 101 132 176 213 250 304
#     4   8  17  30  43  65 102 132 171 217 251 301
#     4  11  21  35  53  78 106 136 182 223 273 304
#     4  10  24  40  50  74 100 134 192 216 280 300
#
# _framework density 18.251512999999999
#
# number of rings (size 3 to 8) (size 9 to 14) (size 15 to 20)
#    0.000    2.154    3.077    1.385    8.615    1.231 
#    0.000    0.000    0.000    0.000    0.000    0.000 
#    0.000    0.000    0.000   35.308    0.000    0.000 
#
# Total GULP energy -289637.373587 kJ/mol
# GULP energy per Si atom -5569.949492 kJ/mol
# Density = 1.820997 g / cm^3
# Si number density = 18.251513 Si / 1000 Ang^3
#
#
#
# Elastic Constant Matrix: (Units=GPa)
#
#
# Indices 1 2 3 4 5 6 
#
# 1 57.8502 14.9562 4.8743 0.0000 0.0000 0.0000
# 2 14.9562 92.0819 34.6543 0.0000 0.0000 0.0000
# 3 4.8743 34.6543 62.9483 0.0000 0.0000 0.0000
# 4 0.0000 0.0000 0.0000 -26.8424 0.0000 0.0000
# 5 0.0000 0.0000 0.0000 0.0000 151.1471 0.0000
# 6 0.0000 0.0000 0.0000 0.0000 0.0000 -2.5664
#
#
#
# Elastic Compliance Matrix: (Units=1/GPa)
#
#
# Indices 1 2 3 4 5 6 
#
# 1 0.018047 -0.003034 0.000273 0.000000 0.000000 0.000000
# 2 -0.003034 0.014208 -0.007587 0.000000 0.000000 0.000000
# 3 0.000273 -0.007587 0.020042 0.000000 0.000000 0.000000
# 4 0.000000 0.000000 0.000000 -0.037255 0.000000 0.000000
# 5 0.000000 0.000000 0.000000 0.000000 0.006616 0.000000
# 6 0.000000 0.000000 0.000000 0.000000 0.000000 -0.389648
#
#
# Mechanical properties :
#
#
# Convention : Reuss Voigt Hill
#
# Bulk Modulus (GPa) = 31.64459 35.76111 33.70285
# Shear Modulus (GPa) = -14.84738 34.90735 10.02999
#
# Velocity S-wave (km/s) = -2.85526 4.37804 2.34678
# Velocity P-wave (km/s) = 2.55062 6.72253 5.08419
#
# Compressibility (1/GPa) = 0.03160098
#
# Stress axis : x y z
#
# Youngs Moduli (GPa) = 55.40951 70.38322 49.89614
#
# Poissons Ratio (x) = 0.21354 -0.01361
# Poissons Ratio (y) = 0.16811 0.37855
# Poissons Ratio (z) = -0.01512 0.53398
#
# Static dielectric constant tensor:
#      x y z
#    x 1.594280 0.000000 0.000000 
#    y 0.000000 1.779240 0.000000 
#    z 0.000000 0.000000 1.623200 
# 
# From -- ./inp_files/56047.got.cif
#   From: 2010.05.17/outbox.cif.g08.bks.cpg/sg68_29_cif.got.tgz:56047.got - 2010.06.03 18:57:09.
