data_PCOD9505425
_publ_section_title
;
Structure prediction by ZEFSAII (Michael W. Deem and Ramdas Pophale) SiO2 
 PCOD9505425
Probable space group: C C C A
;
_chemical_formula_sum "Si O2"
_cell_formula_units_Z 68
_cell_length_a 22.774628
_cell_length_b 10.162341
_cell_length_c 13.864529
_cell_angle_alpha 90.000000
_cell_angle_beta 90.000000
_cell_angle_gamma 90.000000
_cell_volume 3208.855615
_symmetry_space_group_name_H-M "C C C A"
_symmetry_group_IT_number 68
_space_group.IT_coordinate_system_code '2'
_symmetry_cell_setting 'orthorhombic'
loop_
_space_group_symop_operation_xyz
x,y,z
-x,1/2-y,z
x,1/2-y,1/2-z
-x,y,1/2-z
-x,-y,-z
x,1/2+y,-z
-x,1/2+y,1/2+z
x,-y,1/2+z
1/2+x,1/2+y,z
1/2-x,-y,z
1/2+x,-y,1/2-z
1/2-x,1/2+y,1/2-z
1/2-x,1/2-y,-z
1/2+x,y,-z
1/2-x,y,1/2+z
1/2+x,1/2-y,1/2+z
loop_
_atom_site_type_symbol
_atom_site_label
_atom_site_fract_x
_atom_site_fract_y
_atom_site_fract_z
Si Si1 0.462407 0.385660 0.053339
Si Si2 0.396966 0.371738 0.868108
Si Si3 0.250000 0.500000 0.198180
Si Si4 0.807486 0.750000 0.750000
Si Si5 0.372439 0.097731 0.282114
Si Si6 0.000000 0.250000 0.250000
O O1 0.500000 0.250000 0.060016
O O2 0.431828 0.419103 0.154988
O O3 0.500000 0.500000 0.000000
O O4 0.407829 0.370899 0.980423
O O5 0.351431 0.256855 0.839708
O O6 0.377109 0.504675 0.813191
O O7 0.458305 0.334337 0.818314
O O8 0.232868 0.374163 0.258742
O O9 0.314149 0.452874 0.158864
O O10 0.367791 0.250000 0.250000
#
# Coordination Sequence:
#
# PCOD9505425 Si02
#       6
#    16  16   8   8  16   4
#     4  12  26  42  66  99 137 172 218 270 326 405
#     4  10  21  38  65  93 127 168 217 259 325 389
#     4  10  20  42  68  92 126 172 224 272 328 388
#     4   9  20  37  68  90 123 166 215 272 324 382
#     4  11  24  44  67  97 136 174 220 277 340 386
#     4  10  16  36  62  88 122 176 202 262 306 392
#
# _framework density 21.191354
#
# number of rings (size 3 to 8) (size 9 to 14) (size 15 to 20)
#    0.000    1.412    2.353    2.824    6.588    2.353 
#    0.000    5.882    0.000    0.000    0.000    0.000 
#    0.000    0.000    0.000    0.000    0.000    0.000 
#
# Total GULP energy -189280.829462 kJ/mol
# GULP energy per Si atom -5567.083219 kJ/mol
# Density = 2.114312 g / cm^3
# Si number density = 21.191354 Si / 1000 Ang^3
#
#
#
# Elastic Constant Matrix: (Units=GPa)
#
#
# Indices 1 2 3 4 5 6 
#
# 1 107.1359 50.4119 8.3098 0.0000 0.0000 0.0000
# 2 50.4119 110.7445 4.4902 0.0000 0.0000 0.0000
# 3 8.3098 4.4902 49.3344 0.0000 0.0000 0.0000
# 4 0.0000 0.0000 0.0000 19.3262 0.0000 0.0000
# 5 0.0000 0.0000 0.0000 0.0000 23.3779 0.0000
# 6 0.0000 0.0000 0.0000 0.0000 0.0000 39.9611
#
#
#
# Elastic Compliance Matrix: (Units=1/GPa)
#
#
# Indices 1 2 3 4 5 6 
#
# 1 0.011992 -0.005397 -0.001529 0.000000 0.000000 0.000000
# 2 -0.005397 0.011492 -0.000137 0.000000 0.000000 0.000000
# 3 -0.001529 -0.000137 0.020540 0.000000 0.000000 0.000000
# 4 0.000000 0.000000 0.000000 0.051743 0.000000 0.000000
# 5 0.000000 0.000000 0.000000 0.000000 0.042776 0.000000
# 6 0.000000 0.000000 0.000000 0.000000 0.000000 0.025024
#
#
# Mechanical properties :
#
#
# Convention : Reuss Voigt Hill
#
# Bulk Modulus (GPa) = 33.44614 43.73764 38.59189
# Shear Modulus (GPa) = 26.64420 30.13322 28.38871
#
# Velocity S-wave (km/s) = 3.54971 3.77498 3.66408
# Velocity P-wave (km/s) = 5.71120 6.29959 6.01259
#
# Compressibility (1/GPa) = 0.02989882
#
# Stress axis : x y z
#
# Youngs Moduli (GPa) = 83.38917 87.01667 48.68598
#
# Poissons Ratio (x) = 0.46962 0.07443
# Poissons Ratio (y) = 0.45004 0.00667
# Poissons Ratio (z) = 0.12748 0.01191
#
# Static dielectric constant tensor:
#      x y z
#    x 1.821950 0.000000 0.000000 
#    y 0.000000 1.828330 0.000000 
#    z 0.000000 0.000000 1.785560 
# 
# From -- ./inp_files/24270.got.cif
#   From: 2010.05.17/outbox.cif.g08.bks.cpg/sg68_13_cif.got.tgz:24270.got - 2010.06.03 18:57:09.
