data_PCOD9505571
_publ_section_title
;
Structure prediction by ZEFSAII (Michael W. Deem and Ramdas Pophale) SiO2 
 PCOD9505571
Probable space group: C C C A
;
_chemical_formula_sum "Si O2"
_cell_formula_units_Z 104
_cell_length_a 14.076403
_cell_length_b 28.423731
_cell_length_c 9.590871
_cell_angle_alpha 90.000000
_cell_angle_beta 90.000000
_cell_angle_gamma 90.000000
_cell_volume 3837.344818
_symmetry_space_group_name_H-M "C C C A"
_symmetry_group_IT_number 68
_space_group.IT_coordinate_system_code '2'
_symmetry_cell_setting 'orthorhombic'
loop_
_space_group_symop_operation_xyz
x,y,z
-x,1/2-y,z
x,1/2-y,1/2-z
-x,y,1/2-z
-x,-y,-z
x,1/2+y,-z
-x,1/2+y,1/2+z
x,-y,1/2+z
1/2+x,1/2+y,z
1/2-x,-y,z
1/2+x,-y,1/2-z
1/2-x,1/2+y,1/2-z
1/2-x,1/2-y,-z
1/2+x,y,-z
1/2-x,y,1/2+z
1/2+x,1/2-y,1/2+z
loop_
_atom_site_type_symbol
_atom_site_label
_atom_site_fract_x
_atom_site_fract_y
_atom_site_fract_z
Si Si1 0.204759 0.841521 0.439366
Si Si2 0.250000 0.500000 0.714398
Si Si3 0.140621 0.799517 0.172599
Si Si4 0.112447 0.254336 0.414133
Si Si5 0.258092 0.563274 0.957002
Si Si6 0.502814 0.383939 0.389867
Si Si7 0.967997 0.543328 0.593269
O O1 0.217923 0.819235 0.283601
O O2 0.152699 0.803741 0.537371
O O3 0.269054 0.880679 0.517364
O O4 0.112739 0.872633 0.401320
O O5 0.302092 0.536567 0.822015
O O6 0.289485 0.462975 0.598942
O O7 0.111150 0.750000 0.250000
O O8 0.058598 0.837377 0.141046
O O9 0.165131 0.783844 0.013463
O O10 0.123866 0.250000 0.250000
O O11 0.000000 0.250000 0.444730
O O12 0.145454 0.552957 0.923517
O O13 0.500000 0.414811 0.250000
O O14 0.478464 0.411296 0.528423
O O15 0.000000 0.536876 0.750000
O O16 0.000000 0.500000 0.500000
#
# Coordination Sequence:
#
# PCOD9505571 Si02
#       7
#    16   8  16  16  16  16  16
#     4   9  18  31  50  78 113 148 201 243 283 370
#     4  10  22  44  70  80 110 156 220 288 292 356
#     4   9  17  27  47  72 110 163 197 220 274 361
#     4  10  18  27  45  77 125 166 196 229 282 357
#     4  10  22  41  62  91 112 155 214 260 324 355
#     4   9  17  28  44  69 108 157 195 217 265 352
#     4  11  22  35  54  84 126 157 179 236 314 392
#
# _framework density 27.102074000000002
#
# number of rings (size 3 to 8) (size 9 to 14) (size 15 to 20)
#    0.000    2.308    1.538    1.385    2.154    4.923 
#    0.000    3.077    0.000    0.000    0.000   14.000 
#    0.000    0.000    0.000    0.000    0.000    0.000 
#
# Total GULP energy -290311.957143 kJ/mol
# GULP energy per Si atom -5582.922253 kJ/mol
# Density = 2.704039 g / cm^3
# Si number density = 27.102074 Si / 1000 Ang^3
#
#
#
# Elastic Constant Matrix: (Units=GPa)
#
#
# Indices 1 2 3 4 5 6 
#
# 1 122.6516 18.2680 19.0191 0.0000 0.0000 0.0000
# 2 18.2680 131.4630 55.7249 0.0000 0.0000 0.0000
# 3 19.0191 55.7249 253.0527 0.0000 0.0000 0.0000
# 4 0.0000 0.0000 0.0000 38.6027 0.0000 0.0000
# 5 0.0000 0.0000 0.0000 0.0000 25.3269 0.0000
# 6 0.0000 0.0000 0.0000 0.0000 0.0000 -3.1444
#
#
#
# Elastic Compliance Matrix: (Units=1/GPa)
#
#
# Indices 1 2 3 4 5 6 
#
# 1 0.008364 -0.000988 -0.000411 0.000000 0.000000 0.000000
# 2 -0.000988 0.008507 -0.001799 0.000000 0.000000 0.000000
# 3 -0.000411 -0.001799 0.004379 0.000000 0.000000 0.000000
# 4 0.000000 0.000000 0.000000 0.025905 0.000000 0.000000
# 5 0.000000 0.000000 0.000000 0.000000 0.039484 0.000000
# 6 0.000000 0.000000 0.000000 0.000000 0.000000 -0.318030
#
#
# Mechanical properties :
#
#
# Convention : Reuss Voigt Hill
#
# Bulk Modulus (GPa) = 67.32508 77.02125 72.17317
# Shear Modulus (GPa) = -22.72267 39.76740 8.52236
#
# Velocity S-wave (km/s) = -2.89867 3.83472 1.77521
# Velocity P-wave (km/s) = 3.70029 6.93451 5.55786
#
# Compressibility (1/GPa) = 0.01485331
#
# Stress axis : x y z
#
# Youngs Moduli (GPa) = 119.55891 117.55644 228.37332
#
# Poissons Ratio (x) = 0.11615 0.09388
# Poissons Ratio (y) = 0.11813 0.41084
# Poissons Ratio (z) = 0.04915 0.21148
#
# Static dielectric constant tensor:
#      x y z
#    x 2.454210 0.000000 0.000000 
#    y 0.000000 2.469200 0.000000 
#    z 0.000000 0.000000 2.189830 
# 
# From -- ./inp_files/7514.got.cif
#   From: 2010.05.17/outbox.cif.g08.bks.cpg/sg68_4_cif.got.tgz:7514.got - 2010.06.03 18:57:09.
