data_PCOD9505194
_publ_section_title
;
Structure prediction by ZEFSAII (Michael W. Deem and Ramdas Pophale) SiO2 
 PCOD9505194
Probable space group: C M M A
;
_chemical_formula_sum "Si O2"
_cell_formula_units_Z 44
_cell_length_a 27.000000
_cell_length_b 15.000000
_cell_length_c 12.000000
_cell_angle_alpha 90.000000
_cell_angle_beta 90.000000
_cell_angle_gamma 90.000000
_cell_volume 4860.000000
_symmetry_space_group_name_H-M "C M M A"
_symmetry_group_IT_number 67
_symmetry_cell_setting 'orthorhombic'
loop_
_space_group_symop_operation_xyz
x,y,z
-x,1/2-y,z
x,-y,-z
-x,1/2+y,-z
-x,-y,-z
x,1/2+y,-z
-x,y,z
x,1/2-y,z
1/2+x,1/2+y,z
1/2-x,-y,z
1/2+x,1/2-y,-z
1/2-x,y,-z
1/2-x,1/2-y,-z
1/2+x,y,-z
1/2-x,1/2+y,z
1/2+x,-y,z
loop_
_atom_site_type_symbol
_atom_site_label
_atom_site_fract_x
_atom_site_fract_y
_atom_site_fract_z
Si Si1 0.346704 0.408872 0.635562
Si Si2 0.629431 0.750000 0.955253
Si Si3 0.799043 0.597803 0.420132
Si Si4 0.182007 0.750000 0.803691
Si Si5 0.708759 0.750000 0.762038
Si Si6 0.556280 0.645140 0.278310
Si Si7 0.056397 0.603699 0.984706
O O1 0.316761 0.502384 0.629694
O O2 0.339687 0.371942 0.510640
O O3 0.328775 0.337609 0.727858
O O4 0.404328 0.417878 0.662677
O O5 0.666503 0.750000 0.853306
O O6 0.654011 0.750000 0.078716
O O7 0.594827 0.836289 0.950579
O O8 0.750000 0.596668 0.500000
O O9 0.792478 0.665525 0.320241
O O10 0.239859 0.750000 0.826868
O O11 0.500000 0.629211 0.313002
O O12 0.568066 0.750000 0.298563
O O13 0.559196 0.629455 0.145607
O O14 0.000000 0.620997 0.021074
O O15 0.066873 0.500000 0.000000
#
# Coordination Sequence:
#
# PCOD9505194 Si02
#       7
#    16   8  16   8   8  16  16
#     4  11  20  37  66  92 115 152 205 258 300 353
#     4  12  24  39  58  93 128 158 197 248 310 369
#     4  11  24  41  61  89 115 159 214 254 297 360
#     4  12  22  39  63  86 125 156 195 253 309 362
#     4  12  27  39  60  84 128 162 201 252 309 361
#     4  10  19  35  61  93 122 155 201 251 300 363
#     4  10  20  36  62  88 118 163 205 244 294 360
#
# _framework density 9.0534979999999994
#
# number of rings (size 3 to 8) (size 9 to 14) (size 15 to 20)
#    0.000    1.091    5.455    2.455    2.545    0.000 
#    0.000    1.818    0.000    5.455    0.000    0.000 
#    0.000    0.000    0.000    0.000    0.000    0.000 
#
# Total GULP energy -245319.372125 kJ/mol
# GULP energy per Si atom -5575.440276 kJ/mol
# Density = 0.903289 g / cm^3
# Si number density = 9.053498 Si / 1000 Ang^3
#
#
#
# Elastic Constant Matrix: (Units=GPa)
#
#
# Indices 1 2 3 4 5 6 
#
# 1 146.3355 77.3726 52.8360 0.0000 0.0000 0.0000
# 2 77.3726 103.6533 54.2785 0.0000 0.0000 0.0000
# 3 52.8360 54.2785 69.4088 0.0000 0.0000 0.0000
# 4 0.0000 0.0000 0.0000 13.1763 0.0000 0.0000
# 5 0.0000 0.0000 0.0000 0.0000 22.9867 0.0000
# 6 0.0000 0.0000 0.0000 0.0000 0.0000 22.1276
#
#
#
# Elastic Compliance Matrix: (Units=1/GPa)
#
#
# Indices 1 2 3 4 5 6 
#
# 1 0.011782 -0.006940 -0.003541 0.000000 0.000000 0.000000
# 2 -0.006940 0.020426 -0.010690 0.000000 0.000000 0.000000
# 3 -0.003541 -0.010690 0.025463 0.000000 0.000000 0.000000
# 4 0.000000 0.000000 0.000000 0.075894 0.000000 0.000000
# 5 0.000000 0.000000 0.000000 0.000000 0.043503 0.000000
# 6 0.000000 0.000000 0.000000 0.000000 0.000000 0.045192
#
#
# Mechanical properties :
#
#
# Convention : Reuss Voigt Hill
#
# Bulk Modulus (GPa) = 65.24319 76.48573 70.86446
# Shear Modulus (GPa) = 18.53816 20.65214 19.59515
#
# Velocity S-wave (km/s) = 3.20318 3.38088 3.29323
# Velocity P-wave (km/s) = 7.05625 7.58770 7.32680
#
# Compressibility (1/GPa) = 0.01532727
#
# Stress axis : x y z
#
# Youngs Moduli (GPa) = 84.87725 48.95690 39.27228
#
# Poissons Ratio (x) = 0.33977 0.13908
# Poissons Ratio (y) = 0.58906 0.41984
# Poissons Ratio (z) = 0.30058 0.52337
#
# Static dielectric constant tensor:
#      x y z
#    x 1.688030 0.000000 0.000000 
#    y 0.000000 1.632940 0.000000 
#    z 0.000000 0.000000 1.588990 
# 
# From -- ./inp_files/22857.got.cif
#   From: 2010.05.17/outbox.ucp.g08.bks.cvg/sg67_12_cif.got.tgz:22857.got - 2010.06.11 16:47:20.
