data_PCOD9505437
_publ_section_title
;
Structure prediction by ZEFSAII (Michael W. Deem and Ramdas Pophale) SiO2 
 PCOD9505437
Probable space group: C C C A
;
_chemical_formula_sum "Si O2"
_cell_formula_units_Z 64
_cell_length_a 5.405568
_cell_length_b 14.336402
_cell_length_c 34.264739
_cell_angle_alpha 90.000000
_cell_angle_beta 90.000000
_cell_angle_gamma 90.000000
_cell_volume 2655.393778
_symmetry_space_group_name_H-M "C C C A"
_symmetry_group_IT_number 68
_space_group.IT_coordinate_system_code '2'
_symmetry_cell_setting 'orthorhombic'
loop_
_space_group_symop_operation_xyz
x,y,z
-x,1/2-y,z
x,1/2-y,1/2-z
-x,y,1/2-z
-x,-y,-z
x,1/2+y,-z
-x,1/2+y,1/2+z
x,-y,1/2+z
1/2+x,1/2+y,z
1/2-x,-y,z
1/2+x,-y,1/2-z
1/2-x,1/2+y,1/2-z
1/2-x,1/2-y,-z
1/2+x,y,-z
1/2-x,y,1/2+z
1/2+x,1/2-y,1/2+z
loop_
_atom_site_type_symbol
_atom_site_label
_atom_site_fract_x
_atom_site_fract_y
_atom_site_fract_z
Si Si1 0.445898 0.108256 0.486452
Si Si2 0.252390 0.613550 0.357620
Si Si3 0.252527 0.855026 0.233410
Si Si4 0.255201 0.611046 0.601187
O O1 0.726552 0.146701 0.485817
O O2 0.320154 0.119721 0.444376
O O3 0.500000 0.000000 0.500000
O O4 0.250000 0.500000 0.357735
O O5 0.267633 0.645204 0.313060
O O6 0.489521 0.643948 0.383235
O O7 0.992424 0.646168 0.375300
O O8 0.252212 0.750000 0.250000
O O9 0.500000 0.900231 0.250000
O O10 0.000000 0.896960 0.250000
O O11 0.250000 0.500000 0.607943
#
# Coordination Sequence:
#
# PCOD9505437 Si02
#       4
#    16  16  16  16
#     4  10  17  24  41  63  95 147 197 203 240 304
#     4  10  21  32  49  75 106 140 175 218 275 315
#     4  10  21  38  58  76  97 133 177 229 269 323
#     4  10  18  29  43  68 107 143 183 212 257 310
#
# _framework density 24.101887000000001
#
# number of rings (size 3 to 8) (size 9 to 14) (size 15 to 20)
#    0.000    2.000    2.500    3.000    7.000    1.000 
#    0.000    0.000    0.000    0.000    0.000    0.000 
#    0.000    0.000    0.000  315.000    0.000    0.000 
#
# Total GULP energy -178741.316969 kJ/mol
# GULP energy per Si atom -5585.666155 kJ/mol
# Density = 2.404703 g / cm^3
# Si number density = 24.101887 Si / 1000 Ang^3
#
#
#
# Elastic Constant Matrix: (Units=GPa)
#
#
# Indices 1 2 3 4 5 6 
#
# 1 269.5088 5.7507 96.0337 0.0000 0.0000 0.0000
# 2 5.7507 113.6361 8.1329 0.0000 0.0000 0.0000
# 3 96.0337 8.1329 186.7283 0.0000 0.0000 0.0000
# 4 0.0000 0.0000 0.0000 30.7536 0.0000 0.0000
# 5 0.0000 0.0000 0.0000 0.0000 53.9067 0.0000
# 6 0.0000 0.0000 0.0000 0.0000 0.0000 -34.2762
#
#
#
# Elastic Compliance Matrix: (Units=1/GPa)
#
#
# Indices 1 2 3 4 5 6 
#
# 1 0.004543 -0.000063 -0.002334 0.000000 0.000000 0.000000
# 2 -0.000063 0.008828 -0.000352 0.000000 0.000000 0.000000
# 3 -0.002334 -0.000352 0.006571 0.000000 0.000000 0.000000
# 4 0.000000 0.000000 0.000000 0.032517 0.000000 0.000000
# 5 0.000000 0.000000 0.000000 0.000000 0.018551 0.000000
# 6 0.000000 0.000000 0.000000 0.000000 0.000000 -0.029175
#
#
# Mechanical properties :
#
#
# Convention : Reuss Voigt Hill
#
# Bulk Modulus (GPa) = 69.22860 87.74531 78.48696
# Shear Modulus (GPa) = 95.88062 40.74056 68.31059
#
# Velocity S-wave (km/s) = 6.31409 4.11584 5.32954
# Velocity P-wave (km/s) = 9.05222 7.68583 8.39686
#
# Compressibility (1/GPa) = 0.01444490
#
# Stress axis : x y z
#
# Youngs Moduli (GPa) = 220.09735 113.27075 152.18272
#
# Poissons Ratio (x) = 0.00712 0.35519
# Poissons Ratio (y) = 0.01384 0.05360
# Poissons Ratio (z) = 0.51369 0.03989
#
# Static dielectric constant tensor:
#      x y z
#    x 1.944420 0.000000 0.000000 
#    y 0.000000 2.001100 0.000000 
#    z 0.000000 0.000000 1.899160 
# 
# From -- ./inp_files/48106.got.cif
#   From: 2010.05.17/outbox.cif.g08.bks.cpg/sg68_25_cif.got.tgz:48106.got - 2010.06.03 18:57:09.
