data_PCOD9505824
_publ_section_title
;
Structure prediction by ZEFSAII (Michael W. Deem and Ramdas Pophale) SiO2 
 PCOD9505824
Probable space group: C C C A
;
_chemical_formula_sum "Si O2"
_cell_formula_units_Z 64
_cell_length_a 13.824472
_cell_length_b 5.457737
_cell_length_c 34.641818
_cell_angle_alpha 90.000000
_cell_angle_beta 90.000000
_cell_angle_gamma 90.000000
_cell_volume 2613.736681
_symmetry_space_group_name_H-M "C C C A"
_symmetry_group_IT_number 68
_space_group.IT_coordinate_system_code '2'
_symmetry_cell_setting 'orthorhombic'
loop_
_space_group_symop_operation_xyz
x,y,z
-x,1/2-y,z
x,1/2-y,1/2-z
-x,y,1/2-z
-x,-y,-z
x,1/2+y,-z
-x,1/2+y,1/2+z
x,-y,1/2+z
1/2+x,1/2+y,z
1/2-x,-y,z
1/2+x,-y,1/2-z
1/2-x,1/2+y,1/2-z
1/2-x,1/2-y,-z
1/2+x,y,-z
1/2-x,y,1/2+z
1/2+x,1/2-y,1/2+z
loop_
_atom_site_type_symbol
_atom_site_label
_atom_site_fract_x
_atom_site_fract_y
_atom_site_fract_z
Si Si1 0.314956 0.250000 0.750000
Si Si2 0.891143 0.058812 0.015234
Si Si3 0.750000 0.500000 0.114779
Si Si4 0.096987 0.388316 0.594070
Si Si5 0.647234 0.356845 0.832625
O O1 0.250000 0.500000 0.756597
O O2 0.376710 0.200540 0.788621
O O3 0.890140 0.094655 0.061354
O O4 0.848322 0.792660 0.005936
O O5 0.000000 0.000000 0.000000
O O6 0.809118 0.712338 0.093363
O O7 0.670369 0.614925 0.143306
O O8 0.084277 0.487309 0.637586
O O9 0.000000 0.250000 0.582680
O O10 0.750000 0.500000 0.830144
#
# Coordination Sequence:
#
# PCOD9505824 Si02
#       5
#     8  16   8  16  16
#     4  10  18  36  68 101 135 184 224 272 339 402
#     4  10  21  39  64  94 127 176 230 278 342 421
#     4  10  22  40  62  96 132 170 228 276 338 414
#     4  11  23  40  67  97 134 178 226 289 349 410
#     4   9  20  37  63 100 130 173 225 274 328 409
#
# _framework density 24.486015999999999
#
# number of rings (size 3 to 8) (size 9 to 14) (size 15 to 20)
#    0.000    2.000    3.750    0.000    3.500    1.000 
#    0.000    1.250    0.000    4.500    0.000    0.000 
#    0.000    0.000    0.000    0.000    0.000    0.000 
#
# Total GULP energy -178676.421290 kJ/mol
# GULP energy per Si atom -5583.638165 kJ/mol
# Density = 2.443028 g / cm^3
# Si number density = 24.486016 Si / 1000 Ang^3
#
#
#
# Elastic Constant Matrix: (Units=GPa)
#
#
# Indices 1 2 3 4 5 6 
#
# 1 79.6509 -0.6845 15.0394 0.0000 0.0000 0.0000
# 2 -0.6845 109.2325 25.7703 0.0000 0.0000 0.0000
# 3 15.0394 25.7703 204.2814 0.0000 0.0000 0.0000
# 4 0.0000 0.0000 0.0000 38.6876 0.0000 0.0000
# 5 0.0000 0.0000 0.0000 0.0000 21.5090 0.0000
# 6 0.0000 0.0000 0.0000 0.0000 0.0000 13.7585
#
#
#
# Elastic Compliance Matrix: (Units=1/GPa)
#
#
# Indices 1 2 3 4 5 6 
#
# 1 0.012742 0.000310 -0.000977 0.000000 0.000000 0.000000
# 2 0.000310 0.009443 -0.001214 0.000000 0.000000 0.000000
# 3 -0.000977 -0.001214 0.005120 0.000000 0.000000 0.000000
# 4 0.000000 0.000000 0.000000 0.025848 0.000000 0.000000
# 5 0.000000 0.000000 0.000000 0.000000 0.046492 0.000000
# 6 0.000000 0.000000 0.000000 0.000000 0.000000 0.072682
#
#
# Mechanical properties :
#
#
# Convention : Reuss Voigt Hill
#
# Bulk Modulus (GPa) = 42.47452 52.60171 47.53811
# Shear Modulus (GPa) = 27.18309 38.32699 32.75504
#
# Velocity S-wave (km/s) = 3.33550 3.96063 3.66143
# Velocity P-wave (km/s) = 5.67611 6.51494 6.10994
#
# Compressibility (1/GPa) = 0.02354353
#
# Stress axis : x y z
#
# Youngs Moduli (GPa) = 78.48083 105.89673 195.30044
#
# Poissons Ratio (x) = -0.03287 0.19085
# Poissons Ratio (y) = -0.02436 0.23712
# Poissons Ratio (z) = 0.07669 0.12857
#
# Static dielectric constant tensor:
#      x y z
#    x 1.942130 0.000000 0.000000 
#    y 0.000000 2.014540 0.000000 
#    z 0.000000 0.000000 1.937390 
# 
# From -- ./inp_files/55487.got.cif
#   From: 2010.05.17/outbox.cif.g08.bks.cpg/sg68_28_cif.got.tgz:55487.got - 2010.06.03 18:57:09.
