data_PCOD9505951
_publ_section_title
;
Structure prediction by ZEFSAII (Michael W. Deem and Ramdas Pophale) SiO2 
 PCOD9505951
Probable space group: C C C A
;
_chemical_formula_sum "Si O2"
_cell_formula_units_Z 88
_cell_length_a 26.537965
_cell_length_b 5.439693
_cell_length_c 25.679712
_cell_angle_alpha 90.000000
_cell_angle_beta 90.000000
_cell_angle_gamma 90.000000
_cell_volume 3707.081686
_symmetry_space_group_name_H-M "C C C A"
_symmetry_group_IT_number 68
_space_group.IT_coordinate_system_code '2'
_symmetry_cell_setting 'orthorhombic'
loop_
_space_group_symop_operation_xyz
x,y,z
-x,1/2-y,z
x,1/2-y,1/2-z
-x,y,1/2-z
-x,-y,-z
x,1/2+y,-z
-x,1/2+y,1/2+z
x,-y,1/2+z
1/2+x,1/2+y,z
1/2-x,-y,z
1/2+x,-y,1/2-z
1/2-x,1/2+y,1/2-z
1/2-x,1/2-y,-z
1/2+x,y,-z
1/2-x,y,1/2+z
1/2+x,1/2-y,1/2+z
loop_
_atom_site_type_symbol
_atom_site_label
_atom_site_fract_x
_atom_site_fract_y
_atom_site_fract_z
Si Si1 0.317144 0.149164 0.977536
Si Si2 0.561554 0.247448 0.189476
Si Si3 0.940925 0.246871 0.359902
Si Si4 0.716499 0.250000 0.750000
Si Si5 0.783251 0.749855 0.864119
Si Si6 0.565797 0.347038 0.980327
O O1 0.314900 0.226817 0.917079
O O2 0.375435 0.123152 0.993776
O O3 0.296184 0.375532 0.011813
O O4 0.500000 0.250000 0.185950
O O5 0.574946 0.250000 0.250000
O O6 0.580599 0.493063 0.161640
O O7 0.580734 0.999523 0.162665
O O8 0.939303 0.255042 0.421693
O O9 0.000000 0.250000 0.343824
O O10 0.750000 0.500000 0.750120
O O11 0.690613 0.244713 0.806942
O O12 0.750000 0.500000 0.864204
O O13 0.750000 0.000000 0.868206
O O14 0.545525 0.622743 0.985232
#
# Coordination Sequence:
#
# PCOD9505951 Si02
#       6
#    16  16  16   8  16  16
#     4  10  21  35  51  74 102 137 169 202 257 305
#     4   9  17  30  49  73 100 127 158 202 257 308
#     4  10  19  31  51  76  97 129 172 212 251 297
#     4   8  16  30  48  72  98 128 161 190 243 294
#     4  10  19  32  53  78 102 131 165 208 246 293
#     4  10  21  36  51  70  99 138 170 204 256 307
#
# _framework density 23.738348999999999
#
# number of rings (size 3 to 8) (size 9 to 14) (size 15 to 20)
#    0.000    2.364    0.000    2.727    0.000    5.091 
#    0.000    0.000    4.000    0.000    4.727    0.000 
#    0.000    0.000    0.000    0.000    0.000    0.000 
#
# Total GULP energy -245701.298715 kJ/mol
# GULP energy per Si atom -5584.120425 kJ/mol
# Density = 2.368432 g / cm^3
# Si number density = 23.738349 Si / 1000 Ang^3
#
#
#
# Elastic Constant Matrix: (Units=GPa)
#
#
# Indices 1 2 3 4 5 6 
#
# 1 45.2963 23.8503 -22.7969 0.0000 0.0000 0.0000
# 2 23.8503 232.6688 57.8387 0.0000 0.0000 0.0000
# 3 -22.7969 57.8387 132.1569 0.0000 0.0000 0.0000
# 4 0.0000 0.0000 0.0000 49.8955 0.0000 0.0000
# 5 0.0000 0.0000 0.0000 0.0000 18.1228 0.0000
# 6 0.0000 0.0000 0.0000 0.0000 0.0000 24.9067
#
#
#
# Elastic Compliance Matrix: (Units=1/GPa)
#
#
# Indices 1 2 3 4 5 6 
#
# 1 0.027898 -0.004551 0.006804 0.000000 0.000000 0.000000
# 2 -0.004551 0.005565 -0.003221 0.000000 0.000000 0.000000
# 3 0.006804 -0.003221 0.010150 0.000000 0.000000 0.000000
# 4 0.000000 0.000000 0.000000 0.020042 0.000000 0.000000
# 5 0.000000 0.000000 0.000000 0.000000 0.055179 0.000000
# 6 0.000000 0.000000 0.000000 0.000000 0.000000 0.040150
#
#
# Mechanical properties :
#
#
# Convention : Reuss Voigt Hill
#
# Bulk Modulus (GPa) = 23.99379 58.65623 41.32501
# Shear Modulus (GPa) = 28.60228 42.00034 35.30131
#
# Velocity S-wave (km/s) = 3.47493 4.21087 3.86048
# Velocity P-wave (km/s) = 5.12150 6.95737 6.10880
#
# Compressibility (1/GPa) = 0.04167745
#
# Stress axis : x y z
#
# Youngs Moduli (GPa) = 35.84528 179.69136 98.52223
#
# Poissons Ratio (x) = 0.81780 -0.67036
# Poissons Ratio (y) = 0.16314 0.31731
# Poissons Ratio (z) = -0.24390 0.57872
#
# Static dielectric constant tensor:
#      x y z
#    x 1.924120 0.000000 0.000000 
#    y 0.000000 2.358930 0.000000 
#    z 0.000000 0.000000 1.864770 
# 
# From -- ./inp_files/47469.got.cif
#   From: 2010.05.17/outbox.cif.g08.bks.cpg/sg68_24_cif.got.tgz:47469.got - 2010.06.03 18:57:09.
