data_PCOD9505109
_publ_section_title
;
Structure prediction by ZEFSAII (Michael W. Deem and Ramdas Pophale) SiO2 
 PCOD9505109
Probable space group: C M M A
;
_chemical_formula_sum "Si O2"
_cell_formula_units_Z 128
_cell_length_a 20.846641
_cell_length_b 14.295111
_cell_length_c 20.739352
_cell_angle_alpha 90.000000
_cell_angle_beta 90.000000
_cell_angle_gamma 90.000000
_cell_volume 6180.431569
_symmetry_space_group_name_H-M "C M M A"
_symmetry_group_IT_number 67
_symmetry_cell_setting 'orthorhombic'
loop_
_space_group_symop_operation_xyz
x,y,z
-x,1/2-y,z
x,-y,-z
-x,1/2+y,-z
-x,-y,-z
x,1/2+y,-z
-x,y,z
x,1/2-y,z
1/2+x,1/2+y,z
1/2-x,-y,z
1/2+x,1/2-y,-z
1/2-x,y,-z
1/2-x,1/2-y,-z
1/2+x,y,-z
1/2-x,1/2+y,z
1/2+x,-y,z
loop_
_atom_site_type_symbol
_atom_site_label
_atom_site_fract_x
_atom_site_fract_y
_atom_site_fract_z
Si Si1 0.811129 0.863770 0.739500
Si Si2 0.680225 0.616370 0.902902
Si Si3 0.672924 0.102848 0.885437
Si Si4 0.802582 0.135907 0.402922
Si Si5 0.571152 0.364767 0.347869
Si Si6 0.836164 0.863926 0.457185
Si Si7 0.425065 0.113274 0.991970
Si Si8 0.333003 0.357679 0.243044
O O1 0.814235 0.750000 0.741161
O O2 0.839549 0.893948 0.808494
O O3 0.829338 0.893719 0.666763
O O4 0.737332 0.896530 0.745651
O O5 0.681001 0.504429 0.906178
O O6 0.756129 0.645766 0.902805
O O7 0.627757 0.646714 0.955265
O O8 0.653840 0.640344 0.832307
O O9 0.611496 0.137684 0.925249
O O10 0.803718 0.250000 0.401575
O O11 0.836693 0.104216 0.468790
O O12 0.728418 0.109556 0.417932
O O13 0.500000 0.400228 0.342725
O O14 0.569167 0.250000 0.346491
O O15 0.604387 0.392054 0.414233
O O16 0.613093 0.399238 0.287945
O O17 0.834215 0.750000 0.459593
O O18 0.500000 0.143957 0.996824
O O19 0.427948 0.000000 0.000000
O O20 0.327169 0.250000 0.263821
#
# Coordination Sequence:
#
# PCOD9505109 Si02
#       8
#    16  16  16  16  16  16  16  16
#     4   9  15  25  42  63  87 111 136 172 213 255
#     4   9  17  29  46  66  87 108 137 176 216 249
#     4   9  17  29  46  67  87 108 138 174 217 252
#     4   8  12  19  35  56  79 104 136 178 209 235
#     4   9  15  22  33  52  84 118 140 165 204 248
#     4   8  12  19  32  53  78 106 141 175 205 236
#     4   9  17  30  48  66  83 108 143 180 211 249
#     4   9  16  26  39  59  86 112 138 166 205 256
#
# _framework density 20.710526999999999
#
# number of rings (size 3 to 8) (size 9 to 14) (size 15 to 20)
#    0.000    3.250    1.250    1.125    0.000    2.000 
#    0.000    0.625    0.000    4.875    0.000    2.625 
#    0.000    1.000    0.000    0.000    0.000    0.000 
#
# Total GULP energy -356438.432567 kJ/mol
# GULP energy per Si atom -5569.350509 kJ/mol
# Density = 2.066339 g / cm^3
# Si number density = 20.710527 Si / 1000 Ang^3
#
#
#
# Elastic Constant Matrix: (Units=GPa)
#
#
# Indices 1 2 3 4 5 6 
#
# 1 88.0234 15.8631 75.4179 0.0000 0.0000 0.0000
# 2 15.8631 66.8571 4.1720 0.0000 0.0000 0.0000
# 3 75.4179 4.1720 176.7571 0.0000 0.0000 0.0000
# 4 0.0000 0.0000 0.0000 16.4953 0.0000 0.0000
# 5 0.0000 0.0000 0.0000 0.0000 19.4899 0.0000
# 6 0.0000 0.0000 0.0000 0.0000 0.0000 -1.8682
#
#
#
# Elastic Compliance Matrix: (Units=1/GPa)
#
#
# Indices 1 2 3 4 5 6 
#
# 1 0.018913 -0.003990 -0.007976 0.000000 0.000000 0.000000
# 2 -0.003990 0.015821 0.001329 0.000000 0.000000 0.000000
# 3 -0.007976 0.001329 0.009029 0.000000 0.000000 0.000000
# 4 0.000000 0.000000 0.000000 0.060623 0.000000 0.000000
# 5 0.000000 0.000000 0.000000 0.000000 0.051309 0.000000
# 6 0.000000 0.000000 0.000000 0.000000 0.000000 -0.535277
#
#
# Mechanical properties :
#
#
# Convention : Reuss Voigt Hill
#
# Bulk Modulus (GPa) = 44.46362 58.06039 51.26200
# Shear Modulus (GPa) = -14.25264 22.56904 4.15820
#
# Velocity S-wave (km/s) = -2.62617 3.30470 1.41850
# Velocity P-wave (km/s) = 3.50999 6.53119 5.24292
#
# Compressibility (1/GPa) = 0.02249030
#
# Stress axis : x y z
#
# Youngs Moduli (GPa) = 52.87356 63.20710 110.75314
#
# Poissons Ratio (x) = 0.25218 0.88332
# Poissons Ratio (y) = 0.21095 -0.14718
# Poissons Ratio (z) = 0.42170 -0.08400
#
# Static dielectric constant tensor:
#      x y z
#    x 1.713260 0.000000 0.000000 
#    y 0.000000 1.849210 0.000000 
#    z 0.000000 0.000000 1.767060 
# 
# From -- ./inp_files/39157.got.cif
#   From: 2010.05.17/outbox.cif.g08.bks.cpg/sg67_20_cif.got.tgz:39157.got - 2010.06.03 18:28:57.
