data_PCOD9505633
_publ_section_title
;
Structure prediction by ZEFSAII (Michael W. Deem and Ramdas Pophale) SiO2 
 PCOD9505633
Probable space group: C C C A
;
_chemical_formula_sum "Si O2"
_cell_formula_units_Z 80
_cell_length_a 9.224303
_cell_length_b 24.719150
_cell_length_c 20.660157
_cell_angle_alpha 90.000000
_cell_angle_beta 90.000000
_cell_angle_gamma 90.000000
_cell_volume 4710.865562
_symmetry_space_group_name_H-M "C C C A"
_symmetry_group_IT_number 68
_space_group.IT_coordinate_system_code '2'
_symmetry_cell_setting 'orthorhombic'
loop_
_space_group_symop_operation_xyz
x,y,z
-x,1/2-y,z
x,1/2-y,1/2-z
-x,y,1/2-z
-x,-y,-z
x,1/2+y,-z
-x,1/2+y,1/2+z
x,-y,1/2+z
1/2+x,1/2+y,z
1/2-x,-y,z
1/2+x,-y,1/2-z
1/2-x,1/2+y,1/2-z
1/2-x,1/2-y,-z
1/2+x,y,-z
1/2-x,y,1/2+z
1/2+x,1/2-y,1/2+z
loop_
_atom_site_type_symbol
_atom_site_label
_atom_site_fract_x
_atom_site_fract_y
_atom_site_fract_z
Si Si1 0.250000 0.000000 0.455790
Si Si2 0.110300 0.907508 0.875077
Si Si3 0.000000 0.955515 0.750000
Si Si4 0.188122 0.086745 0.058066
Si Si5 0.000000 0.250000 0.501846
Si Si6 0.750000 0.000000 0.339085
Si Si7 0.251498 0.824172 0.956170
O O1 0.348669 0.963580 0.410109
O O2 0.163432 0.958569 0.502191
O O3 0.227023 0.863066 0.895309
O O4 0.089712 0.918794 0.799999
O O5 0.957997 0.892233 0.908610
O O6 0.889248 0.989551 0.794150
O O7 0.268926 0.052329 0.113995
O O8 0.259469 0.136391 0.019456
O O9 0.879143 0.281581 0.460687
O O10 0.903904 0.206905 0.541706
#
# Coordination Sequence:
#
# PCOD9505633 Si02
#       7
#     8  16   8  16   8   8  16
#     4   9  17  26  48  76 107 131 168 206 250 311
#     4  10  18  31  49  75 108 139 172 203 254 317
#     4  10  20  34  48  73 108 147 178 202 240 304
#     4   9  17  31  49  77 108 137 164 209 269 310
#     4  10  20  34  54  81 105 124 170 224 284 314
#     4   9  19  34  50  74 109 143 176 208 242 315
#     4  10  19  34  54  81 104 133 166 222 277 319
#
# _framework density 16.982016999999999
#
# number of rings (size 3 to 8) (size 9 to 14) (size 15 to 20)
#    0.000    2.400    2.000    1.200    0.000    1.600 
#    3.600    0.000    0.000    0.600    0.000    5.600 
#    0.000    0.000    0.000    0.000    0.000    0.000 
#
# Total GULP energy -222762.279638 kJ/mol
# GULP energy per Si atom -5569.056991 kJ/mol
# Density = 1.694336 g / cm^3
# Si number density = 16.982017 Si / 1000 Ang^3
#
#
#
# Elastic Constant Matrix: (Units=GPa)
#
#
# Indices 1 2 3 4 5 6 
#
# 1 57.8265 27.8433 27.9008 0.0000 0.0000 0.0000
# 2 27.8433 72.9555 34.5686 0.0000 0.0000 0.0000
# 3 27.9008 34.5686 103.9883 0.0000 0.0000 0.0000
# 4 0.0000 0.0000 0.0000 5.8812 0.0000 0.0000
# 5 0.0000 0.0000 0.0000 0.0000 24.6948 0.0000
# 6 0.0000 0.0000 0.0000 0.0000 0.0000 37.5430
#
#
#
# Elastic Compliance Matrix: (Units=1/GPa)
#
#
# Indices 1 2 3 4 5 6 
#
# 1 0.022356 -0.006754 -0.003753 0.000000 0.000000 0.000000
# 2 -0.006754 0.018310 -0.004275 0.000000 0.000000 0.000000
# 3 -0.003753 -0.004275 0.012044 0.000000 0.000000 0.000000
# 4 0.000000 0.000000 0.000000 0.170033 0.000000 0.000000
# 5 0.000000 0.000000 0.000000 0.000000 0.040494 0.000000
# 6 0.000000 0.000000 0.000000 0.000000 0.000000 0.026636
#
#
# Mechanical properties :
#
#
# Convention : Reuss Voigt Hill
#
# Bulk Modulus (GPa) = 43.20157 46.15509 44.67833
# Shear Modulus (GPa) = 15.28339 23.25431 19.26885
#
# Velocity S-wave (km/s) = 3.00321 3.70449 3.37213
# Velocity P-wave (km/s) = 6.12540 6.74799 6.44422
#
# Compressibility (1/GPa) = 0.02314731
#
# Stress axis : x y z
#
# Youngs Moduli (GPa) = 44.73106 54.61504 83.02558
#
# Poissons Ratio (x) = 0.36885 0.31161
# Poissons Ratio (y) = 0.30210 0.35491
# Poissons Ratio (z) = 0.16788 0.23346
#
# Static dielectric constant tensor:
#      x y z
#    x 1.612500 0.000000 0.000000 
#    y 0.000000 1.600970 0.000000 
#    z 0.000000 0.000000 1.557870 
# 
# From -- ./inp_files/34049.got.cif
#   From: 2010.05.17/outbox.cif.g08.bks.cpg/sg68_18_cif.got.tgz:34049.got - 2010.06.03 18:57:09.
