data_PCOD9505972
_publ_section_title
;
Structure prediction by ZEFSAII (Michael W. Deem and Ramdas Pophale) SiO2 
 PCOD9505972
Probable space group: C C C A
;
_chemical_formula_sum "Si O2"
_cell_formula_units_Z 64
_cell_length_a 5.230720
_cell_length_b 14.504807
_cell_length_c 35.412668
_cell_angle_alpha 90.000000
_cell_angle_beta 90.000000
_cell_angle_gamma 90.000000
_cell_volume 2686.779805
_symmetry_space_group_name_H-M "C C C A"
_symmetry_group_IT_number 68
_space_group.IT_coordinate_system_code '2'
_symmetry_cell_setting 'orthorhombic'
loop_
_space_group_symop_operation_xyz
x,y,z
-x,1/2-y,z
x,1/2-y,1/2-z
-x,y,1/2-z
-x,-y,-z
x,1/2+y,-z
-x,1/2+y,1/2+z
x,-y,1/2+z
1/2+x,1/2+y,z
1/2-x,-y,z
1/2+x,-y,1/2-z
1/2-x,1/2+y,1/2-z
1/2-x,1/2-y,-z
1/2+x,y,-z
1/2-x,y,1/2+z
1/2+x,1/2-y,1/2+z
loop_
_atom_site_type_symbol
_atom_site_label
_atom_site_fract_x
_atom_site_fract_y
_atom_site_fract_z
Si Si1 0.459437 0.142632 0.143914
Si Si2 0.254103 0.888688 0.727297
Si Si3 0.965827 0.862240 0.606389
Si Si4 0.020809 0.637843 0.521023
O O1 0.500000 0.250000 0.135691
O O2 0.319486 0.137521 0.184428
O O3 0.745771 0.106428 0.135880
O O4 0.247678 0.102570 0.116162
O O5 0.500000 0.856429 0.750000
O O6 0.000000 0.858415 0.750000
O O7 0.250000 0.000000 0.727637
O O8 0.000000 0.750000 0.608430
O O9 0.900920 0.886971 0.563561
O O10 0.741124 0.607565 0.507714
O O11 0.000000 0.750000 0.520428
#
# Coordination Sequence:
#
# PCOD9505972 Si02
#       4
#    16  16  16  16
#     4  10  19  32  49  71  99 129 159 199 250 298
#     4  10  21  37  55  74  98 129 166 209 253 300
#     4   9  17  28  43  66  98 130 160 198 244 290
#     4   9  15  23  37  59  90 128 162 191 231 285
#
# _framework density 23.820335
#
# number of rings (size 3 to 8) (size 9 to 14) (size 15 to 20)
#    0.000    2.500    0.000    3.000    0.000    6.500 
#    0.000    1.250    0.000    0.000    0.000    0.000 
#    0.000   20.000    0.000    0.000    0.000    0.000 
#
# Total GULP energy -178574.545744 kJ/mol
# GULP energy per Si atom -5580.454554 kJ/mol
# Density = 2.376612 g / cm^3
# Si number density = 23.820335 Si / 1000 Ang^3
#
#
#
# Elastic Constant Matrix: (Units=GPa)
#
#
# Indices 1 2 3 4 5 6 
#
# 1 201.3742 9.4643 63.6601 0.0000 0.0000 0.0000
# 2 9.4643 85.7360 -17.6833 0.0000 0.0000 0.0000
# 3 63.6601 -17.6833 60.4767 0.0000 0.0000 0.0000
# 4 0.0000 0.0000 0.0000 49.8432 0.0000 0.0000
# 5 0.0000 0.0000 0.0000 0.0000 49.8136 0.0000
# 6 0.0000 0.0000 0.0000 0.0000 0.0000 -53.2550
#
#
#
# Elastic Compliance Matrix: (Units=1/GPa)
#
#
# Indices 1 2 3 4 5 6 
#
# 1 0.008027 -0.002798 -0.009268 0.000000 0.000000 0.000000
# 2 -0.002798 0.013387 0.006859 0.000000 0.000000 0.000000
# 3 -0.009268 0.006859 0.028296 0.000000 0.000000 0.000000
# 4 0.000000 0.000000 0.000000 0.020063 0.000000 0.000000
# 5 0.000000 0.000000 0.000000 0.000000 0.020075 0.000000
# 6 0.000000 0.000000 0.000000 0.000000 0.000000 -0.018778
#
#
# Mechanical properties :
#
#
# Convention : Reuss Voigt Hill
#
# Bulk Modulus (GPa) = 25.44604 50.94102 38.19353
# Shear Modulus (GPa) = 52.86380 28.75676 40.81028
#
# Velocity S-wave (km/s) = 4.71603 3.47830 4.14364
# Velocity P-wave (km/s) = 6.35297 6.12890 6.24194
#
# Compressibility (1/GPa) = 0.03929885
#
# Stress axis : x y z
#
# Youngs Moduli (GPa) = 124.57729 74.69779 35.34011
#
# Poissons Ratio (x) = 0.20897 0.32752
# Poissons Ratio (y) = 0.34852 -0.24241
# Poissons Ratio (z) = 1.15454 -0.51237
#
# Static dielectric constant tensor:
#      x y z
#    x 1.562820 0.000000 0.000000 
#    y 0.000000 1.930820 0.000000 
#    z 0.000000 0.000000 2.054300 
# 
# From -- ./inp_files/46824.got.cif
#   From: 2010.05.17/outbox.cif.g08.bks.cpg/sg68_24_cif.got.tgz:46824.got - 2010.06.03 18:57:09.
