data_PCOD9505053
_publ_section_title
;
Structure prediction by ZEFSAII (Michael W. Deem and Ramdas Pophale) SiO2 
 PCOD9505053
Probable space group: C M M A
;
_chemical_formula_sum "Si O2"
_cell_formula_units_Z 96
_cell_length_a 24.200160
_cell_length_b 14.533270
_cell_length_c 14.085734
_cell_angle_alpha 90.000000
_cell_angle_beta 90.000000
_cell_angle_gamma 90.000000
_cell_volume 4954.057718
_symmetry_space_group_name_H-M "C M M A"
_symmetry_group_IT_number 67
_symmetry_cell_setting 'orthorhombic'
loop_
_space_group_symop_operation_xyz
x,y,z
-x,1/2-y,z
x,-y,-z
-x,1/2+y,-z
-x,-y,-z
x,1/2+y,-z
-x,y,z
x,1/2-y,z
1/2+x,1/2+y,z
1/2-x,-y,z
1/2+x,1/2-y,-z
1/2-x,y,-z
1/2-x,1/2-y,-z
1/2+x,y,-z
1/2-x,1/2+y,z
1/2+x,-y,z
loop_
_atom_site_type_symbol
_atom_site_label
_atom_site_fract_x
_atom_site_fract_y
_atom_site_fract_z
Si Si1 0.870574 0.519601 0.230151
Si Si2 0.561745 0.047680 0.604971
Si Si3 0.708346 0.638534 0.637709
Si Si4 0.197085 0.358165 0.135082
Si Si5 0.824418 0.641289 0.576407
Si Si6 0.324161 0.642632 0.911277
O O1 0.829094 0.580428 0.293564
O O2 0.842040 0.424412 0.196193
O O3 0.885428 0.386581 0.396441
O O4 0.871424 0.580147 0.134485
O O5 0.500000 0.086565 0.613837
O O6 0.576371 0.990470 0.701007
O O7 0.687752 0.885967 0.531890
O O8 0.563314 0.000000 0.500000
O O9 0.703392 0.750000 0.651265
O O10 0.772550 0.610446 0.639493
O O11 0.192894 0.250000 0.163242
O O12 0.262729 0.381965 0.130020
O O13 0.179235 0.366436 0.024649
O O14 0.819930 0.750000 0.577209
O O15 0.332585 0.750000 0.888959
#
# Coordination Sequence:
#
# PCOD9505053 Si02
#       6
#    16  16  16  16  16  16
#     4  12  21  33  60  86 114 158 197 238 293 350
#     4  11  25  42  54  76 116 162 211 247 281 337
#     4   9  19  34  55  89 120 143 184 241 299 358
#     4   9  20  36  54  86 127 157 184 229 294 372
#     4   9  19  38  57  77 113 151 189 243 299 347
#     4   9  19  36  56  85 125 155 186 234 293 367
#
# _framework density 19.378055
#
# number of rings (size 3 to 8) (size 9 to 14) (size 15 to 20)
#    0.000    2.167    1.667    3.500    4.667    2.333 
#    0.000    0.000    0.000    4.000    0.000    4.667 
#    0.000    0.000    0.000    0.000    0.000    0.000 
#
# Total GULP energy -267716.627210 kJ/mol
# GULP energy per Si atom -5577.429734 kJ/mol
# Density = 1.933395 g / cm^3
# Si number density = 19.378055 Si / 1000 Ang^3
#
#
#
# Elastic Constant Matrix: (Units=GPa)
#
#
# Indices 1 2 3 4 5 6 
#
# 1 94.1838 13.5336 20.7411 0.0000 0.0000 0.0000
# 2 13.5336 48.1966 11.7654 0.0000 0.0000 0.0000
# 3 20.7411 11.7654 47.2586 0.0000 0.0000 0.0000
# 4 0.0000 0.0000 0.0000 39.0363 0.0000 0.0000
# 5 0.0000 0.0000 0.0000 0.0000 13.6379 0.0000
# 6 0.0000 0.0000 0.0000 0.0000 0.0000 9.0162
#
#
#
# Elastic Compliance Matrix: (Units=1/GPa)
#
#
# Indices 1 2 3 4 5 6 
#
# 1 0.011971 -0.002213 -0.004703 0.000000 0.000000 0.000000
# 2 -0.002213 0.022500 -0.004630 0.000000 0.000000 0.000000
# 3 -0.004703 -0.004630 0.024377 0.000000 0.000000 0.000000
# 4 0.000000 0.000000 0.000000 0.025617 0.000000 0.000000
# 5 0.000000 0.000000 0.000000 0.000000 0.073325 0.000000
# 6 0.000000 0.000000 0.000000 0.000000 0.000000 0.110911
#
#
# Mechanical properties :
#
#
# Convention : Reuss Voigt Hill
#
# Bulk Modulus (GPa) = 27.96793 31.30215 29.63504
# Shear Modulus (GPa) = 16.46288 21.91134 19.18711
#
# Velocity S-wave (km/s) = 2.91789 3.36628 3.15007
# Velocity P-wave (km/s) = 5.08097 5.59443 5.34387
#
# Compressibility (1/GPa) = 0.03575523
#
# Stress axis : x y z
#
# Youngs Moduli (GPa) = 83.53320 44.44409 41.02232
#
# Poissons Ratio (x) = 0.09838 0.19293
# Poissons Ratio (y) = 0.18490 0.18994
# Poissons Ratio (z) = 0.39285 0.20578
#
# Static dielectric constant tensor:
#      x y z
#    x 1.630960 0.000000 0.000000 
#    y 0.000000 1.729660 0.000000 
#    z 0.000000 0.000000 1.748010 
# 
# From -- ./inp_files/29312.got.cif
#   From: 2010.05.17/outbox.cif.g08.bks.cpg/sg67_15_cif.got.tgz:29312.got - 2010.06.03 18:28:57.
