data_PCOD9505348
_publ_section_title
;
Structure prediction by ZEFSAII (Michael W. Deem and Ramdas Pophale) SiO2 
 PCOD9505348
Probable space group: C C C A
;
_chemical_formula_sum "Si O2"
_cell_formula_units_Z 104
_cell_length_a 17.011278
_cell_length_b 25.567998
_cell_length_c 12.179683
_cell_angle_alpha 90.000000
_cell_angle_beta 90.000000
_cell_angle_gamma 90.000000
_cell_volume 5297.483963
_symmetry_space_group_name_H-M "C C C A"
_symmetry_group_IT_number 68
_space_group.IT_coordinate_system_code '2'
_symmetry_cell_setting 'orthorhombic'
loop_
_space_group_symop_operation_xyz
x,y,z
-x,1/2-y,z
x,1/2-y,1/2-z
-x,y,1/2-z
-x,-y,-z
x,1/2+y,-z
-x,1/2+y,1/2+z
x,-y,1/2+z
1/2+x,1/2+y,z
1/2-x,-y,z
1/2+x,-y,1/2-z
1/2-x,1/2+y,1/2-z
1/2-x,1/2-y,-z
1/2+x,y,-z
1/2-x,y,1/2+z
1/2+x,1/2-y,1/2+z
loop_
_atom_site_type_symbol
_atom_site_label
_atom_site_fract_x
_atom_site_fract_y
_atom_site_fract_z
Si Si1 0.385788 0.845350 0.589789
Si Si2 0.844180 0.738102 0.510063
Si Si3 0.688149 0.750000 0.250000
Si Si4 0.986447 0.561282 0.122668
Si Si5 0.235806 0.581640 0.531873
Si Si6 0.129173 0.510963 0.992783
Si Si7 0.685836 0.337351 0.323303
O O1 0.389481 0.787894 0.539171
O O2 0.457942 0.884228 0.570087
O O3 0.309967 0.873791 0.535304
O O4 0.370867 0.842549 0.719903
O O5 0.750000 0.750000 0.500000
O O6 0.858554 0.733922 0.640122
O O7 0.855099 0.688973 0.429633
O O8 0.745197 0.701905 0.282903
O O9 0.000000 0.568303 0.250000
O O10 0.063273 0.538987 0.064638
O O11 0.916253 0.519429 0.103281
O O12 0.174082 0.535581 0.557541
O O13 0.304556 0.553169 0.463116
O O14 0.275578 0.608874 0.636314
#
# Coordination Sequence:
#
# PCOD9505348 Si02
#       7
#    16  16   8  16  16  16  16
#     4  11  19  31  55  85 113 154 194 232 297 350
#     4  10  17  30  48  82 120 151 183 244 291 338
#     4  10  16  28  48  78 125 153 182 246 302 338
#     4  10  21  38  56  76 112 159 191 238 296 358
#     4  10  19  33  56  84 110 148 196 250 291 342
#     4   9  21  38  54  78 114 147 199 246 290 349
#     4  11  17  29  52  85 123 147 188 242 300 343
#
# _framework density 19.631961
#
# number of rings (size 3 to 8) (size 9 to 14) (size 15 to 20)
#    0.000    1.846    6.154    0.923    0.000    1.231 
#    0.000    3.077    0.000    6.462    0.000    0.000 
#    4.615    1.538    0.000    0.000    0.000    0.000 
#
# Total GULP energy -290041.328340 kJ/mol
# GULP energy per Si atom -5577.717853 kJ/mol
# Density = 1.958728 g / cm^3
# Si number density = 19.631961 Si / 1000 Ang^3
#
#
#
# Elastic Constant Matrix: (Units=GPa)
#
#
# Indices 1 2 3 4 5 6 
#
# 1 57.0139 38.2769 16.1829 0.0000 0.0000 0.0000
# 2 38.2769 80.9668 21.8599 0.0000 0.0000 0.0000
# 3 16.1829 21.8599 101.7051 0.0000 0.0000 0.0000
# 4 0.0000 0.0000 0.0000 21.7963 0.0000 0.0000
# 5 0.0000 0.0000 0.0000 0.0000 8.6678 0.0000
# 6 0.0000 0.0000 0.0000 0.0000 0.0000 19.9784
#
#
#
# Elastic Compliance Matrix: (Units=1/GPa)
#
#
# Indices 1 2 3 4 5 6 
#
# 1 0.025933 -0.011832 -0.001583 0.000000 0.000000 0.000000
# 2 -0.011832 0.018510 -0.002096 0.000000 0.000000 0.000000
# 3 -0.001583 -0.002096 0.010535 0.000000 0.000000 0.000000
# 4 0.000000 0.000000 0.000000 0.045879 0.000000 0.000000
# 5 0.000000 0.000000 0.000000 0.000000 0.115369 0.000000
# 6 0.000000 0.000000 0.000000 0.000000 0.000000 0.050054
#
#
# Mechanical properties :
#
#
# Convention : Reuss Voigt Hill
#
# Bulk Modulus (GPa) = 41.74442 43.59171 42.66806
# Shear Modulus (GPa) = 16.37800 20.97957 18.67878
#
# Velocity S-wave (km/s) = 2.89148 3.27256 3.08790
# Velocity P-wave (km/s) = 5.69712 6.04419 5.87322
#
# Compressibility (1/GPa) = 0.02395530
#
# Stress axis : x y z
#
# Youngs Moduli (GPa) = 38.56148 54.02416 94.92430
#
# Poissons Ratio (x) = 0.63922 0.15028
# Poissons Ratio (y) = 0.45627 0.19894
# Poissons Ratio (z) = 0.06105 0.11322
#
# Static dielectric constant tensor:
#      x y z
#    x 1.713220 0.000000 0.000000 
#    y 0.000000 1.716360 0.000000 
#    z 0.000000 0.000000 1.684990 
# 
# From -- ./inp_files/14881.got.cif
#   From: 2010.05.17/outbox.cif.g08.bks.cpg/sg68_8_cif.got.tgz:14881.got - 2010.06.03 18:57:09.
