data_PCOD9505360
_publ_section_title
;
Structure prediction by ZEFSAII (Michael W. Deem and Ramdas Pophale) SiO2 
 PCOD9505360
Probable space group: C C C A
;
_chemical_formula_sum "Si O2"
_cell_formula_units_Z 64
_cell_length_a 5.378607
_cell_length_b 14.396183
_cell_length_c 35.332266
_cell_angle_alpha 90.000000
_cell_angle_beta 90.000000
_cell_angle_gamma 90.000000
_cell_volume 2735.827198
_symmetry_space_group_name_H-M "C C C A"
_symmetry_group_IT_number 68
_space_group.IT_coordinate_system_code '2'
_symmetry_cell_setting 'orthorhombic'
loop_
_space_group_symop_operation_xyz
x,y,z
-x,1/2-y,z
x,1/2-y,1/2-z
-x,y,1/2-z
-x,-y,-z
x,1/2+y,-z
-x,1/2+y,1/2+z
x,-y,1/2+z
1/2+x,1/2+y,z
1/2-x,-y,z
1/2+x,-y,1/2-z
1/2-x,1/2+y,1/2-z
1/2-x,1/2-y,-z
1/2+x,y,-z
1/2-x,y,1/2+z
1/2+x,1/2-y,1/2+z
loop_
_atom_site_type_symbol
_atom_site_label
_atom_site_fract_x
_atom_site_fract_y
_atom_site_fract_z
Si Si1 0.274045 0.856998 0.515434
Si Si2 0.972562 0.608741 0.673959
Si Si3 0.011700 0.099441 0.794607
Si Si4 0.251534 0.308195 0.901272
O O1 0.250000 0.750000 0.500000
O O2 0.505858 0.898208 0.493190
O O3 0.327009 0.858109 0.560038
O O4 0.747912 0.649759 0.698398
O O5 0.870540 0.629325 0.632035
O O6 0.993760 0.499580 0.683788
O O7 0.241744 0.644086 0.687440
O O8 0.000000 0.079843 0.750000
O O9 0.500000 0.250000 0.912323
O O10 0.000000 0.250000 0.889791
#
# Coordination Sequence:
#
# PCOD9505360 Si02
#       4
#    16  16  16  16
#     4  10  16  30  48  69  99 139 190 213 239 306
#     4  10  20  32  54  85 104 134 173 231 277 306
#     4  10  19  38  62  79  97 132 192 236 258 317
#     4  12  21  32  50  79 120 141 168 223 274 331
#
# _framework density 23.393291999999999
#
# number of rings (size 3 to 8) (size 9 to 14) (size 15 to 20)
#    0.000    1.500    5.000    5.250    0.000    0.000 
#    0.000    0.000    0.000   18.000    0.000   21.000 
#    0.000    0.000    0.000    0.000    0.000    0.000 
#
# Total GULP energy -178236.586609 kJ/mol
# GULP energy per Si atom -5569.893332 kJ/mol
# Density = 2.334005 g / cm^3
# Si number density = 23.393292 Si / 1000 Ang^3
#
#
#
# Elastic Constant Matrix: (Units=GPa)
#
#
# Indices 1 2 3 4 5 6 
#
# 1 248.8380 20.6306 44.1990 0.0000 0.0000 0.0000
# 2 20.6306 86.5808 24.8206 0.0000 0.0000 0.0000
# 3 44.1990 24.8206 185.1194 0.0000 0.0000 0.0000
# 4 0.0000 0.0000 0.0000 20.7365 0.0000 0.0000
# 5 0.0000 0.0000 0.0000 0.0000 42.7639 0.0000
# 6 0.0000 0.0000 0.0000 0.0000 0.0000 -6.3834
#
#
#
# Elastic Compliance Matrix: (Units=1/GPa)
#
#
# Indices 1 2 3 4 5 6 
#
# 1 0.004243 -0.000749 -0.000913 0.000000 0.000000 0.000000
# 2 -0.000749 0.012144 -0.001449 0.000000 0.000000 0.000000
# 3 -0.000913 -0.001449 0.005814 0.000000 0.000000 0.000000
# 4 0.000000 0.000000 0.000000 0.048224 0.000000 0.000000
# 5 0.000000 0.000000 0.000000 0.000000 0.023384 0.000000
# 6 0.000000 0.000000 0.000000 0.000000 0.000000 -0.156657
#
#
# Mechanical properties :
#
#
# Convention : Reuss Voigt Hill
#
# Bulk Modulus (GPa) = 62.58437 77.75984 70.17211
# Shear Modulus (GPa) = -97.46849 40.14929 -28.65960
#
# Velocity S-wave (km/s) = -6.46186 4.14729 -3.50397
# Velocity P-wave (km/s) = 5.37242 7.49971 3.70019
#
# Compressibility (1/GPa) = 0.01597843
#
# Stress axis : x y z
#
# Youngs Moduli (GPa) = 235.68794 82.34551 171.99503
#
# Poissons Ratio (x) = 0.06171 0.15695
# Poissons Ratio (y) = 0.17662 0.24928
# Poissons Ratio (z) = 0.21508 0.11934
#
# Static dielectric constant tensor:
#      x y z
#    x 1.988840 0.000000 0.000000 
#    y 0.000000 1.944180 0.000000 
#    z 0.000000 0.000000 1.887620 
# 
# From -- ./inp_files/52927.got.cif
#   From: 2010.05.17/outbox.cif.g08.bks.cpg/sg68_27_cif.got.tgz:52927.got - 2010.06.03 18:57:09.
