data_PCOD9505230
_publ_section_title
;
Structure prediction by ZEFSAII (Michael W. Deem and Ramdas Pophale) SiO2 
 PCOD9505230
Probable space group: C M M A
;
_chemical_formula_sum "Si O2"
_cell_formula_units_Z 48
_cell_length_a 21.000000
_cell_length_b 15.000000
_cell_length_c 15.000000
_cell_angle_alpha 90.000000
_cell_angle_beta 90.000000
_cell_angle_gamma 90.000000
_cell_volume 4725.000000
_symmetry_space_group_name_H-M "C M M A"
_symmetry_group_IT_number 67
_symmetry_cell_setting 'orthorhombic'
loop_
_space_group_symop_operation_xyz
x,y,z
-x,1/2-y,z
x,-y,-z
-x,1/2+y,-z
-x,-y,-z
x,1/2+y,-z
-x,y,z
x,1/2-y,z
1/2+x,1/2+y,z
1/2-x,-y,z
1/2+x,1/2-y,-z
1/2-x,y,-z
1/2-x,1/2-y,-z
1/2+x,y,-z
1/2-x,1/2+y,z
1/2+x,-y,z
loop_
_atom_site_type_symbol
_atom_site_label
_atom_site_fract_x
_atom_site_fract_y
_atom_site_fract_z
Si Si1 0.221747 0.250000 0.603586
Si Si2 0.071010 0.250000 0.589193
Si Si3 0.931080 0.907820 0.551874
Si Si4 0.823947 0.492045 0.155421
Si Si5 0.572806 0.853694 0.077809
Si Si6 0.204099 0.924120 0.647077
Si Si7 0.426963 0.146454 0.137398
O O1 0.250000 0.250000 0.500000
O O2 0.145211 0.250000 0.621510
O O3 0.252944 0.163296 0.646620
O O4 0.069476 0.334159 0.524277
O O5 0.000000 0.250000 0.637452
O O6 0.864294 0.904209 0.603072
O O7 0.000000 0.899154 0.601566
O O8 0.931580 0.000000 0.500000
O O9 0.750000 0.500000 0.118269
O O10 0.871049 0.420282 0.107885
O O11 0.812577 0.457177 0.254702
O O12 0.867968 0.581611 0.161650
O O13 0.500000 0.879199 0.106754
O O14 0.583698 0.750000 0.105482
O O15 0.571831 0.854954 0.970364
O O16 0.250000 0.000000 0.604655
O O17 0.500000 0.120119 0.166275
O O18 0.417035 0.250000 0.165245
#
# Coordination Sequence:
#
# PCOD9505230 Si02
#       7
#     8   8  16  16  16  16  16
#     4  12  22  40  70  92 118 167 208 253 318 398
#     4  10  20  36  60  94 118 146 202 262 310 364
#     4  10  20  35  58  85 115 145 191 258 307 361
#     4  11  24  38  54  90 131 169 202 267 329 378
#     4   9  19  37  64  94 123 167 219 265 314 383
#     4  11  25  40  58  90 120 167 210 251 317 398
#     4   9  19  39  67  93 121 168 227 265 305 383
#
# _framework density 10.15873
#
# number of rings (size 3 to 8) (size 9 to 14) (size 15 to 20)
#    0.000    1.833    1.667    3.000    1.167    4.667 
#    4.500    1.667    0.000    2.000    0.000    0.000 
#    0.000    0.000    0.000    0.000    0.000    0.000 
#
# Total GULP energy -267501.718577 kJ/mol
# GULP energy per Si atom -5572.952470 kJ/mol
# Density = 1.013561 g / cm^3
# Si number density = 10.158730 Si / 1000 Ang^3
#
#
#
# Elastic Constant Matrix: (Units=GPa)
#
#
# Indices 1 2 3 4 5 6 
#
# 1 258.8671 85.1325 34.4413 0.0000 0.0000 0.0000
# 2 85.1325 158.0779 16.9321 0.0000 0.0000 0.0000
# 3 34.4413 16.9321 37.8658 0.0000 0.0000 0.0000
# 4 0.0000 0.0000 0.0000 -9.1411 0.0000 0.0000
# 5 0.0000 0.0000 0.0000 0.0000 17.4879 0.0000
# 6 0.0000 0.0000 0.0000 0.0000 0.0000 49.1547
#
#
#
# Elastic Compliance Matrix: (Units=1/GPa)
#
#
# Indices 1 2 3 4 5 6 
#
# 1 0.005122 -0.002373 -0.003598 0.000000 0.000000 0.000000
# 2 -0.002373 0.007744 -0.001304 0.000000 0.000000 0.000000
# 3 -0.003598 -0.001304 0.030265 0.000000 0.000000 0.000000
# 4 0.000000 0.000000 0.000000 -0.109396 0.000000 0.000000
# 5 0.000000 0.000000 0.000000 0.000000 0.057182 0.000000
# 6 0.000000 0.000000 0.000000 0.000000 0.000000 0.020344
#
#
# Mechanical properties :
#
#
# Convention : Reuss Voigt Hill
#
# Bulk Modulus (GPa) = 34.98900 80.86916 57.92908
# Shear Modulus (GPa) = 141.49401 32.72063 87.10732
#
# Velocity S-wave (km/s) = 8.35421 4.01742 6.55486
# Velocity P-wave (km/s) = 10.50312 7.83637 9.26618
#
# Compressibility (1/GPa) = 0.02858041
#
# Stress axis : x y z
#
# Youngs Moduli (GPa) = 195.23297 129.13668 33.04193
#
# Poissons Ratio (x) = 0.30646 0.11887
# Poissons Ratio (y) = 0.46331 0.04309
# Poissons Ratio (z) = 0.70239 0.16842
#
# Static dielectric constant tensor:
#      x y z
#    x 1.773970 0.000000 0.000000 
#    y 0.000000 1.732900 0.000000 
#    z 0.000000 0.000000 1.639650 
# 
# From -- ./inp_files/29357.got.cif
#   From: 2010.05.17/outbox.ucp.g08.bks.cvg/sg67_15_cif.got.tgz:29357.got - 2010.06.11 16:47:20.
