data_PCOD9505674
_publ_section_title
;
Structure prediction by ZEFSAII (Michael W. Deem and Ramdas Pophale) SiO2 
 PCOD9505674
Probable space group: C C C A
;
_chemical_formula_sum "Si O2"
_cell_formula_units_Z 128
_cell_length_a 18.433708
_cell_length_b 18.372729
_cell_length_c 22.339023
_cell_angle_alpha 90.000000
_cell_angle_beta 90.000000
_cell_angle_gamma 90.000000
_cell_volume 7565.724943
_symmetry_space_group_name_H-M "C C C A"
_symmetry_group_IT_number 68
_space_group.IT_coordinate_system_code '2'
_symmetry_cell_setting 'orthorhombic'
loop_
_space_group_symop_operation_xyz
x,y,z
-x,1/2-y,z
x,1/2-y,1/2-z
-x,y,1/2-z
-x,-y,-z
x,1/2+y,-z
-x,1/2+y,1/2+z
x,-y,1/2+z
1/2+x,1/2+y,z
1/2-x,-y,z
1/2+x,-y,1/2-z
1/2-x,1/2+y,1/2-z
1/2-x,1/2-y,-z
1/2+x,y,-z
1/2-x,y,1/2+z
1/2+x,1/2-y,1/2+z
loop_
_atom_site_type_symbol
_atom_site_label
_atom_site_fract_x
_atom_site_fract_y
_atom_site_fract_z
Si Si1 0.376336 0.610841 0.165888
Si Si2 0.013615 0.667639 0.903848
Si Si3 0.329216 0.967512 0.898905
Si Si4 0.334549 0.478894 0.375097
Si Si5 0.284795 0.829000 0.826909
Si Si6 0.788630 0.335151 0.686075
Si Si7 0.074291 0.960966 0.516702
Si Si8 0.121755 0.118440 0.195397
O O1 0.436719 0.637312 0.119546
O O2 0.359703 0.527631 0.147472
O O3 0.301150 0.655970 0.163349
O O4 0.399387 0.618315 0.235078
O O5 0.051750 0.615669 0.952708
O O6 0.065909 0.661912 0.845881
O O7 0.000000 0.750000 0.923753
O O8 0.322216 0.890260 0.866449
O O9 0.250000 0.000000 0.915590
O O10 0.377558 0.957280 0.957371
O O11 0.250000 0.500000 0.384997
O O12 0.330539 0.397709 0.349469
O O13 0.380624 0.492561 0.434568
O O14 0.369020 0.535372 0.327435
O O15 0.304132 0.840327 0.756993
O O16 0.302914 0.745157 0.839030
O O17 0.701784 0.348444 0.684848
O O18 0.000000 0.000000 0.500000
#
# Coordination Sequence:
#
# PCOD9505674 Si02
#       8
#    16  16  16  16  16  16  16  16
#     4  10  18  32  52  79 109 141 171 208 266 326
#     4  11  22  35  52  76 109 139 174 219 266 319
#     4  10  20  36  56  77 103 141 187 222 261 310
#     4   9  18  33  56  77 102 137 179 217 260 311
#     4   9  18  30  54  82 111 135 166 221 267 316
#     4   9  16  32  52  84 112 131 168 217 271 317
#     4  11  22  40  55  71 101 144 186 225 258 302
#     4   9  18  30  53  81 110 139 168 208 266 331
#
# _framework density 16.918403999999999
#
# number of rings (size 3 to 8) (size 9 to 14) (size 15 to 20)
#    0.000    2.250    1.250    2.250    0.000    5.000 
#    2.250    0.000    0.000    5.250    0.000    1.750 
#    0.000    0.000    0.000    0.000    0.000    0.000 
#
# Total GULP energy -356814.621896 kJ/mol
# GULP energy per Si atom -5575.228467 kJ/mol
# Density = 1.687990 g / cm^3
# Si number density = 16.918404 Si / 1000 Ang^3
#
#
#
# Elastic Constant Matrix: (Units=GPa)
#
#
# Indices 1 2 3 4 5 6 
#
# 1 42.5097 36.1643 26.0070 0.0000 0.0000 0.0000
# 2 36.1643 146.7468 56.4129 0.0000 0.0000 0.0000
# 3 26.0070 56.4129 71.2712 0.0000 0.0000 0.0000
# 4 0.0000 0.0000 0.0000 16.7531 0.0000 0.0000
# 5 0.0000 0.0000 0.0000 0.0000 6.7465 0.0000
# 6 0.0000 0.0000 0.0000 0.0000 0.0000 18.9588
#
#
#
# Elastic Compliance Matrix: (Units=1/GPa)
#
#
# Indices 1 2 3 4 5 6 
#
# 1 0.032635 -0.004980 -0.007967 0.000000 0.000000 0.000000
# 2 -0.004980 0.010555 -0.006537 0.000000 0.000000 0.000000
# 3 -0.007967 -0.006537 0.022112 0.000000 0.000000 0.000000
# 4 0.000000 0.000000 0.000000 0.059690 0.000000 0.000000
# 5 0.000000 0.000000 0.000000 0.000000 0.148224 0.000000
# 6 0.000000 0.000000 0.000000 0.000000 0.000000 0.052746
#
#
# Mechanical properties :
#
#
# Convention : Reuss Voigt Hill
#
# Bulk Modulus (GPa) = 37.97358 55.29955 46.63657
# Shear Modulus (GPa) = 13.37944 17.95459 15.66702
#
# Velocity S-wave (km/s) = 2.81521 3.26121 3.04638
# Velocity P-wave (km/s) = 5.74987 6.85111 6.32450
#
# Compressibility (1/GPa) = 0.02633410
#
# Stress axis : x y z
#
# Youngs Moduli (GPa) = 30.64237 94.74419 45.22366
#
# Poissons Ratio (x) = 0.47181 0.36028
# Poissons Ratio (y) = 0.15260 0.29563
# Poissons Ratio (z) = 0.24412 0.61936
#
# Static dielectric constant tensor:
#      x y z
#    x 1.568000 0.000000 0.000000 
#    y 0.000000 1.570170 0.000000 
#    z 0.000000 0.000000 1.553400 
# 
# From -- ./inp_files/46189.got.cif
#   From: 2010.05.17/outbox.cif.g08.bks.cpg/sg68_24_cif.got.tgz:46189.got - 2010.06.03 18:57:09.
