data_PCOD9505734
_publ_section_title
;
Structure prediction by ZEFSAII (Michael W. Deem and Ramdas Pophale) SiO2 
 PCOD9505734
Probable space group: C C C A
;
_chemical_formula_sum "Si O2"
_cell_formula_units_Z 120
_cell_length_a 23.894412
_cell_length_b 10.290789
_cell_length_c 18.602650
_cell_angle_alpha 90.000000
_cell_angle_beta 90.000000
_cell_angle_gamma 90.000000
_cell_volume 4574.249365
_symmetry_space_group_name_H-M "C C C A"
_symmetry_group_IT_number 68
_space_group.IT_coordinate_system_code '2'
_symmetry_cell_setting 'orthorhombic'
loop_
_space_group_symop_operation_xyz
x,y,z
-x,1/2-y,z
x,1/2-y,1/2-z
-x,y,1/2-z
-x,-y,-z
x,1/2+y,-z
-x,1/2+y,1/2+z
x,-y,1/2+z
1/2+x,1/2+y,z
1/2-x,-y,z
1/2+x,-y,1/2-z
1/2-x,1/2+y,1/2-z
1/2-x,1/2-y,-z
1/2+x,y,-z
1/2-x,y,1/2+z
1/2+x,1/2-y,1/2+z
loop_
_atom_site_type_symbol
_atom_site_label
_atom_site_fract_x
_atom_site_fract_y
_atom_site_fract_z
Si Si1 0.701051 0.088985 0.457424
Si Si2 0.372661 0.534101 0.748861
Si Si3 0.268723 0.709898 0.110848
Si Si4 0.414462 0.998813 0.488764
Si Si5 0.457883 0.959304 0.138927
Si Si6 0.050388 0.645374 0.142373
Si Si7 0.250000 0.500000 0.732177
Si Si8 0.107665 0.797585 0.861534
O O1 0.718957 0.129820 0.538225
O O2 0.711599 0.214749 0.408618
O O3 0.644091 0.012954 0.469029
O O4 0.750000 0.000000 0.428311
O O5 0.411079 0.537817 0.818192
O O6 0.396430 0.644182 0.694846
O O7 0.307975 0.531676 0.770363
O O8 0.381793 0.399513 0.703055
O O9 0.258383 0.620973 0.178975
O O10 0.331096 0.768873 0.125520
O O11 0.457120 0.004247 0.554786
O O12 0.410346 0.878296 0.433105
O O13 0.425228 0.122882 0.437575
O O14 0.516916 0.013031 0.165280
O O15 0.439269 0.811291 0.149676
O O16 0.000000 0.750000 0.145979
#
# Coordination Sequence:
#
# PCOD9505734 Si02
#       8
#    16  16  16  16  16  16   8  16
#     4  10  18  33  60  98 138 181 241 291 368 433
#     4  10  24  46  75 106 141 199 239 316 363 453
#     4   9  18  33  61  94 138 189 220 297 353 451
#     4  10  24  42  67 107 143 189 240 313 367 438
#     4  12  24  44  73 101 144 188 243 304 370 432
#     4  11  27  49  75 103 151 194 255 302 370 455
#     4  10  20  44  70 100 144 188 246 288 390 444
#     4   9  21  43  68 104 144 181 250 297 373 435
#
# _framework density 26.233812
#
# number of rings (size 3 to 8) (size 9 to 14) (size 15 to 20)
#    0.000    1.867    0.667    2.800    1.867    4.267 
#    3.600    2.667    2.933    0.000    0.000    0.000 
#    0.000    0.000    0.000    0.000    0.000    0.000 
#
# Total GULP energy -335388.733864 kJ/mol
# GULP energy per Si atom -5589.812231 kJ/mol
# Density = 2.617410 g / cm^3
# Si number density = 26.233812 Si / 1000 Ang^3
#
#
#
# Elastic Constant Matrix: (Units=GPa)
#
#
# Indices 1 2 3 4 5 6 
#
# 1 170.3526 30.9872 29.7013 0.0000 0.0000 0.0000
# 2 30.9872 67.0941 0.9834 0.0000 0.0000 0.0000
# 3 29.7013 0.9834 113.7246 0.0000 0.0000 0.0000
# 4 0.0000 0.0000 0.0000 36.8547 0.0000 0.0000
# 5 0.0000 0.0000 0.0000 0.0000 39.7865 0.0000
# 6 0.0000 0.0000 0.0000 0.0000 0.0000 34.0893
#
#
#
# Elastic Compliance Matrix: (Units=1/GPa)
#
#
# Indices 1 2 3 4 5 6 
#
# 1 0.006733 -0.003084 -0.001732 0.000000 0.000000 0.000000
# 2 -0.003084 0.016319 0.000664 0.000000 0.000000 0.000000
# 3 -0.001732 0.000664 0.009240 0.000000 0.000000 0.000000
# 4 0.000000 0.000000 0.000000 0.027134 0.000000 0.000000
# 5 0.000000 0.000000 0.000000 0.000000 0.025134 0.000000
# 6 0.000000 0.000000 0.000000 0.000000 0.000000 0.029335
#
#
# Mechanical properties :
#
#
# Convention : Reuss Voigt Hill
#
# Bulk Modulus (GPa) = 41.68642 52.72391 47.20517
# Shear Modulus (GPa) = 38.40417 41.44605 39.92511
#
# Velocity S-wave (km/s) = 3.83027 3.97907 3.90538
# Velocity P-wave (km/s) = 5.95702 6.42277 6.19428
#
# Compressibility (1/GPa) = 0.02398863
#
# Stress axis : x y z
#
# Youngs Moduli (GPa) = 148.51862 61.27754 108.22837
#
# Poissons Ratio (x) = 0.18900 0.18743
# Poissons Ratio (y) = 0.45808 -0.07191
# Poissons Ratio (z) = 0.25721 -0.04071
#
# Static dielectric constant tensor:
#      x y z
#    x 2.128500 0.000000 0.000000 
#    y 0.000000 2.144930 0.000000 
#    z 0.000000 0.000000 1.985790 
# 
# From -- ./inp_files/40954.got.cif
#   From: 2010.05.17/outbox.cif.g08.bks.cpg/sg68_21_cif.got.tgz:40954.got - 2010.06.03 18:57:09.
