data_PCOD9505174
_publ_section_title
;
Structure prediction by ZEFSAII (Michael W. Deem and Ramdas Pophale) SiO2 
 PCOD9505174
Probable space group: C M M A
;
_chemical_formula_sum "Si O2"
_cell_formula_units_Z 36
_cell_length_a 27.000000
_cell_length_b 9.000000
_cell_length_c 15.000000
_cell_angle_alpha 90.000000
_cell_angle_beta 90.000000
_cell_angle_gamma 90.000000
_cell_volume 3645.000000
_symmetry_space_group_name_H-M "C M M A"
_symmetry_group_IT_number 67
_symmetry_cell_setting 'orthorhombic'
loop_
_space_group_symop_operation_xyz
x,y,z
-x,1/2-y,z
x,-y,-z
-x,1/2+y,-z
-x,-y,-z
x,1/2+y,-z
-x,y,z
x,1/2-y,z
1/2+x,1/2+y,z
1/2-x,-y,z
1/2+x,1/2-y,-z
1/2-x,y,-z
1/2-x,1/2-y,-z
1/2+x,y,-z
1/2-x,1/2+y,z
1/2+x,-y,z
loop_
_atom_site_type_symbol
_atom_site_label
_atom_site_fract_x
_atom_site_fract_y
_atom_site_fract_z
Si Si1 0.000000 0.928395 0.404658
Si Si2 0.299686 0.426684 0.275665
Si Si3 0.087561 0.928750 0.275079
Si Si4 0.309889 0.082656 0.910557
Si Si5 0.571730 0.417419 0.910048
O O1 0.048896 0.972171 0.350434
O O2 0.000000 0.750000 0.410911
O O3 0.000000 0.000000 0.500000
O O4 0.295959 0.250000 0.284923
O O5 0.250000 0.500000 0.316893
O O6 0.355995 0.474691 0.300833
O O7 0.299362 0.477928 0.172815
O O8 0.088868 0.750000 0.265347
O O9 0.066698 0.993739 0.182160
O O10 0.289585 0.250000 0.900284
O O11 0.368979 0.095902 0.916436
O O12 0.296401 0.000000 0.000000
O O13 0.552545 0.250000 0.904494
O O14 0.555014 0.500000 0.000000
#
# Coordination Sequence:
#
# PCOD9505174 Si02
#       5
#     8  16  16  16  16
#     4  10  22  42  67  92 113 136 171 222 280 334
#     4  10  19  31  48  72 103 140 178 217 263 316
#     4   9  19  36  57  81 112 146 182 226 275 323
#     4   9  16  26  40  62  95 137 184 230 269 308
#     4   9  16  27  47  75 109 148 189 229 270 318
#
# _framework density 9.8765429999999999
#
# number of rings (size 3 to 8) (size 9 to 14) (size 15 to 20)
#    0.000    2.667    0.000    2.000    0.000    7.556 
#    0.000    2.778    0.000    0.667    0.000    4.667 
#    0.000    0.000    0.000    0.000    0.000    0.000 
#
# Total GULP energy -200526.115852 kJ/mol
# GULP energy per Si atom -5570.169885 kJ/mol
# Density = 0.985406 g / cm^3
# Si number density = 9.876543 Si / 1000 Ang^3
#
#
#
# Elastic Constant Matrix: (Units=GPa)
#
#
# Indices 1 2 3 4 5 6 
#
# 1 179.4317 36.2198 64.6985 0.0000 0.0000 0.0000
# 2 36.2198 47.6365 33.5794 0.0000 0.0000 0.0000
# 3 64.6985 33.5794 105.3337 0.0000 0.0000 0.0000
# 4 0.0000 0.0000 0.0000 20.3462 0.0000 0.0000
# 5 0.0000 0.0000 0.0000 0.0000 -37.0246 0.0000
# 6 0.0000 0.0000 0.0000 0.0000 0.0000 10.0741
#
#
#
# Elastic Compliance Matrix: (Units=1/GPa)
#
#
# Indices 1 2 3 4 5 6 
#
# 1 0.007513 -0.003172 -0.003603 0.000000 0.000000 0.000000
# 2 -0.003172 0.028417 -0.007110 0.000000 0.000000 0.000000
# 3 -0.003603 -0.007110 0.013974 0.000000 0.000000 0.000000
# 4 0.000000 0.000000 0.000000 0.049149 0.000000 0.000000
# 5 0.000000 0.000000 0.000000 0.000000 -0.027009 0.000000
# 6 0.000000 0.000000 0.000000 0.000000 0.000000 0.099265
#
#
# Mechanical properties :
#
#
# Convention : Reuss Voigt Hill
#
# Bulk Modulus (GPa) = 45.18557 66.82195 56.00376
# Shear Modulus (GPa) = 24.21815 11.87273 18.04544
#
# Velocity S-wave (km/s) = 3.50529 2.45431 3.02578
# Velocity P-wave (km/s) = 6.26958 6.47561 6.37343
#
# Compressibility (1/GPa) = 0.02213096
#
# Stress axis : x y z
#
# Youngs Moduli (GPa) = 133.10746 35.19081 71.56378
#
# Poissons Ratio (x) = 0.11164 0.25786
# Poissons Ratio (y) = 0.42225 0.50885
# Poissons Ratio (z) = 0.47961 0.25022
#
# Static dielectric constant tensor:
#      x y z
#    x 1.819860 0.000000 0.000000 
#    y 0.000000 1.706060 0.000000 
#    z 0.000000 0.000000 1.629650 
# 
# From -- ./inp_files/25080.got.cif
#   From: 2010.05.17/outbox.ucp.g08.bks.cvg/sg67_13_cif.got.tgz:25080.got - 2010.06.11 16:47:20.
