data_PCOD9505432
_publ_section_title
;
Structure prediction by ZEFSAII (Michael W. Deem and Ramdas Pophale) SiO2 
 PCOD9505432
Probable space group: C C C A
;
_chemical_formula_sum "Si O2"
_cell_formula_units_Z 64
_cell_length_a 8.423325
_cell_length_b 25.789961
_cell_length_c 12.754082
_cell_angle_alpha 90.000000
_cell_angle_beta 90.000000
_cell_angle_gamma 90.000000
_cell_volume 2770.661359
_symmetry_space_group_name_H-M "C C C A"
_symmetry_group_IT_number 68
_space_group.IT_coordinate_system_code '2'
_symmetry_cell_setting 'orthorhombic'
loop_
_space_group_symop_operation_xyz
x,y,z
-x,1/2-y,z
x,1/2-y,1/2-z
-x,y,1/2-z
-x,-y,-z
x,1/2+y,-z
-x,1/2+y,1/2+z
x,-y,1/2+z
1/2+x,1/2+y,z
1/2-x,-y,z
1/2+x,-y,1/2-z
1/2-x,1/2+y,1/2-z
1/2-x,1/2-y,-z
1/2+x,y,-z
1/2-x,y,1/2+z
1/2+x,1/2-y,1/2+z
loop_
_atom_site_type_symbol
_atom_site_label
_atom_site_fract_x
_atom_site_fract_y
_atom_site_fract_z
Si Si1 0.063073 0.417085 0.057939
Si Si2 0.000000 0.250000 0.250000
Si Si3 0.752252 0.673419 0.327030
Si Si4 0.250000 0.500000 0.681469
Si Si5 0.000000 0.750000 0.250000
Si Si6 0.710769 0.409956 0.155066
O O1 0.184661 0.371788 0.097468
O O2 0.126699 0.470783 0.106379
O O3 0.884939 0.412329 0.101048
O O4 0.077623 0.414902 0.933261
O O5 0.893382 0.287342 0.318800
O O6 0.786476 0.643102 0.218785
O O7 0.899830 0.712792 0.328670
O O8 0.308861 0.544458 0.760582
#
# Coordination Sequence:
#
# PCOD9505432 Si02
#       6
#    16   4  16   8   4  16
#     4  11  24  42  66  97 129 169 211 261 317 379
#     4  10  16  42  74  76 124 176 208 254 318 380
#     4  10  21  43  64  93 128 169 209 264 316 379
#     4  10  22  42  66  92 124 170 208 252 310 384
#     4  10  24  38  70  96 120 168 220 262 326 360
#     4  11  24  42  66  97 129 169 211 261 317 379
#
# _framework density 23.099178999999999
#
# number of rings (size 3 to 8) (size 9 to 14) (size 15 to 20)
#    0.000    1.500    2.500    3.000    3.500    6.000 
#    9.000    7.500    0.000    0.000    0.000    0.000 
#    0.000    0.000    0.000    0.000    0.000    0.000 
#
# Total GULP energy -178827.646014 kJ/mol
# GULP energy per Si atom -5588.363938 kJ/mol
# Density = 2.304660 g / cm^3
# Si number density = 23.099179 Si / 1000 Ang^3
#
#
#
# Elastic Constant Matrix: (Units=GPa)
#
#
# Indices 1 2 3 4 5 6 
#
# 1 90.7344 51.4653 1.6029 0.0000 0.0000 0.0000
# 2 51.4653 145.5662 34.7220 0.0000 0.0000 0.0000
# 3 1.6029 34.7220 84.1960 0.0000 0.0000 0.0000
# 4 0.0000 0.0000 0.0000 7.4773 0.0000 0.0000
# 5 0.0000 0.0000 0.0000 0.0000 5.9186 0.0000
# 6 0.0000 0.0000 0.0000 0.0000 0.0000 18.6372
#
#
#
# Elastic Compliance Matrix: (Units=1/GPa)
#
#
# Indices 1 2 3 4 5 6 
#
# 1 0.014077 -0.005449 0.001979 0.000000 0.000000 0.000000
# 2 -0.005449 0.009728 -0.003908 0.000000 0.000000 0.000000
# 3 0.001979 -0.003908 0.013451 0.000000 0.000000 0.000000
# 4 0.000000 0.000000 0.000000 0.133738 0.000000 0.000000
# 5 0.000000 0.000000 0.000000 0.000000 0.168959 0.000000
# 6 0.000000 0.000000 0.000000 0.000000 0.000000 0.053656
#
#
# Mechanical properties :
#
#
# Convention : Reuss Voigt Hill
#
# Bulk Modulus (GPa) = 44.44379 55.11965 49.78172
# Shear Modulus (GPa) = 12.02313 21.92040 16.97176
#
# Velocity S-wave (km/s) = 2.28392 3.08388 2.71354
# Velocity P-wave (km/s) = 5.12223 6.04933 5.60498
#
# Compressibility (1/GPa) = 0.02250033
#
# Stress axis : x y z
#
# Youngs Moduli (GPa) = 71.03809 102.79103 74.34335
#
# Poissons Ratio (x) = 0.56011 -0.14714
# Poissons Ratio (y) = 0.38709 0.29055
# Poissons Ratio (z) = -0.14060 0.40173
#
# Static dielectric constant tensor:
#      x y z
#    x 1.867990 0.000000 0.000000 
#    y 0.000000 1.869520 0.000000 
#    z 0.000000 0.000000 1.829140 
# 
# From -- ./inp_files/5066.got.cif
#   From: 2010.05.17/outbox.cif.g08.bks.cpg/sg68_3_cif.got.tgz:5066.got - 2010.06.03 18:57:09.
