data_PCOD9505258
_publ_section_title
;
Structure prediction by ZEFSAII (Michael W. Deem and Ramdas Pophale) SiO2 
 PCOD9505258
Probable space group: C M M A
;
_chemical_formula_sum "Si O2"
_cell_formula_units_Z 60
_cell_length_a 24.000000
_cell_length_b 21.000000
_cell_length_c 12.000000
_cell_angle_alpha 90.000000
_cell_angle_beta 90.000000
_cell_angle_gamma 90.000000
_cell_volume 6048.000000
_symmetry_space_group_name_H-M "C M M A"
_symmetry_group_IT_number 67
_symmetry_cell_setting 'orthorhombic'
loop_
_space_group_symop_operation_xyz
x,y,z
-x,1/2-y,z
x,-y,-z
-x,1/2+y,-z
-x,-y,-z
x,1/2+y,-z
-x,y,z
x,1/2-y,z
1/2+x,1/2+y,z
1/2-x,-y,z
1/2+x,1/2-y,-z
1/2-x,y,-z
1/2-x,1/2-y,-z
1/2+x,y,-z
1/2-x,1/2+y,z
1/2+x,-y,z
loop_
_atom_site_type_symbol
_atom_site_label
_atom_site_fract_x
_atom_site_fract_y
_atom_site_fract_z
Si Si1 0.248459 0.825246 0.720502
Si Si2 0.859186 0.176315 0.846940
Si Si3 0.065227 0.326337 0.403775
Si Si4 0.750000 0.099438 0.500000
Si Si5 0.625415 0.431910 0.451444
Si Si6 0.933122 0.439243 0.786127
Si Si7 0.436044 0.410045 0.824879
Si Si8 0.659429 0.676369 0.092709
O O1 0.242819 0.750000 0.705090
O O2 0.312690 0.837172 0.753326
O O3 0.232626 0.859863 0.607506
O O4 0.207394 0.843323 0.821388
O O5 0.880205 0.250000 0.832662
O O6 0.905134 0.120523 0.850854
O O7 0.825159 0.176307 0.963117
O O8 0.080139 0.250000 0.390492
O O9 0.103230 0.367849 0.487196
O O10 0.067368 0.369841 0.291521
O O11 0.000000 0.327018 0.439667
O O12 0.692816 0.066263 0.459592
O O13 0.605512 0.500000 0.500000
O O14 0.597271 0.431753 0.331603
O O15 0.923332 0.513908 0.819961
O O16 0.000000 0.431722 0.780967
O O17 0.500000 0.404555 0.864223
O O18 0.391524 0.371962 0.896415
O O19 0.643278 0.750000 0.119526
#
# Coordination Sequence:
#
# PCOD9505258 Si02
#       8
#    16  16  16   8  16  16  16  16
#     4  10  21  39  64  96 129 167 214 264 324 389
#     4  10  22  43  66  92 128 169 217 268 318 383
#     4  10  21  37  61  92 123 161 215 268 311 371
#     4  12  24  38  64  96 131 168 211 268 327 382
#     4  12  24  41  62  89 128 175 215 260 320 392
#     4  11  24  42  65  91 126 174 219 264 324 390
#     4  10  21  38  61  90 125 163 208 266 326 380
#     4  10  21  39  66  94 126 171 217 265 323 385
#
# _framework density 9.9206350000000008
#
# number of rings (size 3 to 8) (size 9 to 14) (size 15 to 20)
#    0.000    1.467    2.667    2.400    0.000    6.933 
#    0.000    3.333    0.000    1.600    0.000    0.000 
#    0.000    0.000    0.000    0.000    0.000    0.000 
#
# Total GULP energy -334432.031277 kJ/mol
# GULP energy per Si atom -5573.867188 kJ/mol
# Density = 0.989806 g / cm^3
# Si number density = 9.920635 Si / 1000 Ang^3
#
#
#
# Elastic Constant Matrix: (Units=GPa)
#
#
# Indices 1 2 3 4 5 6 
#
# 1 75.1559 52.2321 30.4625 0.0000 0.0000 0.0000
# 2 52.2321 138.9746 30.3209 0.0000 0.0000 0.0000
# 3 30.4625 30.3209 66.4021 0.0000 0.0000 0.0000
# 4 0.0000 0.0000 0.0000 24.6776 0.0000 0.0000
# 5 0.0000 0.0000 0.0000 0.0000 25.0478 0.0000
# 6 0.0000 0.0000 0.0000 0.0000 0.0000 -25.0776
#
#
#
# Elastic Compliance Matrix: (Units=1/GPa)
#
#
# Indices 1 2 3 4 5 6 
#
# 1 0.020225 -0.006194 -0.006450 0.000000 0.000000 0.000000
# 2 -0.006194 0.009889 -0.001674 0.000000 0.000000 0.000000
# 3 -0.006450 -0.001674 0.018783 0.000000 0.000000 0.000000
# 4 0.000000 0.000000 0.000000 0.040523 0.000000 0.000000
# 5 0.000000 0.000000 0.000000 0.000000 0.039924 0.000000
# 6 0.000000 0.000000 0.000000 0.000000 0.000000 -0.039876
#
#
# Mechanical properties :
#
#
# Convention : Reuss Voigt Hill
#
# Bulk Modulus (GPa) = 49.35627 56.28487 52.82057
# Shear Modulus (GPa) = 40.04620 16.09736 28.07178
#
# Velocity S-wave (km/s) = 4.49745 2.85144 3.76549
# Velocity P-wave (km/s) = 7.20410 6.26658 6.75163
#
# Compressibility (1/GPa) = 0.02026085
#
# Stress axis : x y z
#
# Youngs Moduli (GPa) = 49.44442 101.12536 53.23947
#
# Poissons Ratio (x) = 0.62637 0.34339
# Poissons Ratio (y) = 0.30626 0.08912
# Poissons Ratio (z) = 0.31891 0.16927
#
# Static dielectric constant tensor:
#      x y z
#    x 1.690680 0.000000 0.000000 
#    y 0.000000 1.701960 0.000000 
#    z 0.000000 0.000000 1.745410 
# 
# From -- ./inp_files/22222.got.cif
#   From: 2010.05.17/outbox.ucp.g08.bks.cvg/sg67_12_cif.got.tgz:22222.got - 2010.06.11 16:47:20.
