data_PCOD9505068
_publ_section_title
;
Structure prediction by ZEFSAII (Michael W. Deem and Ramdas Pophale) SiO2 
 PCOD9505068
Probable space group: C M M A
;
_chemical_formula_sum "Si O2"
_cell_formula_units_Z 64
_cell_length_a 11.933571
_cell_length_b 14.037901
_cell_length_c 19.922624
_cell_angle_alpha 90.000000
_cell_angle_beta 90.000000
_cell_angle_gamma 90.000000
_cell_volume 3337.483561
_symmetry_space_group_name_H-M "C M M A"
_symmetry_group_IT_number 67
_symmetry_cell_setting 'orthorhombic'
loop_
_space_group_symop_operation_xyz
x,y,z
-x,1/2-y,z
x,-y,-z
-x,1/2+y,-z
-x,-y,-z
x,1/2+y,-z
-x,y,z
x,1/2-y,z
1/2+x,1/2+y,z
1/2-x,-y,z
1/2+x,1/2-y,-z
1/2-x,y,-z
1/2-x,1/2-y,-z
1/2+x,y,-z
1/2-x,1/2+y,z
1/2+x,-y,z
loop_
_atom_site_type_symbol
_atom_site_label
_atom_site_fract_x
_atom_site_fract_y
_atom_site_fract_z
Si Si1 0.867531 0.750000 0.830099
Si Si2 0.500000 0.076378 0.437890
Si Si3 0.000000 0.140932 0.851605
Si Si4 0.000000 0.405500 0.711488
Si Si5 0.174044 0.750000 0.437050
Si Si6 0.264432 0.887813 0.923018
Si Si7 0.196123 0.250000 0.707245
O O1 0.826389 0.661362 0.875192
O O2 0.790093 0.750000 0.763676
O O3 0.000000 0.750000 0.817523
O O4 0.500000 0.037604 0.359689
O O5 0.601779 0.152586 0.440515
O O6 0.500000 0.000000 0.500000
O O7 0.888145 0.133622 0.895163
O O8 0.000000 0.250000 0.824011
O O9 0.000000 0.064594 0.790112
O O10 0.887722 0.340461 0.710035
O O11 0.250000 0.750000 0.500000
O O12 0.242519 0.750000 0.367907
O O13 0.250000 0.000000 0.920863
O O14 0.250000 0.856821 0.000000
#
# Coordination Sequence:
#
# PCOD9505068 Si02
#       7
#     8   8   8   8   8  16   8
#     4  12  24  40  62  92 129 155 203 273 325 358
#     4   9  19  34  59  92 119 148 200 252 296 345
#     4  12  20  39  72  86 115 168 223 255 303 386
#     4   9  14  33  65  86 111 152 208 254 276 372
#     4   9  19  36  62  82 121 162 190 237 298 373
#     4  11  26  41  60  90 125 164 210 259 316 380
#     4   9  16  36  60  89 112 156 203 241 304 366
#
# _framework density 19.176124000000002
#
# number of rings (size 3 to 8) (size 9 to 14) (size 15 to 20)
#    0.000    1.750    5.000    1.875    3.500    1.500 
#    2.250    2.500    0.000    0.000    0.000    0.000 
#    0.000    0.000    0.000    0.000    0.000    0.000 
#
# Total GULP energy -178182.103297 kJ/mol
# GULP energy per Si atom -5568.190728 kJ/mol
# Density = 1.913248 g / cm^3
# Si number density = 19.176124 Si / 1000 Ang^3
#
#
#
# Elastic Constant Matrix: (Units=GPa)
#
#
# Indices 1 2 3 4 5 6 
#
# 1 123.4262 15.9350 81.8421 0.0000 0.0000 0.0000
# 2 15.9350 82.8384 42.1009 0.0000 0.0000 0.0000
# 3 81.8421 42.1009 218.2349 0.0000 0.0000 0.0000
# 4 0.0000 0.0000 0.0000 31.8695 0.0000 0.0000
# 5 0.0000 0.0000 0.0000 0.0000 27.6866 0.0000
# 6 0.0000 0.0000 0.0000 0.0000 0.0000 -56.0528
#
#
#
# Elastic Compliance Matrix: (Units=1/GPa)
#
#
# Indices 1 2 3 4 5 6 
#
# 1 0.010784 -0.000021 -0.004040 0.000000 0.000000 0.000000
# 2 -0.000021 0.013384 -0.002574 0.000000 0.000000 0.000000
# 3 -0.004040 -0.002574 0.006594 0.000000 0.000000 0.000000
# 4 0.000000 0.000000 0.000000 0.031378 0.000000 0.000000
# 5 0.000000 0.000000 0.000000 0.000000 0.036119 0.000000
# 6 0.000000 0.000000 0.000000 0.000000 0.000000 -0.017840
#
#
# Mechanical properties :
#
#
# Convention : Reuss Voigt Hill
#
# Bulk Modulus (GPa) = 57.17194 78.25063 67.71128
# Shear Modulus (GPa) = 50.24207 19.67544 34.95875
#
# Velocity S-wave (km/s) = 5.12418 3.20666 4.27433
# Velocity P-wave (km/s) = 8.05534 7.38952 7.72960
#
# Compressibility (1/GPa) = 0.01749110
#
# Stress axis : x y z
#
# Youngs Moduli (GPa) = 92.73369 74.71630 151.65648
#
# Poissons Ratio (x) = 0.00158 0.61269
# Poissons Ratio (y) = 0.00196 0.39037
# Poissons Ratio (z) = 0.37464 0.19232
#
# Static dielectric constant tensor:
#      x y z
#    x 1.649190 0.000000 0.000000 
#    y 0.000000 1.678610 0.000000 
#    z 0.000000 0.000000 1.728570 
# 
# From -- ./inp_files/32723.got.cif
#   From: 2010.05.17/outbox.cif.g08.bks.cpg/sg67_17_cif.got.tgz:32723.got - 2010.06.03 18:28:57.
