data_PCOD9505754
_publ_section_title
;
Structure prediction by ZEFSAII (Michael W. Deem and Ramdas Pophale) SiO2 
 PCOD9505754
Probable space group: C C C A
;
_chemical_formula_sum "Si O2"
_cell_formula_units_Z 112
_cell_length_a 15.141459
_cell_length_b 25.637951
_cell_length_c 13.471658
_cell_angle_alpha 90.000000
_cell_angle_beta 90.000000
_cell_angle_gamma 90.000000
_cell_volume 5229.643532
_symmetry_space_group_name_H-M "C C C A"
_symmetry_group_IT_number 68
_space_group.IT_coordinate_system_code '2'
_symmetry_cell_setting 'orthorhombic'
loop_
_space_group_symop_operation_xyz
x,y,z
-x,1/2-y,z
x,1/2-y,1/2-z
-x,y,1/2-z
-x,-y,-z
x,1/2+y,-z
-x,1/2+y,1/2+z
x,-y,1/2+z
1/2+x,1/2+y,z
1/2-x,-y,z
1/2+x,-y,1/2-z
1/2-x,1/2+y,1/2-z
1/2-x,1/2-y,-z
1/2+x,y,-z
1/2-x,y,1/2+z
1/2+x,1/2-y,1/2+z
loop_
_atom_site_type_symbol
_atom_site_label
_atom_site_fract_x
_atom_site_fract_y
_atom_site_fract_z
Si Si1 0.788273 0.447170 0.627745
Si Si2 0.905121 0.619697 0.770987
Si Si3 0.098818 0.692418 0.416731
Si Si4 0.105567 0.193144 0.943939
Si Si5 0.382878 0.592500 0.442047
Si Si6 0.426340 0.080943 0.987384
Si Si7 0.286111 0.845621 0.758687
O O1 0.750000 0.500000 0.670974
O O2 0.716305 0.426919 0.545768
O O3 0.874641 0.456643 0.561236
O O4 0.802425 0.403669 0.712439
O O5 0.896290 0.583387 0.674620
O O6 0.907088 0.585160 0.870517
O O7 0.819612 0.656716 0.769148
O O8 0.000000 0.646440 0.750000
O O9 0.122093 0.746663 0.469860
O O10 0.105695 0.638783 0.477115
O O11 0.163113 0.689580 0.322270
O O12 0.993228 0.692794 0.396479
O O13 0.170213 0.168194 0.862934
O O14 0.111724 0.154602 0.036996
O O15 0.468542 0.572791 0.499940
#
# Coordination Sequence:
#
# PCOD9505754 Si02
#       7
#    16  16  16  16  16  16  16
#     4  10  21  37  55  80 111 142 183 232 276 328
#     4   9  18  35  54  71 102 145 182 221 272 322
#     4   9  19  33  56  85 111 140 180 228 274 330
#     4  10  18  34  57  83 112 143 178 222 282 334
#     4   9  19  35  56  80 108 143 185 230 272 328
#     4   9  18  36  58  79 106 143 183 228 279 324
#     4  10  19  33  54  79 109 142 177 224 278 330
#
# _framework density 21.416374999999999
#
# number of rings (size 3 to 8) (size 9 to 14) (size 15 to 20)
#    0.000    2.571    0.000    1.714    0.000    1.714 
#    0.000   21.429    0.000   33.429    0.000    0.000 
#    0.000    0.000    0.000    0.000    0.000    0.000 
#
# Total GULP energy -311762.858761 kJ/mol
# GULP energy per Si atom -5567.193906 kJ/mol
# Density = 2.136763 g / cm^3
# Si number density = 21.416375 Si / 1000 Ang^3
#
#
#
# Elastic Constant Matrix: (Units=GPa)
#
#
# Indices 1 2 3 4 5 6 
#
# 1 92.6862 2.8018 6.3758 0.0000 0.0000 0.0000
# 2 2.8018 59.5947 -3.7161 0.0000 0.0000 0.0000
# 3 6.3758 -3.7161 50.3270 0.0000 0.0000 0.0000
# 4 0.0000 0.0000 0.0000 14.2871 0.0000 0.0000
# 5 0.0000 0.0000 0.0000 0.0000 16.9617 0.0000
# 6 0.0000 0.0000 0.0000 0.0000 0.0000 26.2983
#
#
#
# Elastic Compliance Matrix: (Units=1/GPa)
#
#
# Indices 1 2 3 4 5 6 
#
# 1 0.010905 -0.000602 -0.001426 0.000000 0.000000 0.000000
# 2 -0.000602 0.016891 0.001323 0.000000 0.000000 0.000000
# 3 -0.001426 0.001323 0.020148 0.000000 0.000000 0.000000
# 4 0.000000 0.000000 0.000000 0.069993 0.000000 0.000000
# 5 0.000000 0.000000 0.000000 0.000000 0.058956 0.000000
# 6 0.000000 0.000000 0.000000 0.000000 0.000000 0.038025
#
#
# Mechanical properties :
#
#
# Convention : Reuss Voigt Hill
#
# Bulk Modulus (GPa) = 21.48863 23.72564 22.60713
# Shear Modulus (GPa) = 21.56661 24.65252 23.10956
#
# Velocity S-wave (km/s) = 3.17679 3.39648 3.28847
# Velocity P-wave (km/s) = 4.84887 5.14623 4.99976
#
# Compressibility (1/GPa) = 0.04653625
#
# Stress axis : x y z
#
# Youngs Moduli (GPa) = 91.69793 59.20370 49.63166
#
# Poissons Ratio (x) = 0.03562 0.07077
# Poissons Ratio (y) = 0.05517 -0.06568
# Poissons Ratio (z) = 0.13076 -0.07835
#
# Static dielectric constant tensor:
#      x y z
#    x 1.883750 0.000000 0.000000 
#    y 0.000000 1.794570 0.000000 
#    z 0.000000 0.000000 1.772170 
# 
# From -- ./inp_files/22743.got.cif
#   From: 2010.05.17/outbox.cif.g08.bks.cpg/sg68_12_cif.got.tgz:22743.got - 2010.06.03 18:57:09.
