data_PCOD9505905
_publ_section_title
;
Structure prediction by ZEFSAII (Michael W. Deem and Ramdas Pophale) SiO2 
 PCOD9505905
Probable space group: C C C A
;
_chemical_formula_sum "Si O2"
_cell_formula_units_Z 96
_cell_length_a 24.700915
_cell_length_b 11.790040
_cell_length_c 16.791685
_cell_angle_alpha 90.000000
_cell_angle_beta 90.000000
_cell_angle_gamma 90.000000
_cell_volume 4890.154701
_symmetry_space_group_name_H-M "C C C A"
_symmetry_group_IT_number 68
_space_group.IT_coordinate_system_code '2'
_symmetry_cell_setting 'orthorhombic'
loop_
_space_group_symop_operation_xyz
x,y,z
-x,1/2-y,z
x,1/2-y,1/2-z
-x,y,1/2-z
-x,-y,-z
x,1/2+y,-z
-x,1/2+y,1/2+z
x,-y,1/2+z
1/2+x,1/2+y,z
1/2-x,-y,z
1/2+x,-y,1/2-z
1/2-x,1/2+y,1/2-z
1/2-x,1/2-y,-z
1/2+x,y,-z
1/2-x,y,1/2+z
1/2+x,1/2-y,1/2+z
loop_
_atom_site_type_symbol
_atom_site_label
_atom_site_fract_x
_atom_site_fract_y
_atom_site_fract_z
Si Si1 0.563801 0.106920 0.397230
Si Si2 0.051581 0.326798 0.081368
Si Si3 0.109278 0.881635 0.547701
Si Si4 0.649129 0.287059 0.332112
Si Si5 0.555414 0.075070 0.128620
Si Si6 0.777824 0.626746 0.473944
O O1 0.549833 0.133974 0.489436
O O2 0.613612 0.185418 0.371080
O O3 0.505188 0.119047 0.356629
O O4 0.582937 0.977375 0.397872
O O5 0.101554 0.241971 0.084379
O O6 0.054353 0.440013 0.131290
O O7 0.000000 0.250000 0.099385
O O8 0.077583 0.890495 0.461251
O O9 0.172138 0.899066 0.532812
O O10 0.675099 0.250000 0.250000
O O11 0.600924 0.376112 0.314074
O O12 0.692387 0.340143 0.391517
O O13 0.750000 0.500000 0.467200
O O14 0.750000 0.750000 0.500000
#
# Coordination Sequence:
#
# PCOD9505905 Si02
#       6
#    16  16  16  16  16  16
#     4  11  17  31  52  88 121 159 192 234 299 366
#     4  11  15  28  51  89 124 151 189 248 304 350
#     4  10  19  30  55  86 122 144 190 257 318 353
#     4  11  24  40  58  83 120 160 199 244 304 379
#     4  10  19  28  53  86 124 156 192 234 291 365
#     4  11  24  42  65  94 117 151 209 278 329 369
#
# _framework density 19.631281999999999
#
# number of rings (size 3 to 8) (size 9 to 14) (size 15 to 20)
#    0.000    1.333    6.667    2.500    4.667    1.333 
#    0.000    2.500    0.000    1.000    0.000    0.000 
#    0.000    0.000    0.000    0.000    0.000    0.000 
#
# Total GULP energy -267330.996949 kJ/mol
# GULP energy per Si atom -5569.395770 kJ/mol
# Density = 1.958660 g / cm^3
# Si number density = 19.631282 Si / 1000 Ang^3
#
#
#
# Elastic Constant Matrix: (Units=GPa)
#
#
# Indices 1 2 3 4 5 6 
#
# 1 101.3920 37.1445 19.1452 0.0000 0.0000 0.0000
# 2 37.1445 136.4070 14.9664 0.0000 0.0000 0.0000
# 3 19.1452 14.9664 22.9438 0.0000 0.0000 0.0000
# 4 0.0000 0.0000 0.0000 10.9025 0.0000 0.0000
# 5 0.0000 0.0000 0.0000 0.0000 9.3300 0.0000
# 6 0.0000 0.0000 0.0000 0.0000 0.0000 42.7395
#
#
#
# Elastic Compliance Matrix: (Units=1/GPa)
#
#
# Indices 1 2 3 4 5 6 
#
# 1 0.012404 -0.002415 -0.008775 0.000000 0.000000 0.000000
# 2 -0.002415 0.008366 -0.003442 0.000000 0.000000 0.000000
# 3 -0.008775 -0.003442 0.053153 0.000000 0.000000 0.000000
# 4 0.000000 0.000000 0.000000 0.091722 0.000000 0.000000
# 5 0.000000 0.000000 0.000000 0.000000 0.107181 0.000000
# 6 0.000000 0.000000 0.000000 0.000000 0.000000 0.023398
#
#
# Mechanical properties :
#
#
# Convention : Reuss Voigt Hill
#
# Bulk Modulus (GPa) = 22.39237 44.80611 33.59924
# Shear Modulus (GPa) = 14.68965 25.22684 19.95824
#
# Velocity S-wave (km/s) = 2.73843 3.58862 3.19196
# Velocity P-wave (km/s) = 4.62925 6.32806 5.54411
#
# Compressibility (1/GPa) = 0.04465807
#
# Stress axis : x y z
#
# Youngs Moduli (GPa) = 80.61635 119.52732 18.81375
#
# Poissons Ratio (x) = 0.28866 0.16510
# Poissons Ratio (y) = 0.19469 0.06476
# Poissons Ratio (z) = 0.70744 0.41144
#
# Static dielectric constant tensor:
#      x y z
#    x 1.706390 0.000000 0.000000 
#    y 0.000000 1.760580 0.000000 
#    z 0.000000 0.000000 1.722710 
# 
# From -- ./inp_files/33523.got.cif
#   From: 2010.05.17/outbox.cif.g08.bks.cpg/sg68_17_cif.got.tgz:33523.got - 2010.06.03 18:57:09.
