data_PCOD9505782
_publ_section_title
;
Structure prediction by ZEFSAII (Michael W. Deem and Ramdas Pophale) SiO2 
 PCOD9505782
Probable space group: C C C A
;
_chemical_formula_sum "Si O2"
_cell_formula_units_Z 68
_cell_length_a 15.017124
_cell_length_b 11.287167
_cell_length_c 20.568656
_cell_angle_alpha 90.000000
_cell_angle_beta 90.000000
_cell_angle_gamma 90.000000
_cell_volume 3486.403368
_symmetry_space_group_name_H-M "C C C A"
_symmetry_group_IT_number 68
_space_group.IT_coordinate_system_code '2'
_symmetry_cell_setting 'orthorhombic'
loop_
_space_group_symop_operation_xyz
x,y,z
-x,1/2-y,z
x,1/2-y,1/2-z
-x,y,1/2-z
-x,-y,-z
x,1/2+y,-z
-x,1/2+y,1/2+z
x,-y,1/2+z
1/2+x,1/2+y,z
1/2-x,-y,z
1/2+x,-y,1/2-z
1/2-x,1/2+y,1/2-z
1/2-x,1/2-y,-z
1/2+x,y,-z
1/2-x,y,1/2+z
1/2+x,1/2-y,1/2+z
loop_
_atom_site_type_symbol
_atom_site_label
_atom_site_fract_x
_atom_site_fract_y
_atom_site_fract_z
Si Si1 0.654606 0.747524 0.038353
Si Si2 0.677011 0.671558 0.186779
Si Si3 0.141264 0.487108 0.978389
Si Si4 0.000000 0.750000 0.250000
Si Si5 0.122452 0.078023 0.668794
O O1 0.661302 0.729494 0.116002
O O2 0.610215 0.623868 0.012659
O O3 0.750000 0.750000 0.000000
O O4 0.616680 0.879462 0.026142
O O5 0.665765 0.750000 0.250000
O O6 0.778674 0.626760 0.182341
O O7 0.616911 0.555314 0.194824
O O8 0.250000 0.500000 0.976743
O O9 0.112498 0.438212 0.908258
O O10 0.057145 0.666599 0.296513
#
# Coordination Sequence:
#
# PCOD9505782 Si02
#       5
#    16  16  16   4  16
#     4   9  15  28  50  82 109 140 177 245 286 319
#     4  10  18  35  56  84 111 143 193 246 275 329
#     4   9  15  30  52  80 110 140 185 242 283 323
#     4  12  24  36  54  84 116 162 186 214 308 364
#     4  10  19  35  53  78 117 149 184 236 285 334
#
# _framework density 19.504341
#
# number of rings (size 3 to 8) (size 9 to 14) (size 15 to 20)
#    0.000    2.353    8.235    0.000    0.000    0.000 
#   16.941    0.588    0.000    5.647    0.000    0.000 
#    0.000    0.000    0.000    0.000    0.000    0.000 
#
# Total GULP energy -189302.718583 kJ/mol
# GULP energy per Si atom -5567.727017 kJ/mol
# Density = 1.945995 g / cm^3
# Si number density = 19.504341 Si / 1000 Ang^3
#
#
#
# Elastic Constant Matrix: (Units=GPa)
#
#
# Indices 1 2 3 4 5 6 
#
# 1 33.8887 34.1196 15.5170 0.0000 0.0000 0.0000
# 2 34.1196 215.2525 119.3079 0.0000 0.0000 0.0000
# 3 15.5170 119.3079 103.1259 0.0000 0.0000 0.0000
# 4 0.0000 0.0000 0.0000 39.1823 0.0000 0.0000
# 5 0.0000 0.0000 0.0000 0.0000 17.7259 0.0000
# 6 0.0000 0.0000 0.0000 0.0000 0.0000 6.8147
#
#
#
# Elastic Compliance Matrix: (Units=1/GPa)
#
#
# Indices 1 2 3 4 5 6 
#
# 1 0.035500 -0.007432 0.003257 0.000000 0.000000 0.000000
# 2 -0.007432 0.014506 -0.015663 0.000000 0.000000 0.000000
# 3 0.003257 -0.015663 0.027328 0.000000 0.000000 0.000000
# 4 0.000000 0.000000 0.000000 0.025522 0.000000 0.000000
# 5 0.000000 0.000000 0.000000 0.000000 0.056415 0.000000
# 6 0.000000 0.000000 0.000000 0.000000 0.000000 0.146741
#
#
# Mechanical properties :
#
#
# Convention : Reuss Voigt Hill
#
# Bulk Modulus (GPa) = 26.55601 76.68403 51.62002
# Shear Modulus (GPa) = 13.95712 24.96608 19.46160
#
# Velocity S-wave (km/s) = 2.67795 3.58163 3.16224
# Velocity P-wave (km/s) = 4.81736 7.51704 6.31319
#
# Compressibility (1/GPa) = 0.03765625
#
# Stress axis : x y z
#
# Youngs Moduli (GPa) = 28.16897 68.93924 36.59259
#
# Poissons Ratio (x) = 0.51239 -0.11919
# Poissons Ratio (y) = 0.20936 0.57316
# Poissons Ratio (z) = -0.09175 1.07982
#
# Static dielectric constant tensor:
#      x y z
#    x 1.448210 0.000000 0.000000 
#    y 0.000000 1.718210 0.000000 
#    z 0.000000 0.000000 1.634920 
# 
# From -- ./inp_files/37232.got.cif
#   From: 2010.05.17/outbox.cif.g08.bks.cpg/sg68_19_cif.got.tgz:37232.got - 2010.06.03 18:57:09.
