data_PCOD9505890
_publ_section_title
;
Structure prediction by ZEFSAII (Michael W. Deem and Ramdas Pophale) SiO2 
 PCOD9505890
Probable space group: C C C A
;
_chemical_formula_sum "Si O2"
_cell_formula_units_Z 108
_cell_length_a 28.020007
_cell_length_b 5.688744
_cell_length_c 31.517927
_cell_angle_alpha 90.000000
_cell_angle_beta 90.000000
_cell_angle_gamma 90.000000
_cell_volume 5023.914911
_symmetry_space_group_name_H-M "C C C A"
_symmetry_group_IT_number 68
_space_group.IT_coordinate_system_code '2'
_symmetry_cell_setting 'orthorhombic'
loop_
_space_group_symop_operation_xyz
x,y,z
-x,1/2-y,z
x,1/2-y,1/2-z
-x,y,1/2-z
-x,-y,-z
x,1/2+y,-z
-x,1/2+y,1/2+z
x,-y,1/2+z
1/2+x,1/2+y,z
1/2-x,-y,z
1/2+x,-y,1/2-z
1/2-x,1/2+y,1/2-z
1/2-x,1/2-y,-z
1/2+x,y,-z
1/2-x,y,1/2+z
1/2+x,1/2-y,1/2+z
loop_
_atom_site_type_symbol
_atom_site_label
_atom_site_fract_x
_atom_site_fract_y
_atom_site_fract_z
Si Si1 0.696624 0.421168 0.512406
Si Si2 0.394737 0.327064 0.385737
Si Si3 0.000000 0.250000 0.250000
Si Si4 0.344602 0.539551 0.173886
Si Si5 0.418711 0.437942 0.805888
Si Si6 0.701153 0.865674 0.390281
Si Si7 0.651317 0.750000 0.750000
Si Si8 0.442203 0.757394 0.523277
O O1 0.675033 0.192439 0.487436
O O2 0.750000 0.500000 0.498194
O O3 0.701624 0.313326 0.559630
O O4 0.428532 0.467206 0.353028
O O5 0.347136 0.483992 0.387946
O O6 0.418886 0.271971 0.430184
O O7 0.374744 0.104512 0.360804
O O8 0.966170 0.401729 0.220187
O O9 0.385796 0.707580 0.192383
O O10 0.305534 0.668353 0.145099
O O11 0.322399 0.408939 0.214919
O O12 0.383912 0.612005 0.781159
O O13 0.750000 0.000000 0.381297
O O14 0.500000 0.750000 0.526784
O O15 0.429510 0.505936 0.500696
#
# Coordination Sequence:
#
# PCOD9505890 Si02
#       8
#    16  16   4  16  16  16   8  16
#     4   9  19  35  56  85 129 170 211 271 337 400
#     4  10  24  41  65  98 132 180 225 285 342 406
#     4  12  20  38  64 100 132 168 206 270 344 424
#     4  10  21  40  62  94 127 174 219 280 343 421
#     4  10  22  38  61  98 131 167 210 270 338 413
#     4  10  23  40  62  98 133 176 232 288 352 414
#     4  10  18  41  64  90 129 172 211 264 348 419
#     4  10  24  46  71  99 142 193 242 287 336 411
#
# _framework density 21.497181000000001
#
# number of rings (size 3 to 8) (size 9 to 14) (size 15 to 20)
#    0.000    2.074    1.481    0.000    6.222    3.259 
#    1.333    0.000    0.000    0.000  138.667    0.000 
#    0.000    0.000    0.000    0.000    0.000    0.000 
#
# Total GULP energy -300824.773041 kJ/mol
# GULP energy per Si atom -5570.829130 kJ/mol
# Density = 2.144825 g / cm^3
# Si number density = 21.497181 Si / 1000 Ang^3
#
#
#
# Elastic Constant Matrix: (Units=GPa)
#
#
# Indices 1 2 3 4 5 6 
#
# 1 60.4814 23.3014 53.1109 0.0000 0.0000 0.0000
# 2 23.3014 90.7302 79.7264 0.0000 0.0000 0.0000
# 3 53.1109 79.7264 188.5344 0.0000 0.0000 0.0000
# 4 0.0000 0.0000 0.0000 86.8349 0.0000 0.0000
# 5 0.0000 0.0000 0.0000 0.0000 41.2777 0.0000
# 6 0.0000 0.0000 0.0000 0.0000 0.0000 97.1295
#
#
#
# Elastic Compliance Matrix: (Units=1/GPa)
#
#
# Indices 1 2 3 4 5 6 
#
# 1 0.021974 -0.000325 -0.006053 0.000000 0.000000 0.000000
# 2 -0.000325 0.017544 -0.007327 0.000000 0.000000 0.000000
# 3 -0.006053 -0.007327 0.010108 0.000000 0.000000 0.000000
# 4 0.000000 0.000000 0.000000 0.011516 0.000000 0.000000
# 5 0.000000 0.000000 0.000000 0.000000 0.024226 0.000000
# 6 0.000000 0.000000 0.000000 0.000000 0.000000 0.010296
#
#
# Mechanical properties :
#
#
# Convention : Reuss Voigt Hill
#
# Bulk Modulus (GPa) = 45.01258 72.44706 58.72982
# Shear Modulus (GPa) = 38.32033 57.28891 47.80462
#
# Velocity S-wave (km/s) = 4.22663 5.16792 4.72079
# Velocity P-wave (km/s) = 6.69354 8.32969 7.55603
#
# Compressibility (1/GPa) = 0.02221601
#
# Stress axis : x y z
#
# Youngs Moduli (GPa) = 45.50742 57.00037 98.93359
#
# Poissons Ratio (x) = 0.01850 0.59885
# Poissons Ratio (y) = 0.01477 0.72492
# Poissons Ratio (z) = 0.27546 0.41766
#
# Static dielectric constant tensor:
#      x y z
#    x 1.759760 0.000000 0.000000 
#    y 0.000000 1.846880 0.000000 
#    z 0.000000 0.000000 1.773030 
# 
# From -- ./inp_files/56316.got.cif
#   From: 2010.05.17/outbox.cif.g08.bks.cpg/sg68_29_cif.got.tgz:56316.got - 2010.06.03 18:57:09.
