data_PCOD9505938
_publ_section_title
;
Structure prediction by ZEFSAII (Michael W. Deem and Ramdas Pophale) SiO2 
 PCOD9505938
Probable space group: C C C A
;
_chemical_formula_sum "Si O2"
_cell_formula_units_Z 120
_cell_length_a 27.869899
_cell_length_b 15.513942
_cell_length_c 14.547488
_cell_angle_alpha 90.000000
_cell_angle_beta 90.000000
_cell_angle_gamma 90.000000
_cell_volume 6289.926433
_symmetry_space_group_name_H-M "C C C A"
_symmetry_group_IT_number 68
_space_group.IT_coordinate_system_code '2'
_symmetry_cell_setting 'orthorhombic'
loop_
_space_group_symop_operation_xyz
x,y,z
-x,1/2-y,z
x,1/2-y,1/2-z
-x,y,1/2-z
-x,-y,-z
x,1/2+y,-z
-x,1/2+y,1/2+z
x,-y,1/2+z
1/2+x,1/2+y,z
1/2-x,-y,z
1/2+x,-y,1/2-z
1/2-x,1/2+y,1/2-z
1/2-x,1/2-y,-z
1/2+x,y,-z
1/2-x,y,1/2+z
1/2+x,1/2-y,1/2+z
loop_
_atom_site_type_symbol
_atom_site_label
_atom_site_fract_x
_atom_site_fract_y
_atom_site_fract_z
Si Si1 0.874492 0.604856 0.854782
Si Si2 0.823941 0.935395 0.357139
Si Si3 0.750000 0.000000 1.000000
Si Si4 0.676059 0.435395 0.357140
Si Si5 0.874492 0.604856 0.645218
Si Si6 0.312513 0.250000 0.394844
Si Si7 0.444351 0.750000 0.136878
Si Si8 0.298178 0.250000 0.886587
O O1 0.860302 0.510434 0.888654
O O2 0.889746 0.590457 0.750000
O O3 0.915398 0.665664 0.897283
O O4 0.826818 0.664895 0.854519
O O5 0.780954 0.942843 0.430389
O O6 0.810744 0.953264 0.250000
O O7 0.839153 0.836516 0.364234
O O8 0.860302 0.010434 0.388654
O O9 0.719046 0.057157 0.069610
O O10 0.660847 0.336516 0.364234
O O11 0.915398 0.665663 0.602717
O O12 0.826818 0.664896 0.645481
O O13 0.305202 0.250000 0.504025
O O14 0.257327 0.250000 0.358113
O O15 0.500000 0.750000 0.112959
O O16 0.440833 0.750000 0.250000
#
# Coordination Sequence:
#
# PCOD9505938 Si02
#       8
#    16  16   8  16  16  16  16  16
#     4   9  18  31  48  72 100 125 154 205 264 303
#     4  11  22  34  47  68 100 135 174 215 248 285
#     4  12  22  34  52  70  94 138 186 214 248 286
#     4  11  22  34  47  68 100 135 174 215 248 285
#     4   9  18  31  48  72 100 125 154 205 264 303
#     4  11  21  31  45  65  94 139 180 203 232 281
#     4   8  14  28  52  79 100 118 149 198 259 319
#     4  10  19  31  46  67  94 126 172 215 244 281
#
# _framework density 19.078125
#
# number of rings (size 3 to 8) (size 9 to 14) (size 15 to 20)
#    0.000    2.000    0.000    6.800    0.000    4.267 
#    0.000    0.000    0.000    0.000    0.000   24.267 
#    0.000    6.400    0.000    0.000    0.000   14.133 
#
# Total GULP energy -334542.260932 kJ/mol
# GULP energy per Si atom -5575.704349 kJ/mol
# Density = 1.903470 g / cm^3
# Si number density = 19.078125 Si / 1000 Ang^3
#
#
#
# Elastic Constant Matrix: (Units=GPa)
#
#
# Indices 1 2 3 4 5 6 
#
# 1 80.0140 63.9757 4.6369 0.0000 0.0000 0.0000
# 2 63.9757 195.8663 10.1315 0.0000 0.0000 0.0000
# 3 4.6369 10.1315 92.2829 0.0000 0.0000 0.0000
# 4 0.0000 0.0000 0.0000 15.4934 0.0000 0.0000
# 5 0.0000 0.0000 0.0000 0.0000 -5.0298 0.0000
# 6 0.0000 0.0000 0.0000 0.0000 0.0000 -10.7377
#
#
#
# Elastic Compliance Matrix: (Units=1/GPa)
#
#
# Indices 1 2 3 4 5 6 
#
# 1 0.016921 -0.005514 -0.000245 0.000000 0.000000 0.000000
# 2 -0.005514 0.006932 -0.000484 0.000000 0.000000 0.000000
# 3 -0.000245 -0.000484 0.010902 0.000000 0.000000 0.000000
# 4 0.000000 0.000000 0.000000 0.064543 0.000000 0.000000
# 5 0.000000 0.000000 0.000000 0.000000 -0.198813 0.000000
# 6 0.000000 0.000000 0.000000 0.000000 0.000000 -0.093130
#
#
# Mechanical properties :
#
#
# Convention : Reuss Voigt Hill
#
# Bulk Modulus (GPa) = 44.90686 58.40571 51.65629
# Shear Modulus (GPa) = -28.94587 19.23977 -4.85305
#
# Velocity S-wave (km/s) = -3.89939 3.17909 -1.59665
# Velocity P-wave (km/s) = 1.82095 6.64499 4.87195
#
# Compressibility (1/GPa) = 0.02226831
#
# Stress axis : x y z
#
# Youngs Moduli (GPa) = 59.09838 144.26555 91.72897
#
# Poissons Ratio (x) = 0.79551 0.02246
# Poissons Ratio (y) = 0.32588 0.04439
# Poissons Ratio (z) = 0.01447 0.06982
#
# Static dielectric constant tensor:
#      x y z
#    x 1.652810 0.000000 0.000000 
#    y 0.000000 1.757480 0.000000 
#    z 0.000000 0.000000 1.726460 
# 
# From -- ./inp_files/26536.got.cif
#   From: 2010.05.17/outbox.cif.g08.bks.cpg/sg68_14_cif.got.tgz:26536.got - 2010.06.03 18:57:09.
