data_PCOD9505011
_publ_section_title
;
Structure prediction by ZEFSAII (Michael W. Deem and Ramdas Pophale) SiO2 
 PCOD9505011
Probable space group: C M M A
;
_chemical_formula_sum "Si O2"
_cell_formula_units_Z 60
_cell_length_a 24.586686
_cell_length_b 25.736373
_cell_length_c 5.360232
_cell_angle_alpha 90.000000
_cell_angle_beta 90.000000
_cell_angle_gamma 90.000000
_cell_volume 3391.805376
_symmetry_space_group_name_H-M "C M M A"
_symmetry_group_IT_number 67
_symmetry_cell_setting 'orthorhombic'
loop_
_space_group_symop_operation_xyz
x,y,z
-x,1/2-y,z
x,-y,-z
-x,1/2+y,-z
-x,-y,-z
x,1/2+y,-z
-x,y,z
x,1/2-y,z
1/2+x,1/2+y,z
1/2-x,-y,z
1/2+x,1/2-y,-z
1/2-x,y,-z
1/2-x,1/2-y,-z
1/2+x,y,-z
1/2-x,1/2+y,z
1/2+x,-y,z
loop_
_atom_site_type_symbol
_atom_site_label
_atom_site_fract_x
_atom_site_fract_y
_atom_site_fract_z
Si Si1 0.213450 0.250000 0.751826
Si Si2 0.874287 0.659586 0.170201
Si Si3 0.750000 0.000000 0.500000
Si Si4 0.436155 0.688490 0.339901
Si Si5 0.810054 0.444212 0.887643
O O1 0.250000 0.250000 0.500000
O O2 0.174634 0.199576 0.768148
O O3 0.250000 0.250000 0.000000
O O4 0.910360 0.659381 0.421860
O O5 0.849935 0.603450 0.102903
O O6 0.906719 0.678181 0.924196
O O7 0.792963 0.959513 0.387717
O O8 0.500000 0.676404 0.316560
O O9 0.430571 0.750000 0.395191
O O10 0.828100 0.500000 0.000000
O O11 0.750000 0.432392 0.000000
#
# Coordination Sequence:
#
# PCOD9505011 Si02
#       5
#     8  16   4  16  16
#     4  12  24  36  53  92 133 154 186 234 304 368
#     4  12  23  39  63  89 121 162 198 245 311 352
#     4   8  18  36  56  84 114 164 210 232 282 346
#     4  11  23  42  63  88 118 154 210 255 295 362
#     4   9  21  37  58  87 120 163 205 239 285 362
#
# _framework density 17.689695
#
# number of rings (size 3 to 8) (size 9 to 14) (size 15 to 20)
#    0.000    1.600    2.667    3.200    9.333    2.133 
#    0.000    0.000    0.000    4.800    0.000    0.000 
#    0.000    0.000    0.000    0.000    0.000    0.000 
#
# Total GULP energy -167047.445647 kJ/mol
# GULP energy per Si atom -5568.248188 kJ/mol
# Density = 1.764943 g / cm^3
# Si number density = 17.689695 Si / 1000 Ang^3
#
#
#
# Elastic Constant Matrix: (Units=GPa)
#
#
# Indices 1 2 3 4 5 6 
#
# 1 113.8501 65.2014 61.1290 0.0000 0.0000 0.0000
# 2 65.2014 112.8804 32.8912 0.0000 0.0000 0.0000
# 3 61.1290 32.8912 106.2915 0.0000 0.0000 0.0000
# 4 0.0000 0.0000 0.0000 45.6340 0.0000 0.0000
# 5 0.0000 0.0000 0.0000 0.0000 42.0657 0.0000
# 6 0.0000 0.0000 0.0000 0.0000 0.0000 24.4689
#
#
#
# Elastic Compliance Matrix: (Units=1/GPa)
#
#
# Indices 1 2 3 4 5 6 
#
# 1 0.017291 -0.007792 -0.007533 0.000000 0.000000 0.000000
# 2 -0.007792 0.013249 0.000382 0.000000 0.000000 0.000000
# 3 -0.007533 0.000382 0.013622 0.000000 0.000000 0.000000
# 4 0.000000 0.000000 0.000000 0.021914 0.000000 0.000000
# 5 0.000000 0.000000 0.000000 0.000000 0.023772 0.000000
# 6 0.000000 0.000000 0.000000 0.000000 0.000000 0.040868
#
#
# Mechanical properties :
#
#
# Convention : Reuss Voigt Hill
#
# Bulk Modulus (GPa) = 70.05386 72.38501 71.21944
# Shear Modulus (GPa) = 30.23698 34.02042 32.12870
#
# Velocity S-wave (km/s) = 4.13885 4.39016 4.26636
# Velocity P-wave (km/s) = 7.90744 8.16738 8.03846
#
# Compressibility (1/GPa) = 0.01427473
#
# Stress axis : x y z
#
# Youngs Moduli (GPa) = 57.83467 75.47888 73.41051
#
# Poissons Ratio (x) = 0.58817 0.55298
# Poissons Ratio (y) = 0.45068 -0.02803
# Poissons Ratio (z) = 0.43565 -0.02882
#
# Static dielectric constant tensor:
#      x y z
#    x 1.585730 0.000000 0.000000 
#    y 0.000000 1.570420 0.000000 
#    z 0.000000 0.000000 1.673360 
# 
# From -- ./inp_files/2883.got.cif
#   From: 2010.05.17/outbox.cif.g08.bks.cpg/sg67_2_cif.got.tgz:2883.got - 2010.06.03 18:28:57.
