data_PCOD9505888
_publ_section_title
;
Structure prediction by ZEFSAII (Michael W. Deem and Ramdas Pophale) SiO2 
 PCOD9505888
Probable space group: C C C A
;
_chemical_formula_sum "Si O2"
_cell_formula_units_Z 84
_cell_length_a 22.070222
_cell_length_b 13.795470
_cell_length_c 13.262108
_cell_angle_alpha 90.000000
_cell_angle_beta 90.000000
_cell_angle_gamma 90.000000
_cell_volume 4037.901894
_symmetry_space_group_name_H-M "C C C A"
_symmetry_group_IT_number 68
_space_group.IT_coordinate_system_code '2'
_symmetry_cell_setting 'orthorhombic'
loop_
_space_group_symop_operation_xyz
x,y,z
-x,1/2-y,z
x,1/2-y,1/2-z
-x,y,1/2-z
-x,-y,-z
x,1/2+y,-z
-x,1/2+y,1/2+z
x,-y,1/2+z
1/2+x,1/2+y,z
1/2-x,-y,z
1/2+x,-y,1/2-z
1/2-x,1/2+y,1/2-z
1/2-x,1/2-y,-z
1/2+x,y,-z
1/2-x,y,1/2+z
1/2+x,1/2-y,1/2+z
loop_
_atom_site_type_symbol
_atom_site_label
_atom_site_fract_x
_atom_site_fract_y
_atom_site_fract_z
Si Si1 0.000000 0.913998 0.250000
Si Si2 0.439553 0.924067 0.374234
Si Si3 0.744863 0.750000 0.250000
Si Si4 0.000000 0.750000 0.750000
Si Si5 0.195852 0.308802 0.944173
Si Si6 0.559443 0.184299 0.423559
Si Si7 0.695973 0.072195 0.629235
O O1 0.050879 0.851755 0.191706
O O2 0.021511 0.986354 0.337087
O O3 0.459974 0.824419 0.317514
O O4 0.443254 0.899754 0.492076
O O5 0.371805 0.956021 0.344753
O O6 0.784800 0.689283 0.171316
O O7 0.706553 0.673483 0.313500
O O8 0.126281 0.269864 0.944381
O O9 0.250000 0.250000 0.000000
O O10 0.195801 0.406801 0.008997
O O11 0.500000 0.250000 0.441104
O O12 0.750000 0.000000 0.654310
#
# Coordination Sequence:
#
# PCOD9505888 Si02
#       7
#     8  16   8   4  16  16  16
#     4  11  25  37  61 100 128 168 213 271 341 399
#     4  10  22  42  62  91 131 170 221 271 330 396
#     4  10  21  40  63  91 122 171 218 274 328 396
#     4  10  18  40  70  86 118 182 226 266 320 412
#     4   9  22  41  61  92 126 170 220 269 332 401
#     4  11  23  41  66  95 132 171 220 274 337 404
#     4  10  22  39  62  92 129 168 221 272 331 400
#
# _framework density 20.802883999999999
#
# number of rings (size 3 to 8) (size 9 to 14) (size 15 to 20)
#    0.000    1.905    0.952    1.429    5.333    2.286 
#    3.429    0.000    0.000    0.000    0.000    0.000 
#    0.000    0.000    0.000    0.000    0.000    0.000 
#
# Total GULP energy -233828.973843 kJ/mol
# GULP energy per Si atom -5567.356520 kJ/mol
# Density = 2.075554 g / cm^3
# Si number density = 20.802884 Si / 1000 Ang^3
#
#
#
# Elastic Constant Matrix: (Units=GPa)
#
#
# Indices 1 2 3 4 5 6 
#
# 1 135.6491 32.5793 19.6334 0.0000 0.0000 0.0000
# 2 32.5793 52.3241 10.1450 0.0000 0.0000 0.0000
# 3 19.6334 10.1450 97.3277 0.0000 0.0000 0.0000
# 4 0.0000 0.0000 0.0000 16.3024 0.0000 0.0000
# 5 0.0000 0.0000 0.0000 0.0000 14.0538 0.0000
# 6 0.0000 0.0000 0.0000 0.0000 0.0000 15.2238
#
#
#
# Elastic Compliance Matrix: (Units=1/GPa)
#
#
# Indices 1 2 3 4 5 6 
#
# 1 0.008810 -0.005247 -0.001230 0.000000 0.000000 0.000000
# 2 -0.005247 0.022631 -0.001300 0.000000 0.000000 0.000000
# 3 -0.001230 -0.001300 0.010658 0.000000 0.000000 0.000000
# 4 0.000000 0.000000 0.000000 0.061341 0.000000 0.000000
# 5 0.000000 0.000000 0.000000 0.000000 0.071155 0.000000
# 6 0.000000 0.000000 0.000000 0.000000 0.000000 0.065687
#
#
# Mechanical properties :
#
#
# Convention : Reuss Voigt Hill
#
# Bulk Modulus (GPa) = 37.67379 45.55737 41.61558
# Shear Modulus (GPa) = 18.89033 23.97886 21.43459
#
# Velocity S-wave (km/s) = 3.01668 3.39878 3.21341
# Velocity P-wave (km/s) = 5.50300 6.11141 5.81517
#
# Compressibility (1/GPa) = 0.02654366
#
# Stress axis : x y z
#
# Youngs Moduli (GPa) = 113.50414 44.18742 93.82353
#
# Poissons Ratio (x) = 0.23186 0.11543
# Poissons Ratio (y) = 0.59557 0.12201
# Poissons Ratio (z) = 0.13965 0.05746
#
# Static dielectric constant tensor:
#      x y z
#    x 1.805280 0.000000 0.000000 
#    y 0.000000 1.721660 0.000000 
#    z 0.000000 0.000000 1.776420 
# 
# From -- ./inp_files/16371.got.cif
#   From: 2010.05.17/outbox.cif.g08.bks.cpg/sg68_9_cif.got.tgz:16371.got - 2010.06.03 18:57:09.
