data_PCOD9505217
_publ_section_title
;
Structure prediction by ZEFSAII (Michael W. Deem and Ramdas Pophale) SiO2 
 PCOD9505217
Probable space group: C M M A
;
_chemical_formula_sum "Si O2"
_cell_formula_units_Z 40
_cell_length_a 24.000000
_cell_length_b 9.000000
_cell_length_c 21.000000
_cell_angle_alpha 90.000000
_cell_angle_beta 90.000000
_cell_angle_gamma 90.000000
_cell_volume 4536.000000
_symmetry_space_group_name_H-M "C M M A"
_symmetry_group_IT_number 67
_symmetry_cell_setting 'orthorhombic'
loop_
_space_group_symop_operation_xyz
x,y,z
-x,1/2-y,z
x,-y,-z
-x,1/2+y,-z
-x,-y,-z
x,1/2+y,-z
-x,y,z
x,1/2-y,z
1/2+x,1/2+y,z
1/2-x,-y,z
1/2+x,1/2-y,-z
1/2-x,y,-z
1/2-x,1/2-y,-z
1/2+x,y,-z
1/2-x,1/2+y,z
1/2+x,-y,z
loop_
_atom_site_type_symbol
_atom_site_label
_atom_site_fract_x
_atom_site_fract_y
_atom_site_fract_z
Si Si1 0.189326 0.571094 0.067149
Si Si2 0.500000 0.429279 0.385413
Si Si3 0.810520 0.572825 0.689646
Si Si4 0.000000 0.429624 0.764631
Si Si5 0.386099 0.072407 0.565702
Si Si6 0.378494 0.429270 0.194352
O O1 0.194406 0.750000 0.060980
O O2 0.250000 0.500000 0.080832
O O3 0.148310 0.537561 0.125761
O O4 0.170813 0.500000 0.000000
O O5 0.500000 0.250000 0.390993
O O6 0.500000 0.469697 0.310188
O O7 0.554841 0.497669 0.417206
O O8 0.805699 0.750000 0.697730
O O9 0.750000 0.500000 0.685695
O O10 0.845077 0.543945 0.625000
O O11 0.843236 0.504033 0.749467
O O12 0.942668 0.478482 0.797543
O O13 0.000000 0.250000 0.766785
O O14 0.392518 0.250000 0.558450
O O15 0.365548 0.000000 0.500000
O O16 0.376177 0.250000 0.202679
#
# Coordination Sequence:
#
# PCOD9505217 Si02
#       6
#    16   8  16   8  16  16
#     4  10  20  34  56  83 115 150 188 231 274 327
#     4  11  20  36  63  86 111 148 186 232 282 334
#     4  11  24  39  58  83 112 146 186 234 283 338
#     4   9  18  34  59  86 112 146 184 225 278 333
#     4  11  24  40  58  83 114 147 187 234 284 338
#     4  10  20  37  60  86 114 148 189 231 277 333
#
# _framework density 8.8183419999999995
#
# number of rings (size 3 to 8) (size 9 to 14) (size 15 to 20)
#    0.000    1.600    2.000    3.600    0.000    6.000 
#    0.000    3.000    0.000    0.000    0.000    0.000 
#    0.000    0.000    0.000    0.000    0.000    0.000 
#
# Total GULP energy -223475.246509 kJ/mol
# GULP energy per Si atom -5586.881163 kJ/mol
# Density = 0.879827 g / cm^3
# Si number density = 8.818342 Si / 1000 Ang^3
#
#
#
# Elastic Constant Matrix: (Units=GPa)
#
#
# Indices 1 2 3 4 5 6 
#
# 1 137.0833 57.8918 85.1326 0.0000 0.0000 0.0000
# 2 57.8918 75.2249 70.5682 0.0000 0.0000 0.0000
# 3 85.1326 70.5682 165.5022 0.0000 0.0000 0.0000
# 4 0.0000 0.0000 0.0000 29.6232 0.0000 0.0000
# 5 0.0000 0.0000 0.0000 0.0000 26.8472 0.0000
# 6 0.0000 0.0000 0.0000 0.0000 0.0000 13.3843
#
#
#
# Elastic Compliance Matrix: (Units=1/GPa)
#
#
# Indices 1 2 3 4 5 6 
#
# 1 0.012054 -0.005766 -0.003742 0.000000 0.000000 0.000000
# 2 -0.005766 0.024914 -0.007657 0.000000 0.000000 0.000000
# 3 -0.003742 -0.007657 0.011232 0.000000 0.000000 0.000000
# 4 0.000000 0.000000 0.000000 0.033757 0.000000 0.000000
# 5 0.000000 0.000000 0.000000 0.000000 0.037248 0.000000
# 6 0.000000 0.000000 0.000000 0.000000 0.000000 0.074714
#
#
# Mechanical properties :
#
#
# Convention : Reuss Voigt Hill
#
# Bulk Modulus (GPa) = 72.09946 89.44395 80.77171
# Shear Modulus (GPa) = 21.47104 24.91880 23.19492
#
# Velocity S-wave (km/s) = 3.49292 3.76293 3.63044
# Velocity P-wave (km/s) = 7.56548 8.34891 7.96683
#
# Compressibility (1/GPa) = 0.01386973
#
# Stress axis : x y z
#
# Youngs Moduli (GPa) = 82.96252 40.13793 89.03388
#
# Poissons Ratio (x) = 0.23145 0.33313
# Poissons Ratio (y) = 0.47839 0.68173
# Poissons Ratio (z) = 0.31041 0.30733
#
# Static dielectric constant tensor:
#      x y z
#    x 1.586080 0.000000 0.000000 
#    y 0.000000 1.585930 0.000000 
#    z 0.000000 0.000000 1.588600 
# 
# From -- ./inp_files/39534.got.cif
#   From: 2010.05.17/outbox.ucp.g08.bks.cvg/sg67_20_cif.got.tgz:39534.got - 2010.06.11 16:47:20.
