data_PCOD9505145
_publ_section_title
;
Structure prediction by ZEFSAII (Michael W. Deem and Ramdas Pophale) SiO2 
 PCOD9505145
Probable space group: C M M A
;
_chemical_formula_sum "Si O2"
_cell_formula_units_Z 64
_cell_length_a 14.002456
_cell_length_b 9.953489
_cell_length_c 20.075635
_cell_angle_alpha 90.000000
_cell_angle_beta 90.000000
_cell_angle_gamma 90.000000
_cell_volume 2798.007334
_symmetry_space_group_name_H-M "C M M A"
_symmetry_group_IT_number 67
_symmetry_cell_setting 'orthorhombic'
loop_
_space_group_symop_operation_xyz
x,y,z
-x,1/2-y,z
x,-y,-z
-x,1/2+y,-z
-x,-y,-z
x,1/2+y,-z
-x,y,z
x,1/2-y,z
1/2+x,1/2+y,z
1/2-x,-y,z
1/2+x,1/2-y,-z
1/2-x,y,-z
1/2-x,1/2-y,-z
1/2+x,y,-z
1/2-x,1/2+y,z
1/2+x,-y,z
loop_
_atom_site_type_symbol
_atom_site_label
_atom_site_fract_x
_atom_site_fract_y
_atom_site_fract_z
Si Si1 0.616177 0.405072 0.686852
Si Si2 0.151417 0.607163 0.042533
Si Si3 0.383814 0.406253 0.437309
Si Si4 0.615678 0.904074 0.807410
O O1 0.500000 0.398288 0.685094
O O2 0.650150 0.250000 0.680842
O O3 0.643178 0.507204 0.627619
O O4 0.642504 0.480742 0.755081
O O5 0.104095 0.750000 0.042389
O O6 0.159138 0.571649 0.119781
O O7 0.097129 0.500000 0.000000
O O8 0.250000 0.621323 0.000000
O O9 0.357470 0.500000 0.500000
O O10 0.500000 0.397928 0.437523
O O11 0.349797 0.250000 0.439102
O O12 0.500000 0.908269 0.813588
O O13 0.639774 0.750000 0.786029
#
# Coordination Sequence:
#
# PCOD9505145 Si02
#       4
#    16  16  16  16
#     4   9  16  25  37  55  80 110 146 188 231 273
#     4   9  18  32  48  65  86 113 144 180 225 276
#     4   9  15  22  33  50  75 110 151 191 229 270
#     4   9  17  29  44  62  85 114 148 186 229 276
#
# _framework density 22.873422000000001
#
# number of rings (size 3 to 8) (size 9 to 14) (size 15 to 20)
#    0.000    3.000    0.000    1.500    0.000    7.500 
#    0.000    0.000    0.000    0.000    0.000    0.000 
#    0.000    0.000    0.000    4.500    0.000   86.500 
#
# Total GULP energy -178396.318159 kJ/mol
# GULP energy per Si atom -5574.884942 kJ/mol
# Density = 2.282136 g / cm^3
# Si number density = 22.873422 Si / 1000 Ang^3
#
#
#
# Elastic Constant Matrix: (Units=GPa)
#
#
# Indices 1 2 3 4 5 6 
#
# 1 96.8384 18.8924 14.9138 0.0000 0.0000 0.0000
# 2 18.8924 268.3956 145.4951 0.0000 0.0000 0.0000
# 3 14.9138 145.4951 201.2596 0.0000 0.0000 0.0000
# 4 0.0000 0.0000 0.0000 135.0738 0.0000 0.0000
# 5 0.0000 0.0000 0.0000 0.0000 18.0498 0.0000
# 6 0.0000 0.0000 0.0000 0.0000 0.0000 36.2457
#
#
#
# Elastic Compliance Matrix: (Units=1/GPa)
#
#
# Indices 1 2 3 4 5 6 
#
# 1 0.010490 -0.000521 -0.000400 0.000000 0.000000 0.000000
# 2 -0.000521 0.006153 -0.004409 0.000000 0.000000 0.000000
# 3 -0.000400 -0.004409 0.008186 0.000000 0.000000 0.000000
# 4 0.000000 0.000000 0.000000 0.007403 0.000000 0.000000
# 5 0.000000 0.000000 0.000000 0.000000 0.055402 0.000000
# 6 0.000000 0.000000 0.000000 0.000000 0.000000 0.027589
#
#
# Mechanical properties :
#
#
# Convention : Reuss Voigt Hill
#
# Bulk Modulus (GPa) = 70.58948 102.78845 86.68896
# Shear Modulus (GPa) = 38.28242 63.68669 50.98456
#
# Velocity S-wave (km/s) = 4.09548 5.28238 4.72634
# Velocity P-wave (km/s) = 7.30013 9.06864 8.23201
#
# Compressibility (1/GPa) = 0.01416642
#
# Stress axis : x y z
#
# Youngs Moduli (GPa) = 95.33022 162.52665 122.15924
#
# Poissons Ratio (x) = 0.08472 0.04892
# Poissons Ratio (y) = 0.04969 0.53865
# Poissons Ratio (z) = 0.03818 0.71664
#
# Static dielectric constant tensor:
#      x y z
#    x 1.891820 0.000000 0.000000 
#    y 0.000000 1.879630 0.000000 
#    z 0.000000 0.000000 1.785200 
# 
# From -- ./inp_files/33982.got.cif
#   From: 2010.05.17/outbox.cif.g08.bks.cpg/sg67_17_cif.got.tgz:33982.got - 2010.06.03 18:28:57.
