data_PCOD9505728
_publ_section_title
;
Structure prediction by ZEFSAII (Michael W. Deem and Ramdas Pophale) SiO2 
 PCOD9505728
Probable space group: C C C A
;
_chemical_formula_sum "Si O2"
_cell_formula_units_Z 80
_cell_length_a 14.567112
_cell_length_b 15.465813
_cell_length_c 15.044769
_cell_angle_alpha 90.000000
_cell_angle_beta 90.000000
_cell_angle_gamma 90.000000
_cell_volume 3389.469560
_symmetry_space_group_name_H-M "C C C A"
_symmetry_group_IT_number 68
_space_group.IT_coordinate_system_code '2'
_symmetry_cell_setting 'orthorhombic'
loop_
_space_group_symop_operation_xyz
x,y,z
-x,1/2-y,z
x,1/2-y,1/2-z
-x,y,1/2-z
-x,-y,-z
x,1/2+y,-z
-x,1/2+y,1/2+z
x,-y,1/2+z
1/2+x,1/2+y,z
1/2-x,-y,z
1/2+x,-y,1/2-z
1/2-x,1/2+y,1/2-z
1/2-x,1/2-y,-z
1/2+x,y,-z
1/2-x,y,1/2+z
1/2+x,1/2-y,1/2+z
loop_
_atom_site_type_symbol
_atom_site_label
_atom_site_fract_x
_atom_site_fract_y
_atom_site_fract_z
Si Si1 0.862957 0.499945 0.081992
Si Si2 0.091234 0.320186 0.691963
Si Si3 0.857701 0.010697 0.216675
Si Si4 0.134950 0.822594 0.495663
Si Si5 0.849655 0.356218 0.442710
O O1 0.750000 0.500000 0.081993
O O2 0.898086 0.490619 0.183347
O O3 0.897220 0.413779 0.033275
O O4 0.886910 0.585492 0.025313
O O5 0.149260 0.250000 0.750000
O O6 0.118853 0.418375 0.675989
O O7 0.089133 0.286436 0.593121
O O8 0.000000 0.328846 0.750000
O O9 0.868290 0.088519 0.146642
O O10 0.750000 0.000000 0.231963
O O11 0.120886 0.743546 0.563607
O O12 0.241160 0.841986 0.466719
#
# Coordination Sequence:
#
# PCOD9505728 Si02
#       5
#    16  16  16  16  16
#     4   9  18  31  52  87 122 152 204 266 323 379
#     4  11  23  39  61  88 128 173 222 264 325 399
#     4  11  19  36  61  90 127 164 218 279 325 389
#     4  10  19  35  56  86 126 164 205 275 331 385
#     4  10  18  33  58  90 125 162 211 271 332 379
#
# _framework density 23.602512999999998
#
# number of rings (size 3 to 8) (size 9 to 14) (size 15 to 20)
#    0.000    1.800    4.000    1.800    0.000    2.400 
#    0.000    1.000    4.400    0.000    0.000    1.400 
#    0.000    0.000    0.000    0.000    0.000    0.000 
#
# Total GULP energy -222867.173273 kJ/mol
# GULP energy per Si atom -5571.679332 kJ/mol
# Density = 2.354879 g / cm^3
# Si number density = 23.602513 Si / 1000 Ang^3
#
#
#
# Elastic Constant Matrix: (Units=GPa)
#
#
# Indices 1 2 3 4 5 6 
#
# 1 25.5189 22.0979 1.8158 0.0000 0.0000 0.0000
# 2 22.0979 181.9345 64.7708 0.0000 0.0000 0.0000
# 3 1.8158 64.7708 151.5582 0.0000 0.0000 0.0000
# 4 0.0000 0.0000 0.0000 53.1145 0.0000 0.0000
# 5 0.0000 0.0000 0.0000 0.0000 40.4593 0.0000
# 6 0.0000 0.0000 0.0000 0.0000 0.0000 4.4076
#
#
#
# Elastic Compliance Matrix: (Units=1/GPa)
#
#
# Indices 1 2 3 4 5 6 
#
# 1 0.044346 -0.006130 0.002088 0.000000 0.000000 0.000000
# 2 -0.006130 0.007330 -0.003059 0.000000 0.000000 0.000000
# 3 0.002088 -0.003059 0.007881 0.000000 0.000000 0.000000
# 4 0.000000 0.000000 0.000000 0.018827 0.000000 0.000000
# 5 0.000000 0.000000 0.000000 0.000000 0.024716 0.000000
# 6 0.000000 0.000000 0.000000 0.000000 0.000000 0.226881
#
#
# Mechanical properties :
#
#
# Convention : Reuss Voigt Hill
#
# Bulk Modulus (GPa) = 22.04805 59.59785 40.82295
# Shear Modulus (GPa) = 13.91590 37.61807 25.76699
#
# Velocity S-wave (km/s) = 2.43079 3.99659 3.30768
# Velocity P-wave (km/s) = 4.15211 6.82660 5.64989
#
# Compressibility (1/GPa) = 0.04535549
#
# Stress axis : x y z
#
# Youngs Moduli (GPa) = 22.54986 136.42333 126.89545
#
# Poissons Ratio (x) = 0.83625 -0.26500
# Poissons Ratio (y) = 0.13823 0.38820
# Poissons Ratio (z) = -0.04709 0.41735
#
# Static dielectric constant tensor:
#      x y z
#    x 2.075510 0.000000 0.000000 
#    y 0.000000 1.826420 0.000000 
#    z 0.000000 0.000000 1.924730 
# 
# From -- ./inp_files/24303.got.cif
#   From: 2010.05.17/outbox.cif.g08.bks.cpg/sg68_13_cif.got.tgz:24303.got - 2010.06.03 18:57:09.
