data_PCOD9505463
_publ_section_title
;
Structure prediction by ZEFSAII (Michael W. Deem and Ramdas Pophale) SiO2 
 PCOD9505463
Probable space group: C C C A
;
_chemical_formula_sum "Si O2"
_cell_formula_units_Z 120
_cell_length_a 11.740047
_cell_length_b 22.589356
_cell_length_c 22.511777
_cell_angle_alpha 90.000000
_cell_angle_beta 90.000000
_cell_angle_gamma 90.000000
_cell_volume 5970.125537
_symmetry_space_group_name_H-M "C C C A"
_symmetry_group_IT_number 68
_space_group.IT_coordinate_system_code '2'
_symmetry_cell_setting 'orthorhombic'
loop_
_space_group_symop_operation_xyz
x,y,z
-x,1/2-y,z
x,1/2-y,1/2-z
-x,y,1/2-z
-x,-y,-z
x,1/2+y,-z
-x,1/2+y,1/2+z
x,-y,1/2+z
1/2+x,1/2+y,z
1/2-x,-y,z
1/2+x,-y,1/2-z
1/2-x,1/2+y,1/2-z
1/2-x,1/2-y,-z
1/2+x,y,-z
1/2-x,y,1/2+z
1/2+x,1/2-y,1/2+z
loop_
_atom_site_type_symbol
_atom_site_label
_atom_site_fract_x
_atom_site_fract_y
_atom_site_fract_z
Si Si1 0.500000 0.518917 0.250000
Si Si2 0.799369 0.064299 0.105799
Si Si3 0.846745 0.587310 0.287776
Si Si4 0.843114 0.842526 0.029707
Si Si5 0.795185 0.066360 0.324048
Si Si6 0.518698 0.813069 0.638457
Si Si7 0.199729 0.134591 0.572304
Si Si8 0.534315 0.066846 0.512665
O O1 0.577101 0.472378 0.287971
O O2 0.415527 0.556867 0.291107
O O3 0.765809 0.076056 0.173055
O O4 0.731500 0.114174 0.070326
O O5 0.750000 0.000000 0.089554
O O6 0.925372 0.068759 0.080827
O O7 0.797565 0.594329 0.221864
O O8 0.920120 0.639466 0.318109
O O9 0.903754 0.802087 0.078973
O O10 0.939333 0.884842 0.001493
O O11 0.763680 0.822714 0.974947
O O12 0.789426 0.104502 0.383370
O O13 0.750000 0.000000 0.336831
O O14 0.500000 0.750000 0.668584
O O15 0.400718 0.837835 0.611889
O O16 0.137770 0.084747 0.531625
O O17 0.500000 0.000000 0.500000
#
# Coordination Sequence:
#
# PCOD9505463 Si02
#       8
#     8  16  16  16  16  16  16  16
#     4  10  20  38  57  80 121 164 180 218 288 356
#     4  10  17  28  48  72 109 147 178 221 273 332
#     4  10  21  37  51  81 112 143 199 235 272 344
#     4   9  20  33  50  80 113 140 187 231 276 350
#     4  10  21  35  54  81 119 154 185 223 278 351
#     4  10  21  40  62  81 107 149 194 255 301 323
#     4  10  22  35  52  82 113 148 190 234 281 349
#     4  10  19  31  48  78 113 151 184 223 278 338
#
# _framework density 20.100079000000001
#
# number of rings (size 3 to 8) (size 9 to 14) (size 15 to 20)
#    0.000    2.133    1.333    2.800    1.867    2.667 
#    2.400    3.000    0.000    0.000    0.000    0.933 
#    0.000    0.000    0.000    0.000    0.000    0.000 
#
# Total GULP energy -334587.982251 kJ/mol
# GULP energy per Si atom -5576.466371 kJ/mol
# Density = 2.005433 g / cm^3
# Si number density = 20.100079 Si / 1000 Ang^3
#
#
#
# Elastic Constant Matrix: (Units=GPa)
#
#
# Indices 1 2 3 4 5 6 
#
# 1 60.0717 16.8567 33.1241 0.0000 0.0000 0.0000
# 2 16.8567 64.1847 26.5129 0.0000 0.0000 0.0000
# 3 33.1241 26.5129 94.0688 0.0000 0.0000 0.0000
# 4 0.0000 0.0000 0.0000 20.3744 0.0000 0.0000
# 5 0.0000 0.0000 0.0000 0.0000 51.3123 0.0000
# 6 0.0000 0.0000 0.0000 0.0000 0.0000 13.7565
#
#
#
# Elastic Compliance Matrix: (Units=1/GPa)
#
#
# Indices 1 2 3 4 5 6 
#
# 1 0.021092 -0.002797 -0.006639 0.000000 0.000000 0.000000
# 2 -0.002797 0.018004 -0.004089 0.000000 0.000000 0.000000
# 3 -0.006639 -0.004089 0.014121 0.000000 0.000000 0.000000
# 4 0.000000 0.000000 0.000000 0.049081 0.000000 0.000000
# 5 0.000000 0.000000 0.000000 0.000000 0.019488 0.000000
# 6 0.000000 0.000000 0.000000 0.000000 0.000000 0.072693
#
#
# Mechanical properties :
#
#
# Convention : Reuss Voigt Hill
#
# Bulk Modulus (GPa) = 38.21701 41.25697 39.73699
# Shear Modulus (GPa) = 21.71529 26.54408 24.12969
#
# Velocity S-wave (km/s) = 3.29045 3.63794 3.46855
# Velocity P-wave (km/s) = 5.78711 6.18195 5.98779
#
# Compressibility (1/GPa) = 0.02616636
#
# Stress axis : x y z
#
# Youngs Moduli (GPa) = 47.41049 55.54367 70.81756
#
# Poissons Ratio (x) = 0.15536 0.47014
# Poissons Ratio (y) = 0.13261 0.28960
# Poissons Ratio (z) = 0.31475 0.22714
#
# Static dielectric constant tensor:
#      x y z
#    x 1.765420 0.000000 0.000000 
#    y 0.000000 1.658620 0.000000 
#    z 0.000000 0.000000 1.767610 
# 
# From -- ./inp_files/37898.got.cif
#   From: 2010.05.17/outbox.cif.g08.bks.cpg/sg68_19_cif.got.tgz:37898.got - 2010.06.03 18:57:09.
