data_PCOD9505111
_publ_section_title
;
Structure prediction by ZEFSAII (Michael W. Deem and Ramdas Pophale) SiO2 
 PCOD9505111
Probable space group: C M M A
;
_chemical_formula_sum "Si O2"
_cell_formula_units_Z 112
_cell_length_a 10.609122
_cell_length_b 14.157083
_cell_length_c 35.941692
_cell_angle_alpha 90.000000
_cell_angle_beta 90.000000
_cell_angle_gamma 90.000000
_cell_volume 5398.234421
_symmetry_space_group_name_H-M "C M M A"
_symmetry_group_IT_number 67
_symmetry_cell_setting 'orthorhombic'
loop_
_space_group_symop_operation_xyz
x,y,z
-x,1/2-y,z
x,-y,-z
-x,1/2+y,-z
-x,-y,-z
x,1/2+y,-z
-x,y,z
x,1/2-y,z
1/2+x,1/2+y,z
1/2-x,-y,z
1/2+x,1/2-y,-z
1/2-x,y,-z
1/2-x,1/2-y,-z
1/2+x,y,-z
1/2-x,1/2+y,z
1/2+x,-y,z
loop_
_atom_site_type_symbol
_atom_site_label
_atom_site_fract_x
_atom_site_fract_y
_atom_site_fract_z
Si Si1 0.638870 0.599283 0.478221
Si Si2 0.142806 0.634930 0.256136
Si Si3 0.651603 0.357606 0.603660
Si Si4 0.354314 0.634563 0.314889
Si Si5 0.857740 0.134946 0.829202
Si Si6 0.357242 0.865077 0.028636
Si Si7 0.642721 0.865069 0.113750
O O1 0.627467 0.500000 0.500000
O O2 0.500000 0.643273 0.479198
O O3 0.750000 0.649973 0.500000
O O4 0.675186 0.590051 0.434958
O O5 0.142828 0.750000 0.256226
O O6 0.254622 0.606003 0.283592
O O7 0.164797 0.605047 0.213441
O O8 0.000000 0.606125 0.267018
O O9 0.500000 0.353664 0.607479
O O10 0.698287 0.250000 0.598873
O O11 0.692718 0.394602 0.643896
O O12 0.500000 0.604896 0.308379
O O13 0.356751 0.750000 0.315766
O O14 0.856558 0.250000 0.829001
O O15 0.749671 0.104802 0.857542
O O16 0.000000 0.106742 0.840045
O O17 0.500000 0.893424 0.018345
O O18 0.356411 0.750000 0.028753
O O19 0.332668 0.894976 0.071196
O O20 0.250000 0.895146 0.000000
O O21 0.500000 0.893330 0.124041
O O22 0.643692 0.750000 0.113608
#
# Coordination Sequence:
#
# PCOD9505111 Si02
#       7
#    16  16  16  16  16  16  16
#     4   9  17  29  44  60  78 101 127 153 182 216
#     4   8  13  20  28  39  57  77  94 116 147 180
#     4   8  14  25  40  57  77  99 122 150 182 213
#     4   8  13  21  33  47  61  80 106 130 153 186
#     4   8  13  19  25  33  45  62  82 101 126 164
#     4   8  13  19  24  29  36  46  62  87 122 163
#     4   8  13  19  24  30  40  52  69  97 129 160
#
# _framework density 20.747523000000001
#
# number of rings (size 3 to 8) (size 9 to 14) (size 15 to 20)
#    0.000    3.857    0.000    2.571    0.000    1.429 
#    0.000    6.429    0.000    0.857    0.000    0.000 
#    0.000    0.000    0.000    0.000    0.000    0.000 
#
# Total GULP energy -311955.500636 kJ/mol
# GULP energy per Si atom -5570.633940 kJ/mol
# Density = 2.070030 g / cm^3
# Si number density = 20.747523 Si / 1000 Ang^3
#
#
#
# Elastic Constant Matrix: (Units=GPa)
#
#
# Indices 1 2 3 4 5 6 
#
# 1 184.2592 16.9350 143.5709 0.0000 0.0000 0.0000
# 2 16.9350 72.4470 20.3310 0.0000 0.0000 0.0000
# 3 143.5709 20.3310 182.7213 0.0000 0.0000 0.0000
# 4 0.0000 0.0000 0.0000 4.7020 0.0000 0.0000
# 5 0.0000 0.0000 0.0000 0.0000 14.3071 0.0000
# 6 0.0000 0.0000 0.0000 0.0000 0.0000 -129.5840
#
#
#
# Elastic Compliance Matrix: (Units=1/GPa)
#
#
# Indices 1 2 3 4 5 6 
#
# 1 0.013998 -0.000192 -0.010978 0.000000 0.000000 0.000000
# 2 -0.000192 0.014251 -0.001435 0.000000 0.000000 0.000000
# 3 -0.010978 -0.001435 0.014258 0.000000 0.000000 0.000000
# 4 0.000000 0.000000 0.000000 0.212674 0.000000 0.000000
# 5 0.000000 0.000000 0.000000 0.000000 0.069895 0.000000
# 6 0.000000 0.000000 0.000000 0.000000 0.000000 -0.007717
#
#
# Mechanical properties :
#
#
# Convention : Reuss Voigt Hill
#
# Bulk Modulus (GPa) = 57.80886 89.01124 73.41005
# Shear Modulus (GPa) = 14.35403 -4.87560 4.73921
#
# Velocity S-wave (km/s) = 2.63314 -1.53462 1.51301
# Velocity P-wave (km/s) = 6.09656 6.31309 6.20577
#
# Compressibility (1/GPa) = 0.01729839
#
# Stress axis : x y z
#
# Youngs Moduli (GPa) = 71.43712 70.17187 70.13564
#
# Poissons Ratio (x) = 0.01344 0.76993
# Poissons Ratio (y) = 0.01368 0.10066
# Poissons Ratio (z) = 0.78421 0.10071
#
# Static dielectric constant tensor:
#      x y z
#    x 1.753770 0.000000 0.000000 
#    y 0.000000 1.712700 0.000000 
#    z 0.000000 0.000000 1.732980 
# 
# From -- ./inp_files/44158.got.cif
#   From: 2010.05.17/outbox.cif.g08.bks.cpg/sg67_23_cif.got.tgz:44158.got - 2010.06.03 18:28:57.
