data_PCOD9505190
_publ_section_title
;
Structure prediction by ZEFSAII (Michael W. Deem and Ramdas Pophale) SiO2 
 PCOD9505190
Probable space group: C M M A
;
_chemical_formula_sum "Si O2"
_cell_formula_units_Z 48
_cell_length_a 27.000000
_cell_length_b 9.000000
_cell_length_c 21.000000
_cell_angle_alpha 90.000000
_cell_angle_beta 90.000000
_cell_angle_gamma 90.000000
_cell_volume 5103.000000
_symmetry_space_group_name_H-M "C M M A"
_symmetry_group_IT_number 67
_symmetry_cell_setting 'orthorhombic'
loop_
_space_group_symop_operation_xyz
x,y,z
-x,1/2-y,z
x,-y,-z
-x,1/2+y,-z
-x,-y,-z
x,1/2+y,-z
-x,y,z
x,1/2-y,z
1/2+x,1/2+y,z
1/2-x,-y,z
1/2+x,1/2-y,-z
1/2-x,y,-z
1/2-x,1/2-y,-z
1/2+x,y,-z
1/2-x,1/2+y,z
1/2+x,-y,z
loop_
_atom_site_type_symbol
_atom_site_label
_atom_site_fract_x
_atom_site_fract_y
_atom_site_fract_z
Si Si1 0.941457 0.914156 0.324375
Si Si2 0.443069 0.072396 0.063697
Si Si3 0.398946 0.924447 0.440208
Si Si4 0.698238 0.427619 0.393546
Si Si5 0.200079 0.425048 0.255551
Si Si6 0.113764 0.424000 0.807759
O O1 0.922711 0.750000 0.346414
O O2 0.921633 0.936296 0.253514
O O3 0.000000 0.909380 0.322473
O O4 0.925223 0.038160 0.373922
O O5 0.500000 0.021588 0.070688
O O6 0.443414 0.250000 0.056425
O O7 0.413813 0.038640 0.127540
O O8 0.422082 0.000000 0.000000
O O9 0.392869 0.750000 0.449305
O O10 0.426027 0.000000 0.500000
O O11 0.346802 0.008849 0.433439
O O12 0.701033 0.250000 0.394294
O O13 0.750000 0.500000 0.414185
O O14 0.689278 0.488551 0.321724
O O15 0.205242 0.250000 0.268122
O O16 0.250000 0.500000 0.231452
O O17 0.157693 0.463976 0.206387
O O18 0.130136 0.250000 0.810129
#
# Coordination Sequence:
#
# PCOD9505190 Si02
#       6
#    16  16  16  16  16  16
#     4  10  21  38  60  84 110 144 187 235 285 336
#     4   9  18  33  54  83 119 158 195 231 275 329
#     4  12  25  41  59  81 110 147 188 234 286 340
#     4  11  21  37  59  84 113 145 182 228 281 339
#     4  11  21  34  55  84 115 148 185 229 279 334
#     4  10  19  34  58  85 116 151 189 232 280 333
#
# _framework density 9.4062319999999993
#
# number of rings (size 3 to 8) (size 9 to 14) (size 15 to 20)
#    0.000    1.500    1.667    6.000    0.000    3.667 
#    0.000    1.667    0.000    3.500    0.000    3.500 
#    0.000    0.000    0.000    0.000    0.000    0.000 
#
# Total GULP energy -267958.646624 kJ/mol
# GULP energy per Si atom -5582.471805 kJ/mol
# Density = 0.938482 g / cm^3
# Si number density = 9.406232 Si / 1000 Ang^3
#
#
#
# Elastic Constant Matrix: (Units=GPa)
#
#
# Indices 1 2 3 4 5 6 
#
# 1 61.4810 39.4108 37.4496 0.0000 0.0000 0.0000
# 2 39.4108 140.6178 53.6605 0.0000 0.0000 0.0000
# 3 37.4496 53.6605 95.5039 0.0000 0.0000 0.0000
# 4 0.0000 0.0000 0.0000 23.9965 0.0000 0.0000
# 5 0.0000 0.0000 0.0000 0.0000 10.4584 0.0000
# 6 0.0000 0.0000 0.0000 0.0000 0.0000 17.1116
#
#
#
# Elastic Compliance Matrix: (Units=1/GPa)
#
#
# Indices 1 2 3 4 5 6 
#
# 1 0.022862 -0.003802 -0.006829 0.000000 0.000000 0.000000
# 2 -0.003802 0.009685 -0.003951 0.000000 0.000000 0.000000
# 3 -0.006829 -0.003951 0.015368 0.000000 0.000000 0.000000
# 4 0.000000 0.000000 0.000000 0.041673 0.000000 0.000000
# 5 0.000000 0.000000 0.000000 0.000000 0.095617 0.000000
# 6 0.000000 0.000000 0.000000 0.000000 0.000000 0.058440
#
#
# Mechanical properties :
#
#
# Convention : Reuss Voigt Hill
#
# Bulk Modulus (GPa) = 53.32626 62.07162 57.69894
# Shear Modulus (GPa) = 17.91753 21.45209 19.68481
#
# Velocity S-wave (km/s) = 3.08949 3.38052 3.23827
# Velocity P-wave (km/s) = 6.41361 6.95009 6.68723
#
# Compressibility (1/GPa) = 0.01875249
#
# Stress axis : x y z
#
# Youngs Moduli (GPa) = 43.74150 103.25722 65.06911
#
# Poissons Ratio (x) = 0.39254 0.44434
# Poissons Ratio (y) = 0.16629 0.25707
# Poissons Ratio (z) = 0.29870 0.40794
#
# Static dielectric constant tensor:
#      x y z
#    x 1.723290 0.000000 0.000000 
#    y 0.000000 1.649920 0.000000 
#    z 0.000000 0.000000 1.684320 
# 
# From -- ./inp_files/39867.got.cif
#   From: 2010.05.17/outbox.ucp.g08.bks.cvg/sg67_20_cif.got.tgz:39867.got - 2010.06.11 16:47:20.
