data_PCOD9505226
_publ_section_title
;
Structure prediction by ZEFSAII (Michael W. Deem and Ramdas Pophale) SiO2 
 PCOD9505226
Probable space group: C M M A
;
_chemical_formula_sum "Si O2"
_cell_formula_units_Z 48
_cell_length_a 27.000000
_cell_length_b 21.000000
_cell_length_c 9.000000
_cell_angle_alpha 90.000000
_cell_angle_beta 90.000000
_cell_angle_gamma 90.000000
_cell_volume 5103.000000
_symmetry_space_group_name_H-M "C M M A"
_symmetry_group_IT_number 67
_symmetry_cell_setting 'orthorhombic'
loop_
_space_group_symop_operation_xyz
x,y,z
-x,1/2-y,z
x,-y,-z
-x,1/2+y,-z
-x,-y,-z
x,1/2+y,-z
-x,y,z
x,1/2-y,z
1/2+x,1/2+y,z
1/2-x,-y,z
1/2+x,1/2-y,-z
1/2-x,y,-z
1/2-x,1/2-y,-z
1/2+x,y,-z
1/2-x,1/2+y,z
1/2+x,-y,z
loop_
_atom_site_type_symbol
_atom_site_label
_atom_site_fract_x
_atom_site_fract_y
_atom_site_fract_z
Si Si1 0.885103 0.931966 0.048586
Si Si2 0.055252 0.326449 0.428696
Si Si3 0.362085 0.324650 0.810244
Si Si4 0.721144 0.058870 0.157672
Si Si5 0.752636 0.319536 0.323451
Si Si6 0.559631 0.176045 0.232673
O O1 0.836292 0.955716 0.135567
O O2 0.919480 0.882285 0.137355
O O3 0.863186 0.882275 0.926796
O O4 0.908976 0.000000 0.000000
O O5 0.051167 0.250000 0.422999
O O6 0.094764 0.342629 0.304944
O O7 0.072163 0.339486 0.596088
O O8 0.000000 0.353013 0.403150
O O9 0.370315 0.250000 0.861830
O O10 0.309340 0.323699 0.729270
O O11 0.724253 0.123610 0.247118
O O12 0.750000 0.000000 0.231681
O O13 0.750000 0.067589 0.000000
O O14 0.732917 0.250000 0.277681
O O15 0.750000 0.323913 0.500000
O O16 0.500000 0.177370 0.220951
O O17 0.576031 0.250000 0.199536
#
# Coordination Sequence:
#
# PCOD9505226 Si02
#       6
#    16  16  16  16  16  16
#     4  12  23  37  58  83 114 154 196 235 280 334
#     4   8  16  34  59  83 109 142 180 226 281 341
#     4  10  20  35  55  83 112 142 185 233 287 342
#     4  11  21  41  58  76 112 159 196 231 278 337
#     4  10  22  36  54  84 114 140 182 242 293 338
#     4   9  20  39  62  88 115 147 189 234 287 349
#
# _framework density 9.4062319999999993
#
# number of rings (size 3 to 8) (size 9 to 14) (size 15 to 20)
#    0.000    2.000    3.333    1.500    2.333    3.000 
#    0.000    2.500    0.000    2.000    0.000    0.000 
#    0.000    0.000    0.000    0.000    0.000    0.000 
#
# Total GULP energy -267295.049294 kJ/mol
# GULP energy per Si atom -5568.646860 kJ/mol
# Density = 0.938482 g / cm^3
# Si number density = 9.406232 Si / 1000 Ang^3
#
#
#
# Elastic Constant Matrix: (Units=GPa)
#
#
# Indices 1 2 3 4 5 6 
#
# 1 18.1198 13.3204 13.9769 0.0000 0.0000 0.0000
# 2 13.3204 123.8004 26.4864 0.0000 0.0000 0.0000
# 3 13.9769 26.4864 22.0170 0.0000 0.0000 0.0000
# 4 0.0000 0.0000 0.0000 17.7912 0.0000 0.0000
# 5 0.0000 0.0000 0.0000 0.0000 12.2594 0.0000
# 6 0.0000 0.0000 0.0000 0.0000 0.0000 27.9577
#
#
#
# Elastic Compliance Matrix: (Units=1/GPa)
#
#
# Indices 1 2 3 4 5 6 
#
# 1 0.109719 0.004169 -0.074668 0.000000 0.000000 0.000000
# 2 0.004169 0.011035 -0.015922 0.000000 0.000000 0.000000
# 3 -0.074668 -0.015922 0.111975 0.000000 0.000000 0.000000
# 4 0.000000 0.000000 0.000000 0.056208 0.000000 0.000000
# 5 0.000000 0.000000 0.000000 0.000000 0.081570 0.000000
# 6 0.000000 0.000000 0.000000 0.000000 0.000000 0.035768
#
#
# Mechanical properties :
#
#
# Convention : Reuss Voigt Hill
#
# Bulk Modulus (GPa) = 16.69794 30.16716 23.43255
# Shear Modulus (GPa) = 8.34615 18.94522 13.64569
#
# Velocity S-wave (km/s) = 2.10859 3.17686 2.69616
# Velocity P-wave (km/s) = 3.85012 5.43389 4.70906
#
# Compressibility (1/GPa) = 0.05988764
#
# Stress axis : x y z
#
# Youngs Moduli (GPa) = 9.11420 90.61732 8.93059
#
# Poissons Ratio (x) = -0.37782 0.66683
# Poissons Ratio (y) = -0.03800 0.14220
# Poissons Ratio (z) = 0.68054 1.44285
#
# Static dielectric constant tensor:
#      x y z
#    x 1.777020 0.000000 0.000000 
#    y 0.000000 1.640940 0.000000 
#    z 0.000000 0.000000 1.688120 
# 
# From -- ./inp_files/11507.got.cif
#   From: 2010.05.17/outbox.ucp.g08.bks.cvg/sg67_6_cif.got.tgz:11507.got - 2010.06.11 16:47:20.
