data_PCOD9505445
_publ_section_title
;
Structure prediction by ZEFSAII (Michael W. Deem and Ramdas Pophale) SiO2 
 PCOD9505445
Probable space group: C C C A
;
_chemical_formula_sum "Si O2"
_cell_formula_units_Z 68
_cell_length_a 5.559751
_cell_length_b 14.304734
_cell_length_c 35.033656
_cell_angle_alpha 90.000000
_cell_angle_beta 90.000000
_cell_angle_gamma 90.000000
_cell_volume 2786.253258
_symmetry_space_group_name_H-M "C C C A"
_symmetry_group_IT_number 68
_space_group.IT_coordinate_system_code '2'
_symmetry_cell_setting 'orthorhombic'
loop_
_space_group_symop_operation_xyz
x,y,z
-x,1/2-y,z
x,1/2-y,1/2-z
-x,y,1/2-z
-x,-y,-z
x,1/2+y,-z
-x,1/2+y,1/2+z
x,-y,1/2+z
1/2+x,1/2+y,z
1/2-x,-y,z
1/2+x,-y,1/2-z
1/2-x,1/2+y,1/2-z
1/2-x,1/2-y,-z
1/2+x,y,-z
1/2-x,y,1/2+z
1/2+x,1/2-y,1/2+z
loop_
_atom_site_type_symbol
_atom_site_label
_atom_site_fract_x
_atom_site_fract_y
_atom_site_fract_z
Si Si1 0.387452 0.853974 0.789166
Si Si2 0.500000 0.750000 0.250000
Si Si3 0.695682 0.102523 0.127555
Si Si4 0.465058 0.392364 0.986139
Si Si5 0.802975 0.391498 0.101312
O O1 0.500000 0.750000 0.794720
O O2 0.500000 0.894880 0.750000
O O3 0.123646 0.823284 0.778019
O O4 0.388964 0.907390 0.828523
O O5 0.464975 0.148752 0.107554
O O6 0.963538 0.145569 0.124263
O O7 0.750000 0.000000 0.110074
O O8 0.380742 0.387729 0.942584
O O9 0.500000 0.500000 0.000000
O O10 0.735557 0.352901 0.990526
O O11 0.750000 0.500000 0.112291
#
# Coordination Sequence:
#
# PCOD9505445 Si02
#       5
#    16   4  16  16  16
#     4   9  20  38  60  80 104 144 198 232 270 323
#     4   8  18  36  64  74 100 132 196 236 258 308
#     4  10  22  35  51  80 117 148 167 230 281 335
#     4  10  17  25  46  67  99 149 183 213 250 327
#     4  10  19  31  46  73 115 148 172 213 282 324
#
# _framework density 24.405536999999999
#
# number of rings (size 3 to 8) (size 9 to 14) (size 15 to 20)
#    0.000    2.588    2.353    1.412   13.176    0.000 
#    2.118    0.000    0.000    0.000    0.000    0.000 
#    0.000   18.824    0.000    0.000    0.000    0.000 
#
# Total GULP energy -189314.450813 kJ/mol
# GULP energy per Si atom -5568.072083 kJ/mol
# Density = 2.434999 g / cm^3
# Si number density = 24.405537 Si / 1000 Ang^3
#
#
#
# Elastic Constant Matrix: (Units=GPa)
#
#
# Indices 1 2 3 4 5 6 
#
# 1 227.1199 14.5378 70.1549 0.0000 0.0000 0.0000
# 2 14.5378 71.3089 -1.5538 0.0000 0.0000 0.0000
# 3 70.1549 -1.5538 154.0575 0.0000 0.0000 0.0000
# 4 0.0000 0.0000 0.0000 68.5974 0.0000 0.0000
# 5 0.0000 0.0000 0.0000 0.0000 -984.9840 0.0000
# 6 0.0000 0.0000 0.0000 0.0000 0.0000 -77.3063
#
#
#
# Elastic Compliance Matrix: (Units=1/GPa)
#
#
# Indices 1 2 3 4 5 6 
#
# 1 0.005211 -0.001114 -0.002384 0.000000 0.000000 0.000000
# 2 -0.001114 0.014265 0.000651 0.000000 0.000000 0.000000
# 3 -0.002384 0.000651 0.007583 0.000000 0.000000 0.000000
# 4 0.000000 0.000000 0.000000 0.014578 0.000000 0.000000
# 5 0.000000 0.000000 0.000000 0.000000 -0.001015 0.000000
# 6 0.000000 0.000000 0.000000 0.000000 0.000000 -0.012936
#
#
# Mechanical properties :
#
#
# Convention : Reuss Voigt Hill
#
# Bulk Modulus (GPa) = 46.80609 68.75156 57.77883
# Shear Modulus (GPa) = 123.45193 -174.11542 -25.33174
#
# Velocity S-wave (km/s) = 7.11993 -8.45562 -3.22522
# Velocity P-wave (km/s) = 9.31726 8.19136 3.13950
#
# Compressibility (1/GPa) = 0.02136474
#
# Stress axis : x y z
#
# Youngs Moduli (GPa) = 191.91261 70.10242 131.86829
#
# Poissons Ratio (x) = 0.07811 0.31439
# Poissons Ratio (y) = 0.21384 -0.08588
# Poissons Ratio (z) = 0.45754 -0.04566
#
# Static dielectric constant tensor:
#      x y z
#    x 2.186170 0.000000 0.000000 
#    y 0.000000 1.582900 0.000000 
#    z 0.000000 0.000000 1.918110 
# 
# From -- ./inp_files/53055.got.cif
#   From: 2010.05.17/outbox.cif.g08.bks.cpg/sg68_27_cif.got.tgz:53055.got - 2010.06.03 18:57:09.
