data_PCOD9505610
_publ_section_title
;
Structure prediction by ZEFSAII (Michael W. Deem and Ramdas Pophale) SiO2 
 PCOD9505610
Probable space group: C C C A
;
_chemical_formula_sum "Si O2"
_cell_formula_units_Z 112
_cell_length_a 11.223271
_cell_length_b 25.302763
_cell_length_c 20.180350
_cell_angle_alpha 90.000000
_cell_angle_beta 90.000000
_cell_angle_gamma 90.000000
_cell_volume 5730.811075
_symmetry_space_group_name_H-M "C C C A"
_symmetry_group_IT_number 68
_space_group.IT_coordinate_system_code '2'
_symmetry_cell_setting 'orthorhombic'
loop_
_space_group_symop_operation_xyz
x,y,z
-x,1/2-y,z
x,1/2-y,1/2-z
-x,y,1/2-z
-x,-y,-z
x,1/2+y,-z
-x,1/2+y,1/2+z
x,-y,1/2+z
1/2+x,1/2+y,z
1/2-x,-y,z
1/2+x,-y,1/2-z
1/2-x,1/2+y,1/2-z
1/2-x,1/2-y,-z
1/2+x,y,-z
1/2-x,y,1/2+z
1/2+x,1/2-y,1/2+z
loop_
_atom_site_type_symbol
_atom_site_label
_atom_site_fract_x
_atom_site_fract_y
_atom_site_fract_z
Si Si1 0.606086 0.883110 0.536371
Si Si2 0.038814 0.965556 0.563781
Si Si3 0.951816 0.436967 0.643371
Si Si4 0.874665 0.260118 0.937631
Si Si5 0.665176 0.397948 0.877239
Si Si6 0.689890 0.442568 0.266193
Si Si7 0.619404 0.219383 0.582866
O O1 0.601046 0.914199 0.467331
O O2 0.493501 0.899079 0.583180
O O3 0.618300 0.820192 0.534307
O O4 0.722503 0.903749 0.573977
O O5 0.927098 0.942823 0.603540
O O6 0.096456 0.008606 0.611657
O O7 0.000000 0.000000 0.500000
O O8 0.855526 0.418898 0.696896
O O9 0.072888 0.447142 0.686219
O O10 0.749869 0.256816 0.898913
O O11 0.000000 0.250000 0.901026
O O12 0.874703 0.222431 0.002197
O O13 0.716231 0.405851 0.804122
O O14 0.614125 0.340058 0.891215
O O15 0.750000 0.500000 0.258425
O O16 0.500000 0.250000 0.602675
#
# Coordination Sequence:
#
# PCOD9505610 Si02
#       7
#    16  16  16  16  16  16  16
#     4   9  19  32  50  79 117 146 179 235 302 365
#     4  10  18  30  48  76 114 144 178 227 290 358
#     4   9  19  32  50  77 101 145 196 233 278 344
#     4   9  16  29  50  77 117 149 177 230 290 350
#     4  10  19  33  53  76 107 158 189 231 303 348
#     4  10  18  34  55  67 104 147 199 239 273 341
#     4   9  17  29  50  77 110 148 192 227 281 360
#
# _framework density 19.543482000000001
#
# number of rings (size 3 to 8) (size 9 to 14) (size 15 to 20)
#    0.000    2.571    1.429    1.714    0.000    0.000 
#    5.143    0.000    0.000    0.000    0.000   18.000 
#    0.000    0.000    0.000    0.000    0.000    0.000 
#
# Total GULP energy -311926.072666 kJ/mol
# GULP energy per Si atom -5570.108440 kJ/mol
# Density = 1.949900 g / cm^3
# Si number density = 19.543482 Si / 1000 Ang^3
#
#
#
# Elastic Constant Matrix: (Units=GPa)
#
#
# Indices 1 2 3 4 5 6 
#
# 1 96.8691 33.6586 19.1539 0.0000 0.0000 0.0000
# 2 33.6586 79.7334 33.9561 0.0000 0.0000 0.0000
# 3 19.1539 33.9561 67.1805 0.0000 0.0000 0.0000
# 4 0.0000 0.0000 0.0000 13.3375 0.0000 0.0000
# 5 0.0000 0.0000 0.0000 0.0000 16.6168 0.0000
# 6 0.0000 0.0000 0.0000 0.0000 0.0000 21.5313
#
#
#
# Elastic Compliance Matrix: (Units=1/GPa)
#
#
# Indices 1 2 3 4 5 6 
#
# 1 0.012163 -0.004661 -0.001112 0.000000 0.000000 0.000000
# 2 -0.004661 0.017768 -0.007652 0.000000 0.000000 0.000000
# 3 -0.001112 -0.007652 0.019070 0.000000 0.000000 0.000000
# 4 0.000000 0.000000 0.000000 0.074977 0.000000 0.000000
# 5 0.000000 0.000000 0.000000 0.000000 0.060180 0.000000
# 6 0.000000 0.000000 0.000000 0.000000 0.000000 0.046444
#
#
# Mechanical properties :
#
#
# Convention : Reuss Voigt Hill
#
# Bulk Modulus (GPa) = 45.14418 46.36894 45.75656
# Shear Modulus (GPa) = 18.87974 20.76474 19.82224
#
# Velocity S-wave (km/s) = 3.11149 3.26312 3.18821
# Velocity P-wave (km/s) = 6.00483 6.16237 6.08411
#
# Compressibility (1/GPa) = 0.02215125
#
# Stress axis : x y z
#
# Youngs Moduli (GPa) = 82.21988 56.28087 52.43859
#
# Poissons Ratio (x) = 0.26231 0.05831
# Poissons Ratio (y) = 0.38321 0.40126
# Poissons Ratio (z) = 0.09142 0.43066
#
# Static dielectric constant tensor:
#      x y z
#    x 1.763830 0.000000 0.000000 
#    y 0.000000 1.685520 0.000000 
#    z 0.000000 0.000000 1.687270 
# 
# From -- ./inp_files/37949.got.cif
#   From: 2010.05.17/outbox.cif.g08.bks.cpg/sg68_19_cif.got.tgz:37949.got - 2010.06.03 18:57:09.
