data_PCOD9505550
_publ_section_title
;
Structure prediction by ZEFSAII (Michael W. Deem and Ramdas Pophale) SiO2 
 PCOD9505550
Probable space group: C C C A
;
_chemical_formula_sum "Si O2"
_cell_formula_units_Z 64
_cell_length_a 9.918087
_cell_length_b 17.334024
_cell_length_c 20.456955
_cell_angle_alpha 90.000000
_cell_angle_beta 90.000000
_cell_angle_gamma 90.000000
_cell_volume 3516.967029
_symmetry_space_group_name_H-M "C C C A"
_symmetry_group_IT_number 68
_space_group.IT_coordinate_system_code '2'
_symmetry_cell_setting 'orthorhombic'
loop_
_space_group_symop_operation_xyz
x,y,z
-x,1/2-y,z
x,1/2-y,1/2-z
-x,y,1/2-z
-x,-y,-z
x,1/2+y,-z
-x,1/2+y,1/2+z
x,-y,1/2+z
1/2+x,1/2+y,z
1/2-x,-y,z
1/2+x,-y,1/2-z
1/2-x,1/2+y,1/2-z
1/2-x,1/2-y,-z
1/2+x,y,-z
1/2-x,y,1/2+z
1/2+x,1/2-y,1/2+z
loop_
_atom_site_type_symbol
_atom_site_label
_atom_site_fract_x
_atom_site_fract_y
_atom_site_fract_z
Si Si1 0.631632 0.698038 0.466394
Si Si2 0.270827 0.410547 0.138332
Si Si3 0.948913 0.839829 0.398545
Si Si4 0.338787 0.337545 0.266113
O O1 0.500000 0.750000 0.450809
O O2 0.750000 0.750000 0.500000
O O3 0.682470 0.648171 0.405416
O O4 0.592471 0.644427 0.527662
O O5 0.250000 0.500000 0.125352
O O6 0.423644 0.390510 0.119371
O O7 0.260577 0.391666 0.215754
O O8 0.834057 0.850499 0.343767
O O9 0.000000 0.750000 0.394457
O O10 0.298818 0.250000 0.250000
O O11 0.500000 0.342715 0.250000
#
# Coordination Sequence:
#
# PCOD9505550 Si02
#       4
#    16  16  16  16
#     4  11  20  38  64  92 120 161 211 247 293 373
#     4  11  22  35  59  94 124 150 198 271 310 339
#     4  10  17  35  65  86 109 164 218 232 289 380
#     4   9  14  31  61  81 102 151 213 238 276 369
#
# _framework density 18.197496999999998
#
# number of rings (size 3 to 8) (size 9 to 14) (size 15 to 20)
#    0.000    1.750   10.000    0.000    0.000    1.000 
#    0.000    1.250   27.500    1.500    0.000    0.000 
#    0.000    0.000    0.000    0.000    0.000    0.000 
#
# Total GULP energy -178215.809175 kJ/mol
# GULP energy per Si atom -5569.244037 kJ/mol
# Density = 1.815608 g / cm^3
# Si number density = 18.197497 Si / 1000 Ang^3
#
#
#
# Elastic Constant Matrix: (Units=GPa)
#
#
# Indices 1 2 3 4 5 6 
#
# 1 56.5376 40.2673 26.5351 0.0000 0.0000 0.0000
# 2 40.2673 99.4395 30.8681 0.0000 0.0000 0.0000
# 3 26.5351 30.8681 129.2367 0.0000 0.0000 0.0000
# 4 0.0000 0.0000 0.0000 18.2485 0.0000 0.0000
# 5 0.0000 0.0000 0.0000 0.0000 24.4291 0.0000
# 6 0.0000 0.0000 0.0000 0.0000 0.0000 23.4083
#
#
#
# Elastic Compliance Matrix: (Units=1/GPa)
#
#
# Indices 1 2 3 4 5 6 
#
# 1 0.025917 -0.009551 -0.003040 0.000000 0.000000 0.000000
# 2 -0.009551 0.014382 -0.001474 0.000000 0.000000 0.000000
# 3 -0.003040 -0.001474 0.008714 0.000000 0.000000 0.000000
# 4 0.000000 0.000000 0.000000 0.054799 0.000000 0.000000
# 5 0.000000 0.000000 0.000000 0.000000 0.040935 0.000000
# 6 0.000000 0.000000 0.000000 0.000000 0.000000 0.042720
#
#
# Mechanical properties :
#
#
# Convention : Reuss Voigt Hill
#
# Bulk Modulus (GPa) = 47.88795 53.39498 50.64146
# Shear Modulus (GPa) = 22.46620 25.72006 24.09313
#
# Velocity S-wave (km/s) = 3.51747 3.76358 3.64260
# Velocity P-wave (km/s) = 6.54749 6.94922 6.75134
#
# Compressibility (1/GPa) = 0.02088208
#
# Stress axis : x y z
#
# Youngs Moduli (GPa) = 38.58534 69.53359 114.75818
#
# Poissons Ratio (x) = 0.66412 0.34886
# Poissons Ratio (y) = 0.36853 0.16915
# Poissons Ratio (z) = 0.11730 0.10249
#
# Static dielectric constant tensor:
#      x y z
#    x 1.651250 0.000000 0.000000 
#    y 0.000000 1.686900 0.000000 
#    z 0.000000 0.000000 1.725150 
# 
# From -- ./inp_files/29289.got.cif
#   From: 2010.05.17/outbox.cif.g08.bks.cpg/sg68_15_cif.got.tgz:29289.got - 2010.06.03 18:57:09.
