data_PCOD9505024
_publ_section_title
;
Structure prediction by ZEFSAII (Michael W. Deem and Ramdas Pophale) SiO2 
 PCOD9505024
Probable space group: C M M A
;
_chemical_formula_sum "Si O2"
_cell_formula_units_Z 108
_cell_length_a 15.266555
_cell_length_b 31.319621
_cell_length_c 11.222394
_cell_angle_alpha 90.000000
_cell_angle_beta 90.000000
_cell_angle_gamma 90.000000
_cell_volume 5365.905954
_symmetry_space_group_name_H-M "C M M A"
_symmetry_group_IT_number 67
_symmetry_cell_setting 'orthorhombic'
loop_
_space_group_symop_operation_xyz
x,y,z
-x,1/2-y,z
x,-y,-z
-x,1/2+y,-z
-x,-y,-z
x,1/2+y,-z
-x,y,z
x,1/2-y,z
1/2+x,1/2+y,z
1/2-x,-y,z
1/2+x,1/2-y,-z
1/2-x,y,-z
1/2-x,1/2-y,-z
1/2+x,y,-z
1/2-x,1/2+y,z
1/2+x,-y,z
loop_
_atom_site_type_symbol
_atom_site_label
_atom_site_fract_x
_atom_site_fract_y
_atom_site_fract_z
Si Si1 0.854835 0.688281 0.742793
Si Si2 0.250000 0.399706 0.000000
Si Si3 0.599810 0.890022 0.646429
Si Si4 0.649909 0.296288 0.261556
Si Si5 0.247700 0.550695 0.755694
Si Si6 0.000000 0.750000 0.649088
Si Si7 0.398122 0.828189 0.991116
Si Si8 0.601202 0.598286 0.364391
O O1 0.754812 0.701648 0.726566
O O2 0.865225 0.638867 0.710097
O O3 0.923051 0.713389 0.661847
O O4 0.880491 0.693956 0.881595
O O5 0.265552 0.428463 0.885088
O O6 0.166919 0.368459 0.982116
O O7 0.500000 0.901187 0.680337
O O8 0.615509 0.840538 0.683009
O O9 0.668841 0.923212 0.702796
O O10 0.608347 0.892240 0.504066
O O11 0.618861 0.250000 0.309791
O O12 0.624291 0.299280 0.122433
O O13 0.250000 0.500000 0.765620
O O14 0.165438 0.560780 0.671517
O O15 0.500000 0.840431 0.986380
O O16 0.500000 0.590173 0.335136
#
# Coordination Sequence:
#
# PCOD9505024 Si02
#       8
#    16   8  16  16  16   4  16  16
#     4  12  22  39  61  95 130 172 224 281 328 385
#     4  12  23  44  67 102 136 170 217 270 343 416
#     4  11  25  46  68  96 137 179 226 281 334 394
#     4  12  25  40  63  96 136 181 228 276 334 394
#     4  12  26  45  73 103 133 172 218 276 346 413
#     4  12  24  36  62 102 140 168 236 290 330 386
#     4  12  22  37  66  91 128 178 222 274 336 394
#     4  11  23  44  71  95 131 177 225 275 334 395
#
# _framework density 20.127075999999999
#
# number of rings (size 3 to 8) (size 9 to 14) (size 15 to 20)
#    0.000    0.296    8.148    1.111    1.037    3.556 
#    1.333    2.222    0.000    2.667    0.000    0.000 
#    0.000    0.000    0.000    0.000    0.000    0.000 
#
# Total GULP energy -301428.052212 kJ/mol
# GULP energy per Si atom -5582.000967 kJ/mol
# Density = 2.008127 g / cm^3
# Si number density = 20.127076 Si / 1000 Ang^3
#
#
#
# Elastic Constant Matrix: (Units=GPa)
#
#
# Indices 1 2 3 4 5 6 
#
# 1 105.1182 46.5403 23.6981 0.0000 0.0000 0.0000
# 2 46.5403 143.1217 20.7468 0.0000 0.0000 0.0000
# 3 23.6981 20.7468 51.4477 0.0000 0.0000 0.0000
# 4 0.0000 0.0000 0.0000 2.5214 0.0000 0.0000
# 5 0.0000 0.0000 0.0000 0.0000 21.3544 0.0000
# 6 0.0000 0.0000 0.0000 0.0000 0.0000 8.6069
#
#
#
# Elastic Compliance Matrix: (Units=1/GPa)
#
#
# Indices 1 2 3 4 5 6 
#
# 1 0.011897 -0.003265 -0.004163 0.000000 0.000000 0.000000
# 2 -0.003265 0.008317 -0.001850 0.000000 0.000000 0.000000
# 3 -0.004163 -0.001850 0.022101 0.000000 0.000000 0.000000
# 4 0.000000 0.000000 0.000000 0.396603 0.000000 0.000000
# 5 0.000000 0.000000 0.000000 0.000000 0.046829 0.000000
# 6 0.000000 0.000000 0.000000 0.000000 0.000000 0.116186
#
#
# Mechanical properties :
#
#
# Convention : Reuss Voigt Hill
#
# Bulk Modulus (GPa) = 42.09074 53.51756 47.80415
# Shear Modulus (GPa) = 7.95660 20.41004 14.18332
#
# Velocity S-wave (km/s) = 1.99042 3.18788 2.65748
# Velocity P-wave (km/s) = 5.12252 6.34017 5.76359
#
# Compressibility (1/GPa) = 0.02375819
#
# Stress axis : x y z
#
# Youngs Moduli (GPa) = 84.05205 120.23542 45.24680
#
# Poissons Ratio (x) = 0.39260 0.18838
# Poissons Ratio (y) = 0.27445 0.08370
# Poissons Ratio (z) = 0.34995 0.22242
#
# Static dielectric constant tensor:
#      x y z
#    x 1.698920 0.000000 0.000000 
#    y 0.000000 1.771040 0.000000 
#    z 0.000000 0.000000 1.727680 
# 
# From -- ./inp_files/18681.got.cif
#   From: 2010.05.17/outbox.cif.g08.bks.cpg/sg67_10_cif.got.tgz:18681.got - 2010.06.03 18:28:57.
