data_PCOD9505620
_publ_section_title
;
Structure prediction by ZEFSAII (Michael W. Deem and Ramdas Pophale) SiO2 
 PCOD9505620
Probable space group: C C C A
;
_chemical_formula_sum "Si O2"
_cell_formula_units_Z 128
_cell_length_a 19.672778
_cell_length_b 19.649190
_cell_length_c 19.813697
_cell_angle_alpha 90.000000
_cell_angle_beta 90.000000
_cell_angle_gamma 90.000000
_cell_volume 7659.066857
_symmetry_space_group_name_H-M "C C C A"
_symmetry_group_IT_number 68
_space_group.IT_coordinate_system_code '2'
_symmetry_cell_setting 'orthorhombic'
loop_
_space_group_symop_operation_xyz
x,y,z
-x,1/2-y,z
x,1/2-y,1/2-z
-x,y,1/2-z
-x,-y,-z
x,1/2+y,-z
-x,1/2+y,1/2+z
x,-y,1/2+z
1/2+x,1/2+y,z
1/2-x,-y,z
1/2+x,-y,1/2-z
1/2-x,1/2+y,1/2-z
1/2-x,1/2-y,-z
1/2+x,y,-z
1/2-x,y,1/2+z
1/2+x,1/2-y,1/2+z
loop_
_atom_site_type_symbol
_atom_site_label
_atom_site_fract_x
_atom_site_fract_y
_atom_site_fract_z
Si Si1 0.079734 0.179534 0.582732
Si Si2 0.075021 0.662708 0.050364
Si Si3 0.822571 0.318600 0.059700
Si Si4 0.850453 0.430079 0.843942
Si Si5 0.367249 0.826740 0.726567
Si Si6 0.203696 0.177026 0.216355
Si Si7 0.685726 0.581272 0.339298
Si Si8 0.307597 0.339921 0.524374
O O1 0.090067 0.261875 0.581040
O O2 0.092302 0.157223 0.658895
O O3 0.136596 0.151356 0.533226
O O4 0.005802 0.158714 0.556526
O O5 0.114020 0.604273 0.091584
O O6 0.105777 0.665085 0.975358
O O7 0.820137 0.332669 0.139322
O O8 0.807201 0.238305 0.049799
O O9 0.764337 0.353795 0.012988
O O10 0.878120 0.383951 0.782811
O O11 0.768342 0.423453 0.844115
O O12 0.855861 0.511052 0.837015
O O13 0.385278 0.750000 0.750000
O O14 0.286093 0.826244 0.712622
O O15 0.187165 0.250000 0.250000
O O16 0.175673 0.122662 0.270068
O O17 0.671617 0.618085 0.409956
#
# Coordination Sequence:
#
# PCOD9505620 Si02
#       8
#    16  16  16  16  16  16  16  16
#     4  10  20  33  53  83 112 141 183 234 288 336
#     4  10  20  34  52  81 113 144 181 232 289 338
#     4  10  18  30  56  81 110 139 184 241 278 320
#     4  10  20  34  51  76 116 152 178 220 282 345
#     4  10  18  30  53  81 113 143 178 226 282 345
#     4  10  18  30  54  88 110 139 183 237 281 323
#     4  10  20  34  54  78 110 149 185 222 281 339
#     4  10  18  31  54  82 105 142 186 229 279 331
#
# _framework density 16.712218
#
# number of rings (size 3 to 8) (size 9 to 14) (size 15 to 20)
#    0.000    2.000    5.000    0.000    0.000    0.500 
#    0.000    1.875    2.750    2.250    0.000    0.000 
#    0.000    0.000    0.000    0.000    0.000    0.000 
#
# Total GULP energy -356404.120292 kJ/mol
# GULP energy per Si atom -5568.814380 kJ/mol
# Density = 1.667418 g / cm^3
# Si number density = 16.712218 Si / 1000 Ang^3
#
#
#
# Elastic Constant Matrix: (Units=GPa)
#
#
# Indices 1 2 3 4 5 6 
#
# 1 50.4417 30.7458 36.5684 0.0000 0.0000 0.0000
# 2 30.7458 80.8047 46.9396 0.0000 0.0000 0.0000
# 3 36.5684 46.9396 131.6848 0.0000 0.0000 0.0000
# 4 0.0000 0.0000 0.0000 16.8605 0.0000 0.0000
# 5 0.0000 0.0000 0.0000 0.0000 13.1667 0.0000
# 6 0.0000 0.0000 0.0000 0.0000 0.0000 9.9040
#
#
#
# Elastic Compliance Matrix: (Units=1/GPa)
#
#
# Indices 1 2 3 4 5 6 
#
# 1 0.028256 -0.007810 -0.005062 0.000000 0.000000 0.000000
# 2 -0.007810 0.017766 -0.004164 0.000000 0.000000 0.000000
# 3 -0.005062 -0.004164 0.010484 0.000000 0.000000 0.000000
# 4 0.000000 0.000000 0.000000 0.059310 0.000000 0.000000
# 5 0.000000 0.000000 0.000000 0.000000 0.075949 0.000000
# 6 0.000000 0.000000 0.000000 0.000000 0.000000 0.100969
#
#
# Mechanical properties :
#
#
# Convention : Reuss Voigt Hill
#
# Bulk Modulus (GPa) = 44.57858 54.60432 49.59145
# Shear Modulus (GPa) = 14.95729 17.89807 16.42768
#
# Velocity S-wave (km/s) = 2.99489 3.27610 3.13864
# Velocity P-wave (km/s) = 6.22023 6.85964 6.54774
#
# Compressibility (1/GPa) = 0.02243230
#
# Stress axis : x y z
#
# Youngs Moduli (GPa) = 35.39126 56.28689 95.38381
#
# Poissons Ratio (x) = 0.43962 0.48288
# Poissons Ratio (y) = 0.27642 0.39717
# Poissons Ratio (z) = 0.17917 0.23437
#
# Static dielectric constant tensor:
#      x y z
#    x 1.560640 0.000000 0.000000 
#    y 0.000000 1.580970 0.000000 
#    z 0.000000 0.000000 1.558550 
# 
# From -- ./inp_files/39867.got.cif
#   From: 2010.05.17/outbox.cif.g08.bks.cpg/sg68_20_cif.got.tgz:39867.got - 2010.06.03 18:57:09.
