data_PCOD9505835
_publ_section_title
;
Structure prediction by ZEFSAII (Michael W. Deem and Ramdas Pophale) SiO2 
 PCOD9505835
Probable space group: C C C A
;
_chemical_formula_sum "Si O2"
_cell_formula_units_Z 88
_cell_length_a 10.248641
_cell_length_b 12.198261
_cell_length_c 28.935663
_cell_angle_alpha 90.000000
_cell_angle_beta 90.000000
_cell_angle_gamma 90.000000
_cell_volume 3617.409208
_symmetry_space_group_name_H-M "C C C A"
_symmetry_group_IT_number 68
_space_group.IT_coordinate_system_code '2'
_symmetry_cell_setting 'orthorhombic'
loop_
_space_group_symop_operation_xyz
x,y,z
-x,1/2-y,z
x,1/2-y,1/2-z
-x,y,1/2-z
-x,-y,-z
x,1/2+y,-z
-x,1/2+y,1/2+z
x,-y,1/2+z
1/2+x,1/2+y,z
1/2-x,-y,z
1/2+x,-y,1/2-z
1/2-x,1/2+y,1/2-z
1/2-x,1/2-y,-z
1/2+x,y,-z
1/2-x,y,1/2+z
1/2+x,1/2-y,1/2+z
loop_
_atom_site_type_symbol
_atom_site_label
_atom_site_fract_x
_atom_site_fract_y
_atom_site_fract_z
Si Si1 0.250000 0.500000 0.774380
Si Si2 0.123709 0.571554 0.017719
Si Si3 0.871442 0.845709 0.210537
Si Si4 0.091090 0.353320 0.420796
Si Si5 0.351229 0.290245 0.828258
Si Si6 0.899348 0.549871 0.383549
O O1 0.140159 0.451713 0.741334
O O2 0.314140 0.400782 0.801959
O O3 0.250000 0.500000 0.027383
O O4 0.157092 0.631688 0.970181
O O5 0.097630 0.620391 0.068564
O O6 0.000000 0.500000 0.000000
O O7 0.888940 0.750000 0.250000
O O8 0.732660 0.808233 0.191077
O O9 0.942976 0.882529 0.162639
O O10 0.187945 0.317093 0.380704
O O11 0.000000 0.250000 0.428802
O O12 0.000685 0.450844 0.398055
O O13 0.500000 0.250000 0.826122
O O14 0.750000 0.500000 0.375908
#
# Coordination Sequence:
#
# PCOD9505835 Si02
#       6
#     8  16  16  16  16  16
#     4  10  22  36  60  88 134 164 222 302 338 402
#     4   9  20  38  64  98 136 180 224 277 358 431
#     4  10  21  38  59  90 126 169 226 281 352 416
#     4  10  21  37  64 102 125 167 235 279 344 437
#     4  10  22  40  63 100 124 173 233 279 354 437
#     4  10  18  37  63  90 132 175 210 282 353 414
#
# _framework density 24.326802000000001
#
# number of rings (size 3 to 8) (size 9 to 14) (size 15 to 20)
#    0.000    2.182    0.909    2.182    1.273    3.273 
#    0.000   14.545    4.000    3.273   18.909    0.000 
#    0.000    0.000    0.000    0.000    0.000    0.000 
#
# Total GULP energy -244973.998355 kJ/mol
# GULP energy per Si atom -5567.590872 kJ/mol
# Density = 2.427143 g / cm^3
# Si number density = 24.326802 Si / 1000 Ang^3
#
#
#
# Elastic Constant Matrix: (Units=GPa)
#
#
# Indices 1 2 3 4 5 6 
#
# 1 52.6263 7.0787 21.6490 0.0000 0.0000 0.0000
# 2 7.0787 80.3242 53.3406 0.0000 0.0000 0.0000
# 3 21.6490 53.3406 248.8723 0.0000 0.0000 0.0000
# 4 0.0000 0.0000 0.0000 -469.8431 0.0000 0.0000
# 5 0.0000 0.0000 0.0000 0.0000 40.2883 0.0000
# 6 0.0000 0.0000 0.0000 0.0000 0.0000 -46.0956
#
#
#
# Elastic Compliance Matrix: (Units=1/GPa)
#
#
# Indices 1 2 3 4 5 6 
#
# 1 0.019741 -0.000699 -0.001567 0.000000 0.000000 0.000000
# 2 -0.000699 0.014540 -0.003056 0.000000 0.000000 0.000000
# 3 -0.001567 -0.003056 0.004809 0.000000 0.000000 0.000000
# 4 0.000000 0.000000 0.000000 -0.002128 0.000000 0.000000
# 5 0.000000 0.000000 0.000000 0.000000 0.024821 0.000000
# 6 0.000000 0.000000 0.000000 0.000000 0.000000 -0.021694
#
#
# Mechanical properties :
#
#
# Convention : Reuss Voigt Hill
#
# Bulk Modulus (GPa) = 35.15353 60.66216 47.90784
# Shear Modulus (GPa) = 83.03587 -75.14644 3.94471
#
# Velocity S-wave (km/s) = 5.84873 -5.56394 1.27478
# Velocity P-wave (km/s) = 7.75190 4.03561 4.68006
#
# Compressibility (1/GPa) = 0.02844664
#
# Stress axis : x y z
#
# Youngs Moduli (GPa) = 50.65680 68.77454 207.92695
#
# Poissons Ratio (x) = 0.04806 0.32591
# Poissons Ratio (y) = 0.03540 0.63534
# Poissons Ratio (z) = 0.07940 0.21015
#
# Static dielectric constant tensor:
#      x y z
#    x 1.923310 0.000000 0.000000 
#    y 0.000000 2.101860 0.000000 
#    z 0.000000 0.000000 2.081250 
# 
# From -- ./inp_files/54659.got.cif
#   From: 2010.05.17/outbox.cif.g08.bks.cpg/sg68_28_cif.got.tgz:54659.got - 2010.06.03 18:57:09.
