data_PCOD9505563
_publ_section_title
;
Structure prediction by ZEFSAII (Michael W. Deem and Ramdas Pophale) SiO2 
 PCOD9505563
Probable space group: C C C A
;
_chemical_formula_sum "Si O2"
_cell_formula_units_Z 80
_cell_length_a 23.064094
_cell_length_b 11.399020
_cell_length_c 14.648799
_cell_angle_alpha 90.000000
_cell_angle_beta 90.000000
_cell_angle_gamma 90.000000
_cell_volume 3851.287455
_symmetry_space_group_name_H-M "C C C A"
_symmetry_group_IT_number 68
_space_group.IT_coordinate_system_code '2'
_symmetry_cell_setting 'orthorhombic'
loop_
_space_group_symop_operation_xyz
x,y,z
-x,1/2-y,z
x,1/2-y,1/2-z
-x,y,1/2-z
-x,-y,-z
x,1/2+y,-z
-x,1/2+y,1/2+z
x,-y,1/2+z
1/2+x,1/2+y,z
1/2-x,-y,z
1/2+x,-y,1/2-z
1/2-x,1/2+y,1/2-z
1/2-x,1/2-y,-z
1/2+x,y,-z
1/2-x,y,1/2+z
1/2+x,1/2-y,1/2+z
loop_
_atom_site_type_symbol
_atom_site_label
_atom_site_fract_x
_atom_site_fract_y
_atom_site_fract_z
Si Si1 0.626460 0.857361 0.822431
Si Si2 0.137373 0.224687 0.350557
Si Si3 0.566659 0.725714 0.974632
Si Si4 0.733731 0.739971 0.894447
Si Si5 0.135451 0.044806 0.857609
O O1 0.616547 0.750000 0.750000
O O2 0.586350 0.834148 0.908801
O O3 0.690803 0.841886 0.861141
O O4 0.622129 0.961596 0.751392
O O5 0.112393 0.250000 0.250000
O O6 0.102822 0.286194 0.432383
O O7 0.205085 0.255615 0.346803
O O8 0.139163 0.089350 0.383691
O O9 0.500000 0.750000 0.994135
O O10 0.585526 0.613395 0.913430
O O11 0.694599 0.622240 0.874508
O O12 0.750000 0.750000 0.000000
#
# Coordination Sequence:
#
# PCOD9505563 Si02
#       5
#    16  16  16  16  16
#     4   8  17  36  61  86 116 146 206 249 295 361
#     4  12  24  39  60  90 132 163 198 251 311 371
#     4  10  22  42  64  85 118 161 212 258 295 364
#     4  10  17  38  63  92 122 157 204 250 300 377
#     4  10  22  39  63  94 121 159 205 252 315 364
#
# _framework density 20.772273999999999
#
# number of rings (size 3 to 8) (size 9 to 14) (size 15 to 20)
#    0.000    2.400    4.000    2.400    0.000    6.400 
#    0.000    2.000    0.000    0.000    0.000    0.000 
#    0.000    0.000    0.000    0.000    0.000    0.000 
#
# Total GULP energy -222692.256673 kJ/mol
# GULP energy per Si atom -5567.306417 kJ/mol
# Density = 2.072500 g / cm^3
# Si number density = 20.772274 Si / 1000 Ang^3
#
#
#
# Elastic Constant Matrix: (Units=GPa)
#
#
# Indices 1 2 3 4 5 6 
#
# 1 91.2804 29.4164 12.0498 0.0000 0.0000 0.0000
# 2 29.4164 -9.8595 17.1869 0.0000 0.0000 0.0000
# 3 12.0498 17.1869 144.1800 0.0000 0.0000 0.0000
# 4 0.0000 0.0000 0.0000 14.9376 0.0000 0.0000
# 5 0.0000 0.0000 0.0000 0.0000 -1.5319 0.0000
# 6 0.0000 0.0000 0.0000 0.0000 0.0000 -1.5636
#
#
#
# Elastic Compliance Matrix: (Units=1/GPa)
#
#
# Indices 1 2 3 4 5 6 
#
# 1 0.006410 0.015060 -0.002331 0.000000 0.000000 0.000000
# 2 0.015060 -0.048589 0.004533 0.000000 0.000000 0.000000
# 3 -0.002331 0.004533 0.006590 0.000000 0.000000 0.000000
# 4 0.000000 0.000000 0.000000 0.066945 0.000000 0.000000
# 5 0.000000 0.000000 0.000000 0.000000 -0.652780 0.000000
# 6 0.000000 0.000000 0.000000 0.000000 0.000000 -0.639539
#
#
# Mechanical properties :
#
#
# Convention : Reuss Voigt Hill
#
# Bulk Modulus (GPa) = -939.60440 38.10077 -450.75182
# Shear Modulus (GPa) = -3.85849 13.49827 4.81989
#
# Velocity S-wave (km/s) = -1.36439 2.55192 1.52492
# Velocity P-wave (km/s) = 21.34947 5.20241 14.64129
#
# Compressibility (1/GPa) = -0.00106428
#
# Stress axis : x y z
#
# Youngs Moduli (GPa) = 156.01569 -20.58062 151.74102
#
# Poissons Ratio (x) = 0.30995 0.35370
# Poissons Ratio (y) = -2.34962 -0.68791
# Poissons Ratio (z) = 0.36366 0.09330
#
# Static dielectric constant tensor:
#      x y z
#    x 1.732670 0.000000 0.000000 
#    y 0.000000 1.814300 0.000000 
#    z 0.000000 0.000000 1.870150 
# 
# From -- ./inp_files/25159.got.cif
#   From: 2010.05.17/outbox.cif.g08.bks.cpg/sg68_13_cif.got.tgz:25159.got - 2010.06.03 18:57:09.
