data_PCOD9505729
_publ_section_title
;
Structure prediction by ZEFSAII (Michael W. Deem and Ramdas Pophale) SiO2 
 PCOD9505729
Probable space group: C C C A
;
_chemical_formula_sum "Si O2"
_cell_formula_units_Z 112
_cell_length_a 19.925181
_cell_length_b 14.813577
_cell_length_c 19.123247
_cell_angle_alpha 90.000000
_cell_angle_beta 90.000000
_cell_angle_gamma 90.000000
_cell_volume 5644.478836
_symmetry_space_group_name_H-M "C C C A"
_symmetry_group_IT_number 68
_space_group.IT_coordinate_system_code '2'
_symmetry_cell_setting 'orthorhombic'
loop_
_space_group_symop_operation_xyz
x,y,z
-x,1/2-y,z
x,1/2-y,1/2-z
-x,y,1/2-z
-x,-y,-z
x,1/2+y,-z
-x,1/2+y,1/2+z
x,-y,1/2+z
1/2+x,1/2+y,z
1/2-x,-y,z
1/2+x,-y,1/2-z
1/2-x,1/2+y,1/2-z
1/2-x,1/2-y,-z
1/2+x,y,-z
1/2-x,y,1/2+z
1/2+x,1/2-y,1/2+z
loop_
_atom_site_type_symbol
_atom_site_label
_atom_site_fract_x
_atom_site_fract_y
_atom_site_fract_z
Si Si1 0.696302 0.656394 0.283740
Si Si2 0.538259 0.152810 0.682899
Si Si3 0.754820 0.101732 0.357626
Si Si4 0.137310 0.613225 0.964809
Si Si5 0.511247 0.102125 0.526981
Si Si6 0.140982 0.393192 0.952073
Si Si7 0.250485 0.108291 0.431626
O O1 0.716753 0.750000 0.250000
O O2 0.616491 0.657678 0.296685
O O3 0.721375 0.592302 0.221673
O O4 0.734037 0.643000 0.355715
O O5 0.500000 0.250000 0.674629
O O6 0.500000 0.109597 0.750000
O O7 0.534737 0.103844 0.607994
O O8 0.816367 0.147168 0.400452
O O9 0.681170 0.136400 0.381694
O O10 0.750000 0.000000 0.386619
O O11 0.133021 0.503457 0.955138
O O12 0.179091 0.634654 0.034203
O O13 0.061921 0.647725 0.969705
O O14 0.567972 0.141592 0.475312
O O15 0.500000 0.000000 0.500000
O O16 0.192425 0.366341 0.013654
O O17 0.250000 0.000000 0.427872
#
# Coordination Sequence:
#
# PCOD9505729 Si02
#       7
#    16  16  16  16  16  16  16
#     4  12  22  34  52  78 111 151 186 222 284 353
#     4  11  22  37  53  83 127 157 180 231 307 363
#     4   9  18  34  53  79 107 143 185 236 283 330
#     4   8  16  29  54  79 107 131 179 232 280 319
#     4  10  18  33  59  85 113 149 197 240 282 343
#     4   8  15  31  53  79 107 135 176 236 277 323
#     4   9  17  33  53  77 105 143 183 229 278 329
#
# _framework density 19.842397999999999
#
# number of rings (size 3 to 8) (size 9 to 14) (size 15 to 20)
#    0.000    2.429    2.857    3.000    0.000    0.000 
#    0.000    4.286    0.000    0.000    0.000    1.000 
#    0.000    0.000    0.000    0.000    0.000    0.000 
#
# Total GULP energy -311851.192135 kJ/mol
# GULP energy per Si atom -5568.771288 kJ/mol
# Density = 1.979724 g / cm^3
# Si number density = 19.842398 Si / 1000 Ang^3
#
#
#
# Elastic Constant Matrix: (Units=GPa)
#
#
# Indices 1 2 3 4 5 6 
#
# 1 146.2506 5.3778 39.5303 0.0000 0.0000 0.0000
# 2 5.3778 31.2591 9.5258 0.0000 0.0000 0.0000
# 3 39.5303 9.5258 108.6907 0.0000 0.0000 0.0000
# 4 0.0000 0.0000 0.0000 20.4597 0.0000 0.0000
# 5 0.0000 0.0000 0.0000 0.0000 32.1964 0.0000
# 6 0.0000 0.0000 0.0000 0.0000 0.0000 6.5477
#
#
#
# Elastic Compliance Matrix: (Units=1/GPa)
#
#
# Indices 1 2 3 4 5 6 
#
# 1 0.007590 -0.000477 -0.002719 0.000000 0.000000 0.000000
# 2 -0.000477 0.032899 -0.002710 0.000000 0.000000 0.000000
# 3 -0.002719 -0.002710 0.010427 0.000000 0.000000 0.000000
# 4 0.000000 0.000000 0.000000 0.048877 0.000000 0.000000
# 5 0.000000 0.000000 0.000000 0.000000 0.031059 0.000000
# 6 0.000000 0.000000 0.000000 0.000000 0.000000 0.152726
#
#
# Mechanical properties :
#
#
# Convention : Reuss Voigt Hill
#
# Bulk Modulus (GPa) = 25.57285 43.89645 34.73465
# Shear Modulus (GPa) = 16.21151 27.29185 21.75168
#
# Velocity S-wave (km/s) = 2.86145 3.71270 3.31452
# Velocity P-wave (km/s) = 4.88192 6.36785 5.67374
#
# Compressibility (1/GPa) = 0.03910397
#
# Stress axis : x y z
#
# Youngs Moduli (GPa) = 131.75328 30.39649 95.90815
#
# Poissons Ratio (x) = 0.01451 0.26074
# Poissons Ratio (y) = 0.06289 0.25988
# Poissons Ratio (z) = 0.35818 0.08236
#
# Static dielectric constant tensor:
#      x y z
#    x 1.747360 0.000000 0.000000 
#    y 0.000000 1.844340 0.000000 
#    z 0.000000 0.000000 1.822700 
# 
# From -- ./inp_files/33226.got.cif
#   From: 2010.05.17/outbox.cif.g08.bks.cpg/sg68_17_cif.got.tgz:33226.got - 2010.06.03 18:57:09.
