data_PCOD9505627
_publ_section_title
;
Structure prediction by ZEFSAII (Michael W. Deem and Ramdas Pophale) SiO2 
 PCOD9505627
Probable space group: C C C A
;
_chemical_formula_sum "Si O2"
_cell_formula_units_Z 96
_cell_length_a 5.720801
_cell_length_b 26.662938
_cell_length_c 32.494436
_cell_angle_alpha 90.000000
_cell_angle_beta 90.000000
_cell_angle_gamma 90.000000
_cell_volume 4956.485582
_symmetry_space_group_name_H-M "C C C A"
_symmetry_group_IT_number 68
_space_group.IT_coordinate_system_code '2'
_symmetry_cell_setting 'orthorhombic'
loop_
_space_group_symop_operation_xyz
x,y,z
-x,1/2-y,z
x,1/2-y,1/2-z
-x,y,1/2-z
-x,-y,-z
x,1/2+y,-z
-x,1/2+y,1/2+z
x,-y,1/2+z
1/2+x,1/2+y,z
1/2-x,-y,z
1/2+x,-y,1/2-z
1/2-x,1/2+y,1/2-z
1/2-x,1/2-y,-z
1/2+x,y,-z
1/2-x,y,1/2+z
1/2+x,1/2-y,1/2+z
loop_
_atom_site_type_symbol
_atom_site_label
_atom_site_fract_x
_atom_site_fract_y
_atom_site_fract_z
Si Si1 0.197558 0.664053 0.144132
Si Si2 0.435402 0.414269 0.820233
Si Si3 0.676143 0.329208 0.213292
Si Si4 0.453141 0.077236 0.109507
Si Si5 0.034357 0.557274 0.484914
Si Si6 0.250000 0.000000 0.836069
Si Si7 0.500000 0.250000 0.826696
O O1 0.364756 0.625659 0.168568
O O2 0.338069 0.715831 0.143737
O O3 0.975485 0.673772 0.172229
O O4 0.091314 0.630559 0.107546
O O5 0.282613 0.385511 0.785893
O O6 0.276474 0.419259 0.861547
O O7 0.561218 0.466835 0.811305
O O8 0.500000 0.319140 0.250000
O O9 0.868352 0.287620 0.204280
O O10 0.412846 0.058884 0.063603
O O11 0.613957 0.038238 0.134316
O O12 0.271774 0.579025 0.506162
O O13 0.000000 0.500000 0.500000
#
# Coordination Sequence:
#
# PCOD9505627 Si02
#       7
#    16  16  16  16  16   8   8
#     4   9  20  35  54  83 111 153 192 237 299 361
#     4   9  20  33  53  83 109 155 200 242 292 353
#     4  10  21  37  56  87 122 149 186 245 315 365
#     4  10  20  34  54  81 118 153 199 244 300 353
#     4  10  22  33  51  84 124 154 192 247 311 371
#     4  10  18  30  56  80 106 152 208 244 288 348
#     4  10  20  35  56  86 120 146 194 238 306 384
#
# _framework density 19.368563000000002
#
# number of rings (size 3 to 8) (size 9 to 14) (size 15 to 20)
#    0.000    2.333    0.000    2.000    9.333    4.667 
#    0.000    0.000    0.000    0.000  156.000    1.167 
#    0.000    0.000    0.000    0.000    0.000    0.000 
#
# Total GULP energy -267364.012167 kJ/mol
# GULP energy per Si atom -5570.083587 kJ/mol
# Density = 1.932448 g / cm^3
# Si number density = 19.368563 Si / 1000 Ang^3
#
#
#
# Elastic Constant Matrix: (Units=GPa)
#
#
# Indices 1 2 3 4 5 6 
#
# 1 109.2536 46.1992 17.1124 0.0000 0.0000 0.0000
# 2 46.1992 116.2043 35.0670 0.0000 0.0000 0.0000
# 3 17.1124 35.0670 43.6319 0.0000 0.0000 0.0000
# 4 0.0000 0.0000 0.0000 -63.8433 0.0000 0.0000
# 5 0.0000 0.0000 0.0000 0.0000 17.2374 0.0000
# 6 0.0000 0.0000 0.0000 0.0000 0.0000 48.2717
#
#
#
# Elastic Compliance Matrix: (Units=1/GPa)
#
#
# Indices 1 2 3 4 5 6 
#
# 1 0.011040 -0.004069 -0.001059 0.000000 0.000000 0.000000
# 2 -0.004069 0.012861 -0.008740 0.000000 0.000000 0.000000
# 3 -0.001059 -0.008740 0.030359 0.000000 0.000000 0.000000
# 4 0.000000 0.000000 0.000000 -0.015663 0.000000 0.000000
# 5 0.000000 0.000000 0.000000 0.000000 0.058013 0.000000
# 6 0.000000 0.000000 0.000000 0.000000 0.000000 0.020716
#
#
# Mechanical properties :
#
#
# Convention : Reuss Voigt Hill
#
# Bulk Modulus (GPa) = 37.70474 51.76078 44.73276
# Shear Modulus (GPa) = 32.48766 11.71389 22.10078
#
# Velocity S-wave (km/s) = 4.09998 2.46191 3.38163
# Velocity P-wave (km/s) = 6.47475 5.90453 6.19620
#
# Compressibility (1/GPa) = 0.02652186
#
# Stress axis : x y z
#
# Youngs Moduli (GPa) = 90.58202 77.75442 32.93906
#
# Poissons Ratio (x) = 0.31642 0.03489
# Poissons Ratio (y) = 0.36862 0.28790
# Poissons Ratio (z) = 0.09594 0.67960
#
# Static dielectric constant tensor:
#      x y z
#    x 2.319920 0.000000 0.000000 
#    y 0.000000 1.764720 0.000000 
#    z 0.000000 0.000000 1.652290 
# 
# From -- ./inp_files/53473.got.cif
#   From: 2010.05.17/outbox.cif.g08.bks.cpg/sg68_27_cif.got.tgz:53473.got - 2010.06.03 18:57:09.
