data_PCOD9505114
_publ_section_title
;
Structure prediction by ZEFSAII (Michael W. Deem and Ramdas Pophale) SiO2 
 PCOD9505114
Probable space group: C M M A
;
_chemical_formula_sum "Si O2"
_cell_formula_units_Z 128
_cell_length_a 20.815844
_cell_length_b 14.226062
_cell_length_c 20.533931
_cell_angle_alpha 90.000000
_cell_angle_beta 90.000000
_cell_angle_gamma 90.000000
_cell_volume 6080.661392
_symmetry_space_group_name_H-M "C M M A"
_symmetry_group_IT_number 67
_symmetry_cell_setting 'orthorhombic'
loop_
_space_group_symop_operation_xyz
x,y,z
-x,1/2-y,z
x,-y,-z
-x,1/2+y,-z
-x,-y,-z
x,1/2+y,-z
-x,y,z
x,1/2-y,z
1/2+x,1/2+y,z
1/2-x,-y,z
1/2+x,1/2-y,-z
1/2-x,y,-z
1/2-x,1/2-y,-z
1/2+x,y,-z
1/2-x,1/2+y,z
1/2+x,-y,z
loop_
_atom_site_type_symbol
_atom_site_label
_atom_site_fract_x
_atom_site_fract_y
_atom_site_fract_z
Si Si1 0.307575 0.134985 0.801739
Si Si2 0.072619 0.635195 0.036940
Si Si3 0.928047 0.364782 0.113461
Si Si4 0.831007 0.635702 0.148054
Si Si5 0.644017 0.858742 0.618780
Si Si6 0.285922 0.863263 0.345023
Si Si7 0.070557 0.135318 0.739660
Si Si8 0.320897 0.608505 0.484088
O O1 0.308381 0.250000 0.800881
O O2 0.370753 0.103504 0.840113
O O3 0.242220 0.107123 0.839056
O O4 0.305306 0.103020 0.726500
O O5 0.072840 0.750000 0.038164
O O6 0.129408 0.603855 0.084657
O O7 0.000000 0.607261 0.057658
O O8 0.081682 0.606742 0.961874
O O9 0.927131 0.250000 0.113613
O O10 0.000000 0.393241 0.133657
O O11 0.829740 0.750000 0.145137
O O12 0.873727 0.609606 0.210459
O O13 0.649601 0.750000 0.637567
O O14 0.714606 0.900146 0.635312
O O15 0.590722 0.897327 0.667370
O O16 0.632481 0.858307 0.541500
O O17 0.282065 0.750000 0.340397
O O18 0.331439 0.880366 0.407500
O O19 0.067160 0.250000 0.741533
O O20 0.000000 0.100772 0.758045
O O21 0.316981 0.500000 0.500000
O O22 0.250000 0.650172 0.500000
#
# Coordination Sequence:
#
# PCOD9505114 Si02
#       8
#    16  16  16  16  16  16  16  16
#     4   9  15  22  34  51  73 100 133 174 212 246
#     4   8  13  20  29  42  66 102 139 171 203 243
#     4   8  14  23  32  44  66 100 140 175 207 245
#     4   9  14  20  30  48  72  98 133 172 207 244
#     4   9  15  25  40  58  80 105 134 169 206 247
#     4   9  15  25  40  59  81 105 135 174 215 249
#     4   9  15  22  34  53  77 104 133 166 204 247
#     4   9  17  27  41  61  82 105 135 170 206 249
#
# _framework density 21.050341
#
# number of rings (size 3 to 8) (size 9 to 14) (size 15 to 20)
#    0.000    3.250    1.250    1.500    0.000    3.500 
#    0.000    2.500    0.000    1.125    0.000    3.500 
#    0.000    0.000    0.000    1.125    5.500    7.375 
#
# Total GULP energy -356806.630145 kJ/mol
# GULP energy per Si atom -5575.103596 kJ/mol
# Density = 2.100243 g / cm^3
# Si number density = 21.050341 Si / 1000 Ang^3
#
#
#
# Elastic Constant Matrix: (Units=GPa)
#
#
# Indices 1 2 3 4 5 6 
#
# 1 141.3532 6.4990 100.5068 0.0000 0.0000 0.0000
# 2 6.4990 55.4470 7.2799 0.0000 0.0000 0.0000
# 3 100.5068 7.2799 159.5285 0.0000 0.0000 0.0000
# 4 0.0000 0.0000 0.0000 8.2852 0.0000 0.0000
# 5 0.0000 0.0000 0.0000 0.0000 11.4587 0.0000
# 6 0.0000 0.0000 0.0000 0.0000 0.0000 3.8095
#
#
#
# Elastic Compliance Matrix: (Units=1/GPa)
#
#
# Indices 1 2 3 4 5 6 
#
# 1 0.012826 -0.000445 -0.008061 0.000000 0.000000 0.000000
# 2 -0.000445 0.018159 -0.000548 0.000000 0.000000 0.000000
# 3 -0.008061 -0.000548 0.011372 0.000000 0.000000 0.000000
# 4 0.000000 0.000000 0.000000 0.120697 0.000000 0.000000
# 5 0.000000 0.000000 0.000000 0.000000 0.087270 0.000000
# 6 0.000000 0.000000 0.000000 0.000000 0.000000 0.262499
#
#
# Mechanical properties :
#
#
# Convention : Reuss Voigt Hill
#
# Bulk Modulus (GPa) = 41.23764 64.98892 53.11328
# Shear Modulus (GPa) = 9.27618 20.84689 15.06153
#
# Velocity S-wave (km/s) = 2.10148 3.15037 2.67779
# Velocity P-wave (km/s) = 5.05182 6.64630 5.90314
#
# Compressibility (1/GPa) = 0.02424969
#
# Stress axis : x y z
#
# Youngs Moduli (GPa) = 77.96515 55.06791 87.93665
#
# Poissons Ratio (x) = 0.02451 0.70882
# Poissons Ratio (y) = 0.03470 0.04821
# Poissons Ratio (z) = 0.62844 0.03019
#
# Static dielectric constant tensor:
#      x y z
#    x 1.728310 0.000000 0.000000 
#    y 0.000000 1.860210 0.000000 
#    z 0.000000 0.000000 1.777790 
# 
# From -- ./inp_files/35225.got.cif
#   From: 2010.05.17/outbox.cif.g08.bks.cpg/sg67_18_cif.got.tgz:35225.got - 2010.06.03 18:28:57.
