data_PCOD9505459
_publ_section_title
;
Structure prediction by ZEFSAII (Michael W. Deem and Ramdas Pophale) SiO2 
 PCOD9505459
Probable space group: C C C A
;
_chemical_formula_sum "Si O2"
_cell_formula_units_Z 80
_cell_length_a 18.734663
_cell_length_b 34.069918
_cell_length_c 5.561589
_cell_angle_alpha 90.000000
_cell_angle_beta 90.000000
_cell_angle_gamma 90.000000
_cell_volume 3549.897923
_symmetry_space_group_name_H-M "C C C A"
_symmetry_group_IT_number 68
_space_group.IT_coordinate_system_code '2'
_symmetry_cell_setting 'orthorhombic'
loop_
_space_group_symop_operation_xyz
x,y,z
-x,1/2-y,z
x,1/2-y,1/2-z
-x,y,1/2-z
-x,-y,-z
x,1/2+y,-z
-x,1/2+y,1/2+z
x,-y,1/2+z
1/2+x,1/2+y,z
1/2-x,-y,z
1/2+x,-y,1/2-z
1/2-x,1/2+y,1/2-z
1/2-x,1/2-y,-z
1/2+x,y,-z
1/2-x,y,1/2+z
1/2+x,1/2-y,1/2+z
loop_
_atom_site_type_symbol
_atom_site_label
_atom_site_fract_x
_atom_site_fract_y
_atom_site_fract_z
Si Si1 0.108876 0.366837 0.847279
Si Si2 0.418687 0.985856 0.037934
Si Si3 0.291607 0.203574 0.237353
Si Si4 0.598559 0.395286 0.647166
Si Si5 0.745152 0.424630 0.162124
O O1 0.141057 0.323663 0.818749
O O2 0.070916 0.375875 0.596435
O O3 0.174629 0.398289 0.840423
O O4 0.074843 0.375708 0.105036
O O5 0.387539 0.990303 0.766971
O O6 0.418708 0.941204 0.125875
O O7 0.500000 0.000000 0.000000
O O8 0.307208 0.250000 0.250000
O O9 0.259079 0.195195 0.503767
O O10 0.685913 0.395528 0.654689
O O11 0.751583 0.447170 0.411821
#
# Coordination Sequence:
#
# PCOD9505459 Si02
#       5
#    16  16  16  16  16
#     4  10  17  28  45  67  95 129 170 203 227 275
#     4  10  21  37  54  71  92 118 148 197 264 318
#     4  10  18  27  41  65  99 139 178 211 241 270
#     4  10  18  29  49  68  87 122 163 198 244 294
#     4   8  14  23  39  59  83 112 150 189 217 252
#
# _framework density 22.535858999999999
#
# number of rings (size 3 to 8) (size 9 to 14) (size 15 to 20)
#    0.000    2.400    0.000    6.000    0.000    0.000 
#    0.000    0.000    0.000   32.400    0.000    0.000 
#    0.000    0.000    0.000   54.000    0.000    4.000 
#
# Total GULP energy -223129.629495 kJ/mol
# GULP energy per Si atom -5578.240737 kJ/mol
# Density = 2.248457 g / cm^3
# Si number density = 22.535859 Si / 1000 Ang^3
#
#
#
# Elastic Constant Matrix: (Units=GPa)
#
#
# Indices 1 2 3 4 5 6 
#
# 1 54.1645 13.3188 31.9611 0.0000 0.0000 0.0000
# 2 13.3188 109.0286 57.2599 0.0000 0.0000 0.0000
# 3 31.9611 57.2599 306.5427 0.0000 0.0000 0.0000
# 4 0.0000 0.0000 0.0000 23.2434 0.0000 0.0000
# 5 0.0000 0.0000 0.0000 0.0000 25.9661 0.0000
# 6 0.0000 0.0000 0.0000 0.0000 0.0000 -77.3062
#
#
#
# Elastic Compliance Matrix: (Units=1/GPa)
#
#
# Indices 1 2 3 4 5 6 
#
# 1 0.019887 -0.001486 -0.001796 0.000000 0.000000 0.000000
# 2 -0.001486 0.010281 -0.001765 0.000000 0.000000 0.000000
# 3 -0.001796 -0.001765 0.003779 0.000000 0.000000 0.000000
# 4 0.000000 0.000000 0.000000 0.043023 0.000000 0.000000
# 5 0.000000 0.000000 0.000000 0.000000 0.038512 0.000000
# 6 0.000000 0.000000 0.000000 0.000000 0.000000 -0.012936
#
#
# Mechanical properties :
#
#
# Convention : Reuss Voigt Hill
#
# Bulk Modulus (GPa) = 41.92488 74.97951 58.45220
# Shear Modulus (GPa) = 41.46205 18.86040 30.16123
#
# Velocity S-wave (km/s) = 4.29397 2.89607 3.66234
# Velocity P-wave (km/s) = 6.57482 6.67281 6.62400
#
# Compressibility (1/GPa) = 0.02385218
#
# Stress axis : x y z
#
# Youngs Moduli (GPa) = 50.28296 97.27050 264.60658
#
# Poissons Ratio (x) = 0.14457 0.47521
# Poissons Ratio (y) = 0.07473 0.46713
# Poissons Ratio (z) = 0.09030 0.17172
#
# Static dielectric constant tensor:
#      x y z
#    x 1.908530 0.000000 0.000000 
#    y 0.000000 1.765130 0.000000 
#    z 0.000000 0.000000 1.922240 
# 
# From -- ./inp_files/2009.got.cif
#   From: 2010.05.17/outbox.cif.g08.bks.cpg/sg68_2_cif.got.tgz:2009.got - 2010.06.03 18:57:09.
