data_PCOD9505093
_publ_section_title
;
Structure prediction by ZEFSAII (Michael W. Deem and Ramdas Pophale) SiO2 
 PCOD9505093
Probable space group: C M M A
;
_chemical_formula_sum "Si O2"
_cell_formula_units_Z 68
_cell_length_a 21.392265
_cell_length_b 14.886143
_cell_length_c 10.857743
_cell_angle_alpha 90.000000
_cell_angle_beta 90.000000
_cell_angle_gamma 90.000000
_cell_volume 3457.629973
_symmetry_space_group_name_H-M "C M M A"
_symmetry_group_IT_number 67
_symmetry_cell_setting 'orthorhombic'
loop_
_space_group_symop_operation_xyz
x,y,z
-x,1/2-y,z
x,-y,-z
-x,1/2+y,-z
-x,-y,-z
x,1/2+y,-z
-x,y,z
x,1/2-y,z
1/2+x,1/2+y,z
1/2-x,-y,z
1/2+x,1/2-y,-z
1/2-x,y,-z
1/2-x,1/2-y,-z
1/2+x,y,-z
1/2-x,1/2+y,z
1/2+x,-y,z
loop_
_atom_site_type_symbol
_atom_site_label
_atom_site_fract_x
_atom_site_fract_y
_atom_site_fract_z
Si Si1 0.750000 0.500000 0.500000
Si Si2 0.863128 0.400466 0.164166
Si Si3 0.759696 0.649566 0.313276
Si Si4 0.363374 0.883612 0.881437
Si Si5 0.000000 0.611862 0.131876
Si Si6 0.000000 0.094244 0.166574
O O1 0.781861 0.571843 0.407730
O O2 0.808182 0.375964 0.257511
O O3 0.864491 0.508112 0.140129
O O4 0.932438 0.370718 0.208143
O O5 0.853029 0.363415 0.025722
O O6 0.757447 0.750000 0.365037
O O7 0.807387 0.650192 0.200383
O O8 0.431885 0.849392 0.840765
O O9 0.000000 0.512394 0.189444
O O10 0.000000 0.603548 0.982482
#
# Coordination Sequence:
#
# PCOD9505093 Si02
#       6
#     4  16  16  16   8   8
#     4  12  26  48  58  72 104 148 194 248 284 322
#     4   9  16  31  56  88 121 150 177 217 273 333
#     4  12  24  38  60  83 107 144 190 236 279 329
#     4   9  16  31  56  88 121 150 177 217 273 333
#     4   7  12  24  49  83 118 152 180 204 257 336
#     4   7  12  24  49  83 118 152 180 204 257 336
#
# _framework density 19.666650000000001
#
# number of rings (size 3 to 8) (size 9 to 14) (size 15 to 20)
#    0.000    2.588    2.353    3.882    0.000    3.765 
#    0.000    1.176    0.000    7.059    0.000    3.294 
#    0.000    0.000    0.000    0.000    0.000    0.000 
#
# Total GULP energy -189299.288756 kJ/mol
# GULP energy per Si atom -5567.626140 kJ/mol
# Density = 1.962189 g / cm^3
# Si number density = 19.666650 Si / 1000 Ang^3
#
#
#
# Elastic Constant Matrix: (Units=GPa)
#
#
# Indices 1 2 3 4 5 6 
#
# 1 143.9492 20.8174 36.9809 0.0000 0.0000 0.0000
# 2 20.8174 111.8004 25.0637 0.0000 0.0000 0.0000
# 3 36.9809 25.0637 54.4004 0.0000 0.0000 0.0000
# 4 0.0000 0.0000 0.0000 -19.3499 0.0000 0.0000
# 5 0.0000 0.0000 0.0000 0.0000 -3.4101 0.0000
# 6 0.0000 0.0000 0.0000 0.0000 0.0000 -392.6344
#
#
#
# Elastic Compliance Matrix: (Units=1/GPa)
#
#
# Indices 1 2 3 4 5 6 
#
# 1 0.008427 -0.000318 -0.005582 0.000000 0.000000 0.000000
# 2 -0.000318 0.009987 -0.004385 0.000000 0.000000 0.000000
# 3 -0.005582 -0.004385 0.024197 0.000000 0.000000 0.000000
# 4 0.000000 0.000000 0.000000 -0.051680 0.000000 0.000000
# 5 0.000000 0.000000 0.000000 0.000000 -0.293250 0.000000
# 6 0.000000 0.000000 0.000000 0.000000 0.000000 -0.002547
#
#
# Mechanical properties :
#
#
# Convention : Reuss Voigt Hill
#
# Bulk Modulus (GPa) = 45.37028 52.87489 49.12258
# Shear Modulus (GPa) = -18.05391 -67.92634 -42.99013
#
# Velocity S-wave (km/s) = -3.03313 -5.88335 -4.68048
# Velocity P-wave (km/s) = 3.29442 4.38268 2.04385
#
# Compressibility (1/GPa) = 0.02204086
#
# Stress axis : x y z
#
# Youngs Moduli (GPa) = 118.66747 100.13266 41.32686
#
# Poissons Ratio (x) = 0.03181 0.23069
# Poissons Ratio (y) = 0.03770 0.18123
# Poissons Ratio (z) = 0.66242 0.43910
#
# Static dielectric constant tensor:
#      x y z
#    x 1.716860 0.000000 0.000000 
#    y 0.000000 1.773980 0.000000 
#    z 0.000000 0.000000 1.661580 
# 
# From -- ./inp_files/20455.got.cif
#   From: 2010.05.17/outbox.cif.g08.bks.cpg/sg67_11_cif.got.tgz:20455.got - 2010.06.03 18:28:57.
