data_PCOD9505191
_publ_section_title
;
Structure prediction by ZEFSAII (Michael W. Deem and Ramdas Pophale) SiO2 
 PCOD9505191
Probable space group: C M M A
;
_chemical_formula_sum "Si O2"
_cell_formula_units_Z 48
_cell_length_a 27.000000
_cell_length_b 9.000000
_cell_length_c 21.000000
_cell_angle_alpha 90.000000
_cell_angle_beta 90.000000
_cell_angle_gamma 90.000000
_cell_volume 5103.000000
_symmetry_space_group_name_H-M "C M M A"
_symmetry_group_IT_number 67
_symmetry_cell_setting 'orthorhombic'
loop_
_space_group_symop_operation_xyz
x,y,z
-x,1/2-y,z
x,-y,-z
-x,1/2+y,-z
-x,-y,-z
x,1/2+y,-z
-x,y,z
x,1/2-y,z
1/2+x,1/2+y,z
1/2-x,-y,z
1/2+x,1/2-y,-z
1/2-x,y,-z
1/2-x,1/2-y,-z
1/2+x,y,-z
1/2-x,1/2+y,z
1/2+x,-y,z
loop_
_atom_site_type_symbol
_atom_site_label
_atom_site_fract_x
_atom_site_fract_y
_atom_site_fract_z
Si Si1 0.941624 0.575427 0.396621
Si Si2 0.445930 0.430191 0.248322
Si Si3 0.196046 0.074181 0.061962
Si Si4 0.301693 0.077772 0.314744
Si Si5 0.848491 0.576086 0.562903
Si Si6 0.145591 0.076462 0.821998
O O1 0.927905 0.750000 0.406756
O O2 0.933283 0.539913 0.321788
O O3 0.906591 0.465414 0.434231
O O4 0.000000 0.560915 0.409543
O O5 0.500000 0.490203 0.236981
O O6 0.446396 0.250000 0.245765
O O7 0.409115 0.477990 0.194045
O O8 0.199937 0.250000 0.054479
O O9 0.250000 0.000000 0.066025
O O10 0.169920 0.027215 0.126487
O O11 0.171296 0.000000 0.000000
O O12 0.296382 0.250000 0.332094
O O13 0.329839 0.071040 0.247735
O O14 0.250000 0.000000 0.303672
O O15 0.327005 0.994955 0.373247
O O16 0.826846 0.500000 0.500000
O O17 0.840494 0.750000 0.561234
O O18 0.147276 0.250000 0.842713
#
# Coordination Sequence:
#
# PCOD9505191 Si02
#       6
#    16  16  16  16  16  16
#     4   9  17  34  59  84 111 144 183 228 281 338
#     4   8  14  28  54  85 114 146 182 221 270 326
#     4  11  22  37  57  83 117 153 191 231 277 330
#     4  11  23  40  60  84 112 144 185 232 282 336
#     4  12  25  40  58  79 109 146 188 234 286 341
#     4  10  19  34  59  88 118 149 184 227 274 326
#
# _framework density 9.4062319999999993
#
# number of rings (size 3 to 8) (size 9 to 14) (size 15 to 20)
#    0.000    1.833    1.667    5.500    0.000    3.667 
#    0.000    1.667    0.000    1.000    0.000    0.000 
#    0.000    0.000    0.000    0.000    0.000    0.000 
#
# Total GULP energy -267649.152373 kJ/mol
# GULP energy per Si atom -5576.024008 kJ/mol
# Density = 0.938482 g / cm^3
# Si number density = 9.406232 Si / 1000 Ang^3
#
#
#
# Elastic Constant Matrix: (Units=GPa)
#
#
# Indices 1 2 3 4 5 6 
#
# 1 26.8320 15.1944 15.1700 0.0000 0.0000 0.0000
# 2 15.1944 121.0666 47.4340 0.0000 0.0000 0.0000
# 3 15.1700 47.4340 71.8405 0.0000 0.0000 0.0000
# 4 0.0000 0.0000 0.0000 15.9618 0.0000 0.0000
# 5 0.0000 0.0000 0.0000 0.0000 7.9414 0.0000
# 6 0.0000 0.0000 0.0000 0.0000 0.0000 -37.7211
#
#
#
# Elastic Compliance Matrix: (Units=1/GPa)
#
#
# Indices 1 2 3 4 5 6 
#
# 1 0.042863 -0.002473 -0.007418 0.000000 0.000000 0.000000
# 2 -0.002473 0.011285 -0.006929 0.000000 0.000000 0.000000
# 3 -0.007418 -0.006929 0.020061 0.000000 0.000000 0.000000
# 4 0.000000 0.000000 0.000000 0.062649 0.000000 0.000000
# 5 0.000000 0.000000 0.000000 0.000000 0.125923 0.000000
# 6 0.000000 0.000000 0.000000 0.000000 0.000000 -0.026510
#
#
# Mechanical properties :
#
#
# Convention : Reuss Voigt Hill
#
# Bulk Modulus (GPa) = 24.64932 41.70400 33.17666
# Shear Modulus (GPa) = 17.64074 6.69914 12.16994
#
# Velocity S-wave (km/s) = 3.06554 1.88911 2.54620
# Velocity P-wave (km/s) = 5.06568 5.19372 5.13010
#
# Compressibility (1/GPa) = 0.04056907
#
# Stress axis : x y z
#
# Youngs Moduli (GPa) = 23.32993 88.61261 49.84763
#
# Poissons Ratio (x) = 0.21915 0.36978
# Poissons Ratio (y) = 0.05770 0.34539
# Poissons Ratio (z) = 0.17307 0.61399
#
# Static dielectric constant tensor:
#      x y z
#    x 1.728900 0.000000 0.000000 
#    y 0.000000 1.615780 0.000000 
#    z 0.000000 0.000000 1.693050 
# 
# From -- ./inp_files/37199.got.cif
#   From: 2010.05.17/outbox.ucp.g08.bks.cvg/sg67_19_cif.got.tgz:37199.got - 2010.06.11 16:47:20.
