data_PCOD9505686
_publ_section_title
;
Structure prediction by ZEFSAII (Michael W. Deem and Ramdas Pophale) SiO2 
 PCOD9505686
Probable space group: C C C A
;
_chemical_formula_sum "Si O2"
_cell_formula_units_Z 72
_cell_length_a 24.138881
_cell_length_b 22.272922
_cell_length_c 5.633596
_cell_angle_alpha 90.000000
_cell_angle_beta 90.000000
_cell_angle_gamma 90.000000
_cell_volume 3028.865785
_symmetry_space_group_name_H-M "C C C A"
_symmetry_group_IT_number 68
_space_group.IT_coordinate_system_code '2'
_symmetry_cell_setting 'orthorhombic'
loop_
_space_group_symop_operation_xyz
x,y,z
-x,1/2-y,z
x,1/2-y,1/2-z
-x,y,1/2-z
-x,-y,-z
x,1/2+y,-z
-x,1/2+y,1/2+z
x,-y,1/2+z
1/2+x,1/2+y,z
1/2-x,-y,z
1/2+x,-y,1/2-z
1/2-x,1/2+y,1/2-z
1/2-x,1/2-y,-z
1/2+x,y,-z
1/2-x,y,1/2+z
1/2+x,1/2-y,1/2+z
loop_
_atom_site_type_symbol
_atom_site_label
_atom_site_fract_x
_atom_site_fract_y
_atom_site_fract_z
Si Si1 0.000000 0.647394 0.750000
Si Si2 0.109518 0.855305 0.534389
Si Si3 0.228289 0.817748 0.483799
Si Si4 0.054075 0.937927 0.138632
Si Si5 0.342064 0.520229 0.367398
O O1 0.055510 0.677342 0.856129
O O2 0.027977 0.603527 0.560757
O O3 0.161812 0.814748 0.476496
O O4 0.084450 0.890934 0.311989
O O5 0.140028 0.910603 0.674777
O O6 0.250000 0.750000 0.500000
O O7 0.249992 0.845674 0.234570
O O8 0.000000 0.968737 0.250000
O O9 0.099870 0.986199 0.079342
O O10 0.315277 0.509248 0.630424
#
# Coordination Sequence:
#
# PCOD9505686 Si02
#       5
#     8  16  16  16  16
#     4  10  18  32  54  97 134 172 202 253 310 388
#     4  10  21  34  60  92 131 162 216 260 317 376
#     4  10  24  46  73  95 109 156 223 283 322 375
#     4   9  19  30  49  87 136 178 206 237 298 381
#     4  10  19  30  48  81 130 173 204 240 289 374
#
# _framework density 23.771276
#
# number of rings (size 3 to 8) (size 9 to 14) (size 15 to 20)
#    0.000    2.222    2.222    0.000    4.667    2.667 
#    0.000    0.000    0.000   18.667    0.000    0.000 
#    0.000    0.000    0.000    0.000    0.000    0.000 
#
# Total GULP energy -200615.474186 kJ/mol
# GULP energy per Si atom -5572.652061 kJ/mol
# Density = 2.371717 g / cm^3
# Si number density = 23.771276 Si / 1000 Ang^3
#
#
#
# Elastic Constant Matrix: (Units=GPa)
#
#
# Indices 1 2 3 4 5 6 
#
# 1 196.0470 36.4142 37.8860 0.0000 0.0000 0.0000
# 2 36.4142 42.1301 -3.8753 0.0000 0.0000 0.0000
# 3 37.8860 -3.8753 140.4663 0.0000 0.0000 0.0000
# 4 0.0000 0.0000 0.0000 3.2259 0.0000 0.0000
# 5 0.0000 0.0000 0.0000 0.0000 7.9198 0.0000
# 6 0.0000 0.0000 0.0000 0.0000 0.0000 145.8612
#
#
#
# Elastic Compliance Matrix: (Units=1/GPa)
#
#
# Indices 1 2 3 4 5 6 
#
# 1 0.006560 -0.005848 -0.001931 0.000000 0.000000 0.000000
# 2 -0.005848 0.029009 0.002378 0.000000 0.000000 0.000000
# 3 -0.001931 0.002378 0.007705 0.000000 0.000000 0.000000
# 4 0.000000 0.000000 0.000000 0.309991 0.000000 0.000000
# 5 0.000000 0.000000 0.000000 0.000000 0.126265 0.000000
# 6 0.000000 0.000000 0.000000 0.000000 0.000000 0.006856
#
#
# Mechanical properties :
#
#
# Convention : Reuss Voigt Hill
#
# Bulk Modulus (GPa) = 30.79491 57.72147 44.25819
# Shear Modulus (GPa) = 9.84227 51.94929 30.89578
#
# Velocity S-wave (km/s) = 2.03701 4.67988 3.60906
# Velocity P-wave (km/s) = 4.30294 7.31686 6.00215
#
# Compressibility (1/GPa) = 0.03247290
#
# Stress axis : x y z
#
# Youngs Moduli (GPa) = 152.43720 34.47210 129.77789
#
# Poissons Ratio (x) = 0.20158 0.25056
# Poissons Ratio (y) = 0.89140 -0.30855
# Poissons Ratio (z) = 0.29431 -0.08196
#
# Static dielectric constant tensor:
#      x y z
#    x 1.592900 0.000000 0.000000 
#    y 0.000000 1.900820 0.000000 
#    z 0.000000 0.000000 2.139720 
# 
# From -- ./inp_files/1915.got.cif
#   From: 2010.05.17/outbox.cif.g08.bks.cpg/sg68_1_cif.got.tgz:1915.got - 2010.06.03 18:57:09.
