data_PCOD9505374
_publ_section_title
;
Structure prediction by ZEFSAII (Michael W. Deem and Ramdas Pophale) SiO2 
 PCOD9505374
Probable space group: C C C A
;
_chemical_formula_sum "Si O2"
_cell_formula_units_Z 76
_cell_length_a 26.490179
_cell_length_b 7.266825
_cell_length_c 18.224011
_cell_angle_alpha 90.000000
_cell_angle_beta 90.000000
_cell_angle_gamma 90.000000
_cell_volume 3508.112915
_symmetry_space_group_name_H-M "C C C A"
_symmetry_group_IT_number 68
_space_group.IT_coordinate_system_code '2'
_symmetry_cell_setting 'orthorhombic'
loop_
_space_group_symop_operation_xyz
x,y,z
-x,1/2-y,z
x,1/2-y,1/2-z
-x,y,1/2-z
-x,-y,-z
x,1/2+y,-z
-x,1/2+y,1/2+z
x,-y,1/2+z
1/2+x,1/2+y,z
1/2-x,-y,z
1/2+x,-y,1/2-z
1/2-x,1/2+y,1/2-z
1/2-x,1/2-y,-z
1/2+x,y,-z
1/2-x,y,1/2+z
1/2+x,1/2-y,1/2+z
loop_
_atom_site_type_symbol
_atom_site_label
_atom_site_fract_x
_atom_site_fract_y
_atom_site_fract_z
Si Si1 0.291883 0.133387 0.541421
Si Si2 0.422228 0.457025 0.220469
Si Si3 0.250000 0.000000 0.785232
Si Si4 0.500000 0.750000 0.250000
Si Si5 0.661353 0.437788 0.669733
Si Si6 0.334553 0.842918 0.888090
O O1 0.250000 0.250000 0.500000
O O2 0.326939 0.088246 0.471273
O O3 0.250000 0.000000 0.577990
O O4 0.324559 0.211973 0.608421
O O5 0.436437 0.250000 0.250000
O O6 0.466385 0.602265 0.204378
O O7 0.389877 0.554767 0.285292
O O8 0.382671 0.424468 0.154694
O O9 0.294238 0.062790 0.729657
O O10 0.283755 0.876900 0.839982
O O11 0.658709 0.621787 0.618987
#
# Coordination Sequence:
#
# PCOD9505374 Si02
#       6
#    16  16   8   4  16  16
#     4  12  21  32  52  83 125 173 205 232 275 357
#     4   9  22  41  66  89 121 153 196 269 320 365
#     4  10  16  30  52  76 122 158 206 232 276 356
#     4  12  22  44  68 102 104 144 218 266 332 380
#     4  10  20  37  51  83 122 165 198 243 299 360
#     4  10  20  35  52  85 123 168 199 239 302 354
#
# _framework density 21.664068
#
# number of rings (size 3 to 8) (size 9 to 14) (size 15 to 20)
#    0.000    1.684    4.211    2.211    0.000    1.684 
#   15.158    0.000    0.000    1.263    0.000    0.000 
#    0.000    0.000    0.000    0.000    0.000    0.000 
#
# Total GULP energy -211565.083471 kJ/mol
# GULP energy per Si atom -5567.502197 kJ/mol
# Density = 2.161476 g / cm^3
# Si number density = 21.664068 Si / 1000 Ang^3
#
#
#
# Elastic Constant Matrix: (Units=GPa)
#
#
# Indices 1 2 3 4 5 6 
#
# 1 88.8881 38.5959 20.9612 0.0000 0.0000 0.0000
# 2 38.5959 79.0997 16.1833 0.0000 0.0000 0.0000
# 3 20.9612 16.1833 137.0603 0.0000 0.0000 0.0000
# 4 0.0000 0.0000 0.0000 15.2065 0.0000 0.0000
# 5 0.0000 0.0000 0.0000 0.0000 14.2490 0.0000
# 6 0.0000 0.0000 0.0000 0.0000 0.0000 46.8930
#
#
#
# Elastic Compliance Matrix: (Units=1/GPa)
#
#
# Indices 1 2 3 4 5 6 
#
# 1 0.014539 -0.006804 -0.001420 0.000000 0.000000 0.000000
# 2 -0.006804 0.016139 -0.000865 0.000000 0.000000 0.000000
# 3 -0.001420 -0.000865 0.007615 0.000000 0.000000 0.000000
# 4 0.000000 0.000000 0.000000 0.065761 0.000000 0.000000
# 5 0.000000 0.000000 0.000000 0.000000 0.070180 0.000000
# 6 0.000000 0.000000 0.000000 0.000000 0.000000 0.021325
#
#
# Mechanical properties :
#
#
# Convention : Reuss Voigt Hill
#
# Bulk Modulus (GPa) = 49.71240 50.72542 50.21891
# Shear Modulus (GPa) = 22.68152 30.55688 26.61920
#
# Velocity S-wave (km/s) = 3.23919 3.75972 3.50912
# Velocity P-wave (km/s) = 6.08166 6.50482 6.29680
#
# Compressibility (1/GPa) = 0.02011570
#
# Stress axis : x y z
#
# Youngs Moduli (GPa) = 68.77945 61.96152 131.31290
#
# Poissons Ratio (x) = 0.42157 0.18649
# Poissons Ratio (y) = 0.46795 0.11360
# Poissons Ratio (z) = 0.09768 0.05360
#
# Static dielectric constant tensor:
#      x y z
#    x 1.808380 0.000000 0.000000 
#    y 0.000000 2.297920 0.000000 
#    z 0.000000 0.000000 1.891350 
# 
# From -- ./inp_files/34330.got.cif
#   From: 2010.05.17/outbox.cif.g08.bks.cpg/sg68_18_cif.got.tgz:34330.got - 2010.06.03 18:57:09.
