data_PCOD9505639
_publ_section_title
;
Structure prediction by ZEFSAII (Michael W. Deem and Ramdas Pophale) SiO2 
 PCOD9505639
Probable space group: C C C A
;
_chemical_formula_sum "Si O2"
_cell_formula_units_Z 56
_cell_length_a 33.179895
_cell_length_b 5.000923
_cell_length_c 13.751351
_cell_angle_alpha 90.000000
_cell_angle_beta 90.000000
_cell_angle_gamma 90.000000
_cell_volume 2281.763047
_symmetry_space_group_name_H-M "C C C A"
_symmetry_group_IT_number 68
_space_group.IT_coordinate_system_code '2'
_symmetry_cell_setting 'orthorhombic'
loop_
_space_group_symop_operation_xyz
x,y,z
-x,1/2-y,z
x,1/2-y,1/2-z
-x,y,1/2-z
-x,-y,-z
x,1/2+y,-z
-x,1/2+y,1/2+z
x,-y,1/2+z
1/2+x,1/2+y,z
1/2-x,-y,z
1/2+x,-y,1/2-z
1/2-x,1/2+y,1/2-z
1/2-x,1/2-y,-z
1/2+x,y,-z
1/2-x,y,1/2+z
1/2+x,1/2-y,1/2+z
loop_
_atom_site_type_symbol
_atom_site_label
_atom_site_fract_x
_atom_site_fract_y
_atom_site_fract_z
Si Si1 0.000000 0.750000 0.573245
Si Si2 0.714565 0.790738 0.633001
Si Si3 0.169572 0.224627 0.134634
Si Si4 0.918211 0.911602 0.934529
O O1 0.042608 0.807011 0.625393
O O2 0.000000 0.500000 0.500000
O O3 0.718743 0.750000 0.750000
O O4 0.703391 0.490575 0.599661
O O5 0.750000 0.000000 0.605963
O O6 0.676202 0.970579 0.602450
O O7 0.175534 0.250000 0.250000
O O8 0.124725 0.131277 0.114411
O O9 0.919906 0.716240 0.029058
#
# Coordination Sequence:
#
# PCOD9505639 Si02
#       4
#     8  16  16  16
#     4   8  16  30  51  74  95 130 176 208 234 298
#     4  10  18  31  51  74 100 132 172 213 250 297
#     4  10  20  32  51  78 104 129 167 217 259 297
#     4  10  19  34  54  75 102 136 172 207 252 308
#
# _framework density 24.542425000000001
#
# number of rings (size 3 to 8) (size 9 to 14) (size 15 to 20)
#    0.000    2.286    0.000    5.143    0.000    0.000 
#    0.000    0.714    0.000   17.143    0.000   18.000 
#    0.000    0.000    0.000    0.000    0.000    0.000 
#
# Total GULP energy -156033.470330 kJ/mol
# GULP energy per Si atom -5572.623940 kJ/mol
# Density = 2.448656 g / cm^3
# Si number density = 24.542425 Si / 1000 Ang^3
#
#
#
# Elastic Constant Matrix: (Units=GPa)
#
#
# Indices 1 2 3 4 5 6 
#
# 1 166.3123 43.9008 7.2762 0.0000 0.0000 0.0000
# 2 43.9008 176.3065 -0.8831 0.0000 0.0000 0.0000
# 3 7.2762 -0.8831 69.8951 0.0000 0.0000 0.0000
# 4 0.0000 0.0000 0.0000 1.0640 0.0000 0.0000
# 5 0.0000 0.0000 0.0000 0.0000 -85.0517 0.0000
# 6 0.0000 0.0000 0.0000 0.0000 0.0000 46.5446
#
#
#
# Elastic Compliance Matrix: (Units=1/GPa)
#
#
# Indices 1 2 3 4 5 6 
#
# 1 0.006469 -0.001614 -0.000694 0.000000 0.000000 0.000000
# 2 -0.001614 0.006075 0.000245 0.000000 0.000000 0.000000
# 3 -0.000694 0.000245 0.014382 0.000000 0.000000 0.000000
# 4 0.000000 0.000000 0.000000 0.939849 0.000000 0.000000
# 5 0.000000 0.000000 0.000000 0.000000 -0.011758 0.000000
# 6 0.000000 0.000000 0.000000 0.000000 0.000000 0.021485
#
#
# Mechanical properties :
#
#
# Convention : Reuss Voigt Hill
#
# Bulk Modulus (GPa) = 43.85939 57.01127 50.43533
# Shear Modulus (GPa) = 5.05955 16.65936 10.85946
#
# Velocity S-wave (km/s) = 1.43737 2.60820 2.10580
# Velocity P-wave (km/s) = 4.54581 5.68774 5.14853
#
# Compressibility (1/GPa) = 0.02280013
#
# Stress axis : x y z
#
# Youngs Moduli (GPa) = 154.57686 164.60517 69.52900
#
# Poissons Ratio (x) = 0.26573 0.04824
# Poissons Ratio (y) = 0.24954 -0.01702
# Poissons Ratio (z) = 0.10725 -0.04030
#
# Static dielectric constant tensor:
#      x y z
#    x 2.143590 0.000000 0.000000 
#    y 0.000000 1.918530 0.000000 
#    z 0.000000 0.000000 1.957780 
# 
# From -- ./inp_files/33862.got.cif
#   From: 2010.05.17/outbox.cif.g08.bks.cpg/sg68_17_cif.got.tgz:33862.got - 2010.06.03 18:57:09.
