data_PCOD9505085
_publ_section_title
;
Structure prediction by ZEFSAII (Michael W. Deem and Ramdas Pophale) SiO2 
 PCOD9505085
Probable space group: C M M A
;
_chemical_formula_sum "Si O2"
_cell_formula_units_Z 100
_cell_length_a 19.977774
_cell_length_b 16.060382
_cell_length_c 15.230855
_cell_angle_alpha 90.000000
_cell_angle_beta 90.000000
_cell_angle_gamma 90.000000
_cell_volume 4886.830213
_symmetry_space_group_name_H-M "C M M A"
_symmetry_group_IT_number 67
_symmetry_cell_setting 'orthorhombic'
loop_
_space_group_symop_operation_xyz
x,y,z
-x,1/2-y,z
x,-y,-z
-x,1/2+y,-z
-x,-y,-z
x,1/2+y,-z
-x,y,z
x,1/2-y,z
1/2+x,1/2+y,z
1/2-x,-y,z
1/2+x,1/2-y,-z
1/2-x,y,-z
1/2-x,1/2-y,-z
1/2+x,y,-z
1/2-x,1/2+y,z
1/2+x,-y,z
loop_
_atom_site_type_symbol
_atom_site_label
_atom_site_fract_x
_atom_site_fract_y
_atom_site_fract_z
Si Si1 0.819288 0.350534 0.879594
Si Si2 0.899913 0.100304 0.246071
Si Si3 0.332969 0.649262 0.079230
Si Si4 0.074750 0.589282 0.266422
Si Si5 0.650669 0.149682 0.432691
Si Si6 0.000000 0.750000 0.712648
Si Si7 0.301550 0.649305 0.381738
O O1 0.819253 0.250000 0.871466
O O2 0.740937 0.376247 0.885734
O O3 0.867668 0.383590 0.803184
O O4 0.843912 0.373217 0.977756
O O5 0.888546 0.113410 0.143079
O O6 0.942688 0.176533 0.282807
O O7 0.829086 0.108435 0.294930
O O8 0.927705 0.010032 0.263999
O O9 0.334524 0.750000 0.084352
O O10 0.097421 0.615889 0.364076
O O11 0.000000 0.622682 0.245944
O O12 0.646371 0.250000 0.431346
O O13 0.651798 0.124775 0.535149
O O14 0.725047 0.125968 0.400012
O O15 0.302382 0.750000 0.374999
#
# Coordination Sequence:
#
# PCOD9505085 Si02
#       7
#    16  16  16  16  16   4  16
#     4   9  20  39  63  91 121 156 193 240 295 360
#     4  12  23  40  62  85 112 157 201 259 299 350
#     4   9  18  38  67  91 113 151 205 246 291 349
#     4  12  26  40  52  88 129 163 200 240 297 371
#     4   9  20  39  63  91 121 156 193 240 295 360
#     4  12  24  44  60  80 114 158 210 248 308 360
#     4   9  18  38  67  91 113 151 205 246 291 349
#
# _framework density 20.463163000000002
#
# number of rings (size 3 to 8) (size 9 to 14) (size 15 to 20)
#    0.000    1.920    2.400    3.360    0.000    7.680 
#    2.880    4.800    0.000    0.000    0.000    0.000 
#    0.000    0.000    0.000    0.000    0.000    0.000 
#
# Total GULP energy -278515.037215 kJ/mol
# GULP energy per Si atom -5570.300744 kJ/mol
# Density = 2.041659 g / cm^3
# Si number density = 20.463163 Si / 1000 Ang^3
#
#
#
# Elastic Constant Matrix: (Units=GPa)
#
#
# Indices 1 2 3 4 5 6 
#
# 1 30.3035 8.0018 12.5706 0.0000 0.0000 0.0000
# 2 8.0018 43.9823 12.1094 0.0000 0.0000 0.0000
# 3 12.5706 12.1094 81.4649 0.0000 0.0000 0.0000
# 4 0.0000 0.0000 0.0000 -144.3025 0.0000 0.0000
# 5 0.0000 0.0000 0.0000 0.0000 2.0334 0.0000
# 6 0.0000 0.0000 0.0000 0.0000 0.0000 -2.5383
#
#
#
# Elastic Compliance Matrix: (Units=1/GPa)
#
#
# Indices 1 2 3 4 5 6 
#
# 1 0.036401 -0.005293 -0.004830 0.000000 0.000000 0.000000
# 2 -0.005293 0.024476 -0.002822 0.000000 0.000000 0.000000
# 3 -0.004830 -0.002822 0.013440 0.000000 0.000000 0.000000
# 4 0.000000 0.000000 0.000000 -0.006930 0.000000 0.000000
# 5 0.000000 0.000000 0.000000 0.000000 0.491789 0.000000
# 6 0.000000 0.000000 0.000000 0.000000 0.000000 -0.393968
#
#
# Mechanical properties :
#
#
# Convention : Reuss Voigt Hill
#
# Bulk Modulus (GPa) = 20.64917 24.56826 22.60872
# Shear Modulus (GPa) = 24.12670 -20.75688 1.68491
#
# Velocity S-wave (km/s) = 3.43743 -3.18835 0.90839
# Velocity P-wave (km/s) = 5.08599 1.23366 3.48894
#
# Compressibility (1/GPa) = 0.04842809
#
# Stress axis : x y z
#
# Youngs Moduli (GPa) = 27.47202 40.85606 74.40498
#
# Poissons Ratio (x) = 0.21624 0.35939
# Poissons Ratio (y) = 0.14540 0.20994
# Poissons Ratio (z) = 0.13269 0.11528
#
# Static dielectric constant tensor:
#      x y z
#    x 0.756290 0.000000 0.000000 
#    y 0.000000 1.715490 0.000000 
#    z 0.000000 0.000000 1.734030 
# 
# From -- ./inp_files/29501.got.cif
#   From: 2010.05.17/outbox.cif.g08.bks.cpg/sg67_15_cif.got.tgz:29501.got - 2010.06.03 18:28:57.
