data_PCOD9505411
_publ_section_title
;
Structure prediction by ZEFSAII (Michael W. Deem and Ramdas Pophale) SiO2 
 PCOD9505411
Probable space group: C C C A
;
_chemical_formula_sum "Si O2"
_cell_formula_units_Z 72
_cell_length_a 20.952921
_cell_length_b 14.538366
_cell_length_c 11.125467
_cell_angle_alpha 90.000000
_cell_angle_beta 90.000000
_cell_angle_gamma 90.000000
_cell_volume 3389.053489
_symmetry_space_group_name_H-M "C C C A"
_symmetry_group_IT_number 68
_space_group.IT_coordinate_system_code '2'
_symmetry_cell_setting 'orthorhombic'
loop_
_space_group_symop_operation_xyz
x,y,z
-x,1/2-y,z
x,1/2-y,1/2-z
-x,y,1/2-z
-x,-y,-z
x,1/2+y,-z
-x,1/2+y,1/2+z
x,-y,1/2+z
1/2+x,1/2+y,z
1/2-x,-y,z
1/2+x,-y,1/2-z
1/2-x,1/2+y,1/2-z
1/2-x,1/2-y,-z
1/2+x,y,-z
1/2-x,y,1/2+z
1/2+x,1/2-y,1/2+z
loop_
_atom_site_type_symbol
_atom_site_label
_atom_site_fract_x
_atom_site_fract_y
_atom_site_fract_z
Si Si1 0.384546 0.359246 0.098957
Si Si2 0.215968 0.597325 0.298803
Si Si3 0.600954 0.990719 0.909320
Si Si4 0.848627 0.178693 0.349084
Si Si5 0.500000 0.383989 0.250000
O O1 0.323665 0.366913 0.184902
O O2 0.446081 0.332144 0.174131
O O3 0.400357 0.459953 0.039179
O O4 0.369379 0.296964 0.984170
O O5 0.250000 0.500000 0.269181
O O6 0.162193 0.575529 0.398487
O O7 0.272715 0.662298 0.342493
O O8 0.540525 0.942808 0.848624
O O9 0.618651 0.079639 0.827453
O O10 0.868762 0.250000 0.250000
#
# Coordination Sequence:
#
# PCOD9505411 Si02
#       5
#    16  16  16  16   8
#     4   9  19  29  54  76 111 141 189 242 290 334
#     4   9  17  30  49  78 109 141 189 234 282 339
#     4   8  18  31  51  78 108 140 188 243 284 336
#     4   9  19  33  48  78 115 148 185 231 290 351
#     4  10  16  34  53  84 101 138 196 250 288 328
#
# _framework density 21.244869999999999
#
# number of rings (size 3 to 8) (size 9 to 14) (size 15 to 20)
#    1.333    1.778    0.000    0.667    3.111    0.889 
#    0.000    0.556    0.000    0.000   11.556    7.000 
#    0.000    0.000    0.000    0.000    0.000    5.111 
#
# Total GULP energy -200519.629782 kJ/mol
# GULP energy per Si atom -5569.989716 kJ/mol
# Density = 2.119652 g / cm^3
# Si number density = 21.244870 Si / 1000 Ang^3
#
#
#
# Elastic Constant Matrix: (Units=GPa)
#
#
# Indices 1 2 3 4 5 6 
#
# 1 135.5896 27.5324 65.7787 0.0000 0.0000 0.0000
# 2 27.5324 39.0139 31.1360 0.0000 0.0000 0.0000
# 3 65.7787 31.1360 125.3749 0.0000 0.0000 0.0000
# 4 0.0000 0.0000 0.0000 31.2774 0.0000 0.0000
# 5 0.0000 0.0000 0.0000 0.0000 26.7515 0.0000
# 6 0.0000 0.0000 0.0000 0.0000 0.0000 -1.3579
#
#
#
# Elastic Compliance Matrix: (Units=1/GPa)
#
#
# Indices 1 2 3 4 5 6 
#
# 1 0.010302 -0.003687 -0.004489 0.000000 0.000000 0.000000
# 2 -0.003687 0.033288 -0.006332 0.000000 0.000000 0.000000
# 3 -0.004489 -0.006332 0.011904 0.000000 0.000000 0.000000
# 4 0.000000 0.000000 0.000000 0.031972 0.000000 0.000000
# 5 0.000000 0.000000 0.000000 0.000000 0.037381 0.000000
# 6 0.000000 0.000000 0.000000 0.000000 0.000000 -0.736414
#
#
# Mechanical properties :
#
#
# Convention : Reuss Voigt Hill
#
# Bulk Modulus (GPa) = 37.77016 60.98582 49.37799
# Shear Modulus (GPa) = -8.71498 23.03629 7.16066
#
# Velocity S-wave (km/s) = -2.02758 3.29648 1.83789
# Velocity P-wave (km/s) = 3.51222 6.57704 5.27225
#
# Compressibility (1/GPa) = 0.02647593
#
# Stress axis : x y z
#
# Youngs Moduli (GPa) = 97.07073 30.04122 84.00615
#
# Poissons Ratio (x) = 0.11077 0.37712
# Poissons Ratio (y) = 0.35793 0.53194
# Poissons Ratio (z) = 0.43577 0.19023
#
# Static dielectric constant tensor:
#      x y z
#    x 1.741320 0.000000 0.000000 
#    y 0.000000 1.809980 0.000000 
#    z 0.000000 0.000000 1.764840 
# 
# From -- ./inp_files/15307.got.cif
#   From: 2010.05.17/outbox.cif.g08.bks.cpg/sg68_8_cif.got.tgz:15307.got - 2010.06.03 18:57:09.
