data_PCOD9505771
_publ_section_title
;
Structure prediction by ZEFSAII (Michael W. Deem and Ramdas Pophale) SiO2 
 PCOD9505771
Probable space group: C C C A
;
_chemical_formula_sum "Si O2"
_cell_formula_units_Z 80
_cell_length_a 19.371439
_cell_length_b 18.479468
_cell_length_c 11.912166
_cell_angle_alpha 90.000000
_cell_angle_beta 90.000000
_cell_angle_gamma 90.000000
_cell_volume 4264.244367
_symmetry_space_group_name_H-M "C C C A"
_symmetry_group_IT_number 68
_space_group.IT_coordinate_system_code '2'
_symmetry_cell_setting 'orthorhombic'
loop_
_space_group_symop_operation_xyz
x,y,z
-x,1/2-y,z
x,1/2-y,1/2-z
-x,y,1/2-z
-x,-y,-z
x,1/2+y,-z
-x,1/2+y,1/2+z
x,-y,1/2+z
1/2+x,1/2+y,z
1/2-x,-y,z
1/2+x,-y,1/2-z
1/2-x,1/2+y,1/2-z
1/2-x,1/2-y,-z
1/2+x,y,-z
1/2-x,y,1/2+z
1/2+x,1/2-y,1/2+z
loop_
_atom_site_type_symbol
_atom_site_label
_atom_site_fract_x
_atom_site_fract_y
_atom_site_fract_z
Si Si1 0.509377 0.585369 0.491273
Si Si2 0.218822 0.320049 0.440249
Si Si3 0.000000 0.643313 0.750000
Si Si4 0.369341 0.842089 0.622172
Si Si5 0.122329 0.250000 0.250000
Si Si6 0.110619 0.832290 0.384237
O O1 0.500000 0.500000 0.500000
O O2 0.487243 0.600914 0.363373
O O3 0.584174 0.611689 0.536527
O O4 0.458352 0.633414 0.567214
O O5 0.250000 0.250000 0.500000
O O6 0.288028 0.357832 0.396401
O O7 0.170127 0.288529 0.342087
O O8 0.172641 0.358820 0.534453
O O9 0.932896 0.689674 0.786564
O O10 0.386679 0.755795 0.605847
O O11 0.383117 0.853763 0.754361
#
# Coordination Sequence:
#
# PCOD9505771 Si02
#       6
#    16  16   8  16   8  16
#     4  12  26  41  60  86 128 172 214 254 309 380
#     4  10  18  34  61  97 126 150 194 260 323 368
#     4  11  24  38  62  92 121 168 204 258 321 378
#     4  10  22  38  67  95 122 160 207 265 319 366
#     4  11  20  36  64  96 127 146 206 264 325 382
#     4  10  20  40  64  92 122 158 208 263 313 369
#
# _framework density 18.760650999999999
#
# number of rings (size 3 to 8) (size 9 to 14) (size 15 to 20)
#    0.000    1.400    2.000    6.000    5.600    1.600 
#    0.000    1.000    0.000    2.400    0.000    0.000 
#    0.000    0.000    0.000    0.000    0.000    0.000 
#
# Total GULP energy -222848.875599 kJ/mol
# GULP energy per Si atom -5571.221890 kJ/mol
# Density = 1.871795 g / cm^3
# Si number density = 18.760651 Si / 1000 Ang^3
#
#
#
# Elastic Constant Matrix: (Units=GPa)
#
#
# Indices 1 2 3 4 5 6 
#
# 1 125.7645 21.4596 41.1198 0.0000 0.0000 0.0000
# 2 21.4596 48.1578 25.3771 0.0000 0.0000 0.0000
# 3 41.1198 25.3771 118.7335 0.0000 0.0000 0.0000
# 4 0.0000 0.0000 0.0000 0.5656 0.0000 0.0000
# 5 0.0000 0.0000 0.0000 0.0000 39.2608 0.0000
# 6 0.0000 0.0000 0.0000 0.0000 0.0000 -3.4481
#
#
#
# Elastic Compliance Matrix: (Units=1/GPa)
#
#
# Indices 1 2 3 4 5 6 
#
# 1 0.009279 -0.002751 -0.002626 0.000000 0.000000 0.000000
# 2 -0.002751 0.024216 -0.004223 0.000000 0.000000 0.000000
# 3 -0.002626 -0.004223 0.010234 0.000000 0.000000 0.000000
# 4 0.000000 0.000000 0.000000 1.768156 0.000000 0.000000
# 5 0.000000 0.000000 0.000000 0.000000 0.025471 0.000000
# 6 0.000000 0.000000 0.000000 0.000000 0.000000 -0.290011
#
#
# Mechanical properties :
#
#
# Convention : Reuss Voigt Hill
#
# Bulk Modulus (GPa) = 40.76641 52.06322 46.41482
# Shear Modulus (GPa) = 3.17516 20.92226 12.04871
#
# Velocity S-wave (km/s) = 1.30236 3.34311 2.53698
# Velocity P-wave (km/s) = 4.90290 6.53555 5.77719
#
# Compressibility (1/GPa) = 0.02453000
#
# Stress axis : x y z
#
# Youngs Moduli (GPa) = 107.76683 41.29430 97.71275
#
# Poissons Ratio (x) = 0.11362 0.25655
# Poissons Ratio (y) = 0.29651 0.41264
# Poissons Ratio (z) = 0.28295 0.17438
#
# Static dielectric constant tensor:
#      x y z
#    x 1.711480 0.000000 0.000000 
#    y 0.000000 1.631720 0.000000 
#    z 0.000000 0.000000 1.652220 
# 
# From -- ./inp_files/14356.got.cif
#   From: 2010.05.17/outbox.cif.g08.bks.cpg/sg68_8_cif.got.tgz:14356.got - 2010.06.03 18:57:09.
