data_PCOD9505817
_publ_section_title
;
Structure prediction by ZEFSAII (Michael W. Deem and Ramdas Pophale) SiO2 
 PCOD9505817
Probable space group: C C C A
;
_chemical_formula_sum "Si O2"
_cell_formula_units_Z 84
_cell_length_a 10.976206
_cell_length_b 22.856861
_cell_length_c 17.583627
_cell_angle_alpha 90.000000
_cell_angle_beta 90.000000
_cell_angle_gamma 90.000000
_cell_volume 4411.408737
_symmetry_space_group_name_H-M "C C C A"
_symmetry_group_IT_number 68
_space_group.IT_coordinate_system_code '2'
_symmetry_cell_setting 'orthorhombic'
loop_
_space_group_symop_operation_xyz
x,y,z
-x,1/2-y,z
x,1/2-y,1/2-z
-x,y,1/2-z
-x,-y,-z
x,1/2+y,-z
-x,1/2+y,1/2+z
x,-y,1/2+z
1/2+x,1/2+y,z
1/2-x,-y,z
1/2+x,-y,1/2-z
1/2-x,1/2+y,1/2-z
1/2-x,1/2-y,-z
1/2+x,y,-z
1/2-x,y,1/2+z
1/2+x,1/2-y,1/2+z
loop_
_atom_site_type_symbol
_atom_site_label
_atom_site_fract_x
_atom_site_fract_y
_atom_site_fract_z
Si Si1 0.000000 0.250000 0.250000
Si Si2 0.729028 0.862898 0.140914
Si Si3 0.360681 0.255595 0.342616
Si Si4 0.506265 0.076399 0.914558
Si Si5 0.675682 0.654162 0.183750
Si Si6 0.627637 0.535738 0.930725
O O1 0.917169 0.291610 0.197967
O O2 0.781885 0.798462 0.126216
O O3 0.607832 0.879366 0.093971
O O4 0.701098 0.866606 0.230571
O O5 0.828001 0.911687 0.121246
O O6 0.500000 0.250000 0.368097
O O7 0.359928 0.250000 0.250000
O O8 0.293785 0.317234 0.355766
O O9 0.612484 0.103892 0.864254
O O10 0.454516 0.013106 0.889535
O O11 0.555818 0.063667 0.998684
O O12 0.750000 0.500000 0.956413
#
# Coordination Sequence:
#
# PCOD9505817 Si02
#       6
#     4  16  16  16  16  16
#     4  12  16  32  62  96 120 144 184 260 318 336
#     4  10  18  36  63  83 116 151 192 250 296 346
#     4   9  18  34  57  85 119 151 181 236 314 362
#     4  10  19  37  60  84 111 156 203 237 292 357
#     4  11  18  33  64  92 114 150 197 248 299 358
#     4   9  21  39  58  77 121 163 190 240 301 349
#
# _framework density 19.041536000000001
#
# number of rings (size 3 to 8) (size 9 to 14) (size 15 to 20)
#    0.000    2.095    4.762    0.000    0.000    0.000 
#   10.286    5.714   35.619    0.000    0.000    0.000 
#    0.000    0.000    0.000    0.000    0.000    0.000 
#
# Total GULP energy -234168.550589 kJ/mol
# GULP energy per Si atom -5575.441681 kJ/mol
# Density = 1.899820 g / cm^3
# Si number density = 19.041536 Si / 1000 Ang^3
#
#
#
# Elastic Constant Matrix: (Units=GPa)
#
#
# Indices 1 2 3 4 5 6 
#
# 1 111.1931 68.8705 39.8798 0.0000 0.0000 0.0000
# 2 68.8705 108.6640 56.1101 0.0000 0.0000 0.0000
# 3 39.8798 56.1101 39.1755 0.0000 0.0000 0.0000
# 4 0.0000 0.0000 0.0000 42.7812 0.0000 0.0000
# 5 0.0000 0.0000 0.0000 0.0000 12.0890 0.0000
# 6 0.0000 0.0000 0.0000 0.0000 0.0000 40.6535
#
#
#
# Elastic Compliance Matrix: (Units=1/GPa)
#
#
# Indices 1 2 3 4 5 6 
#
# 1 0.015217 -0.006319 -0.006440 0.000000 0.000000 0.000000
# 2 -0.006319 0.037961 -0.047938 0.000000 0.000000 0.000000
# 3 -0.006440 -0.047938 0.100742 0.000000 0.000000 0.000000
# 4 0.000000 0.000000 0.000000 0.023375 0.000000 0.000000
# 5 0.000000 0.000000 0.000000 0.000000 0.082720 0.000000
# 6 0.000000 0.000000 0.000000 0.000000 0.000000 0.024598
#
#
# Mechanical properties :
#
#
# Convention : Reuss Voigt Hill
#
# Bulk Modulus (GPa) = 30.74439 65.41704 48.08071
# Shear Modulus (GPa) = 11.99477 25.38289 18.68883
#
# Velocity S-wave (km/s) = 2.51256 3.65503 3.13625
# Velocity P-wave (km/s) = 4.95966 7.22785 6.19839
#
# Compressibility (1/GPa) = 0.03252626
#
# Stress axis : x y z
#
# Youngs Moduli (GPa) = 65.71619 26.34277 9.92637
#
# Poissons Ratio (x) = 0.16646 0.06392
# Poissons Ratio (y) = 0.41527 0.47585
# Poissons Ratio (z) = 0.42320 1.26282
#
# Static dielectric constant tensor:
#      x y z
#    x 1.729010 0.000000 0.000000 
#    y 0.000000 1.660050 0.000000 
#    z 0.000000 0.000000 1.631150 
# 
# From -- ./inp_files/29584.got.cif
#   From: 2010.05.17/outbox.cif.g08.bks.cpg/sg68_15_cif.got.tgz:29584.got - 2010.06.03 18:57:09.
