data_PCOD9505034
_publ_section_title
;
Structure prediction by ZEFSAII (Michael W. Deem and Ramdas Pophale) SiO2 
 PCOD9505034
Probable space group: C M M A
;
_chemical_formula_sum "Si O2"
_cell_formula_units_Z 72
_cell_length_a 22.475580
_cell_length_b 10.156766
_cell_length_c 19.216537
_cell_angle_alpha 90.000000
_cell_angle_beta 90.000000
_cell_angle_gamma 90.000000
_cell_volume 4386.735823
_symmetry_space_group_name_H-M "C M M A"
_symmetry_group_IT_number 67
_symmetry_cell_setting 'orthorhombic'
loop_
_space_group_symop_operation_xyz
x,y,z
-x,1/2-y,z
x,-y,-z
-x,1/2+y,-z
-x,-y,-z
x,1/2+y,-z
-x,y,z
x,1/2-y,z
1/2+x,1/2+y,z
1/2-x,-y,z
1/2+x,1/2-y,-z
1/2-x,y,-z
1/2-x,1/2-y,-z
1/2+x,y,-z
1/2-x,1/2+y,z
1/2+x,-y,z
loop_
_atom_site_type_symbol
_atom_site_label
_atom_site_fract_x
_atom_site_fract_y
_atom_site_fract_z
Si Si1 0.000000 0.598854 0.564546
Si Si2 0.430047 0.591308 0.782805
Si Si3 0.881060 0.989119 0.641520
Si Si4 0.306188 0.250000 0.594598
Si Si5 0.072471 0.598631 0.060147
Si Si6 0.665995 0.250000 0.432615
O O1 0.000000 0.500000 0.500000
O O2 0.941555 0.570643 0.609970
O O3 0.000000 0.750000 0.540594
O O4 0.500000 0.556347 0.774685
O O5 0.426491 0.750000 0.776776
O O6 0.392897 0.526957 0.721271
O O7 0.410737 0.557369 0.861411
O O8 0.864705 0.120053 0.598174
O O9 0.830250 0.880549 0.631609
O O10 0.333333 0.250000 0.516308
O O11 0.235252 0.250000 0.589110
O O12 0.091142 0.750000 0.048250
O O13 0.000000 0.599089 0.059738
O O14 0.092680 0.500000 0.000000
#
# Coordination Sequence:
#
# PCOD9505034 Si02
#       6
#     8  16  16   8  16   8
#     4  12  26  38  54  80 111 142 175 222 275 334
#     4   9  17  31  49  74 108 146 176 207 262 329
#     4  12  22  37  57  79 109 139 180 223 271 331
#     4  11  24  41  55  79 104 134 186 244 275 310
#     4   8  14  26  44  67  99 138 178 208 243 307
#     4  11  24  41  61  73  98 146 186 228 285 318
#
# _framework density 16.413115000000001
#
# number of rings (size 3 to 8) (size 9 to 14) (size 15 to 20)
#    0.000    1.778    3.333    4.000    1.556    1.778 
#    2.000    0.000    0.000    0.000    0.000    0.000 
#    0.000    5.333    0.000    0.000    0.000    0.000 
#
# Total GULP energy -200933.461544 kJ/mol
# GULP energy per Si atom -5581.485043 kJ/mol
# Density = 1.637576 g / cm^3
# Si number density = 16.413115 Si / 1000 Ang^3
#
#
#
# Elastic Constant Matrix: (Units=GPa)
#
#
# Indices 1 2 3 4 5 6 
#
# 1 44.2460 24.0919 25.7855 0.0000 0.0000 0.0000
# 2 24.0919 104.4129 60.1618 0.0000 0.0000 0.0000
# 3 25.7855 60.1618 140.8632 0.0000 0.0000 0.0000
# 4 0.0000 0.0000 0.0000 29.7465 0.0000 0.0000
# 5 0.0000 0.0000 0.0000 0.0000 13.1100 0.0000
# 6 0.0000 0.0000 0.0000 0.0000 0.0000 14.4438
#
#
#
# Elastic Compliance Matrix: (Units=1/GPa)
#
#
# Indices 1 2 3 4 5 6 
#
# 1 0.026772 -0.004448 -0.003001 0.000000 0.000000 0.000000
# 2 -0.004448 0.013443 -0.004927 0.000000 0.000000 0.000000
# 3 -0.003001 -0.004927 0.009753 0.000000 0.000000 0.000000
# 4 0.000000 0.000000 0.000000 0.033617 0.000000 0.000000
# 5 0.000000 0.000000 0.000000 0.000000 0.076278 0.000000
# 6 0.000000 0.000000 0.000000 0.000000 0.000000 0.069234
#
#
# Mechanical properties :
#
#
# Convention : Reuss Voigt Hill
#
# Bulk Modulus (GPa) = 39.65894 56.62226 48.14060
# Shear Modulus (GPa) = 19.06553 23.42558 21.24555
#
# Velocity S-wave (km/s) = 3.41193 3.78199 3.60172
# Velocity P-wave (km/s) = 6.30374 7.32423 6.83306
#
# Compressibility (1/GPa) = 0.02521500
#
# Stress axis : x y z
#
# Youngs Moduli (GPa) = 37.35281 74.39034 102.53570
#
# Poissons Ratio (x) = 0.33090 0.30770
# Poissons Ratio (y) = 0.16615 0.50519
# Poissons Ratio (z) = 0.11209 0.36652
#
# Static dielectric constant tensor:
#      x y z
#    x 1.539730 0.000000 0.000000 
#    y 0.000000 1.546050 0.000000 
#    z 0.000000 0.000000 1.546450 
# 
# From -- ./inp_files/36795.got.cif
#   From: 2010.05.17/outbox.cif.g08.bks.cpg/sg67_19_cif.got.tgz:36795.got - 2010.06.03 18:28:57.
