data_PCOD9505769
_publ_section_title
;
Structure prediction by ZEFSAII (Michael W. Deem and Ramdas Pophale) SiO2 
 PCOD9505769
Probable space group: C C C A
;
_chemical_formula_sum "Si O2"
_cell_formula_units_Z 96
_cell_length_a 14.815005
_cell_length_b 20.628895
_cell_length_c 12.665736
_cell_angle_alpha 90.000000
_cell_angle_beta 90.000000
_cell_angle_gamma 90.000000
_cell_volume 3870.866551
_symmetry_space_group_name_H-M "C C C A"
_symmetry_group_IT_number 68
_space_group.IT_coordinate_system_code '2'
_symmetry_cell_setting 'orthorhombic'
loop_
_space_group_symop_operation_xyz
x,y,z
-x,1/2-y,z
x,1/2-y,1/2-z
-x,y,1/2-z
-x,-y,-z
x,1/2+y,-z
-x,1/2+y,1/2+z
x,-y,1/2+z
1/2+x,1/2+y,z
1/2-x,-y,z
1/2+x,-y,1/2-z
1/2-x,1/2+y,1/2-z
1/2-x,1/2-y,-z
1/2+x,y,-z
1/2-x,y,1/2+z
1/2+x,1/2-y,1/2+z
loop_
_atom_site_type_symbol
_atom_site_label
_atom_site_fract_x
_atom_site_fract_y
_atom_site_fract_z
Si Si1 0.250000 0.500000 0.567687
Si Si2 0.553001 0.814493 0.941199
Si Si3 0.093441 0.287470 0.152285
Si Si4 0.850662 0.585504 0.757557
Si Si5 0.000000 0.508870 0.250000
Si Si6 0.682797 0.671699 0.742182
Si Si7 0.599871 0.092869 0.071194
O O1 0.195497 0.546849 0.646488
O O2 0.326090 0.546282 0.514996
O O3 0.500000 0.750000 0.906851
O O4 0.604660 0.843083 0.841988
O O5 0.477596 0.864716 0.985482
O O6 0.625045 0.794049 0.031883
O O7 0.138315 0.250000 0.250000
O O8 0.086862 0.359625 0.192439
O O9 0.000000 0.250000 0.138755
O O10 0.769707 0.628336 0.707130
O O11 0.917940 0.534827 0.703983
O O12 0.955120 0.549480 0.344127
O O13 0.686453 0.750000 0.750000
O O14 0.655240 0.644227 0.856758
#
# Coordination Sequence:
#
# PCOD9505769 Si02
#       7
#     8  16  16  16   8  16  16
#     4   8  20  36  60  90 130 180 214 256 326 390
#     4  11  21  36  66 101 129 163 220 280 337 399
#     4  10  22  42  66  89 124 171 220 268 331 397
#     4  10  21  38  62  87 128 176 220 260 323 392
#     4  10  18  34  62  88 122 186 216 254 326 396
#     4  11  20  34  62 100 130 166 211 279 345 392
#     4  10  18  34  61  96 131 170 217 266 332 397
#
# _framework density 24.800647999999999
#
# number of rings (size 3 to 8) (size 9 to 14) (size 15 to 20)
#    0.000    1.833    3.333    1.500    0.000    0.000 
#    0.000    6.667   14.667    0.000    0.000    0.000 
#    0.000    0.000    0.000    0.000    0.000    0.000 
#
# Total GULP energy -267503.396011 kJ/mol
# GULP energy per Si atom -5572.987417 kJ/mol
# Density = 2.474420 g / cm^3
# Si number density = 24.800648 Si / 1000 Ang^3
#
#
#
# Elastic Constant Matrix: (Units=GPa)
#
#
# Indices 1 2 3 4 5 6 
#
# 1 121.2166 58.1024 21.9373 0.0000 0.0000 0.0000
# 2 58.1024 147.0583 12.7811 0.0000 0.0000 0.0000
# 3 21.9373 12.7811 58.4140 0.0000 0.0000 0.0000
# 4 0.0000 0.0000 0.0000 2.5381 0.0000 0.0000
# 5 0.0000 0.0000 0.0000 0.0000 -2.8557 0.0000
# 6 0.0000 0.0000 0.0000 0.0000 0.0000 33.8611
#
#
#
# Elastic Compliance Matrix: (Units=1/GPa)
#
#
# Indices 1 2 3 4 5 6 
#
# 1 0.010720 -0.003961 -0.003159 0.000000 0.000000 0.000000
# 2 -0.003961 0.008395 -0.000349 0.000000 0.000000 0.000000
# 3 -0.003159 -0.000349 0.018382 0.000000 0.000000 0.000000
# 4 0.000000 0.000000 0.000000 0.393999 0.000000 0.000000
# 5 0.000000 0.000000 0.000000 0.000000 -0.350180 0.000000
# 6 0.000000 0.000000 0.000000 0.000000 0.000000 0.029532
#
#
# Mechanical properties :
#
#
# Convention : Reuss Voigt Hill
#
# Bulk Modulus (GPa) = 44.32948 56.92561 50.62754
# Shear Modulus (GPa) = 37.50721 22.29991 29.90356
#
# Velocity S-wave (km/s) = 3.89311 3.00186 3.47617
# Velocity P-wave (km/s) = 6.17426 5.91760 6.04730
#
# Compressibility (1/GPa) = 0.02255835
#
# Stress axis : x y z
#
# Youngs Moduli (GPa) = 93.28370 119.11394 54.40085
#
# Poissons Ratio (x) = 0.47179 0.17186
# Poissons Ratio (y) = 0.36948 0.01901
# Poissons Ratio (z) = 0.29470 0.04162
#
# Static dielectric constant tensor:
#      x y z
#    x 2.020630 0.000000 0.000000 
#    y 0.000000 1.925500 0.000000 
#    z 0.000000 0.000000 1.987670 
# 
# From -- ./inp_files/22415.got.cif
#   From: 2010.05.17/outbox.cif.g08.bks.cpg/sg68_12_cif.got.tgz:22415.got - 2010.06.03 18:57:09.
