data_PCOD9505199
_publ_section_title
;
Structure prediction by ZEFSAII (Michael W. Deem and Ramdas Pophale) SiO2 
 PCOD9505199
Probable space group: C M M A
;
_chemical_formula_sum "Si O2"
_cell_formula_units_Z 48
_cell_length_a 9.000000
_cell_length_b 27.000000
_cell_length_c 24.000000
_cell_angle_alpha 90.000000
_cell_angle_beta 90.000000
_cell_angle_gamma 90.000000
_cell_volume 5832.000000
_symmetry_space_group_name_H-M "C M M A"
_symmetry_group_IT_number 67
_symmetry_cell_setting 'orthorhombic'
loop_
_space_group_symop_operation_xyz
x,y,z
-x,1/2-y,z
x,-y,-z
-x,1/2+y,-z
-x,-y,-z
x,1/2+y,-z
-x,y,z
x,1/2-y,z
1/2+x,1/2+y,z
1/2-x,-y,z
1/2+x,1/2-y,-z
1/2-x,y,-z
1/2-x,1/2-y,-z
1/2+x,y,-z
1/2-x,1/2+y,z
1/2+x,-y,z
loop_
_atom_site_type_symbol
_atom_site_label
_atom_site_fract_x
_atom_site_fract_y
_atom_site_fract_z
Si Si1 0.175314 0.548421 0.832558
Si Si2 0.178331 0.589224 0.057179
Si Si3 0.678678 0.304371 0.101772
Si Si4 0.322112 0.808623 0.555319
Si Si5 0.673539 0.657213 0.212014
Si Si6 0.827331 0.309835 0.677156
O O1 0.250000 0.500000 0.806824
O O2 0.256683 0.559200 0.891002
O O3 0.195763 0.598710 0.797899
O O4 0.000000 0.540843 0.841238
O O5 0.224274 0.646999 0.067270
O O6 0.000000 0.586207 0.055949
O O7 0.250000 0.571835 0.000000
O O8 0.500000 0.304246 0.102394
O O9 0.729912 0.250000 0.082071
O O10 0.736543 0.313944 0.164221
O O11 0.500000 0.811862 0.551750
O O12 0.283539 0.750000 0.556083
O O13 0.250000 0.830690 0.500000
O O14 0.277540 0.828138 0.616073
O O15 0.500000 0.668321 0.204595
O O16 0.729136 0.671796 0.272467
O O17 0.823617 0.250000 0.676341
O O18 0.000000 0.323995 0.685654
#
# Coordination Sequence:
#
# PCOD9505199 Si02
#       6
#    16  16  16  16  16  16
#     4  10  21  37  54  71  90 112 141 179 225 273
#     4  10  20  34  51  71  94 118 146 180 217 259
#     4   9  18  32  48  65  89 123 155 180 213 258
#     4   8  14  24  37  55  82 118 158 194 223 251
#     4  10  20  31  45  68  93 114 144 187 226 262
#     4   9  17  28  42  62  91 127 161 188 217 258
#
# _framework density 8.2304530000000007
#
# number of rings (size 3 to 8) (size 9 to 14) (size 15 to 20)
#    0.000    2.667    0.000    3.000    0.000    6.667 
#    0.000    3.333    0.000    0.000    0.000    0.000 
#    0.000    0.667    0.000    7.333    0.000    5.667 
#
# Total GULP energy -267488.269791 kJ/mol
# GULP energy per Si atom -5572.672287 kJ/mol
# Density = 0.821172 g / cm^3
# Si number density = 8.230453 Si / 1000 Ang^3
#
#
#
# Elastic Constant Matrix: (Units=GPa)
#
#
# Indices 1 2 3 4 5 6 
#
# 1 4.5786 10.5623 -2.3951 0.0000 0.0000 0.0000
# 2 10.5623 34.2716 -14.0600 0.0000 0.0000 0.0000
# 3 -2.3951 -14.0600 59.4131 0.0000 0.0000 0.0000
# 4 0.0000 0.0000 0.0000 5.2850 0.0000 0.0000
# 5 0.0000 0.0000 0.0000 0.0000 19.8665 0.0000
# 6 0.0000 0.0000 0.0000 0.0000 0.0000 20.3973
#
#
#
# Elastic Compliance Matrix: (Units=1/GPa)
#
#
# Indices 1 2 3 4 5 6 
#
# 1 0.797823 -0.257709 -0.028824 0.000000 0.000000 0.000000
# 2 -0.257709 0.115560 0.016958 0.000000 0.000000 0.000000
# 3 -0.028824 0.016958 0.019682 0.000000 0.000000 0.000000
# 4 0.000000 0.000000 0.000000 0.189215 0.000000 0.000000
# 5 0.000000 0.000000 0.000000 0.000000 0.050336 0.000000
# 6 0.000000 0.000000 0.000000 0.000000 0.000000 0.049026
#
#
# Mechanical properties :
#
#
# Convention : Reuss Voigt Hill
#
# Bulk Modulus (GPa) = 2.53861 9.60863 6.07362
# Shear Modulus (GPa) = 2.64257 16.05350 9.34804
#
# Velocity S-wave (km/s) = 1.26840 3.12629 2.38564
# Velocity P-wave (km/s) = 1.92111 4.34528 3.35948
#
# Compressibility (1/GPa) = 0.39391690
#
# Stress axis : x y z
#
# Youngs Moduli (GPa) = 1.25341 8.65353 50.80677
#
# Poissons Ratio (x) = 2.23009 1.46443
# Poissons Ratio (y) = 0.32301 -0.86158
# Poissons Ratio (z) = 0.03613 -0.14675
#
# Static dielectric constant tensor:
#      x y z
#    x 1.545510 0.000000 0.000000 
#    y 0.000000 1.571080 0.000000 
#    z 0.000000 0.000000 1.556470 
# 
# From -- ./inp_files/40900.got.cif
#   From: 2010.05.17/outbox.ucp.g08.bks.cvg/sg67_21_cif.got.tgz:40900.got - 2010.06.11 16:47:20.
