data_PCOD9505869
_publ_section_title
;
Structure prediction by ZEFSAII (Michael W. Deem and Ramdas Pophale) SiO2 
 PCOD9505869
Probable space group: C C C A
;
_chemical_formula_sum "Si O2"
_cell_formula_units_Z 112
_cell_length_a 24.173023
_cell_length_b 14.058610
_cell_length_c 14.021305
_cell_angle_alpha 90.000000
_cell_angle_beta 90.000000
_cell_angle_gamma 90.000000
_cell_volume 4764.987712
_symmetry_space_group_name_H-M "C C C A"
_symmetry_group_IT_number 68
_space_group.IT_coordinate_system_code '2'
_symmetry_cell_setting 'orthorhombic'
loop_
_space_group_symop_operation_xyz
x,y,z
-x,1/2-y,z
x,1/2-y,1/2-z
-x,y,1/2-z
-x,-y,-z
x,1/2+y,-z
-x,1/2+y,1/2+z
x,-y,1/2+z
1/2+x,1/2+y,z
1/2-x,-y,z
1/2+x,-y,1/2-z
1/2-x,1/2+y,1/2-z
1/2-x,1/2-y,-z
1/2+x,y,-z
1/2-x,y,1/2+z
1/2+x,1/2-y,1/2+z
loop_
_atom_site_type_symbol
_atom_site_label
_atom_site_fract_x
_atom_site_fract_y
_atom_site_fract_z
Si Si1 0.408430 0.002772 0.738918
Si Si2 0.769362 0.702880 0.599782
Si Si3 0.690827 0.477171 0.495145
Si Si4 0.843588 0.644033 0.138411
Si Si5 0.096498 0.324530 0.554305
Si Si6 0.614505 0.298112 0.660572
Si Si7 0.486684 0.032286 0.393945
O O1 0.367802 0.913989 0.727062
O O2 0.458504 0.976040 0.667634
O O3 0.438379 0.024962 0.838544
O O4 0.379270 0.094878 0.697952
O O5 0.750000 0.750000 0.500000
O O6 0.786950 0.595792 0.574451
O O7 0.715179 0.690851 0.661285
O O8 0.824953 0.748457 0.641558
O O9 0.750000 0.500000 0.441666
O O10 0.665277 0.569214 0.549116
O O11 0.643308 0.410175 0.447314
O O12 0.881707 0.730028 0.103699
O O13 0.086449 0.301953 0.442301
O O14 0.041005 0.364361 0.600630
O O15 0.584848 0.250000 0.750000
O O16 0.500000 0.000000 0.500000
#
# Coordination Sequence:
#
# PCOD9505869 Si02
#       7
#    16  16  16  16  16  16  16
#     4  11  25  46  73 104 141 191 243 316 375 440
#     4  10  18  38  66 102 147 199 241 288 362 438
#     4   9  18  33  63  98 141 193 239 291 348 425
#     4  11  20  39  72  98 148 195 244 298 364 442
#     4  11  22  42  72 107 140 194 241 302 373 439
#     4  11  23  43  67 105 152 187 245 303 365 440
#     4  11  24  48  77  99 141 184 246 316 379 445
#
# _framework density 23.504781999999999
#
# number of rings (size 3 to 8) (size 9 to 14) (size 15 to 20)
#    0.000    1.429    7.143    0.000    0.000    3.429 
#    2.571    2.857    0.000    0.000    0.000    0.000 
#    0.000    0.000    0.000    0.000    0.000    0.000 
#
# Total GULP energy -312465.226723 kJ/mol
# GULP energy per Si atom -5579.736191 kJ/mol
# Density = 2.345128 g / cm^3
# Si number density = 23.504782 Si / 1000 Ang^3
#
#
#
# Elastic Constant Matrix: (Units=GPa)
#
#
# Indices 1 2 3 4 5 6 
#
# 1 66.4874 18.6501 27.4257 0.0000 0.0000 0.0000
# 2 18.6501 107.0263 20.0429 0.0000 0.0000 0.0000
# 3 27.4257 20.0429 88.9393 0.0000 0.0000 0.0000
# 4 0.0000 0.0000 0.0000 33.2994 0.0000 0.0000
# 5 0.0000 0.0000 0.0000 0.0000 30.4335 0.0000
# 6 0.0000 0.0000 0.0000 0.0000 0.0000 24.1526
#
#
#
# Elastic Compliance Matrix: (Units=1/GPa)
#
#
# Indices 1 2 3 4 5 6 
#
# 1 0.017695 -0.002152 -0.004971 0.000000 0.000000 0.000000
# 2 -0.002152 0.010017 -0.001594 0.000000 0.000000 0.000000
# 3 -0.004971 -0.001594 0.013136 0.000000 0.000000 0.000000
# 4 0.000000 0.000000 0.000000 0.030031 0.000000 0.000000
# 5 0.000000 0.000000 0.000000 0.000000 0.032859 0.000000
# 6 0.000000 0.000000 0.000000 0.000000 0.000000 0.041403
#
#
# Mechanical properties :
#
#
# Convention : Reuss Voigt Hill
#
# Bulk Modulus (GPa) = 42.71196 43.85452 43.28324
# Shear Modulus (GPa) = 29.34627 30.66606 30.00616
#
# Velocity S-wave (km/s) = 3.53728 3.61594 3.57683
# Velocity P-wave (km/s) = 5.90713 6.01096 5.95927
#
# Compressibility (1/GPa) = 0.02341264
#
# Stress axis : x y z
#
# Youngs Moduli (GPa) = 56.51350 99.83006 76.12809
#
# Poissons Ratio (x) = 0.21488 0.37846
# Poissons Ratio (y) = 0.12164 0.12132
# Poissons Ratio (z) = 0.28095 0.15909
#
# Static dielectric constant tensor:
#      x y z
#    x 1.951180 0.000000 0.000000 
#    y 0.000000 2.016940 0.000000 
#    z 0.000000 0.000000 1.923240 
# 
# From -- ./inp_files/26064.got.cif
#   From: 2010.05.17/outbox.cif.g08.bks.cpg/sg68_14_cif.got.tgz:26064.got - 2010.06.03 18:57:09.
