data_PCOD9505875
_publ_section_title
;
Structure prediction by ZEFSAII (Michael W. Deem and Ramdas Pophale) SiO2 
 PCOD9505875
Probable space group: C C C A
;
_chemical_formula_sum "Si O2"
_cell_formula_units_Z 72
_cell_length_a 5.088669
_cell_length_b 26.329958
_cell_length_c 26.654854
_cell_angle_alpha 90.000000
_cell_angle_beta 90.000000
_cell_angle_gamma 90.000000
_cell_volume 3571.335714
_symmetry_space_group_name_H-M "C C C A"
_symmetry_group_IT_number 68
_space_group.IT_coordinate_system_code '2'
_symmetry_cell_setting 'orthorhombic'
loop_
_space_group_symop_operation_xyz
x,y,z
-x,1/2-y,z
x,1/2-y,1/2-z
-x,y,1/2-z
-x,-y,-z
x,1/2+y,-z
-x,1/2+y,1/2+z
x,-y,1/2+z
1/2+x,1/2+y,z
1/2-x,-y,z
1/2+x,-y,1/2-z
1/2-x,1/2+y,1/2-z
1/2-x,1/2-y,-z
1/2+x,y,-z
1/2-x,y,1/2+z
1/2+x,1/2-y,1/2+z
loop_
_atom_site_type_symbol
_atom_site_label
_atom_site_fract_x
_atom_site_fract_y
_atom_site_fract_z
Si Si1 0.500000 0.532961 0.250000
Si Si2 0.249599 0.783568 0.638644
Si Si3 0.281886 0.335077 0.465127
Si Si4 0.185084 0.052872 0.033959
Si Si5 0.234605 0.370096 0.282877
O O1 0.750000 0.500000 0.267215
O O2 0.377646 0.572676 0.290453
O O3 0.500000 0.750000 0.650822
O O4 0.243867 0.796185 0.579645
O O5 0.268152 0.836111 0.668665
O O6 0.000000 0.750000 0.652400
O O7 0.563049 0.329907 0.491620
O O8 0.244820 0.392329 0.443128
O O9 0.250000 0.000000 0.061664
O O10 0.387750 0.051991 0.986416
O O11 0.500000 0.373017 0.250000
O O12 0.000000 0.345525 0.250000
#
# Coordination Sequence:
#
# PCOD9505875 Si02
#       5
#     8  16  16  16  16
#     4  10  18  38  69  96 127 164 186 240 314 384
#     4  12  26  40  60  88 123 165 217 264 306 365
#     4  10  21  38  58  83 118 159 205 260 307 360
#     4   8  14  27  50  74  99 135 178 231 293 348
#     4  10  22  40  64  94 125 160 200 256 304 379
#
# _framework density 20.160523999999999
#
# number of rings (size 3 to 8) (size 9 to 14) (size 15 to 20)
#    0.667    1.333    1.111    2.667    0.000    5.333 
#    0.000    1.111    0.000    5.333    0.000    0.000 
#    0.000    0.000    0.000    0.000    0.000    0.000 
#
# Total GULP energy -200589.478421 kJ/mol
# GULP energy per Si atom -5571.929956 kJ/mol
# Density = 2.011464 g / cm^3
# Si number density = 20.160524 Si / 1000 Ang^3
#
#
#
# Elastic Constant Matrix: (Units=GPa)
#
#
# Indices 1 2 3 4 5 6 
#
# 1 137.4150 47.0288 14.1490 0.0000 0.0000 0.0000
# 2 47.0288 108.9876 33.9669 0.0000 0.0000 0.0000
# 3 14.1490 33.9669 37.1521 0.0000 0.0000 0.0000
# 4 0.0000 0.0000 0.0000 20.8278 0.0000 0.0000
# 5 0.0000 0.0000 0.0000 0.0000 21.3762 0.0000
# 6 0.0000 0.0000 0.0000 0.0000 0.0000 17.8608
#
#
#
# Elastic Compliance Matrix: (Units=1/GPa)
#
#
# Indices 1 2 3 4 5 6 
#
# 1 0.008539 -0.003735 0.000163 0.000000 0.000000 0.000000
# 2 -0.003735 0.014466 -0.011803 0.000000 0.000000 0.000000
# 3 0.000163 -0.011803 0.037645 0.000000 0.000000 0.000000
# 4 0.000000 0.000000 0.000000 0.048013 0.000000 0.000000
# 5 0.000000 0.000000 0.000000 0.000000 0.046781 0.000000
# 6 0.000000 0.000000 0.000000 0.000000 0.000000 0.055988
#
#
# Mechanical properties :
#
#
# Convention : Reuss Voigt Hill
#
# Bulk Modulus (GPa) = 33.44529 52.64935 43.04732
# Shear Modulus (GPa) = 19.82958 24.57362 22.20160
#
# Velocity S-wave (km/s) = 3.13962 3.49506 3.32210
# Velocity P-wave (km/s) = 5.45605 6.51606 6.00947
#
# Compressibility (1/GPa) = 0.02989957
#
# Stress axis : x y z
#
# Youngs Moduli (GPa) = 117.11211 69.12918 26.56384
#
# Poissons Ratio (x) = 0.25823 -0.00434
# Poissons Ratio (y) = 0.43746 0.31353
# Poissons Ratio (z) = -0.01912 0.81592
#
# Static dielectric constant tensor:
#      x y z
#    x 1.687000 0.000000 0.000000 
#    y 0.000000 1.788190 0.000000 
#    z 0.000000 0.000000 1.682900 
# 
# From -- ./inp_files/42234.got.cif
#   From: 2010.05.17/outbox.cif.g08.bks.cpg/sg68_22_cif.got.tgz:42234.got - 2010.06.03 18:57:09.
