data_PCOD9505848
_publ_section_title
;
Structure prediction by ZEFSAII (Michael W. Deem and Ramdas Pophale) SiO2 
 PCOD9505848
Probable space group: C C C A
;
_chemical_formula_sum "Si O2"
_cell_formula_units_Z 96
_cell_length_a 23.366943
_cell_length_b 8.870631
_cell_length_c 20.782096
_cell_angle_alpha 90.000000
_cell_angle_beta 90.000000
_cell_angle_gamma 90.000000
_cell_volume 4307.703069
_symmetry_space_group_name_H-M "C C C A"
_symmetry_group_IT_number 68
_space_group.IT_coordinate_system_code '2'
_symmetry_cell_setting 'orthorhombic'
loop_
_space_group_symop_operation_xyz
x,y,z
-x,1/2-y,z
x,1/2-y,1/2-z
-x,y,1/2-z
-x,-y,-z
x,1/2+y,-z
-x,1/2+y,1/2+z
x,-y,1/2+z
1/2+x,1/2+y,z
1/2-x,-y,z
1/2+x,-y,1/2-z
1/2-x,1/2+y,1/2-z
1/2-x,1/2-y,-z
1/2+x,y,-z
1/2-x,y,1/2+z
1/2+x,1/2-y,1/2+z
loop_
_atom_site_type_symbol
_atom_site_label
_atom_site_fract_x
_atom_site_fract_y
_atom_site_fract_z
Si Si1 0.424469 0.978867 0.077226
Si Si2 0.316614 0.846139 0.613988
Si Si3 0.919023 0.510726 0.316564
Si Si4 0.134639 0.450665 0.554182
Si Si5 0.250000 0.000000 0.019336
Si Si6 0.659827 0.250000 0.250000
Si Si7 0.000000 0.250000 0.882440
Si Si8 0.000000 0.750000 0.662707
O O1 0.459681 0.854882 0.117075
O O2 0.362086 0.015835 0.109159
O O3 0.462335 0.130580 0.079003
O O4 0.411011 0.942967 0.003039
O O5 0.351470 0.713795 0.580161
O O6 0.260248 0.866802 0.570924
O O7 0.305635 0.796134 0.686566
O O8 0.886005 0.463417 0.382322
O O9 0.877606 0.599926 0.267602
O O10 0.960525 0.646240 0.338135
O O11 0.958053 0.367472 0.300129
O O12 0.193765 0.505784 0.523419
#
# Coordination Sequence:
#
# PCOD9505848 Si02
#       8
#    16  16  16  16   8   8   8   8
#     4  10  21  36  58  90 136 160 213 254 314 384
#     4  10  21  43  62  91 116 172 212 265 326 385
#     4  10  22  38  63  94 129 170 218 256 311 376
#     4  10  21  37  62  93 126 165 209 262 327 392
#     4  10  22  38  68  92 128 152 214 276 342 386
#     4  10  20  43  68  80 128 170 230 259 302 404
#     4  10  18  38  58  93 121 184 204 236 320 376
#     4  10  24  37  57 103 131 167 205 270 312 358
#
# _framework density 22.285658000000002
#
# number of rings (size 3 to 8) (size 9 to 14) (size 15 to 20)
#    0.000    2.000    3.333    0.500    4.667    4.333 
#    0.000    5.000    0.000    0.000    0.000    0.000 
#    0.000    0.000    0.000    0.000    0.000    0.000 
#
# Total GULP energy -267818.266873 kJ/mol
# GULP energy per Si atom -5579.547227 kJ/mol
# Density = 2.223493 g / cm^3
# Si number density = 22.285658 Si / 1000 Ang^3
#
#
#
# Elastic Constant Matrix: (Units=GPa)
#
#
# Indices 1 2 3 4 5 6 
#
# 1 61.5751 12.7799 18.5280 0.0000 0.0000 0.0000
# 2 12.7799 86.7597 23.8304 0.0000 0.0000 0.0000
# 3 18.5280 23.8304 99.4713 0.0000 0.0000 0.0000
# 4 0.0000 0.0000 0.0000 19.1919 0.0000 0.0000
# 5 0.0000 0.0000 0.0000 0.0000 17.8517 0.0000
# 6 0.0000 0.0000 0.0000 0.0000 0.0000 21.2496
#
#
#
# Elastic Compliance Matrix: (Units=1/GPa)
#
#
# Indices 1 2 3 4 5 6 
#
# 1 0.017463 -0.001797 -0.002822 0.000000 0.000000 0.000000
# 2 -0.001797 0.012523 -0.002665 0.000000 0.000000 0.000000
# 3 -0.002822 -0.002665 0.011217 0.000000 0.000000 0.000000
# 4 0.000000 0.000000 0.000000 0.052105 0.000000 0.000000
# 5 0.000000 0.000000 0.000000 0.000000 0.056017 0.000000
# 6 0.000000 0.000000 0.000000 0.000000 0.000000 0.047060
#
#
# Mechanical properties :
#
#
# Convention : Reuss Voigt Hill
#
# Bulk Modulus (GPa) = 37.54661 39.78695 38.66678
# Shear Modulus (GPa) = 22.74463 24.50315 23.62389
#
# Velocity S-wave (km/s) = 3.19814 3.31947 3.25937
# Velocity P-wave (km/s) = 5.52467 5.70822 5.61719
#
# Compressibility (1/GPa) = 0.02663356
#
# Stress axis : x y z
#
# Youngs Moduli (GPa) = 57.26556 79.85364 89.14755
#
# Poissons Ratio (x) = 0.14351 0.25158
# Poissons Ratio (y) = 0.10291 0.23761
# Poissons Ratio (z) = 0.16161 0.21284
#
# Static dielectric constant tensor:
#      x y z
#    x 1.915590 0.000000 0.000000 
#    y 0.000000 1.888680 0.000000 
#    z 0.000000 0.000000 1.881920 
# 
# From -- ./inp_files/46989.got.cif
#   From: 2010.05.17/outbox.cif.g08.bks.cpg/sg68_24_cif.got.tgz:46989.got - 2010.06.03 18:57:09.
