data_PCOD9505776
_publ_section_title
;
Structure prediction by ZEFSAII (Michael W. Deem and Ramdas Pophale) SiO2 
 PCOD9505776
Probable space group: C C C A
;
_chemical_formula_sum "Si O2"
_cell_formula_units_Z 72
_cell_length_a 10.291144
_cell_length_b 12.884134
_cell_length_c 24.485171
_cell_angle_alpha 90.000000
_cell_angle_beta 90.000000
_cell_angle_gamma 90.000000
_cell_volume 3246.549505
_symmetry_space_group_name_H-M "C C C A"
_symmetry_group_IT_number 68
_space_group.IT_coordinate_system_code '2'
_symmetry_cell_setting 'orthorhombic'
loop_
_space_group_symop_operation_xyz
x,y,z
-x,1/2-y,z
x,1/2-y,1/2-z
-x,y,1/2-z
-x,-y,-z
x,1/2+y,-z
-x,1/2+y,1/2+z
x,-y,1/2+z
1/2+x,1/2+y,z
1/2-x,-y,z
1/2+x,-y,1/2-z
1/2-x,1/2+y,1/2-z
1/2-x,1/2-y,-z
1/2+x,y,-z
1/2-x,y,1/2+z
1/2+x,1/2-y,1/2+z
loop_
_atom_site_type_symbol
_atom_site_label
_atom_site_fract_x
_atom_site_fract_y
_atom_site_fract_z
Si Si1 0.583188 0.900060 0.912775
Si Si2 0.750000 0.000000 0.830922
Si Si3 0.693759 0.829208 0.617658
Si Si4 0.355126 0.129675 0.259725
Si Si5 0.369292 0.181055 0.977202
O O1 0.652818 0.794169 0.888192
O O2 0.430621 0.883463 0.909347
O O3 0.630979 0.990370 0.872973
O O4 0.617530 0.906948 0.976495
O O5 0.758447 0.091694 0.787101
O O6 0.696079 0.874192 0.678687
O O7 0.822592 0.849507 0.582848
O O8 0.372104 0.250000 0.250000
O O9 0.500000 0.081395 0.250000
O O10 0.500000 0.250000 0.976772
O O11 0.250000 0.250000 0.000000
#
# Coordination Sequence:
#
# PCOD9505776 Si02
#       5
#    16   8  16  16  16
#     4  10  18  35  61  96 121 169 225 278 339 415
#     4  12  22  34  62  96 128 166 232 292 336 406
#     4  10  18  37  65  90 126 171 229 275 340 410
#     4  11  20  39  67  93 124 177 237 283 337 415
#     4  10  18  34  65  97 126 167 221 277 336 408
#
# _framework density 22.177392999999999
#
# number of rings (size 3 to 8) (size 9 to 14) (size 15 to 20)
#    0.000    1.556    8.889    1.333    0.000    0.000 
#    0.000    6.667    0.000    0.000    0.000    0.000 
#    0.000    0.000    0.000    0.000    0.000    0.000 
#
# Total GULP energy -200686.298317 kJ/mol
# GULP energy per Si atom -5574.619398 kJ/mol
# Density = 2.212692 g / cm^3
# Si number density = 22.177393 Si / 1000 Ang^3
#
#
#
# Elastic Constant Matrix: (Units=GPa)
#
#
# Indices 1 2 3 4 5 6 
#
# 1 104.1793 27.7943 74.3096 0.0000 0.0000 0.0000
# 2 27.7943 34.5350 19.2303 0.0000 0.0000 0.0000
# 3 74.3096 19.2303 215.7516 0.0000 0.0000 0.0000
# 4 0.0000 0.0000 0.0000 12.7143 0.0000 0.0000
# 5 0.0000 0.0000 0.0000 0.0000 26.8288 0.0000
# 6 0.0000 0.0000 0.0000 0.0000 0.0000 19.8670
#
#
#
# Elastic Compliance Matrix: (Units=1/GPa)
#
#
# Indices 1 2 3 4 5 6 
#
# 1 0.015401 -0.009935 -0.004419 0.000000 0.000000 0.000000
# 2 -0.009935 0.036877 0.000135 0.000000 0.000000 0.000000
# 3 -0.004419 0.000135 0.006145 0.000000 0.000000 0.000000
# 4 0.000000 0.000000 0.000000 0.078652 0.000000 0.000000
# 5 0.000000 0.000000 0.000000 0.000000 0.037273 0.000000
# 6 0.000000 0.000000 0.000000 0.000000 0.000000 0.050335
#
#
# Mechanical properties :
#
#
# Convention : Reuss Voigt Hill
#
# Bulk Modulus (GPa) = 33.34974 66.34826 49.84900
# Shear Modulus (GPa) = 19.00306 27.42413 23.21360
#
# Velocity S-wave (km/s) = 2.93040 3.52032 3.23882
# Velocity P-wave (km/s) = 5.14976 6.81950 6.04258
#
# Compressibility (1/GPa) = 0.02998524
#
# Stress axis : x y z
#
# Youngs Moduli (GPa) = 64.92931 27.11750 162.73454
#
# Poissons Ratio (x) = 0.26940 0.71914
# Poissons Ratio (y) = 0.64504 -0.02194
# Poissons Ratio (z) = 0.28693 -0.00366
#
# Static dielectric constant tensor:
#      x y z
#    x 1.883990 0.000000 0.000000 
#    y 0.000000 1.911060 0.000000 
#    z 0.000000 0.000000 1.883950 
# 
# From -- ./inp_files/48945.got.cif
#   From: 2010.05.17/outbox.cif.g08.bks.cpg/sg68_25_cif.got.tgz:48945.got - 2010.06.03 18:57:09.
