data_PCOD9505894
_publ_section_title
;
Structure prediction by ZEFSAII (Michael W. Deem and Ramdas Pophale) SiO2 
 PCOD9505894
Probable space group: C C C A
;
_chemical_formula_sum "Si O2"
_cell_formula_units_Z 56
_cell_length_a 10.387830
_cell_length_b 11.102190
_cell_length_c 19.269636
_cell_angle_alpha 90.000000
_cell_angle_beta 90.000000
_cell_angle_gamma 90.000000
_cell_volume 2222.322074
_symmetry_space_group_name_H-M "C C C A"
_symmetry_group_IT_number 68
_space_group.IT_coordinate_system_code '2'
_symmetry_cell_setting 'orthorhombic'
loop_
_space_group_symop_operation_xyz
x,y,z
-x,1/2-y,z
x,1/2-y,1/2-z
-x,y,1/2-z
-x,-y,-z
x,1/2+y,-z
-x,1/2+y,1/2+z
x,-y,1/2+z
1/2+x,1/2+y,z
1/2-x,-y,z
1/2+x,-y,1/2-z
1/2-x,1/2+y,1/2-z
1/2-x,1/2-y,-z
1/2+x,y,-z
1/2-x,y,1/2+z
1/2+x,1/2-y,1/2+z
loop_
_atom_site_type_symbol
_atom_site_label
_atom_site_fract_x
_atom_site_fract_y
_atom_site_fract_z
Si Si1 0.250000 0.000000 0.222230
Si Si2 0.079770 0.923153 0.614386
Si Si3 0.198648 0.335922 0.149910
Si Si4 0.370138 0.170378 0.474111
O O1 0.131738 0.979642 0.168652
O O2 0.224208 0.110434 0.274427
O O3 0.154452 0.802674 0.641117
O O4 0.113143 0.932105 0.533092
O O5 0.929827 0.900816 0.622000
O O6 0.322015 0.362152 0.102135
O O7 0.500000 0.250000 0.473845
O O8 0.250000 0.250000 0.500000
#
# Coordination Sequence:
#
# PCOD9505894 Si02
#       4
#     8  16  16  16
#     4  12  24  38  62 102 134 178 226 272 344 420
#     4  10  21  44  70  92 133 180 227 281 348 405
#     4  10  22  44  68  96 133 179 229 283 344 407
#     4  10  18  41  74 101 123 178 237 283 334 398
#
# _framework density 25.198868999999998
#
# number of rings (size 3 to 8) (size 9 to 14) (size 15 to 20)
#    0.000    1.714    5.714    1.714    0.000    3.429 
#   20.571    2.857    0.000    0.000    0.000    0.000 
#    0.000    0.000    0.000    0.000    0.000    0.000 
#
# Total GULP energy -156566.985358 kJ/mol
# GULP energy per Si atom -5591.678048 kJ/mol
# Density = 2.514152 g / cm^3
# Si number density = 25.198869 Si / 1000 Ang^3
#
#
#
# Elastic Constant Matrix: (Units=GPa)
#
#
# Indices 1 2 3 4 5 6 
#
# 1 158.8178 38.4500 83.1837 0.0000 0.0000 0.0000
# 2 38.4500 72.2314 8.8075 0.0000 0.0000 0.0000
# 3 83.1837 8.8075 181.3863 0.0000 0.0000 0.0000
# 4 0.0000 0.0000 0.0000 24.3333 0.0000 0.0000
# 5 0.0000 0.0000 0.0000 0.0000 8.1931 0.0000
# 6 0.0000 0.0000 0.0000 0.0000 0.0000 50.5337
#
#
#
# Elastic Compliance Matrix: (Units=1/GPa)
#
#
# Indices 1 2 3 4 5 6 
#
# 1 0.009599 -0.004600 -0.004179 0.000000 0.000000 0.000000
# 2 -0.004600 0.016131 0.001326 0.000000 0.000000 0.000000
# 3 -0.004179 0.001326 0.007365 0.000000 0.000000 0.000000
# 4 0.000000 0.000000 0.000000 0.041096 0.000000 0.000000
# 5 0.000000 0.000000 0.000000 0.000000 0.122053 0.000000
# 6 0.000000 0.000000 0.000000 0.000000 0.000000 0.019789
#
#
# Mechanical properties :
#
#
# Convention : Reuss Voigt Hill
#
# Bulk Modulus (GPa) = 54.97414 74.81311 64.89362
# Shear Modulus (GPa) = 21.09688 35.41163 28.25425
#
# Velocity S-wave (km/s) = 2.89661 3.75278 3.35214
# Velocity P-wave (km/s) = 5.74896 6.96644 6.38678
#
# Compressibility (1/GPa) = 0.01819037
#
# Stress axis : x y z
#
# Youngs Moduli (GPa) = 104.17877 61.99086 135.77666
#
# Poissons Ratio (x) = 0.28517 0.56737
# Poissons Ratio (y) = 0.47924 -0.18008
# Poissons Ratio (z) = 0.43533 -0.08222
#
# Static dielectric constant tensor:
#      x y z
#    x 1.960600 0.000000 0.000000 
#    y 0.000000 2.157050 0.000000 
#    z 0.000000 0.000000 2.017520 
# 
# From -- ./inp_files/42677.got.cif
#   From: 2010.05.17/outbox.cif.g08.bks.cpg/sg68_22_cif.got.tgz:42677.got - 2010.06.03 18:57:09.
