data_PCOD9505481
_publ_section_title
;
Structure prediction by ZEFSAII (Michael W. Deem and Ramdas Pophale) SiO2 
 PCOD9505481
Probable space group: C C C A
;
_chemical_formula_sum "Si O2"
_cell_formula_units_Z 112
_cell_length_a 26.877879
_cell_length_b 18.710567
_cell_length_c 10.883145
_cell_angle_alpha 90.000000
_cell_angle_beta 90.000000
_cell_angle_gamma 90.000000
_cell_volume 5473.137493
_symmetry_space_group_name_H-M "C C C A"
_symmetry_group_IT_number 68
_space_group.IT_coordinate_system_code '2'
_symmetry_cell_setting 'orthorhombic'
loop_
_space_group_symop_operation_xyz
x,y,z
-x,1/2-y,z
x,1/2-y,1/2-z
-x,y,1/2-z
-x,-y,-z
x,1/2+y,-z
-x,1/2+y,1/2+z
x,-y,1/2+z
1/2+x,1/2+y,z
1/2-x,-y,z
1/2+x,-y,1/2-z
1/2-x,1/2+y,1/2-z
1/2-x,1/2-y,-z
1/2+x,y,-z
1/2-x,y,1/2+z
1/2+x,1/2-y,1/2+z
loop_
_atom_site_type_symbol
_atom_site_label
_atom_site_fract_x
_atom_site_fract_y
_atom_site_fract_z
Si Si1 0.095371 0.808575 0.954998
Si Si2 0.780554 0.750000 0.750000
Si Si3 0.851636 0.339681 0.103938
Si Si4 0.500000 0.250000 0.522398
Si Si5 0.549646 0.633838 0.202590
Si Si6 0.306322 0.472113 0.266270
Si Si7 0.272649 0.644025 0.601677
Si Si8 0.171232 0.062898 0.466955
O O1 0.127323 0.737007 0.941435
O O2 0.071938 0.826970 0.821794
O O3 0.129635 0.876035 0.982509
O O4 0.047049 0.789961 0.039043
O O5 0.816035 0.817048 0.782641
O O6 0.746621 0.777478 0.638761
O O7 0.898788 0.389334 0.137232
O O8 0.814346 0.363803 0.000330
O O9 0.473580 0.190433 0.607391
O O10 0.500000 0.591539 0.250000
O O11 0.250000 0.500000 0.271542
O O12 0.297543 0.390669 0.222827
O O13 0.334369 0.513874 0.155428
O O14 0.327597 0.477433 0.402642
O O15 0.225077 0.599689 0.554059
#
# Coordination Sequence:
#
# PCOD9505481 Si02
#       8
#    16   8  16   8  16  16  16  16
#     4  10  17  29  52  83 115 147 190 246 314 372
#     4  12  20  30  45  78 122 161 200 242 312 384
#     4  11  18  30  47  82 115 151 194 249 315 374
#     4   8  15  28  50  84 119 146 179 242 313 374
#     4   9  15  28  49  78 115 148 190 241 297 363
#     4  10  23  41  56  76 116 173 227 255 293 354
#     4  11  23  32  52  77 121 167 204 255 312 378
#     4  11  22  39  57  82 116 168 215 260 297 364
#
# _framework density 20.463581999999999
#
# number of rings (size 3 to 8) (size 9 to 14) (size 15 to 20)
#    0.000    1.714    2.857    6.214    2.000    3.429 
#    0.000    0.000    0.000    0.000    0.000   51.000 
#    0.000    1.143    0.000    0.000    0.000    0.000 
#
# Total GULP energy -311892.985557 kJ/mol
# GULP energy per Si atom -5569.517599 kJ/mol
# Density = 2.041701 g / cm^3
# Si number density = 20.463582 Si / 1000 Ang^3
#
#
#
# Elastic Constant Matrix: (Units=GPa)
#
#
# Indices 1 2 3 4 5 6 
#
# 1 135.6897 42.9272 44.4908 0.0000 0.0000 0.0000
# 2 42.9272 42.0002 25.8955 0.0000 0.0000 0.0000
# 3 44.4908 25.8955 92.5909 0.0000 0.0000 0.0000
# 4 0.0000 0.0000 0.0000 16.0654 0.0000 0.0000
# 5 0.0000 0.0000 0.0000 0.0000 21.5441 0.0000
# 6 0.0000 0.0000 0.0000 0.0000 0.0000 13.1547
#
#
#
# Elastic Compliance Matrix: (Units=1/GPa)
#
#
# Indices 1 2 3 4 5 6 
#
# 1 0.011419 -0.010015 -0.002686 0.000000 0.000000 0.000000
# 2 -0.010015 0.037554 -0.005691 0.000000 0.000000 0.000000
# 3 -0.002686 -0.005691 0.013682 0.000000 0.000000 0.000000
# 4 0.000000 0.000000 0.000000 0.062245 0.000000 0.000000
# 5 0.000000 0.000000 0.000000 0.000000 0.046416 0.000000
# 6 0.000000 0.000000 0.000000 0.000000 0.000000 0.076018
#
#
# Mechanical properties :
#
#
# Convention : Reuss Voigt Hill
#
# Bulk Modulus (GPa) = 38.65157 55.21195 46.93176
# Shear Modulus (GPa) = 17.07989 20.61734 18.84861
#
# Velocity S-wave (km/s) = 2.89216 3.17758 3.03822
# Velocity P-wave (km/s) = 5.48469 6.36411 5.94069
#
# Compressibility (1/GPa) = 0.02587217
#
# Stress axis : x y z
#
# Youngs Moduli (GPa) = 87.57553 26.62843 73.08668
#
# Poissons Ratio (x) = 0.26668 0.19631
# Poissons Ratio (y) = 0.87704 0.41592
# Poissons Ratio (z) = 0.23522 0.15154
#
# Static dielectric constant tensor:
#      x y z
#    x 1.813140 0.000000 0.000000 
#    y 0.000000 1.763060 0.000000 
#    z 0.000000 0.000000 1.766960 
# 
# From -- ./inp_files/16674.got.cif
#   From: 2010.05.17/outbox.cif.g08.bks.cpg/sg68_9_cif.got.tgz:16674.got - 2010.06.03 18:57:09.
