data_PCOD9505615
_publ_section_title
;
Structure prediction by ZEFSAII (Michael W. Deem and Ramdas Pophale) SiO2 
 PCOD9505615
Probable space group: C C C A
;
_chemical_formula_sum "Si O2"
_cell_formula_units_Z 88
_cell_length_a 11.867150
_cell_length_b 23.940028
_cell_length_c 14.118448
_cell_angle_alpha 90.000000
_cell_angle_beta 90.000000
_cell_angle_gamma 90.000000
_cell_volume 4011.049711
_symmetry_space_group_name_H-M "C C C A"
_symmetry_group_IT_number 68
_space_group.IT_coordinate_system_code '2'
_symmetry_cell_setting 'orthorhombic'
loop_
_space_group_symop_operation_xyz
x,y,z
-x,1/2-y,z
x,1/2-y,1/2-z
-x,y,1/2-z
-x,-y,-z
x,1/2+y,-z
-x,1/2+y,1/2+z
x,-y,1/2+z
1/2+x,1/2+y,z
1/2-x,-y,z
1/2+x,-y,1/2-z
1/2-x,1/2+y,1/2-z
1/2-x,1/2-y,-z
1/2+x,y,-z
1/2-x,y,1/2+z
1/2+x,1/2-y,1/2+z
loop_
_atom_site_type_symbol
_atom_site_label
_atom_site_fract_x
_atom_site_fract_y
_atom_site_fract_z
Si Si1 0.500000 0.750000 0.494197
Si Si2 0.681911 0.254756 0.349306
Si Si3 0.634555 0.966056 0.919429
Si Si4 0.644920 0.658181 0.387499
Si Si5 0.007055 0.431652 0.392714
Si Si6 0.736140 0.864663 0.417318
O O1 0.400481 0.730259 0.564375
O O2 0.551735 0.699852 0.433072
O O3 0.620049 0.250000 0.250000
O O4 0.774782 0.301841 0.329651
O O5 0.743078 0.197433 0.380060
O O6 0.678806 0.909851 0.870094
O O7 0.750000 0.000000 0.948406
O O8 0.560525 0.010020 0.859854
O O9 0.557674 0.947288 0.008805
O O10 0.585014 0.605773 0.338220
O O11 0.722428 0.636635 0.473793
O O12 0.112814 0.390669 0.409857
#
# Coordination Sequence:
#
# PCOD9505615 Si02
#       6
#     8  16  16  16  16  16
#     4  10  19  36  55  72 102 144 182 214 259 318
#     4  11  22  34  50  79 111 140 176 217 264 318
#     4   8  15  26  46  75  98 125 175 226 261 301
#     4  10  18  30  51  76 103 135 174 217 261 315
#     4   9  15  27  46  73 102 129 166 219 271 306
#     4   9  17  30  48  72 101 137 176 214 260 316
#
# _framework density 21.939395000000001
#
# number of rings (size 3 to 8) (size 9 to 14) (size 15 to 20)
#    0.000    2.545    0.000    4.636    0.000    0.000 
#    0.000    4.091    0.000    0.000    0.000  112.000 
#    0.000    0.000    0.000    0.000    0.000    0.000 
#
# Total GULP energy -245139.287737 kJ/mol
# GULP energy per Si atom -5571.347449 kJ/mol
# Density = 2.188946 g / cm^3
# Si number density = 21.939395 Si / 1000 Ang^3
#
#
#
# Elastic Constant Matrix: (Units=GPa)
#
#
# Indices 1 2 3 4 5 6 
#
# 1 105.5528 53.7245 14.3298 0.0000 0.0000 0.0000
# 2 53.7245 72.0726 -6.5862 0.0000 0.0000 0.0000
# 3 14.3298 -6.5862 38.2178 0.0000 0.0000 0.0000
# 4 0.0000 0.0000 0.0000 -5.1217 0.0000 0.0000
# 5 0.0000 0.0000 0.0000 0.0000 -0.7431 0.0000
# 6 0.0000 0.0000 0.0000 0.0000 0.0000 48.3553
#
#
#
# Elastic Compliance Matrix: (Units=1/GPa)
#
#
# Indices 1 2 3 4 5 6 
#
# 1 0.017965 -0.014231 -0.009188 0.000000 0.000000 0.000000
# 2 -0.014231 0.025370 0.009708 0.000000 0.000000 0.000000
# 3 -0.009188 0.009708 0.031284 0.000000 0.000000 0.000000
# 4 0.000000 0.000000 0.000000 -0.195247 0.000000 0.000000
# 5 0.000000 0.000000 0.000000 0.000000 -1.345769 0.000000
# 6 0.000000 0.000000 0.000000 0.000000 0.000000 0.020680
#
#
# Mechanical properties :
#
#
# Convention : Reuss Voigt Hill
#
# Bulk Modulus (GPa) = 21.18811 37.64217 29.41514
# Shear Modulus (GPa) = -3.56490 18.78978 7.61244
#
# Velocity S-wave (km/s) = -1.27609 2.92968 1.86475
# Velocity P-wave (km/s) = 2.73995 5.35150 4.25123
#
# Compressibility (1/GPa) = 0.04719628
#
# Stress axis : x y z
#
# Youngs Moduli (GPa) = 55.66507 39.41656 31.96524
#
# Poissons Ratio (x) = 0.56093 0.29371
# Poissons Ratio (y) = 0.79216 -0.31032
# Poissons Ratio (z) = 0.51147 -0.38266
#
# Static dielectric constant tensor:
#      x y z
#    x 1.783610 0.000000 0.000000 
#    y 0.000000 1.940140 0.000000 
#    z 0.000000 0.000000 1.762860 
# 
# From -- ./inp_files/20961.got.cif
#   From: 2010.05.17/outbox.cif.g08.bks.cpg/sg68_11_cif.got.tgz:20961.got - 2010.06.03 18:57:09.
