data_PCOD9505491
_publ_section_title
;
Structure prediction by ZEFSAII (Michael W. Deem and Ramdas Pophale) SiO2 
 PCOD9505491
Probable space group: C C C A
;
_chemical_formula_sum "Si O2"
_cell_formula_units_Z 104
_cell_length_a 8.545740
_cell_length_b 22.090627
_cell_length_c 28.419744
_cell_angle_alpha 90.000000
_cell_angle_beta 90.000000
_cell_angle_gamma 90.000000
_cell_volume 5365.100723
_symmetry_space_group_name_H-M "C C C A"
_symmetry_group_IT_number 68
_space_group.IT_coordinate_system_code '2'
_symmetry_cell_setting 'orthorhombic'
loop_
_space_group_symop_operation_xyz
x,y,z
-x,1/2-y,z
x,1/2-y,1/2-z
-x,y,1/2-z
-x,-y,-z
x,1/2+y,-z
-x,1/2+y,1/2+z
x,-y,1/2+z
1/2+x,1/2+y,z
1/2-x,-y,z
1/2+x,-y,1/2-z
1/2-x,1/2+y,1/2-z
1/2-x,1/2-y,-z
1/2+x,y,-z
1/2-x,y,1/2+z
1/2+x,1/2-y,1/2+z
loop_
_atom_site_type_symbol
_atom_site_label
_atom_site_fract_x
_atom_site_fract_y
_atom_site_fract_z
Si Si1 0.750000 0.000000 0.360224
Si Si2 0.537008 0.403976 0.695655
Si Si3 0.752155 0.211253 0.318472
Si Si4 0.947797 0.938568 0.442924
Si Si5 0.536674 0.315994 0.095949
Si Si6 0.275301 0.851800 0.828473
Si Si7 0.250000 0.000000 0.975666
Si Si8 0.500000 0.341835 0.250000
O O1 0.651916 0.952441 0.328721
O O2 0.866247 0.964251 0.395655
O O3 0.500000 0.419436 0.750000
O O4 0.617714 0.337486 0.694891
O O5 0.374256 0.394635 0.667448
O O6 0.684465 0.193897 0.369640
O O7 0.783260 0.282952 0.316279
O O8 0.608470 0.197142 0.284002
O O9 0.855060 0.960709 0.488720
O O10 0.935204 0.866810 0.441706
O O11 0.125754 0.961594 0.446079
O O12 0.500000 0.250000 0.076721
O O13 0.392292 0.340829 0.128050
O O14 0.382299 0.875680 0.785152
#
# Coordination Sequence:
#
# PCOD9505491 Si02
#       8
#     8  16  16  16  16  16   8   8
#     4  11  26  44  57  80 122 170 201 258 302 353
#     4  12  24  39  53  83 117 165 220 263 297 339
#     4  10  18  34  54  84 116 153 207 255 303 347
#     4  10  20  44  67  90 123 145 203 244 310 371
#     4   9  19  36  61  89 123 158 189 241 304 374
#     4  10  20  31  57  86 112 157 208 250 308 354
#     4   9  22  38  73 102 108 154 193 256 286 377
#     4  10  17  30  52  80 114 154 198 260 309 342
#
# _framework density 19.384537000000002
#
# number of rings (size 3 to 8) (size 9 to 14) (size 15 to 20)
#    0.000    1.846    3.077    2.769    2.154    0.615 
#    4.154    0.769    0.000    0.000    0.000    0.000 
#    0.000    0.000    0.000    0.000    0.000    0.000 
#
# Total GULP energy -290102.822522 kJ/mol
# GULP energy per Si atom -5578.900433 kJ/mol
# Density = 1.934042 g / cm^3
# Si number density = 19.384537 Si / 1000 Ang^3
#
#
#
# Elastic Constant Matrix: (Units=GPa)
#
#
# Indices 1 2 3 4 5 6 
#
# 1 108.4670 36.3840 24.1582 0.0000 0.0000 0.0000
# 2 36.3840 71.5748 33.3903 0.0000 0.0000 0.0000
# 3 24.1582 33.3903 43.2772 0.0000 0.0000 0.0000
# 4 0.0000 0.0000 0.0000 -37.1398 0.0000 0.0000
# 5 0.0000 0.0000 0.0000 0.0000 -12.1810 0.0000
# 6 0.0000 0.0000 0.0000 0.0000 0.0000 33.7314
#
#
#
# Elastic Compliance Matrix: (Units=1/GPa)
#
#
# Indices 1 2 3 4 5 6 
#
# 1 0.011350 -0.004396 -0.002944 0.000000 0.000000 0.000000
# 2 -0.004396 0.023531 -0.015701 0.000000 0.000000 0.000000
# 3 -0.002944 -0.015701 0.036864 0.000000 0.000000 0.000000
# 4 0.000000 0.000000 0.000000 -0.026925 0.000000 0.000000
# 5 0.000000 0.000000 0.000000 0.000000 -0.082095 0.000000
# 6 0.000000 0.000000 0.000000 0.000000 0.000000 0.029646
#
#
# Mechanical properties :
#
#
# Convention : Reuss Voigt Hill
#
# Bulk Modulus (GPa) = 38.96706 45.68711 42.32708
# Shear Modulus (GPa) = 106.36756 5.50788 55.93772
#
# Velocity S-wave (km/s) = 7.41563 1.68747 5.37769
# Velocity P-wave (km/s) = 9.66787 5.23610 7.77446
#
# Compressibility (1/GPa) = 0.02566270
#
# Stress axis : x y z
#
# Youngs Moduli (GPa) = 88.10813 42.49749 27.12656
#
# Poissons Ratio (x) = 0.18682 0.07986
# Poissons Ratio (y) = 0.38733 0.42592
# Poissons Ratio (z) = 0.25938 0.66726
#
# Static dielectric constant tensor:
#      x y z
#    x 1.728320 0.000000 0.000000 
#    y 0.000000 1.685050 0.000000 
#    z 0.000000 0.000000 1.677430 
# 
# From -- ./inp_files/54152.got.cif
#   From: 2010.05.17/outbox.cif.g08.bks.cpg/sg68_28_cif.got.tgz:54152.got - 2010.06.03 18:57:09.
