data_PCOD9505543
_publ_section_title
;
Structure prediction by ZEFSAII (Michael W. Deem and Ramdas Pophale) SiO2 
 PCOD9505543
Probable space group: C C C A
;
_chemical_formula_sum "Si O2"
_cell_formula_units_Z 88
_cell_length_a 13.846762
_cell_length_b 22.476936
_cell_length_c 13.084142
_cell_angle_alpha 90.000000
_cell_angle_beta 90.000000
_cell_angle_gamma 90.000000
_cell_volume 4072.213932
_symmetry_space_group_name_H-M "C C C A"
_symmetry_group_IT_number 68
_space_group.IT_coordinate_system_code '2'
_symmetry_cell_setting 'orthorhombic'
loop_
_space_group_symop_operation_xyz
x,y,z
-x,1/2-y,z
x,1/2-y,1/2-z
-x,y,1/2-z
-x,-y,-z
x,1/2+y,-z
-x,1/2+y,1/2+z
x,-y,1/2+z
1/2+x,1/2+y,z
1/2-x,-y,z
1/2+x,-y,1/2-z
1/2-x,1/2+y,1/2-z
1/2-x,1/2-y,-z
1/2+x,y,-z
1/2-x,y,1/2+z
1/2+x,1/2-y,1/2+z
loop_
_atom_site_type_symbol
_atom_site_label
_atom_site_fract_x
_atom_site_fract_y
_atom_site_fract_z
Si Si1 0.227992 0.250000 0.250000
Si Si2 0.593843 0.880804 0.984966
Si Si3 0.107248 0.637982 0.710701
Si Si4 0.890301 0.755168 0.397374
Si Si5 0.577763 0.126686 0.156832
Si Si6 0.772000 0.069339 0.809747
O O1 0.161314 0.200857 0.299840
O O2 0.304116 0.279551 0.327693
O O3 0.599185 0.807705 0.979650
O O4 0.491720 0.898045 0.932159
O O5 0.674838 0.908956 0.912525
O O6 0.603989 0.895907 0.102877
O O7 0.171139 0.602350 0.791586
O O8 0.000000 0.647799 0.750000
O O9 0.870130 0.684132 0.396752
O O10 0.000000 0.750000 0.358479
O O11 0.500000 0.139882 0.250000
O O12 0.657997 0.087453 0.213953
O O13 0.750000 0.000000 0.812178
#
# Coordination Sequence:
#
# PCOD9505543 Si02
#       6
#     8  16  16  16  16  16
#     4  12  20  40  64 100 144 176 216 262 344 414
#     4  10  23  43  70 100 128 179 224 271 341 406
#     4  12  28  44  62 100 149 176 211 275 344 409
#     4  10  17  34  69 103 130 162 225 278 321 406
#     4   9  18  37  68 101 126 163 225 282 328 395
#     4  11  24  46  71  95 125 174 237 288 328 385
#
# _framework density 21.609866
#
# number of rings (size 3 to 8) (size 9 to 14) (size 15 to 20)
#    0.000    1.455    3.636    2.727    0.000   11.636 
#    0.000    1.818    0.000    0.000    0.000    0.000 
#    0.000    0.000    0.000    0.000    0.000    0.000 
#
# Total GULP energy -245107.453822 kJ/mol
# GULP energy per Si atom -5570.623950 kJ/mol
# Density = 2.156068 g / cm^3
# Si number density = 21.609866 Si / 1000 Ang^3
#
#
#
# Elastic Constant Matrix: (Units=GPa)
#
#
# Indices 1 2 3 4 5 6 
#
# 1 160.9637 30.3817 44.7720 0.0000 0.0000 0.0000
# 2 30.3817 78.2369 1.2660 0.0000 0.0000 0.0000
# 3 44.7720 1.2660 62.0793 0.0000 0.0000 0.0000
# 4 0.0000 0.0000 0.0000 -2.5525 0.0000 0.0000
# 5 0.0000 0.0000 0.0000 0.0000 -4.4482 0.0000
# 6 0.0000 0.0000 0.0000 0.0000 0.0000 13.1707
#
#
#
# Elastic Compliance Matrix: (Units=1/GPa)
#
#
# Indices 1 2 3 4 5 6 
#
# 1 0.008506 -0.003205 -0.006069 0.000000 0.000000 0.000000
# 2 -0.003205 0.013993 0.002026 0.000000 0.000000 0.000000
# 3 -0.006069 0.002026 0.020444 0.000000 0.000000 0.000000
# 4 0.000000 0.000000 0.000000 -0.391774 0.000000 0.000000
# 5 0.000000 0.000000 0.000000 0.000000 -0.224809 0.000000
# 6 0.000000 0.000000 0.000000 0.000000 0.000000 0.075926
#
#
# Mechanical properties :
#
#
# Convention : Reuss Voigt Hill
#
# Bulk Modulus (GPa) = 35.15245 50.45772 42.80509
# Shear Modulus (GPa) = -10.55441 16.22468 2.83514
#
# Velocity S-wave (km/s) = -2.21239 2.74305 1.14665
# Velocity P-wave (km/s) = 3.12665 5.78208 4.64803
#
# Compressibility (1/GPa) = 0.02844752
#
# Stress axis : x y z
#
# Youngs Moduli (GPa) = 117.57058 71.46219 48.91407
#
# Poissons Ratio (x) = 0.22902 0.29685
# Poissons Ratio (y) = 0.37678 -0.09910
# Poissons Ratio (z) = 0.71352 -0.14478
#
# Static dielectric constant tensor:
#      x y z
#    x 1.782830 0.000000 0.000000 
#    y 0.000000 1.881500 0.000000 
#    z 0.000000 0.000000 1.826470 
# 
# From -- ./inp_files/20990.got.cif
#   From: 2010.05.17/outbox.cif.g08.bks.cpg/sg68_11_cif.got.tgz:20990.got - 2010.06.03 18:57:09.
