data_PCOD9505592
_publ_section_title
;
Structure prediction by ZEFSAII (Michael W. Deem and Ramdas Pophale) SiO2 
 PCOD9505592
Probable space group: C C C A
;
_chemical_formula_sum "Si O2"
_cell_formula_units_Z 80
_cell_length_a 31.128703
_cell_length_b 18.505024
_cell_length_c 5.513818
_cell_angle_alpha 90.000000
_cell_angle_beta 90.000000
_cell_angle_gamma 90.000000
_cell_volume 3176.165363
_symmetry_space_group_name_H-M "C C C A"
_symmetry_group_IT_number 68
_space_group.IT_coordinate_system_code '2'
_symmetry_cell_setting 'orthorhombic'
loop_
_space_group_symop_operation_xyz
x,y,z
-x,1/2-y,z
x,1/2-y,1/2-z
-x,y,1/2-z
-x,-y,-z
x,1/2+y,-z
-x,1/2+y,1/2+z
x,-y,1/2+z
1/2+x,1/2+y,z
1/2-x,-y,z
1/2+x,-y,1/2-z
1/2-x,1/2+y,1/2-z
1/2-x,1/2-y,-z
1/2+x,y,-z
1/2-x,y,1/2+z
1/2+x,1/2-y,1/2+z
loop_
_atom_site_type_symbol
_atom_site_label
_atom_site_fract_x
_atom_site_fract_y
_atom_site_fract_z
Si Si1 0.864932 0.596398 0.158052
Si Si2 0.232767 0.081254 0.517409
Si Si3 0.173297 0.250000 0.750000
Si Si4 0.517189 0.832757 0.495652
Si Si5 0.820291 0.750000 0.750000
Si Si6 0.110134 0.375865 0.348304
O O1 0.817348 0.573468 0.077210
O O2 0.857637 0.681428 0.219806
O O3 0.876833 0.570198 0.430754
O O4 0.895594 0.590998 0.922968
O O5 0.243766 0.114508 0.254070
O O6 0.250000 0.000000 0.490658
O O7 0.201106 0.245262 0.508844
O O8 0.500000 0.750000 0.496232
O O9 0.500000 0.863983 0.750000
O O10 0.568035 0.836551 0.453358
O O11 0.500000 0.868933 0.250000
O O12 0.851982 0.681385 0.708159
#
# Coordination Sequence:
#
# PCOD9505592 Si02
#       6
#    16  16   8  16   8  16
#     4  10  19  33  51  74 104 142 186 229 269 327
#     4  10  21  38  59  81 105 137 173 228 296 346
#     4   8  16  26  42  67  93 126 169 212 249 298
#     4  10  19  28  41  65 100 147 194 232 264 305
#     4   8  14  24  39  59  88 124 171 218 247 280
#     4  10  18  29  46  69 101 144 191 228 260 312
#
# _framework density 25.187605000000001
#
# number of rings (size 3 to 8) (size 9 to 14) (size 15 to 20)
#    0.000    2.400    0.000    3.600    0.000    8.000 
#    0.000    1.000    0.000    0.000    0.000    0.000 
#    0.000    0.000    0.000  252.000    0.000    0.000 
#
# Total GULP energy -223062.751695 kJ/mol
# GULP energy per Si atom -5576.568792 kJ/mol
# Density = 2.513028 g / cm^3
# Si number density = 25.187605 Si / 1000 Ang^3
#
#
#
# Elastic Constant Matrix: (Units=GPa)
#
#
# Indices 1 2 3 4 5 6 
#
# 1 137.1354 11.5936 48.9349 0.0000 0.0000 0.0000
# 2 11.5936 66.2839 0.1741 0.0000 0.0000 0.0000
# 3 48.9349 0.1741 340.9313 0.0000 0.0000 0.0000
# 4 0.0000 0.0000 0.0000 -8.0734 0.0000 0.0000
# 5 0.0000 0.0000 0.0000 0.0000 43.7578 0.0000
# 6 0.0000 0.0000 0.0000 0.0000 0.0000 14.3064
#
#
#
# Elastic Compliance Matrix: (Units=1/GPa)
#
#
# Indices 1 2 3 4 5 6 
#
# 1 0.007807 -0.001363 -0.001120 0.000000 0.000000 0.000000
# 2 -0.001363 0.015324 0.000188 0.000000 0.000000 0.000000
# 3 -0.001120 0.000188 0.003094 0.000000 0.000000 0.000000
# 4 0.000000 0.000000 0.000000 -0.123863 0.000000 0.000000
# 5 0.000000 0.000000 0.000000 0.000000 0.022853 0.000000
# 6 0.000000 0.000000 0.000000 0.000000 0.000000 0.069899
#
#
# Mechanical properties :
#
#
# Convention : Reuss Voigt Hill
#
# Bulk Modulus (GPa) = 46.21969 73.97284 60.09627
# Shear Modulus (GPa) = 723.03170 42.24136 382.63653
#
# Velocity S-wave (km/s) = 16.96118 4.09965 12.33874
# Velocity P-wave (km/s) = 20.04908 7.20014 15.06333
#
# Compressibility (1/GPa) = 0.02163580
#
# Stress axis : x y z
#
# Youngs Moduli (GPa) = 128.09259 65.25523 323.22908
#
# Poissons Ratio (x) = 0.08891 0.36197
# Poissons Ratio (y) = 0.17453 -0.06068
# Poissons Ratio (z) = 0.14344 -0.01225
#
# Static dielectric constant tensor:
#      x y z
#    x 1.948180 0.000000 0.000000 
#    y 0.000000 2.205140 0.000000 
#    z 0.000000 0.000000 2.220330 
# 
# From -- ./inp_files/2400.got.cif
#   From: 2010.05.17/outbox.cif.g08.bks.cpg/sg68_2_cif.got.tgz:2400.got - 2010.06.03 18:57:09.
