data_PCOD9505204
_publ_section_title
;
Structure prediction by ZEFSAII (Michael W. Deem and Ramdas Pophale) SiO2 
 PCOD9505204
Probable space group: C M M A
;
_chemical_formula_sum "Si O2"
_cell_formula_units_Z 52
_cell_length_a 21.000000
_cell_length_b 9.000000
_cell_length_c 30.000000
_cell_angle_alpha 90.000000
_cell_angle_beta 90.000000
_cell_angle_gamma 90.000000
_cell_volume 5670.000000
_symmetry_space_group_name_H-M "C M M A"
_symmetry_group_IT_number 67
_symmetry_cell_setting 'orthorhombic'
loop_
_space_group_symop_operation_xyz
x,y,z
-x,1/2-y,z
x,-y,-z
-x,1/2+y,-z
-x,-y,-z
x,1/2+y,-z
-x,y,z
x,1/2-y,z
1/2+x,1/2+y,z
1/2-x,-y,z
1/2+x,1/2-y,-z
1/2-x,y,-z
1/2-x,1/2-y,-z
1/2+x,y,-z
1/2-x,1/2+y,z
1/2+x,-y,z
loop_
_atom_site_type_symbol
_atom_site_label
_atom_site_fract_x
_atom_site_fract_y
_atom_site_fract_z
Si Si1 0.859837 0.428843 0.451662
Si Si2 0.571971 0.427439 0.203044
Si Si3 0.070629 0.426843 0.299446
Si Si4 0.000000 0.072489 0.451622
Si Si5 0.820027 0.926263 0.957222
Si Si6 0.679824 0.927097 0.142993
Si Si7 0.688500 0.571724 0.359719
O O1 0.848755 0.500000 0.500000
O O2 0.855804 0.250000 0.456686
O O3 0.816564 0.478267 0.411019
O O4 0.930991 0.467300 0.433754
O O5 0.500000 0.466192 0.187095
O O6 0.578636 0.250000 0.201034
O O7 0.575690 0.483725 0.253781
O O8 0.628164 0.504447 0.175875
O O9 0.076808 0.250000 0.289918
O O10 0.125577 0.470054 0.333124
O O11 0.000000 0.449204 0.318808
O O12 0.000000 0.250000 0.455014
O O13 0.000000 0.000000 0.500000
O O14 0.814647 0.750000 0.964103
O O15 0.845246 0.953048 0.907613
O O16 0.750000 0.000000 0.955487
O O17 0.853260 0.000000 0.000000
O O18 0.686196 0.750000 0.149257
O O19 0.750000 0.000000 0.147850
O O20 0.692966 0.750000 0.359667
O O21 0.750000 0.500000 0.338081
#
# Coordination Sequence:
#
# PCOD9505204 Si02
#       7
#    16  16  16   8  16  16  16
#     4   9  18  32  51  75 102 133 168 206 248 295
#     4  10  21  37  57  81 109 140 175 219 272 326
#     4   9  19  37  60  80  99 131 175 217 258 310
#     4   8  14  26  46  70  96 122 156 202 242 278
#     4   9  16  26  43  69 102 140 180 223 268 315
#     4  10  20  33  52  80 111 144 184 227 272 321
#     4  10  22  37  54  78 106 137 170 207 254 306
#
# _framework density 9.1710759999999993
#
# number of rings (size 3 to 8) (size 9 to 14) (size 15 to 20)
#    0.000    2.615    0.000    1.846    1.077    4.923 
#    0.000    3.077    0.000    0.462    0.000    0.000 
#    0.000    0.000    0.000    0.000    0.000    0.000 
#
# Total GULP energy -289539.739952 kJ/mol
# GULP energy per Si atom -5568.071922 kJ/mol
# Density = 0.915020 g / cm^3
# Si number density = 9.171076 Si / 1000 Ang^3
#
#
#
# Elastic Constant Matrix: (Units=GPa)
#
#
# Indices 1 2 3 4 5 6 
#
# 1 129.7647 48.5913 73.4571 0.0000 0.0000 0.0000
# 2 48.5913 41.2800 40.4419 0.0000 0.0000 0.0000
# 3 73.4571 40.4419 85.0364 0.0000 0.0000 0.0000
# 4 0.0000 0.0000 0.0000 21.9263 0.0000 0.0000
# 5 0.0000 0.0000 0.0000 0.0000 23.6819 0.0000
# 6 0.0000 0.0000 0.0000 0.0000 0.0000 21.9976
#
#
#
# Elastic Compliance Matrix: (Units=1/GPa)
#
#
# Indices 1 2 3 4 5 6 
#
# 1 0.017286 -0.010707 -0.009840 0.000000 0.000000 0.000000
# 2 -0.010707 0.051991 -0.015477 0.000000 0.000000 0.000000
# 3 -0.009840 -0.015477 0.027620 0.000000 0.000000 0.000000
# 4 0.000000 0.000000 0.000000 0.045607 0.000000 0.000000
# 5 0.000000 0.000000 0.000000 0.000000 0.042226 0.000000
# 6 0.000000 0.000000 0.000000 0.000000 0.000000 0.045460
#
#
# Mechanical properties :
#
#
# Convention : Reuss Voigt Hill
#
# Bulk Modulus (GPa) = 40.24269 64.56240 52.40254
# Shear Modulus (GPa) = 16.10196 19.76055 17.93125
#
# Velocity S-wave (km/s) = 2.96610 3.28583 3.13005
# Velocity P-wave (km/s) = 5.80671 7.04776 6.45712
#
# Compressibility (1/GPa) = 0.02484923
#
# Stress axis : x y z
#
# Youngs Moduli (GPa) = 57.85094 19.23401 36.20555
#
# Poissons Ratio (x) = 0.20595 0.35625
# Poissons Ratio (y) = 0.61943 0.56035
# Poissons Ratio (z) = 0.56924 0.29768
#
# Static dielectric constant tensor:
#      x y z
#    x 1.667890 0.000000 0.000000 
#    y 0.000000 1.610780 0.000000 
#    z 0.000000 0.000000 1.643540 
# 
# From -- ./inp_files/45897.got.cif
#   From: 2010.05.17/outbox.ucp.g08.bks.cvg/sg67_23_cif.got.tgz:45897.got - 2010.06.11 16:47:20.
