data_PCOD9505700
_publ_section_title
;
Structure prediction by ZEFSAII (Michael W. Deem and Ramdas Pophale) SiO2 
 PCOD9505700
Probable space group: C C C A
;
_chemical_formula_sum "Si O2"
_cell_formula_units_Z 120
_cell_length_a 18.524060
_cell_length_b 15.782667
_cell_length_c 21.392007
_cell_angle_alpha 90.000000
_cell_angle_beta 90.000000
_cell_angle_gamma 90.000000
_cell_volume 6254.147282
_symmetry_space_group_name_H-M "C C C A"
_symmetry_group_IT_number 68
_space_group.IT_coordinate_system_code '2'
_symmetry_cell_setting 'orthorhombic'
loop_
_space_group_symop_operation_xyz
x,y,z
-x,1/2-y,z
x,1/2-y,1/2-z
-x,y,1/2-z
-x,-y,-z
x,1/2+y,-z
-x,1/2+y,1/2+z
x,-y,1/2+z
1/2+x,1/2+y,z
1/2-x,-y,z
1/2+x,-y,1/2-z
1/2-x,1/2+y,1/2-z
1/2-x,1/2-y,-z
1/2+x,y,-z
1/2-x,y,1/2+z
1/2+x,1/2-y,1/2+z
loop_
_atom_site_type_symbol
_atom_site_label
_atom_site_fract_x
_atom_site_fract_y
_atom_site_fract_z
Si Si1 0.008216 0.467883 0.071544
Si Si2 0.337299 0.747994 0.681673
Si Si3 0.309936 0.145989 0.783550
Si Si4 0.756479 0.900455 0.846716
Si Si5 0.926824 0.202341 0.124171
Si Si6 0.870710 0.865544 0.941273
Si Si7 0.750000 0.000000 0.137989
Si Si8 0.119141 0.607619 0.088277
O O1 0.056053 0.383727 0.085623
O O2 0.051307 0.545781 0.103131
O O3 0.928215 0.433060 0.088209
O O4 0.000000 0.500000 0.000000
O O5 0.373509 0.750000 0.750000
O O6 0.261028 0.698731 0.694841
O O7 0.314794 0.842122 0.659643
O O8 0.378379 0.690873 0.631423
O O9 0.307664 0.134297 0.709369
O O10 0.380439 0.183897 0.814594
O O11 0.298584 0.056512 0.816727
O O12 0.792944 0.887649 0.913752
O O13 0.750000 0.000000 0.835511
O O14 0.886387 0.270330 0.081004
O O15 0.000000 0.250000 0.141476
O O16 0.880961 0.869721 0.015244
O O17 0.806050 0.943560 0.099321
#
# Coordination Sequence:
#
# PCOD9505700 Si02
#       8
#    16  16  16  16  16  16   8  16
#     4   9  19  38  60  82 113 156 195 238 288 356
#     4   9  20  36  58  84 115 151 195 242 295 356
#     4  10  18  36  58  80 113 155 198 235 298 358
#     4  11  22  37  56  85 124 155 187 251 312 355
#     4  10  19  35  59  84 118 152 196 245 297 361
#     4  10  22  37  54  89 119 152 191 240 306 353
#     4  10  18  32  58  86 102 156 198 240 274 362
#     4  10  20  36  59  84 118 151 199 237 289 356
#
# _framework density 19.187269000000001
#
# number of rings (size 3 to 8) (size 9 to 14) (size 15 to 20)
#    0.000    2.133    3.333    0.000    0.933    0.533 
#    4.800    4.667    0.000    0.000    0.000    2.800 
#    0.000    0.000    0.000    0.000    0.000    0.000 
#
# Total GULP energy -334208.821808 kJ/mol
# GULP energy per Si atom -5570.147030 kJ/mol
# Density = 1.914360 g / cm^3
# Si number density = 19.187269 Si / 1000 Ang^3
#
#
#
# Elastic Constant Matrix: (Units=GPa)
#
#
# Indices 1 2 3 4 5 6 
#
# 1 24.7895 27.4844 24.3690 0.0000 0.0000 0.0000
# 2 27.4844 136.7486 50.6152 0.0000 0.0000 0.0000
# 3 24.3690 50.6152 85.5919 0.0000 0.0000 0.0000
# 4 0.0000 0.0000 0.0000 28.4242 0.0000 0.0000
# 5 0.0000 0.0000 0.0000 0.0000 19.7365 0.0000
# 6 0.0000 0.0000 0.0000 0.0000 0.0000 21.0204
#
#
#
# Elastic Compliance Matrix: (Units=1/GPa)
#
#
# Indices 1 2 3 4 5 6 
#
# 1 0.061534 -0.007531 -0.013066 0.000000 0.000000 0.000000
# 2 -0.007531 0.010284 -0.003937 0.000000 0.000000 0.000000
# 3 -0.013066 -0.003937 0.017731 0.000000 0.000000 0.000000
# 4 0.000000 0.000000 0.000000 0.035181 0.000000 0.000000
# 5 0.000000 0.000000 0.000000 0.000000 0.050667 0.000000
# 6 0.000000 0.000000 0.000000 0.000000 0.000000 0.047573
#
#
# Mechanical properties :
#
#
# Convention : Reuss Voigt Hill
#
# Bulk Modulus (GPa) = 24.70304 50.22970 37.46637
# Shear Modulus (GPa) = 17.51115 23.48032 20.49573
#
# Velocity S-wave (km/s) = 3.02428 3.50200 3.27187
# Velocity P-wave (km/s) = 5.00976 6.52591 5.81744
#
# Compressibility (1/GPa) = 0.04048086
#
# Stress axis : x y z
#
# Youngs Moduli (GPa) = 16.25120 97.24240 56.39692
#
# Poissons Ratio (x) = 0.73236 0.73687
# Poissons Ratio (y) = 0.12239 0.22203
# Poissons Ratio (z) = 0.21233 0.38284
#
# Static dielectric constant tensor:
#      x y z
#    x 1.685420 0.000000 0.000000 
#    y 0.000000 1.707970 0.000000 
#    z 0.000000 0.000000 1.660020 
# 
# From -- ./inp_files/40397.got.cif
#   From: 2010.05.17/outbox.cif.g08.bks.cpg/sg68_21_cif.got.tgz:40397.got - 2010.06.03 18:57:09.
