data_PCOD9505170
_publ_section_title
;
Structure prediction by ZEFSAII (Michael W. Deem and Ramdas Pophale) SiO2 
 PCOD9505170
Probable space group: C M M A
;
_chemical_formula_sum "Si O2"
_cell_formula_units_Z 48
_cell_length_a 9.000000
_cell_length_b 24.000000
_cell_length_c 24.000000
_cell_angle_alpha 90.000000
_cell_angle_beta 90.000000
_cell_angle_gamma 90.000000
_cell_volume 5184.000000
_symmetry_space_group_name_H-M "C M M A"
_symmetry_group_IT_number 67
_symmetry_cell_setting 'orthorhombic'
loop_
_space_group_symop_operation_xyz
x,y,z
-x,1/2-y,z
x,-y,-z
-x,1/2+y,-z
-x,-y,-z
x,1/2+y,-z
-x,y,z
x,1/2-y,z
1/2+x,1/2+y,z
1/2-x,-y,z
1/2+x,1/2-y,-z
1/2-x,y,-z
1/2-x,1/2-y,-z
1/2+x,y,-z
1/2-x,1/2+y,z
1/2+x,-y,z
loop_
_atom_site_type_symbol
_atom_site_label
_atom_site_fract_x
_atom_site_fract_y
_atom_site_fract_z
Si Si1 0.321367 0.684898 0.440581
Si Si2 0.673752 0.441332 0.770679
Si Si3 0.749225 0.125987 0.878431
Si Si4 0.829465 0.750000 0.150917
Si Si5 0.000000 0.953106 0.079718
Si Si6 0.677494 0.750000 0.267341
Si Si7 0.000000 0.580318 0.950220
Si Si8 0.818490 0.363383 0.325982
O O1 0.500000 0.682273 0.444974
O O2 0.285024 0.750000 0.426881
O O3 0.250000 0.671806 0.500000
O O4 0.274176 0.644342 0.390282
O O5 0.500000 0.453150 0.764975
O O6 0.750000 0.500000 0.784658
O O7 0.688200 0.393174 0.818040
O O8 0.731451 0.414649 0.712562
O O9 0.803237 0.189977 0.878559
O O10 0.865267 0.077067 0.890687
O O11 0.636258 0.116271 0.928696
O O12 0.721130 0.750000 0.203340
O O13 0.000000 0.750000 0.169887
O O14 0.000000 0.019942 0.080900
O O15 0.000000 0.934648 0.014906
O O16 0.500000 0.750000 0.273150
O O17 0.731895 0.693636 0.296140
O O18 0.000000 0.364377 0.324848
#
# Coordination Sequence:
#
# PCOD9505170 Si02
#       8
#    16  16  16   8   8   8   8  16
#     4   9  16  28  49  76 111 148 186 234 283 336
#     4  11  23  38  60  89 117 149 194 246 298 350
#     4  12  24  41  64  91 122 157 196 241 298 356
#     4  12  26  42  57  87 130 165 189 239 306 353
#     4  11  24  45  67  89 127 150 194 247 298 346
#     4  10  18  34  59  82 110 151 199 234 274 351
#     4  11  24  43  69  97 111 156 202 247 286 346
#     4   9  17  32  55  83 111 148 194 235 282 342
#
# _framework density 9.2592590000000001
#
# number of rings (size 3 to 8) (size 9 to 14) (size 15 to 20)
#    0.000    1.500    4.167    2.000    2.333    1.333 
#    0.000    4.167    0.000    0.500    0.000    3.500 
#    0.000    0.000    0.000    0.000    0.000    0.000 
#
# Total GULP energy -267493.643676 kJ/mol
# GULP energy per Si atom -5572.784243 kJ/mol
# Density = 0.923818 g / cm^3
# Si number density = 9.259259 Si / 1000 Ang^3
#
#
#
# Elastic Constant Matrix: (Units=GPa)
#
#
# Indices 1 2 3 4 5 6 
#
# 1 20.6779 5.4876 0.6472 0.0000 0.0000 0.0000
# 2 5.4876 100.9244 23.3142 0.0000 0.0000 0.0000
# 3 0.6472 23.3142 76.4223 0.0000 0.0000 0.0000
# 4 0.0000 0.0000 0.0000 33.7128 0.0000 0.0000
# 5 0.0000 0.0000 0.0000 0.0000 22.6870 0.0000
# 6 0.0000 0.0000 0.0000 0.0000 0.0000 -785.5629
#
#
#
# Elastic Compliance Matrix: (Units=1/GPa)
#
#
# Indices 1 2 3 4 5 6 
#
# 1 0.049082 -0.002768 0.000429 0.000000 0.000000 0.000000
# 2 -0.002768 0.010816 -0.003276 0.000000 0.000000 0.000000
# 3 0.000429 -0.003276 0.014081 0.000000 0.000000 0.000000
# 4 0.000000 0.000000 0.000000 0.029662 0.000000 0.000000
# 5 0.000000 0.000000 0.000000 0.000000 0.044078 0.000000
# 6 0.000000 0.000000 0.000000 0.000000 0.000000 -0.001273
#
#
# Mechanical properties :
#
#
# Convention : Reuss Voigt Hill
#
# Bulk Modulus (GPa) = 15.93670 28.54694 22.24182
# Shear Modulus (GPa) = 27.99672 -134.59423 -53.29875
#
# Velocity S-wave (km/s) = 3.89243 -8.53456 -5.37064
# Velocity P-wave (km/s) = 5.36898 9.03711 5.14021
#
# Compressibility (1/GPa) = 0.06274823
#
# Stress axis : x y z
#
# Youngs Moduli (GPa) = 20.37412 92.45823 71.01767
#
# Poissons Ratio (x) = 0.25590 -0.03045
# Poissons Ratio (y) = 0.05639 0.23266
# Poissons Ratio (z) = -0.00873 0.30290
#
# Static dielectric constant tensor:
#      x y z
#    x 1.660800 0.000000 0.000000 
#    y 0.000000 1.614050 0.000000 
#    z 0.000000 0.000000 1.650600 
# 
# From -- ./inp_files/40866.got.cif
#   From: 2010.05.17/outbox.ucp.g08.bks.cvg/sg67_21_cif.got.tgz:40866.got - 2010.06.11 16:47:20.
