data_PCOD9505341
_publ_section_title
;
Structure prediction by ZEFSAII (Michael W. Deem and Ramdas Pophale) SiO2 
 PCOD9505341
Probable space group: C C C A
;
_chemical_formula_sum "Si O2"
_cell_formula_units_Z 88
_cell_length_a 5.522438
_cell_length_b 37.680602
_cell_length_c 18.435659
_cell_angle_alpha 90.000000
_cell_angle_beta 90.000000
_cell_angle_gamma 90.000000
_cell_volume 3836.253944
_symmetry_space_group_name_H-M "C C C A"
_symmetry_group_IT_number 68
_space_group.IT_coordinate_system_code '2'
_symmetry_cell_setting 'orthorhombic'
loop_
_space_group_symop_operation_xyz
x,y,z
-x,1/2-y,z
x,1/2-y,1/2-z
-x,y,1/2-z
-x,-y,-z
x,1/2+y,-z
-x,1/2+y,1/2+z
x,-y,1/2+z
1/2+x,1/2+y,z
1/2-x,-y,z
1/2+x,-y,1/2-z
1/2-x,1/2+y,1/2-z
1/2-x,1/2-y,-z
1/2+x,y,-z
1/2-x,y,1/2+z
1/2+x,1/2-y,1/2+z
loop_
_atom_site_type_symbol
_atom_site_label
_atom_site_fract_x
_atom_site_fract_y
_atom_site_fract_z
Si Si1 0.360136 0.467097 0.578676
Si Si2 0.045117 0.892705 0.570821
Si Si3 0.239044 0.570702 0.223752
Si Si4 0.750000 0.000000 0.319741
Si Si5 0.503058 0.289899 0.453122
Si Si6 0.044601 0.635141 0.091332
O O1 0.250000 0.500000 0.532458
O O2 0.507366 0.433876 0.545274
O O3 0.220020 0.443958 0.640877
O O4 0.530010 0.490981 0.628786
O O5 0.060717 0.871181 0.495983
O O6 0.812679 0.877585 0.614711
O O7 0.300651 0.886544 0.609925
O O8 0.500000 0.585632 0.250000
O O9 0.231622 0.534501 0.271040
O O10 0.000000 0.591258 0.250000
O O11 0.500000 0.250000 0.421969
O O12 0.754766 0.292880 0.499337
O O13 0.505841 0.323100 0.398593
#
# Coordination Sequence:
#
# PCOD9505341 Si02
#       6
#    16  16  16   8  16  16
#     4  11  21  31  47  68  84 108 163 199 230 286
#     4  10  21  31  50  59  87 127 154 188 232 273
#     4  10  17  30  47  63  84 103 124 190 247 284
#     4  10  18  32  46  64  86 102 134 202 250 284
#     4  10  16  26  50  75  88 112 156 192 213 263
#     4  10  18  38  44  62  95 128 152 183 229 268
#
# _framework density 22.939043999999999
#
# number of rings (size 3 to 8) (size 9 to 14) (size 15 to 20)
#    0.000    1.818    6.364    0.545    2.545    0.000 
#    0.000    3.636    0.000    0.000    0.000    0.000 
#    0.000    0.000    0.000    0.000    0.000  123.636 
#
# Total GULP energy -245047.921026 kJ/mol
# GULP energy per Si atom -5569.270932 kJ/mol
# Density = 2.288683 g / cm^3
# Si number density = 22.939044 Si / 1000 Ang^3
#
#
#
# Elastic Constant Matrix: (Units=GPa)
#
#
# Indices 1 2 3 4 5 6 
#
# 1 196.9928 28.2037 15.2200 0.0000 0.0000 0.0000
# 2 28.2037 160.2329 6.8138 0.0000 0.0000 0.0000
# 3 15.2200 6.8138 32.4099 0.0000 0.0000 0.0000
# 4 0.0000 0.0000 0.0000 -3.5827 0.0000 0.0000
# 5 0.0000 0.0000 0.0000 0.0000 21.9011 0.0000
# 6 0.0000 0.0000 0.0000 0.0000 0.0000 36.1466
#
#
#
# Elastic Compliance Matrix: (Units=1/GPa)
#
#
# Indices 1 2 3 4 5 6 
#
# 1 0.005379 -0.000847 -0.002348 0.000000 0.000000 0.000000
# 2 -0.000847 0.006431 -0.000954 0.000000 0.000000 0.000000
# 3 -0.002348 -0.000954 0.032158 0.000000 0.000000 0.000000
# 4 0.000000 0.000000 0.000000 -0.279122 0.000000 0.000000
# 5 0.000000 0.000000 0.000000 0.000000 0.045660 0.000000
# 6 0.000000 0.000000 0.000000 0.000000 0.000000 0.027665
#
#
# Mechanical properties :
#
#
# Convention : Reuss Voigt Hill
#
# Bulk Modulus (GPa) = 28.03527 54.45671 41.24599
# Shear Modulus (GPa) = -35.30049 33.51955 -0.89047
#
# Velocity S-wave (km/s) = -3.92711 3.82677 -0.62372
# Velocity P-wave (km/s) = 2.88354 6.58155 4.18342
#
# Compressibility (1/GPa) = 0.03566935
#
# Stress axis : x y z
#
# Youngs Moduli (GPa) = 185.90833 155.50720 31.09641
#
# Poissons Ratio (x) = 0.13171 0.07301
# Poissons Ratio (y) = 0.15745 0.02967
# Poissons Ratio (z) = 0.43651 0.14839
#
# Static dielectric constant tensor:
#      x y z
#    x 2.246700 0.000000 0.000000 
#    y 0.000000 1.939460 0.000000 
#    z 0.000000 0.000000 2.041160 
# 
# From -- ./inp_files/53450.got.cif
#   From: 2010.05.17/outbox.cif.g08.bks.cpg/sg68_27_cif.got.tgz:53450.got - 2010.06.03 18:57:09.
