data_PCOD9505156
_publ_section_title
;
Structure prediction by ZEFSAII (Michael W. Deem and Ramdas Pophale) SiO2 
 PCOD9505156
Probable space group: C M M A
;
_chemical_formula_sum "Si O2"
_cell_formula_units_Z 56
_cell_length_a 27.000000
_cell_length_b 15.000000
_cell_length_c 15.000000
_cell_angle_alpha 90.000000
_cell_angle_beta 90.000000
_cell_angle_gamma 90.000000
_cell_volume 6075.000000
_symmetry_space_group_name_H-M "C M M A"
_symmetry_group_IT_number 67
_symmetry_cell_setting 'orthorhombic'
loop_
_space_group_symop_operation_xyz
x,y,z
-x,1/2-y,z
x,-y,-z
-x,1/2+y,-z
-x,-y,-z
x,1/2+y,-z
-x,y,z
x,1/2-y,z
1/2+x,1/2+y,z
1/2-x,-y,z
1/2+x,1/2-y,-z
1/2-x,y,-z
1/2-x,1/2-y,-z
1/2+x,y,-z
1/2-x,1/2+y,z
1/2+x,-y,z
loop_
_atom_site_type_symbol
_atom_site_label
_atom_site_fract_x
_atom_site_fract_y
_atom_site_fract_z
Si Si1 0.878886 0.355361 0.950860
Si Si2 0.306896 0.408910 0.749941
Si Si3 0.716593 0.351256 0.141604
Si Si4 0.056799 0.457165 0.804548
Si Si5 0.091762 0.147759 0.156524
Si Si6 0.171849 0.750000 0.434997
Si Si7 0.149867 0.096130 0.696442
Si Si8 0.213806 0.250000 0.381744
O O1 0.881395 0.250000 0.925926
O O2 0.821248 0.383458 0.935417
O O3 0.915355 0.413648 0.889819
O O4 0.896166 0.361680 0.052031
O O5 0.264214 0.406257 0.825850
O O6 0.356777 0.371403 0.793475
O O7 0.319708 0.502687 0.702266
O O8 0.290664 0.337798 0.677219
O O9 0.733218 0.250000 0.122180
O O10 0.678372 0.350607 0.225206
O O11 0.058126 0.564428 0.814888
O O12 0.093821 0.427324 0.725253
O O13 0.000000 0.427240 0.796485
O O14 0.075049 0.250000 0.173203
O O15 0.151274 0.840123 0.389245
O O16 0.172019 0.750000 0.541804
O O17 0.230222 0.750000 0.415142
#
# Coordination Sequence:
#
# PCOD9505156 Si02
#       8
#    16  16  16  16  16   8  16   8
#     4   9  20  33  50  79 112 150 189 230 279 317
#     4  11  19  33  54  80 112 150 185 217 266 331
#     4  10  16  30  51  73 111 151 185 224 262 315
#     4  10  22  37  56  80 107 143 190 241 285 325
#     4  10  20  35  53  77 112 149 189 232 274 329
#     4  11  22  38  55  85 117 141 173 222 273 337
#     4  10  20  35  56  77 110 148 178 224 279 329
#     4  11  22  34  58  86 116 144 175 212 267 337
#
# _framework density 9.2181069999999998
#
# number of rings (size 3 to 8) (size 9 to 14) (size 15 to 20)
#    0.000    1.857    3.571    0.857    1.000    2.857 
#    0.000    5.000    0.000    5.143    0.000   12.000 
#    0.000    0.000    0.000    0.000    0.000    0.000 
#
# Total GULP energy -312180.246331 kJ/mol
# GULP energy per Si atom -5574.647256 kJ/mol
# Density = 0.919713 g / cm^3
# Si number density = 9.218107 Si / 1000 Ang^3
#
#
#
# Elastic Constant Matrix: (Units=GPa)
#
#
# Indices 1 2 3 4 5 6 
#
# 1 47.7168 25.5999 29.9758 0.0000 0.0000 0.0000
# 2 25.5999 118.9074 30.9751 0.0000 0.0000 0.0000
# 3 29.9758 30.9751 34.7639 0.0000 0.0000 0.0000
# 4 0.0000 0.0000 0.0000 8.2463 0.0000 0.0000
# 5 0.0000 0.0000 0.0000 0.0000 1.1160 0.0000
# 6 0.0000 0.0000 0.0000 0.0000 0.0000 29.4430
#
#
#
# Elastic Compliance Matrix: (Units=1/GPa)
#
#
# Indices 1 2 3 4 5 6 
#
# 1 0.045754 0.000556 -0.039947 0.000000 0.000000 0.000000
# 2 0.000556 0.010959 -0.010243 0.000000 0.000000 0.000000
# 3 -0.039947 -0.010243 0.072338 0.000000 0.000000 0.000000
# 4 0.000000 0.000000 0.000000 0.121266 0.000000 0.000000
# 5 0.000000 0.000000 0.000000 0.000000 0.896053 0.000000
# 6 0.000000 0.000000 0.000000 0.000000 0.000000 0.033964
#
#
# Mechanical properties :
#
#
# Convention : Reuss Voigt Hill
#
# Bulk Modulus (GPa) = 33.57926 41.60995 37.59461
# Shear Modulus (GPa) = 3.87738 15.41689 9.64714
#
# Velocity S-wave (km/s) = 1.45179 2.89490 2.28999
# Velocity P-wave (km/s) = 4.58951 5.81314 5.23718
#
# Compressibility (1/GPa) = 0.02978029
#
# Stress axis : x y z
#
# Youngs Moduli (GPa) = 21.85620 91.25195 13.82409
#
# Poissons Ratio (x) = -0.05071 0.55223
# Poissons Ratio (y) = -0.01215 0.14161
# Poissons Ratio (z) = 0.87309 0.93474
#
# Static dielectric constant tensor:
#      x y z
#    x 1.634430 0.000000 0.000000 
#    y 0.000000 1.679140 0.000000 
#    z 0.000000 0.000000 1.669410 
# 
# From -- ./inp_files/30861.got.cif
#   From: 2010.05.17/outbox.ucp.g08.bks.cvg/sg67_16_cif.got.tgz:30861.got - 2010.06.11 16:47:20.
