data_PCOD9505224
_publ_section_title
;
Structure prediction by ZEFSAII (Michael W. Deem and Ramdas Pophale) SiO2 
 PCOD9505224
Probable space group: C M M A
;
_chemical_formula_sum "Si O2"
_cell_formula_units_Z 40
_cell_length_a 9.000000
_cell_length_b 18.000000
_cell_length_c 27.000000
_cell_angle_alpha 90.000000
_cell_angle_beta 90.000000
_cell_angle_gamma 90.000000
_cell_volume 4374.000000
_symmetry_space_group_name_H-M "C M M A"
_symmetry_group_IT_number 67
_symmetry_cell_setting 'orthorhombic'
loop_
_space_group_symop_operation_xyz
x,y,z
-x,1/2-y,z
x,-y,-z
-x,1/2+y,-z
-x,-y,-z
x,1/2+y,-z
-x,y,z
x,1/2-y,z
1/2+x,1/2+y,z
1/2-x,-y,z
1/2+x,1/2-y,-z
1/2-x,y,-z
1/2-x,1/2-y,-z
1/2+x,y,-z
1/2-x,1/2+y,z
1/2+x,-y,z
loop_
_atom_site_type_symbol
_atom_site_label
_atom_site_fract_x
_atom_site_fract_y
_atom_site_fract_z
Si Si1 0.677934 0.836749 0.550502
Si Si2 0.679591 0.918231 0.652837
Si Si3 0.821925 0.082022 0.246058
Si Si4 0.678524 0.581623 0.949323
Si Si5 0.174264 0.161534 0.845822
O O1 0.500000 0.841232 0.545397
O O2 0.720477 0.750000 0.554150
O O3 0.750000 0.867498 0.500000
O O4 0.717539 0.875858 0.602087
O O5 0.500000 0.921282 0.657731
O O6 0.750951 0.885530 0.703166
O O7 0.750000 0.000000 0.648790
O O8 0.772983 0.127510 0.197826
O O9 0.000000 0.077014 0.250275
O O10 0.750000 0.000000 0.240899
O O11 0.500000 0.576092 0.954975
O O12 0.750000 0.500000 0.943098
O O13 0.710614 0.627949 0.899749
O O14 0.750000 0.612925 0.000000
O O15 0.189538 0.250000 0.847123
O O16 0.000000 0.143455 0.835794
#
# Coordination Sequence:
#
# PCOD9505224 Si02
#       5
#    16  16  16  16  16
#     4   9  19  35  54  76 103 138 177 215 260 314
#     4  10  20  35  55  79 107 139 176 219 268 319
#     4  11  22  37  58  82 108 141 182 225 271 322
#     4  10  20  35  57  82 108 142 182 223 267 317
#     4  10  22  39  57  80 112 147 181 221 272 324
#
# _framework density 9.1449470000000002
#
# number of rings (size 3 to 8) (size 9 to 14) (size 15 to 20)
#    0.000    2.000    0.000    5.400    0.000    6.800 
#    0.000    4.000    0.000    0.000    0.000    0.000 
#    0.000    0.000    0.000    0.000    0.000    0.000 
#
# Total GULP energy -223273.436237 kJ/mol
# GULP energy per Si atom -5581.835906 kJ/mol
# Density = 0.912413 g / cm^3
# Si number density = 9.144947 Si / 1000 Ang^3
#
#
#
# Elastic Constant Matrix: (Units=GPa)
#
#
# Indices 1 2 3 4 5 6 
#
# 1 106.8408 34.9284 84.5957 0.0000 0.0000 0.0000
# 2 34.9284 42.0612 59.7418 0.0000 0.0000 0.0000
# 3 84.5957 59.7418 201.3999 0.0000 0.0000 0.0000
# 4 0.0000 0.0000 0.0000 -50.0702 0.0000 0.0000
# 5 0.0000 0.0000 0.0000 0.0000 41.1760 0.0000
# 6 0.0000 0.0000 0.0000 0.0000 0.0000 18.5037
#
#
#
# Elastic Compliance Matrix: (Units=1/GPa)
#
#
# Indices 1 2 3 4 5 6 
#
# 1 0.014851 -0.006001 -0.004458 0.000000 0.000000 0.000000
# 2 -0.006001 0.043510 -0.010386 0.000000 0.000000 0.000000
# 3 -0.004458 -0.010386 0.009919 0.000000 0.000000 0.000000
# 4 0.000000 0.000000 0.000000 -0.019972 0.000000 0.000000
# 5 0.000000 0.000000 0.000000 0.000000 0.024286 0.000000
# 6 0.000000 0.000000 0.000000 0.000000 0.000000 0.054043
#
#
# Mechanical properties :
#
#
# Convention : Reuss Voigt Hill
#
# Bulk Modulus (GPa) = 37.60792 78.75928 58.18360
# Shear Modulus (GPa) = 28.21836 13.32429 20.77133
#
# Velocity S-wave (km/s) = 3.93216 2.70201 3.37363
# Velocity P-wave (km/s) = 6.42048 7.27252 6.85975
#
# Compressibility (1/GPa) = 0.02659014
#
# Stress axis : x y z
#
# Youngs Moduli (GPa) = 67.33367 22.98348 100.82066
#
# Poissons Ratio (x) = 0.13792 0.44947
# Poissons Ratio (y) = 0.40405 1.04710
# Poissons Ratio (z) = 0.30018 0.23870
#
# Static dielectric constant tensor:
#      x y z
#    x 1.616320 0.000000 0.000000 
#    y 0.000000 1.620000 0.000000 
#    z 0.000000 0.000000 1.640330 
# 
# From -- ./inp_files/43247.got.cif
#   From: 2010.05.17/outbox.ucp.g08.bks.cvg/sg67_22_cif.got.tgz:43247.got - 2010.06.11 16:47:20.
