data_PCOD9505010
_publ_section_title
;
Structure prediction by ZEFSAII (Michael W. Deem and Ramdas Pophale) SiO2 
 PCOD9505010
Probable space group: C M M A
;
_chemical_formula_sum "Si O2"
_cell_formula_units_Z 44
_cell_length_a 14.428589
_cell_length_b 13.432525
_cell_length_c 9.356382
_cell_angle_alpha 90.000000
_cell_angle_beta 90.000000
_cell_angle_gamma 90.000000
_cell_volume 1813.382687
_symmetry_space_group_name_H-M "C M M A"
_symmetry_group_IT_number 67
_symmetry_cell_setting 'orthorhombic'
loop_
_space_group_symop_operation_xyz
x,y,z
-x,1/2-y,z
x,-y,-z
-x,1/2+y,-z
-x,-y,-z
x,1/2+y,-z
-x,y,z
x,1/2-y,z
1/2+x,1/2+y,z
1/2-x,-y,z
1/2+x,1/2-y,-z
1/2-x,y,-z
1/2-x,1/2-y,-z
1/2+x,y,-z
1/2-x,1/2+y,z
1/2+x,-y,z
loop_
_atom_site_type_symbol
_atom_site_label
_atom_site_fract_x
_atom_site_fract_y
_atom_site_fract_z
Si Si1 0.610930 0.250000 0.991168
Si Si2 0.000000 0.019154 0.331762
Si Si3 0.697037 0.250000 0.673222
Si Si4 0.500000 0.750000 0.363624
Si Si5 0.680933 0.085755 0.208102
O O1 0.500000 0.250000 0.991070
O O2 0.648335 0.156102 0.079577
O O3 0.650728 0.250000 0.831985
O O4 0.000000 0.137352 0.299695
O O5 0.000000 0.000000 0.500000
O O6 0.090543 0.966763 0.270149
O O7 0.605935 0.250000 0.571858
O O8 0.763170 0.153835 0.676816
O O9 0.750000 0.000000 0.162020
#
# Coordination Sequence:
#
# PCOD9505010 Si02
#       5
#     8   8   8   4  16
#     4  11  23  41  72 103 150 191 230 280 354 434
#     4  12  28  49  74  99 135 191 243 301 370 401
#     4  11  24  42  70 105 147 183 227 286 352 429
#     4  12  24  48  66 106 140 170 236 314 320 442
#     4  11  23  44  67 100 142 182 238 290 346 423
#
# _framework density 24.264047999999999
#
# number of rings (size 3 to 8) (size 9 to 14) (size 15 to 20)
#    0.000    0.727    6.364    2.182    0.000    6.545 
#    0.000    5.455    0.000    0.000    0.000    0.000 
#    0.000    0.000    0.000    0.000    0.000    0.000 
#
# Total GULP energy -123202.499109 kJ/mol
# GULP energy per Si atom -5600.113596 kJ/mol
# Density = 2.420882 g / cm^3
# Si number density = 24.264048 Si / 1000 Ang^3
#
#
#
# Elastic Constant Matrix: (Units=GPa)
#
#
# Indices 1 2 3 4 5 6 
#
# 1 257.3087 107.8225 56.4891 0.0000 0.0000 0.0000
# 2 107.8225 210.9016 45.1749 0.0000 0.0000 0.0000
# 3 56.4891 45.1749 102.5246 0.0000 0.0000 0.0000
# 4 0.0000 0.0000 0.0000 4.7808 0.0000 0.0000
# 5 0.0000 0.0000 0.0000 0.0000 18.6901 0.0000
# 6 0.0000 0.0000 0.0000 0.0000 0.0000 58.2351
#
#
#
# Elastic Compliance Matrix: (Units=1/GPa)
#
#
# Indices 1 2 3 4 5 6 
#
# 1 0.005258 -0.002283 -0.001891 0.000000 0.000000 0.000000
# 2 -0.002283 0.006227 -0.001486 0.000000 0.000000 0.000000
# 3 -0.001891 -0.001486 0.011450 0.000000 0.000000 0.000000
# 4 0.000000 0.000000 0.000000 0.209171 0.000000 0.000000
# 5 0.000000 0.000000 0.000000 0.000000 0.053504 0.000000
# 6 0.000000 0.000000 0.000000 0.000000 0.000000 0.017172
#
#
# Mechanical properties :
#
#
# Convention : Reuss Voigt Hill
#
# Bulk Modulus (GPa) = 86.09225 109.96754 98.02990
# Shear Modulus (GPa) = 15.72449 40.42442 28.07445
#
# Velocity S-wave (km/s) = 2.54846 4.08612 3.40522
# Velocity P-wave (km/s) = 6.64966 8.22687 7.47995
#
# Compressibility (1/GPa) = 0.01161545
#
# Stress axis : x y z
#
# Youngs Moduli (GPa) = 190.17453 160.58880 87.33272
#
# Poissons Ratio (x) = 0.36666 0.16516
# Poissons Ratio (y) = 0.43421 0.12976
# Poissons Ratio (z) = 0.35966 0.23860
#
# Static dielectric constant tensor:
#      x y z
#    x 1.929030 0.000000 0.000000 
#    y 0.000000 1.904870 0.000000 
#    z 0.000000 0.000000 1.972730 
# 
# From -- ./inp_files/17109.got.cif
#   From: 2010.05.17/outbox.cif.g08.bks.cpg/sg67_9_cif.got.tgz:17109.got - 2010.06.03 18:28:57.
