data_PCOD9505698
_publ_section_title
;
Structure prediction by ZEFSAII (Michael W. Deem and Ramdas Pophale) SiO2 
 PCOD9505698
Probable space group: C C C A
;
_chemical_formula_sum "Si O2"
_cell_formula_units_Z 80
_cell_length_a 10.956474
_cell_length_b 17.323796
_cell_length_c 19.245423
_cell_angle_alpha 90.000000
_cell_angle_beta 90.000000
_cell_angle_gamma 90.000000
_cell_volume 3652.929869
_symmetry_space_group_name_H-M "C C C A"
_symmetry_group_IT_number 68
_space_group.IT_coordinate_system_code '2'
_symmetry_cell_setting 'orthorhombic'
loop_
_space_group_symop_operation_xyz
x,y,z
-x,1/2-y,z
x,1/2-y,1/2-z
-x,y,1/2-z
-x,-y,-z
x,1/2+y,-z
-x,1/2+y,1/2+z
x,-y,1/2+z
1/2+x,1/2+y,z
1/2-x,-y,z
1/2+x,-y,1/2-z
1/2-x,1/2+y,1/2-z
1/2-x,1/2-y,-z
1/2+x,y,-z
1/2-x,y,1/2+z
1/2+x,1/2-y,1/2+z
loop_
_atom_site_type_symbol
_atom_site_label
_atom_site_fract_x
_atom_site_fract_y
_atom_site_fract_z
Si Si1 0.856512 0.770044 0.824757
Si Si2 0.867029 0.447810 0.137601
Si Si3 0.878967 0.502485 0.870209
Si Si4 0.833596 0.660207 0.953272
Si Si5 0.415280 0.884524 0.991256
O O1 0.800519 0.750000 0.750000
O O2 0.843358 0.860112 0.840205
O O3 0.817118 0.716021 0.887878
O O4 0.000000 0.750000 0.821012
O O5 0.750000 0.500000 0.150367
O O6 0.895944 0.445005 0.054423
O O7 0.996602 0.475484 0.168462
O O8 0.750000 0.500000 0.828891
O O9 0.846508 0.573142 0.922350
O O10 0.911864 0.428021 0.917402
O O11 0.038355 0.836338 0.994596
O O12 0.708639 0.664742 0.995454
#
# Coordination Sequence:
#
# PCOD9505698 Si02
#       5
#    16  16  16  16  16
#     4  11  23  42  63  83 124 172 221 259 296 375
#     4  11  20  36  61  93 119 158 206 260 319 374
#     4   9  17  31  54  86 129 162 191 238 314 386
#     4  10  19  35  57  91 118 165 200 251 317 375
#     4  10  18  32  57  92 134 156 197 254 324 385
#
# _framework density 21.900229
#
# number of rings (size 3 to 8) (size 9 to 14) (size 15 to 20)
#    0.000    1.800    4.000    5.400    0.000    0.800 
#    0.000    3.000    0.000    3.600    0.000   15.400 
#    0.000    0.000    0.000    0.000    0.000    0.000 
#
# Total GULP energy -223141.639634 kJ/mol
# GULP energy per Si atom -5578.540991 kJ/mol
# Density = 2.185038 g / cm^3
# Si number density = 21.900229 Si / 1000 Ang^3
#
#
#
# Elastic Constant Matrix: (Units=GPa)
#
#
# Indices 1 2 3 4 5 6 
#
# 1 197.8652 38.3327 38.2533 0.0000 0.0000 0.0000
# 2 38.3327 98.6835 27.4823 0.0000 0.0000 0.0000
# 3 38.2533 27.4823 75.6228 0.0000 0.0000 0.0000
# 4 0.0000 0.0000 0.0000 4.3820 0.0000 0.0000
# 5 0.0000 0.0000 0.0000 0.0000 -9.6809 0.0000
# 6 0.0000 0.0000 0.0000 0.0000 0.0000 11.0932
#
#
#
# Elastic Compliance Matrix: (Units=1/GPa)
#
#
# Indices 1 2 3 4 5 6 
#
# 1 0.005821 -0.001603 -0.002362 0.000000 0.000000 0.000000
# 2 -0.001603 0.011716 -0.003447 0.000000 0.000000 0.000000
# 3 -0.002362 -0.003447 0.015671 0.000000 0.000000 0.000000
# 4 0.000000 0.000000 0.000000 0.228206 0.000000 0.000000
# 5 0.000000 0.000000 0.000000 0.000000 -0.103296 0.000000
# 6 0.000000 0.000000 0.000000 0.000000 0.000000 0.090146
#
#
# Mechanical properties :
#
#
# Convention : Reuss Voigt Hill
#
# Bulk Modulus (GPa) = 54.39488 64.47871 59.43680
# Shear Modulus (GPa) = 18.57244 19.03239 18.80242
#
# Velocity S-wave (km/s) = 2.91529 2.95116 2.93328
# Velocity P-wave (km/s) = 6.01858 6.41237 6.21859
#
# Compressibility (1/GPa) = 0.01838408
#
# Stress axis : x y z
#
# Youngs Moduli (GPa) = 171.78562 85.35253 63.81269
#
# Poissons Ratio (x) = 0.13686 0.15072
# Poissons Ratio (y) = 0.27545 0.21994
# Poissons Ratio (z) = 0.40574 0.29419
#
# Static dielectric constant tensor:
#      x y z
#    x 1.866350 0.000000 0.000000 
#    y 0.000000 1.817010 0.000000 
#    z 0.000000 0.000000 1.860220 
# 
# From -- ./inp_files/44120.got.cif
#   From: 2010.05.17/outbox.cif.g08.bks.cpg/sg68_23_cif.got.tgz:44120.got - 2010.06.03 18:57:09.
