data_PCOD9505216
_publ_section_title
;
Structure prediction by ZEFSAII (Michael W. Deem and Ramdas Pophale) SiO2 
 PCOD9505216
Probable space group: C M M A
;
_chemical_formula_sum "Si O2"
_cell_formula_units_Z 56
_cell_length_a 15.000000
_cell_length_b 24.000000
_cell_length_c 15.000000
_cell_angle_alpha 90.000000
_cell_angle_beta 90.000000
_cell_angle_gamma 90.000000
_cell_volume 5400.000000
_symmetry_space_group_name_H-M "C M M A"
_symmetry_group_IT_number 67
_symmetry_cell_setting 'orthorhombic'
loop_
_space_group_symop_operation_xyz
x,y,z
-x,1/2-y,z
x,-y,-z
-x,1/2+y,-z
-x,-y,-z
x,1/2+y,-z
-x,y,z
x,1/2-y,z
1/2+x,1/2+y,z
1/2-x,-y,z
1/2+x,1/2-y,-z
1/2-x,y,-z
1/2-x,1/2-y,-z
1/2+x,y,-z
1/2-x,1/2+y,z
1/2+x,-y,z
loop_
_atom_site_type_symbol
_atom_site_label
_atom_site_fract_x
_atom_site_fract_y
_atom_site_fract_z
Si Si1 0.395299 0.938935 0.468883
Si Si2 0.146011 0.484742 0.280596
Si Si3 0.767481 0.315323 0.269591
Si Si4 0.892241 0.060206 0.964257
Si Si5 0.608215 0.814342 0.446326
Si Si6 0.896823 0.396176 0.767868
Si Si7 0.604951 0.111806 0.852645
O O1 0.500000 0.941153 0.490135
O O2 0.379229 0.945188 0.363018
O O3 0.369144 0.874523 0.494825
O O4 0.356751 0.000000 0.500000
O O5 0.250000 0.500000 0.279147
O O6 0.101562 0.545570 0.286698
O O7 0.118532 0.448722 0.194636
O O8 0.748213 0.250000 0.250757
O O9 0.826621 0.316166 0.360415
O O10 0.676336 0.352501 0.269323
O O11 0.831598 0.344329 0.196283
O O12 0.865253 0.082790 0.866917
O O13 0.000000 0.055088 0.957872
O O14 0.872570 0.103383 0.043516
O O15 0.859035 0.000000 0.000000
O O16 0.500000 0.817872 0.426750
O O17 0.620483 0.750000 0.484747
O O18 0.000000 0.375377 0.771823
O O19 0.500000 0.126116 0.843696
#
# Coordination Sequence:
#
# PCOD9505216 Si02
#       7
#    16  16  16  16  16  16  16
#     4  10  20  34  55  88 125 156 190 239 300 361
#     4  12  21  35  57  88 119 149 188 238 303 360
#     4  11  23  38  56  82 113 156 208 246 285 346
#     4   9  18  32  54  83 113 148 189 240 302 361
#     4   9  17  33  59  88 121 160 201 249 303 359
#     4  11  22  38  57  81 115 156 200 245 297 357
#     4  11  20  35  58  86 117 144 186 248 302 351
#
# _framework density 10.370369999999999
#
# number of rings (size 3 to 8) (size 9 to 14) (size 15 to 20)
#    0.000    1.571    4.286    1.714    0.000    2.000 
#    0.000    2.857    0.000    3.429    0.000    5.000 
#    0.000    0.000    0.000    0.000    0.000    0.000 
#
# Total GULP energy -312508.826132 kJ/mol
# GULP energy per Si atom -5580.514752 kJ/mol
# Density = 1.034677 g / cm^3
# Si number density = 10.370370 Si / 1000 Ang^3
#
#
#
# Elastic Constant Matrix: (Units=GPa)
#
#
# Indices 1 2 3 4 5 6 
#
# 1 94.0617 29.2859 -3.1959 0.0000 0.0000 0.0000
# 2 29.2859 176.0934 6.3679 0.0000 0.0000 0.0000
# 3 -3.1959 6.3679 20.0171 0.0000 0.0000 0.0000
# 4 0.0000 0.0000 0.0000 30.1393 0.0000 0.0000
# 5 0.0000 0.0000 0.0000 0.0000 10.9491 0.0000
# 6 0.0000 0.0000 0.0000 0.0000 0.0000 28.8998
#
#
#
# Elastic Compliance Matrix: (Units=1/GPa)
#
#
# Indices 1 2 3 4 5 6 
#
# 1 0.011328 -0.001972 0.002436 0.000000 0.000000 0.000000
# 2 -0.001972 0.006088 -0.002252 0.000000 0.000000 0.000000
# 3 0.002436 -0.002252 0.051063 0.000000 0.000000 0.000000
# 4 0.000000 0.000000 0.000000 0.033179 0.000000 0.000000
# 5 0.000000 0.000000 0.000000 0.000000 0.091332 0.000000
# 6 0.000000 0.000000 0.000000 0.000000 0.000000 0.034602
#
#
# Mechanical properties :
#
#
# Convention : Reuss Voigt Hill
#
# Bulk Modulus (GPa) = 15.40750 39.45421 27.43085
# Shear Modulus (GPa) = 19.77829 31.17858 25.47844
#
# Velocity S-wave (km/s) = 3.09139 3.88139 3.50869
# Velocity P-wave (km/s) = 4.49299 6.25706 5.44691
#
# Compressibility (1/GPa) = 0.06490347
#
# Stress axis : x y z
#
# Youngs Moduli (GPa) = 88.27618 164.25227 19.58379
#
# Poissons Ratio (x) = 0.32391 -0.04771
# Poissons Ratio (y) = 0.17408 0.04410
# Poissons Ratio (z) = -0.21504 0.36984
#
# Static dielectric constant tensor:
#      x y z
#    x 1.749820 0.000000 0.000000 
#    y 0.000000 1.760520 0.000000 
#    z 0.000000 0.000000 1.790550 
# 
# From -- ./inp_files/27556.got.cif
#   From: 2010.05.17/outbox.ucp.g08.bks.cvg/sg67_14_cif.got.tgz:27556.got - 2010.06.11 16:47:20.
