data_PCOD9505516
_publ_section_title
;
Structure prediction by ZEFSAII (Michael W. Deem and Ramdas Pophale) SiO2 
 PCOD9505516
Probable space group: C C C A
;
_chemical_formula_sum "Si O2"
_cell_formula_units_Z 108
_cell_length_a 18.578265
_cell_length_b 16.804675
_cell_length_c 19.372107
_cell_angle_alpha 90.000000
_cell_angle_beta 90.000000
_cell_angle_gamma 90.000000
_cell_volume 6048.004842
_symmetry_space_group_name_H-M "C C C A"
_symmetry_group_IT_number 68
_space_group.IT_coordinate_system_code '2'
_symmetry_cell_setting 'orthorhombic'
loop_
_space_group_symop_operation_xyz
x,y,z
-x,1/2-y,z
x,1/2-y,1/2-z
-x,y,1/2-z
-x,-y,-z
x,1/2+y,-z
-x,1/2+y,1/2+z
x,-y,1/2+z
1/2+x,1/2+y,z
1/2-x,-y,z
1/2+x,-y,1/2-z
1/2-x,1/2+y,1/2-z
1/2-x,1/2-y,-z
1/2+x,y,-z
1/2-x,y,1/2+z
1/2+x,1/2-y,1/2+z
loop_
_atom_site_type_symbol
_atom_site_label
_atom_site_fract_x
_atom_site_fract_y
_atom_site_fract_z
Si Si1 0.500000 0.750000 0.997981
Si Si2 0.944897 0.090062 0.439859
Si Si3 0.225911 0.738918 0.612163
Si Si4 0.500000 0.750000 0.250000
Si Si5 0.647148 0.814239 0.972086
Si Si6 0.895260 0.526893 0.956016
Si Si7 0.301736 0.571507 0.175685
Si Si8 0.623179 0.642797 0.191504
O O1 0.567580 0.782491 0.955894
O O2 0.468531 0.820239 0.044638
O O3 0.898516 0.084862 0.370847
O O4 0.021611 0.045480 0.436612
O O5 0.898791 0.056206 0.503835
O O6 0.296050 0.785018 0.584441
O O7 0.175893 0.722703 0.544731
O O8 0.236669 0.651959 0.646572
O O9 0.183263 0.795834 0.664338
O O10 0.552175 0.694086 0.206533
O O11 0.635398 0.907190 0.990073
O O12 0.848277 0.536269 0.887750
O O13 0.250000 0.500000 0.197999
O O14 0.350771 0.600063 0.239245
#
# Coordination Sequence:
#
# PCOD9505516 Si02
#       8
#     8  16  16   4  16  16  16  16
#     4  10  17  32  58  91 111 158 195 254 309 352
#     4  10  20  34  60  87 121 148 196 257 300 365
#     4  10  20  37  55  85 117 157 201 247 304 362
#     4  12  22  36  64  92 124 146 208 270 302 368
#     4   9  19  33  57  83 117 154 202 245 300 368
#     4   9  21  38  53  88 122 153 195 250 309 352
#     4  11  24  38  54  82 124 161 201 239 309 368
#     4  12  22  37  62  90 116 164 204 254 310 364
#
# _framework density 17.857129
#
# number of rings (size 3 to 8) (size 9 to 14) (size 15 to 20)
#    0.000    1.778    2.963    1.333    4.148    2.370 
#    0.000    0.000    0.000    0.000    0.000    1.037 
#    0.000    0.000    0.000    0.000    0.000    0.000 
#
# Total GULP energy -301130.383294 kJ/mol
# GULP energy per Si atom -5576.488580 kJ/mol
# Density = 1.781649 g / cm^3
# Si number density = 17.857129 Si / 1000 Ang^3
#
#
#
# Elastic Constant Matrix: (Units=GPa)
#
#
# Indices 1 2 3 4 5 6 
#
# 1 85.8748 41.2840 38.5509 0.0000 0.0000 0.0000
# 2 41.2840 77.6215 53.2694 0.0000 0.0000 0.0000
# 3 38.5509 53.2694 95.1108 0.0000 0.0000 0.0000
# 4 0.0000 0.0000 0.0000 16.1803 0.0000 0.0000
# 5 0.0000 0.0000 0.0000 0.0000 32.1179 0.0000
# 6 0.0000 0.0000 0.0000 0.0000 0.0000 22.3744
#
#
#
# Elastic Compliance Matrix: (Units=1/GPa)
#
#
# Indices 1 2 3 4 5 6 
#
# 1 0.016094 -0.006632 -0.002809 0.000000 0.000000 0.000000
# 2 -0.006632 0.023660 -0.010563 0.000000 0.000000 0.000000
# 3 -0.002809 -0.010563 0.017569 0.000000 0.000000 0.000000
# 4 0.000000 0.000000 0.000000 0.061804 0.000000 0.000000
# 5 0.000000 0.000000 0.000000 0.000000 0.031135 0.000000
# 6 0.000000 0.000000 0.000000 0.000000 0.000000 0.044694
#
#
# Mechanical properties :
#
#
# Convention : Reuss Voigt Hill
#
# Bulk Modulus (GPa) = 57.75579 58.31284 58.03431
# Shear Modulus (GPa) = 20.76976 22.50138 21.63557
#
# Velocity S-wave (km/s) = 3.41414 3.55361 3.48457
# Velocity P-wave (km/s) = 6.92497 7.04014 6.98280
#
# Compressibility (1/GPa) = 0.01731428
#
# Stress axis : x y z
#
# Youngs Moduli (GPa) = 62.13394 42.26628 56.91979
#
# Poissons Ratio (x) = 0.28032 0.15988
# Poissons Ratio (y) = 0.41209 0.60124
# Poissons Ratio (z) = 0.17452 0.44645
#
# Static dielectric constant tensor:
#      x y z
#    x 1.620390 0.000000 0.000000 
#    y 0.000000 1.638680 0.000000 
#    z 0.000000 0.000000 1.610710 
# 
# From -- ./inp_files/33166.got.cif
#   From: 2010.05.17/outbox.cif.g08.bks.cpg/sg68_17_cif.got.tgz:33166.got - 2010.06.03 18:57:09.
