data_PCOD9505281
_publ_section_title
;
Structure prediction by ZEFSAII (Michael W. Deem and Ramdas Pophale) SiO2 
 PCOD9505281
Probable space group: C M M A
;
_chemical_formula_sum "Si O2"
_cell_formula_units_Z 44
_cell_length_a 24.000000
_cell_length_b 15.000000
_cell_length_c 12.000000
_cell_angle_alpha 90.000000
_cell_angle_beta 90.000000
_cell_angle_gamma 90.000000
_cell_volume 4320.000000
_symmetry_space_group_name_H-M "C M M A"
_symmetry_group_IT_number 67
_symmetry_cell_setting 'orthorhombic'
loop_
_space_group_symop_operation_xyz
x,y,z
-x,1/2-y,z
x,-y,-z
-x,1/2+y,-z
-x,-y,-z
x,1/2+y,-z
-x,y,z
x,1/2-y,z
1/2+x,1/2+y,z
1/2-x,-y,z
1/2+x,1/2-y,-z
1/2-x,y,-z
1/2-x,1/2-y,-z
1/2+x,y,-z
1/2-x,1/2+y,z
1/2+x,-y,z
loop_
_atom_site_type_symbol
_atom_site_label
_atom_site_fract_x
_atom_site_fract_y
_atom_site_fract_z
Si Si1 0.259317 0.750000 0.862039
Si Si2 0.500000 0.502667 0.867357
Si Si3 0.116659 0.947365 0.884020
Si Si4 0.931552 0.750000 0.606810
Si Si5 0.634227 0.750000 0.163879
Si Si6 0.000000 0.643968 0.299726
Si Si7 0.699016 0.068400 0.261043
Si Si8 0.892293 0.095707 0.557095
O O1 0.198888 0.750000 0.803067
O O2 0.286487 0.656315 0.816100
O O3 0.250000 0.750000 0.000000
O O4 0.555884 0.455318 0.828732
O O5 0.500000 0.603040 0.823328
O O6 0.500000 0.500000 0.000000
O O7 0.127585 0.842967 0.901221
O O8 0.159380 0.000656 0.807297
O O9 0.116708 0.000000 0.000000
O O10 0.907791 0.750000 0.732005
O O11 0.905072 0.833336 0.540124
O O12 0.000000 0.750000 0.601324
O O13 0.055082 0.608736 0.360845
O O14 0.000000 0.750000 0.301702
O O15 0.663902 0.103131 0.368283
O O16 0.750000 0.000000 0.290118
O O17 0.892045 0.000000 0.500000
#
# Coordination Sequence:
#
# PCOD9505281 Si02
#       8
#     8   8  16   8   8   8  16  16
#     4  12  27  47  76 104 139 200 247 300 369 427
#     4  10  24  44  68 105 144 183 228 299 381 435
#     4  11  24  45  70 102 145 186 239 294 364 440
#     4  12  27  45  74 111 142 182 247 295 374 447
#     4  12  26  46  71 108 143 191 241 306 354 423
#     4  12  23  45  73 104 144 182 249 303 363 450
#     4  12  26  45  70 104 143 190 246 300 354 433
#     4  12  25  45  72 103 142 189 238 298 371 429
#
# _framework density 10.185185000000001
#
# number of rings (size 3 to 8) (size 9 to 14) (size 15 to 20)
#    0.000    0.364    5.455    3.000    1.273    0.364 
#    6.545    0.909    0.000    0.000    0.000    0.000 
#    0.000    0.000    0.000    0.000    0.000    0.000 
#
# Total GULP energy -245632.868026 kJ/mol
# GULP energy per Si atom -5582.565182 kJ/mol
# Density = 1.016200 g / cm^3
# Si number density = 10.185185 Si / 1000 Ang^3
#
#
#
# Elastic Constant Matrix: (Units=GPa)
#
#
# Indices 1 2 3 4 5 6 
#
# 1 144.0574 50.8005 27.9172 0.0000 0.0000 0.0000
# 2 50.8005 191.0291 55.7083 0.0000 0.0000 0.0000
# 3 27.9172 55.7083 94.6135 0.0000 0.0000 0.0000
# 4 0.0000 0.0000 0.0000 48.2402 0.0000 0.0000
# 5 0.0000 0.0000 0.0000 0.0000 209.9237 0.0000
# 6 0.0000 0.0000 0.0000 0.0000 0.0000 20.1216
#
#
#
# Elastic Compliance Matrix: (Units=1/GPa)
#
#
# Indices 1 2 3 4 5 6 
#
# 1 0.007791 -0.001692 -0.001303 0.000000 0.000000 0.000000
# 2 -0.001692 0.006687 -0.003438 0.000000 0.000000 0.000000
# 3 -0.001303 -0.003438 0.012978 0.000000 0.000000 0.000000
# 4 0.000000 0.000000 0.000000 0.020730 0.000000 0.000000
# 5 0.000000 0.000000 0.000000 0.000000 0.004764 0.000000
# 6 0.000000 0.000000 0.000000 0.000000 0.000000 0.049698
#
#
# Mechanical properties :
#
#
# Convention : Reuss Voigt Hill
#
# Bulk Modulus (GPa) = 68.53696 77.61686 73.07691
# Shear Modulus (GPa) = 41.53633 75.34205 58.43919
#
# Velocity S-wave (km/s) = 4.52049 6.08822 5.36196
# Velocity P-wave (km/s) = 7.80800 9.35988 8.61894
#
# Compressibility (1/GPa) = 0.01459067
#
# Stress axis : x y z
#
# Youngs Moduli (GPa) = 128.35728 149.53421 77.05266
#
# Poissons Ratio (x) = 0.25300 0.10037
# Poissons Ratio (y) = 0.21717 0.26493
# Poissons Ratio (z) = 0.16719 0.51415
#
# Static dielectric constant tensor:
#      x y z
#    x 1.775650 0.000000 0.000000 
#    y 0.000000 1.741090 0.000000 
#    z 0.000000 0.000000 1.768330 
# 
# From -- ./inp_files/21839.got.cif
#   From: 2010.05.17/outbox.ucp.g08.bks.cvg/sg67_11_cif.got.tgz:21839.got - 2010.06.11 16:47:20.
