data_PCOD9505940
_publ_section_title
;
Structure prediction by ZEFSAII (Michael W. Deem and Ramdas Pophale) SiO2 
 PCOD9505940
Probable space group: C C C A
;
_chemical_formula_sum "Si O2"
_cell_formula_units_Z 80
_cell_length_a 31.299692
_cell_length_b 5.598399
_cell_length_c 18.188462
_cell_angle_alpha 90.000000
_cell_angle_beta 90.000000
_cell_angle_gamma 90.000000
_cell_volume 3187.130809
_symmetry_space_group_name_H-M "C C C A"
_symmetry_group_IT_number 68
_space_group.IT_coordinate_system_code '2'
_symmetry_cell_setting 'orthorhombic'
loop_
_space_group_symop_operation_xyz
x,y,z
-x,1/2-y,z
x,1/2-y,1/2-z
-x,y,1/2-z
-x,-y,-z
x,1/2+y,-z
-x,1/2+y,1/2+z
x,-y,1/2+z
1/2+x,1/2+y,z
1/2-x,-y,z
1/2+x,-y,1/2-z
1/2-x,1/2+y,1/2-z
1/2-x,1/2-y,-z
1/2+x,y,-z
1/2-x,y,1/2+z
1/2+x,1/2-y,1/2+z
loop_
_atom_site_type_symbol
_atom_site_label
_atom_site_fract_x
_atom_site_fract_y
_atom_site_fract_z
Si Si1 0.516818 0.994523 0.083847
Si Si2 0.822931 0.410341 0.494981
Si Si3 0.234629 0.256429 0.833053
Si Si4 0.890447 0.605878 0.867426
Si Si5 0.863797 0.382373 0.651466
O O1 0.500000 0.250000 0.115085
O O2 0.500000 0.750000 0.121036
O O3 0.567230 0.940691 0.084879
O O4 0.500000 0.000000 0.000000
O O5 0.799495 0.660952 0.497390
O O6 0.848618 0.401594 0.419056
O O7 0.858024 0.402890 0.561638
O O8 0.253757 0.250000 0.750000
O O9 0.250000 0.500000 0.870770
O O10 0.184663 0.320139 0.825892
O O11 0.250000 0.000000 0.863507
O O12 0.888337 0.355894 0.824416
O O13 0.885366 0.863958 0.829186
#
# Coordination Sequence:
#
# PCOD9505940 Si02
#       5
#    16  16  16  16  16
#     4  10  21  27  43  67 106 146 179 217 248 296
#     4   8  16  25  44  61  94 128 174 193 236 281
#     4  10  21  38  59  81 104 126 159 220 290 331
#     4  10  19  31  47  71 106 145 181 206 253 294
#     4  10  19  31  53  72  98 137 176 208 255 319
#
# _framework density 25.100949
#
# number of rings (size 3 to 8) (size 9 to 14) (size 15 to 20)
#    0.000    2.400    0.000    2.400   16.800    0.000 
#    0.000    0.000    0.000   32.400    0.000    0.000 
#    0.000   12.000    0.000    0.000    0.000    0.000 
#
# Total GULP energy -222792.188789 kJ/mol
# GULP energy per Si atom -5569.804720 kJ/mol
# Density = 2.504382 g / cm^3
# Si number density = 25.100949 Si / 1000 Ang^3
#
#
#
# Elastic Constant Matrix: (Units=GPa)
#
#
# Indices 1 2 3 4 5 6 
#
# 1 115.4652 64.8645 4.5271 0.0000 0.0000 0.0000
# 2 64.8645 375.7323 31.6427 0.0000 0.0000 0.0000
# 3 4.5271 31.6427 60.8886 0.0000 0.0000 0.0000
# 4 0.0000 0.0000 0.0000 19.9690 0.0000 0.0000
# 5 0.0000 0.0000 0.0000 0.0000 99.5118 0.0000
# 6 0.0000 0.0000 0.0000 0.0000 0.0000 36.3536
#
#
#
# Elastic Compliance Matrix: (Units=1/GPa)
#
#
# Indices 1 2 3 4 5 6 
#
# 1 0.009592 -0.001669 0.000154 0.000000 0.000000 0.000000
# 2 -0.001669 0.003074 -0.001473 0.000000 0.000000 0.000000
# 3 0.000154 -0.001473 0.017178 0.000000 0.000000 0.000000
# 4 0.000000 0.000000 0.000000 0.050078 0.000000 0.000000
# 5 0.000000 0.000000 0.000000 0.000000 0.010049 0.000000
# 6 0.000000 0.000000 0.000000 0.000000 0.000000 0.027508
#
#
# Mechanical properties :
#
#
# Convention : Reuss Voigt Hill
#
# Bulk Modulus (GPa) = 41.89831 83.79496 62.84664
# Shear Modulus (GPa) = 38.04904 61.23701 49.64302
#
# Velocity S-wave (km/s) = 3.89760 4.94462 4.45200
# Velocity P-wave (km/s) = 6.08138 8.12740 7.17767
#
# Compressibility (1/GPa) = 0.02386731
#
# Stress axis : x y z
#
# Youngs Moduli (GPa) = 104.25234 325.34587 58.21539
#
# Poissons Ratio (x) = 0.54297 -0.00897
# Poissons Ratio (y) = 0.17399 0.08577
# Poissons Ratio (z) = -0.01607 0.47931
#
# Static dielectric constant tensor:
#      x y z
#    x 2.065830 0.000000 0.000000 
#    y 0.000000 2.129310 0.000000 
#    z 0.000000 0.000000 2.049260 
# 
# From -- ./inp_files/2006.got.cif
#   From: 2010.05.17/outbox.cif.g08.bks.cpg/sg68_2_cif.got.tgz:2006.got - 2010.06.03 18:57:09.
