data_PCOD9505537
_publ_section_title
;
Structure prediction by ZEFSAII (Michael W. Deem and Ramdas Pophale) SiO2 
 PCOD9505537
Probable space group: C C C A
;
_chemical_formula_sum "Si O2"
_cell_formula_units_Z 120
_cell_length_a 17.339190
_cell_length_b 18.853043
_cell_length_c 18.806699
_cell_angle_alpha 90.000000
_cell_angle_beta 90.000000
_cell_angle_gamma 90.000000
_cell_volume 6147.843979
_symmetry_space_group_name_H-M "C C C A"
_symmetry_group_IT_number 68
_space_group.IT_coordinate_system_code '2'
_symmetry_cell_setting 'orthorhombic'
loop_
_space_group_symop_operation_xyz
x,y,z
-x,1/2-y,z
x,1/2-y,1/2-z
-x,y,1/2-z
-x,-y,-z
x,1/2+y,-z
-x,1/2+y,1/2+z
x,-y,1/2+z
1/2+x,1/2+y,z
1/2-x,-y,z
1/2+x,-y,1/2-z
1/2-x,1/2+y,1/2-z
1/2-x,1/2-y,-z
1/2+x,y,-z
1/2-x,y,1/2+z
1/2+x,1/2-y,1/2+z
loop_
_atom_site_type_symbol
_atom_site_label
_atom_site_fract_x
_atom_site_fract_y
_atom_site_fract_z
Si Si1 0.107132 0.750000 0.250000
Si Si2 0.557100 0.688828 0.609799
Si Si3 0.960414 0.923609 0.498792
Si Si4 0.383909 0.665280 0.248988
Si Si5 0.758919 0.322771 0.835169
Si Si6 0.776479 0.419717 0.471583
Si Si7 0.007895 0.835275 0.630632
Si Si8 0.264858 0.298527 0.432013
O O1 0.062708 0.700358 0.305796
O O2 0.160620 0.698109 0.201495
O O3 0.500000 0.750000 0.582728
O O4 0.532375 0.613693 0.578184
O O5 0.643722 0.701245 0.582196
O O6 0.869817 0.921613 0.521258
O O7 0.001887 0.873305 0.555973
O O8 0.000000 0.000000 0.500000
O O9 0.394772 0.750000 0.250000
O O10 0.297516 0.649696 0.226041
O O11 0.416357 0.642642 0.324928
O O12 0.438651 0.641404 0.183770
O O13 0.753012 0.376502 0.901656
O O14 0.729172 0.246281 0.866955
O O15 0.750000 0.500000 0.468752
O O16 0.744683 0.376974 0.540973
O O17 0.000000 0.750000 0.621353
O O18 0.250000 0.250000 0.500000
#
# Coordination Sequence:
#
# PCOD9505537 Si02
#       8
#     8  16  16  16  16  16  16  16
#     4  10  21  36  62  91 110 152 202 260 305 362
#     4  10  21  39  61  85 118 153 199 252 303 358
#     4  11  23  39  57  85 122 163 203 246 300 364
#     4   9  16  30  57  87 115 142 180 243 303 355
#     4  10  17  34  61  87 114 147 195 250 307 354
#     4  10  21  39  55  80 119 160 201 249 294 358
#     4   9  18  34  56  87 115 147 193 241 299 355
#     4   8  18  34  58  86 111 144 194 245 297 350
#
# _framework density 19.519038999999999
#
# number of rings (size 3 to 8) (size 9 to 14) (size 15 to 20)
#    0.000    2.400    2.000    1.400    0.000    3.200 
#    4.800    1.333    5.867    3.200    0.000    0.000 
#    0.000    0.000    0.000    0.000    0.000    0.000 
#
# Total GULP energy -334174.390110 kJ/mol
# GULP energy per Si atom -5569.573169 kJ/mol
# Density = 1.947461 g / cm^3
# Si number density = 19.519039 Si / 1000 Ang^3
#
#
#
# Elastic Constant Matrix: (Units=GPa)
#
#
# Indices 1 2 3 4 5 6 
#
# 1 35.6403 30.6513 34.8271 0.0000 0.0000 0.0000
# 2 30.6513 122.0948 61.7729 0.0000 0.0000 0.0000
# 3 34.8271 61.7729 122.9348 0.0000 0.0000 0.0000
# 4 0.0000 0.0000 0.0000 17.9012 0.0000 0.0000
# 5 0.0000 0.0000 0.0000 0.0000 24.9026 0.0000
# 6 0.0000 0.0000 0.0000 0.0000 0.0000 23.6267
#
#
#
# Elastic Compliance Matrix: (Units=1/GPa)
#
#
# Indices 1 2 3 4 5 6 
#
# 1 0.041886 -0.006050 -0.008826 0.000000 0.000000 0.000000
# 2 -0.006050 0.011856 -0.004244 0.000000 0.000000 0.000000
# 3 -0.008826 -0.004244 0.012767 0.000000 0.000000 0.000000
# 4 0.000000 0.000000 0.000000 0.055862 0.000000 0.000000
# 5 0.000000 0.000000 0.000000 0.000000 0.040156 0.000000
# 6 0.000000 0.000000 0.000000 0.000000 0.000000 0.042325
#
#
# Mechanical properties :
#
#
# Convention : Reuss Voigt Hill
#
# Bulk Modulus (GPa) = 35.37319 59.46361 47.41840
# Shear Modulus (GPa) = 19.80077 23.51401 21.65739
#
# Velocity S-wave (km/s) = 3.18847 3.47460 3.33461
# Velocity P-wave (km/s) = 5.63178 6.82845 6.25878
#
# Compressibility (1/GPa) = 0.02827000
#
# Stress axis : x y z
#
# Youngs Moduli (GPa) = 23.87440 84.34438 78.32548
#
# Poissons Ratio (x) = 0.51026 0.69132
# Poissons Ratio (y) = 0.14443 0.33239
# Poissons Ratio (z) = 0.21072 0.35793
#
# Static dielectric constant tensor:
#      x y z
#    x 1.793060 0.000000 0.000000 
#    y 0.000000 1.659390 0.000000 
#    z 0.000000 0.000000 1.722780 
# 
# From -- ./inp_files/39780.got.cif
#   From: 2010.05.17/outbox.cif.g08.bks.cpg/sg68_20_cif.got.tgz:39780.got - 2010.06.03 18:57:09.
