data_PCOD9505236
_publ_section_title
;
Structure prediction by ZEFSAII (Michael W. Deem and Ramdas Pophale) SiO2 
 PCOD9505236
Probable space group: C M M A
;
_chemical_formula_sum "Si O2"
_cell_formula_units_Z 36
_cell_length_a 9.000000
_cell_length_b 15.000000
_cell_length_c 27.000000
_cell_angle_alpha 90.000000
_cell_angle_beta 90.000000
_cell_angle_gamma 90.000000
_cell_volume 3645.000000
_symmetry_space_group_name_H-M "C M M A"
_symmetry_group_IT_number 67
_symmetry_cell_setting 'orthorhombic'
loop_
_space_group_symop_operation_xyz
x,y,z
-x,1/2-y,z
x,-y,-z
-x,1/2+y,-z
-x,-y,-z
x,1/2+y,-z
-x,y,z
x,1/2-y,z
1/2+x,1/2+y,z
1/2-x,-y,z
1/2+x,1/2-y,-z
1/2-x,y,-z
1/2-x,1/2-y,-z
1/2+x,y,-z
1/2-x,1/2+y,z
1/2+x,-y,z
loop_
_atom_site_type_symbol
_atom_site_label
_atom_site_fract_x
_atom_site_fract_y
_atom_site_fract_z
Si Si1 0.180121 0.596834 0.618537
Si Si2 0.166288 0.250000 0.874348
Si Si3 0.170720 0.908797 0.049583
Si Si4 0.671235 0.250000 0.781440
Si Si5 0.679564 0.750000 0.553614
Si Si6 0.178838 0.595472 0.276353
O O1 0.250000 0.500000 0.608775
O O2 0.251407 0.664761 0.580573
O O3 0.245205 0.623575 0.671950
O O4 0.000000 0.595802 0.618278
O O5 0.174866 0.163644 0.908156
O O6 0.307650 0.250000 0.839486
O O7 0.000000 0.250000 0.849966
O O8 0.000000 0.926989 0.038109
O O9 0.250000 0.000000 0.064439
O O10 0.250000 0.875294 0.000000
O O11 0.500000 0.250000 0.765237
O O12 0.762261 0.165281 0.762662
O O13 0.500000 0.750000 0.554234
O O14 0.750000 0.750000 0.500000
O O15 0.250000 0.500000 0.264855
O O16 0.000000 0.591510 0.280458
#
# Coordination Sequence:
#
# PCOD9505236 Si02
#       6
#    16   8  16   8   8  16
#     4  11  22  40  64  92 121 155 198 245 293 348
#     4  10  23  40  56  80 115 154 190 234 287 344
#     4  10  20  36  59  84 112 145 187 234 284 338
#     4  12  25  40  59  86 119 158 197 240 293 352
#     4  12  25  42  61  88 122 160 200 244 297 352
#     4  11  22  40  64  90 119 154 196 245 293 346
#
# _framework density 9.8765429999999999
#
# number of rings (size 3 to 8) (size 9 to 14) (size 15 to 20)
#    0.000    1.111    0.000    9.667    0.000    3.111 
#    0.000    4.444    0.000    0.000    0.000    0.000 
#    0.000    0.000    0.000    0.000    0.000    0.000 
#
# Total GULP energy -200979.054647 kJ/mol
# GULP energy per Si atom -5582.751518 kJ/mol
# Density = 0.985406 g / cm^3
# Si number density = 9.876543 Si / 1000 Ang^3
#
#
#
# Elastic Constant Matrix: (Units=GPa)
#
#
# Indices 1 2 3 4 5 6 
#
# 1 224.3097 27.4455 54.7035 0.0000 0.0000 0.0000
# 2 27.4455 -51.0844 74.0263 0.0000 0.0000 0.0000
# 3 54.7035 74.0263 65.2312 0.0000 0.0000 0.0000
# 4 0.0000 0.0000 0.0000 42.6970 0.0000 0.0000
# 5 0.0000 0.0000 0.0000 0.0000 33.9073 0.0000
# 6 0.0000 0.0000 0.0000 0.0000 0.0000 4.5496
#
#
#
# Elastic Compliance Matrix: (Units=1/GPa)
#
#
# Indices 1 2 3 4 5 6 
#
# 1 0.005339 -0.001369 -0.002924 0.000000 0.000000 0.000000
# 2 -0.001369 -0.007051 0.009150 0.000000 0.000000 0.000000
# 3 -0.002924 0.009150 0.007398 0.000000 0.000000 0.000000
# 4 0.000000 0.000000 0.000000 0.023421 0.000000 0.000000
# 5 0.000000 0.000000 0.000000 0.000000 0.029492 0.000000
# 6 0.000000 0.000000 0.000000 0.000000 0.000000 0.219797
#
#
# Mechanical properties :
#
#
# Convention : Reuss Voigt Hill
#
# Bulk Modulus (GPa) = 64.93289 61.20080 63.06685
# Shear Modulus (GPa) = 18.26056 21.71620 19.98838
#
# Velocity S-wave (km/s) = 3.04376 3.31929 3.18451
# Velocity P-wave (km/s) = 6.73025 6.76317 6.74673
#
# Compressibility (1/GPa) = 0.01540051
#
# Stress axis : x y z
#
# Youngs Moduli (GPa) = 187.31396 -141.81401 135.16628
#
# Poissons Ratio (x) = -0.19410 0.39520
# Poissons Ratio (y) = 0.25637 -1.23678
# Poissons Ratio (z) = 0.54767 1.29760
#
# Static dielectric constant tensor:
#      x y z
#    x 1.663330 0.000000 0.000000 
#    y 0.000000 1.849700 0.000000 
#    z 0.000000 0.000000 2.155670 
# 
# From -- ./inp_files/43137.got.cif
#   From: 2010.05.17/outbox.ucp.g08.bks.cvg/sg67_22_cif.got.tgz:43137.got - 2010.06.11 16:47:20.
