data_PCOD9505618
_publ_section_title
;
Structure prediction by ZEFSAII (Michael W. Deem and Ramdas Pophale) SiO2 
 PCOD9505618
Probable space group: C C C A
;
_chemical_formula_sum "Si O2"
_cell_formula_units_Z 68
_cell_length_a 5.088089
_cell_length_b 23.670060
_cell_length_c 28.100364
_cell_angle_alpha 90.000000
_cell_angle_beta 90.000000
_cell_angle_gamma 90.000000
_cell_volume 3384.277789
_symmetry_space_group_name_H-M "C C C A"
_symmetry_group_IT_number 68
_space_group.IT_coordinate_system_code '2'
_symmetry_cell_setting 'orthorhombic'
loop_
_space_group_symop_operation_xyz
x,y,z
-x,1/2-y,z
x,1/2-y,1/2-z
-x,y,1/2-z
-x,-y,-z
x,1/2+y,-z
-x,1/2+y,1/2+z
x,-y,1/2+z
1/2+x,1/2+y,z
1/2-x,-y,z
1/2+x,-y,1/2-z
1/2-x,1/2+y,1/2-z
1/2-x,1/2-y,-z
1/2+x,y,-z
1/2-x,y,1/2+z
1/2+x,1/2-y,1/2+z
loop_
_atom_site_type_symbol
_atom_site_label
_atom_site_fract_x
_atom_site_fract_y
_atom_site_fract_z
Si Si1 0.000000 0.568718 0.250000
Si Si2 0.250000 0.000000 0.828702
Si Si3 0.801015 0.620161 0.870230
Si Si4 0.000000 0.750000 0.750000
Si Si5 0.718189 0.158608 0.312819
Si Si6 0.207515 0.934222 0.467658
O O1 0.042288 0.527592 0.206281
O O2 0.218560 0.611198 0.270831
O O3 0.347430 0.054473 0.856096
O O4 0.562640 0.648109 0.839367
O O5 0.743086 0.611741 0.925916
O O6 0.064728 0.650298 0.853558
O O7 0.806387 0.713938 0.715898
O O8 0.421538 0.927832 0.509330
O O9 0.250000 0.000000 0.451358
#
# Coordination Sequence:
#
# PCOD9505618 Si02
#       6
#     8   8  16   4  16  16
#     4  10  20  36  52  88 112 174 198 242 292 368
#     4  10  18  30  52  74 124 150 190 232 276 348
#     4  11  22  38  55  94 113 164 193 249 289 383
#     4  12  24  48  60  90 116 168 200 294 296 364
#     4  11  25  37  62  79 121 150 217 245 314 345
#     4  10  20  36  59  87 124 162 195 237 298 364
#
# _framework density 20.092914
#
# number of rings (size 3 to 8) (size 9 to 14) (size 15 to 20)
#    0.000    1.412    1.176    5.647    0.000    7.059 
#    0.000    0.000    0.000    0.000    0.000   16.471 
#    0.000    0.000    0.000    0.000    0.000    0.000 
#
# Total GULP energy -189420.949772 kJ/mol
# GULP energy per Si atom -5571.204405 kJ/mol
# Density = 2.004718 g / cm^3
# Si number density = 20.092914 Si / 1000 Ang^3
#
#
#
# Elastic Constant Matrix: (Units=GPa)
#
#
# Indices 1 2 3 4 5 6 
#
# 1 75.7219 13.4815 -0.1984 0.0000 0.0000 0.0000
# 2 13.4815 78.4451 21.3006 0.0000 0.0000 0.0000
# 3 -0.1984 21.3006 73.1962 0.0000 0.0000 0.0000
# 4 0.0000 0.0000 0.0000 20.8645 0.0000 0.0000
# 5 0.0000 0.0000 0.0000 0.0000 15.2790 0.0000
# 6 0.0000 0.0000 0.0000 0.0000 0.0000 21.7120
#
#
#
# Elastic Compliance Matrix: (Units=1/GPa)
#
#
# Indices 1 2 3 4 5 6 
#
# 1 0.013664 -0.002561 0.000782 0.000000 0.000000 0.000000
# 2 -0.002561 0.014321 -0.004175 0.000000 0.000000 0.000000
# 3 0.000782 -0.004175 0.014879 0.000000 0.000000 0.000000
# 4 0.000000 0.000000 0.000000 0.047928 0.000000 0.000000
# 5 0.000000 0.000000 0.000000 0.000000 0.065449 0.000000
# 6 0.000000 0.000000 0.000000 0.000000 0.000000 0.046057
#
#
# Mechanical properties :
#
#
# Convention : Reuss Voigt Hill
#
# Bulk Modulus (GPa) = 32.30148 32.94783 32.62465
# Shear Modulus (GPa) = 22.26922 24.42306 23.34614
#
# Velocity S-wave (km/s) = 3.33274 3.49019 3.41238
# Velocity P-wave (km/s) = 5.56062 5.71623 5.63896
#
# Compressibility (1/GPa) = 0.03095833
#
# Stress axis : x y z
#
# Youngs Moduli (GPa) = 73.18404 69.82558 67.20944
#
# Poissons Ratio (x) = 0.17880 -0.05257
# Poissons Ratio (y) = 0.18740 0.28057
# Poissons Ratio (z) = -0.05725 0.29149
#
# Static dielectric constant tensor:
#      x y z
#    x 1.726570 0.000000 0.000000 
#    y 0.000000 1.568690 0.000000 
#    z 0.000000 0.000000 1.747950 
# 
# From -- ./inp_files/48217.got.cif
#   From: 2010.05.17/outbox.cif.g08.bks.cpg/sg68_25_cif.got.tgz:48217.got - 2010.06.03 18:57:09.
