data_PCOD9505162
_publ_section_title
;
Structure prediction by ZEFSAII (Michael W. Deem and Ramdas Pophale) SiO2 
 PCOD9505162
Probable space group: C M M A
;
_chemical_formula_sum "Si O2"
_cell_formula_units_Z 40
_cell_length_a 27.000000
_cell_length_b 18.000000
_cell_length_c 9.000000
_cell_angle_alpha 90.000000
_cell_angle_beta 90.000000
_cell_angle_gamma 90.000000
_cell_volume 4374.000000
_symmetry_space_group_name_H-M "C M M A"
_symmetry_group_IT_number 67
_symmetry_cell_setting 'orthorhombic'
loop_
_space_group_symop_operation_xyz
x,y,z
-x,1/2-y,z
x,-y,-z
-x,1/2+y,-z
-x,-y,-z
x,1/2+y,-z
-x,y,z
x,1/2-y,z
1/2+x,1/2+y,z
1/2-x,-y,z
1/2+x,1/2-y,-z
1/2-x,y,-z
1/2-x,1/2-y,-z
1/2+x,y,-z
1/2-x,1/2+y,z
1/2+x,-y,z
loop_
_atom_site_type_symbol
_atom_site_label
_atom_site_fract_x
_atom_site_fract_y
_atom_site_fract_z
Si Si1 0.442904 0.837638 0.667849
Si Si2 0.361034 0.952072 0.641949
Si Si3 0.195625 0.582370 0.066000
Si Si4 0.944353 0.965479 0.833862
Si Si5 0.594137 0.336243 0.994653
O O1 0.500000 0.859765 0.633462
O O2 0.438271 0.750000 0.636622
O O3 0.397701 0.883933 0.596134
O O4 0.433259 0.847541 0.845871
O O5 0.317238 0.926303 0.756147
O O6 0.344040 0.000000 0.500000
O O7 0.400376 0.001799 0.735600
O O8 0.189266 0.500000 0.000000
O O9 0.250000 0.606359 0.000000
O O10 0.149938 0.632166 0.009378
O O11 0.934469 0.879590 0.866582
O O12 0.000000 0.978957 0.776802
O O13 0.940837 0.000000 0.000000
O O14 0.595766 0.250000 0.965873
#
# Coordination Sequence:
#
# PCOD9505162 Si02
#       5
#    16  16  16  16  16
#     4   9  17  30  50  79 115 155 193 225 264 322
#     4  11  21  35  55  83 113 149 184 229 281 334
#     4  10  19  37  61  80 105 137 183 241 282 332
#     4  11  19  32  53  79 112 150 191 229 263 311
#     4  10  18  31  53  82 112 144 187 235 278 319
#
# _framework density 9.1449470000000002
#
# number of rings (size 3 to 8) (size 9 to 14) (size 15 to 20)
#    0.000    1.800    6.000    1.200    0.000    3.200 
#    0.000    3.000    0.000    0.000    0.000    1.400 
#    0.000    0.000    0.000    0.000    0.000    0.000 
#
# Total GULP energy -222919.762132 kJ/mol
# GULP energy per Si atom -5572.994053 kJ/mol
# Density = 0.912413 g / cm^3
# Si number density = 9.144947 Si / 1000 Ang^3
#
#
#
# Elastic Constant Matrix: (Units=GPa)
#
#
# Indices 1 2 3 4 5 6 
#
# 1 97.5558 0.3916 26.2953 0.0000 0.0000 0.0000
# 2 0.3916 80.8488 8.9244 0.0000 0.0000 0.0000
# 3 26.2953 8.9244 41.0253 0.0000 0.0000 0.0000
# 4 0.0000 0.0000 0.0000 21.4387 0.0000 0.0000
# 5 0.0000 0.0000 0.0000 0.0000 18.6721 0.0000
# 6 0.0000 0.0000 0.0000 0.0000 0.0000 25.9991
#
#
#
# Elastic Compliance Matrix: (Units=1/GPa)
#
#
# Indices 1 2 3 4 5 6 
#
# 1 0.012447 0.000841 -0.008161 0.000000 0.000000 0.000000
# 2 0.000841 0.012730 -0.003308 0.000000 0.000000 0.000000
# 3 -0.008161 -0.003308 0.030325 0.000000 0.000000 0.000000
# 4 0.000000 0.000000 0.000000 0.046645 0.000000 0.000000
# 5 0.000000 0.000000 0.000000 0.000000 0.053556 0.000000
# 6 0.000000 0.000000 0.000000 0.000000 0.000000 0.038463
#
#
# Mechanical properties :
#
#
# Convention : Reuss Voigt Hill
#
# Bulk Modulus (GPa) = 29.20054 32.29471 30.74763
# Shear Modulus (GPa) = 22.04229 25.47657 23.75943
#
# Velocity S-wave (km/s) = 3.47531 3.73625 3.60814
# Velocity P-wave (km/s) = 5.66602 6.02563 5.84859
#
# Compressibility (1/GPa) = 0.03424594
#
# Stress axis : x y z
#
# Youngs Moduli (GPa) = 80.34201 78.55560 32.97570
#
# Poissons Ratio (x) = -0.06603 0.26910
# Poissons Ratio (y) = -0.06753 0.10908
# Poissons Ratio (z) = 0.65564 0.25985
#
# Static dielectric constant tensor:
#      x y z
#    x 1.632660 0.000000 0.000000 
#    y 0.000000 1.690230 0.000000 
#    z 0.000000 0.000000 1.645710 
# 
# From -- ./inp_files/9941.got.cif
#   From: 2010.05.17/outbox.ucp.g08.bks.cvg/sg67_5_cif.got.tgz:9941.got - 2010.06.11 16:47:20.
