data_PCOD9505949
_publ_section_title
;
Structure prediction by ZEFSAII (Michael W. Deem and Ramdas Pophale) SiO2 
 PCOD9505949
Probable space group: C C C A
;
_chemical_formula_sum "Si O2"
_cell_formula_units_Z 68
_cell_length_a 23.401163
_cell_length_b 5.367294
_cell_length_c 26.536740
_cell_angle_alpha 90.000000
_cell_angle_beta 90.000000
_cell_angle_gamma 90.000000
_cell_volume 3333.039005
_symmetry_space_group_name_H-M "C C C A"
_symmetry_group_IT_number 68
_space_group.IT_coordinate_system_code '2'
_symmetry_cell_setting 'orthorhombic'
loop_
_space_group_symop_operation_xyz
x,y,z
-x,1/2-y,z
x,1/2-y,1/2-z
-x,y,1/2-z
-x,-y,-z
x,1/2+y,-z
-x,1/2+y,1/2+z
x,-y,1/2+z
1/2+x,1/2+y,z
1/2-x,-y,z
1/2+x,-y,1/2-z
1/2-x,1/2+y,1/2-z
1/2-x,1/2-y,-z
1/2+x,y,-z
1/2-x,y,1/2+z
1/2+x,1/2-y,1/2+z
loop_
_atom_site_type_symbol
_atom_site_label
_atom_site_fract_x
_atom_site_fract_y
_atom_site_fract_z
Si Si1 0.847904 0.564737 0.892654
Si Si2 0.000000 0.750000 0.250000
Si Si3 0.420823 0.404485 0.517174
Si Si4 0.611496 0.991999 0.719959
Si Si5 0.810892 0.424080 0.555916
O O1 0.860664 0.527315 0.834329
O O2 0.809980 0.334103 0.913075
O O3 0.826600 0.841361 0.907864
O O4 0.906399 0.540970 0.925209
O O5 0.043839 0.581329 0.217774
O O6 0.447898 0.637861 0.490171
O O7 0.359547 0.389011 0.486447
O O8 0.617463 0.250000 0.750000
O O9 0.635912 0.750000 0.750000
O O10 0.750000 0.500000 0.533272
#
# Coordination Sequence:
#
# PCOD9505949 Si02
#       5
#    16   4  16  16  16
#     4  10  19  31  50  75 103 141 167 217 262 294
#     4   8  22  36  62  84  94 120 162 228 270 316
#     4   8  16  27  43  70 101 132 171 208 248 284
#     4  10  20  36  57  80 105 122 167 217 267 319
#     4  10  19  31  49  76 107 141 184 215 238 285
#
# _framework density 20.401800999999999
#
# number of rings (size 3 to 8) (size 9 to 14) (size 15 to 20)
#    0.706    1.882    0.000    2.471    0.000    8.471 
#    0.000    0.000    0.000   14.118    0.000   14.824 
#    0.000    0.000    0.000    0.000    0.000    0.000 
#
# Total GULP energy -189379.909398 kJ/mol
# GULP energy per Si atom -5569.997335 kJ/mol
# Density = 2.035537 g / cm^3
# Si number density = 20.401801 Si / 1000 Ang^3
#
#
#
# Elastic Constant Matrix: (Units=GPa)
#
#
# Indices 1 2 3 4 5 6 
#
# 1 33.9895 -3.6481 6.7763 0.0000 0.0000 0.0000
# 2 -3.6481 171.1586 49.2154 0.0000 0.0000 0.0000
# 3 6.7763 49.2154 126.7253 0.0000 0.0000 0.0000
# 4 0.0000 0.0000 0.0000 31.9877 0.0000 0.0000
# 5 0.0000 0.0000 0.0000 0.0000 24.4875 0.0000
# 6 0.0000 0.0000 0.0000 0.0000 0.0000 25.8838
#
#
#
# Elastic Compliance Matrix: (Units=1/GPa)
#
#
# Indices 1 2 3 4 5 6 
#
# 1 0.029969 0.001238 -0.002083 0.000000 0.000000 0.000000
# 2 0.001238 0.006628 -0.002640 0.000000 0.000000 0.000000
# 3 -0.002083 -0.002640 0.009028 0.000000 0.000000 0.000000
# 4 0.000000 0.000000 0.000000 0.031262 0.000000 0.000000
# 5 0.000000 0.000000 0.000000 0.000000 0.040837 0.000000
# 6 0.000000 0.000000 0.000000 0.000000 0.000000 0.038634
#
#
# Mechanical properties :
#
#
# Convention : Reuss Voigt Hill
#
# Bulk Modulus (GPa) = 25.87084 48.50671 37.18878
# Shear Modulus (GPa) = 28.37453 35.10713 31.74083
#
# Velocity S-wave (km/s) = 3.73337 4.15274 3.94862
# Velocity P-wave (km/s) = 5.59395 6.84258 6.24953
#
# Compressibility (1/GPa) = 0.03865356
#
# Stress axis : x y z
#
# Youngs Moduli (GPa) = 33.36778 150.87236 110.76801
#
# Poissons Ratio (x) = -0.18675 0.23075
# Poissons Ratio (y) = -0.04130 0.29246
# Poissons Ratio (z) = 0.06951 0.39835
#
# Static dielectric constant tensor:
#      x y z
#    x 1.817200 0.000000 0.000000 
#    y 0.000000 1.799100 0.000000 
#    z 0.000000 0.000000 1.671280 
# 
# From -- ./inp_files/41490.got.cif
#   From: 2010.05.17/outbox.cif.g08.bks.cpg/sg68_21_cif.got.tgz:41490.got - 2010.06.03 18:57:09.
