data_PCOD9505148
_publ_section_title
;
Structure prediction by ZEFSAII (Michael W. Deem and Ramdas Pophale) SiO2 
 PCOD9505148
Probable space group: C M M A
;
_chemical_formula_sum "Si O2"
_cell_formula_units_Z 96
_cell_length_a 18.651250
_cell_length_b 15.001765
_cell_length_c 16.184674
_cell_angle_alpha 90.000000
_cell_angle_beta 90.000000
_cell_angle_gamma 90.000000
_cell_volume 4528.498805
_symmetry_space_group_name_H-M "C M M A"
_symmetry_group_IT_number 67
_symmetry_cell_setting 'orthorhombic'
loop_
_space_group_symop_operation_xyz
x,y,z
-x,1/2-y,z
x,-y,-z
-x,1/2+y,-z
-x,-y,-z
x,1/2+y,-z
-x,y,z
x,1/2-y,z
1/2+x,1/2+y,z
1/2-x,-y,z
1/2+x,1/2-y,-z
1/2-x,y,-z
1/2-x,1/2-y,-z
1/2+x,y,-z
1/2-x,1/2+y,z
1/2+x,-y,z
loop_
_atom_site_type_symbol
_atom_site_label
_atom_site_fract_x
_atom_site_fract_y
_atom_site_fract_z
Si Si1 0.581798 0.141160 0.494813
Si Si2 0.325490 0.359181 0.651654
Si Si3 0.917838 0.643223 0.807789
Si Si4 0.418447 0.854837 0.832534
Si Si5 0.081594 0.394871 0.010781
Si Si6 0.661650 0.359179 0.329021
O O1 0.500000 0.112357 0.507789
O O2 0.581635 0.250000 0.495726
O O3 0.633753 0.112225 0.568736
O O4 0.612129 0.114014 0.405858
O O5 0.325406 0.250000 0.651093
O O6 0.369542 0.388693 0.732292
O O7 0.243197 0.387835 0.656535
O O8 0.921719 0.750000 0.800100
O O9 0.000000 0.608947 0.803325
O O10 0.887081 0.624389 0.899230
O O11 0.500000 0.892634 0.833640
O O12 0.425497 0.750000 0.816427
O O13 0.385987 0.862805 0.924391
O O14 0.371102 0.891025 0.757852
O O15 0.000000 0.357059 0.013679
O O16 0.077330 0.500000 0.000000
O O17 0.662703 0.250000 0.327982
#
# Coordination Sequence:
#
# PCOD9505148 Si02
#       6
#    16  16  16  16  16  16
#     4   9  15  23  37  59  88 119 148 179 216 258
#     4   9  16  25  38  59  88 119 148 179 217 260
#     4   9  16  27  44  65  88 115 148 184 220 259
#     4   9  16  27  44  65  88 115 148 184 220 259
#     4   9  17  29  46  67  88 112 146 187 226 262
#     4   9  16  25  38  59  88 119 148 179 217 260
#
# _framework density 21.199079000000001
#
# number of rings (size 3 to 8) (size 9 to 14) (size 15 to 20)
#    0.000    3.000    0.000    2.000    0.000    8.000 
#    0.000    0.833    0.000    6.000    0.000    1.167 
#    0.000    9.333    0.000    0.000    0.000    0.000 
#
# Total GULP energy -267773.913259 kJ/mol
# GULP energy per Si atom -5578.623193 kJ/mol
# Density = 2.115083 g / cm^3
# Si number density = 21.199079 Si / 1000 Ang^3
#
#
#
# Elastic Constant Matrix: (Units=GPa)
#
#
# Indices 1 2 3 4 5 6 
#
# 1 59.6758 -22.7365 14.1140 0.0000 0.0000 0.0000
# 2 -22.7365 41.3753 -35.4341 0.0000 0.0000 0.0000
# 3 14.1140 -35.4341 112.2303 0.0000 0.0000 0.0000
# 4 0.0000 0.0000 0.0000 -38.4341 0.0000 0.0000
# 5 0.0000 0.0000 0.0000 0.0000 354.0168 0.0000
# 6 0.0000 0.0000 0.0000 0.0000 0.0000 -3.7231
#
#
#
# Elastic Compliance Matrix: (Units=1/GPa)
#
#
# Indices 1 2 3 4 5 6 
#
# 1 0.021353 0.012931 0.001397 0.000000 0.000000 0.000000
# 2 0.012931 0.040956 0.011305 0.000000 0.000000 0.000000
# 3 0.001397 0.011305 0.012304 0.000000 0.000000 0.000000
# 4 0.000000 0.000000 0.000000 -0.026019 0.000000 0.000000
# 5 0.000000 0.000000 0.000000 0.000000 0.002825 0.000000
# 6 0.000000 0.000000 0.000000 0.000000 0.000000 -0.268591
#
#
# Mechanical properties :
#
#
# Convention : Reuss Voigt Hill
#
# Bulk Modulus (GPa) = 7.94420 13.90759 10.92589
# Shear Modulus (GPa) = -22.07729 79.52777 28.72524
#
# Velocity S-wave (km/s) = -3.23062 6.13157 3.68506
# Velocity P-wave (km/s) = 3.18752 7.53014 4.82404
#
# Compressibility (1/GPa) = 0.12587803
#
# Stress axis : x y z
#
# Youngs Moduli (GPa) = 46.83115 24.41642 81.27597
#
# Poissons Ratio (x) = -0.31572 -0.11355
# Poissons Ratio (y) = -0.60555 -0.91881
# Poissons Ratio (z) = -0.06543 -0.27602
#
# Static dielectric constant tensor:
#      x y z
#    x 1.731890 0.000000 0.000000 
#    y 0.000000 1.843970 0.000000 
#    z 0.000000 0.000000 1.764180 
# 
# From -- ./inp_files/29269.got.cif
#   From: 2010.05.17/outbox.cif.g08.bks.cpg/sg67_15_cif.got.tgz:29269.got - 2010.06.03 18:28:57.
