data_PCOD9505209
_publ_section_title
;
Structure prediction by ZEFSAII (Michael W. Deem and Ramdas Pophale) SiO2 
 PCOD9505209
Probable space group: C M M A
;
_chemical_formula_sum "Si O2"
_cell_formula_units_Z 40
_cell_length_a 9.000000
_cell_length_b 18.000000
_cell_length_c 27.000000
_cell_angle_alpha 90.000000
_cell_angle_beta 90.000000
_cell_angle_gamma 90.000000
_cell_volume 4374.000000
_symmetry_space_group_name_H-M "C M M A"
_symmetry_group_IT_number 67
_symmetry_cell_setting 'orthorhombic'
loop_
_space_group_symop_operation_xyz
x,y,z
-x,1/2-y,z
x,-y,-z
-x,1/2+y,-z
-x,-y,-z
x,1/2+y,-z
-x,y,z
x,1/2-y,z
1/2+x,1/2+y,z
1/2-x,-y,z
1/2+x,1/2-y,-z
1/2-x,y,-z
1/2-x,1/2-y,-z
1/2+x,y,-z
1/2-x,1/2+y,z
1/2+x,-y,z
loop_
_atom_site_type_symbol
_atom_site_label
_atom_site_fract_x
_atom_site_fract_y
_atom_site_fract_z
Si Si1 0.173102 0.339554 0.254785
Si Si2 0.820790 0.918181 0.050208
Si Si3 0.678462 0.580867 0.652604
Si Si4 0.678363 0.662997 0.551176
Si Si5 0.175028 0.161387 0.846970
O O1 0.186484 0.250000 0.256400
O O2 0.264002 0.373437 0.300172
O O3 0.234813 0.364475 0.201231
O O4 0.000000 0.359284 0.259560
O O5 0.784021 0.875217 0.100760
O O6 0.000000 0.921995 0.045295
O O7 0.750000 0.000000 0.054375
O O8 0.750000 0.884687 0.000000
O O9 0.500000 0.576809 0.653915
O O10 0.750000 0.500000 0.654511
O O11 0.722857 0.619983 0.600824
O O12 0.500000 0.658688 0.546768
O O13 0.719319 0.750000 0.556670
O O14 0.750000 0.635169 0.500000
O O15 0.195055 0.250000 0.851328
O O16 0.000000 0.147005 0.838306
#
# Coordination Sequence:
#
# PCOD9505209 Si02
#       5
#    16  16  16  16  16
#     4  10  21  37  58  83 109 140 180 224 270 322
#     4  10  20  34  53  76 104 139 176 215 261 315
#     4  11  23  38  56  80 112 147 183 224 271 322
#     4   9  19  36  58  82 107 140 181 222 267 319
#     4   9  19  36  56  78 105 139 178 219 266 317
#
# _framework density 9.1449470000000002
#
# number of rings (size 3 to 8) (size 9 to 14) (size 15 to 20)
#    0.000    2.200    0.000    3.000    0.000    6.800 
#    0.000    6.000    0.000    0.000    0.000    0.000 
#    0.000    0.000    0.000    0.000    0.000    0.000 
#
# Total GULP energy -223266.873451 kJ/mol
# GULP energy per Si atom -5581.671836 kJ/mol
# Density = 0.912413 g / cm^3
# Si number density = 9.144947 Si / 1000 Ang^3
#
#
#
# Elastic Constant Matrix: (Units=GPa)
#
#
# Indices 1 2 3 4 5 6 
#
# 1 73.6934 36.1149 77.6196 0.0000 0.0000 0.0000
# 2 36.1149 29.0557 48.4671 0.0000 0.0000 0.0000
# 3 77.6196 48.4671 191.4137 0.0000 0.0000 0.0000
# 4 0.0000 0.0000 0.0000 -205.8095 0.0000 0.0000
# 5 0.0000 0.0000 0.0000 0.0000 39.8658 0.0000
# 6 0.0000 0.0000 0.0000 0.0000 0.0000 22.5470
#
#
#
# Elastic Compliance Matrix: (Units=1/GPa)
#
#
# Indices 1 2 3 4 5 6 
#
# 1 0.038354 -0.037617 -0.006028 0.000000 0.000000 0.000000
# 2 -0.037617 0.096476 -0.009174 0.000000 0.000000 0.000000
# 3 -0.006028 -0.009174 0.009992 0.000000 0.000000 0.000000
# 4 0.000000 0.000000 0.000000 -0.004859 0.000000 0.000000
# 5 0.000000 0.000000 0.000000 0.000000 0.025084 0.000000
# 6 0.000000 0.000000 0.000000 0.000000 0.000000 0.044352
#
#
# Mechanical properties :
#
#
# Convention : Reuss Voigt Hill
#
# Bulk Modulus (GPa) = 25.52115 68.72955 47.12535
# Shear Modulus (GPa) = 15.23937 -19.88192 -2.32128
#
# Velocity S-wave (km/s) = 2.88967 -3.30061 -1.12779
# Velocity P-wave (km/s) = 5.01175 4.80979 4.91181
#
# Compressibility (1/GPa) = 0.03918319
#
# Stress axis : x y z
#
# Youngs Moduli (GPa) = 26.07323 10.36525 100.08357
#
# Poissons Ratio (x) = 0.38991 0.60329
# Poissons Ratio (y) = 0.98079 0.91822
# Poissons Ratio (z) = 0.15716 0.09510
#
# Static dielectric constant tensor:
#      x y z
#    x 1.616270 0.000000 0.000000 
#    y 0.000000 1.620360 0.000000 
#    z 0.000000 0.000000 1.616880 
# 
# From -- ./inp_files/43198.got.cif
#   From: 2010.05.17/outbox.ucp.g08.bks.cvg/sg67_22_cif.got.tgz:43198.got - 2010.06.11 16:47:20.
