data_PCOD9505699
_publ_section_title
;
Structure prediction by ZEFSAII (Michael W. Deem and Ramdas Pophale) SiO2 
 PCOD9505699
Probable space group: C C C A
;
_chemical_formula_sum "Si O2"
_cell_formula_units_Z 80
_cell_length_a 26.016641
_cell_length_b 15.693594
_cell_length_c 8.348958
_cell_angle_alpha 90.000000
_cell_angle_beta 90.000000
_cell_angle_gamma 90.000000
_cell_volume 3408.834476
_symmetry_space_group_name_H-M "C C C A"
_symmetry_group_IT_number 68
_space_group.IT_coordinate_system_code '2'
_symmetry_cell_setting 'orthorhombic'
loop_
_space_group_symop_operation_xyz
x,y,z
-x,1/2-y,z
x,1/2-y,1/2-z
-x,y,1/2-z
-x,-y,-z
x,1/2+y,-z
-x,1/2+y,1/2+z
x,-y,1/2+z
1/2+x,1/2+y,z
1/2-x,-y,z
1/2+x,-y,1/2-z
1/2-x,1/2+y,1/2-z
1/2-x,1/2-y,-z
1/2+x,y,-z
1/2-x,y,1/2+z
1/2+x,1/2-y,1/2+z
loop_
_atom_site_type_symbol
_atom_site_label
_atom_site_fract_x
_atom_site_fract_y
_atom_site_fract_z
Si Si1 0.779433 0.911617 0.925997
Si Si2 0.112579 0.072827 0.908928
Si Si3 0.008255 0.902485 0.560398
Si Si4 0.303609 0.175358 0.879570
Si Si5 0.401892 0.117299 0.038432
O O1 0.831372 0.904238 0.027165
O O2 0.704073 0.904193 0.241392
O O3 0.750000 0.000000 0.946250
O O4 0.739421 0.840464 0.986589
O O5 0.107698 0.095006 0.722980
O O6 0.065893 0.118129 0.005095
O O7 0.105122 0.971749 0.941140
O O8 0.000000 0.899081 0.750000
O O9 0.960414 0.852474 0.483591
O O10 0.000000 0.000000 0.500000
O O11 0.299597 0.250000 0.750000
O O12 0.358325 0.177695 0.966821
#
# Coordination Sequence:
#
# PCOD9505699 Si02
#       5
#    16  16  16  16  16
#     4  12  24  41  66  94 127 172 229 279 332 399
#     4  11  21  36  63  96 129 166 221 284 329 392
#     4  10  18  32  57  93 131 164 208 269 335 389
#     4  12  26  43  63  95 136 180 225 278 347 413
#     4  11  21  37  60  94 132 171 216 271 343 401
#
# _framework density 23.468430999999999
#
# number of rings (size 3 to 8) (size 9 to 14) (size 15 to 20)
#    0.000    0.800    2.000   10.200    0.000    0.000 
#    0.000    0.000    0.000    5.400    0.000    5.600 
#    0.000    0.000    0.000    0.000    0.000    0.000 
#
# Total GULP energy -223827.807083 kJ/mol
# GULP energy per Si atom -5595.695177 kJ/mol
# Density = 2.341502 g / cm^3
# Si number density = 23.468431 Si / 1000 Ang^3
#
#
#
# Elastic Constant Matrix: (Units=GPa)
#
#
# Indices 1 2 3 4 5 6 
#
# 1 212.5474 24.0602 50.8620 0.0000 0.0000 0.0000
# 2 24.0602 41.1540 8.3807 0.0000 0.0000 0.0000
# 3 50.8620 8.3807 170.1656 0.0000 0.0000 0.0000
# 4 0.0000 0.0000 0.0000 14.4471 0.0000 0.0000
# 5 0.0000 0.0000 0.0000 0.0000 50.9716 0.0000
# 6 0.0000 0.0000 0.0000 0.0000 0.0000 -1.1347
#
#
#
# Elastic Compliance Matrix: (Units=1/GPa)
#
#
# Indices 1 2 3 4 5 6 
#
# 1 0.005378 -0.002845 -0.001467 0.000000 0.000000 0.000000
# 2 -0.002845 0.026051 -0.000433 0.000000 0.000000 0.000000
# 3 -0.001467 -0.000433 0.006337 0.000000 0.000000 0.000000
# 4 0.000000 0.000000 0.000000 0.069218 0.000000 0.000000
# 5 0.000000 0.000000 0.000000 0.000000 0.019619 0.000000
# 6 0.000000 0.000000 0.000000 0.000000 0.000000 -0.881325
#
#
# Mechanical properties :
#
#
# Convention : Reuss Voigt Hill
#
# Bulk Modulus (GPa) = 35.36741 65.60809 50.48775
# Shear Modulus (GPa) = -6.79526 35.56109 14.38291
#
# Velocity S-wave (km/s) = -1.70346 3.89687 2.47829
# Velocity P-wave (km/s) = 3.35170 6.94724 5.45426
#
# Compressibility (1/GPa) = 0.02827462
#
# Stress axis : x y z
#
# Youngs Moduli (GPa) = 185.94061 38.38685 157.81544
#
# Poissons Ratio (x) = 0.10923 0.23157
# Poissons Ratio (y) = 0.52908 0.06826
# Poissons Ratio (z) = 0.27284 0.01660
#
# Static dielectric constant tensor:
#      x y z
#    x 1.922610 0.000000 0.000000 
#    y 0.000000 1.938800 0.000000 
#    z 0.000000 0.000000 1.813500 
# 
# From -- ./inp_files/8778.got.cif
#   From: 2010.05.17/outbox.cif.g08.bks.cpg/sg68_5_cif.got.tgz:8778.got - 2010.06.03 18:57:09.
