data_PCOD9505665
_publ_section_title
;
Structure prediction by ZEFSAII (Michael W. Deem and Ramdas Pophale) SiO2 
 PCOD9505665
Probable space group: C C C A
;
_chemical_formula_sum "Si O2"
_cell_formula_units_Z 56
_cell_length_a 5.301462
_cell_length_b 32.467541
_cell_length_c 13.998775
_cell_angle_alpha 90.000000
_cell_angle_beta 90.000000
_cell_angle_gamma 90.000000
_cell_volume 2409.545234
_symmetry_space_group_name_H-M "C C C A"
_symmetry_group_IT_number 68
_space_group.IT_coordinate_system_code '2'
_symmetry_cell_setting 'orthorhombic'
loop_
_space_group_symop_operation_xyz
x,y,z
-x,1/2-y,z
x,1/2-y,1/2-z
-x,y,1/2-z
-x,-y,-z
x,1/2+y,-z
-x,1/2+y,1/2+z
x,-y,1/2+z
1/2+x,1/2+y,z
1/2-x,-y,z
1/2+x,-y,1/2-z
1/2-x,1/2+y,1/2-z
1/2-x,1/2-y,-z
1/2+x,y,-z
1/2-x,y,1/2+z
1/2+x,1/2-y,1/2+z
loop_
_atom_site_type_symbol
_atom_site_label
_atom_site_fract_x
_atom_site_fract_y
_atom_site_fract_z
Si Si1 0.290398 0.123397 0.852420
Si Si2 0.750000 0.500000 0.688888
Si Si3 0.011658 0.203051 0.436619
Si Si4 0.217353 0.910449 0.135629
O O1 0.402760 0.169208 0.859605
O O2 0.504666 0.096758 0.904281
O O3 0.252966 0.105233 0.746028
O O4 0.016265 0.116985 0.897784
O O5 0.500000 0.488405 0.750000
O O6 0.833976 0.458922 0.633889
O O7 0.236010 0.198138 0.515408
O O8 0.000000 0.250000 0.399858
#
# Coordination Sequence:
#
# PCOD9505665 Si02
#       4
#    16   8  16  16
#     4  10  18  32  50  76 107 130 169 217 260 314
#     4  12  16  30  48  80 114 138 172 204 248 320
#     4  10  21  37  56  75  97 135 184 224 258 305
#     4  10  19  30  51  83 107 136 165 207 267 318
#
# _framework density 23.240898999999999
#
# number of rings (size 3 to 8) (size 9 to 14) (size 15 to 20)
#    0.000    1.714    5.714    1.714    0.000    0.000 
#    0.000    2.857    0.000    6.857    0.000   34.000 
#    0.000    0.000    0.000    0.000    0.000    0.000 
#
# Total GULP energy -156044.479098 kJ/mol
# GULP energy per Si atom -5573.017111 kJ/mol
# Density = 2.318800 g / cm^3
# Si number density = 23.240899 Si / 1000 Ang^3
#
#
#
# Elastic Constant Matrix: (Units=GPa)
#
#
# Indices 1 2 3 4 5 6 
#
# 1 187.8898 30.2173 -13.8441 0.0000 0.0000 0.0000
# 2 30.2173 201.6387 15.5306 0.0000 0.0000 0.0000
# 3 -13.8441 15.5306 66.4183 0.0000 0.0000 0.0000
# 4 0.0000 0.0000 0.0000 21.1965 0.0000 0.0000
# 5 0.0000 0.0000 0.0000 0.0000 -0.0612 0.0000
# 6 0.0000 0.0000 0.0000 0.0000 0.0000 35.7692
#
#
#
# Elastic Compliance Matrix: (Units=1/GPa)
#
#
# Indices 1 2 3 4 5 6 
#
# 1 0.005576 -0.000942 0.001382 0.000000 0.000000 0.000000
# 2 -0.000942 0.005209 -0.001414 0.000000 0.000000 0.000000
# 3 0.001382 -0.001414 0.015675 0.000000 0.000000 0.000000
# 4 0.000000 0.000000 0.000000 0.047178 0.000000 0.000000
# 5 0.000000 0.000000 0.000000 0.000000-16.335283 0.000000
# 6 0.000000 0.000000 0.000000 0.000000 0.000000 0.027957
#
#
# Mechanical properties :
#
#
# Convention : Reuss Voigt Hill
#
# Bulk Modulus (GPa) = 40.79640 57.75048 49.27344
# Shear Modulus (GPa) = -0.30819 39.65042 19.67111
#
# Velocity S-wave (km/s) = -0.36455 4.13493 2.91245
# Velocity P-wave (km/s) = 4.17308 6.90648 5.70588
#
# Compressibility (1/GPa) = 0.02451197
#
# Stress axis : x y z
#
# Youngs Moduli (GPa) = 179.35190 191.95756 63.79585
#
# Poissons Ratio (x) = 0.18083 -0.08819
# Poissons Ratio (y) = 0.16896 0.09024
# Poissons Ratio (z) = -0.24794 0.27152
#
# Static dielectric constant tensor:
#      x y z
#    x 2.011110 0.000000 0.000000 
#    y 0.000000 1.889520 0.000000 
#    z 0.000000 0.000000 1.097210 
# 
# From -- ./inp_files/18346.got.cif
#   From: 2010.05.17/outbox.cif.g08.bks.cpg/sg68_10_cif.got.tgz:18346.got - 2010.06.03 18:57:09.
