data_PCOD9505251
_publ_section_title
;
Structure prediction by ZEFSAII (Michael W. Deem and Ramdas Pophale) SiO2 
 PCOD9505251
Probable space group: C M M A
;
_chemical_formula_sum "Si O2"
_cell_formula_units_Z 56
_cell_length_a 15.000000
_cell_length_b 30.000000
_cell_length_c 12.000000
_cell_angle_alpha 90.000000
_cell_angle_beta 90.000000
_cell_angle_gamma 90.000000
_cell_volume 5400.000000
_symmetry_space_group_name_H-M "C M M A"
_symmetry_group_IT_number 67
_symmetry_cell_setting 'orthorhombic'
loop_
_space_group_symop_operation_xyz
x,y,z
-x,1/2-y,z
x,-y,-z
-x,1/2+y,-z
-x,-y,-z
x,1/2+y,-z
-x,y,z
x,1/2-y,z
1/2+x,1/2+y,z
1/2-x,-y,z
1/2+x,1/2-y,-z
1/2-x,y,-z
1/2-x,1/2-y,-z
1/2+x,y,-z
1/2-x,1/2+y,z
1/2+x,-y,z
loop_
_atom_site_type_symbol
_atom_site_label
_atom_site_fract_x
_atom_site_fract_y
_atom_site_fract_z
Si Si1 0.399657 0.926037 0.669938
Si Si2 0.344782 0.979618 0.319112
Si Si3 0.897227 0.332368 0.255801
Si Si4 0.725179 0.298655 0.130162
Si Si5 0.602259 0.925266 0.119733
Si Si6 0.608601 0.114595 0.110604
Si Si7 0.391816 0.109495 0.549839
O O1 0.500000 0.908537 0.678314
O O2 0.360617 0.917841 0.790550
O O3 0.354485 0.897218 0.573873
O O4 0.404692 0.978378 0.648466
O O5 0.353209 0.964002 0.191312
O O6 0.363901 0.935594 0.388203
O O7 0.250000 0.000000 0.343963
O O8 0.817432 0.306133 0.197370
O O9 0.900262 0.380236 0.193444
O O10 0.870717 0.346298 0.381334
O O11 0.000000 0.314591 0.250742
O O12 0.687973 0.250000 0.160076
O O13 0.654741 0.338643 0.139527
O O14 0.750000 0.298429 0.000000
O O15 0.500000 0.940065 0.102148
O O16 0.639874 0.908105 0.003489
O O17 0.500000 0.119301 0.100612
O O18 0.500000 0.108196 0.547410
#
# Coordination Sequence:
#
# PCOD9505251 Si02
#       7
#    16  16  16  16  16  16  16
#     4  10  21  36  55  80 110 151 197 239 282 333
#     4  11  22  32  50  82 116 147 191 247 288 328
#     4   9  18  36  61  85 113 149 187 231 286 347
#     4  11  23  37  60  91 120 145 181 239 300 357
#     4   9  18  36  57  76 107 154 194 230 283 337
#     4  10  22  39  59  82 115 155 193 233 284 353
#     4   9  19  37  59  79 107 151 197 240 286 333
#
# _framework density 10.370369999999999
#
# number of rings (size 3 to 8) (size 9 to 14) (size 15 to 20)
#    0.000    2.143    1.429    2.571    4.000    3.429 
#    0.000    4.286    0.000    1.714    0.000    4.000 
#    0.000    0.000    0.000    0.000    0.000    0.000 
#
# Total GULP energy -311983.691947 kJ/mol
# GULP energy per Si atom -5571.137356 kJ/mol
# Density = 1.034677 g / cm^3
# Si number density = 10.370370 Si / 1000 Ang^3
#
#
#
# Elastic Constant Matrix: (Units=GPa)
#
#
# Indices 1 2 3 4 5 6 
#
# 1 40.4404 -0.8026 4.2574 0.0000 0.0000 0.0000
# 2 -0.8026 21.7449 6.9414 0.0000 0.0000 0.0000
# 3 4.2574 6.9414 76.6058 0.0000 0.0000 0.0000
# 4 0.0000 0.0000 0.0000 29.6637 0.0000 0.0000
# 5 0.0000 0.0000 0.0000 0.0000 7.4490 0.0000
# 6 0.0000 0.0000 0.0000 0.0000 0.0000 21.9332
#
#
#
# Elastic Compliance Matrix: (Units=1/GPa)
#
#
# Indices 1 2 3 4 5 6 
#
# 1 0.024915 0.001402 -0.001512 0.000000 0.000000 0.000000
# 2 0.001402 0.047437 -0.004376 0.000000 0.000000 0.000000
# 3 -0.001512 -0.004376 0.013534 0.000000 0.000000 0.000000
# 4 0.000000 0.000000 0.000000 0.033711 0.000000 0.000000
# 5 0.000000 0.000000 0.000000 0.000000 0.134247 0.000000
# 6 0.000000 0.000000 0.000000 0.000000 0.000000 0.045593
#
#
# Mechanical properties :
#
#
# Convention : Reuss Voigt Hill
#
# Bulk Modulus (GPa) = 13.00151 17.73150 15.36650
# Shear Modulus (GPa) = 14.96798 20.36882 17.66840
#
# Velocity S-wave (km/s) = 2.68931 3.13720 2.92185
# Velocity P-wave (km/s) = 3.99066 4.65729 4.33680
#
# Compressibility (1/GPa) = 0.07691412
#
# Stress axis : x y z
#
# Youngs Moduli (GPa) = 40.13691 21.08079 73.88589
#
# Poissons Ratio (x) = -0.02956 0.11169
# Poissons Ratio (y) = -0.05628 0.32334
# Poissons Ratio (z) = 0.06067 0.09225
#
# Static dielectric constant tensor:
#      x y z
#    x 1.579250 0.000000 0.000000 
#    y 0.000000 1.733800 0.000000 
#    z 0.000000 0.000000 1.854160 
# 
# From -- ./inp_files/18603.got.cif
#   From: 2010.05.17/outbox.ucp.g08.bks.cvg/sg67_10_cif.got.tgz:18603.got - 2010.06.11 16:47:20.
