data_PCOD9505604
_publ_section_title
;
Structure prediction by ZEFSAII (Michael W. Deem and Ramdas Pophale) SiO2 
 PCOD9505604
Probable space group: C C C A
;
_chemical_formula_sum "Si O2"
_cell_formula_units_Z 84
_cell_length_a 18.085229
_cell_length_b 24.203994
_cell_length_c 12.627485
_cell_angle_alpha 90.000000
_cell_angle_beta 90.000000
_cell_angle_gamma 90.000000
_cell_volume 5527.489295
_symmetry_space_group_name_H-M "C C C A"
_symmetry_group_IT_number 68
_space_group.IT_coordinate_system_code '2'
_symmetry_cell_setting 'orthorhombic'
loop_
_space_group_symop_operation_xyz
x,y,z
-x,1/2-y,z
x,1/2-y,1/2-z
-x,y,1/2-z
-x,-y,-z
x,1/2+y,-z
-x,1/2+y,1/2+z
x,-y,1/2+z
1/2+x,1/2+y,z
1/2-x,-y,z
1/2+x,-y,1/2-z
1/2-x,1/2+y,1/2-z
1/2-x,1/2-y,-z
1/2+x,y,-z
1/2-x,y,1/2+z
1/2+x,1/2-y,1/2+z
loop_
_atom_site_type_symbol
_atom_site_label
_atom_site_fract_x
_atom_site_fract_y
_atom_site_fract_z
Si Si1 0.849595 0.947233 0.279707
Si Si2 0.926546 0.357408 0.309018
Si Si3 0.821271 0.926763 0.828382
Si Si4 0.500000 0.250000 0.750000
Si Si5 0.394938 0.050862 0.457824
Si Si6 0.567520 0.573098 0.512682
O O1 0.765476 0.930950 0.305803
O O2 0.871339 0.933440 0.160119
O O3 0.901017 0.920341 0.369349
O O4 0.855137 0.014096 0.290953
O O5 0.859530 0.377283 0.235487
O O6 0.947058 0.292649 0.311965
O O7 0.915297 0.381114 0.425500
O O8 0.000000 0.382439 0.250000
O O9 0.841287 0.924614 0.952505
O O10 0.479063 0.068075 0.481301
O O11 0.396886 0.984289 0.470582
#
# Coordination Sequence:
#
# PCOD9505604 Si02
#       6
#    16  16  16   4  16  16
#     4  10  21  28  45  76 108 146 158 190 255 327
#     4  10  18  35  52  77  92 130 175 226 245 287
#     4  10  20  30  45  71 110 138 167 201 246 304
#     4   8  20  32  60  76  86 124 190 228 264 260
#     4  10  18  30  44  71 106 141 168 194 240 321
#     4  10  19  29  50  69 102 134 173 207 249 295
#
# _framework density 15.196774
#
# number of rings (size 3 to 8) (size 9 to 14) (size 15 to 20)
#    0.571    1.524    3.810    0.571    2.667    1.524 
#    0.000    0.000    0.000    1.143    0.000    5.333 
#    0.000    0.000    0.000    0.000    0.000    0.000 
#
# Total GULP energy -233848.240136 kJ/mol
# GULP energy per Si atom -5567.815241 kJ/mol
# Density = 1.516218 g / cm^3
# Si number density = 15.196774 Si / 1000 Ang^3
#
#
#
# Elastic Constant Matrix: (Units=GPa)
#
#
# Indices 1 2 3 4 5 6 
#
# 1 38.5185 23.6801 32.3116 0.0000 0.0000 0.0000
# 2 23.6801 69.2946 40.5198 0.0000 0.0000 0.0000
# 3 32.3116 40.5198 149.8583 0.0000 0.0000 0.0000
# 4 0.0000 0.0000 0.0000 11.0856 0.0000 0.0000
# 5 0.0000 0.0000 0.0000 0.0000 21.5612 0.0000
# 6 0.0000 0.0000 0.0000 0.0000 0.0000 17.5519
#
#
#
# Elastic Compliance Matrix: (Units=1/GPa)
#
#
# Indices 1 2 3 4 5 6 
#
# 1 0.036070 -0.009239 -0.005279 0.000000 0.000000 0.000000
# 2 -0.009239 0.019508 -0.003283 0.000000 0.000000 0.000000
# 3 -0.005279 -0.003283 0.008699 0.000000 0.000000 0.000000
# 4 0.000000 0.000000 0.000000 0.090207 0.000000 0.000000
# 5 0.000000 0.000000 0.000000 0.000000 0.046380 0.000000
# 6 0.000000 0.000000 0.000000 0.000000 0.000000 0.056974
#
#
# Mechanical properties :
#
#
# Convention : Reuss Voigt Hill
#
# Bulk Modulus (GPa) = 34.87373 50.07714 42.47544
# Shear Modulus (GPa) = 16.50176 20.78372 18.64274
#
# Velocity S-wave (km/s) = 3.29883 3.70217 3.50631
# Velocity P-wave (km/s) = 6.12435 7.16232 6.66358
#
# Compressibility (1/GPa) = 0.02867488
#
# Stress axis : x y z
#
# Youngs Moduli (GPa) = 27.72388 51.26103 114.95888
#
# Poissons Ratio (x) = 0.47362 0.60687
# Poissons Ratio (y) = 0.25615 0.37736
# Poissons Ratio (z) = 0.14635 0.16827
#
# Static dielectric constant tensor:
#      x y z
#    x 1.506560 0.000000 0.000000 
#    y 0.000000 1.487000 0.000000 
#    z 0.000000 0.000000 1.507420 
# 
# From -- ./inp_files/14565.got.cif
#   From: 2010.05.17/outbox.cif.g08.bks.cpg/sg68_8_cif.got.tgz:14565.got - 2010.06.03 18:57:09.
