data_PCOD9505507
_publ_section_title
;
Structure prediction by ZEFSAII (Michael W. Deem and Ramdas Pophale) SiO2 
 PCOD9505507
Probable space group: C C C A
;
_chemical_formula_sum "Si O2"
_cell_formula_units_Z 96
_cell_length_a 16.450808
_cell_length_b 11.009511
_cell_length_c 28.340468
_cell_angle_alpha 90.000000
_cell_angle_beta 90.000000
_cell_angle_gamma 90.000000
_cell_volume 5132.893827
_symmetry_space_group_name_H-M "C C C A"
_symmetry_group_IT_number 68
_space_group.IT_coordinate_system_code '2'
_symmetry_cell_setting 'orthorhombic'
loop_
_space_group_symop_operation_xyz
x,y,z
-x,1/2-y,z
x,1/2-y,1/2-z
-x,y,1/2-z
-x,-y,-z
x,1/2+y,-z
-x,1/2+y,1/2+z
x,-y,1/2+z
1/2+x,1/2+y,z
1/2-x,-y,z
1/2+x,-y,1/2-z
1/2-x,1/2+y,1/2-z
1/2-x,1/2-y,-z
1/2+x,y,-z
1/2-x,y,1/2+z
1/2+x,1/2-y,1/2+z
loop_
_atom_site_type_symbol
_atom_site_label
_atom_site_fract_x
_atom_site_fract_y
_atom_site_fract_z
Si Si1 0.846038 0.877965 0.262549
Si Si2 0.596534 0.763577 0.473030
Si Si3 0.654942 0.521532 0.637130
Si Si4 0.842466 0.868969 0.724991
Si Si5 0.097110 0.756821 0.637293
Si Si6 0.845475 0.469082 0.530814
O O1 0.884850 0.750000 0.250000
O O2 0.751763 0.873263 0.243232
O O3 0.851619 0.889223 0.318936
O O4 0.879241 0.001663 0.239553
O O5 0.500000 0.750000 0.476431
O O6 0.620487 0.748342 0.417861
O O7 0.636695 0.653447 0.501993
O O8 0.616052 0.903283 0.486879
O O9 0.750000 0.500000 0.631082
O O10 0.619793 0.392470 0.652764
O O11 0.623963 0.552660 0.584855
O O12 0.879836 0.750000 0.750000
O O13 0.855888 0.839305 0.670003
O O14 0.000000 0.750000 0.641191
O O15 0.750000 0.500000 0.530693
#
# Coordination Sequence:
#
# PCOD9505507 Si02
#       6
#    16  16  16  16  16  16
#     4  10  18  31  53  78 110 139 184 230 281 337
#     4  10  21  40  60  84 120 156 191 233 295 355
#     4  10  17  35  58  79 111 150 186 226 293 347
#     4  10  17  32  53  79 103 141 188 225 266 338
#     4  10  21  36  58  85 112 148 196 236 274 340
#     4  10  21  36  61  88 115 148 192 248 286 337
#
# _framework density 18.702898999999999
#
# number of rings (size 3 to 8) (size 9 to 14) (size 15 to 20)
#    0.000    2.000    3.333    2.000    0.000    0.333 
#    6.000    0.000    0.000    1.000    0.000    0.000 
#    0.000    0.000    0.000    0.000    0.000    0.000 
#
# Total GULP energy -267269.486537 kJ/mol
# GULP energy per Si atom -5568.114303 kJ/mol
# Density = 1.866033 g / cm^3
# Si number density = 18.702899 Si / 1000 Ang^3
#
#
#
# Elastic Constant Matrix: (Units=GPa)
#
#
# Indices 1 2 3 4 5 6 
#
# 1 23.8390 11.8729 0.7765 0.0000 0.0000 0.0000
# 2 11.8729 138.8237 62.7400 0.0000 0.0000 0.0000
# 3 0.7765 62.7400 106.7395 0.0000 0.0000 0.0000
# 4 0.0000 0.0000 0.0000 62.2622 0.0000 0.0000
# 5 0.0000 0.0000 0.0000 0.0000 6.6609 0.0000
# 6 0.0000 0.0000 0.0000 0.0000 0.0000 24.0935
#
#
#
# Elastic Compliance Matrix: (Units=1/GPa)
#
#
# Indices 1 2 3 4 5 6 
#
# 1 0.044336 -0.004965 0.002596 0.000000 0.000000 0.000000
# 2 -0.004965 0.010365 -0.006056 0.000000 0.000000 0.000000
# 3 0.002596 -0.006056 0.012910 0.000000 0.000000 0.000000
# 4 0.000000 0.000000 0.000000 0.016061 0.000000 0.000000
# 5 0.000000 0.000000 0.000000 0.000000 0.150129 0.000000
# 6 0.000000 0.000000 0.000000 0.000000 0.000000 0.041505
#
#
# Mechanical properties :
#
#
# Convention : Reuss Voigt Hill
#
# Bulk Modulus (GPa) = 19.70055 46.68679 33.19367
# Shear Modulus (GPa) = 16.17718 31.53750 23.85734
#
# Velocity S-wave (km/s) = 2.94420 4.11084 3.57542
# Velocity P-wave (km/s) = 4.70256 6.89554 5.90180
#
# Compressibility (1/GPa) = 0.05076002
#
# Stress axis : x y z
#
# Youngs Moduli (GPa) = 22.55482 96.47728 77.46193
#
# Poissons Ratio (x) = 0.47902 -0.20108
# Poissons Ratio (y) = 0.11199 0.46914
# Poissons Ratio (z) = -0.05855 0.58430
#
# Static dielectric constant tensor:
#      x y z
#    x 1.574400 0.000000 0.000000 
#    y 0.000000 1.670600 0.000000 
#    z 0.000000 0.000000 1.717750 
# 
# From -- ./inp_files/44434.got.cif
#   From: 2010.05.17/outbox.cif.g08.bks.cpg/sg68_23_cif.got.tgz:44434.got - 2010.06.03 18:57:09.
