data_PCOD9505265
_publ_section_title
;
Structure prediction by ZEFSAII (Michael W. Deem and Ramdas Pophale) SiO2 
 PCOD9505265
Probable space group: C M M A
;
_chemical_formula_sum "Si O2"
_cell_formula_units_Z 56
_cell_length_a 30.000000
_cell_length_b 15.000000
_cell_length_c 12.000000
_cell_angle_alpha 90.000000
_cell_angle_beta 90.000000
_cell_angle_gamma 90.000000
_cell_volume 5400.000000
_symmetry_space_group_name_H-M "C M M A"
_symmetry_group_IT_number 67
_symmetry_cell_setting 'orthorhombic'
loop_
_space_group_symop_operation_xyz
x,y,z
-x,1/2-y,z
x,-y,-z
-x,1/2+y,-z
-x,-y,-z
x,1/2+y,-z
-x,y,z
x,1/2-y,z
1/2+x,1/2+y,z
1/2-x,-y,z
1/2+x,1/2-y,-z
1/2-x,y,-z
1/2-x,1/2-y,-z
1/2+x,y,-z
1/2-x,1/2+y,z
1/2+x,-y,z
loop_
_atom_site_type_symbol
_atom_site_label
_atom_site_fract_x
_atom_site_fract_y
_atom_site_fract_z
Si Si1 0.781222 0.932762 0.733689
Si Si2 0.138965 0.077401 0.425363
Si Si3 0.833382 0.650998 0.929802
Si Si4 0.634348 0.355465 0.159671
Si Si5 0.302351 0.351342 0.375183
Si Si6 0.081137 0.651145 0.769028
Si Si7 0.950718 0.475335 0.869500
O O1 0.824406 0.960827 0.662164
O O2 0.799916 0.872626 0.831385
O O3 0.744410 0.900379 0.644885
O O4 0.750000 0.000000 0.799955
O O5 0.168749 0.128938 0.515490
O O6 0.105566 0.133283 0.349220
O O7 0.117004 0.000000 0.500000
O O8 0.820368 0.750000 0.963574
O O9 0.880787 0.649698 0.865426
O O10 0.840767 0.605646 0.049487
O O11 0.623174 0.250000 0.144165
O O12 0.666258 0.361136 0.266097
O O13 0.589224 0.412084 0.170485
O O14 0.288346 0.250000 0.380770
O O15 0.060924 0.750000 0.769744
O O16 0.051438 0.566889 0.799729
O O17 0.000000 0.434578 0.858281
O O18 0.944508 0.500000 0.000000
#
# Coordination Sequence:
#
# PCOD9505265 Si02
#       7
#    16  16  16  16  16  16  16
#     4  11  22  34  54  83 119 159 206 261 314 351
#     4  11  21  37  60  84 119 162 212 263 308 358
#     4   9  19  37  58  81 117 164 207 249 306 370
#     4  10  22  41  62  86 123 165 205 256 313 377
#     4  11  23  36  56  84 115 157 208 257 301 357
#     4  10  21  39  63  90 125 166 204 251 314 380
#     4  11  23  38  64  98 126 153 194 254 321 390
#
# _framework density 10.370369999999999
#
# number of rings (size 3 to 8) (size 9 to 14) (size 15 to 20)
#    0.000    1.571    2.857    2.143    2.000    3.429 
#    0.000    4.286    0.000    3.857    0.000    4.000 
#    0.000    0.000    0.000    0.000    0.000    0.000 
#
# Total GULP energy -311994.100286 kJ/mol
# GULP energy per Si atom -5571.323219 kJ/mol
# Density = 1.034677 g / cm^3
# Si number density = 10.370370 Si / 1000 Ang^3
#
#
#
# Elastic Constant Matrix: (Units=GPa)
#
#
# Indices 1 2 3 4 5 6 
#
# 1 42.3814 21.8813 11.7136 0.0000 0.0000 0.0000
# 2 21.8813 78.8994 23.9401 0.0000 0.0000 0.0000
# 3 11.7136 23.9401 76.3231 0.0000 0.0000 0.0000
# 4 0.0000 0.0000 0.0000 23.7797 0.0000 0.0000
# 5 0.0000 0.0000 0.0000 0.0000 1.1600 0.0000
# 6 0.0000 0.0000 0.0000 0.0000 0.0000 -1.8181
#
#
#
# Elastic Compliance Matrix: (Units=1/GPa)
#
#
# Indices 1 2 3 4 5 6 
#
# 1 0.027824 -0.007096 -0.002044 0.000000 0.000000 0.000000
# 2 -0.007096 0.015817 -0.003872 0.000000 0.000000 0.000000
# 3 -0.002044 -0.003872 0.014631 0.000000 0.000000 0.000000
# 4 0.000000 0.000000 0.000000 0.042053 0.000000 0.000000
# 5 0.000000 0.000000 0.000000 0.000000 0.862090 0.000000
# 6 0.000000 0.000000 0.000000 0.000000 0.000000 -0.550024
#
#
# Mechanical properties :
#
#
# Convention : Reuss Voigt Hill
#
# Bulk Modulus (GPa) = 31.01147 34.74155 32.87651
# Shear Modulus (GPa) = 11.13175 13.96223 12.54699
#
# Velocity S-wave (km/s) = 2.31921 2.59738 2.46223
# Velocity P-wave (km/s) = 4.70702 5.07759 4.89582
#
# Compressibility (1/GPa) = 0.03224614
#
# Stress axis : x y z
#
# Youngs Moduli (GPa) = 35.94015 63.22192 68.35001
#
# Poissons Ratio (x) = 0.44863 0.13974
# Poissons Ratio (y) = 0.25504 0.26467
# Poissons Ratio (z) = 0.07348 0.24481
#
# Static dielectric constant tensor:
#      x y z
#    x 1.706250 0.000000 0.000000 
#    y 0.000000 1.893070 0.000000 
#    z 0.000000 0.000000 1.737070 
# 
# From -- ./inp_files/23775.got.cif
#   From: 2010.05.17/outbox.ucp.g08.bks.cvg/sg67_12_cif.got.tgz:23775.got - 2010.06.11 16:47:20.
