data_PCOD9505395
_publ_section_title
;
Structure prediction by ZEFSAII (Michael W. Deem and Ramdas Pophale) SiO2 
 PCOD9505395
Probable space group: C C C A
;
_chemical_formula_sum "Si O2"
_cell_formula_units_Z 72
_cell_length_a 9.200428
_cell_length_b 18.472434
_cell_length_c 20.160249
_cell_angle_alpha 90.000000
_cell_angle_beta 90.000000
_cell_angle_gamma 90.000000
_cell_volume 3426.320986
_symmetry_space_group_name_H-M "C C C A"
_symmetry_group_IT_number 68
_space_group.IT_coordinate_system_code '2'
_symmetry_cell_setting 'orthorhombic'
loop_
_space_group_symop_operation_xyz
x,y,z
-x,1/2-y,z
x,1/2-y,1/2-z
-x,y,1/2-z
-x,-y,-z
x,1/2+y,-z
-x,1/2+y,1/2+z
x,-y,1/2+z
1/2+x,1/2+y,z
1/2-x,-y,z
1/2+x,-y,1/2-z
1/2-x,1/2+y,1/2-z
1/2-x,1/2-y,-z
1/2+x,y,-z
1/2-x,y,1/2+z
1/2+x,1/2-y,1/2+z
loop_
_atom_site_type_symbol
_atom_site_label
_atom_site_fract_x
_atom_site_fract_y
_atom_site_fract_z
Si Si1 0.609678 0.361253 0.445040
Si Si2 0.119573 0.421073 0.866511
Si Si3 0.063525 0.420698 0.320638
Si Si4 0.429045 0.320863 0.574750
Si Si5 0.250000 0.000000 0.507515
O O1 0.508938 0.365427 0.380123
O O2 0.515865 0.332054 0.506275
O O3 0.757422 0.316552 0.436279
O O4 0.661076 0.443073 0.463955
O O5 0.069865 0.492267 0.827120
O O6 0.270944 0.395080 0.835070
O O7 0.159562 0.450815 0.940656
O O8 0.000000 0.399514 0.250000
O O9 0.964434 0.389008 0.378912
O O10 0.500000 0.250000 0.606896
#
# Coordination Sequence:
#
# PCOD9505395 Si02
#       5
#    16  16  16  16   8
#     4  12  20  36  60  90 122 150 191 252 315 370
#     4  10  20  36  63  90 118 146 197 251 315 373
#     4  10  22  41  59  83 119 157 199 251 295 363
#     4  12  24  37  56  85 120 163 203 240 298 360
#     4  10  16  32  60  86 124 146 182 240 320 366
#
# _framework density 21.013791999999999
#
# number of rings (size 3 to 8) (size 9 to 14) (size 15 to 20)
#    0.000    1.333    6.667    2.667    0.000    4.000 
#    0.000    0.000    0.000    0.000    0.000    6.222 
#    0.000    0.000    0.000    0.000    0.000    0.000 
#
# Total GULP energy -201128.968527 kJ/mol
# GULP energy per Si atom -5586.915792 kJ/mol
# Density = 2.096596 g / cm^3
# Si number density = 21.013792 Si / 1000 Ang^3
#
#
#
# Elastic Constant Matrix: (Units=GPa)
#
#
# Indices 1 2 3 4 5 6 
#
# 1 152.3474 16.2514 57.5806 0.0000 0.0000 0.0000
# 2 16.2514 17.5426 9.9711 0.0000 0.0000 0.0000
# 3 57.5806 9.9711 67.6584 0.0000 0.0000 0.0000
# 4 0.0000 0.0000 0.0000 -0.5893 0.0000 0.0000
# 5 0.0000 0.0000 0.0000 0.0000 21.2177 0.0000
# 6 0.0000 0.0000 0.0000 0.0000 0.0000 23.7016
#
#
#
# Elastic Compliance Matrix: (Units=1/GPa)
#
#
# Indices 1 2 3 4 5 6 
#
# 1 0.010041 -0.004851 -0.007830 0.000000 0.000000 0.000000
# 2 -0.004851 0.064559 -0.005386 0.000000 0.000000 0.000000
# 3 -0.007830 -0.005386 0.022238 0.000000 0.000000 0.000000
# 4 0.000000 0.000000 0.000000 -1.696937 0.000000 0.000000
# 5 0.000000 0.000000 0.000000 0.000000 0.047130 0.000000
# 6 0.000000 0.000000 0.000000 0.000000 0.000000 0.042191
#
#
# Mechanical properties :
#
#
# Convention : Reuss Voigt Hill
#
# Bulk Modulus (GPa) = 16.47352 45.01716 30.74534
# Shear Modulus (GPa) = -3.43782 19.11570 7.83894
#
# Velocity S-wave (km/s) = -1.28044 3.01935 1.93351
# Velocity P-wave (km/s) = 2.38125 5.79866 4.43254
#
# Compressibility (1/GPa) = 0.06070347
#
# Stress axis : x y z
#
# Youngs Moduli (GPa) = 99.59172 15.48964 44.96817
#
# Poissons Ratio (x) = 0.07514 0.35212
# Poissons Ratio (y) = 0.48314 0.24219
# Poissons Ratio (z) = 0.77985 0.08342
#
# Static dielectric constant tensor:
#      x y z
#    x 1.841570 0.000000 0.000000 
#    y 0.000000 1.846650 0.000000 
#    z 0.000000 0.000000 1.739560 
# 
# From -- ./inp_files/36023.got.cif
#   From: 2010.05.17/outbox.cif.g08.bks.cpg/sg68_19_cif.got.tgz:36023.got - 2010.06.03 18:57:09.
