data_PCOD9505713
_publ_section_title
;
Structure prediction by ZEFSAII (Michael W. Deem and Ramdas Pophale) SiO2 
 PCOD9505713
Probable space group: C C C A
;
_chemical_formula_sum "Si O2"
_cell_formula_units_Z 104
_cell_length_a 22.390244
_cell_length_b 16.796471
_cell_length_c 14.291212
_cell_angle_alpha 90.000000
_cell_angle_beta 90.000000
_cell_angle_gamma 90.000000
_cell_volume 5374.597336
_symmetry_space_group_name_H-M "C C C A"
_symmetry_group_IT_number 68
_space_group.IT_coordinate_system_code '2'
_symmetry_cell_setting 'orthorhombic'
loop_
_space_group_symop_operation_xyz
x,y,z
-x,1/2-y,z
x,1/2-y,1/2-z
-x,y,1/2-z
-x,-y,-z
x,1/2+y,-z
-x,1/2+y,1/2+z
x,-y,1/2+z
1/2+x,1/2+y,z
1/2-x,-y,z
1/2+x,-y,1/2-z
1/2-x,1/2+y,1/2-z
1/2-x,1/2-y,-z
1/2+x,y,-z
1/2-x,y,1/2+z
1/2+x,1/2-y,1/2+z
loop_
_atom_site_type_symbol
_atom_site_label
_atom_site_fract_x
_atom_site_fract_y
_atom_site_fract_z
Si Si1 0.799147 0.434658 0.834357
Si Si2 0.726210 0.091474 0.960656
Si Si3 0.922493 0.054394 0.597178
Si Si4 0.500000 0.530937 0.250000
Si Si5 0.839526 0.129957 0.855324
Si Si6 0.601482 0.456475 0.612840
Si Si7 0.066404 0.762397 0.361798
O O1 0.750000 0.500000 0.803183
O O2 0.858838 0.480737 0.869056
O O3 0.817299 0.374947 0.752114
O O4 0.778671 0.391760 0.929217
O O5 0.779178 0.138808 0.913498
O O6 0.662021 0.093926 0.908948
O O7 0.750000 0.000000 0.954926
O O8 0.931081 0.039045 0.487860
O O9 0.916502 0.148618 0.612144
O O10 0.971864 0.022574 0.667765
O O11 0.444049 0.571287 0.305368
O O12 0.885310 0.196850 0.888090
O O13 0.873773 0.045058 0.865150
O O14 0.062733 0.750000 0.250000
O O15 0.000000 0.750000 0.401164
#
# Coordination Sequence:
#
# PCOD9505713 Si02
#       7
#    16  16  16   8  16  16  16
#     4  10  18  33  56  80 115 153 192 248 293 351
#     4   8  18  32  51  82 115 149 197 244 296 348
#     4  11  22  36  56  88 125 148 203 253 306 361
#     4  12  20  34  55  86 119 164 200 250 306 368
#     4  11  19  35  61  84 116 159 202 241 315 360
#     4  10  20  35  54  86 119 152 203 258 295 360
#     4  11  21  36  58  87 122 159 192 241 308 368
#
# _framework density 19.350287000000002
#
# number of rings (size 3 to 8) (size 9 to 14) (size 15 to 20)
#    0.000    1.692    3.077    4.615    0.000    0.000 
#    0.000    3.077    0.000    0.000    0.000    4.846 
#    0.000    0.000    0.000    0.000    0.000    0.000 
#
# Total GULP energy -289825.519723 kJ/mol
# GULP energy per Si atom -5573.567687 kJ/mol
# Density = 1.930624 g / cm^3
# Si number density = 19.350287 Si / 1000 Ang^3
#
#
#
# Elastic Constant Matrix: (Units=GPa)
#
#
# Indices 1 2 3 4 5 6 
#
# 1 136.9434 29.0365 59.8440 0.0000 0.0000 0.0000
# 2 29.0365 31.5650 12.5903 0.0000 0.0000 0.0000
# 3 59.8440 12.5903 122.2478 0.0000 0.0000 0.0000
# 4 0.0000 0.0000 0.0000 -6.0294 0.0000 0.0000
# 5 0.0000 0.0000 0.0000 0.0000 17.0150 0.0000
# 6 0.0000 0.0000 0.0000 0.0000 0.0000 82.3050
#
#
#
# Elastic Compliance Matrix: (Units=1/GPa)
#
#
# Indices 1 2 3 4 5 6 
#
# 1 0.011066 -0.008363 -0.004556 0.000000 0.000000 0.000000
# 2 -0.008363 0.039357 0.000040 0.000000 0.000000 0.000000
# 3 -0.004556 0.000040 0.010406 0.000000 0.000000 0.000000
# 4 0.000000 0.000000 0.000000 -0.165855 0.000000 0.000000
# 5 0.000000 0.000000 0.000000 0.000000 0.058772 0.000000
# 6 0.000000 0.000000 0.000000 0.000000 0.000000 0.012150
#
#
# Mechanical properties :
#
#
# Convention : Reuss Voigt Hill
#
# Bulk Modulus (GPa) = 28.51177 54.85531 41.68354
# Shear Modulus (GPa) = 1494.87382 31.27716 763.07549
#
# Velocity S-wave (km/s) = 27.82463 4.02477 19.87975
# Velocity P-wave (km/s) = 32.35810 7.07167 23.42067
#
# Compressibility (1/GPa) = 0.03507323
#
# Stress axis : x y z
#
# Youngs Moduli (GPa) = 90.36321 25.40826 96.09570
#
# Poissons Ratio (x) = 0.21248 0.43782
# Poissons Ratio (y) = 0.75568 -0.00388
# Poissons Ratio (z) = 0.41170 -0.00103
#
# Static dielectric constant tensor:
#      x y z
#    x 1.782770 0.000000 0.000000 
#    y 0.000000 1.674050 0.000000 
#    z 0.000000 0.000000 1.770510 
# 
# From -- ./inp_files/24658.got.cif
#   From: 2010.05.17/outbox.cif.g08.bks.cpg/sg68_13_cif.got.tgz:24658.got - 2010.06.03 18:57:09.
