data_PCOD9505329
_publ_section_title
;
Structure prediction by ZEFSAII (Michael W. Deem and Ramdas Pophale) SiO2 
 PCOD9505329
Probable space group: C C C A
;
_chemical_formula_sum "Si O2"
_cell_formula_units_Z 56
_cell_length_a 34.656714
_cell_length_b 5.464244
_cell_length_c 13.127749
_cell_angle_alpha 90.000000
_cell_angle_beta 90.000000
_cell_angle_gamma 90.000000
_cell_volume 2486.037818
_symmetry_space_group_name_H-M "C C C A"
_symmetry_group_IT_number 68
_space_group.IT_coordinate_system_code '2'
_symmetry_cell_setting 'orthorhombic'
loop_
_space_group_symop_operation_xyz
x,y,z
-x,1/2-y,z
x,1/2-y,1/2-z
-x,y,1/2-z
-x,-y,-z
x,1/2+y,-z
-x,1/2+y,1/2+z
x,-y,1/2+z
1/2+x,1/2+y,z
1/2-x,-y,z
1/2+x,-y,1/2-z
1/2-x,1/2+y,1/2-z
1/2-x,1/2-y,-z
1/2+x,y,-z
1/2-x,y,1/2+z
1/2+x,1/2-y,1/2+z
loop_
_atom_site_type_symbol
_atom_site_label
_atom_site_fract_x
_atom_site_fract_y
_atom_site_fract_z
Si Si1 0.125509 0.157143 0.117325
Si Si2 0.274161 0.750000 0.750000
Si Si3 0.155209 0.657278 0.116500
Si Si4 0.458718 0.791577 0.435984
O O1 0.148901 0.386659 0.159994
O O2 0.081328 0.244198 0.120011
O O3 0.128917 0.880969 0.154667
O O4 0.143053 0.132516 0.001969
O O5 0.250000 0.500000 0.754146
O O6 0.302149 0.764030 0.849168
O O7 0.500000 0.750000 0.382450
O O8 0.458184 0.568709 0.519798
#
# Coordination Sequence:
#
# PCOD9505329 Si02
#       4
#    16   8  16  16
#     4  10  17  35  55  85 105 138 183 215 249 309
#     4  12  26  44  56  78 105 136 173 222 280 336
#     4  10  20  35  58  76 105 136 174 220 263 319
#     4  10  16  25  46  82 117 140 167 218 258 287
#
# _framework density 22.525804000000001
#
# number of rings (size 3 to 8) (size 9 to 14) (size 15 to 20)
#    0.000    1.714    5.714    1.714    0.000    0.000 
#    0.000   17.143    0.000    0.000    0.000   11.000 
#    0.000    0.000    0.000    0.000    0.000    0.000 
#
# Total GULP energy -155941.798822 kJ/mol
# GULP energy per Si atom -5569.349958 kJ/mol
# Density = 2.247453 g / cm^3
# Si number density = 22.525804 Si / 1000 Ang^3
#
#
#
# Elastic Constant Matrix: (Units=GPa)
#
#
# Indices 1 2 3 4 5 6 
#
# 1 148.8086 23.2512 8.2062 0.0000 0.0000 0.0000
# 2 23.2512 176.3568 28.3238 0.0000 0.0000 0.0000
# 3 8.2062 28.3238 83.7799 0.0000 0.0000 0.0000
# 4 0.0000 0.0000 0.0000 34.5489 0.0000 0.0000
# 5 0.0000 0.0000 0.0000 0.0000 -82.5846 0.0000
# 6 0.0000 0.0000 0.0000 0.0000 0.0000 45.7576
#
#
#
# Elastic Compliance Matrix: (Units=1/GPa)
#
#
# Indices 1 2 3 4 5 6 
#
# 1 0.006873 -0.000844 -0.000388 0.000000 0.000000 0.000000
# 2 -0.000844 0.006099 -0.001979 0.000000 0.000000 0.000000
# 3 -0.000388 -0.001979 0.012643 0.000000 0.000000 0.000000
# 4 0.000000 0.000000 0.000000 0.028944 0.000000 0.000000
# 5 0.000000 0.000000 0.000000 0.000000 -0.012109 0.000000
# 6 0.000000 0.000000 0.000000 0.000000 0.000000 0.021854
#
#
# Mechanical properties :
#
#
# Convention : Reuss Voigt Hill
#
# Bulk Modulus (GPa) = 52.10091 58.72307 55.41199
# Shear Modulus (GPa) = 64.82873 22.82200 43.82536
#
# Velocity S-wave (km/s) = 5.37050 3.18645 4.41564
# Velocity P-wave (km/s) = 7.85086 6.29792 7.11687
#
# Compressibility (1/GPa) = 0.01919352
#
# Stress axis : x y z
#
# Youngs Moduli (GPa) = 145.49074 163.94827 79.09374
#
# Poissons Ratio (x) = 0.13835 0.03068
# Poissons Ratio (y) = 0.12278 0.15656
# Poissons Ratio (z) = 0.05644 0.32452
#
# Static dielectric constant tensor:
#      x y z
#    x 1.847030 0.000000 0.000000 
#    y 0.000000 1.846740 0.000000 
#    z 0.000000 0.000000 1.888890 
# 
# From -- ./inp_files/702.got.cif
#   From: 2010.05.17/outbox.cif.g08.bks.cpg/sg68_1_cif.got.tgz:702.got - 2010.06.03 18:57:09.
