data_PCOD9505456
_publ_section_title
;
Structure prediction by ZEFSAII (Michael W. Deem and Ramdas Pophale) SiO2 
 PCOD9505456
Probable space group: C C C A
;
_chemical_formula_sum "Si O2"
_cell_formula_units_Z 120
_cell_length_a 14.785080
_cell_length_b 24.717474
_cell_length_c 18.311234
_cell_angle_alpha 90.000000
_cell_angle_beta 90.000000
_cell_angle_gamma 90.000000
_cell_volume 6691.837361
_symmetry_space_group_name_H-M "C C C A"
_symmetry_group_IT_number 68
_space_group.IT_coordinate_system_code '2'
_symmetry_cell_setting 'orthorhombic'
loop_
_space_group_symop_operation_xyz
x,y,z
-x,1/2-y,z
x,1/2-y,1/2-z
-x,y,1/2-z
-x,-y,-z
x,1/2+y,-z
-x,1/2+y,1/2+z
x,-y,1/2+z
1/2+x,1/2+y,z
1/2-x,-y,z
1/2+x,-y,1/2-z
1/2-x,1/2+y,1/2-z
1/2-x,1/2-y,-z
1/2+x,y,-z
1/2-x,y,1/2+z
1/2+x,1/2-y,1/2+z
loop_
_atom_site_type_symbol
_atom_site_label
_atom_site_fract_x
_atom_site_fract_y
_atom_site_fract_z
Si Si1 0.293776 0.083436 0.605583
Si Si2 0.167292 0.307234 0.038082
Si Si3 0.750000 0.000000 0.520634
Si Si4 0.022211 0.308080 0.917254
Si Si5 0.905268 0.923530 0.558172
Si Si6 0.919402 0.083740 0.884380
Si Si7 0.955176 0.532219 0.673250
Si Si8 0.140613 0.810178 0.530906
O O1 0.188691 0.089710 0.625885
O O2 0.353311 0.053964 0.666102
O O3 0.339207 0.140104 0.583896
O O4 0.294324 0.044388 0.533943
O O5 0.131368 0.362746 0.072749
O O6 0.141104 0.248646 0.069831
O O7 0.118875 0.305212 0.958362
O O8 0.274059 0.310024 0.024672
O O9 0.675014 0.032500 0.565619
O O10 0.028129 0.360856 0.867755
O O11 0.000000 0.250000 0.883191
O O12 0.949778 0.316055 0.983023
O O13 0.930921 0.925585 0.472069
O O14 0.987503 0.939387 0.609225
O O15 0.953851 0.031634 0.842504
O O16 0.000000 0.544435 0.750000
#
# Coordination Sequence:
#
# PCOD9505456 Si02
#       8
#    16  16   8  16  16  16  16  16
#     4  11  18  35  57  77 110 148 185 226 285 341
#     4   9  17  30  46  86 117 145 175 231 278 341
#     4  10  18  30  54  86 104 142 178 234 278 328
#     4   9  17  28  48  84 119 141 178 230 281 338
#     4  10  19  35  56  81 115 138 193 231 282 334
#     4  10  19  36  59  81 110 145 189 232 284 340
#     4  12  25  37  53  81 113 154 191 233 283 344
#     4  10  17  27  54  82 119 143 175 228 296 318
#
# _framework density 17.932295
#
# number of rings (size 3 to 8) (size 9 to 14) (size 15 to 20)
#    0.000    1.867    6.667    2.000    1.867    0.000 
#    2.400    0.000    0.000    2.000    0.000    1.867 
#    0.000    0.000    0.000    0.000    0.000    0.000 
#
# Total GULP energy -334452.817852 kJ/mol
# GULP energy per Si atom -5574.213631 kJ/mol
# Density = 1.789148 g / cm^3
# Si number density = 17.932295 Si / 1000 Ang^3
#
#
#
# Elastic Constant Matrix: (Units=GPa)
#
#
# Indices 1 2 3 4 5 6 
#
# 1 78.1950 14.0089 16.9185 0.0000 0.0000 0.0000
# 2 14.0089 122.0239 -6.2199 0.0000 0.0000 0.0000
# 3 16.9185 -6.2199 23.8542 0.0000 0.0000 0.0000
# 4 0.0000 0.0000 0.0000 4.0457 0.0000 0.0000
# 5 0.0000 0.0000 0.0000 0.0000 8.7637 0.0000
# 6 0.0000 0.0000 0.0000 0.0000 0.0000 30.9922
#
#
#
# Elastic Compliance Matrix: (Units=1/GPa)
#
#
# Indices 1 2 3 4 5 6 
#
# 1 0.015778 -0.002414 -0.011820 0.000000 0.000000 0.000000
# 2 -0.002414 0.008675 0.003974 0.000000 0.000000 0.000000
# 3 -0.011820 0.003974 0.051341 0.000000 0.000000 0.000000
# 4 0.000000 0.000000 0.000000 0.247179 0.000000 0.000000
# 5 0.000000 0.000000 0.000000 0.000000 0.114107 0.000000
# 6 0.000000 0.000000 0.000000 0.000000 0.000000 0.032266
#
#
# Mechanical properties :
#
#
# Convention : Reuss Voigt Hill
#
# Bulk Modulus (GPa) = 18.09169 30.38756 24.23963
# Shear Modulus (GPa) = 9.83688 22.05135 15.94412
#
# Velocity S-wave (km/s) = 2.34467 3.51051 2.98506
# Velocity P-wave (km/s) = 4.17621 5.78049 5.04256
#
# Compressibility (1/GPa) = 0.05527399
#
# Stress axis : x y z
#
# Youngs Moduli (GPa) = 63.37754 115.27626 19.47758
#
# Poissons Ratio (x) = 0.27827 0.23023
# Poissons Ratio (y) = 0.15299 -0.07740
# Poissons Ratio (z) = 0.74914 -0.45811
#
# Static dielectric constant tensor:
#      x y z
#    x 1.639400 0.000000 0.000000 
#    y 0.000000 1.697920 0.000000 
#    z 0.000000 0.000000 1.553500 
# 
# From -- ./inp_files/38988.got.cif
#   From: 2010.05.17/outbox.cif.g08.bks.cpg/sg68_20_cif.got.tgz:38988.got - 2010.06.03 18:57:09.
