data_PCOD9505210
_publ_section_title
;
Structure prediction by ZEFSAII (Michael W. Deem and Ramdas Pophale) SiO2 
 PCOD9505210
Probable space group: C M M A
;
_chemical_formula_sum "Si O2"
_cell_formula_units_Z 40
_cell_length_a 18.000000
_cell_length_b 9.000000
_cell_length_c 27.000000
_cell_angle_alpha 90.000000
_cell_angle_beta 90.000000
_cell_angle_gamma 90.000000
_cell_volume 4374.000000
_symmetry_space_group_name_H-M "C M M A"
_symmetry_group_IT_number 67
_symmetry_cell_setting 'orthorhombic'
loop_
_space_group_symop_operation_xyz
x,y,z
-x,1/2-y,z
x,-y,-z
-x,1/2+y,-z
-x,-y,-z
x,1/2+y,-z
-x,y,z
x,1/2-y,z
1/2+x,1/2+y,z
1/2-x,-y,z
1/2+x,1/2-y,-z
1/2-x,y,-z
1/2-x,1/2-y,-z
1/2+x,y,-z
1/2-x,1/2+y,z
1/2+x,-y,z
loop_
_atom_site_type_symbol
_atom_site_label
_atom_site_fract_x
_atom_site_fract_y
_atom_site_fract_z
Si Si1 0.910341 0.576923 0.346941
Si Si2 0.590609 0.578315 0.449199
Si Si3 0.090555 0.577984 0.050600
Si Si4 0.912867 0.428088 0.152530
Si Si5 0.330917 0.428618 0.745852
O O1 0.889006 0.750000 0.344476
O O2 0.886161 0.506732 0.399405
O O3 0.877267 0.488867 0.300677
O O4 0.000000 0.568377 0.345023
O O5 0.615201 0.500000 0.500000
O O6 0.500000 0.575822 0.449634
O O7 0.613685 0.750000 0.447842
O O8 0.111357 0.750000 0.050223
O O9 0.114965 0.501583 0.101694
O O10 0.000000 0.568943 0.050534
O O11 0.116104 0.500000 0.000000
O O12 0.908436 0.250000 0.147125
O O13 0.869435 0.471381 0.202066
O O14 0.000000 0.467025 0.158809
O O15 0.327257 0.250000 0.743799
O O16 0.250000 0.500000 0.743771
#
# Coordination Sequence:
#
# PCOD9505210 Si02
#       5
#    16  16  16  16  16
#     4  10  20  34  54  80 108 138 175 218 261 308
#     4   9  16  27  46  74 107 139 171 210 257 306
#     4   9  16  26  44  72 104 134 164 202 249 300
#     4   9  18  33  53  76 102 133 170 211 255 305
#     4  11  23  38  55  75 103 139 177 218 265 314
#
# _framework density 9.1449470000000002
#
# number of rings (size 3 to 8) (size 9 to 14) (size 15 to 20)
#    0.000    2.400    0.000    3.000    0.000    8.400 
#    0.000    2.000    0.000    1.200    0.000    8.400 
#    0.000    0.000    0.000    0.000    0.000    0.000 
#
# Total GULP energy -223208.566585 kJ/mol
# GULP energy per Si atom -5580.214165 kJ/mol
# Density = 0.912413 g / cm^3
# Si number density = 9.144947 Si / 1000 Ang^3
#
#
#
# Elastic Constant Matrix: (Units=GPa)
#
#
# Indices 1 2 3 4 5 6 
#
# 1 17.5826 27.2753 34.8331 0.0000 0.0000 0.0000
# 2 27.2753 103.0159 90.2801 0.0000 0.0000 0.0000
# 3 34.8331 90.2801 207.1518 0.0000 0.0000 0.0000
# 4 0.0000 0.0000 0.0000 41.5867 0.0000 0.0000
# 5 0.0000 0.0000 0.0000 0.0000 -4.6905 0.0000
# 6 0.0000 0.0000 0.0000 0.0000 0.0000 16.5825
#
#
#
# Elastic Compliance Matrix: (Units=1/GPa)
#
#
# Indices 1 2 3 4 5 6 
#
# 1 0.106068 -0.020148 -0.009055 0.000000 0.000000 0.000000
# 2 -0.020148 0.019533 -0.005125 0.000000 0.000000 0.000000
# 3 -0.009055 -0.005125 0.008583 0.000000 0.000000 0.000000
# 4 0.000000 0.000000 0.000000 0.024046 0.000000 0.000000
# 5 0.000000 0.000000 0.000000 0.000000 -0.213196 0.000000
# 6 0.000000 0.000000 0.000000 0.000000 0.000000 0.060304
#
#
# Mechanical properties :
#
#
# Convention : Reuss Voigt Hill
#
# Bulk Modulus (GPa) = 15.26045 70.28084 42.77064
# Shear Modulus (GPa) = 52.17205 22.38653 37.27929
#
# Velocity S-wave (km/s) = 5.34668 3.50234 4.51959
# Velocity P-wave (km/s) = 6.81746 7.40707 7.11837
#
# Compressibility (1/GPa) = 0.06552887
#
# Stress axis : x y z
#
# Youngs Moduli (GPa) = 9.42795 51.19514 116.50309
#
# Poissons Ratio (x) = 1.03148 1.05490
# Poissons Ratio (y) = 0.18995 0.59707
# Poissons Ratio (z) = 0.08537 0.26237
#
# Static dielectric constant tensor:
#      x y z
#    x 1.612880 0.000000 0.000000 
#    y 0.000000 1.615420 0.000000 
#    z 0.000000 0.000000 1.607880 
# 
# From -- ./inp_files/43281.got.cif
#   From: 2010.05.17/outbox.ucp.g08.bks.cvg/sg67_22_cif.got.tgz:43281.got - 2010.06.11 16:47:20.
