data_PCOD9505574
_publ_section_title
;
Structure prediction by ZEFSAII (Michael W. Deem and Ramdas Pophale) SiO2 
 PCOD9505574
Probable space group: C C C A
;
_chemical_formula_sum "Si O2"
_cell_formula_units_Z 68
_cell_length_a 14.178236
_cell_length_b 5.506841
_cell_length_c 35.256551
_cell_angle_alpha 90.000000
_cell_angle_beta 90.000000
_cell_angle_gamma 90.000000
_cell_volume 2752.736003
_symmetry_space_group_name_H-M "C C C A"
_symmetry_group_IT_number 68
_space_group.IT_coordinate_system_code '2'
_symmetry_cell_setting 'orthorhombic'
loop_
_space_group_symop_operation_xyz
x,y,z
-x,1/2-y,z
x,1/2-y,1/2-z
-x,y,1/2-z
-x,-y,-z
x,1/2+y,-z
-x,1/2+y,1/2+z
x,-y,1/2+z
1/2+x,1/2+y,z
1/2-x,-y,z
1/2+x,-y,1/2-z
1/2-x,1/2+y,1/2-z
1/2-x,1/2-y,-z
1/2+x,y,-z
1/2-x,y,1/2+z
1/2+x,1/2-y,1/2+z
loop_
_atom_site_type_symbol
_atom_site_label
_atom_site_fract_x
_atom_site_fract_y
_atom_site_fract_z
Si Si1 0.863026 0.738342 0.099736
Si Si2 0.361778 0.051608 0.015223
Si Si3 0.394008 0.145978 0.710654
Si Si4 0.650724 0.254583 0.870052
Si Si5 0.500000 0.250000 0.250000
O O1 0.877251 0.679824 0.055726
O O2 0.750677 0.746514 0.108321
O O3 0.899517 0.498644 0.120645
O O4 0.895611 0.997115 0.115614
O O5 0.250000 0.000000 0.009218
O O6 0.396505 0.770804 0.012393
O O7 0.500000 0.250000 0.704546
O O8 0.354889 0.250000 0.750000
O O9 0.334501 0.231263 0.674965
O O10 0.425251 0.875430 0.721207
#
# Coordination Sequence:
#
# PCOD9505574 Si02
#       5
#    16  16  16  16   4
#     4  10  20  34  47  79 111 141 162 205 258 314
#     4  10  18  27  47  69 104 141 174 208 238 297
#     4   9  20  36  55  78  93 133 174 223 255 304
#     4  10  20  33  51  71 110 136 164 208 262 304
#     4   8  18  36  60  74 100 116 190 224 276 280
#
# _framework density 24.702698000000002
#
# number of rings (size 3 to 8) (size 9 to 14) (size 15 to 20)
#    0.000    2.588    2.353    1.412   13.176    0.000 
#    0.000    4.706    0.000    0.000    0.000    0.000 
#    0.000   32.000    0.000    0.000    0.000    0.000 
#
# Total GULP energy -189314.725831 kJ/mol
# GULP energy per Si atom -5568.080172 kJ/mol
# Density = 2.464647 g / cm^3
# Si number density = 24.702698 Si / 1000 Ang^3
#
#
#
# Elastic Constant Matrix: (Units=GPa)
#
#
# Indices 1 2 3 4 5 6 
#
# 1 75.0376 -1.4977 -4.0809 0.0000 0.0000 0.0000
# 2 -1.4977 236.1545 63.2211 0.0000 0.0000 0.0000
# 3 -4.0809 63.2211 148.4005 0.0000 0.0000 0.0000
# 4 0.0000 0.0000 0.0000 108.4166 0.0000 0.0000
# 5 0.0000 0.0000 0.0000 0.0000 -125.9102 0.0000
# 6 0.0000 0.0000 0.0000 0.0000 0.0000 30.7965
#
#
#
# Elastic Compliance Matrix: (Units=1/GPa)
#
#
# Indices 1 2 3 4 5 6 
#
# 1 0.013347 -0.000015 0.000374 0.000000 0.000000 0.000000
# 2 -0.000015 0.004780 -0.002037 0.000000 0.000000 0.000000
# 3 0.000374 -0.002037 0.007616 0.000000 0.000000 0.000000
# 4 0.000000 0.000000 0.000000 0.009224 0.000000 0.000000
# 5 0.000000 0.000000 0.000000 0.000000 -0.007942 0.000000
# 6 0.000000 0.000000 0.000000 0.000000 0.000000 0.032471
#
#
# Mechanical properties :
#
#
# Convention : Reuss Voigt Hill
#
# Bulk Modulus (GPa) = 44.67099 63.87528 54.27313
# Shear Modulus (GPa) = 71.10926 29.45725 50.28325
#
# Velocity S-wave (km/s) = 5.37108 3.45696 4.51659
# Velocity P-wave (km/s) = 7.52246 6.46899 7.01553
#
# Compressibility (1/GPa) = 0.02238589
#
# Stress axis : x y z
#
# Youngs Moduli (GPa) = 74.92510 209.22050 131.29509
#
# Poissons Ratio (x) = 0.00321 -0.04905
# Poissons Ratio (y) = 0.00115 0.26740
# Poissons Ratio (z) = -0.02799 0.42610
#
# Static dielectric constant tensor:
#      x y z
#    x 1.962500 0.000000 0.000000 
#    y 0.000000 2.068100 0.000000 
#    z 0.000000 0.000000 1.790320 
# 
# From -- ./inp_files/55726.got.cif
#   From: 2010.05.17/outbox.cif.g08.bks.cpg/sg68_28_cif.got.tgz:55726.got - 2010.06.03 18:57:09.
