data_PCOD9505613
_publ_section_title
;
Structure prediction by ZEFSAII (Michael W. Deem and Ramdas Pophale) SiO2 
 PCOD9505613
Probable space group: C C C A
;
_chemical_formula_sum "Si O2"
_cell_formula_units_Z 104
_cell_length_a 21.399015
_cell_length_b 12.921297
_cell_length_c 19.282294
_cell_angle_alpha 90.000000
_cell_angle_beta 90.000000
_cell_angle_gamma 90.000000
_cell_volume 5331.612684
_symmetry_space_group_name_H-M "C C C A"
_symmetry_group_IT_number 68
_space_group.IT_coordinate_system_code '2'
_symmetry_cell_setting 'orthorhombic'
loop_
_space_group_symop_operation_xyz
x,y,z
-x,1/2-y,z
x,1/2-y,1/2-z
-x,y,1/2-z
-x,-y,-z
x,1/2+y,-z
-x,1/2+y,1/2+z
x,-y,1/2+z
1/2+x,1/2+y,z
1/2-x,-y,z
1/2+x,-y,1/2-z
1/2-x,1/2+y,1/2-z
1/2-x,1/2-y,-z
1/2+x,y,-z
1/2-x,y,1/2+z
1/2+x,1/2-y,1/2+z
loop_
_atom_site_type_symbol
_atom_site_label
_atom_site_fract_x
_atom_site_fract_y
_atom_site_fract_z
Si Si1 0.219584 0.712256 0.927968
Si Si2 0.444088 0.673731 0.897774
Si Si3 0.498856 0.538805 0.079304
Si Si4 0.633927 0.966059 0.582073
Si Si5 0.825876 0.220156 0.670189
Si Si6 0.914354 0.293361 0.030383
Si Si7 0.750000 0.500000 0.510626
O O1 0.260206 0.756492 0.866293
O O2 0.146848 0.737747 0.927567
O O3 0.250000 0.750000 0.000000
O O4 0.229157 0.590503 0.938218
O O5 0.500000 0.750000 0.873657
O O6 0.463846 0.555921 0.884400
O O7 0.379331 0.707068 0.863849
O O8 0.437016 0.700913 0.980119
O O9 0.426265 0.534825 0.100764
O O10 0.536269 0.646177 0.078289
O O11 0.500000 0.500000 0.000000
O O12 0.656503 0.897107 0.647240
O O13 0.609182 0.879049 0.526682
O O14 0.691127 0.020077 0.541130
O O15 0.824025 0.250000 0.750000
#
# Coordination Sequence:
#
# PCOD9505613 Si02
#       7
#    16  16  16  16  16  16   8
#     4  11  20  36  57  82 114 150 196 246 292 344
#     4  11  18  32  53  82 115 149 180 232 297 343
#     4  10  18  30  49  81 119 136 185 239 278 346
#     4   9  18  34  51  83 112 145 183 235 289 337
#     4  11  23  38  55  83 119 157 196 234 294 369
#     4   9  19  30  51  82 109 140 189 238 289 330
#     4  10  20  32  62  86 106 152 190 240 304 328
#
# _framework density 19.506292999999999
#
# number of rings (size 3 to 8) (size 9 to 14) (size 15 to 20)
#    0.000    1.846    9.231    0.000    6.462    0.308 
#    0.000    0.769    0.000    0.000    0.000    0.000 
#    0.000    1.231    0.000    0.000    0.000    0.000 
#
# Total GULP energy -289951.933670 kJ/mol
# GULP energy per Si atom -5575.998724 kJ/mol
# Density = 1.946190 g / cm^3
# Si number density = 19.506293 Si / 1000 Ang^3
#
#
#
# Elastic Constant Matrix: (Units=GPa)
#
#
# Indices 1 2 3 4 5 6 
#
# 1 150.9000 40.7239 38.7546 0.0000 0.0000 0.0000
# 2 40.7239 67.6096 18.5680 0.0000 0.0000 0.0000
# 3 38.7546 18.5680 71.3510 0.0000 0.0000 0.0000
# 4 0.0000 0.0000 0.0000 11.3471 0.0000 0.0000
# 5 0.0000 0.0000 0.0000 0.0000 13.7712 0.0000
# 6 0.0000 0.0000 0.0000 0.0000 0.0000 28.8229
#
#
#
# Elastic Compliance Matrix: (Units=1/GPa)
#
#
# Indices 1 2 3 4 5 6 
#
# 1 0.008703 -0.004248 -0.003622 0.000000 0.000000 0.000000
# 2 -0.004248 0.018002 -0.002378 0.000000 0.000000 0.000000
# 3 -0.003622 -0.002378 0.016601 0.000000 0.000000 0.000000
# 4 0.000000 0.000000 0.000000 0.088128 0.000000 0.000000
# 5 0.000000 0.000000 0.000000 0.000000 0.072616 0.000000
# 6 0.000000 0.000000 0.000000 0.000000 0.000000 0.034695
#
#
# Mechanical properties :
#
#
# Convention : Reuss Voigt Hill
#
# Bulk Modulus (GPa) = 43.83576 53.99485 48.91530
# Shear Modulus (GPa) = 18.73751 23.57583 21.15667
#
# Velocity S-wave (km/s) = 3.10270 3.48030 3.29691
# Velocity P-wave (km/s) = 5.94618 6.62502 6.29476
#
# Compressibility (1/GPa) = 0.02281243
#
# Stress axis : x y z
#
# Youngs Moduli (GPa) = 114.89705 55.54828 60.23648
#
# Poissons Ratio (x) = 0.23595 0.21817
# Poissons Ratio (y) = 0.48805 0.14322
# Poissons Ratio (z) = 0.41615 0.13208
#
# Static dielectric constant tensor:
#      x y z
#    x 1.760700 0.000000 0.000000 
#    y 0.000000 1.872830 0.000000 
#    z 0.000000 0.000000 1.633060 
# 
# From -- ./inp_files/33016.got.cif
#   From: 2010.05.17/outbox.cif.g08.bks.cpg/sg68_17_cif.got.tgz:33016.got - 2010.06.03 18:57:09.
