data_PCOD9505705
_publ_section_title
;
Structure prediction by ZEFSAII (Michael W. Deem and Ramdas Pophale) SiO2 
 PCOD9505705
Probable space group: C C C A
;
_chemical_formula_sum "Si O2"
_cell_formula_units_Z 64
_cell_length_a 22.572728
_cell_length_b 8.105498
_cell_length_c 14.941716
_cell_angle_alpha 90.000000
_cell_angle_beta 90.000000
_cell_angle_gamma 90.000000
_cell_volume 2733.784198
_symmetry_space_group_name_H-M "C C C A"
_symmetry_group_IT_number 68
_space_group.IT_coordinate_system_code '2'
_symmetry_cell_setting 'orthorhombic'
loop_
_space_group_symop_operation_xyz
x,y,z
-x,1/2-y,z
x,1/2-y,1/2-z
-x,y,1/2-z
-x,-y,-z
x,1/2+y,-z
-x,1/2+y,1/2+z
x,-y,1/2+z
1/2+x,1/2+y,z
1/2-x,-y,z
1/2+x,-y,1/2-z
1/2-x,1/2+y,1/2-z
1/2-x,1/2-y,-z
1/2+x,y,-z
1/2-x,y,1/2+z
1/2+x,1/2-y,1/2+z
loop_
_atom_site_type_symbol
_atom_site_label
_atom_site_fract_x
_atom_site_fract_y
_atom_site_fract_z
Si Si1 0.373669 0.576639 0.957454
Si Si2 0.250000 0.500000 0.883778
Si Si3 0.892792 0.075224 0.635793
Si Si4 0.989539 0.443230 0.103841
Si Si5 0.700592 0.750000 0.750000
O O1 0.309247 0.502637 0.941000
O O2 0.384166 0.762941 0.925712
O O3 0.420320 0.483299 0.892490
O O4 0.382337 0.569136 0.064144
O O5 0.258945 0.662011 0.823022
O O6 0.844085 0.109277 0.711293
O O7 0.961685 0.046101 0.660250
O O8 0.000000 0.250000 0.116686
O O9 0.000000 0.500000 0.000000
#
# Coordination Sequence:
#
# PCOD9505705 Si02
#       5
#    16   8  16  16   8
#     4  10  20  36  59  86 115 152 200 242 286 361
#     4  10  24  40  56  84 116 158 202 240 302 364
#     4  10  20  37  60  89 118 154 198 248 306 352
#     4  10  18  32  59  90 115 144 189 244 291 342
#     4  10  24  40  59  84 121 162 194 252 310 358
#
# _framework density 23.410769999999999
#
# number of rings (size 3 to 8) (size 9 to 14) (size 15 to 20)
#    0.000    2.000    0.000    6.750    0.000    9.000 
#    0.000   10.000    0.000    6.000    0.000    0.000 
#    0.000    0.000    0.000    0.000    0.000    0.000 
#
# Total GULP energy -178526.574478 kJ/mol
# GULP energy per Si atom -5578.955452 kJ/mol
# Density = 2.335749 g / cm^3
# Si number density = 23.410770 Si / 1000 Ang^3
#
#
#
# Elastic Constant Matrix: (Units=GPa)
#
#
# Indices 1 2 3 4 5 6 
#
# 1 161.8021 26.2188 15.8834 0.0000 0.0000 0.0000
# 2 26.2188 69.1835 -4.4659 0.0000 0.0000 0.0000
# 3 15.8834 -4.4659 35.8401 0.0000 0.0000 0.0000
# 4 0.0000 0.0000 0.0000 28.5322 0.0000 0.0000
# 5 0.0000 0.0000 0.0000 0.0000 21.0184 0.0000
# 6 0.0000 0.0000 0.0000 0.0000 0.0000 39.0487
#
#
#
# Elastic Compliance Matrix: (Units=1/GPa)
#
#
# Indices 1 2 3 4 5 6 
#
# 1 0.006984 -0.002870 -0.003453 0.000000 0.000000 0.000000
# 2 -0.002870 0.015751 0.003234 0.000000 0.000000 0.000000
# 3 -0.003453 0.003234 0.029835 0.000000 0.000000 0.000000
# 4 0.000000 0.000000 0.000000 0.035048 0.000000 0.000000
# 5 0.000000 0.000000 0.000000 0.000000 0.047577 0.000000
# 6 0.000000 0.000000 0.000000 0.000000 0.000000 0.025609
#
#
# Mechanical properties :
#
#
# Convention : Reuss Voigt Hill
#
# Bulk Modulus (GPa) = 21.55472 38.01091 29.78282
# Shear Modulus (GPa) = 27.40544 32.99915 30.20229
#
# Velocity S-wave (km/s) = 3.42516 3.75850 3.59570
# Velocity P-wave (km/s) = 4.98693 5.92510 5.47615
#
# Compressibility (1/GPa) = 0.04639355
#
# Stress axis : x y z
#
# Youngs Moduli (GPa) = 143.17688 63.48929 33.51776
#
# Poissons Ratio (x) = 0.18220 0.11573
# Poissons Ratio (y) = 0.41089 -0.10841
# Poissons Ratio (z) = 0.49437 -0.20535
#
# Static dielectric constant tensor:
#      x y z
#    x 1.990020 0.000000 0.000000 
#    y 0.000000 1.543840 0.000000 
#    z 0.000000 0.000000 1.950100 
# 
# From -- ./inp_files/19393.got.cif
#   From: 2010.05.17/outbox.cif.g08.bks.cpg/sg68_10_cif.got.tgz:19393.got - 2010.06.03 18:57:09.
