data_PCOD9505167
_publ_section_title
;
Structure prediction by ZEFSAII (Michael W. Deem and Ramdas Pophale) SiO2 
 PCOD9505167
Probable space group: C M M A
;
_chemical_formula_sum "Si O2"
_cell_formula_units_Z 28
_cell_length_a 21.000000
_cell_length_b 9.000000
_cell_length_c 15.000000
_cell_angle_alpha 90.000000
_cell_angle_beta 90.000000
_cell_angle_gamma 90.000000
_cell_volume 2835.000000
_symmetry_space_group_name_H-M "C M M A"
_symmetry_group_IT_number 67
_symmetry_cell_setting 'orthorhombic'
loop_
_space_group_symop_operation_xyz
x,y,z
-x,1/2-y,z
x,-y,-z
-x,1/2+y,-z
-x,-y,-z
x,1/2+y,-z
-x,y,z
x,1/2-y,z
1/2+x,1/2+y,z
1/2-x,-y,z
1/2+x,1/2-y,-z
1/2-x,y,-z
1/2-x,1/2-y,-z
1/2+x,y,-z
1/2-x,1/2+y,z
1/2+x,-y,z
loop_
_atom_site_type_symbol
_atom_site_label
_atom_site_fract_x
_atom_site_fract_y
_atom_site_fract_z
Si Si1 0.500000 0.931471 0.400668
Si Si2 0.925369 0.570429 0.099055
Si Si3 0.684080 0.068910 0.775511
Si Si4 0.867373 0.568562 0.399878
O O1 0.500000 0.750000 0.399539
O O2 0.500000 0.000000 0.500000
O O3 0.435324 0.003200 0.365432
O O4 0.915216 0.750000 0.097503
O O5 0.875101 0.491791 0.165261
O O6 0.000000 0.545384 0.124964
O O7 0.917568 0.500000 0.000000
O O8 0.684713 0.250000 0.772717
O O9 0.750000 0.000000 0.812976
O O10 0.678080 0.998240 0.675899
O O11 0.856431 0.500000 0.500000
O O12 0.867160 0.750000 0.403917
#
# Coordination Sequence:
#
# PCOD9505167 Si02
#       4
#     8  16  16  16
#     4  10  18  32  54  84 117 156 205 260 316 370
#     4  10  22  43  71 102 134 168 211 262 322 385
#     4  12  26  44  65  94 131 172 220 268 325 387
#     4  11  22  39  61  89 126 169 217 268 323 381
#
# _framework density 9.8765429999999999
#
# number of rings (size 3 to 8) (size 9 to 14) (size 15 to 20)
#    0.000    1.143    0.000    9.000    2.000    2.857 
#    0.000    5.714    0.000    0.000    0.000    0.000 
#    0.000    0.000    0.000    0.000    0.000    0.000 
#
# Total GULP energy -156361.648759 kJ/mol
# GULP energy per Si atom -5584.344599 kJ/mol
# Density = 0.985406 g / cm^3
# Si number density = 9.876543 Si / 1000 Ang^3
#
#
#
# Elastic Constant Matrix: (Units=GPa)
#
#
# Indices 1 2 3 4 5 6 
#
# 1 145.7478 69.4082 64.1000 0.0000 0.0000 0.0000
# 2 69.4082 246.0878 55.7957 0.0000 0.0000 0.0000
# 3 64.1000 55.7957 107.8316 0.0000 0.0000 0.0000
# 4 0.0000 0.0000 0.0000 40.9226 0.0000 0.0000
# 5 0.0000 0.0000 0.0000 0.0000 32.2959 0.0000
# 6 0.0000 0.0000 0.0000 0.0000 0.0000 35.2535
#
#
#
# Elastic Compliance Matrix: (Units=1/GPa)
#
#
# Indices 1 2 3 4 5 6 
#
# 1 0.009843 -0.001642 -0.005001 0.000000 0.000000 0.000000
# 2 -0.001642 0.004878 -0.001548 0.000000 0.000000 0.000000
# 3 -0.005001 -0.001548 0.013048 0.000000 0.000000 0.000000
# 4 0.000000 0.000000 0.000000 0.024436 0.000000 0.000000
# 5 0.000000 0.000000 0.000000 0.000000 0.030964 0.000000
# 6 0.000000 0.000000 0.000000 0.000000 0.000000 0.028366
#
#
# Mechanical properties :
#
#
# Convention : Reuss Voigt Hill
#
# Bulk Modulus (GPa) = 87.82950 97.58613 92.70781
# Shear Modulus (GPa) = 37.96175 42.38528 40.17351
#
# Velocity S-wave (km/s) = 4.38861 4.63725 4.51464
# Velocity P-wave (km/s) = 8.38093 8.84208 8.61459
#
# Compressibility (1/GPa) = 0.01138570
#
# Stress axis : x y z
#
# Youngs Moduli (GPa) = 101.59742 205.01598 76.64285
#
# Poissons Ratio (x) = 0.33667 0.38331
# Poissons Ratio (y) = 0.16684 0.11862
# Poissons Ratio (z) = 0.50812 0.31730
#
# Static dielectric constant tensor:
#      x y z
#    x 1.818210 0.000000 0.000000 
#    y 0.000000 1.650070 0.000000 
#    z 0.000000 0.000000 1.875290 
# 
# From -- ./inp_files/24587.got.cif
#   From: 2010.05.17/outbox.ucp.g08.bks.cvg/sg67_13_cif.got.tgz:24587.got - 2010.06.11 16:47:20.
