data_PCOD9505059
_publ_section_title
;
Structure prediction by ZEFSAII (Michael W. Deem and Ramdas Pophale) SiO2 
 PCOD9505059
Probable space group: C M M A
;
_chemical_formula_sum "Si O2"
_cell_formula_units_Z 52
_cell_length_a 21.285507
_cell_length_b 15.545400
_cell_length_c 7.248171
_cell_angle_alpha 90.000000
_cell_angle_beta 90.000000
_cell_angle_gamma 90.000000
_cell_volume 2398.359773
_symmetry_space_group_name_H-M "C M M A"
_symmetry_group_IT_number 67
_symmetry_cell_setting 'orthorhombic'
loop_
_space_group_symop_operation_xyz
x,y,z
-x,1/2-y,z
x,-y,-z
-x,1/2+y,-z
-x,-y,-z
x,1/2+y,-z
-x,y,z
x,1/2-y,z
1/2+x,1/2+y,z
1/2-x,-y,z
1/2+x,1/2-y,-z
1/2-x,y,-z
1/2-x,1/2-y,-z
1/2+x,y,-z
1/2-x,1/2+y,z
1/2+x,-y,z
loop_
_atom_site_type_symbol
_atom_site_label
_atom_site_fract_x
_atom_site_fract_y
_atom_site_fract_z
Si Si1 0.750000 0.750000 0.500000
Si Si2 0.430350 0.851015 0.757766
Si Si3 0.320689 0.101914 0.961186
Si Si4 0.340781 0.902713 0.468557
O O1 0.700489 0.672859 0.558664
O O2 0.500000 0.880662 0.815701
O O3 0.433701 0.750000 0.720396
O O4 0.407089 0.897093 0.571692
O O5 0.376825 0.865238 0.911079
O O6 0.338022 0.117105 0.748213
O O7 0.250000 0.136824 0.000000
O O8 0.317585 0.000000 0.000000
O O9 0.317620 0.000000 0.500000
#
# Coordination Sequence:
#
# PCOD9505059 Si02
#       4
#     4  16  16  16
#     4  12  26  40  76 102 140 186 232 290 372 426
#     4  11  26  48  70 102 145 190 245 301 359 433
#     4  11  25  44  70 107 143 181 236 302 360 431
#     4  12  25  46  71 105 143 187 241 298 360 433
#
# _framework density 21.681484000000001
#
# number of rings (size 3 to 8) (size 9 to 14) (size 15 to 20)
#    0.000    0.615    4.615    2.308    6.462    3.077 
#    0.000    3.077    0.000    0.000    0.000    0.000 
#    0.000    0.000    0.000    0.000    0.000    0.000 
#
# Total GULP energy -144760.220500 kJ/mol
# GULP energy per Si atom -5567.700788 kJ/mol
# Density = 2.163214 g / cm^3
# Si number density = 21.681484 Si / 1000 Ang^3
#
#
#
# Elastic Constant Matrix: (Units=GPa)
#
#
# Indices 1 2 3 4 5 6 
#
# 1 196.5366 39.1413 82.2886 0.0000 0.0000 0.0000
# 2 39.1413 137.8316 -5.0751 0.0000 0.0000 0.0000
# 3 82.2886 -5.0751 163.4235 0.0000 0.0000 0.0000
# 4 0.0000 0.0000 0.0000 3.3154 0.0000 0.0000
# 5 0.0000 0.0000 0.0000 0.0000 31.8453 0.0000
# 6 0.0000 0.0000 0.0000 0.0000 0.0000 29.2282
#
#
#
# Elastic Compliance Matrix: (Units=1/GPa)
#
#
# Indices 1 2 3 4 5 6 
#
# 1 0.007019 -0.002126 -0.003600 0.000000 0.000000 0.000000
# 2 -0.002126 0.007907 0.001316 0.000000 0.000000 0.000000
# 3 -0.003600 0.001316 0.007973 0.000000 0.000000 0.000000
# 4 0.000000 0.000000 0.000000 0.301625 0.000000 0.000000
# 5 0.000000 0.000000 0.000000 0.000000 0.031402 0.000000
# 6 0.000000 0.000000 0.000000 0.000000 0.000000 0.034214
#
#
# Mechanical properties :
#
#
# Convention : Reuss Voigt Hill
#
# Bulk Modulus (GPa) = 71.02833 81.16682 76.09758
# Shear Modulus (GPa) = 12.38690 38.30690 25.34690
#
# Velocity S-wave (km/s) = 2.39281 4.20790 3.42286
# Velocity P-wave (km/s) = 6.36121 7.81830 7.12709
#
# Compressibility (1/GPa) = 0.01407889
#
# Stress axis : x y z
#
# Youngs Moduli (GPa) = 142.47332 126.46444 125.42718
#
# Poissons Ratio (x) = 0.26883 0.45157
# Poissons Ratio (y) = 0.30287 -0.16506
# Poissons Ratio (z) = 0.51294 -0.16642
#
# Static dielectric constant tensor:
#      x y z
#    x 1.860320 0.000000 0.000000 
#    y 0.000000 1.791500 0.000000 
#    z 0.000000 0.000000 1.835550 
# 
# From -- ./inp_files/10489.got.cif
#   From: 2010.05.17/outbox.cif.g08.bks.cpg/sg67_6_cif.got.tgz:10489.got - 2010.06.03 18:28:57.
