data_PCOD9505351
_publ_section_title
;
Structure prediction by ZEFSAII (Michael W. Deem and Ramdas Pophale) SiO2 
 PCOD9505351
Probable space group: C C C A
;
_chemical_formula_sum "Si O2"
_cell_formula_units_Z 128
_cell_length_a 18.611576
_cell_length_b 24.503937
_cell_length_c 17.628391
_cell_angle_alpha 90.000000
_cell_angle_beta 90.000000
_cell_angle_gamma 90.000000
_cell_volume 8039.549101
_symmetry_space_group_name_H-M "C C C A"
_symmetry_group_IT_number 68
_space_group.IT_coordinate_system_code '2'
_symmetry_cell_setting 'orthorhombic'
loop_
_space_group_symop_operation_xyz
x,y,z
-x,1/2-y,z
x,1/2-y,1/2-z
-x,y,1/2-z
-x,-y,-z
x,1/2+y,-z
-x,1/2+y,1/2+z
x,-y,1/2+z
1/2+x,1/2+y,z
1/2-x,-y,z
1/2+x,-y,1/2-z
1/2-x,1/2+y,1/2-z
1/2-x,1/2-y,-z
1/2+x,y,-z
1/2-x,y,1/2+z
1/2+x,1/2-y,1/2+z
loop_
_atom_site_type_symbol
_atom_site_label
_atom_site_fract_x
_atom_site_fract_y
_atom_site_fract_z
Si Si1 0.603215 0.850811 0.596485
Si Si2 0.169394 0.024664 0.326280
Si Si3 0.351653 0.452748 0.508835
Si Si4 0.413560 0.240284 0.162819
Si Si5 0.731806 0.564977 0.182278
Si Si6 0.314352 0.074770 0.521825
Si Si7 0.940326 0.877581 0.394529
Si Si8 0.883097 0.582996 0.250019
O O1 0.616449 0.786593 0.606900
O O2 0.651567 0.882019 0.535473
O O3 0.520019 0.863039 0.577854
O O4 0.613368 0.874879 0.681269
O O5 0.134427 0.048414 0.401314
O O6 0.185187 0.066018 0.258424
O O7 0.250000 0.000000 0.345300
O O8 0.123837 0.975496 0.290465
O O9 0.355111 0.516662 0.486009
O O10 0.268769 0.435284 0.499228
O O11 0.399428 0.414107 0.456230
O O12 0.500000 0.250000 0.165235
O O13 0.388709 0.250000 0.250000
O O14 0.403435 0.179669 0.130180
O O15 0.750000 0.500000 0.166629
O O16 0.690982 0.588934 0.110581
O O17 0.808783 0.589862 0.202636
O O18 0.942838 0.910306 0.314545
#
# Coordination Sequence:
#
# PCOD9505351 Si02
#       8
#    16  16  16  16  16  16  16  16
#     4  11  21  32  52  75 100 131 165 212 254 298
#     4   9  16  28  47  70  96 136 176 193 233 300
#     4  11  18  32  49  74 103 136 164 201 245 309
#     4   9  18  34  51  70  99 136 172 205 250 307
#     4   9  16  28  49  69  94 136 173 198 232 298
#     4  11  18  32  49  73 104 134 168 201 249 302
#     4  11  21  32  52  74 103 132 167 209 257 295
#     4  10  16  29  47  73  97 128 165 198 246 295
#
# _framework density 15.921291
#
# number of rings (size 3 to 8) (size 9 to 14) (size 15 to 20)
#    0.000    2.125    6.250    1.875    0.000    0.500 
#    0.000    0.625    0.000    0.000    0.000    0.000 
#    0.000    3.000    0.000    0.000    0.000    0.000 
#
# Total GULP energy -356464.200883 kJ/mol
# GULP energy per Si atom -5569.753139 kJ/mol
# Density = 1.588505 g / cm^3
# Si number density = 15.921291 Si / 1000 Ang^3
#
#
#
# Elastic Constant Matrix: (Units=GPa)
#
#
# Indices 1 2 3 4 5 6 
#
# 1 27.1500 29.3998 22.7242 0.0000 0.0000 0.0000
# 2 29.3998 80.1384 39.0177 0.0000 0.0000 0.0000
# 3 22.7242 39.0177 130.8099 0.0000 0.0000 0.0000
# 4 0.0000 0.0000 0.0000 21.6049 0.0000 0.0000
# 5 0.0000 0.0000 0.0000 0.0000 12.3685 0.0000
# 6 0.0000 0.0000 0.0000 0.0000 0.0000 12.6600
#
#
#
# Elastic Compliance Matrix: (Units=1/GPa)
#
#
# Indices 1 2 3 4 5 6 
#
# 1 0.063566 -0.020992 -0.004781 0.000000 0.000000 0.000000
# 2 -0.020992 0.021531 -0.002775 0.000000 0.000000 0.000000
# 3 -0.004781 -0.002775 0.009303 0.000000 0.000000 0.000000
# 4 0.000000 0.000000 0.000000 0.046286 0.000000 0.000000
# 5 0.000000 0.000000 0.000000 0.000000 0.080850 0.000000
# 6 0.000000 0.000000 0.000000 0.000000 0.000000 0.078989
#
#
# Mechanical properties :
#
#
# Convention : Reuss Voigt Hill
#
# Bulk Modulus (GPa) = 26.80784 46.70910 36.75847
# Shear Modulus (GPa) = 13.51144 19.12379 16.31761
#
# Velocity S-wave (km/s) = 2.91630 3.46951 3.20487
# Velocity P-wave (km/s) = 5.31169 6.74175 6.06899
#
# Compressibility (1/GPa) = 0.03730252
#
# Stress axis : x y z
#
# Youngs Moduli (GPa) = 15.73167 46.44465 107.49078
#
# Poissons Ratio (x) = 0.97498 0.51393
# Poissons Ratio (y) = 0.33024 0.29834
# Poissons Ratio (z) = 0.07522 0.12891
#
# Static dielectric constant tensor:
#      x y z
#    x 1.557150 0.000000 0.000000 
#    y 0.000000 1.549110 0.000000 
#    z 0.000000 0.000000 1.570820 
# 
# From -- ./inp_files/32395.got.cif
#   From: 2010.05.17/outbox.cif.g08.bks.cpg/sg68_17_cif.got.tgz:32395.got - 2010.06.03 18:57:09.
