data_PCOD9505176
_publ_section_title
;
Structure prediction by ZEFSAII (Michael W. Deem and Ramdas Pophale) SiO2 
 PCOD9505176
Probable space group: C M M A
;
_chemical_formula_sum "Si O2"
_cell_formula_units_Z 40
_cell_length_a 9.000000
_cell_length_b 18.000000
_cell_length_c 27.000000
_cell_angle_alpha 90.000000
_cell_angle_beta 90.000000
_cell_angle_gamma 90.000000
_cell_volume 4374.000000
_symmetry_space_group_name_H-M "C M M A"
_symmetry_group_IT_number 67
_symmetry_cell_setting 'orthorhombic'
loop_
_space_group_symop_operation_xyz
x,y,z
-x,1/2-y,z
x,-y,-z
-x,1/2+y,-z
-x,-y,-z
x,1/2+y,-z
-x,y,z
x,1/2-y,z
1/2+x,1/2+y,z
1/2-x,-y,z
1/2+x,1/2-y,-z
1/2-x,y,-z
1/2-x,1/2-y,-z
1/2+x,y,-z
1/2-x,1/2+y,z
1/2+x,-y,z
loop_
_atom_site_type_symbol
_atom_site_label
_atom_site_fract_x
_atom_site_fract_y
_atom_site_fract_z
Si Si1 0.177685 0.417685 0.751419
Si Si2 0.322104 0.163602 0.950164
Si Si3 0.178671 0.581664 0.849021
Si Si4 0.828644 0.339521 0.449364
Si Si5 0.822891 0.918509 0.358149
O O1 0.250000 0.500000 0.749268
O O2 0.253470 0.381708 0.799380
O O3 0.206723 0.385482 0.696828
O O4 0.000000 0.423183 0.758382
O O5 0.500000 0.160084 0.955083
O O6 0.277779 0.250000 0.946571
O O7 0.281386 0.123704 0.899333
O O8 0.250000 0.131693 0.000000
O O9 0.250000 0.500000 0.852330
O O10 0.000000 0.577283 0.844777
O O11 0.825119 0.250000 0.448688
O O12 0.750000 0.364590 0.500000
O O13 0.744018 0.370103 0.401855
O O14 0.000000 0.363666 0.448696
O O15 0.000000 0.925613 0.363199
O O16 0.750000 0.000000 0.360643
#
# Coordination Sequence:
#
# PCOD9505176 Si02
#       5
#    16  16  16  16  16
#     4   9  17  30  49  73 101 132 164 200 245 293
#     4   9  19  35  52  70  94 127 164 201 244 291
#     4  10  19  31  50  74 100 128 161 202 243 290
#     4  10  21  37  56  77 103 136 172 210 255 305
#     4  10  20  34  54  79 106 135 170 212 253 299
#
# _framework density 9.1449470000000002
#
# number of rings (size 3 to 8) (size 9 to 14) (size 15 to 20)
#    0.000    2.400    0.000    3.600    0.000    6.000 
#    0.000    5.000    0.000    3.600    0.000    0.000 
#    0.000    0.000    0.000    0.000    0.000    0.000 
#
# Total GULP energy -222984.979802 kJ/mol
# GULP energy per Si atom -5574.624495 kJ/mol
# Density = 0.912413 g / cm^3
# Si number density = 9.144947 Si / 1000 Ang^3
#
#
#
# Elastic Constant Matrix: (Units=GPa)
#
#
# Indices 1 2 3 4 5 6 
#
# 1 96.6924 22.3003 88.8038 0.0000 0.0000 0.0000
# 2 22.3003 14.3407 41.4720 0.0000 0.0000 0.0000
# 3 88.8038 41.4720 220.6560 0.0000 0.0000 0.0000
# 4 0.0000 0.0000 0.0000 14.1045 0.0000 0.0000
# 5 0.0000 0.0000 0.0000 0.0000 37.8811 0.0000
# 6 0.0000 0.0000 0.0000 0.0000 0.0000 19.3554
#
#
#
# Elastic Compliance Matrix: (Units=1/GPa)
#
#
# Indices 1 2 3 4 5 6 
#
# 1 0.017811 -0.015263 -0.004299 0.000000 0.000000 0.000000
# 2 -0.015263 0.165843 -0.025027 0.000000 0.000000 0.000000
# 3 -0.004299 -0.025027 0.010966 0.000000 0.000000 0.000000
# 4 0.000000 0.000000 0.000000 0.070899 0.000000 0.000000
# 5 0.000000 0.000000 0.000000 0.000000 0.026398 0.000000
# 6 0.000000 0.000000 0.000000 0.000000 0.000000 0.051665
#
#
# Mechanical properties :
#
#
# Convention : Reuss Voigt Hill
#
# Bulk Modulus (GPa) = 9.48406 70.76014 40.12210
# Shear Modulus (GPa) = 10.68584 26.20905 18.44745
#
# Velocity S-wave (km/s) = 2.41975 3.78958 3.17931
# Velocity P-wave (km/s) = 3.60604 7.61052 5.95498
#
# Compressibility (1/GPa) = 0.10544011
#
# Stress axis : x y z
#
# Youngs Moduli (GPa) = 56.14561 6.02981 91.19058
#
# Poissons Ratio (x) = 0.09203 0.39206
# Poissons Ratio (y) = 0.85696 2.28224
# Poissons Ratio (z) = 0.24139 0.15091
#
# Static dielectric constant tensor:
#      x y z
#    x 1.617530 0.000000 0.000000 
#    y 0.000000 1.612200 0.000000 
#    z 0.000000 0.000000 1.668200 
# 
# From -- ./inp_files/43238.got.cif
#   From: 2010.05.17/outbox.ucp.g08.bks.cvg/sg67_22_cif.got.tgz:43238.got - 2010.06.11 16:47:20.
