data_PCOD9505722
_publ_section_title
;
Structure prediction by ZEFSAII (Michael W. Deem and Ramdas Pophale) SiO2 
 PCOD9505722
Probable space group: C C C A
;
_chemical_formula_sum "Si O2"
_cell_formula_units_Z 76
_cell_length_a 19.511292
_cell_length_b 13.603266
_cell_length_c 14.667837
_cell_angle_alpha 90.000000
_cell_angle_beta 90.000000
_cell_angle_gamma 90.000000
_cell_volume 3893.097621
_symmetry_space_group_name_H-M "C C C A"
_symmetry_group_IT_number 68
_space_group.IT_coordinate_system_code '2'
_symmetry_cell_setting 'orthorhombic'
loop_
_space_group_symop_operation_xyz
x,y,z
-x,1/2-y,z
x,1/2-y,1/2-z
-x,y,1/2-z
-x,-y,-z
x,1/2+y,-z
-x,1/2+y,1/2+z
x,-y,1/2+z
1/2+x,1/2+y,z
1/2-x,-y,z
1/2+x,-y,1/2-z
1/2-x,1/2+y,1/2-z
1/2-x,1/2-y,-z
1/2+x,y,-z
1/2-x,y,1/2+z
1/2+x,1/2-y,1/2+z
loop_
_atom_site_type_symbol
_atom_site_label
_atom_site_fract_x
_atom_site_fract_y
_atom_site_fract_z
Si Si1 0.500000 0.750000 0.750000
Si Si2 0.903313 0.351663 0.610979
Si Si3 0.564687 0.554826 0.044870
Si Si4 0.000000 0.750000 0.538955
Si Si5 0.205901 0.598143 0.008748
Si Si6 0.253319 0.737415 0.856718
O O1 0.452580 0.818954 0.690775
O O2 0.902099 0.469420 0.605461
O O3 0.940177 0.300668 0.523266
O O4 0.828779 0.309104 0.629928
O O5 0.536258 0.656709 0.086191
O O6 0.625531 0.578565 0.973137
O O7 0.500000 0.500000 0.000000
O O8 0.250000 0.500000 0.994869
O O9 0.206558 0.664911 0.917164
O O10 0.241737 0.659694 0.089216
O O11 0.236943 0.750000 0.750000
#
# Coordination Sequence:
#
# PCOD9505722 Si02
#       6
#     4  16  16   8  16  16
#     4  10  20  32  56  86 120 150 210 260 300 358
#     4  10  18  33  57  86 114 158 200 256 307 369
#     4  10  20  34  62  89 116 163 206 255 313 375
#     4   9  18  33  56  85 118 149 198 253 305 368
#     4  11  23  41  62  90 124 165 211 257 317 388
#     4  11  23  38  61  90 124 161 207 262 320 374
#
# _framework density 19.521730000000002
#
# number of rings (size 3 to 8) (size 9 to 14) (size 15 to 20)
#    0.000    1.684    5.263    0.000    0.000    0.842 
#    0.000    0.000    4.632    0.000    0.000    0.000 
#    0.000    0.000    0.000    0.000    0.000    0.000 
#
# Total GULP energy -211741.477329 kJ/mol
# GULP energy per Si atom -5572.144140 kJ/mol
# Density = 1.947730 g / cm^3
# Si number density = 19.521730 Si / 1000 Ang^3
#
#
#
# Elastic Constant Matrix: (Units=GPa)
#
#
# Indices 1 2 3 4 5 6 
#
# 1 77.3178 11.8557 -1.4878 0.0000 0.0000 0.0000
# 2 11.8557 153.4424 31.8881 0.0000 0.0000 0.0000
# 3 -1.4878 31.8881 80.7326 0.0000 0.0000 0.0000
# 4 0.0000 0.0000 0.0000 14.1283 0.0000 0.0000
# 5 0.0000 0.0000 0.0000 0.0000 -5.3941 0.0000
# 6 0.0000 0.0000 0.0000 0.0000 0.0000 4.5874
#
#
#
# Elastic Compliance Matrix: (Units=1/GPa)
#
#
# Indices 1 2 3 4 5 6 
#
# 1 0.013125 -0.001160 0.000700 0.000000 0.000000 0.000000
# 2 -0.001160 0.007202 -0.002866 0.000000 0.000000 0.000000
# 3 0.000700 -0.002866 0.013532 0.000000 0.000000 0.000000
# 4 0.000000 0.000000 0.000000 0.070780 0.000000 0.000000
# 5 0.000000 0.000000 0.000000 0.000000 -0.185389 0.000000
# 6 0.000000 0.000000 0.000000 0.000000 0.000000 0.217989
#
#
# Mechanical properties :
#
#
# Convention : Reuss Voigt Hill
#
# Bulk Modulus (GPa) = 36.75511 44.00055 40.37783
# Shear Modulus (GPa) = 32.68843 20.61344 26.65094
#
# Velocity S-wave (km/s) = 4.09646 3.25302 3.69886
# Velocity P-wave (km/s) = 6.42210 6.05787 6.24264
#
# Compressibility (1/GPa) = 0.02720710
#
# Stress axis : x y z
#
# Youngs Moduli (GPa) = 76.19107 138.84382 73.90134
#
# Poissons Ratio (x) = 0.16100 -0.05172
# Poissons Ratio (y) = 0.08835 0.21181
# Poissons Ratio (z) = -0.05332 0.39795
#
# Static dielectric constant tensor:
#      x y z
#    x 1.724400 0.000000 0.000000 
#    y 0.000000 1.721570 0.000000 
#    z 0.000000 0.000000 1.676690 
# 
# From -- ./inp_files/24324.got.cif
#   From: 2010.05.17/outbox.cif.g08.bks.cpg/sg68_13_cif.got.tgz:24324.got - 2010.06.03 18:57:09.
