data_PCOD9505828
_publ_section_title
;
Structure prediction by ZEFSAII (Michael W. Deem and Ramdas Pophale) SiO2 
 PCOD9505828
Probable space group: C C C A
;
_chemical_formula_sum "Si O2"
_cell_formula_units_Z 100
_cell_length_a 26.056659
_cell_length_b 5.749313
_cell_length_c 31.659075
_cell_angle_alpha 90.000000
_cell_angle_beta 90.000000
_cell_angle_gamma 90.000000
_cell_volume 4742.779172
_symmetry_space_group_name_H-M "C C C A"
_symmetry_group_IT_number 68
_space_group.IT_coordinate_system_code '2'
_symmetry_cell_setting 'orthorhombic'
loop_
_space_group_symop_operation_xyz
x,y,z
-x,1/2-y,z
x,1/2-y,1/2-z
-x,y,1/2-z
-x,-y,-z
x,1/2+y,-z
-x,1/2+y,1/2+z
x,-y,1/2+z
1/2+x,1/2+y,z
1/2-x,-y,z
1/2+x,-y,1/2-z
1/2-x,1/2+y,1/2-z
1/2-x,1/2-y,-z
1/2+x,y,-z
1/2-x,y,1/2+z
1/2+x,1/2-y,1/2+z
loop_
_atom_site_type_symbol
_atom_site_label
_atom_site_fract_x
_atom_site_fract_y
_atom_site_fract_z
Si Si1 0.658326 0.750000 0.250000
Si Si2 0.858974 0.330047 0.479310
Si Si3 0.500000 0.250000 0.250000
Si Si4 0.915094 0.053230 0.809634
Si Si5 0.705454 0.680863 0.606199
Si Si6 0.667748 0.548009 0.823307
Si Si7 0.119631 0.818126 0.612645
Si Si8 0.750000 0.000000 0.036861
O O1 0.622448 0.606082 0.218233
O O2 0.686143 0.568126 0.280275
O O3 0.873694 0.582016 0.498894
O O4 0.884036 0.308621 0.432389
O O5 0.795423 0.334816 0.482044
O O6 0.535431 0.399670 0.218614
O O7 0.883427 0.295170 0.815475
O O8 0.922803 0.920556 0.854569
O O9 0.750000 0.500000 0.601264
O O10 0.707512 0.789096 0.652658
O O11 0.652390 0.547323 0.601993
O O12 0.713750 0.859236 0.569198
O O13 0.653017 0.353642 0.857888
#
# Coordination Sequence:
#
# PCOD9505828 Si02
#       8
#     8  16   4  16  16  16  16   8
#     4  10  18  37  56  92 107 166 193 254 312 379
#     4  12  25  38  59  90 129 170 226 286 331 385
#     4  12  20  42  64 112 128 148 194 258 336 388
#     4  10  22  36  63  91 132 153 187 250 319 403
#     4  11  19  33  57  81 113 172 216 263 317 389
#     4  10  19  36  56  84 112 162 207 245 318 381
#     4  10  22  38  56  85 122 171 209 250 329 378
#     4  12  22  36  52  92 122 162 216 290 340 356
#
# _framework density 21.084682999999998
#
# number of rings (size 3 to 8) (size 9 to 14) (size 15 to 20)
#    0.000    1.280    4.800    1.440    2.240    0.320 
#    0.000    0.000    0.000    0.000  282.880    1.120 
#    0.000    0.000    0.000    0.000    0.000    0.000 
#
# Total GULP energy -278747.469474 kJ/mol
# GULP energy per Si atom -5574.949389 kJ/mol
# Density = 2.103669 g / cm^3
# Si number density = 21.084683 Si / 1000 Ang^3
#
#
#
# Elastic Constant Matrix: (Units=GPa)
#
#
# Indices 1 2 3 4 5 6 
#
# 1 30.9341 3.3805 17.9026 0.0000 0.0000 0.0000
# 2 3.3805 97.1885 51.9326 0.0000 0.0000 0.0000
# 3 17.9026 51.9326 153.2658 0.0000 0.0000 0.0000
# 4 0.0000 0.0000 0.0000 35.0477 0.0000 0.0000
# 5 0.0000 0.0000 0.0000 0.0000 164.3343 0.0000
# 6 0.0000 0.0000 0.0000 0.0000 0.0000 5.3296
#
#
#
# Elastic Compliance Matrix: (Units=1/GPa)
#
#
# Indices 1 2 3 4 5 6 
#
# 1 0.034780 0.001174 -0.004460 0.000000 0.000000 0.000000
# 2 0.001174 0.012604 -0.004408 0.000000 0.000000 0.000000
# 3 -0.004460 -0.004408 0.008539 0.000000 0.000000 0.000000
# 4 0.000000 0.000000 0.000000 0.028533 0.000000 0.000000
# 5 0.000000 0.000000 0.000000 0.000000 0.006085 0.000000
# 6 0.000000 0.000000 0.000000 0.000000 0.000000 0.187632
#
#
# Mechanical properties :
#
#
# Convention : Reuss Voigt Hill
#
# Bulk Modulus (GPa) = 24.67071 47.53553 36.10312
# Shear Modulus (GPa) = 16.28283 54.82049 35.55166
#
# Velocity S-wave (km/s) = 2.78197 5.10457 4.11071
# Velocity P-wave (km/s) = 4.69524 7.57206 6.30006
#
# Compressibility (1/GPa) = 0.04053389
#
# Stress axis : x y z
#
# Youngs Moduli (GPa) = 28.75235 79.34155 117.10821
#
# Poissons Ratio (x) = -0.09311 0.52232
# Poissons Ratio (y) = -0.03374 0.51618
# Poissons Ratio (z) = 0.12824 0.34972
#
# Static dielectric constant tensor:
#      x y z
#    x 1.740970 0.000000 0.000000 
#    y 0.000000 1.363650 0.000000 
#    z 0.000000 0.000000 1.826030 
# 
# From -- ./inp_files/56269.got.cif
#   From: 2010.05.17/outbox.cif.g08.bks.cpg/sg68_29_cif.got.tgz:56269.got - 2010.06.03 18:57:09.
