data_PCOD9505192
_publ_section_title
;
Structure prediction by ZEFSAII (Michael W. Deem and Ramdas Pophale) SiO2 
 PCOD9505192
Probable space group: C M M A
;
_chemical_formula_sum "Si O2"
_cell_formula_units_Z 52
_cell_length_a 27.000000
_cell_length_b 9.000000
_cell_length_c 24.000000
_cell_angle_alpha 90.000000
_cell_angle_beta 90.000000
_cell_angle_gamma 90.000000
_cell_volume 5832.000000
_symmetry_space_group_name_H-M "C M M A"
_symmetry_group_IT_number 67
_symmetry_cell_setting 'orthorhombic'
loop_
_space_group_symop_operation_xyz
x,y,z
-x,1/2-y,z
x,-y,-z
-x,1/2+y,-z
-x,-y,-z
x,1/2+y,-z
-x,y,z
x,1/2-y,z
1/2+x,1/2+y,z
1/2-x,-y,z
1/2+x,1/2-y,-z
1/2-x,y,-z
1/2-x,1/2-y,-z
1/2+x,y,-z
1/2-x,1/2+y,z
1/2+x,-y,z
loop_
_atom_site_type_symbol
_atom_site_label
_atom_site_fract_x
_atom_site_fract_y
_atom_site_fract_z
Si Si1 0.800175 0.571864 0.732482
Si Si2 0.943204 0.580664 0.238686
Si Si3 0.299317 0.427164 0.863278
Si Si4 0.442603 0.926792 0.559883
Si Si5 0.602947 0.927169 0.336595
Si Si6 0.500000 0.571090 0.059715
Si Si7 0.094735 0.428810 0.130556
O O1 0.797026 0.750000 0.731471
O O2 0.750000 0.500000 0.710888
O O3 0.804500 0.529093 0.797760
O O4 0.846531 0.528362 0.694815
O O5 0.926932 0.750000 0.248303
O O6 0.938532 0.487384 0.294696
O O7 0.912967 0.501945 0.190340
O O8 0.000000 0.582677 0.220331
O O9 0.294009 0.250000 0.864964
O O10 0.250000 0.500000 0.886168
O O11 0.351038 0.469014 0.891559
O O12 0.500000 0.957983 0.576193
O O13 0.436881 0.750000 0.556920
O O14 0.434836 0.000000 0.500000
O O15 0.406136 0.996916 0.604712
O O16 0.601218 0.750000 0.341454
O O17 0.500000 0.750000 0.056385
O O18 0.450662 0.525485 0.092320
O O19 0.500000 0.500000 0.000000
O O20 0.093262 0.250000 0.137732
#
# Coordination Sequence:
#
# PCOD9505192 Si02
#       7
#    16  16  16  16  16   8  16
#     4   9  18  31  48  72 103 137 171 211 256 313
#     4  11  22  32  46  75 110 140 171 215 265 314
#     4   9  17  31  50  76 107 139 179 218 262 321
#     4  10  21  37  55  76 102 134 175 219 263 313
#     4  11  21  34  52  75 104 140 177 213 261 320
#     4  10  22  38  60  82 108 146 185 226 269 318
#     4  10  19  35  56  77 105 144 181 216 265 322
#
# _framework density 8.9163239999999995
#
# number of rings (size 3 to 8) (size 9 to 14) (size 15 to 20)
#    0.000    2.000    2.308    1.846    0.000    6.154 
#    0.000    0.000    0.000    0.923    0.000    6.462 
#    0.000    0.000    0.000    0.000    0.000    0.000 
#
# Total GULP energy -289878.472611 kJ/mol
# GULP energy per Si atom -5574.586012 kJ/mol
# Density = 0.889603 g / cm^3
# Si number density = 8.916324 Si / 1000 Ang^3
#
#
#
# Elastic Constant Matrix: (Units=GPa)
#
#
# Indices 1 2 3 4 5 6 
#
# 1 132.1727 36.4852 35.1763 0.0000 0.0000 0.0000
# 2 36.4852 12.6726 20.1910 0.0000 0.0000 0.0000
# 3 35.1763 20.1910 43.5994 0.0000 0.0000 0.0000
# 4 0.0000 0.0000 0.0000 21.9684 0.0000 0.0000
# 5 0.0000 0.0000 0.0000 0.0000 -8.2182 0.0000
# 6 0.0000 0.0000 0.0000 0.0000 0.0000 19.8675
#
#
#
# Elastic Compliance Matrix: (Units=1/GPa)
#
#
# Indices 1 2 3 4 5 6 
#
# 1 -0.052714 0.320439 -0.105866 0.000000 0.000000 0.000000
# 2 0.320439 -1.646896 0.504147 0.000000 0.000000 0.000000
# 3 -0.105866 0.504147 -0.125122 0.000000 0.000000 0.000000
# 4 0.000000 0.000000 0.000000 0.045520 0.000000 0.000000
# 5 0.000000 0.000000 0.000000 0.000000 -0.121682 0.000000
# 6 0.000000 0.000000 0.000000 0.000000 0.000000 0.050333
#
#
# Mechanical properties :
#
#
# Convention : Reuss Voigt Hill
#
# Bulk Modulus (GPa) = -2.58204 41.34997 19.38396
# Shear Modulus (GPa) = -1.46323 13.16304 5.84990
#
# Velocity S-wave (km/s) = -0.90682 2.71983 1.81317
# Velocity P-wave (km/s) = 1.59609 5.75338 3.90857
#
# Compressibility (1/GPa) = -0.38729076
#
# Stress axis : x y z
#
# Youngs Moduli (GPa) = -18.97039 -0.60720 -7.99221
#
# Poissons Ratio (x) = 0.19457 -0.84610
# Poissons Ratio (y) = 6.07886 4.02925
# Poissons Ratio (z) = -2.00832 0.30612
#
# Static dielectric constant tensor:
#      x y z
#    x 1.650830 0.000000 0.000000 
#    y 0.000000 1.598690 0.000000 
#    z 0.000000 0.000000 1.543430 
# 
# From -- ./inp_files/37294.got.cif
#   From: 2010.05.17/outbox.ucp.g08.bks.cvg/sg67_19_cif.got.tgz:37294.got - 2010.06.11 16:47:20.
