data_PCOD9505806
_publ_section_title
;
Structure prediction by ZEFSAII (Michael W. Deem and Ramdas Pophale) SiO2 
 PCOD9505806
Probable space group: C C C A
;
_chemical_formula_sum "Si O2"
_cell_formula_units_Z 104
_cell_length_a 16.014417
_cell_length_b 16.836875
_cell_length_c 19.851988
_cell_angle_alpha 90.000000
_cell_angle_beta 90.000000
_cell_angle_gamma 90.000000
_cell_volume 5352.745864
_symmetry_space_group_name_H-M "C C C A"
_symmetry_group_IT_number 68
_space_group.IT_coordinate_system_code '2'
_symmetry_cell_setting 'orthorhombic'
loop_
_space_group_symop_operation_xyz
x,y,z
-x,1/2-y,z
x,1/2-y,1/2-z
-x,y,1/2-z
-x,-y,-z
x,1/2+y,-z
-x,1/2+y,1/2+z
x,-y,1/2+z
1/2+x,1/2+y,z
1/2-x,-y,z
1/2+x,-y,1/2-z
1/2-x,1/2+y,1/2-z
1/2-x,1/2-y,-z
1/2+x,y,-z
1/2-x,y,1/2+z
1/2+x,1/2-y,1/2+z
loop_
_atom_site_type_symbol
_atom_site_label
_atom_site_fract_x
_atom_site_fract_y
_atom_site_fract_z
Si Si1 0.088633 0.602133 0.483364
Si Si2 0.133546 0.517715 0.813451
Si Si3 0.172721 0.041382 0.833389
Si Si4 0.015472 0.979031 0.898060
Si Si5 0.338552 0.278553 0.174852
Si Si6 0.500000 0.250000 0.086619
Si Si7 0.779238 0.879657 0.380895
O O1 0.064561 0.588582 0.560927
O O2 0.184324 0.610732 0.456863
O O3 0.050224 0.524042 0.446617
O O4 0.038440 0.678472 0.456811
O O5 0.156035 0.509962 0.734941
O O6 0.149527 0.426802 0.838238
O O7 0.196629 0.573980 0.856371
O O8 0.040831 0.543345 0.833789
O O9 0.195420 0.132479 0.820606
O O10 0.250000 0.000000 0.869911
O O11 0.087696 0.037979 0.874653
O O12 0.355689 0.250000 0.250000
O O13 0.424031 0.278511 0.133052
O O14 0.279917 0.212158 0.139894
#
# Coordination Sequence:
#
# PCOD9505806 Si02
#       7
#    16  16  16  16  16   8  16
#     4   9  19  37  54  83 113 146 193 229 289 343
#     4  10  18  36  58  85 114 151 191 234 292 355
#     4  12  22  36  55  88 126 150 191 241 293 346
#     4  10  21  36  56  81 113 156 191 230 279 344
#     4  11  19  31  55  87 119 147 184 246 301 345
#     4  10  19  32  58  84 117 144 186 250 300 344
#     4   9  18  34  58  84 111 152 187 231 287 350
#
# _framework density 19.429281
#
# number of rings (size 3 to 8) (size 9 to 14) (size 15 to 20)
#    0.000    1.846    4.615    0.692    0.000    1.231 
#    8.308    1.538    0.000    3.692    0.000    4.308 
#    0.000    0.000    0.000    0.000    0.000    0.000 
#
# Total GULP energy -289500.250411 kJ/mol
# GULP energy per Si atom -5567.312508 kJ/mol
# Density = 1.938506 g / cm^3
# Si number density = 19.429281 Si / 1000 Ang^3
#
#
#
# Elastic Constant Matrix: (Units=GPa)
#
#
# Indices 1 2 3 4 5 6 
#
# 1 54.5155 34.0793 6.4009 0.0000 0.0000 0.0000
# 2 34.0793 111.3302 26.7366 0.0000 0.0000 0.0000
# 3 6.4009 26.7366 29.5272 0.0000 0.0000 0.0000
# 4 0.0000 0.0000 0.0000 18.9503 0.0000 0.0000
# 5 0.0000 0.0000 0.0000 0.0000 -3.7075 0.0000
# 6 0.0000 0.0000 0.0000 0.0000 0.0000 20.8986
#
#
#
# Elastic Compliance Matrix: (Units=1/GPa)
#
#
# Indices 1 2 3 4 5 6 
#
# 1 0.022755 -0.007387 0.001756 0.000000 0.000000 0.000000
# 2 -0.007387 0.013877 -0.010964 0.000000 0.000000 0.000000
# 3 0.001756 -0.010964 0.043414 0.000000 0.000000 0.000000
# 4 0.000000 0.000000 0.000000 0.052770 0.000000 0.000000
# 5 0.000000 0.000000 0.000000 0.000000 -0.269722 0.000000
# 6 0.000000 0.000000 0.000000 0.000000 0.000000 0.047850
#
#
# Mechanical properties :
#
#
# Convention : Reuss Voigt Hill
#
# Bulk Modulus (GPa) = 21.34194 36.64519 28.99356
# Shear Modulus (GPa) = -124.22980 15.77202 -54.22889
#
# Velocity S-wave (km/s) = -8.00489 2.85224 -5.28881
# Velocity P-wave (km/s) = 8.62725 5.45424 4.72656
#
# Compressibility (1/GPa) = 0.04685610
#
# Stress axis : x y z
#
# Youngs Moduli (GPa) = 43.94587 72.06358 23.03416
#
# Poissons Ratio (x) = 0.53236 -0.04045
# Poissons Ratio (y) = 0.32465 0.25254
# Poissons Ratio (z) = -0.07718 0.79008
#
# Static dielectric constant tensor:
#      x y z
#    x 1.718640 0.000000 0.000000 
#    y 0.000000 1.674050 0.000000 
#    z 0.000000 0.000000 1.752510 
# 
# From -- ./inp_files/39642.got.cif
#   From: 2010.05.17/outbox.cif.g08.bks.cpg/sg68_20_cif.got.tgz:39642.got - 2010.06.03 18:57:09.
