data_PCOD9505827
_publ_section_title
;
Structure prediction by ZEFSAII (Michael W. Deem and Ramdas Pophale) SiO2 
 PCOD9505827
Probable space group: C C C A
;
_chemical_formula_sum "Si O2"
_cell_formula_units_Z 88
_cell_length_a 5.290343
_cell_length_b 27.563255
_cell_length_c 27.907017
_cell_angle_alpha 90.000000
_cell_angle_beta 90.000000
_cell_angle_gamma 90.000000
_cell_volume 4069.375353
_symmetry_space_group_name_H-M "C C C A"
_symmetry_group_IT_number 68
_space_group.IT_coordinate_system_code '2'
_symmetry_cell_setting 'orthorhombic'
loop_
_space_group_symop_operation_xyz
x,y,z
-x,1/2-y,z
x,1/2-y,1/2-z
-x,y,1/2-z
-x,-y,-z
x,1/2+y,-z
-x,1/2+y,1/2+z
x,-y,1/2+z
1/2+x,1/2+y,z
1/2-x,-y,z
1/2+x,-y,1/2-z
1/2-x,1/2+y,1/2-z
1/2-x,1/2-y,-z
1/2+x,y,-z
1/2-x,y,1/2+z
1/2+x,1/2-y,1/2+z
loop_
_atom_site_type_symbol
_atom_site_label
_atom_site_fract_x
_atom_site_fract_y
_atom_site_fract_z
Si Si1 0.750000 0.500000 0.032287
Si Si2 0.868744 0.697674 0.101726
Si Si3 0.647230 0.680096 0.799030
Si Si4 0.500000 0.250000 0.657762
Si Si5 0.250000 0.500000 0.221409
Si Si6 0.890204 0.909697 0.657775
Si Si7 0.885915 0.094220 0.904956
O O1 0.795036 0.548791 0.063335
O O2 0.500000 0.500000 0.000000
O O3 0.587278 0.709491 0.119780
O O4 0.883955 0.648525 0.070965
O O5 0.000000 0.750000 0.087803
O O6 0.987706 0.680917 0.152135
O O7 0.500000 0.675948 0.750000
O O8 0.835018 0.635345 0.807023
O O9 0.791272 0.730384 0.806578
O O10 0.500000 0.482013 0.250000
O O11 0.139594 0.457648 0.188723
O O12 0.666499 0.912634 0.617464
O O13 0.166783 0.904887 0.635402
#
# Coordination Sequence:
#
# PCOD9505827 Si02
#       7
#     8  16  16   8   8  16  16
#     4  12  26  46  74 110 136 156 190 250 338 412
#     4   9  20  35  58  88 119 169 227 260 310 367
#     4  10  21  33  51  79 122 166 219 281 318 351
#     4  10  18  37  50  78 116 162 230 260 326 352
#     4  12  24  38  56  80 118 164 218 282 322 362
#     4  11  22  40  61  90 117 171 222 257 320 378
#     4  11  22  43  68  95 127 164 204 262 311 397
#
# _framework density 21.624941
#
# number of rings (size 3 to 8) (size 9 to 14) (size 15 to 20)
#    0.000    1.455    1.818    3.818    0.000    6.182 
#    0.000    0.000    0.000    1.091    0.000    0.000 
#    0.000    0.000    0.000    0.000    0.000    0.000 
#
# Total GULP energy -245280.569466 kJ/mol
# GULP energy per Si atom -5574.558397 kJ/mol
# Density = 2.157572 g / cm^3
# Si number density = 21.624941 Si / 1000 Ang^3
#
#
#
# Elastic Constant Matrix: (Units=GPa)
#
#
# Indices 1 2 3 4 5 6 
#
# 1 95.7788 2.2573 15.2467 0.0000 0.0000 0.0000
# 2 2.2573 141.3958 33.1509 0.0000 0.0000 0.0000
# 3 15.2467 33.1509 30.9064 0.0000 0.0000 0.0000
# 4 0.0000 0.0000 0.0000 -5.3280 0.0000 0.0000
# 5 0.0000 0.0000 0.0000 0.0000 39.8388 0.0000
# 6 0.0000 0.0000 0.0000 0.0000 0.0000 36.8207
#
#
#
# Elastic Compliance Matrix: (Units=1/GPa)
#
#
# Indices 1 2 3 4 5 6 
#
# 1 0.011577 0.001542 -0.007365 0.000000 0.000000 0.000000
# 2 0.001542 0.009654 -0.011116 0.000000 0.000000 0.000000
# 3 -0.007365 -0.011116 0.047912 0.000000 0.000000 0.000000
# 4 0.000000 0.000000 0.000000 -0.187687 0.000000 0.000000
# 5 0.000000 0.000000 0.000000 0.000000 0.025101 0.000000
# 6 0.000000 0.000000 0.000000 0.000000 0.000000 0.027159
#
#
# Mechanical properties :
#
#
# Convention : Reuss Voigt Hill
#
# Bulk Modulus (GPa) = 28.35654 41.04341 34.69998
# Shear Modulus (GPa) = -242.09871 28.76139 -106.66866
#
# Velocity S-wave (km/s) = -10.59229 3.65089 -7.03091
# Velocity P-wave (km/s) = 11.68135 6.06571 7.05908
#
# Compressibility (1/GPa) = 0.03526523
#
# Stress axis : x y z
#
# Youngs Moduli (GPa) = 86.37985 103.58597 20.87173
#
# Poissons Ratio (x) = -0.15972 0.15372
# Poissons Ratio (y) = -0.13319 0.23200
# Poissons Ratio (z) = 0.63618 1.15141
#
# Static dielectric constant tensor:
#      x y z
#    x 1.720710 0.000000 0.000000 
#    y 0.000000 1.907490 0.000000 
#    z 0.000000 0.000000 1.792410 
# 
# From -- ./inp_files/53417.got.cif
#   From: 2010.05.17/outbox.cif.g08.bks.cpg/sg68_27_cif.got.tgz:53417.got - 2010.06.03 18:57:09.
