data_PCOD9505270
_publ_section_title
;
Structure prediction by ZEFSAII (Michael W. Deem and Ramdas Pophale) SiO2 
 PCOD9505270
Probable space group: C M M A
;
_chemical_formula_sum "Si O2"
_cell_formula_units_Z 58
_cell_length_a 24.000000
_cell_length_b 30.000000
_cell_length_c 9.000000
_cell_angle_alpha 90.000000
_cell_angle_beta 90.000000
_cell_angle_gamma 90.000000
_cell_volume 6480.000000
_symmetry_space_group_name_H-M "C M M A"
_symmetry_group_IT_number 67
_symmetry_cell_setting 'orthorhombic'
loop_
_space_group_symop_operation_xyz
x,y,z
-x,1/2-y,z
x,-y,-z
-x,1/2+y,-z
-x,-y,-z
x,1/2+y,-z
-x,y,z
x,1/2-y,z
1/2+x,1/2+y,z
1/2-x,-y,z
1/2+x,1/2-y,-z
1/2-x,y,-z
1/2-x,1/2-y,-z
1/2+x,y,-z
1/2-x,1/2+y,z
1/2+x,-y,z
loop_
_atom_site_type_symbol
_atom_site_label
_atom_site_fract_x
_atom_site_fract_y
_atom_site_fract_z
Si Si1 0.065097 0.196677 0.187732
Si Si2 0.934963 0.951563 0.571151
Si Si3 0.370756 0.043455 0.888989
Si Si4 0.250000 0.250000 0.500000
Si Si5 0.825984 0.831013 0.622545
Si Si6 0.260489 0.902666 0.173122
Si Si7 0.933043 0.123086 0.933426
Si Si8 0.643566 0.107245 0.348087
O O1 0.070777 0.250000 0.161710
O O2 0.114087 0.181480 0.301562
O O3 0.000000 0.189038 0.237685
O O4 0.072162 0.166952 0.038127
O O5 0.905475 0.957978 0.733039
O O6 0.893750 0.924893 0.456943
O O7 0.000000 0.933919 0.584651
O O8 0.939806 0.000000 0.500000
O O9 0.306874 0.057548 0.845451
O O10 0.402291 0.082787 0.979378
O O11 0.371153 0.000000 0.000000
O O12 0.212398 0.288866 0.414528
O O13 0.793092 0.864636 0.733436
O O14 0.836331 0.855633 0.465218
O O15 0.200462 0.910453 0.260088
O O16 0.250000 0.889210 0.000000
O O17 0.898806 0.125375 0.778732
O O18 0.000000 0.114923 0.912289
#
# Coordination Sequence:
#
# PCOD9505270 Si02
#       8
#    16  16  16   4  16  16  16  16
#     4  10  21  40  66  97 133 175 226 279 339 412
#     4  11  25  44  67  98 134 173 222 276 335 399
#     4  12  25  43  67  98 129 177 226 273 331 406
#     4  12  24  40  68 104 134 172 226 278 330 410
#     4  12  23  43  69  97 134 175 222 278 340 405
#     4  12  24  45  67  93 133 176 221 276 336 405
#     4  11  23  42  66  94 130 174 222 280 336 393
#     4  12  23  43  67  95 134 175 220 274 339 406
#
# _framework density 8.9506169999999994
#
# number of rings (size 3 to 8) (size 9 to 14) (size 15 to 20)
#    0.000    0.552    6.207    1.655    0.000    4.690 
#    1.241    1.034    0.000    0.000    0.000    0.000 
#    0.000    0.000    0.000    0.000    0.000    0.000 
#
# Total GULP energy -322983.533718 kJ/mol
# GULP energy per Si atom -5568.681616 kJ/mol
# Density = 0.893025 g / cm^3
# Si number density = 8.950617 Si / 1000 Ang^3
#
#
#
# Elastic Constant Matrix: (Units=GPa)
#
#
# Indices 1 2 3 4 5 6 
#
# 1 172.0040 50.1174 73.3138 0.0000 0.0000 0.0000
# 2 50.1174 100.4742 53.4003 0.0000 0.0000 0.0000
# 3 73.3138 53.4003 163.3578 0.0000 0.0000 0.0000
# 4 0.0000 0.0000 0.0000 36.1133 0.0000 0.0000
# 5 0.0000 0.0000 0.0000 0.0000 49.1178 0.0000
# 6 0.0000 0.0000 0.0000 0.0000 0.0000 36.4337
#
#
#
# Elastic Compliance Matrix: (Units=1/GPa)
#
#
# Indices 1 2 3 4 5 6 
#
# 1 0.007642 -0.002407 -0.002643 0.000000 0.000000 0.000000
# 2 -0.002407 0.012804 -0.003105 0.000000 0.000000 0.000000
# 3 -0.002643 -0.003105 0.008323 0.000000 0.000000 0.000000
# 4 0.000000 0.000000 0.000000 0.027691 0.000000 0.000000
# 5 0.000000 0.000000 0.000000 0.000000 0.020359 0.000000
# 6 0.000000 0.000000 0.000000 0.000000 0.000000 0.027447
#
#
# Mechanical properties :
#
#
# Convention : Reuss Voigt Hill
#
# Bulk Modulus (GPa) = 80.26885 87.72210 83.99547
# Shear Modulus (GPa) = 40.08738 41.59992 40.84365
#
# Velocity S-wave (km/s) = 4.73733 4.82587 4.78180
# Velocity P-wave (km/s) = 8.65218 8.95331 8.80403
#
# Compressibility (1/GPa) = 0.01245813
#
# Stress axis : x y z
#
# Youngs Moduli (GPa) = 130.86313 78.10140 120.15541
#
# Poissons Ratio (x) = 0.18801 0.31752
# Poissons Ratio (y) = 0.31501 0.37310
# Poissons Ratio (z) = 0.34582 0.24252
#
# Static dielectric constant tensor:
#      x y z
#    x 1.651040 0.000000 0.000000 
#    y 0.000000 1.624150 0.000000 
#    z 0.000000 0.000000 1.610200 
# 
# From -- ./inp_files/12994.got.cif
#   From: 2010.05.17/outbox.ucp.g08.bks.cvg/sg67_7_cif.got.tgz:12994.got - 2010.06.11 16:47:20.
