data_PCOD9505851
_publ_section_title
;
Structure prediction by ZEFSAII (Michael W. Deem and Ramdas Pophale) SiO2 
 PCOD9505851
Probable space group: C C C A
;
_chemical_formula_sum "Si O2"
_cell_formula_units_Z 120
_cell_length_a 15.703674
_cell_length_b 19.802983
_cell_length_c 21.971837
_cell_angle_alpha 90.000000
_cell_angle_beta 90.000000
_cell_angle_gamma 90.000000
_cell_volume 6832.792846
_symmetry_space_group_name_H-M "C C C A"
_symmetry_group_IT_number 68
_space_group.IT_coordinate_system_code '2'
_symmetry_cell_setting 'orthorhombic'
loop_
_space_group_symop_operation_xyz
x,y,z
-x,1/2-y,z
x,1/2-y,1/2-z
-x,y,1/2-z
-x,-y,-z
x,1/2+y,-z
-x,1/2+y,1/2+z
x,-y,1/2+z
1/2+x,1/2+y,z
1/2-x,-y,z
1/2+x,-y,1/2-z
1/2-x,1/2+y,1/2-z
1/2-x,1/2-y,-z
1/2+x,y,-z
1/2-x,y,1/2+z
1/2+x,1/2-y,1/2+z
loop_
_atom_site_type_symbol
_atom_site_label
_atom_site_fract_x
_atom_site_fract_y
_atom_site_fract_z
Si Si1 0.506580 0.503042 0.428337
Si Si2 0.662804 0.961427 0.375777
Si Si3 0.409292 0.374044 0.629653
Si Si4 0.330213 0.816390 0.058385
Si Si5 0.000000 0.750000 0.897050
Si Si6 0.828344 0.553698 0.361337
Si Si7 0.102034 0.029056 0.259393
Si Si8 0.743356 0.679545 0.922923
O O1 0.500000 0.500000 0.500000
O O2 0.413729 0.490998 0.400617
O O3 0.525692 0.578220 0.405077
O O4 0.588229 0.463331 0.402212
O O5 0.668180 0.888296 0.407957
O O6 0.644016 0.953551 0.304263
O O7 0.750000 0.000000 0.386092
O O8 0.456096 0.305470 0.644733
O O9 0.381978 0.412866 0.690205
O O10 0.335183 0.356634 0.582199
O O11 0.424726 0.783992 0.063612
O O12 0.266033 0.758934 0.086379
O O13 0.300696 0.826159 0.988617
O O14 0.750000 0.500000 0.376030
O O15 0.856775 0.536021 0.292534
O O16 0.805958 0.631493 0.375048
O O17 0.000000 0.021795 0.250000
#
# Coordination Sequence:
#
# PCOD9505851 Si02
#       8
#    16  16  16  16   8  16  16  16
#     4  11  22  35  56  92 120 157 202 244 307 369
#     4  12  25  40  62  92 130 157 201 267 319 355
#     4  10  20  36  60  82 121 157 201 244 306 369
#     4  10  22  39  60  91 125 161 200 258 315 371
#     4  10  18  38  59  86 124 158 197 256 308 368
#     4  11  20  36  62  86 119 168 208 248 300 375
#     4  11  20  40  60  88 122 158 212 261 307 362
#     4  10  21  38  60  88 119 162 205 244 305 385
#
# _framework density 17.562365
#
# number of rings (size 3 to 8) (size 9 to 14) (size 15 to 20)
#    0.000    1.333    6.667    1.200    1.867    1.067 
#    0.000    6.333    0.000    0.000    0.000    0.933 
#    0.000    0.000    0.000    0.000    0.000    0.000 
#
# Total GULP energy -334014.624777 kJ/mol
# GULP energy per Si atom -5566.910413 kJ/mol
# Density = 1.752239 g / cm^3
# Si number density = 17.562365 Si / 1000 Ang^3
#
#
#
# Elastic Constant Matrix: (Units=GPa)
#
#
# Indices 1 2 3 4 5 6 
#
# 1 118.2845 40.3190 31.4354 0.0000 0.0000 0.0000
# 2 40.3190 78.1655 24.4698 0.0000 0.0000 0.0000
# 3 31.4354 24.4698 90.1518 0.0000 0.0000 0.0000
# 4 0.0000 0.0000 0.0000 22.4576 0.0000 0.0000
# 5 0.0000 0.0000 0.0000 0.0000 27.2265 0.0000
# 6 0.0000 0.0000 0.0000 0.0000 0.0000 25.7280
#
#
#
# Elastic Compliance Matrix: (Units=1/GPa)
#
#
# Indices 1 2 3 4 5 6 
#
# 1 0.010730 -0.004769 -0.002447 0.000000 0.000000 0.000000
# 2 -0.004769 0.016101 -0.002707 0.000000 0.000000 0.000000
# 3 -0.002447 -0.002707 0.012681 0.000000 0.000000 0.000000
# 4 0.000000 0.000000 0.000000 0.044528 0.000000 0.000000
# 5 0.000000 0.000000 0.000000 0.000000 0.036729 0.000000
# 6 0.000000 0.000000 0.000000 0.000000 0.000000 0.038868
#
#
# Mechanical properties :
#
#
# Convention : Reuss Voigt Hill
#
# Bulk Modulus (GPa) = 50.85200 53.22778 52.03989
# Shear Modulus (GPa) = 26.87621 27.77424 27.32523
#
# Velocity S-wave (km/s) = 3.91619 3.98108 3.94877
# Velocity P-wave (km/s) = 7.03325 7.17674 7.10536
#
# Compressibility (1/GPa) = 0.01966491
#
# Stress axis : x y z
#
# Youngs Moduli (GPa) = 93.19663 62.10931 78.86079
#
# Poissons Ratio (x) = 0.29618 0.19298
# Poissons Ratio (y) = 0.44442 0.21351
# Poissons Ratio (z) = 0.22807 0.16815
#
# Static dielectric constant tensor:
#      x y z
#    x 1.676580 0.000000 0.000000 
#    y 0.000000 1.624170 0.000000 
#    z 0.000000 0.000000 1.564010 
# 
# From -- ./inp_files/38939.got.cif
#   From: 2010.05.17/outbox.cif.g08.bks.cpg/sg68_20_cif.got.tgz:38939.got - 2010.06.03 18:57:09.
