data_PCOD9505787
_publ_section_title
;
Structure prediction by ZEFSAII (Michael W. Deem and Ramdas Pophale) SiO2 
 PCOD9505787
Probable space group: C C C A
;
_chemical_formula_sum "Si O2"
_cell_formula_units_Z 96
_cell_length_a 13.801850
_cell_length_b 21.769038
_cell_length_c 14.024322
_cell_angle_alpha 90.000000
_cell_angle_beta 90.000000
_cell_angle_gamma 90.000000
_cell_volume 4213.649577
_symmetry_space_group_name_H-M "C C C A"
_symmetry_group_IT_number 68
_space_group.IT_coordinate_system_code '2'
_symmetry_cell_setting 'orthorhombic'
loop_
_space_group_symop_operation_xyz
x,y,z
-x,1/2-y,z
x,1/2-y,1/2-z
-x,y,1/2-z
-x,-y,-z
x,1/2+y,-z
-x,1/2+y,1/2+z
x,-y,1/2+z
1/2+x,1/2+y,z
1/2-x,-y,z
1/2+x,-y,1/2-z
1/2-x,1/2+y,1/2-z
1/2-x,1/2-y,-z
1/2+x,y,-z
1/2-x,y,1/2+z
1/2+x,1/2-y,1/2+z
loop_
_atom_site_type_symbol
_atom_site_label
_atom_site_fract_x
_atom_site_fract_y
_atom_site_fract_z
Si Si1 0.890910 0.730417 0.486674
Si Si2 0.326084 0.314026 0.216942
Si Si3 0.119084 0.144805 0.589934
Si Si4 0.181759 0.105670 0.057634
Si Si5 0.484505 0.436258 0.552032
Si Si6 0.272427 0.932370 0.358747
O O1 0.880120 0.701986 0.380862
O O2 0.844872 0.798315 0.476909
O O3 0.848625 0.677662 0.552893
O O4 0.000000 0.750000 0.509871
O O5 0.276574 0.250000 0.250000
O O6 0.397293 0.331105 0.304078
O O7 0.254447 0.370919 0.198923
O O8 0.211492 0.100447 0.600536
O O9 0.032912 0.112665 0.533850
O O10 0.086706 0.075950 0.103321
O O11 0.203545 0.075874 0.953229
O O12 0.500000 0.500000 0.500000
O O13 0.385488 0.432198 0.611280
O O14 0.250000 0.000000 0.317366
#
# Coordination Sequence:
#
# PCOD9505787 Si02
#       6
#    16  16  16  16  16  16
#     4  10  18  35  59  88 114 149 198 250 295 346
#     4   9  21  39  58  85 123 158 192 242 304 353
#     4  10  21  36  58  84 116 154 192 243 301 351
#     4  10  20  36  58  84 118 149 198 241 295 345
#     4  11  21  37  60  87 115 153 200 245 290 349
#     4  10  20  38  60  84 120 159 193 248 298 350
#
# _framework density 22.783100000000001
#
# number of rings (size 3 to 8) (size 9 to 14) (size 15 to 20)
#    0.000    2.000    3.333    0.500    0.000    4.333 
#    3.000    0.833    0.000    3.000    0.000    0.000 
#    0.000    0.000    0.000    0.000    0.000    0.000 
#
# Total GULP energy -267488.947413 kJ/mol
# GULP energy per Si atom -5572.686404 kJ/mol
# Density = 2.273125 g / cm^3
# Si number density = 22.783100 Si / 1000 Ang^3
#
#
#
# Elastic Constant Matrix: (Units=GPa)
#
#
# Indices 1 2 3 4 5 6 
#
# 1 122.3079 15.2744 -24.7269 0.0000 0.0000 0.0000
# 2 15.2744 126.8445 3.1875 0.0000 0.0000 0.0000
# 3 -24.7269 3.1875 15.4259 0.0000 0.0000 0.0000
# 4 0.0000 0.0000 0.0000 23.8579 0.0000 0.0000
# 5 0.0000 0.0000 0.0000 0.0000 13.1907 0.0000
# 6 0.0000 0.0000 0.0000 0.0000 0.0000 34.9135
#
#
#
# Elastic Compliance Matrix: (Units=1/GPa)
#
#
# Indices 1 2 3 4 5 6 
#
# 1 0.012598 -0.002035 0.020614 0.000000 0.000000 0.000000
# 2 -0.002035 0.008254 -0.004967 0.000000 0.000000 0.000000
# 3 0.020614 -0.004967 0.098896 0.000000 0.000000 0.000000
# 4 0.000000 0.000000 0.000000 0.041915 0.000000 0.000000
# 5 0.000000 0.000000 0.000000 0.000000 0.075811 0.000000
# 6 0.000000 0.000000 0.000000 0.000000 0.000000 0.028642
#
#
# Mechanical properties :
#
#
# Convention : Reuss Voigt Hill
#
# Bulk Modulus (GPa) = 6.80409 28.00535 17.40472
# Shear Modulus (GPa) = 17.36822 32.44865 24.90843
#
# Velocity S-wave (km/s) = 2.76403 3.77801 3.31007
# Velocity P-wave (km/s) = 3.63034 5.59910 4.71855
#
# Compressibility (1/GPa) = 0.14697045
#
# Stress axis : x y z
#
# Youngs Moduli (GPa) = 79.37917 121.15999 10.11164
#
# Poissons Ratio (x) = 0.24656 -0.20844
# Poissons Ratio (y) = 0.16154 0.05023
# Poissons Ratio (z) = -1.63633 0.60186
#
# Static dielectric constant tensor:
#      x y z
#    x 1.874000 0.000000 0.000000 
#    y 0.000000 1.912990 0.000000 
#    z 0.000000 0.000000 1.912950 
# 
# From -- ./inp_files/22395.got.cif
#   From: 2010.05.17/outbox.cif.g08.bks.cpg/sg68_12_cif.got.tgz:22395.got - 2010.06.03 18:57:09.
