data_PCOD9505035
_publ_section_title
;
Structure prediction by ZEFSAII (Michael W. Deem and Ramdas Pophale) SiO2 
 PCOD9505035
Probable space group: C M M A
;
_chemical_formula_sum "Si O2"
_cell_formula_units_Z 88
_cell_length_a 9.652489
_cell_length_b 20.005347
_cell_length_c 22.793107
_cell_angle_alpha 90.000000
_cell_angle_beta 90.000000
_cell_angle_gamma 90.000000
_cell_volume 4401.380686
_symmetry_space_group_name_H-M "C M M A"
_symmetry_group_IT_number 67
_symmetry_cell_setting 'orthorhombic'
loop_
_space_group_symop_operation_xyz
x,y,z
-x,1/2-y,z
x,-y,-z
-x,1/2+y,-z
-x,-y,-z
x,1/2+y,-z
-x,y,z
x,1/2-y,z
1/2+x,1/2+y,z
1/2-x,-y,z
1/2+x,1/2-y,-z
1/2-x,y,-z
1/2-x,1/2-y,-z
1/2+x,y,-z
1/2-x,1/2+y,z
1/2+x,-y,z
loop_
_atom_site_type_symbol
_atom_site_label
_atom_site_fract_x
_atom_site_fract_y
_atom_site_fract_z
Si Si1 0.000000 0.594663 0.043134
Si Si2 0.251016 0.369098 0.877550
Si Si3 0.837668 0.329527 0.748592
Si Si4 0.144245 0.250000 0.052600
Si Si5 0.663704 0.174022 0.559325
Si Si6 0.500000 0.444772 0.910826
Si Si7 0.668104 0.571304 0.335055
O O1 0.863586 0.623867 0.072186
O O2 0.000000 0.519634 0.067181
O O3 0.000000 0.594318 0.973263
O O4 0.181806 0.349624 0.816622
O O5 0.343271 0.310276 0.902573
O O6 0.359714 0.429825 0.875414
O O7 0.805547 0.250000 0.741284
O O8 0.736873 0.379216 0.713116
O O9 0.000000 0.339034 0.732156
O O10 0.000000 0.250000 0.020250
O O11 0.250000 0.250000 0.000000
O O12 0.500000 0.172999 0.545969
O O13 0.695062 0.250000 0.582351
O O14 0.750000 0.165039 0.500000
O O15 0.689680 0.114591 0.605304
O O16 0.500000 0.562564 0.326900
O O17 0.750000 0.500000 0.335659
#
# Coordination Sequence:
#
# PCOD9505035 Si02
#       7
#     8  16  16   8  16   8  16
#     4  11  24  43  63  87 127 162 202 255 318 387
#     4  12  24  42  64  91 122 159 208 259 319 389
#     4  11  25  46  67  92 129 172 221 273 334 400
#     4  12  26  40  64  94 124 158 201 258 325 392
#     4   9  19  38  66 102 140 182 230 276 325 381
#     4  11  24  41  63  93 121 164 206 249 314 395
#     4  11  25  44  68  99 137 180 228 280 333 390
#
# _framework density 19.993725999999999
#
# number of rings (size 3 to 8) (size 9 to 14) (size 15 to 20)
#    0.000    1.091    2.727    3.273    2.545    5.818 
#    0.000    3.636    0.000    0.000    0.000    0.000 
#    0.000    0.000    0.000    0.000    0.000    0.000 
#
# Total GULP energy -245511.683423 kJ/mol
# GULP energy per Si atom -5579.810987 kJ/mol
# Density = 1.994822 g / cm^3
# Si number density = 19.993726 Si / 1000 Ang^3
#
#
#
# Elastic Constant Matrix: (Units=GPa)
#
#
# Indices 1 2 3 4 5 6 
#
# 1 127.3882 59.5026 36.0132 0.0000 0.0000 0.0000
# 2 59.5026 134.3831 45.9736 0.0000 0.0000 0.0000
# 3 36.0132 45.9736 74.1587 0.0000 0.0000 0.0000
# 4 0.0000 0.0000 0.0000 18.2718 0.0000 0.0000
# 5 0.0000 0.0000 0.0000 0.0000 40.7296 0.0000
# 6 0.0000 0.0000 0.0000 0.0000 0.0000 31.2470
#
#
#
# Elastic Compliance Matrix: (Units=1/GPa)
#
#
# Indices 1 2 3 4 5 6 
#
# 1 0.010326 -0.003625 -0.002767 0.000000 0.000000 0.000000
# 2 -0.003625 0.010717 -0.004883 0.000000 0.000000 0.000000
# 3 -0.002767 -0.004883 0.017856 0.000000 0.000000 0.000000
# 4 0.000000 0.000000 0.000000 0.054729 0.000000 0.000000
# 5 0.000000 0.000000 0.000000 0.000000 0.024552 0.000000
# 6 0.000000 0.000000 0.000000 0.000000 0.000000 0.032003
#
#
# Mechanical properties :
#
#
# Convention : Reuss Voigt Hill
#
# Bulk Modulus (GPa) = 61.17266 68.76766 64.97016
# Shear Modulus (GPa) = 28.06093 31.01238 29.53665
#
# Velocity S-wave (km/s) = 3.75038 3.94268 3.84773
# Velocity P-wave (km/s) = 7.02966 7.42937 7.23228
#
# Compressibility (1/GPa) = 0.01634717
#
# Stress axis : x y z
#
# Youngs Moduli (GPa) = 96.84610 93.30633 56.00464
#
# Poissons Ratio (x) = 0.33828 0.15496
# Poissons Ratio (y) = 0.35111 0.27350
# Poissons Ratio (z) = 0.26796 0.45566
#
# Static dielectric constant tensor:
#      x y z
#    x 1.705520 0.000000 0.000000 
#    y 0.000000 1.770100 0.000000 
#    z 0.000000 0.000000 1.659810 
# 
# From -- ./inp_files/37013.got.cif
#   From: 2010.05.17/outbox.cif.g08.bks.cpg/sg67_19_cif.got.tgz:37013.got - 2010.06.03 18:28:57.
