data_PCOD9505889
_publ_section_title
;
Structure prediction by ZEFSAII (Michael W. Deem and Ramdas Pophale) SiO2 
 PCOD9505889
Probable space group: C C C A
;
_chemical_formula_sum "Si O2"
_cell_formula_units_Z 64
_cell_length_a 18.098664
_cell_length_b 8.672230
_cell_length_c 20.982636
_cell_angle_alpha 90.000000
_cell_angle_beta 90.000000
_cell_angle_gamma 90.000000
_cell_volume 3293.345935
_symmetry_space_group_name_H-M "C C C A"
_symmetry_group_IT_number 68
_space_group.IT_coordinate_system_code '2'
_symmetry_cell_setting 'orthorhombic'
loop_
_space_group_symop_operation_xyz
x,y,z
-x,1/2-y,z
x,1/2-y,1/2-z
-x,y,1/2-z
-x,-y,-z
x,1/2+y,-z
-x,1/2+y,1/2+z
x,-y,1/2+z
1/2+x,1/2+y,z
1/2-x,-y,z
1/2+x,-y,1/2-z
1/2-x,1/2+y,1/2-z
1/2-x,1/2-y,-z
1/2+x,y,-z
1/2-x,y,1/2+z
1/2+x,1/2-y,1/2+z
loop_
_atom_site_type_symbol
_atom_site_label
_atom_site_fract_x
_atom_site_fract_y
_atom_site_fract_z
Si Si1 0.022765 0.431093 0.683049
Si Si2 0.192645 0.638538 0.187702
Si Si3 0.459323 0.412516 0.444231
Si Si4 0.211450 0.663398 0.440370
O O1 0.110775 0.430596 0.675850
O O2 0.000000 0.250000 0.686832
O O3 0.000000 0.504084 0.750000
O O4 0.977200 0.494415 0.623127
O O5 0.189520 0.750000 0.250000
O O6 0.250000 0.500000 0.198021
O O7 0.213117 0.734093 0.123892
O O8 0.500000 0.250000 0.440368
O O9 0.500000 0.500000 0.500000
O O10 0.373728 0.378343 0.454944
O O11 0.250000 0.500000 0.428986
O O12 0.250000 0.750000 0.500000
#
# Coordination Sequence:
#
# PCOD9505889 Si02
#       4
#    16  16  16  16
#     4  10  18  40  70  88 119 169 222 258 325 389
#     4  12  24  42  69 100 132 171 220 276 334 396
#     4  11  22  40  65  92 123 174 219 259 320 390
#     4  12  25  41  63  97 136 171 215 275 328 386
#
# _framework density 19.433123999999999
#
# number of rings (size 3 to 8) (size 9 to 14) (size 15 to 20)
#    0.000    0.750    7.500    3.000    3.500    0.000 
#    0.000    0.000    0.000    0.000    0.000    0.000 
#    0.000    0.000    0.000    0.000    0.000    0.000 
#
# Total GULP energy -178655.462276 kJ/mol
# GULP energy per Si atom -5582.983196 kJ/mol
# Density = 1.938889 g / cm^3
# Si number density = 19.433124 Si / 1000 Ang^3
#
#
#
# Elastic Constant Matrix: (Units=GPa)
#
#
# Indices 1 2 3 4 5 6 
#
# 1 183.1943 36.9603 50.4556 0.0000 0.0000 0.0000
# 2 36.9603 42.7030 32.3902 0.0000 0.0000 0.0000
# 3 50.4556 32.3902 199.9665 0.0000 0.0000 0.0000
# 4 0.0000 0.0000 0.0000 42.9884 0.0000 0.0000
# 5 0.0000 0.0000 0.0000 0.0000 33.5698 0.0000
# 6 0.0000 0.0000 0.0000 0.0000 0.0000 21.5356
#
#
#
# Elastic Compliance Matrix: (Units=1/GPa)
#
#
# Indices 1 2 3 4 5 6 
#
# 1 0.006741 -0.005181 -0.000862 0.000000 0.000000 0.000000
# 2 -0.005181 0.030680 -0.003662 0.000000 0.000000 0.000000
# 3 -0.000862 -0.003662 0.005811 0.000000 0.000000 0.000000
# 4 0.000000 0.000000 0.000000 0.023262 0.000000 0.000000
# 5 0.000000 0.000000 0.000000 0.000000 0.029789 0.000000
# 6 0.000000 0.000000 0.000000 0.000000 0.000000 0.046435
#
#
# Mechanical properties :
#
#
# Convention : Reuss Voigt Hill
#
# Bulk Modulus (GPa) = 41.97727 73.94178 57.95952
# Shear Modulus (GPa) = 29.39986 40.02260 34.71123
#
# Velocity S-wave (km/s) = 3.89379 4.54310 4.23092
# Velocity P-wave (km/s) = 6.47018 8.10257 7.33195
#
# Compressibility (1/GPa) = 0.02382242
#
# Stress axis : x y z
#
# Youngs Moduli (GPa) = 148.33844 32.59494 172.07382
#
# Poissons Ratio (x) = 0.16888 0.14828
# Poissons Ratio (y) = 0.76856 0.63016
# Poissons Ratio (z) = 0.12783 0.11937
#
# Static dielectric constant tensor:
#      x y z
#    x 1.662070 0.000000 0.000000 
#    y 0.000000 1.663640 0.000000 
#    z 0.000000 0.000000 1.707480 
# 
# From -- ./inp_files/39113.got.cif
#   From: 2010.05.17/outbox.cif.g08.bks.cpg/sg68_20_cif.got.tgz:39113.got - 2010.06.03 18:57:09.
