data_PCOD9505364
_publ_section_title
;
Structure prediction by ZEFSAII (Michael W. Deem and Ramdas Pophale) SiO2 
 PCOD9505364
Probable space group: C C C A
;
_chemical_formula_sum "Si O2"
_cell_formula_units_Z 48
_cell_length_a 28.025190
_cell_length_b 5.289366
_cell_length_c 15.256919
_cell_angle_alpha 90.000000
_cell_angle_beta 90.000000
_cell_angle_gamma 90.000000
_cell_volume 2261.616820
_symmetry_space_group_name_H-M "C C C A"
_symmetry_group_IT_number 68
_space_group.IT_coordinate_system_code '2'
_symmetry_cell_setting 'orthorhombic'
loop_
_space_group_symop_operation_xyz
x,y,z
-x,1/2-y,z
x,1/2-y,1/2-z
-x,y,1/2-z
-x,-y,-z
x,1/2+y,-z
-x,1/2+y,1/2+z
x,-y,1/2+z
1/2+x,1/2+y,z
1/2-x,-y,z
1/2+x,-y,1/2-z
1/2-x,1/2+y,1/2-z
1/2-x,1/2-y,-z
1/2+x,y,-z
1/2-x,y,1/2+z
1/2+x,1/2-y,1/2+z
loop_
_atom_site_type_symbol
_atom_site_label
_atom_site_fract_x
_atom_site_fract_y
_atom_site_fract_z
Si Si1 0.478861 0.994700 0.900140
Si Si2 0.223358 0.254509 0.645108
Si Si3 0.868703 0.564640 0.445122
O O1 0.500000 0.750000 0.855040
O O2 0.422631 0.949262 0.909644
O O3 0.500000 0.250000 0.860233
O O4 0.500000 0.000000 0.000000
O O5 0.228305 0.250000 0.750000
O O6 0.250000 0.500000 0.608273
O O7 0.168693 0.318864 0.623287
O O8 0.250000 0.000000 0.612669
O O9 0.862067 0.274485 0.477441
#
# Coordination Sequence:
#
# PCOD9505364 Si02
#       3
#    16  16  16
#     4  10  16  30  48  77 115 144 166 212 272 336
#     4  10  23  42  57  75 112 156 187 227 290 344
#     4  12  21  32  58  89 109 141 191 236 274 329
#
# _framework density 21.223755000000001
#
# number of rings (size 3 to 8) (size 9 to 14) (size 15 to 20)
#    0.000    1.333    6.667    2.000    0.000    4.000 
#    0.000    0.000    0.000    1.000    0.000    4.667 
#    0.000    0.000    0.000    0.000    0.000    0.000 
#
# Total GULP energy -133622.283056 kJ/mol
# GULP energy per Si atom -5567.595127 kJ/mol
# Density = 2.117545 g / cm^3
# Si number density = 21.223755 Si / 1000 Ang^3
#
#
#
# Elastic Constant Matrix: (Units=GPa)
#
#
# Indices 1 2 3 4 5 6 
#
# 1 154.0148 63.7957 11.6299 0.0000 0.0000 0.0000
# 2 63.7957 213.0315 19.6229 0.0000 0.0000 0.0000
# 3 11.6299 19.6229 30.4247 0.0000 0.0000 0.0000
# 4 0.0000 0.0000 0.0000 -3.4440 0.0000 0.0000
# 5 0.0000 0.0000 0.0000 0.0000 4.2879 0.0000
# 6 0.0000 0.0000 0.0000 0.0000 0.0000 41.1193
#
#
#
# Elastic Compliance Matrix: (Units=1/GPa)
#
#
# Indices 1 2 3 4 5 6 
#
# 1 0.007476 -0.002100 -0.001503 0.000000 0.000000 0.000000
# 2 -0.002100 0.005581 -0.002796 0.000000 0.000000 0.000000
# 3 -0.001503 -0.002796 0.035246 0.000000 0.000000 0.000000
# 4 0.000000 0.000000 0.000000 -0.290363 0.000000 0.000000
# 5 0.000000 0.000000 0.000000 0.000000 0.233213 0.000000
# 6 0.000000 0.000000 0.000000 0.000000 0.000000 0.024319
#
#
# Mechanical properties :
#
#
# Convention : Reuss Voigt Hill
#
# Bulk Modulus (GPa) = 28.16643 65.28534 46.72589
# Shear Modulus (GPa) = 124.66265 28.55416 76.60841
#
# Velocity S-wave (km/s) = 7.67234 3.67193 6.01448
# Velocity P-wave (km/s) = 9.58052 6.98604 8.38425
#
# Compressibility (1/GPa) = 0.03550325
#
# Stress axis : x y z
#
# Youngs Moduli (GPa) = 133.75343 179.18717 28.37179
#
# Poissons Ratio (x) = 0.37638 0.04265
# Poissons Ratio (y) = 0.28095 0.07934
# Poissons Ratio (z) = 0.20105 0.50110
#
# Static dielectric constant tensor:
#      x y z
#    x 1.730450 0.000000 0.000000 
#    y 0.000000 1.772600 0.000000 
#    z 0.000000 0.000000 2.268980 
# 
# From -- ./inp_files/18143.got.cif
#   From: 2010.05.17/outbox.cif.g08.bks.cpg/sg68_10_cif.got.tgz:18143.got - 2010.06.03 18:57:09.
