data_PCOD9505064
_publ_section_title
;
Structure prediction by ZEFSAII (Michael W. Deem and Ramdas Pophale) SiO2 
 PCOD9505064
Probable space group: C M M A
;
_chemical_formula_sum "Si O2"
_cell_formula_units_Z 52
_cell_length_a 17.660289
_cell_length_b 27.769126
_cell_length_c 5.443429
_cell_angle_alpha 90.000000
_cell_angle_beta 90.000000
_cell_angle_gamma 90.000000
_cell_volume 2669.516319
_symmetry_space_group_name_H-M "C M M A"
_symmetry_group_IT_number 67
_symmetry_cell_setting 'orthorhombic'
loop_
_space_group_symop_operation_xyz
x,y,z
-x,1/2-y,z
x,-y,-z
-x,1/2+y,-z
-x,-y,-z
x,1/2+y,-z
-x,y,z
x,1/2-y,z
1/2+x,1/2+y,z
1/2-x,-y,z
1/2+x,1/2-y,-z
1/2-x,y,-z
1/2-x,1/2-y,-z
1/2+x,y,-z
1/2-x,1/2+y,z
1/2+x,-y,z
loop_
_atom_site_type_symbol
_atom_site_label
_atom_site_fract_x
_atom_site_fract_y
_atom_site_fract_z
Si Si1 0.250000 0.000000 0.500000
Si Si2 0.410458 0.349110 0.971197
Si Si3 0.833563 0.551472 0.891003
Si Si4 0.838232 0.192306 0.527625
O O1 0.190625 0.962725 0.619114
O O2 0.500000 0.342041 0.989255
O O3 0.372148 0.330376 0.223116
O O4 0.389032 0.405143 0.936221
O O5 0.379450 0.323537 0.724029
O O6 0.858686 0.500000 0.000000
O O7 0.750000 0.562970 0.000000
O O8 0.843097 0.250000 0.550822
O O9 0.750000 0.178566 0.500000
#
# Coordination Sequence:
#
# PCOD9505064 Si02
#       4
#     4  16  16  16
#     4   8  18  36  62  90 118 168 224 268 302 360
#     4  12  26  41  65 101 136 170 206 265 337 385
#     4   9  20  37  62  92 123 170 219 262 309 376
#     4  11  25  46  70  94 124 171 226 269 312 381
#
# _framework density 19.479184
#
# number of rings (size 3 to 8) (size 9 to 14) (size 15 to 20)
#    0.000    1.846    0.000    4.615   10.769    6.769 
#    0.000    0.769    0.000    0.000    0.000    0.000 
#    0.000    0.000    0.000    0.000    0.000    0.000 
#
# Total GULP energy -144928.588597 kJ/mol
# GULP energy per Si atom -5574.176484 kJ/mol
# Density = 1.943485 g / cm^3
# Si number density = 19.479184 Si / 1000 Ang^3
#
#
#
# Elastic Constant Matrix: (Units=GPa)
#
#
# Indices 1 2 3 4 5 6 
#
# 1 158.0944 70.5567 89.6343 0.0000 0.0000 0.0000
# 2 70.5567 91.5228 64.3501 0.0000 0.0000 0.0000
# 3 89.6343 64.3501 158.9598 0.0000 0.0000 0.0000
# 4 0.0000 0.0000 0.0000 86.8442 0.0000 0.0000
# 5 0.0000 0.0000 0.0000 0.0000 31.7350 0.0000
# 6 0.0000 0.0000 0.0000 0.0000 0.0000 -78.1956
#
#
#
# Elastic Compliance Matrix: (Units=1/GPa)
#
#
# Indices 1 2 3 4 5 6 
#
# 1 0.011159 -0.005841 -0.003928 0.000000 0.000000 0.000000
# 2 -0.005841 0.018331 -0.004127 0.000000 0.000000 0.000000
# 3 -0.003928 -0.004127 0.010176 0.000000 0.000000 0.000000
# 4 0.000000 0.000000 0.000000 0.011515 0.000000 0.000000
# 5 0.000000 0.000000 0.000000 0.000000 0.031511 0.000000
# 6 0.000000 0.000000 0.000000 0.000000 0.000000 -0.012788
#
#
# Mechanical properties :
#
#
# Convention : Reuss Voigt Hill
#
# Bulk Modulus (GPa) = 84.21346 95.29548 89.75447
# Shear Modulus (GPa) = 49.18633 20.34578 34.76606
#
# Velocity S-wave (km/s) = 5.03046 3.23536 4.22925
# Velocity P-wave (km/s) = 8.77879 7.93629 8.36815
#
# Compressibility (1/GPa) = 0.01187459
#
# Stress axis : x y z
#
# Youngs Moduli (GPa) = 89.61257 54.55221 98.26624
#
# Poissons Ratio (x) = 0.31865 0.38597
# Poissons Ratio (y) = 0.52344 0.40555
# Poissons Ratio (z) = 0.35198 0.22514
#
# Static dielectric constant tensor:
#      x y z
#    x 1.642330 0.000000 0.000000 
#    y 0.000000 1.666890 0.000000 
#    z 0.000000 0.000000 1.744090 
# 
# From -- ./inp_files/1966.got.cif
#   From: 2010.05.17/outbox.cif.g08.bks.cpg/sg67_1_cif.got.tgz:1966.got - 2010.06.03 18:28:57.
