data_PCOD9505129
_publ_section_title
;
Structure prediction by ZEFSAII (Michael W. Deem and Ramdas Pophale) SiO2 
 PCOD9505129
Probable space group: C M M A
;
_chemical_formula_sum "Si O2"
_cell_formula_units_Z 128
_cell_length_a 19.604503
_cell_length_b 14.617521
_cell_length_c 21.411688
_cell_angle_alpha 90.000000
_cell_angle_beta 90.000000
_cell_angle_gamma 90.000000
_cell_volume 6135.931035
_symmetry_space_group_name_H-M "C M M A"
_symmetry_group_IT_number 67
_symmetry_cell_setting 'orthorhombic'
loop_
_space_group_symop_operation_xyz
x,y,z
-x,1/2-y,z
x,-y,-z
-x,1/2+y,-z
-x,-y,-z
x,1/2+y,-z
-x,y,z
x,1/2-y,z
1/2+x,1/2+y,z
1/2-x,-y,z
1/2+x,1/2-y,-z
1/2-x,y,-z
1/2-x,1/2-y,-z
1/2+x,y,-z
1/2-x,1/2+y,z
1/2+x,-y,z
loop_
_atom_site_type_symbol
_atom_site_label
_atom_site_fract_x
_atom_site_fract_y
_atom_site_fract_z
Si Si1 0.179888 0.361897 0.326913
Si Si2 0.079271 0.898592 0.920657
Si Si3 0.922842 0.645016 0.189181
Si Si4 0.077791 0.138250 0.578106
Si Si5 0.420488 0.115174 0.053772
Si Si6 0.322272 0.861651 0.469526
Si Si7 0.921463 0.860261 0.781936
Si Si8 0.833984 0.638119 0.301542
O O1 0.178219 0.250000 0.327698
O O2 0.168637 0.392366 0.398294
O O3 0.124650 0.391723 0.275811
O O4 0.255839 0.390364 0.307164
O O5 0.107131 0.883240 0.851314
O O6 0.000000 0.867594 0.916819
O O7 0.079234 0.006235 0.935241
O O8 0.109087 0.859523 0.985882
O O9 0.931440 0.750000 0.208736
O O10 0.892351 0.648218 0.119612
O O11 0.872522 0.603700 0.239802
O O12 0.000000 0.604688 0.187276
O O13 0.076260 0.250000 0.578336
O O14 0.117190 0.110358 0.515546
O O15 0.122210 0.111336 0.638076
O O16 0.000000 0.106073 0.581502
O O17 0.500000 0.144354 0.051999
O O18 0.321225 0.750000 0.468335
O O19 0.250000 0.889296 0.500000
O O20 0.923311 0.750000 0.779355
O O21 0.000000 0.892976 0.777166
O O22 0.831902 0.750000 0.300921
#
# Coordination Sequence:
#
# PCOD9505129 Si02
#       8
#    16  16  16  16  16  16  16  16
#     4   9  16  25  38  53  76 112 146 173 207 256
#     4   8  14  26  43  61  83 110 141 176 212 256
#     4   9  16  24  37  61  89 110 133 171 212 248
#     4   9  15  21  32  51  74 104 141 177 211 246
#     4   8  14  25  42  63  84 110 141 171 211 257
#     4   9  14  22  34  49  72 106 145 175 202 248
#     4   9  17  27  40  61  85 108 139 182 225 255
#     4   9  15  24  36  51  77 112 141 164 201 255
#
# _framework density 20.860728999999999
#
# number of rings (size 3 to 8) (size 9 to 14) (size 15 to 20)
#    0.000    3.250    1.250    1.125    0.000    2.500 
#    0.000    5.000    0.000    1.500    0.000    5.250 
#    0.000    1.000    0.750    7.500    0.250    7.750 
#
# Total GULP energy -356639.074115 kJ/mol
# GULP energy per Si atom -5572.485533 kJ/mol
# Density = 2.081325 g / cm^3
# Si number density = 20.860729 Si / 1000 Ang^3
#
#
#
# Elastic Constant Matrix: (Units=GPa)
#
#
# Indices 1 2 3 4 5 6 
#
# 1 106.3851 4.4761 96.4916 0.0000 0.0000 0.0000
# 2 4.4761 57.0951 7.3561 0.0000 0.0000 0.0000
# 3 96.4916 7.3561 244.5744 0.0000 0.0000 0.0000
# 4 0.0000 0.0000 0.0000 33.3086 0.0000 0.0000
# 5 0.0000 0.0000 0.0000 0.0000 -50.2825 0.0000
# 6 0.0000 0.0000 0.0000 0.0000 0.0000 -5.6874
#
#
#
# Elastic Compliance Matrix: (Units=1/GPa)
#
#
# Indices 1 2 3 4 5 6 
#
# 1 0.014647 -0.000405 -0.005767 0.000000 0.000000 0.000000
# 2 -0.000405 0.017594 -0.000369 0.000000 0.000000 0.000000
# 3 -0.005767 -0.000369 0.006375 0.000000 0.000000 0.000000
# 4 0.000000 0.000000 0.000000 0.030022 0.000000 0.000000
# 5 0.000000 0.000000 0.000000 0.000000 -0.019888 0.000000
# 6 0.000000 0.000000 0.000000 0.000000 0.000000 -0.175827
#
#
# Mechanical properties :
#
#
# Convention : Reuss Voigt Hill
#
# Bulk Modulus (GPa) = 39.16380 69.41135 54.28757
# Shear Modulus (GPa) = -47.40123 15.44979 -15.97572
#
# Velocity S-wave (km/s) = -4.77201 2.72438 -2.77036
# Velocity P-wave (km/s) = 3.39824 6.57588 3.98084
#
# Compressibility (1/GPa) = 0.02553378
#
# Stress axis : x y z
#
# Youngs Moduli (GPa) = 68.27282 56.83754 156.86522
#
# Poissons Ratio (x) = 0.02304 0.90457
# Poissons Ratio (y) = 0.02767 0.05792
# Poissons Ratio (z) = 0.39370 0.02099
#
# Static dielectric constant tensor:
#      x y z
#    x 1.712750 0.000000 0.000000 
#    y 0.000000 1.799120 0.000000 
#    z 0.000000 0.000000 1.770700 
# 
# From -- ./inp_files/39120.got.cif
#   From: 2010.05.17/outbox.cif.g08.bks.cpg/sg67_20_cif.got.tgz:39120.got - 2010.06.03 18:28:57.
