data_PCOD9505649
_publ_section_title
;
Structure prediction by ZEFSAII (Michael W. Deem and Ramdas Pophale) SiO2 
 PCOD9505649
Probable space group: C C C A
;
_chemical_formula_sum "Si O2"
_cell_formula_units_Z 72
_cell_length_a 17.606129
_cell_length_b 13.528873
_cell_length_c 15.740257
_cell_angle_alpha 90.000000
_cell_angle_beta 90.000000
_cell_angle_gamma 90.000000
_cell_volume 3749.188866
_symmetry_space_group_name_H-M "C C C A"
_symmetry_group_IT_number 68
_space_group.IT_coordinate_system_code '2'
_symmetry_cell_setting 'orthorhombic'
loop_
_space_group_symop_operation_xyz
x,y,z
-x,1/2-y,z
x,1/2-y,1/2-z
-x,y,1/2-z
-x,-y,-z
x,1/2+y,-z
-x,1/2+y,1/2+z
x,-y,1/2+z
1/2+x,1/2+y,z
1/2-x,-y,z
1/2+x,-y,1/2-z
1/2-x,1/2+y,1/2-z
1/2-x,1/2-y,-z
1/2+x,y,-z
1/2-x,y,1/2+z
1/2+x,1/2-y,1/2+z
loop_
_atom_site_type_symbol
_atom_site_label
_atom_site_fract_x
_atom_site_fract_y
_atom_site_fract_z
Si Si1 0.740961 0.269968 0.658045
Si Si2 0.636727 0.117430 0.101960
Si Si3 0.330902 0.945760 0.073953
Si Si4 0.000000 0.750000 0.372102
Si Si5 0.613827 0.406598 0.204898
O O1 0.703780 0.250000 0.750000
O O2 0.783473 0.176662 0.615311
O O3 0.685881 0.331706 0.597448
O O4 0.811167 0.341787 0.684110
O O5 0.568257 0.193432 0.081306
O O6 0.617698 0.072528 0.194638
O O7 0.641597 0.045508 0.022437
O O8 0.250000 0.000000 0.078714
O O9 0.382990 0.998621 0.144206
O O10 0.045911 0.666285 0.320416
#
# Coordination Sequence:
#
# PCOD9505649 Si02
#       5
#    16  16  16   8  16
#     4   8  16  31  50  71 100 133 161 194 246 303
#     4  10  18  31  53  72  95 132 164 201 247 294
#     4  10  20  31  47  77 105 124 160 206 249 297
#     4  10  19  36  54  68  91 128 175 208 242 298
#     4   9  18  32  50  73  97 128 167 207 242 287
#
# _framework density 19.204153999999999
#
# number of rings (size 3 to 8) (size 9 to 14) (size 15 to 20)
#    0.000    2.667    0.000    4.000    0.000    5.333 
#    0.000    0.000    0.000    0.000    0.000    1.556 
#    0.000    0.000    0.000    0.000    0.000    0.000 
#
# Total GULP energy -200456.804145 kJ/mol
# GULP energy per Si atom -5568.244560 kJ/mol
# Density = 1.916044 g / cm^3
# Si number density = 19.204154 Si / 1000 Ang^3
#
#
#
# Elastic Constant Matrix: (Units=GPa)
#
#
# Indices 1 2 3 4 5 6 
#
# 1 46.0797 17.0632 23.2018 0.0000 0.0000 0.0000
# 2 17.0632 48.4378 44.9803 0.0000 0.0000 0.0000
# 3 23.2018 44.9803 108.0829 0.0000 0.0000 0.0000
# 4 0.0000 0.0000 0.0000 29.2828 0.0000 0.0000
# 5 0.0000 0.0000 0.0000 0.0000 16.0335 0.0000
# 6 0.0000 0.0000 0.0000 0.0000 0.0000 2.9117
#
#
#
# Elastic Compliance Matrix: (Units=1/GPa)
#
#
# Indices 1 2 3 4 5 6 
#
# 1 0.025476 -0.006350 -0.002826 0.000000 0.000000 0.000000
# 2 -0.006350 0.035232 -0.013299 0.000000 0.000000 0.000000
# 3 -0.002826 -0.013299 0.015393 0.000000 0.000000 0.000000
# 4 0.000000 0.000000 0.000000 0.034150 0.000000 0.000000
# 5 0.000000 0.000000 0.000000 0.000000 0.062369 0.000000
# 6 0.000000 0.000000 0.000000 0.000000 0.000000 0.343447
#
#
# Mechanical properties :
#
#
# Convention : Reuss Voigt Hill
#
# Bulk Modulus (GPa) = 32.10206 41.45456 36.77831
# Shear Modulus (GPa) = 8.75042 17.46926 13.10984
#
# Velocity S-wave (km/s) = 2.13692 3.01933 2.61560
# Velocity P-wave (km/s) = 4.77923 5.81277 5.32115
#
# Compressibility (1/GPa) = 0.03115065
#
# Stress axis : x y z
#
# Youngs Moduli (GPa) = 39.25269 28.38353 64.96259
#
# Poissons Ratio (x) = 0.18023 0.18360
# Poissons Ratio (y) = 0.24925 0.86394
# Poissons Ratio (z) = 0.11094 0.37747
#
# Static dielectric constant tensor:
#      x y z
#    x 1.679710 0.000000 0.000000 
#    y 0.000000 1.717500 0.000000 
#    z 0.000000 0.000000 1.706170 
# 
# From -- ./inp_files/22039.got.cif
#   From: 2010.05.17/outbox.cif.g08.bks.cpg/sg68_12_cif.got.tgz:22039.got - 2010.06.03 18:57:09.
