data_PCOD9505772
_publ_section_title
;
Structure prediction by ZEFSAII (Michael W. Deem and Ramdas Pophale) SiO2 
 PCOD9505772
Probable space group: C C C A
;
_chemical_formula_sum "Si O2"
_cell_formula_units_Z 56
_cell_length_a 9.916143
_cell_length_b 15.916755
_cell_length_c 17.163460
_cell_angle_alpha 90.000000
_cell_angle_beta 90.000000
_cell_angle_gamma 90.000000
_cell_volume 2708.957270
_symmetry_space_group_name_H-M "C C C A"
_symmetry_group_IT_number 68
_space_group.IT_coordinate_system_code '2'
_symmetry_cell_setting 'orthorhombic'
loop_
_space_group_symop_operation_xyz
x,y,z
-x,1/2-y,z
x,1/2-y,1/2-z
-x,y,1/2-z
-x,-y,-z
x,1/2+y,-z
-x,1/2+y,1/2+z
x,-y,1/2+z
1/2+x,1/2+y,z
1/2-x,-y,z
1/2+x,-y,1/2-z
1/2-x,1/2+y,1/2-z
1/2-x,1/2-y,-z
1/2+x,y,-z
1/2-x,y,1/2+z
1/2+x,1/2-y,1/2+z
loop_
_atom_site_type_symbol
_atom_site_label
_atom_site_fract_x
_atom_site_fract_y
_atom_site_fract_z
Si Si1 0.750000 0.000000 0.184108
Si Si2 0.979047 0.494833 0.591662
Si Si3 0.866385 0.362137 0.201764
Si Si4 0.412641 0.675359 0.831021
O O1 0.623446 0.017165 0.131076
O O2 0.787458 0.076629 0.239335
O O3 0.915429 0.578635 0.630229
O O4 0.904546 0.410423 0.619962
O O5 0.000000 0.500000 0.500000
O O6 0.745424 0.299305 0.178316
O O7 0.000000 0.336127 0.250000
O O8 0.500000 0.750000 0.869355
O O9 0.500000 0.660560 0.750000
#
# Coordination Sequence:
#
# PCOD9505772 Si02
#       4
#     8  16  16  16
#     4  10  18  34  62  90 118 156 230 254 308 366
#     4  11  22  35  63  95 124 164 216 270 319 371
#     4  10  19  38  63  89 123 163 222 267 299 380
#     4  11  21  39  64  93 126 168 214 259 325 392
#
# _framework density 20.672162
#
# number of rings (size 3 to 8) (size 9 to 14) (size 15 to 20)
#    0.000    1.429    5.714    0.857    4.000    0.000 
#    0.000    4.286    0.000    0.000    0.000    0.000 
#    0.000    0.000    0.000    0.000    0.000    0.000 
#
# Total GULP energy -156119.585608 kJ/mol
# GULP energy per Si atom -5575.699486 kJ/mol
# Density = 2.062511 g / cm^3
# Si number density = 20.672162 Si / 1000 Ang^3
#
#
#
# Elastic Constant Matrix: (Units=GPa)
#
#
# Indices 1 2 3 4 5 6 
#
# 1 182.2849 24.3958 26.9396 0.0000 0.0000 0.0000
# 2 24.3958 72.2965 23.0714 0.0000 0.0000 0.0000
# 3 26.9396 23.0714 130.1858 0.0000 0.0000 0.0000
# 4 0.0000 0.0000 0.0000 20.1645 0.0000 0.0000
# 5 0.0000 0.0000 0.0000 0.0000 11.8815 0.0000
# 6 0.0000 0.0000 0.0000 0.0000 0.0000 30.2994
#
#
#
# Elastic Compliance Matrix: (Units=1/GPa)
#
#
# Indices 1 2 3 4 5 6 
#
# 1 0.005846 -0.001682 -0.000912 0.000000 0.000000 0.000000
# 2 -0.001682 0.015145 -0.002336 0.000000 0.000000 0.000000
# 3 -0.000912 -0.002336 0.008284 0.000000 0.000000 0.000000
# 4 0.000000 0.000000 0.000000 0.049592 0.000000 0.000000
# 5 0.000000 0.000000 0.000000 0.000000 0.084164 0.000000
# 6 0.000000 0.000000 0.000000 0.000000 0.000000 0.033004
#
#
# Mechanical properties :
#
#
# Convention : Reuss Voigt Hill
#
# Bulk Modulus (GPa) = 51.50397 59.28677 55.39537
# Shear Modulus (GPa) = 23.54435 33.15979 28.35207
#
# Velocity S-wave (km/s) = 3.37848 4.00944 3.70741
# Velocity P-wave (km/s) = 6.33937 7.08350 6.72174
#
# Compressibility (1/GPa) = 0.01941598
#
# Stress axis : x y z
#
# Youngs Moduli (GPa) = 171.06559 66.02905 120.71528
#
# Poissons Ratio (x) = 0.11104 0.11005
# Poissons Ratio (y) = 0.28767 0.28199
# Poissons Ratio (z) = 0.15595 0.15424
#
# Static dielectric constant tensor:
#      x y z
#    x 1.825090 0.000000 0.000000 
#    y 0.000000 1.789050 0.000000 
#    z 0.000000 0.000000 1.724020 
# 
# From -- ./inp_files/27665.got.cif
#   From: 2010.05.17/outbox.cif.g08.bks.cpg/sg68_14_cif.got.tgz:27665.got - 2010.06.03 18:57:09.
