data_PCOD9505614
_publ_section_title
;
Structure prediction by ZEFSAII (Michael W. Deem and Ramdas Pophale) SiO2 
 PCOD9505614
Probable space group: C C C A
;
_chemical_formula_sum "Si O2"
_cell_formula_units_Z 68
_cell_length_a 24.162382
_cell_length_b 5.147686
_cell_length_c 28.117170
_cell_angle_alpha 90.000000
_cell_angle_beta 90.000000
_cell_angle_gamma 90.000000
_cell_volume 3497.223602
_symmetry_space_group_name_H-M "C C C A"
_symmetry_group_IT_number 68
_space_group.IT_coordinate_system_code '2'
_symmetry_cell_setting 'orthorhombic'
loop_
_space_group_symop_operation_xyz
x,y,z
-x,1/2-y,z
x,1/2-y,1/2-z
-x,y,1/2-z
-x,-y,-z
x,1/2+y,-z
-x,1/2+y,1/2+z
x,-y,1/2+z
1/2+x,1/2+y,z
1/2-x,-y,z
1/2+x,-y,1/2-z
1/2-x,1/2+y,1/2-z
1/2-x,1/2-y,-z
1/2+x,y,-z
1/2-x,y,1/2+z
1/2+x,1/2-y,1/2+z
loop_
_atom_site_type_symbol
_atom_site_label
_atom_site_fract_x
_atom_site_fract_y
_atom_site_fract_z
Si Si1 0.250000 0.000000 0.828529
Si Si2 0.182231 0.750000 0.750000
Si Si3 0.095787 0.465911 0.312359
Si Si4 0.633601 0.947847 0.630636
Si Si5 0.815062 0.024859 0.031908
Si Si6 0.500000 0.750000 0.250000
O O1 0.221906 0.796709 0.793786
O O2 0.302255 0.888788 0.855924
O O3 0.140900 0.971312 0.730629
O O4 0.099123 0.712208 0.346806
O O5 0.038745 0.419218 0.284762
O O6 0.112478 0.210508 0.343502
O O7 0.640880 0.983445 0.574213
O O8 0.750000 0.000000 0.047531
O O9 0.822030 0.306292 0.008399
#
# Coordination Sequence:
#
# PCOD9505614 Si02
#       6
#     8   8  16  16  16   4
#     4  10  18  30  50  74 120 146 186 228 272 344
#     4   9  18  31  46  76 102 155 178 225 276 342
#     4  10  23  36  59  78 116 144 207 234 306 339
#     4  11  21  36  54  89 109 158 188 241 280 372
#     4  10  20  35  55  82 120 158 191 233 290 353
#     4  10  24  46  60  90 116 162 192 284 292 356
#
# _framework density 19.443995000000001
#
# number of rings (size 3 to 8) (size 9 to 14) (size 15 to 20)
#    0.000    1.882    1.176    2.824    0.000   12.235 
#    0.000    0.000    0.000    0.000    0.000   16.471 
#    0.000    0.000    0.000    0.000    0.000    0.000 
#
# Total GULP energy -189546.083253 kJ/mol
# GULP energy per Si atom -5574.884802 kJ/mol
# Density = 1.939974 g / cm^3
# Si number density = 19.443995 Si / 1000 Ang^3
#
#
#
# Elastic Constant Matrix: (Units=GPa)
#
#
# Indices 1 2 3 4 5 6 
#
# 1 85.7118 21.4517 31.2308 0.0000 0.0000 0.0000
# 2 21.4517 97.4433 21.2612 0.0000 0.0000 0.0000
# 3 31.2308 21.2612 85.1937 0.0000 0.0000 0.0000
# 4 0.0000 0.0000 0.0000 16.3440 0.0000 0.0000
# 5 0.0000 0.0000 0.0000 0.0000 24.9528 0.0000
# 6 0.0000 0.0000 0.0000 0.0000 0.0000 11.1583
#
#
#
# Elastic Compliance Matrix: (Units=1/GPa)
#
#
# Indices 1 2 3 4 5 6 
#
# 1 0.013843 -0.002052 -0.004563 0.000000 0.000000 0.000000
# 2 -0.002052 0.011158 -0.002032 0.000000 0.000000 0.000000
# 3 -0.004563 -0.002032 0.013918 0.000000 0.000000 0.000000
# 4 0.000000 0.000000 0.000000 0.061185 0.000000 0.000000
# 5 0.000000 0.000000 0.000000 0.000000 0.040076 0.000000
# 6 0.000000 0.000000 0.000000 0.000000 0.000000 0.089619
#
#
# Mechanical properties :
#
#
# Convention : Reuss Voigt Hill
#
# Bulk Modulus (GPa) = 46.24356 46.24848 46.24602
# Shear Modulus (GPa) = 19.66184 23.45135 21.55660
#
# Velocity S-wave (km/s) = 3.18339 3.47666 3.33325
# Velocity P-wave (km/s) = 6.11118 6.32086 6.21691
#
# Compressibility (1/GPa) = 0.02162463
#
# Stress axis : x y z
#
# Youngs Moduli (GPa) = 72.23851 89.62553 71.85095
#
# Poissons Ratio (x) = 0.18391 0.32782
# Poissons Ratio (y) = 0.14823 0.14602
# Poissons Ratio (z) = 0.32959 0.18214
#
# Static dielectric constant tensor:
#      x y z
#    x 1.514710 0.000000 0.000000 
#    y 0.000000 1.701600 0.000000 
#    z 0.000000 0.000000 1.708520 
# 
# From -- ./inp_files/51633.got.cif
#   From: 2010.05.17/outbox.cif.g08.bks.cpg/sg68_26_cif.got.tgz:51633.got - 2010.06.03 18:57:09.
