data_PCOD9505493
_publ_section_title
;
Structure prediction by ZEFSAII (Michael W. Deem and Ramdas Pophale) SiO2 
 PCOD9505493
Probable space group: C C C A
;
_chemical_formula_sum "Si O2"
_cell_formula_units_Z 88
_cell_length_a 23.567841
_cell_length_b 13.852909
_cell_length_c 13.749358
_cell_angle_alpha 90.000000
_cell_angle_beta 90.000000
_cell_angle_gamma 90.000000
_cell_volume 4488.933802
_symmetry_space_group_name_H-M "C C C A"
_symmetry_group_IT_number 68
_space_group.IT_coordinate_system_code '2'
_symmetry_cell_setting 'orthorhombic'
loop_
_space_group_symop_operation_xyz
x,y,z
-x,1/2-y,z
x,1/2-y,1/2-z
-x,y,1/2-z
-x,-y,-z
x,1/2+y,-z
-x,1/2+y,1/2+z
x,-y,1/2+z
1/2+x,1/2+y,z
1/2-x,-y,z
1/2+x,-y,1/2-z
1/2-x,1/2+y,1/2-z
1/2-x,1/2-y,-z
1/2+x,y,-z
1/2-x,y,1/2+z
1/2+x,1/2-y,1/2+z
loop_
_atom_site_type_symbol
_atom_site_label
_atom_site_fract_x
_atom_site_fract_y
_atom_site_fract_z
Si Si1 0.814591 0.967194 0.627155
Si Si2 0.488883 0.636776 0.051703
Si Si3 0.634460 0.660903 0.526844
Si Si4 0.108435 0.384650 0.510545
Si Si5 0.877370 0.007299 0.819694
Si Si6 0.000000 0.518363 0.750000
O O1 0.854779 0.046892 0.577390
O O2 0.750000 0.000000 0.623693
O O3 0.824939 0.872885 0.560841
O O4 0.837651 0.964382 0.736213
O O5 0.500000 0.750000 0.070732
O O6 0.488819 0.583070 0.154403
O O7 0.428651 0.624220 0.001341
O O8 0.540220 0.606460 0.980350
O O9 0.628418 0.775676 0.530086
O O10 0.647695 0.601543 0.625175
O O11 0.117140 0.423366 0.400784
O O12 0.939926 0.032186 0.775889
#
# Coordination Sequence:
#
# PCOD9505493 Si02
#       6
#    16  16  16  16  16   8
#     4  11  24  41  60  85 120 158 204 245 289 351
#     4   9  17  32  58  90 121 148 187 241 291 354
#     4  10  21  40  61  88 123 155 194 244 297 353
#     4   9  22  39  61  90 119 155 195 243 299 351
#     4  10  22  35  60  88 118 158 199 242 293 353
#     4  10  17  30  56  87 118 154 188 238 295 343
#
# _framework density 19.603764999999999
#
# number of rings (size 3 to 8) (size 9 to 14) (size 15 to 20)
#    0.000    2.182    1.818    0.273    2.545    7.273 
#    0.000    1.818    0.000    0.000    0.000    0.000 
#    0.000    0.000    0.000    0.000    0.000    0.000 
#
# Total GULP energy -245534.883147 kJ/mol
# GULP energy per Si atom -5580.338253 kJ/mol
# Density = 1.955915 g / cm^3
# Si number density = 19.603765 Si / 1000 Ang^3
#
#
#
# Elastic Constant Matrix: (Units=GPa)
#
#
# Indices 1 2 3 4 5 6 
#
# 1 59.5460 -10.1836 4.5238 0.0000 0.0000 0.0000
# 2 -10.1836 60.6709 -2.4079 0.0000 0.0000 0.0000
# 3 4.5238 -2.4079 59.2602 0.0000 0.0000 0.0000
# 4 0.0000 0.0000 0.0000 6.1739 0.0000 0.0000
# 5 0.0000 0.0000 0.0000 0.0000 12.6279 0.0000
# 6 0.0000 0.0000 0.0000 0.0000 0.0000 13.4489
#
#
#
# Elastic Compliance Matrix: (Units=1/GPa)
#
#
# Indices 1 2 3 4 5 6 
#
# 1 0.017376 0.002869 -0.001210 0.000000 0.000000 0.000000
# 2 0.002869 0.016983 0.000471 0.000000 0.000000 0.000000
# 3 -0.001210 0.000471 0.016986 0.000000 0.000000 0.000000
# 4 0.000000 0.000000 0.000000 0.161971 0.000000 0.000000
# 5 0.000000 0.000000 0.000000 0.000000 0.079190 0.000000
# 6 0.000000 0.000000 0.000000 0.000000 0.000000 0.074356
#
#
# Mechanical properties :
#
#
# Convention : Reuss Voigt Hill
#
# Bulk Modulus (GPa) = 17.98417 18.14910 18.06663
# Shear Modulus (GPa) = 13.11865 18.95313 16.03589
#
# Velocity S-wave (km/s) = 2.58968 3.11273 2.86317
# Velocity P-wave (km/s) = 4.25860 4.71135 4.49069
#
# Compressibility (1/GPa) = 0.05560445
#
# Stress axis : x y z
#
# Youngs Moduli (GPa) = 57.54981 58.88399 58.87117
#
# Poissons Ratio (x) = -0.16891 0.07123
# Poissons Ratio (y) = -0.16509 -0.02773
# Poissons Ratio (z) = 0.06963 -0.02774
#
# Static dielectric constant tensor:
#      x y z
#    x 1.708020 0.000000 0.000000 
#    y 0.000000 1.701830 0.000000 
#    z 0.000000 0.000000 1.704330 
# 
# From -- ./inp_files/13290.got.cif
#   From: 2010.05.17/outbox.cif.g08.bks.cpg/sg68_7_cif.got.tgz:13290.got - 2010.06.03 18:57:09.
