data_PCOD9505267
_publ_section_title
;
Structure prediction by ZEFSAII (Michael W. Deem and Ramdas Pophale) SiO2 
 PCOD9505267
Probable space group: C M M A
;
_chemical_formula_sum "Si O2"
_cell_formula_units_Z 56
_cell_length_a 30.000000
_cell_length_b 15.000000
_cell_length_c 12.000000
_cell_angle_alpha 90.000000
_cell_angle_beta 90.000000
_cell_angle_gamma 90.000000
_cell_volume 5400.000000
_symmetry_space_group_name_H-M "C M M A"
_symmetry_group_IT_number 67
_symmetry_cell_setting 'orthorhombic'
loop_
_space_group_symop_operation_xyz
x,y,z
-x,1/2-y,z
x,-y,-z
-x,1/2+y,-z
-x,-y,-z
x,1/2+y,-z
-x,y,z
x,1/2-y,z
1/2+x,1/2+y,z
1/2-x,-y,z
1/2+x,1/2-y,-z
1/2-x,y,-z
1/2-x,1/2-y,-z
1/2+x,y,-z
1/2-x,1/2+y,z
1/2+x,-y,z
loop_
_atom_site_type_symbol
_atom_site_label
_atom_site_fract_x
_atom_site_fract_y
_atom_site_fract_z
Si Si1 0.702074 0.355639 0.457394
Si Si2 0.635255 0.357491 0.646012
Si Si3 0.782775 0.428252 0.778307
Si Si4 0.050808 0.980608 0.631429
Si Si5 0.194886 0.647510 0.862682
Si Si6 0.365706 0.585402 0.936502
Si Si7 0.051756 0.148527 0.793120
O O1 0.701781 0.250000 0.478092
O O2 0.750000 0.388549 0.500000
O O3 0.661401 0.388854 0.534234
O O4 0.700134 0.370349 0.325281
O O5 0.627907 0.250000 0.642529
O O6 0.589196 0.410099 0.660260
O O7 0.667759 0.377304 0.750318
O O8 0.750000 0.500000 0.720755
O O9 0.744314 0.394175 0.863555
O O10 0.827168 0.446296 0.849787
O O11 0.000000 0.949375 0.655658
O O12 0.053412 0.000000 0.500000
O O13 0.057545 0.072211 0.700066
O O14 0.204939 0.750000 0.848581
O O15 0.163180 0.635548 0.969121
O O16 0.407151 0.634898 0.879049
O O17 0.385024 0.500000 0.000000
O O18 0.054973 0.250000 0.749173
O O19 0.000000 0.139038 0.836229
#
# Coordination Sequence:
#
# PCOD9505267 Si02
#       7
#    16  16  16  16  16  16  16
#     4  10  21  40  62  89 129 174 221 270 325 396
#     4  10  22  41  66  96 133 176 222 277 337 403
#     4  12  25  39  60  92 131 173 220 272 329 395
#     4  10  23  42  66  97 133 172 219 278 343 410
#     4  11  23  41  62  89 129 172 214 267 326 392
#     4  12  25  42  66  96 132 171 225 279 335 403
#     4  10  24  47  72 100 135 177 231 291 350 414
#
# _framework density 10.370369999999999
#
# number of rings (size 3 to 8) (size 9 to 14) (size 15 to 20)
#    0.000    1.286    2.857    2.143    2.000    4.286 
#    0.000    2.143    0.000    0.857    0.000    0.000 
#    0.000    0.571    0.000    0.000    0.000    0.000 
#
# Total GULP energy -312342.627448 kJ/mol
# GULP energy per Si atom -5577.546919 kJ/mol
# Density = 1.034677 g / cm^3
# Si number density = 10.370370 Si / 1000 Ang^3
#
#
#
# Elastic Constant Matrix: (Units=GPa)
#
#
# Indices 1 2 3 4 5 6 
#
# 1 134.0934 76.8360 39.7986 0.0000 0.0000 0.0000
# 2 76.8360 86.4619 34.6399 0.0000 0.0000 0.0000
# 3 39.7986 34.6399 83.3404 0.0000 0.0000 0.0000
# 4 0.0000 0.0000 0.0000 25.6255 0.0000 0.0000
# 5 0.0000 0.0000 0.0000 0.0000 33.2049 0.0000
# 6 0.0000 0.0000 0.0000 0.0000 0.0000 26.0236
#
#
#
# Elastic Compliance Matrix: (Units=1/GPa)
#
#
# Indices 1 2 3 4 5 6 
#
# 1 0.015470 -0.012943 -0.002008 0.000000 0.000000 0.000000
# 2 -0.012943 0.024706 -0.004088 0.000000 0.000000 0.000000
# 3 -0.002008 -0.004088 0.014657 0.000000 0.000000 0.000000
# 4 0.000000 0.000000 0.000000 0.039024 0.000000 0.000000
# 5 0.000000 0.000000 0.000000 0.000000 0.030116 0.000000
# 6 0.000000 0.000000 0.000000 0.000000 0.000000 0.038427
#
#
# Mechanical properties :
#
#
# Convention : Reuss Voigt Hill
#
# Bulk Modulus (GPa) = 59.68422 67.38275 63.53349
# Shear Modulus (GPa) = 24.26458 27.14554 25.70506
#
# Velocity S-wave (km/s) = 3.42409 3.62166 3.52426
# Velocity P-wave (km/s) = 6.66868 7.07441 6.87454
#
# Compressibility (1/GPa) = 0.01675485
#
# Stress axis : x y z
#
# Youngs Moduli (GPa) = 64.64157 40.47628 68.22736
#
# Poissons Ratio (x) = 0.52389 0.13698
# Poissons Ratio (y) = 0.83667 0.27890
# Poissons Ratio (z) = 0.12979 0.16546
#
# Static dielectric constant tensor:
#      x y z
#    x 1.718040 0.000000 0.000000 
#    y 0.000000 1.850920 0.000000 
#    z 0.000000 0.000000 1.780580 
# 
# From -- ./inp_files/23812.got.cif
#   From: 2010.05.17/outbox.ucp.g08.bks.cvg/sg67_12_cif.got.tgz:23812.got - 2010.06.11 16:47:20.
