data_PCOD9505562
_publ_section_title
;
Structure prediction by ZEFSAII (Michael W. Deem and Ramdas Pophale) SiO2 
 PCOD9505562
Probable space group: C C C A
;
_chemical_formula_sum "Si O2"
_cell_formula_units_Z 56
_cell_length_a 9.923094
_cell_length_b 16.742575
_cell_length_c 16.975370
_cell_angle_alpha 90.000000
_cell_angle_beta 90.000000
_cell_angle_gamma 90.000000
_cell_volume 2820.256491
_symmetry_space_group_name_H-M "C C C A"
_symmetry_group_IT_number 68
_space_group.IT_coordinate_system_code '2'
_symmetry_cell_setting 'orthorhombic'
loop_
_space_group_symop_operation_xyz
x,y,z
-x,1/2-y,z
x,1/2-y,1/2-z
-x,y,1/2-z
-x,-y,-z
x,1/2+y,-z
-x,1/2+y,1/2+z
x,-y,1/2+z
1/2+x,1/2+y,z
1/2-x,-y,z
1/2+x,-y,1/2-z
1/2-x,1/2+y,1/2-z
1/2-x,1/2-y,-z
1/2+x,y,-z
1/2-x,y,1/2+z
1/2+x,1/2-y,1/2+z
loop_
_atom_site_type_symbol
_atom_site_label
_atom_site_fract_x
_atom_site_fract_y
_atom_site_fract_z
Si Si1 0.000000 0.750000 0.594692
Si Si2 0.177082 0.424312 0.921575
Si Si3 0.289963 0.252725 0.340900
Si Si4 0.597520 0.873741 0.536051
O O1 0.868207 0.765489 0.646117
O O2 0.966655 0.676951 0.535962
O O3 0.250000 0.500000 0.882275
O O4 0.187802 0.341719 0.874066
O O5 0.018365 0.434381 0.936670
O O6 0.234316 0.589871 0.000782
O O7 0.327824 0.250000 0.250000
O O8 0.367505 0.188955 0.395154
#
# Coordination Sequence:
#
# PCOD9505562 Si02
#       4
#     8  16  16  16
#     4  10  17  38  63  90 110 160 218 246 287 364
#     4  11  22  37  61  90 123 157 205 259 303 360
#     4  11  22  37  65  89 124 160 209 253 311 378
#     4  11  19  39  63  87 117 160 210 246 296 371
#
# _framework density 19.856349999999999
#
# number of rings (size 3 to 8) (size 9 to 14) (size 15 to 20)
#    0.000    1.143    5.714    3.000    0.000    2.286 
#    0.000    1.429   12.571    0.000    0.000    0.000 
#    0.000    0.000    0.000    0.000    0.000    0.000 
#
# Total GULP energy -156371.612490 kJ/mol
# GULP energy per Si atom -5584.700446 kJ/mol
# Density = 1.981116 g / cm^3
# Si number density = 19.856350 Si / 1000 Ang^3
#
#
#
# Elastic Constant Matrix: (Units=GPa)
#
#
# Indices 1 2 3 4 5 6 
#
# 1 133.2213 35.6058 34.2221 0.0000 0.0000 0.0000
# 2 35.6058 89.8973 34.1974 0.0000 0.0000 0.0000
# 3 34.2221 34.1974 100.5642 0.0000 0.0000 0.0000
# 4 0.0000 0.0000 0.0000 8.0135 0.0000 0.0000
# 5 0.0000 0.0000 0.0000 0.0000 6.8891 0.0000
# 6 0.0000 0.0000 0.0000 0.0000 0.0000 27.0247
#
#
#
# Elastic Compliance Matrix: (Units=1/GPa)
#
#
# Indices 1 2 3 4 5 6 
#
# 1 0.008754 -0.002681 -0.002067 0.000000 0.000000 0.000000
# 2 -0.002681 0.013598 -0.003712 0.000000 0.000000 0.000000
# 3 -0.002067 -0.003712 0.011910 0.000000 0.000000 0.000000
# 4 0.000000 0.000000 0.000000 0.124789 0.000000 0.000000
# 5 0.000000 0.000000 0.000000 0.000000 0.145157 0.000000
# 6 0.000000 0.000000 0.000000 0.000000 0.000000 0.037003
#
#
# Mechanical properties :
#
#
# Convention : Reuss Voigt Hill
#
# Bulk Modulus (GPa) = 57.66521 59.08150 58.37335
# Shear Modulus (GPa) = 13.73965 23.02930 18.38448
#
# Velocity S-wave (km/s) = 2.63335 3.40927 3.04612
# Velocity P-wave (km/s) = 6.19276 6.73176 6.46788
#
# Compressibility (1/GPa) = 0.01734148
#
# Stress axis : x y z
#
# Youngs Moduli (GPa) = 114.23556 73.54292 83.96600
#
# Poissons Ratio (x) = 0.19715 0.17359
# Poissons Ratio (y) = 0.30623 0.31165
# Poissons Ratio (z) = 0.23616 0.27297
#
# Static dielectric constant tensor:
#      x y z
#    x 1.747250 0.000000 0.000000 
#    y 0.000000 1.733460 0.000000 
#    z 0.000000 0.000000 1.658850 
# 
# From -- ./inp_files/20114.got.cif
#   From: 2010.05.17/outbox.cif.g08.bks.cpg/sg68_11_cif.got.tgz:20114.got - 2010.06.03 18:57:09.
