data_PCOD9505207
_publ_section_title
;
Structure prediction by ZEFSAII (Michael W. Deem and Ramdas Pophale) SiO2 
 PCOD9505207
Probable space group: C M M A
;
_chemical_formula_sum "Si O2"
_cell_formula_units_Z 52
_cell_length_a 9.000000
_cell_length_b 30.000000
_cell_length_c 24.000000
_cell_angle_alpha 90.000000
_cell_angle_beta 90.000000
_cell_angle_gamma 90.000000
_cell_volume 6480.000000
_symmetry_space_group_name_H-M "C M M A"
_symmetry_group_IT_number 67
_symmetry_cell_setting 'orthorhombic'
loop_
_space_group_symop_operation_xyz
x,y,z
-x,1/2-y,z
x,-y,-z
-x,1/2+y,-z
-x,-y,-z
x,1/2+y,-z
-x,y,z
x,1/2-y,z
1/2+x,1/2+y,z
1/2-x,-y,z
1/2+x,1/2-y,-z
1/2-x,y,-z
1/2-x,1/2-y,-z
1/2+x,y,-z
1/2-x,1/2+y,z
1/2+x,-y,z
loop_
_atom_site_type_symbol
_atom_site_label
_atom_site_fract_x
_atom_site_fract_y
_atom_site_fract_z
Si Si1 0.671182 0.167433 0.390888
Si Si2 0.680475 0.697211 0.819295
Si Si3 0.173841 0.071143 0.558829
Si Si4 0.672124 0.250000 0.558503
Si Si5 0.170067 0.195891 0.944304
Si Si6 0.176381 0.360781 0.277441
Si Si7 0.174654 0.043923 0.324435
O O1 0.500000 0.181801 0.390348
O O2 0.682899 0.124509 0.430956
O O3 0.776002 0.206371 0.410273
O O4 0.726433 0.155095 0.329737
O O5 0.500000 0.693092 0.816006
O O6 0.713700 0.750000 0.809161
O O7 0.728576 0.685316 0.882582
O O8 0.760324 0.664760 0.775963
O O9 0.250000 0.059354 0.500000
O O10 0.251854 0.052584 0.614657
O O11 0.000000 0.058444 0.558020
O O12 0.500000 0.250000 0.550140
O O13 0.750000 0.250000 0.500000
O O14 0.170901 0.250000 0.946139
O O15 0.000000 0.181192 0.946516
O O16 0.250000 0.179733 0.000000
O O17 0.193794 0.414180 0.283141
O O18 0.000000 0.351243 0.284401
O O19 0.000000 0.037626 0.333417
O O20 0.250000 0.000000 0.300868
#
# Coordination Sequence:
#
# PCOD9505207 Si02
#       7
#    16  16  16   8  16  16  16
#     4  10  21  36  52  68  90 123 157 194 241 287
#     4   9  18  31  47  69 100 138 174 206 238 281
#     4  10  20  34  53  74  95 119 148 185 234 291
#     4  12  24  36  50  68  90 118 157 200 239 284
#     4   8  14  25  41  63  93 130 170 207 242 275
#     4  10  21  35  51  73  99 126 159 202 244 285
#     4  10  21  37  55  74  96 121 153 194 242 294
#
# _framework density 8.0246910000000007
#
# number of rings (size 3 to 8) (size 9 to 14) (size 15 to 20)
#    0.000    2.308    0.000    3.923    1.077    6.154 
#    0.000    3.077    0.000    0.000    0.000    0.000 
#    0.000    0.615    0.000    6.769    0.000    5.231 
#
# Total GULP energy -289820.358185 kJ/mol
# GULP energy per Si atom -5573.468427 kJ/mol
# Density = 0.800643 g / cm^3
# Si number density = 8.024691 Si / 1000 Ang^3
#
#
#
# Elastic Constant Matrix: (Units=GPa)
#
#
# Indices 1 2 3 4 5 6 
#
# 1 95.4161 44.9971 39.4059 0.0000 0.0000 0.0000
# 2 44.9971 53.8601 29.2925 0.0000 0.0000 0.0000
# 3 39.4059 29.2925 91.4302 0.0000 0.0000 0.0000
# 4 0.0000 0.0000 0.0000 15.5137 0.0000 0.0000
# 5 0.0000 0.0000 0.0000 0.0000 28.4085 0.0000
# 6 0.0000 0.0000 0.0000 0.0000 0.0000 21.5954
#
#
#
# Elastic Compliance Matrix: (Units=1/GPa)
#
#
# Indices 1 2 3 4 5 6 
#
# 1 0.018225 -0.013265 -0.003605 0.000000 0.000000 0.000000
# 2 -0.013265 0.032140 -0.004580 0.000000 0.000000 0.000000
# 3 -0.003605 -0.004580 0.013958 0.000000 0.000000 0.000000
# 4 0.000000 0.000000 0.000000 0.064459 0.000000 0.000000
# 5 0.000000 0.000000 0.000000 0.000000 0.035201 0.000000
# 6 0.000000 0.000000 0.000000 0.000000 0.000000 0.046306
#
#
# Mechanical properties :
#
#
# Convention : Reuss Voigt Hill
#
# Bulk Modulus (GPa) = 46.67849 52.01080 49.34464
# Shear Modulus (GPa) = 19.20637 21.57090 20.38864
#
# Velocity S-wave (km/s) = 3.46309 3.67008 3.56809
# Velocity P-wave (km/s) = 6.71849 7.10186 6.91283
#
# Compressibility (1/GPa) = 0.02142314
#
# Stress axis : x y z
#
# Youngs Moduli (GPa) = 54.86971 31.11402 71.64226
#
# Poissons Ratio (x) = 0.41274 0.25826
# Poissons Ratio (y) = 0.72787 0.32810
# Poissons Ratio (z) = 0.19780 0.14249
#
# Static dielectric constant tensor:
#      x y z
#    x 1.540880 0.000000 0.000000 
#    y 0.000000 1.544780 0.000000 
#    z 0.000000 0.000000 1.515320 
# 
# From -- ./inp_files/40233.got.cif
#   From: 2010.05.17/outbox.ucp.g08.bks.cvg/sg67_21_cif.got.tgz:40233.got - 2010.06.11 16:47:20.
