data_PCOD9505396
_publ_section_title
;
Structure prediction by ZEFSAII (Michael W. Deem and Ramdas Pophale) SiO2 
 PCOD9505396
Probable space group: C C C A
;
_chemical_formula_sum "Si O2"
_cell_formula_units_Z 56
_cell_length_a 8.655542
_cell_length_b 23.611417
_cell_length_c 11.822254
_cell_angle_alpha 90.000000
_cell_angle_beta 90.000000
_cell_angle_gamma 90.000000
_cell_volume 2416.109457
_symmetry_space_group_name_H-M "C C C A"
_symmetry_group_IT_number 68
_space_group.IT_coordinate_system_code '2'
_symmetry_cell_setting 'orthorhombic'
loop_
_space_group_symop_operation_xyz
x,y,z
-x,1/2-y,z
x,1/2-y,1/2-z
-x,y,1/2-z
-x,-y,-z
x,1/2+y,-z
-x,1/2+y,1/2+z
x,-y,1/2+z
1/2+x,1/2+y,z
1/2-x,-y,z
1/2+x,-y,1/2-z
1/2-x,1/2+y,1/2-z
1/2-x,1/2-y,-z
1/2+x,y,-z
1/2-x,y,1/2+z
1/2+x,1/2-y,1/2+z
loop_
_atom_site_type_symbol
_atom_site_label
_atom_site_fract_x
_atom_site_fract_y
_atom_site_fract_z
Si Si1 0.606489 0.302583 0.090272
Si Si2 0.052116 0.162970 0.123115
Si Si3 0.494502 0.078773 0.434532
Si Si4 0.750000 0.500000 0.457436
O O1 0.500000 0.250000 0.126317
O O2 0.786466 0.303414 0.117609
O O3 0.542047 0.363943 0.128269
O O4 0.579658 0.307836 0.954267
O O5 0.000000 0.155835 0.250000
O O6 0.069946 0.104139 0.054563
O O7 0.355724 0.042276 0.384577
O O8 0.634167 0.037539 0.466797
#
# Coordination Sequence:
#
# PCOD9505396 Si02
#       4
#    16  16  16   8
#     4  10  20  39  66  96 133 168 212 271 333 391
#     4  10  21  39  63  98 131 169 221 269 327 394
#     4   9  18  32  59  92 125 171 215 253 329 372
#     4  10  16  32  60  88 130 178 204 266 320 386
#
# _framework density 23.177755999999999
#
# number of rings (size 3 to 8) (size 9 to 14) (size 15 to 20)
#    1.714    0.571    2.857    0.857    0.000    0.571 
#    0.000    2.857    0.000    1.714    0.000    0.000 
#    0.000    0.000    0.000    0.000    0.000    0.000 
#
# Total GULP energy -156031.890832 kJ/mol
# GULP energy per Si atom -5572.567530 kJ/mol
# Density = 2.312500 g / cm^3
# Si number density = 23.177756 Si / 1000 Ang^3
#
#
#
# Elastic Constant Matrix: (Units=GPa)
#
#
# Indices 1 2 3 4 5 6 
#
# 1 120.8743 49.1541 6.4160 0.0000 0.0000 0.0000
# 2 49.1541 153.6914 -15.3502 0.0000 0.0000 0.0000
# 3 6.4160 -15.3502 87.2829 0.0000 0.0000 0.0000
# 4 0.0000 0.0000 0.0000 -14.0288 0.0000 0.0000
# 5 0.0000 0.0000 0.0000 0.0000 8.1396 0.0000
# 6 0.0000 0.0000 0.0000 0.0000 0.0000 64.1120
#
#
#
# Elastic Compliance Matrix: (Units=1/GPa)
#
#
# Indices 1 2 3 4 5 6 
#
# 1 0.009647 -0.003213 -0.001274 0.000000 0.000000 0.000000
# 2 -0.003213 0.007693 0.001589 0.000000 0.000000 0.000000
# 3 -0.001274 0.001589 0.011830 0.000000 0.000000 0.000000
# 4 0.000000 0.000000 0.000000 -0.071282 0.000000 0.000000
# 5 0.000000 0.000000 0.000000 0.000000 0.122857 0.000000
# 6 0.000000 0.000000 0.000000 0.000000 0.000000 0.015598
#
#
# Mechanical properties :
#
#
# Convention : Reuss Voigt Hill
#
# Bulk Modulus (GPa) = 42.78160 49.14316 45.96238
# Shear Modulus (GPa) = 45.48368 33.08646 39.28507
#
# Velocity S-wave (km/s) = 4.43469 3.78234 4.12144
# Velocity P-wave (km/s) = 6.68730 6.35008 6.52087
#
# Compressibility (1/GPa) = 0.02337454
#
# Stress axis : x y z
#
# Youngs Moduli (GPa) = 103.65793 129.99296 84.52997
#
# Poissons Ratio (x) = 0.41762 0.10770
# Poissons Ratio (y) = 0.33301 -0.13432
# Poissons Ratio (z) = 0.13207 -0.20657
#
# Static dielectric constant tensor:
#      x y z
#    x 1.769750 0.000000 0.000000 
#    y 0.000000 1.945440 0.000000 
#    z 0.000000 0.000000 1.814610 
# 
# From -- ./inp_files/19336.got.cif
#   From: 2010.05.17/outbox.cif.g08.bks.cpg/sg68_10_cif.got.tgz:19336.got - 2010.06.03 18:57:09.
