data_PCOD9505702
_publ_section_title
;
Structure prediction by ZEFSAII (Michael W. Deem and Ramdas Pophale) SiO2 
 PCOD9505702
Probable space group: C C C A
;
_chemical_formula_sum "Si O2"
_cell_formula_units_Z 64
_cell_length_a 17.622819
_cell_length_b 9.522133
_cell_length_c 18.114265
_cell_angle_alpha 90.000000
_cell_angle_beta 90.000000
_cell_angle_gamma 90.000000
_cell_volume 3039.697321
_symmetry_space_group_name_H-M "C C C A"
_symmetry_group_IT_number 68
_space_group.IT_coordinate_system_code '2'
_symmetry_cell_setting 'orthorhombic'
loop_
_space_group_symop_operation_xyz
x,y,z
-x,1/2-y,z
x,1/2-y,1/2-z
-x,y,1/2-z
-x,-y,-z
x,1/2+y,-z
-x,1/2+y,1/2+z
x,-y,1/2+z
1/2+x,1/2+y,z
1/2-x,-y,z
1/2+x,-y,1/2-z
1/2-x,1/2+y,1/2-z
1/2-x,1/2-y,-z
1/2+x,y,-z
1/2-x,y,1/2+z
1/2+x,1/2-y,1/2+z
loop_
_atom_site_type_symbol
_atom_site_label
_atom_site_fract_x
_atom_site_fract_y
_atom_site_fract_z
Si Si1 0.691060 0.622574 0.998983
Si Si2 0.127662 0.187331 0.850228
Si Si3 0.000000 0.463757 0.750000
Si Si4 0.129626 0.472024 0.344498
Si Si5 0.750000 0.000000 0.229171
O O1 0.750000 0.500000 0.981219
O O2 0.651440 0.592094 0.077222
O O3 0.750000 0.750000 0.000000
O O4 0.628305 0.643015 0.935699
O O5 0.058285 0.127223 0.801069
O O6 0.133008 0.356196 0.848455
O O7 0.202438 0.112286 0.817356
O O8 0.951650 0.553944 0.691939
O O9 0.191006 0.426148 0.284183
#
# Coordination Sequence:
#
# PCOD9505702 Si02
#       5
#    16  16   8  16   8
#     4  12  23  40  64  98 128 167 217 271 321 378
#     4  11  21  37  62  93 126 169 216 264 325 390
#     4  10  23  40  64  95 130 175 214 265 332 397
#     4  11  21  39  62  95 129 164 219 264 327 388
#     4  10  18  32  58  90 122 160 212 272 314 378
#
# _framework density 21.054727
#
# number of rings (size 3 to 8) (size 9 to 14) (size 15 to 20)
#    0.000    1.000    5.000    4.500    0.000    1.000 
#    0.000    0.000    0.000    1.500    0.000    0.000 
#    0.000    0.000    0.000    0.000    0.000    0.000 
#
# Total GULP energy -178719.218498 kJ/mol
# GULP energy per Si atom -5584.975578 kJ/mol
# Density = 2.100681 g / cm^3
# Si number density = 21.054727 Si / 1000 Ang^3
#
#
#
# Elastic Constant Matrix: (Units=GPa)
#
#
# Indices 1 2 3 4 5 6 
#
# 1 120.6817 33.8994 64.6650 0.0000 0.0000 0.0000
# 2 33.8994 70.8390 38.2982 0.0000 0.0000 0.0000
# 3 64.6650 38.2982 186.1780 0.0000 0.0000 0.0000
# 4 0.0000 0.0000 0.0000 27.5056 0.0000 0.0000
# 5 0.0000 0.0000 0.0000 0.0000 46.5851 0.0000
# 6 0.0000 0.0000 0.0000 0.0000 0.0000 23.3226
#
#
#
# Elastic Compliance Matrix: (Units=1/GPa)
#
#
# Indices 1 2 3 4 5 6 
#
# 1 0.010931 -0.003576 -0.003061 0.000000 0.000000 0.000000
# 2 -0.003576 0.017053 -0.002266 0.000000 0.000000 0.000000
# 3 -0.003061 -0.002266 0.006900 0.000000 0.000000 0.000000
# 4 0.000000 0.000000 0.000000 0.036356 0.000000 0.000000
# 5 0.000000 0.000000 0.000000 0.000000 0.021466 0.000000
# 6 0.000000 0.000000 0.000000 0.000000 0.000000 0.042877
#
#
# Mechanical properties :
#
#
# Convention : Reuss Voigt Hill
#
# Bulk Modulus (GPa) = 58.55322 72.38043 65.46683
# Shear Modulus (GPa) = 31.43033 35.53839 33.48436
#
# Velocity S-wave (km/s) = 3.86786 4.11287 3.99224
# Velocity P-wave (km/s) = 6.91502 7.55024 7.23960
#
# Compressibility (1/GPa) = 0.01707848
#
# Stress axis : x y z
#
# Youngs Moduli (GPa) = 91.48332 58.64148 144.91734
#
# Poissons Ratio (x) = 0.20970 0.44360
# Poissons Ratio (y) = 0.32715 0.32836
# Poissons Ratio (z) = 0.28003 0.13287
#
# Static dielectric constant tensor:
#      x y z
#    x 1.784090 0.000000 0.000000 
#    y 0.000000 1.745660 0.000000 
#    z 0.000000 0.000000 1.785020 
# 
# From -- ./inp_files/31589.got.cif
#   From: 2010.05.17/outbox.cif.g08.bks.cpg/sg68_16_cif.got.tgz:31589.got - 2010.06.03 18:57:09.
