data_PCOD9505347
_publ_section_title
;
Structure prediction by ZEFSAII (Michael W. Deem and Ramdas Pophale) SiO2 
 PCOD9505347
Probable space group: C C C A
;
_chemical_formula_sum "Si O2"
_cell_formula_units_Z 104
_cell_length_a 8.554161
_cell_length_b 18.752727
_cell_length_c 33.551112
_cell_angle_alpha 90.000000
_cell_angle_beta 90.000000
_cell_angle_gamma 90.000000
_cell_volume 5382.062912
_symmetry_space_group_name_H-M "C C C A"
_symmetry_group_IT_number 68
_space_group.IT_coordinate_system_code '2'
_symmetry_cell_setting 'orthorhombic'
loop_
_space_group_symop_operation_xyz
x,y,z
-x,1/2-y,z
x,1/2-y,1/2-z
-x,y,1/2-z
-x,-y,-z
x,1/2+y,-z
-x,1/2+y,1/2+z
x,-y,1/2+z
1/2+x,1/2+y,z
1/2-x,-y,z
1/2+x,-y,1/2-z
1/2-x,1/2+y,1/2-z
1/2-x,1/2-y,-z
1/2+x,y,-z
1/2-x,y,1/2+z
1/2+x,1/2-y,1/2+z
loop_
_atom_site_type_symbol
_atom_site_label
_atom_site_fract_x
_atom_site_fract_y
_atom_site_fract_z
Si Si1 0.184312 0.827302 0.013022
Si Si2 0.233727 0.738161 0.148845
Si Si3 0.461078 0.638724 0.352339
Si Si4 0.000000 0.250000 0.923391
Si Si5 0.107729 0.449204 0.214518
Si Si6 0.513807 0.661318 0.058527
Si Si7 0.662484 0.177474 0.229137
O O1 0.329224 0.859775 0.035524
O O2 0.050394 0.812446 0.046079
O O3 0.250000 0.750000 0.000000
O O4 0.122160 0.859389 0.972075
O O5 0.299642 0.818297 0.155628
O O6 0.391261 0.692000 0.151534
O O7 0.132745 0.701134 0.183438
O O8 0.144492 0.734818 0.106582
O O9 0.498043 0.575694 0.321822
O O10 0.473721 0.623693 0.399193
O O11 0.250000 0.500000 0.201610
O O12 0.201523 0.380383 0.231178
O O13 0.000000 0.478880 0.250000
O O14 0.500000 0.750000 0.064073
O O15 0.718456 0.250000 0.250000
O O16 0.500000 0.156254 0.250000
#
# Coordination Sequence:
#
# PCOD9505347 Si02
#       7
#    16  16  16   8  16  16  16
#     4  10  17  23  39  65 107 155 185 215 266 336
#     4  10  19  28  47  75 111 142 179 228 275 336
#     4  10  19  34  52  74 105 143 179 227 278 332
#     4  12  16  24  41  72 114 154 181 222 278 332
#     4  11  24  41  62  81 107 146 192 232 285 343
#     4  10  16  28  43  70 110 147 184 221 272 335
#     4  10  20  36  55  83 115 145 180 228 291 344
#
# _framework density 19.323446000000001
#
# number of rings (size 3 to 8) (size 9 to 14) (size 15 to 20)
#    0.000    1.692    5.385    3.231    0.000    1.538 
#    0.000    0.000    0.000    0.000    0.000    1.077 
#    0.000    0.000    0.000    0.000    0.000    0.000 
#
# Total GULP energy -289559.724558 kJ/mol
# GULP energy per Si atom -5568.456241 kJ/mol
# Density = 1.927946 g / cm^3
# Si number density = 19.323446 Si / 1000 Ang^3
#
#
#
# Elastic Constant Matrix: (Units=GPa)
#
#
# Indices 1 2 3 4 5 6 
#
# 1 76.7835 3.7177 32.3078 0.0000 0.0000 0.0000
# 2 3.7177 25.3187 10.0829 0.0000 0.0000 0.0000
# 3 32.3078 10.0829 141.4497 0.0000 0.0000 0.0000
# 4 0.0000 0.0000 0.0000 0.7513 0.0000 0.0000
# 5 0.0000 0.0000 0.0000 0.0000 44.1474 0.0000
# 6 0.0000 0.0000 0.0000 0.0000 0.0000 18.2493
#
#
#
# Elastic Compliance Matrix: (Units=1/GPa)
#
#
# Indices 1 2 3 4 5 6 
#
# 1 0.014425 -0.000830 -0.003236 0.000000 0.000000 0.000000
# 2 -0.000830 0.040698 -0.002712 0.000000 0.000000 0.000000
# 3 -0.003236 -0.002712 0.008002 0.000000 0.000000 0.000000
# 4 0.000000 0.000000 0.000000 1.331030 0.000000 0.000000
# 5 0.000000 0.000000 0.000000 0.000000 0.022651 0.000000
# 6 0.000000 0.000000 0.000000 0.000000 0.000000 0.054797
#
#
# Mechanical properties :
#
#
# Convention : Reuss Voigt Hill
#
# Bulk Modulus (GPa) = 20.17280 37.30764 28.74022
# Shear Modulus (GPa) = 3.32960 25.79249 14.56105
#
# Velocity S-wave (km/s) = 1.31409 3.65742 2.74805
# Velocity P-wave (km/s) = 3.57276 6.09791 4.99746
#
# Compressibility (1/GPa) = 0.04957170
#
# Stress axis : x y z
#
# Youngs Moduli (GPa) = 69.32288 24.57115 124.96908
#
# Poissons Ratio (x) = 0.02038 0.40436
# Poissons Ratio (y) = 0.05751 0.33886
# Poissons Ratio (z) = 0.22431 0.06663
#
# Static dielectric constant tensor:
#      x y z
#    x 1.765190 0.000000 0.000000 
#    y 0.000000 1.688380 0.000000 
#    z 0.000000 0.000000 1.742060 
# 
# From -- ./inp_files/54143.got.cif
#   From: 2010.05.17/outbox.cif.g08.bks.cpg/sg68_28_cif.got.tgz:54143.got - 2010.06.03 18:57:09.
