data_PCOD9505781
_publ_section_title
;
Structure prediction by ZEFSAII (Michael W. Deem and Ramdas Pophale) SiO2 
 PCOD9505781
Probable space group: C C C A
;
_chemical_formula_sum "Si O2"
_cell_formula_units_Z 72
_cell_length_a 11.123099
_cell_length_b 13.985202
_cell_length_c 25.233336
_cell_angle_alpha 90.000000
_cell_angle_beta 90.000000
_cell_angle_gamma 90.000000
_cell_volume 3925.267125
_symmetry_space_group_name_H-M "C C C A"
_symmetry_group_IT_number 68
_space_group.IT_coordinate_system_code '2'
_symmetry_cell_setting 'orthorhombic'
loop_
_space_group_symop_operation_xyz
x,y,z
-x,1/2-y,z
x,1/2-y,1/2-z
-x,y,1/2-z
-x,-y,-z
x,1/2+y,-z
-x,1/2+y,1/2+z
x,-y,1/2+z
1/2+x,1/2+y,z
1/2-x,-y,z
1/2+x,-y,1/2-z
1/2-x,1/2+y,1/2-z
1/2-x,1/2-y,-z
1/2+x,y,-z
1/2-x,y,1/2+z
1/2+x,1/2-y,1/2+z
loop_
_atom_site_type_symbol
_atom_site_label
_atom_site_fract_x
_atom_site_fract_y
_atom_site_fract_z
Si Si1 0.899305 0.913986 0.914554
Si Si2 0.117344 0.126181 0.576509
Si Si3 0.500000 0.750000 0.832963
Si Si4 0.297678 0.250000 0.250000
Si Si5 0.071115 0.851142 0.702080
Si Si6 0.000000 0.250000 0.489611
O O1 0.757611 0.891180 0.914563
O O2 0.934843 0.905106 0.853048
O O3 0.955605 0.833995 0.951744
O O4 0.930417 0.019707 0.934980
O O5 0.095678 0.201056 0.529248
O O6 0.052916 0.168910 0.628359
O O7 0.610476 0.715455 0.795787
O O8 0.205270 0.325137 0.277385
O O9 0.000000 0.750000 0.693948
O O10 0.000000 0.901061 0.750000
#
# Coordination Sequence:
#
# PCOD9505781 Si02
#       6
#    16  16   8   8  16   8
#     4  11  20  39  58  83 116 149 190 241 289 335
#     4  10  23  36  56  87 112 148 191 241 289 342
#     4  10  18  35  56  82 119 148 184 232 290 340
#     4   9  17  32  60  80 111 157 184 224 280 343
#     4   9  18  34  58  85 112 152 191 220 279 345
#     4  11  22  39  61  77 109 156 197 240 286 338
#
# _framework density 18.342701000000002
#
# number of rings (size 3 to 8) (size 9 to 14) (size 15 to 20)
#    0.000    2.222    3.333    1.333    0.000    0.000 
#    4.000    0.000    0.000   10.667    0.000    0.000 
#    0.000    0.000    0.000    0.000    0.000    0.000 
#
# Total GULP energy -200540.914200 kJ/mol
# GULP energy per Si atom -5570.580950 kJ/mol
# Density = 1.830095 g / cm^3
# Si number density = 18.342701 Si / 1000 Ang^3
#
#
#
# Elastic Constant Matrix: (Units=GPa)
#
#
# Indices 1 2 3 4 5 6 
#
# 1 62.9948 -3.7694 15.8690 0.0000 0.0000 0.0000
# 2 -3.7694 52.0829 11.4359 0.0000 0.0000 0.0000
# 3 15.8690 11.4359 104.6657 0.0000 0.0000 0.0000
# 4 0.0000 0.0000 0.0000 -3.8792 0.0000 0.0000
# 5 0.0000 0.0000 0.0000 0.0000 26.7577 0.0000
# 6 0.0000 0.0000 0.0000 0.0000 0.0000 20.2800
#
#
#
# Elastic Compliance Matrix: (Units=1/GPa)
#
#
# Indices 1 2 3 4 5 6 
#
# 1 0.016669 0.001805 -0.002724 0.000000 0.000000 0.000000
# 2 0.001805 0.019867 -0.002444 0.000000 0.000000 0.000000
# 3 -0.002724 -0.002444 0.010234 0.000000 0.000000 0.000000
# 4 0.000000 0.000000 0.000000 -0.257785 0.000000 0.000000
# 5 0.000000 0.000000 0.000000 0.000000 0.037372 0.000000
# 6 0.000000 0.000000 0.000000 0.000000 0.000000 0.049310
#
#
# Mechanical properties :
#
#
# Convention : Reuss Voigt Hill
#
# Bulk Modulus (GPa) = 24.97373 29.64604 27.30988
# Shear Modulus (GPa) = -47.95848 21.71222 -13.12313
#
# Velocity S-wave (km/s) = -5.11884 3.44422 -2.67768
# Velocity P-wave (km/s) = 4.61434 5.65812 2.31540
#
# Compressibility (1/GPa) = 0.04004208
#
# Stress axis : x y z
#
# Youngs Moduli (GPa) = 59.99296 50.33356 97.70996
#
# Poissons Ratio (x) = -0.09083 0.26620
# Poissons Ratio (y) = -0.10826 0.23884
# Poissons Ratio (z) = 0.16345 0.12303
#
# Static dielectric constant tensor:
#      x y z
#    x 1.630790 0.000000 0.000000 
#    y 0.000000 1.620550 0.000000 
#    z 0.000000 0.000000 1.639400 
# 
# From -- ./inp_files/50037.got.cif
#   From: 2010.05.17/outbox.cif.g08.bks.cpg/sg68_26_cif.got.tgz:50037.got - 2010.06.03 18:57:09.
