data_PCOD9505473
_publ_section_title
;
Structure prediction by ZEFSAII (Michael W. Deem and Ramdas Pophale) SiO2 
 PCOD9505473
Probable space group: C C C A
;
_chemical_formula_sum "Si O2"
_cell_formula_units_Z 120
_cell_length_a 18.223474
_cell_length_b 18.279957
_cell_length_c 19.440969
_cell_angle_alpha 90.000000
_cell_angle_beta 90.000000
_cell_angle_gamma 90.000000
_cell_volume 6476.259600
_symmetry_space_group_name_H-M "C C C A"
_symmetry_group_IT_number 68
_space_group.IT_coordinate_system_code '2'
_symmetry_cell_setting 'orthorhombic'
loop_
_space_group_symop_operation_xyz
x,y,z
-x,1/2-y,z
x,1/2-y,1/2-z
-x,y,1/2-z
-x,-y,-z
x,1/2+y,-z
-x,1/2+y,1/2+z
x,-y,1/2+z
1/2+x,1/2+y,z
1/2-x,-y,z
1/2+x,-y,1/2-z
1/2-x,1/2+y,1/2-z
1/2-x,1/2-y,-z
1/2+x,y,-z
1/2-x,y,1/2+z
1/2+x,1/2-y,1/2+z
loop_
_atom_site_type_symbol
_atom_site_label
_atom_site_fract_x
_atom_site_fract_y
_atom_site_fract_z
Si Si1 0.413672 0.828794 0.730025
Si Si2 0.933749 0.868594 0.694385
Si Si3 0.679965 0.250000 0.750000
Si Si4 0.797382 0.187501 0.395897
Si Si5 0.071990 0.292332 0.051457
Si Si6 0.168072 0.977277 0.629556
Si Si7 0.138142 0.868885 0.076236
Si Si8 0.414418 0.481234 0.235244
O O1 0.381727 0.750000 0.750000
O O2 0.500000 0.824494 0.750000
O O3 0.399303 0.846121 0.649385
O O4 0.382601 0.899474 0.771716
O O5 0.870669 0.817718 0.725985
O O6 0.952161 0.832502 0.621748
O O7 0.000000 0.867671 0.750000
O O8 0.908401 0.952439 0.682123
O O9 0.717534 0.280724 0.681000
O O10 0.857314 0.240978 0.430675
O O11 0.832373 0.106104 0.394095
O O12 0.717153 0.172000 0.427400
O O13 0.000000 0.250000 0.027521
O O14 0.094088 0.345762 0.990372
O O15 0.250000 0.000000 0.651798
O O16 0.147127 0.043127 0.578515
O O17 0.118087 0.984673 0.695757
O O18 0.500000 0.470216 0.250000
#
# Coordination Sequence:
#
# PCOD9505473 Si02
#       8
#    16  16   8  16  16  16  16  16
#     4   9  19  35  58  80 110 152 200 248 288 328
#     4  10  18  32  56  82 119 143 184 239 304 348
#     4  10  17  28  54  88 111 138 194 234 294 344
#     4  10  20  37  60  86 116 154 197 248 296 360
#     4  11  24  37  56  88 123 159 192 248 303 361
#     4   9  18  36  60  82 111 155 197 237 293 357
#     4  10  22  39  59  82 119 161 202 236 294 366
#     4   9  17  30  54  82 111 141 188 246 290 343
#
# _framework density 18.529214
#
# number of rings (size 3 to 8) (size 9 to 14) (size 15 to 20)
#    0.000    2.267    1.333    2.200    4.667    0.000 
#    0.000    2.000    0.000    2.400    0.000    0.000 
#    0.000    0.000    0.000    0.000    0.000    0.000 
#
# Total GULP energy -334016.727292 kJ/mol
# GULP energy per Si atom -5566.945455 kJ/mol
# Density = 1.848704 g / cm^3
# Si number density = 18.529214 Si / 1000 Ang^3
#
#
#
# Elastic Constant Matrix: (Units=GPa)
#
#
# Indices 1 2 3 4 5 6 
#
# 1 52.9850 21.3538 34.1908 0.0000 0.0000 0.0000
# 2 21.3538 127.4053 29.5018 0.0000 0.0000 0.0000
# 3 34.1908 29.5018 58.8244 0.0000 0.0000 0.0000
# 4 0.0000 0.0000 0.0000 25.8169 0.0000 0.0000
# 5 0.0000 0.0000 0.0000 0.0000 21.6569 0.0000
# 6 0.0000 0.0000 0.0000 0.0000 0.0000 1.4631
#
#
#
# Elastic Compliance Matrix: (Units=1/GPa)
#
#
# Indices 1 2 3 4 5 6 
#
# 1 0.030344 -0.001133 -0.017069 0.000000 0.000000 0.000000
# 2 -0.001133 0.008923 -0.003816 0.000000 0.000000 0.000000
# 3 -0.017069 -0.003816 0.028835 0.000000 0.000000 0.000000
# 4 0.000000 0.000000 0.000000 0.038734 0.000000 0.000000
# 5 0.000000 0.000000 0.000000 0.000000 0.046175 0.000000
# 6 0.000000 0.000000 0.000000 0.000000 0.000000 0.683475
#
#
# Mechanical properties :
#
#
# Convention : Reuss Voigt Hill
#
# Bulk Modulus (GPa) = 41.55420 45.47859 43.51639
# Shear Modulus (GPa) = 5.62718 20.06527 12.84623
#
# Velocity S-wave (km/s) = 1.74457 3.29431 2.63591
# Velocity P-wave (km/s) = 5.15102 6.25040 5.72715
#
# Compressibility (1/GPa) = 0.02406496
#
# Stress axis : x y z
#
# Youngs Moduli (GPa) = 32.95502 112.07508 34.68065
#
# Poissons Ratio (x) = 0.12703 0.59195
# Poissons Ratio (y) = 0.03735 0.13234
# Poissons Ratio (z) = 0.56250 0.42769
#
# Static dielectric constant tensor:
#      x y z
#    x 1.809310 0.000000 0.000000 
#    y 0.000000 1.712560 0.000000 
#    z 0.000000 0.000000 1.597970 
# 
# From -- ./inp_files/39772.got.cif
#   From: 2010.05.17/outbox.cif.g08.bks.cpg/sg68_20_cif.got.tgz:39772.got - 2010.06.03 18:57:09.
