data_PCOD9505143
_publ_section_title
;
Structure prediction by ZEFSAII (Michael W. Deem and Ramdas Pophale) SiO2 
 PCOD9505143
Probable space group: C M M A
;
_chemical_formula_sum "Si O2"
_cell_formula_units_Z 80
_cell_length_a 9.308436
_cell_length_b 14.607154
_cell_length_c 27.262538
_cell_angle_alpha 90.000000
_cell_angle_beta 90.000000
_cell_angle_gamma 90.000000
_cell_volume 3706.880698
_symmetry_space_group_name_H-M "C M M A"
_symmetry_group_IT_number 67
_symmetry_cell_setting 'orthorhombic'
loop_
_space_group_symop_operation_xyz
x,y,z
-x,1/2-y,z
x,-y,-z
-x,1/2+y,-z
-x,-y,-z
x,1/2+y,-z
-x,y,z
x,1/2-y,z
1/2+x,1/2+y,z
1/2-x,-y,z
1/2+x,1/2-y,-z
1/2-x,y,-z
1/2-x,1/2-y,-z
1/2+x,y,-z
1/2-x,1/2+y,z
1/2+x,-y,z
loop_
_atom_site_type_symbol
_atom_site_label
_atom_site_fract_x
_atom_site_fract_y
_atom_site_fract_z
Si Si1 0.662424 0.362172 0.355399
Si Si2 0.339269 0.142803 0.736772
Si Si3 0.673911 0.899548 0.047351
Si Si4 0.672142 0.903278 0.154237
Si Si5 0.663501 0.361897 0.548285
O O1 0.500000 0.394783 0.360685
O O2 0.657945 0.250000 0.355488
O O3 0.731573 0.393245 0.304123
O O4 0.758233 0.389322 0.401707
O O5 0.500000 0.101804 0.733260
O O6 0.353494 0.250000 0.725445
O O7 0.288897 0.138441 0.793197
O O8 0.500000 0.905995 0.040614
O O9 0.702584 0.857700 0.101324
O O10 0.750000 0.000000 0.049989
O O11 0.750000 0.855787 0.000000
O O12 0.500000 0.914162 0.154708
O O13 0.750000 0.000000 0.153770
O O14 0.500000 0.394088 0.546806
O O15 0.660891 0.250000 0.548085
O O16 0.750000 0.389999 0.500000
#
# Coordination Sequence:
#
# PCOD9505143 Si02
#       5
#    16  16  16  16  16
#     4   9  16  25  37  55  79 107 140 176 214 257
#     4   9  17  30  46  62  83 114 149 180 212 255
#     4   9  15  24  39  60  84 108 136 170 210 254
#     4   9  18  30  45  66  89 113 142 178 218 257
#     4   9  15  22  33  50  74 105 139 175 215 257
#
# _framework density 21.581489000000001
#
# number of rings (size 3 to 8) (size 9 to 14) (size 15 to 20)
#    0.000    3.000    0.000    2.400    0.000    6.400 
#    0.000    0.000    0.000    0.600    0.000    0.000 
#    0.000    0.800    0.000    8.400    0.000   18.000 
#
# Total GULP energy -222967.791156 kJ/mol
# GULP energy per Si atom -5574.194779 kJ/mol
# Density = 2.153237 g / cm^3
# Si number density = 21.581489 Si / 1000 Ang^3
#
#
#
# Elastic Constant Matrix: (Units=GPa)
#
#
# Indices 1 2 3 4 5 6 
#
# 1 142.4826 11.4604 126.8676 0.0000 0.0000 0.0000
# 2 11.4604 47.8465 3.3203 0.0000 0.0000 0.0000
# 3 126.8676 3.3203 230.5459 0.0000 0.0000 0.0000
# 4 0.0000 0.0000 0.0000 17.0346 0.0000 0.0000
# 5 0.0000 0.0000 0.0000 0.0000 38.5752 0.0000
# 6 0.0000 0.0000 0.0000 0.0000 0.0000 -1.8485
#
#
#
# Elastic Compliance Matrix: (Units=1/GPa)
#
#
# Indices 1 2 3 4 5 6 
#
# 1 0.014139 -0.002850 -0.007739 0.000000 0.000000 0.000000
# 2 -0.002850 0.021495 0.001258 0.000000 0.000000 0.000000
# 3 -0.007739 0.001258 0.008578 0.000000 0.000000 0.000000
# 4 0.000000 0.000000 0.000000 0.058704 0.000000 0.000000
# 5 0.000000 0.000000 0.000000 0.000000 0.025923 0.000000
# 6 0.000000 0.000000 0.000000 0.000000 0.000000 -0.540976
#
#
# Mechanical properties :
#
#
# Convention : Reuss Voigt Hill
#
# Bulk Modulus (GPa) = 39.13645 78.24129 58.68887
# Shear Modulus (GPa) = -12.98845 29.36736 8.18945
#
# Velocity S-wave (km/s) = -2.45589 3.69286 1.95010
# Velocity P-wave (km/s) = 3.18305 7.38346 5.68539
#
# Compressibility (1/GPa) = 0.02555163
#
# Stress axis : x y z
#
# Youngs Moduli (GPa) = 70.72690 46.52162 116.57216
#
# Poissons Ratio (x) = 0.13256 0.90221
# Poissons Ratio (y) = 0.20154 -0.14671
# Poissons Ratio (z) = 0.54739 -0.05855
#
# Static dielectric constant tensor:
#      x y z
#    x 1.738520 0.000000 0.000000 
#    y 0.000000 1.851960 0.000000 
#    z 0.000000 0.000000 1.814840 
# 
# From -- ./inp_files/43309.got.cif
#   From: 2010.05.17/outbox.cif.g08.bks.cpg/sg67_22_cif.got.tgz:43309.got - 2010.06.03 18:28:57.
