data_PCOD9505942
_publ_section_title
;
Structure prediction by ZEFSAII (Michael W. Deem and Ramdas Pophale) SiO2 
 PCOD9505942
Probable space group: C C C A
;
_chemical_formula_sum "Si O2"
_cell_formula_units_Z 64
_cell_length_a 5.064518
_cell_length_b 40.603730
_cell_length_c 14.260037
_cell_angle_alpha 90.000000
_cell_angle_beta 90.000000
_cell_angle_gamma 90.000000
_cell_volume 2932.410073
_symmetry_space_group_name_H-M "C C C A"
_symmetry_group_IT_number 68
_space_group.IT_coordinate_system_code '2'
_symmetry_cell_setting 'orthorhombic'
loop_
_space_group_symop_operation_xyz
x,y,z
-x,1/2-y,z
x,1/2-y,1/2-z
-x,y,1/2-z
-x,-y,-z
x,1/2+y,-z
-x,1/2+y,1/2+z
x,-y,1/2+z
1/2+x,1/2+y,z
1/2-x,-y,z
1/2+x,-y,1/2-z
1/2-x,1/2+y,1/2-z
1/2-x,1/2-y,-z
1/2+x,y,-z
1/2-x,y,1/2+z
1/2+x,1/2-y,1/2+z
loop_
_atom_site_type_symbol
_atom_site_label
_atom_site_fract_x
_atom_site_fract_y
_atom_site_fract_z
Si Si1 0.214439 0.895485 0.061244
Si Si2 0.506878 0.172240 0.138151
Si Si3 0.985472 0.712327 0.635200
Si Si4 0.159105 0.033139 0.566316
O O1 0.105104 0.863560 0.112877
O O2 0.180323 0.930831 0.111752
O O3 0.519600 0.895138 0.029741
O O4 0.500000 0.173537 0.250000
O O5 0.294504 0.198580 0.104461
O O6 0.791895 0.185588 0.107163
O O7 0.000000 0.750000 0.603169
O O8 0.000000 0.713310 0.750000
O O9 0.368904 0.032496 0.479372
O O10 0.250000 0.000000 0.620133
#
# Coordination Sequence:
#
# PCOD9505942 Si02
#       4
#    16  16  16  16
#     4  10  19  31  48  70  97 126 154 191 236 279
#     4  10  19  31  49  72  94 120 155 195 237 280
#     4   9  17  30  49  70  90 117 158 200 231 269
#     4   8  14  25  42  65  89 115 151 187 216 255
#
# _framework density 21.825049
#
# number of rings (size 3 to 8) (size 9 to 14) (size 15 to 20)
#    0.000    2.750    0.000    2.250    0.000    3.000 
#    0.000    0.000    0.000   15.000    0.000   22.750 
#    0.000    0.000    0.000    0.000    0.000    0.000 
#
# Total GULP energy -178251.613911 kJ/mol
# GULP energy per Si atom -5570.362935 kJ/mol
# Density = 2.177537 g / cm^3
# Si number density = 21.825049 Si / 1000 Ang^3
#
#
#
# Elastic Constant Matrix: (Units=GPa)
#
#
# Indices 1 2 3 4 5 6 
#
# 1 80.4002 10.5573 -13.0697 0.0000 0.0000 0.0000
# 2 10.5573 202.9186 4.4078 0.0000 0.0000 0.0000
# 3 -13.0697 4.4078 33.2240 0.0000 0.0000 0.0000
# 4 0.0000 0.0000 0.0000 -6.0642 0.0000 0.0000
# 5 0.0000 0.0000 0.0000 0.0000 -0.3488 0.0000
# 6 0.0000 0.0000 0.0000 0.0000 0.0000 35.8010
#
#
#
# Elastic Compliance Matrix: (Units=1/GPa)
#
#
# Indices 1 2 3 4 5 6 
#
# 1 0.013421 -0.000815 0.005388 0.000000 0.000000 0.000000
# 2 -0.000815 0.004992 -0.000983 0.000000 0.000000 0.000000
# 3 0.005388 -0.000983 0.032349 0.000000 0.000000 0.000000
# 4 0.000000 0.000000 0.000000 -0.164903 0.000000 0.000000
# 5 0.000000 0.000000 0.000000 0.000000 -2.867301 0.000000
# 6 0.000000 0.000000 0.000000 0.000000 0.000000 0.027932
#
#
# Mechanical properties :
#
#
# Convention : Reuss Voigt Hill
#
# Bulk Modulus (GPa) = 17.25934 35.59263 26.42599
# Shear Modulus (GPa) = -1.69988 26.85410 12.57711
#
# Velocity S-wave (km/s) = -0.88349 3.51155 2.40317
# Velocity P-wave (km/s) = 2.62383 5.72581 4.45361
#
# Compressibility (1/GPa) = 0.05793964
#
# Stress axis : x y z
#
# Youngs Moduli (GPa) = 74.51220 200.32643 30.91333
#
# Poissons Ratio (x) = 0.16332 -0.16655
# Poissons Ratio (y) = 0.06075 0.03039
# Poissons Ratio (z) = -0.40144 0.19691
#
# Static dielectric constant tensor:
#      x y z
#    x 1.778390 0.000000 0.000000 
#    y 0.000000 1.893070 0.000000 
#    z 0.000000 0.000000 1.816940 
# 
# From -- ./inp_files/35165.got.cif
#   From: 2010.05.17/outbox.cif.g08.bks.cpg/sg68_18_cif.got.tgz:35165.got - 2010.06.03 18:57:09.
