data_PCOD9505008
_publ_section_title
;
Structure prediction by ZEFSAII (Michael W. Deem and Ramdas Pophale) SiO2 
 PCOD9505008
Probable space group: C M M A
;
_chemical_formula_sum "Si O2"
_cell_formula_units_Z 72
_cell_length_a 14.544777
_cell_length_b 26.404224
_cell_length_c 9.779413
_cell_angle_alpha 90.000000
_cell_angle_beta 90.000000
_cell_angle_gamma 90.000000
_cell_volume 3755.720485
_symmetry_space_group_name_H-M "C M M A"
_symmetry_group_IT_number 67
_symmetry_cell_setting 'orthorhombic'
loop_
_space_group_symop_operation_xyz
x,y,z
-x,1/2-y,z
x,-y,-z
-x,1/2+y,-z
-x,-y,-z
x,1/2+y,-z
-x,y,z
x,1/2-y,z
1/2+x,1/2+y,z
1/2-x,-y,z
1/2+x,1/2-y,-z
1/2-x,y,-z
1/2-x,1/2-y,-z
1/2+x,y,-z
1/2-x,1/2+y,z
1/2+x,-y,z
loop_
_atom_site_type_symbol
_atom_site_label
_atom_site_fract_x
_atom_site_fract_y
_atom_site_fract_z
Si Si1 0.000000 0.536791 0.870073
Si Si2 0.305053 0.854572 0.369755
Si Si3 0.500000 0.307828 0.703154
Si Si4 0.154951 0.527269 0.641276
Si Si5 0.000000 0.150023 0.000579
Si Si6 0.816532 0.308786 0.869333
O O1 0.914399 0.526972 0.768456
O O2 0.000000 0.500000 0.000000
O O3 0.000000 0.593896 0.931915
O O4 0.250000 0.834657 0.500000
O O5 0.406503 0.832347 0.350516
O O6 0.321195 0.914351 0.385621
O O7 0.241102 0.839319 0.242951
O O8 0.500000 0.250000 0.663123
O O9 0.500000 0.313408 0.867427
O O10 0.121622 0.500000 0.500000
O O11 0.250000 0.500000 0.678137
O O12 0.909710 0.162593 0.912330
O O13 0.835035 0.250000 0.828340
O O14 0.750000 0.306788 0.000000
#
# Coordination Sequence:
#
# PCOD9505008 Si02
#       6
#     8  16   8  16   8  16
#     4  12  27  42  69 107 137 173 228 296 341 411
#     4  12  25  45  71 104 138 181 235 290 345 414
#     4  12  24  44  71  96 139 186 228 283 351 414
#     4  11  23  46  71  96 135 187 230 275 349 423
#     4  12  24  44  69  99 139 183 232 279 346 417
#     4  11  23  41  69  99 135 180 231 284 344 416
#
# _framework density 19.170756000000001
#
# number of rings (size 3 to 8) (size 9 to 14) (size 15 to 20)
#    0.000    0.444    6.667    2.000    3.111    3.111 
#    0.000    0.000    0.000    0.000    0.000    0.000 
#    0.000    0.000    0.000    0.000    0.000    0.000 
#
# Total GULP energy -201133.886575 kJ/mol
# GULP energy per Si atom -5587.052405 kJ/mol
# Density = 1.912712 g / cm^3
# Si number density = 19.170756 Si / 1000 Ang^3
#
#
#
# Elastic Constant Matrix: (Units=GPa)
#
#
# Indices 1 2 3 4 5 6 
#
# 1 192.7717 69.4513 77.2614 0.0000 0.0000 0.0000
# 2 69.4513 148.6761 55.8177 0.0000 0.0000 0.0000
# 3 77.2614 55.8177 132.7693 0.0000 0.0000 0.0000
# 4 0.0000 0.0000 0.0000 -22.1363 0.0000 0.0000
# 5 0.0000 0.0000 0.0000 0.0000 -75.1177 0.0000
# 6 0.0000 0.0000 0.0000 0.0000 0.0000 33.7775
#
#
#
# Elastic Compliance Matrix: (Units=1/GPa)
#
#
# Indices 1 2 3 4 5 6 
#
# 1 0.007305 -0.002157 -0.003344 0.000000 0.000000 0.000000
# 2 -0.002157 0.008623 -0.002370 0.000000 0.000000 0.000000
# 3 -0.003344 -0.002370 0.010474 0.000000 0.000000 0.000000
# 4 0.000000 0.000000 0.000000 -0.045175 0.000000 0.000000
# 5 0.000000 0.000000 0.000000 0.000000 -0.013312 0.000000
# 6 0.000000 0.000000 0.000000 0.000000 0.000000 0.029606
#
#
# Mechanical properties :
#
#
# Convention : Reuss Voigt Hill
#
# Bulk Modulus (GPa) = 93.80675 97.69755 95.75215
# Shear Modulus (GPa) = 297.32136 5.41714 151.36925
#
# Velocity S-wave (km/s) = 12.46707 1.68282 8.89549
# Velocity P-wave (km/s) = 16.00861 7.40596 12.47244
#
# Compressibility (1/GPa) = 0.01066021
#
# Stress axis : x y z
#
# Youngs Moduli (GPa) = 136.89577 115.96310 95.47132
#
# Poissons Ratio (x) = 0.25011 0.31926
# Poissons Ratio (y) = 0.29526 0.22629
# Poissons Ratio (z) = 0.45779 0.27486
#
# Static dielectric constant tensor:
#      x y z
#    x 1.643850 0.000000 0.000000 
#    y 0.000000 1.697740 0.000000 
#    z 0.000000 0.000000 1.657210 
# 
# From -- ./inp_files/8345.got.cif
#   From: 2010.05.17/outbox.cif.g08.bks.cpg/sg67_5_cif.got.tgz:8345.got - 2010.06.03 18:28:57.
