data_PCOD9505099
_publ_section_title
;
Structure prediction by ZEFSAII (Michael W. Deem and Ramdas Pophale) SiO2 
 PCOD9505099
Probable space group: C M M A
;
_chemical_formula_sum "Si O2"
_cell_formula_units_Z 112
_cell_length_a 14.712380
_cell_length_b 14.150649
_cell_length_c 21.921146
_cell_angle_alpha 90.000000
_cell_angle_beta 90.000000
_cell_angle_gamma 90.000000
_cell_volume 4563.757365
_symmetry_space_group_name_H-M "C M M A"
_symmetry_group_IT_number 67
_symmetry_cell_setting 'orthorhombic'
loop_
_space_group_symop_operation_xyz
x,y,z
-x,1/2-y,z
x,-y,-z
-x,1/2+y,-z
-x,-y,-z
x,1/2+y,-z
-x,y,z
x,1/2-y,z
1/2+x,1/2+y,z
1/2-x,-y,z
1/2+x,1/2-y,-z
1/2-x,y,-z
1/2-x,1/2-y,-z
1/2+x,y,-z
1/2-x,1/2+y,z
1/2+x,-y,z
loop_
_atom_site_type_symbol
_atom_site_label
_atom_site_fract_x
_atom_site_fract_y
_atom_site_fract_z
Si Si1 0.284340 0.134075 0.781385
Si Si2 0.603897 0.393103 0.022207
Si Si3 0.102384 0.358111 0.106163
Si Si4 0.644164 0.858780 0.478839
Si Si5 0.596748 0.366104 0.390551
Si Si6 0.896714 0.136053 0.839854
Si Si7 0.702192 0.634306 0.351778
O O1 0.283721 0.250000 0.781705
O O2 0.340264 0.097857 0.839705
O O3 0.179584 0.105900 0.791863
O O4 0.324341 0.105835 0.716177
O O5 0.500000 0.355348 0.026018
O O6 0.637779 0.384802 0.090888
O O7 0.601008 0.500000 0.000000
O O8 0.647466 0.352328 0.960813
O O9 0.091147 0.250000 0.124645
O O10 0.000000 0.399290 0.101036
O O11 0.612897 0.750000 0.473628
O O12 0.750000 0.857166 0.500000
O O13 0.597565 0.899122 0.538770
O O14 0.644934 0.899227 0.410497
O O15 0.500000 0.392983 0.361769
O O16 0.599547 0.250000 0.391505
O O17 0.692200 0.394111 0.360916
O O18 0.901544 0.250000 0.836270
O O19 0.000000 0.100193 0.831970
O O20 0.699836 0.750000 0.354861
#
# Coordination Sequence:
#
# PCOD9505099 Si02
#       7
#    16  16  16  16  16  16  16
#     4   9  17  27  39  56  77 105 140 172 205 248
#     4   9  17  30  48  67  85 106 135 173 214 251
#     4   9  17  30  46  61  80 107 138 173 212 251
#     4   7  10  17  27  38  56  84 116 151 189 224
#     4   8  12  17  27  44  64  88 122 163 203 238
#     4   9  17  29  44  62  85 110 135 167 209 254
#     4   8  13  21  31  43  64  94 127 164 201 235
#
# _framework density 24.541181999999999
#
# number of rings (size 3 to 8) (size 9 to 14) (size 15 to 20)
#    0.000    3.571    0.000    2.143    0.000    2.857 
#    0.000    7.143    0.000    4.286    0.000    0.000 
#    0.000    0.000    0.000    0.000    0.000   25.714 
#
# Total GULP energy -312203.296151 kJ/mol
# GULP energy per Si atom -5575.058860 kJ/mol
# Density = 2.448533 g / cm^3
# Si number density = 24.541182 Si / 1000 Ang^3
#
#
#
# Elastic Constant Matrix: (Units=GPa)
#
#
# Indices 1 2 3 4 5 6 
#
# 1 48.7757 -9.5806 11.7038 0.0000 0.0000 0.0000
# 2 -9.5806 68.5280 -3.2508 0.0000 0.0000 0.0000
# 3 11.7038 -3.2508 133.4532 0.0000 0.0000 0.0000
# 4 0.0000 0.0000 0.0000 16.0050 0.0000 0.0000
# 5 0.0000 0.0000 0.0000 0.0000 13.4906 0.0000
# 6 0.0000 0.0000 0.0000 0.0000 0.0000 -2.3654
#
#
#
# Elastic Compliance Matrix: (Units=1/GPa)
#
#
# Indices 1 2 3 4 5 6 
#
# 1 0.021511 0.002921 -0.001815 0.000000 0.000000 0.000000
# 2 0.002921 0.015006 0.000109 0.000000 0.000000 0.000000
# 3 -0.001815 0.000109 0.007655 0.000000 0.000000 0.000000
# 4 0.000000 0.000000 0.000000 0.062481 0.000000 0.000000
# 5 0.000000 0.000000 0.000000 0.000000 0.074125 0.000000
# 6 0.000000 0.000000 0.000000 0.000000 0.000000 -0.422754
#
#
# Mechanical properties :
#
#
# Convention : Reuss Voigt Hill
#
# Bulk Modulus (GPa) = 21.45773 27.61129 24.53451
# Shear Modulus (GPa) = -21.84636 22.21834 0.18599
#
# Velocity S-wave (km/s) = -2.98685 3.01217 0.27559
# Velocity P-wave (km/s) = 1.76987 4.83456 3.18123
#
# Compressibility (1/GPa) = 0.04660325
#
# Stress axis : x y z
#
# Youngs Moduli (GPa) = 46.48695 66.63924 130.63123
#
# Poissons Ratio (x) = -0.19467 0.23715
# Poissons Ratio (y) = -0.13580 -0.01428
# Poissons Ratio (z) = 0.08439 -0.00729
#
# Static dielectric constant tensor:
#      x y z
#    x 1.972310 0.000000 0.000000 
#    y 0.000000 2.237520 0.000000 
#    z 0.000000 0.000000 1.960950 
# 
# From -- ./inp_files/39054.got.cif
#   From: 2010.05.17/outbox.cif.g08.bks.cpg/sg67_20_cif.got.tgz:39054.got - 2010.06.03 18:28:57.
