data_PCOD9505060
_publ_section_title
;
Structure prediction by ZEFSAII (Michael W. Deem and Ramdas Pophale) SiO2 
 PCOD9505060
Probable space group: C M M A
;
_chemical_formula_sum "Si O2"
_cell_formula_units_Z 88
_cell_length_a 16.134964
_cell_length_b 15.171645
_cell_length_c 15.109870
_cell_angle_alpha 90.000000
_cell_angle_beta 90.000000
_cell_angle_gamma 90.000000
_cell_volume 3698.804699
_symmetry_space_group_name_H-M "C M M A"
_symmetry_group_IT_number 67
_symmetry_cell_setting 'orthorhombic'
loop_
_space_group_symop_operation_xyz
x,y,z
-x,1/2-y,z
x,-y,-z
-x,1/2+y,-z
-x,-y,-z
x,1/2+y,-z
-x,y,z
x,1/2-y,z
1/2+x,1/2+y,z
1/2-x,-y,z
1/2+x,1/2-y,-z
1/2-x,y,-z
1/2-x,1/2-y,-z
1/2+x,y,-z
1/2-x,1/2+y,z
1/2+x,-y,z
loop_
_atom_site_type_symbol
_atom_site_label
_atom_site_fract_x
_atom_site_fract_y
_atom_site_fract_z
Si Si1 0.826461 0.355607 0.881619
Si Si2 0.000000 0.920787 0.784736
Si Si3 0.366697 0.856394 0.073489
Si Si4 0.869243 0.343613 0.332751
Si Si5 0.095163 0.103317 0.523977
Si Si6 0.699356 0.909791 0.698080
O O1 0.836193 0.250000 0.870876
O O2 0.729389 0.373629 0.901804
O O3 0.848680 0.404224 0.790818
O O4 0.875720 0.381449 0.970140
O O5 0.927685 0.903573 0.859804
O O6 0.927603 0.918809 0.706389
O O7 0.379296 0.750000 0.080061
O O8 0.908727 0.250000 0.306233
O O9 0.865536 0.350927 0.438287
O O10 0.777507 0.344949 0.294798
O O11 0.144151 0.114851 0.614640
O O12 0.000000 0.132115 0.532338
O O13 0.096871 0.000000 0.500000
O O14 0.750000 0.000000 0.682364
#
# Coordination Sequence:
#
# PCOD9505060 Si02
#       6
#    16   8  16  16  16  16
#     4   9  19  37  60  88 122 162 209 263 316 376
#     4  12  21  36  67 103 129 161 216 272 327 382
#     4   9  17  33  59  89 122 159 203 260 321 373
#     4  12  24  39  66 100 127 161 221 281 315 370
#     4  11  25  45  64  89 129 174 212 261 323 388
#     4  12  24  41  65  92 127 174 216 254 328 395
#
# _framework density 23.791471000000001
#
# number of rings (size 3 to 8) (size 9 to 14) (size 15 to 20)
#    0.000    1.273    4.545    3.818    0.000    2.182 
#    1.636    1.818    0.000    1.091    0.000    0.000 
#    0.000    0.000    0.000    0.000    0.000    0.000 
#
# Total GULP energy -245233.515325 kJ/mol
# GULP energy per Si atom -5573.488985 kJ/mol
# Density = 2.373732 g / cm^3
# Si number density = 23.791471 Si / 1000 Ang^3
#
#
#
# Elastic Constant Matrix: (Units=GPa)
#
#
# Indices 1 2 3 4 5 6 
#
# 1 21.1153 2.0085 28.7504 0.0000 0.0000 0.0000
# 2 2.0085 40.5235 -0.4302 0.0000 0.0000 0.0000
# 3 28.7504 -0.4302 229.8320 0.0000 0.0000 0.0000
# 4 0.0000 0.0000 0.0000 36.5502 0.0000 0.0000
# 5 0.0000 0.0000 0.0000 0.0000 44.9649 0.0000
# 6 0.0000 0.0000 0.0000 0.0000 0.0000 180.9553
#
#
#
# Elastic Compliance Matrix: (Units=1/GPa)
#
#
# Indices 1 2 3 4 5 6 
#
# 1 0.057425 -0.002923 -0.007189 0.000000 0.000000 0.000000
# 2 -0.002923 0.024826 0.000412 0.000000 0.000000 0.000000
# 3 -0.007189 0.000412 0.005251 0.000000 0.000000 0.000000
# 4 0.000000 0.000000 0.000000 0.027360 0.000000 0.000000
# 5 0.000000 0.000000 0.000000 0.000000 0.022240 0.000000
# 6 0.000000 0.000000 0.000000 0.000000 0.000000 0.005526
#
#
# Mechanical properties :
#
#
# Convention : Reuss Voigt Hill
#
# Bulk Modulus (GPa) = 14.68348 39.12537 26.90442
# Shear Modulus (GPa) = 27.06675 69.90354 48.48514
#
# Velocity S-wave (km/s) = 3.37659 5.42638 4.51923
# Velocity P-wave (km/s) = 4.62460 7.46603 6.21001
#
# Compressibility (1/GPa) = 0.06810376
#
# Stress axis : x y z
#
# Youngs Moduli (GPa) = 17.41388 40.27991 190.43734
#
# Poissons Ratio (x) = 0.11772 1.36905
# Poissons Ratio (y) = 0.05089 -0.07847
# Poissons Ratio (z) = 0.12519 -0.01660
#
# Static dielectric constant tensor:
#      x y z
#    x 1.838070 0.000000 0.000000 
#    y 0.000000 2.035820 0.000000 
#    z 0.000000 0.000000 1.901170 
# 
# From -- ./inp_files/28498.got.cif
#   From: 2010.05.17/outbox.cif.g08.bks.cpg/sg67_15_cif.got.tgz:28498.got - 2010.06.03 18:28:57.
