data_PCOD9505307
_publ_section_title
;
Structure prediction by ZEFSAII (Michael W. Deem and Ramdas Pophale) SiO2 
 PCOD9505307
Probable space group: C C C A
;
_chemical_formula_sum "Si O2"
_cell_formula_units_Z 72
_cell_length_a 9.673077
_cell_length_b 11.217593
_cell_length_c 28.033947
_cell_angle_alpha 90.000000
_cell_angle_beta 90.000000
_cell_angle_gamma 90.000000
_cell_volume 3041.925486
_symmetry_space_group_name_H-M "C C C A"
_symmetry_group_IT_number 68
_space_group.IT_coordinate_system_code '2'
_symmetry_cell_setting 'orthorhombic'
loop_
_space_group_symop_operation_xyz
x,y,z
-x,1/2-y,z
x,1/2-y,1/2-z
-x,y,1/2-z
-x,-y,-z
x,1/2+y,-z
-x,1/2+y,1/2+z
x,-y,1/2+z
1/2+x,1/2+y,z
1/2-x,-y,z
1/2+x,-y,1/2-z
1/2-x,1/2+y,1/2-z
1/2-x,1/2-y,-z
1/2+x,y,-z
1/2-x,y,1/2+z
1/2+x,1/2-y,1/2+z
loop_
_atom_site_type_symbol
_atom_site_label
_atom_site_fract_x
_atom_site_fract_y
_atom_site_fract_z
Si Si1 0.123608 0.589933 0.011269
Si Si2 0.000000 0.250000 0.335256
Si Si3 0.823851 0.827992 0.914103
Si Si4 0.521103 0.922475 0.895521
Si Si5 0.917066 0.502782 0.295768
O O1 0.250000 0.500000 0.008430
O O2 0.089493 0.622075 0.065472
O O3 0.145678 0.690279 0.970475
O O4 0.000000 0.500000 0.000000
O O5 0.872690 0.258529 0.372686
O O6 0.981944 0.369891 0.304808
O O7 0.665749 0.856904 0.904130
O O8 0.923633 0.942369 0.904322
O O9 0.457247 0.922496 0.843039
O O10 0.750000 0.500000 0.289434
O O11 0.000000 0.551056 0.250000
#
# Coordination Sequence:
#
# PCOD9505307 Si02
#       5
#    16   8  16  16  16
#     4  10  15  28  55  89 121 172 221 257 322 398
#     4  10  23  42  68  96 142 166 223 288 346 408
#     4   9  17  33  59  91 127 179 209 266 338 397
#     4   9  18  34  61  90 131 171 227 272 325 407
#     4  11  25  44  73 100 128 178 232 283 352 413
#
# _framework density 23.669218000000001
#
# number of rings (size 3 to 8) (size 9 to 14) (size 15 to 20)
#    0.000    2.222    4.444    1.000    6.222    0.000 
#    0.000    2.222    0.000    0.000    0.000    0.000 
#    0.000    0.000    0.000    0.000    0.000    0.000 
#
# Total GULP energy -200896.693640 kJ/mol
# GULP energy per Si atom -5580.463712 kJ/mol
# Density = 2.361535 g / cm^3
# Si number density = 23.669218 Si / 1000 Ang^3
#
#
#
# Elastic Constant Matrix: (Units=GPa)
#
#
# Indices 1 2 3 4 5 6 
#
# 1 149.8959 -7.4306 62.8929 0.0000 0.0000 0.0000
# 2 -7.4306 43.5588 5.6113 0.0000 0.0000 0.0000
# 3 62.8929 5.6113 218.5310 0.0000 0.0000 0.0000
# 4 0.0000 0.0000 0.0000 9.9300 0.0000 0.0000
# 5 0.0000 0.0000 0.0000 0.0000 39.3386 0.0000
# 6 0.0000 0.0000 0.0000 0.0000 0.0000 24.9163
#
#
#
# Elastic Compliance Matrix: (Units=1/GPa)
#
#
# Indices 1 2 3 4 5 6 
#
# 1 0.007698 0.001604 -0.002257 0.000000 0.000000 0.000000
# 2 0.001604 0.023368 -0.001062 0.000000 0.000000 0.000000
# 3 -0.002257 -0.001062 0.005253 0.000000 0.000000 0.000000
# 4 0.000000 0.000000 0.000000 0.100705 0.000000 0.000000
# 5 0.000000 0.000000 0.000000 0.000000 0.025420 0.000000
# 6 0.000000 0.000000 0.000000 0.000000 0.000000 0.040134
#
#
# Mechanical properties :
#
#
# Convention : Reuss Voigt Hill
#
# Bulk Modulus (GPa) = 30.40490 59.34809 44.87649
# Shear Modulus (GPa) = 23.04471 38.23113 30.63792
#
# Velocity S-wave (km/s) = 3.12367 4.02335 3.60171
# Velocity P-wave (km/s) = 5.08757 6.83458 6.02473
#
# Compressibility (1/GPa) = 0.03288944
#
# Stress axis : x y z
#
# Youngs Moduli (GPa) = 129.91078 42.79393 190.37847
#
# Poissons Ratio (x) = -0.06863 0.42960
# Poissons Ratio (y) = -0.20835 0.20211
# Poissons Ratio (z) = 0.29315 0.04543
#
# Static dielectric constant tensor:
#      x y z
#    x 1.879270 0.000000 0.000000 
#    y 0.000000 1.948760 0.000000 
#    z 0.000000 0.000000 1.975530 
# 
# From -- ./inp_files/48975.got.cif
#   From: 2010.05.17/outbox.cif.g08.bks.cpg/sg68_25_cif.got.tgz:48975.got - 2010.06.03 18:57:09.
