data_PCOD9505896
_publ_section_title
;
Structure prediction by ZEFSAII (Michael W. Deem and Ramdas Pophale) SiO2 
 PCOD9505896
Probable space group: C C C A
;
_chemical_formula_sum "Si O2"
_cell_formula_units_Z 72
_cell_length_a 27.187025
_cell_length_b 14.449582
_cell_length_c 8.425040
_cell_angle_alpha 90.000000
_cell_angle_beta 90.000000
_cell_angle_gamma 90.000000
_cell_volume 3309.702378
_symmetry_space_group_name_H-M "C C C A"
_symmetry_group_IT_number 68
_space_group.IT_coordinate_system_code '2'
_symmetry_cell_setting 'orthorhombic'
loop_
_space_group_symop_operation_xyz
x,y,z
-x,1/2-y,z
x,1/2-y,1/2-z
-x,y,1/2-z
-x,-y,-z
x,1/2+y,-z
-x,1/2+y,1/2+z
x,-y,1/2+z
1/2+x,1/2+y,z
1/2-x,-y,z
1/2+x,-y,1/2-z
1/2-x,1/2+y,1/2-z
1/2-x,1/2-y,-z
1/2+x,y,-z
1/2-x,y,1/2+z
1/2+x,1/2-y,1/2+z
loop_
_atom_site_type_symbol
_atom_site_label
_atom_site_fract_x
_atom_site_fract_y
_atom_site_fract_z
Si Si1 0.579012 0.028044 0.052007
Si Si2 0.094487 0.285702 0.429030
Si Si3 0.451767 0.871996 0.642285
Si Si4 0.680487 0.583860 0.021028
Si Si5 0.750000 0.000000 0.221446
O O1 0.565183 0.117758 0.946611
O O2 0.636326 0.010502 0.012563
O O3 0.545781 0.941671 0.007694
O O4 0.578482 0.066544 0.230535
O O5 0.090548 0.250000 0.250000
O O6 0.074005 0.216979 0.564186
O O7 0.150202 0.320558 0.464791
O O8 0.500000 0.853388 0.750000
O O9 0.710108 0.554480 0.175371
O O10 0.720075 0.573539 0.883205
#
# Coordination Sequence:
#
# PCOD9505896 Si02
#       5
#    16  16  16  16   8
#     4  10  23  42  68  96 141 186 224 291 361 411
#     4  10  24  43  67 100 144 185 226 294 360 416
#     4  12  24  44  72 104 136 184 246 286 348 430
#     4   9  22  39  69 100 135 186 223 293 358 406
#     4  10  18  42  72 100 136 180 250 284 336 452
#
# _framework density 21.754221999999999
#
# number of rings (size 3 to 8) (size 9 to 14) (size 15 to 20)
#    1.333    0.444    0.000    4.000    3.111    1.778 
#    0.000    2.222    0.000    0.000    0.000    0.000 
#    0.000    0.000    0.000    0.000    0.000    0.000 
#
# Total GULP energy -200529.569930 kJ/mol
# GULP energy per Si atom -5570.265831 kJ/mol
# Density = 2.170471 g / cm^3
# Si number density = 21.754222 Si / 1000 Ang^3
#
#
#
# Elastic Constant Matrix: (Units=GPa)
#
#
# Indices 1 2 3 4 5 6 
#
# 1 120.3639 46.3807 71.4748 0.0000 0.0000 0.0000
# 2 46.3807 115.7528 46.2601 0.0000 0.0000 0.0000
# 3 71.4748 46.2601 138.3309 0.0000 0.0000 0.0000
# 4 0.0000 0.0000 0.0000 32.2419 0.0000 0.0000
# 5 0.0000 0.0000 0.0000 0.0000 20.8119 0.0000
# 6 0.0000 0.0000 0.0000 0.0000 0.0000 34.3012
#
#
#
# Elastic Compliance Matrix: (Units=1/GPa)
#
#
# Indices 1 2 3 4 5 6 
#
# 1 0.012756 -0.002859 -0.005635 0.000000 0.000000 0.000000
# 2 -0.002859 0.010613 -0.002072 0.000000 0.000000 0.000000
# 3 -0.005635 -0.002072 0.010833 0.000000 0.000000 0.000000
# 4 0.000000 0.000000 0.000000 0.031016 0.000000 0.000000
# 5 0.000000 0.000000 0.000000 0.000000 0.048049 0.000000
# 6 0.000000 0.000000 0.000000 0.000000 0.000000 0.029153
#
#
# Mechanical properties :
#
#
# Convention : Reuss Voigt Hill
#
# Bulk Modulus (GPa) = 76.50784 78.07543 77.29164
# Shear Modulus (GPa) = 29.77811 31.49315 30.63563
#
# Velocity S-wave (km/s) = 3.70380 3.80897 3.75675
# Velocity P-wave (km/s) = 7.31686 7.43720 7.37728
#
# Compressibility (1/GPa) = 0.01307056
#
# Stress axis : x y z
#
# Youngs Moduli (GPa) = 78.39473 94.22664 92.30797
#
# Poissons Ratio (x) = 0.26942 0.52013
# Poissons Ratio (y) = 0.22415 0.19124
# Poissons Ratio (z) = 0.44174 0.19521
#
# Static dielectric constant tensor:
#      x y z
#    x 1.837430 0.000000 0.000000 
#    y 0.000000 1.835010 0.000000 
#    z 0.000000 0.000000 1.866340 
# 
# From -- ./inp_files/9449.got.cif
#   From: 2010.05.17/outbox.cif.g08.bks.cpg/sg68_5_cif.got.tgz:9449.got - 2010.06.03 18:57:09.
