data_PCOD9505994
_publ_section_title
;
Structure prediction by ZEFSAII (Michael W. Deem and Ramdas Pophale) SiO2 
 PCOD9505994
Probable space group: C C C A
;
_chemical_formula_sum "Si O2"
_cell_formula_units_Z 64
_cell_length_a 39.696777
_cell_length_b 5.148404
_cell_length_c 16.006561
_cell_angle_alpha 90.000000
_cell_angle_beta 90.000000
_cell_angle_gamma 90.000000
_cell_volume 3271.341633
_symmetry_space_group_name_H-M "C C C A"
_symmetry_group_IT_number 68
_space_group.IT_coordinate_system_code '2'
_symmetry_cell_setting 'orthorhombic'
loop_
_space_group_symop_operation_xyz
x,y,z
-x,1/2-y,z
x,1/2-y,1/2-z
-x,y,1/2-z
-x,-y,-z
x,1/2+y,-z
-x,1/2+y,1/2+z
x,-y,1/2+z
1/2+x,1/2+y,z
1/2-x,-y,z
1/2+x,-y,1/2-z
1/2-x,1/2+y,1/2-z
1/2-x,1/2-y,-z
1/2+x,y,-z
1/2-x,y,1/2+z
1/2+x,1/2-y,1/2+z
loop_
_atom_site_type_symbol
_atom_site_label
_atom_site_fract_x
_atom_site_fract_y
_atom_site_fract_z
Si Si1 0.000000 0.250000 0.441279
Si Si2 0.676849 0.451900 0.058344
Si Si3 0.750000 0.000000 0.939975
Si Si4 0.570749 0.751607 0.350978
Si Si5 0.888690 0.746007 0.149536
O O1 0.033462 0.222146 0.385782
O O2 0.000000 0.500000 0.500000
O O3 0.713660 0.466145 0.103020
O O4 0.647054 0.358609 0.117841
O O5 0.674603 0.734806 0.015308
O O6 0.750000 0.250000 0.000000
O O7 0.569799 0.750000 0.250000
O O8 0.596952 0.525614 0.378113
O O9 0.584722 0.029393 0.378885
O O10 0.887742 0.750000 0.250000
#
# Coordination Sequence:
#
# PCOD9505994 Si02
#       5
#     8  16   8  16  16
#     4  12  25  38  57  84 110 134 174 232 271 308
#     4  10  19  32  54  79 106 141 178 219 263 313
#     4   8  16  30  48  74 104 136 172 206 254 314
#     4  10  22  40  57  75 106 147 178 209 268 335
#     4  10  21  36  56  80 107 140 180 222 264 317
#
# _framework density 19.563838000000001
#
# number of rings (size 3 to 8) (size 9 to 14) (size 15 to 20)
#    0.000    2.000    0.000    3.375    0.000    6.000 
#    0.000    5.000    0.000   13.500    0.000    0.000 
#    0.000    0.000    0.000    0.000    0.000    0.000 
#
# Total GULP energy -178362.343191 kJ/mol
# GULP energy per Si atom -5573.823225 kJ/mol
# Density = 1.951931 g / cm^3
# Si number density = 19.563838 Si / 1000 Ang^3
#
#
#
# Elastic Constant Matrix: (Units=GPa)
#
#
# Indices 1 2 3 4 5 6 
#
# 1 165.8437 17.4235 30.2393 0.0000 0.0000 0.0000
# 2 17.4235 111.1598 16.0220 0.0000 0.0000 0.0000
# 3 30.2393 16.0220 12.7275 0.0000 0.0000 0.0000
# 4 0.0000 0.0000 0.0000 14.7178 0.0000 0.0000
# 5 0.0000 0.0000 0.0000 0.0000 41.0845 0.0000
# 6 0.0000 0.0000 0.0000 0.0000 0.0000 32.3908
#
#
#
# Elastic Compliance Matrix: (Units=1/GPa)
#
#
# Indices 1 2 3 4 5 6 
#
# 1 0.011196 0.002540 -0.029799 0.000000 0.000000 0.000000
# 2 0.002540 0.011566 -0.020595 0.000000 0.000000 0.000000
# 3 -0.029799 -0.020595 0.175295 0.000000 0.000000 0.000000
# 4 0.000000 0.000000 0.000000 0.067945 0.000000 0.000000
# 5 0.000000 0.000000 0.000000 0.000000 0.024340 0.000000
# 6 0.000000 0.000000 0.000000 0.000000 0.000000 0.030873
#
#
# Mechanical properties :
#
#
# Convention : Reuss Voigt Hill
#
# Bulk Modulus (GPa) = 9.77043 46.34451 28.05747
# Shear Modulus (GPa) = 11.08546 32.70835 21.89690
#
# Velocity S-wave (km/s) = 2.38298 4.09330 3.34915
# Velocity P-wave (km/s) = 3.54633 6.78825 5.41557
#
# Compressibility (1/GPa) = 0.10234968
#
# Stress axis : x y z
#
# Youngs Moduli (GPa) = 89.31495 86.45708 5.70466
#
# Poissons Ratio (x) = -0.21961 0.16999
# Poissons Ratio (y) = -0.22687 0.11749
# Poissons Ratio (z) = 2.66149 1.78062
#
# Static dielectric constant tensor:
#      x y z
#    x 1.733120 0.000000 0.000000 
#    y 0.000000 1.679410 0.000000 
#    z 0.000000 0.000000 1.665210 
# 
# From -- ./inp_files/34287.got.cif
#   From: 2010.05.17/outbox.cif.g08.bks.cpg/sg68_18_cif.got.tgz:34287.got - 2010.06.03 18:57:09.
