data_PCOD9505271
_publ_section_title
;
Structure prediction by ZEFSAII (Michael W. Deem and Ramdas Pophale) SiO2 
 PCOD9505271
Probable space group: C M M A
;
_chemical_formula_sum "Si O2"
_cell_formula_units_Z 44
_cell_length_a 24.000000
_cell_length_b 15.000000
_cell_length_c 12.000000
_cell_angle_alpha 90.000000
_cell_angle_beta 90.000000
_cell_angle_gamma 90.000000
_cell_volume 4320.000000
_symmetry_space_group_name_H-M "C M M A"
_symmetry_group_IT_number 67
_symmetry_cell_setting 'orthorhombic'
loop_
_space_group_symop_operation_xyz
x,y,z
-x,1/2-y,z
x,-y,-z
-x,1/2+y,-z
-x,-y,-z
x,1/2+y,-z
-x,y,z
x,1/2-y,z
1/2+x,1/2+y,z
1/2-x,-y,z
1/2+x,1/2-y,-z
1/2-x,y,-z
1/2-x,1/2-y,-z
1/2+x,y,-z
1/2-x,1/2+y,z
1/2+x,-y,z
loop_
_atom_site_type_symbol
_atom_site_label
_atom_site_fract_x
_atom_site_fract_y
_atom_site_fract_z
Si Si1 0.131144 0.996242 0.625323
Si Si2 0.752967 0.151091 0.868473
Si Si3 0.564772 0.143595 0.261432
Si Si4 0.062073 0.358295 0.991996
Si Si5 0.124716 0.851145 0.797391
Si Si6 0.250000 0.000000 0.290457
O O1 0.107057 0.916170 0.699471
O O2 0.112447 0.000000 0.500000
O O3 0.110125 0.089787 0.671815
O O4 0.197344 0.977462 0.633734
O O5 0.778989 0.250000 0.857678
O O6 0.690868 0.154789 0.817000
O O7 0.776989 0.072702 0.794006
O O8 0.750000 0.131444 0.000000
O O9 0.500000 0.123223 0.290717
O O10 0.571188 0.250000 0.270021
O O11 0.573069 0.115106 0.133271
O O12 0.064159 0.250000 0.990665
O O13 0.000000 0.385238 0.023869
O O14 0.103306 0.389243 0.085863
O O15 0.104184 0.750000 0.779952
#
# Coordination Sequence:
#
# PCOD9505271 Si02
#       6
#    16  16  16  16  16   8
#     4  11  24  39  57  79 111 157 203 244 283 333
#     4   9  18  32  52  79 110 142 177 226 288 350
#     4   9  20  39  62  89 117 146 188 240 293 351
#     4   8  15  31  56  84 112 139 170 218 283 351
#     4   9  19  35  54  79 112 143 180 231 282 339
#     4  10  22  38  54  78 112 151 199 242 282 338
#
# _framework density 10.185185000000001
#
# number of rings (size 3 to 8) (size 9 to 14) (size 15 to 20)
#    0.000    2.727    0.000    1.636    2.545    3.273 
#    0.000    1.818    0.000    7.636    0.000    0.000 
#    0.000    0.000    0.000    0.000    0.000    0.000 
#
# Total GULP energy -244952.601299 kJ/mol
# GULP energy per Si atom -5567.104575 kJ/mol
# Density = 1.016200 g / cm^3
# Si number density = 10.185185 Si / 1000 Ang^3
#
#
#
# Elastic Constant Matrix: (Units=GPa)
#
#
# Indices 1 2 3 4 5 6 
#
# 1 31.9721 14.9290 23.6496 0.0000 0.0000 0.0000
# 2 14.9290 34.9736 4.3669 0.0000 0.0000 0.0000
# 3 23.6496 4.3669 17.5260 0.0000 0.0000 0.0000
# 4 0.0000 0.0000 0.0000 23.0589 0.0000 0.0000
# 5 0.0000 0.0000 0.0000 0.0000 14.1839 0.0000
# 6 0.0000 0.0000 0.0000 0.0000 0.0000 -153.2392
#
#
#
# Elastic Compliance Matrix: (Units=1/GPa)
#
#
# Indices 1 2 3 4 5 6 
#
# 1 -0.425465 0.113460 0.545852 0.000000 0.000000 0.000000
# 2 0.113460 -0.000746 -0.152917 0.000000 0.000000 0.000000
# 3 0.545852 -0.152917 -0.641413 0.000000 0.000000 0.000000
# 4 0.000000 0.000000 0.000000 0.043367 0.000000 0.000000
# 5 0.000000 0.000000 0.000000 0.000000 0.070503 0.000000
# 6 0.000000 0.000000 0.000000 0.000000 0.000000 -0.006526
#
#
# Mechanical properties :
#
#
# Convention : Reuss Voigt Hill
#
# Bulk Modulus (GPa) = -18.23700 18.92920 0.34610
# Shear Modulus (GPa) = -2.51086 -20.43088 -11.47087
#
# Velocity S-wave (km/s) = -1.11143 -3.17041 -2.37558
# Velocity P-wave (km/s) = 3.25871 2.02220 2.71187
#
# Compressibility (1/GPa) = -0.05483359
#
# Stress axis : x y z
#
# Youngs Moduli (GPa) = -2.35037 -1341.36691 -1.55906
#
# Poissons Ratio (x) = 152.19127 0.85101
# Poissons Ratio (y) = 0.26667 -0.23841
# Poissons Ratio (z) = 1.28295 -205.11778
#
# Static dielectric constant tensor:
#      x y z
#    x 1.773070 0.000000 0.000000 
#    y 0.000000 1.812090 0.000000 
#    z 0.000000 0.000000 1.652380 
# 
# From -- ./inp_files/21747.got.cif
#   From: 2010.05.17/outbox.ucp.g08.bks.cvg/sg67_11_cif.got.tgz:21747.got - 2010.06.11 16:47:20.
