data_PCOD9505122
_publ_section_title
;
Structure prediction by ZEFSAII (Michael W. Deem and Ramdas Pophale) SiO2 
 PCOD9505122
Probable space group: C M M A
;
_chemical_formula_sum "Si O2"
_cell_formula_units_Z 96
_cell_length_a 28.038001
_cell_length_b 9.114829
_cell_length_c 24.715625
_cell_angle_alpha 90.000000
_cell_angle_beta 90.000000
_cell_angle_gamma 90.000000
_cell_volume 6316.364290
_symmetry_space_group_name_H-M "C M M A"
_symmetry_group_IT_number 67
_symmetry_cell_setting 'orthorhombic'
loop_
_space_group_symop_operation_xyz
x,y,z
-x,1/2-y,z
x,-y,-z
-x,1/2+y,-z
-x,-y,-z
x,1/2+y,-z
-x,y,z
x,1/2-y,z
1/2+x,1/2+y,z
1/2-x,-y,z
1/2+x,1/2-y,-z
1/2-x,y,-z
1/2-x,1/2-y,-z
1/2+x,y,-z
1/2-x,1/2+y,z
1/2+x,-y,z
loop_
_atom_site_type_symbol
_atom_site_label
_atom_site_fract_x
_atom_site_fract_y
_atom_site_fract_z
Si Si1 0.058070 0.419133 0.445420
Si Si2 0.150206 0.073634 0.944234
Si Si3 0.553272 0.071352 0.111820
Si Si4 0.299932 0.573597 0.831834
Si Si5 0.443429 0.425792 0.334604
Si Si6 0.897523 0.928486 0.222750
O O1 0.074171 0.500000 0.500000
O O2 0.072643 0.250000 0.445818
O O3 0.072669 0.498331 0.390034
O O4 0.000000 0.423403 0.445906
O O5 0.150534 0.250000 0.949575
O O6 0.096290 0.026761 0.927622
O O7 0.183296 0.035979 0.892959
O O8 0.164856 0.000000 0.000000
O O9 0.500000 0.020533 0.098211
O O10 0.552965 0.250000 0.111349
O O11 0.568502 0.027056 0.172719
O O12 0.295877 0.750000 0.829169
O O13 0.250000 0.500000 0.818772
O O14 0.343810 0.528634 0.793120
O O15 0.500000 0.453896 0.327171
O O16 0.437802 0.250000 0.339881
O O17 0.415990 0.477477 0.280991
O O18 0.898733 0.750000 0.223217
#
# Coordination Sequence:
#
# PCOD9505122 Si02
#       6
#    16  16  16  16  16  16
#     4   9  16  25  36  52  79 115 150 179 203 228
#     4   9  18  30  43  61  83 104 130 165 201 240
#     4   8  13  23  40  60  81 106 134 163 196 235
#     4   9  18  32  47  62  80 103 131 165 206 247
#     4   9  15  23  39  62  84 108 138 169 201 237
#     4   8  14  25  41  61  83 104 131 167 202 241
#
# _framework density 15.198617
#
# number of rings (size 3 to 8) (size 9 to 14) (size 15 to 20)
#    0.000    3.333    0.000    3.000    0.000    5.333 
#    0.000    2.500    0.000    1.000    0.000    0.000 
#    0.000    0.667    0.000    7.667    0.000    2.667 
#
# Total GULP energy -267205.431417 kJ/mol
# GULP energy per Si atom -5566.779821 kJ/mol
# Density = 1.516402 g / cm^3
# Si number density = 15.198617 Si / 1000 Ang^3
#
#
#
# Elastic Constant Matrix: (Units=GPa)
#
#
# Indices 1 2 3 4 5 6 
#
# 1 49.7380 15.1314 15.2307 0.0000 0.0000 0.0000
# 2 15.1314 19.1922 32.4327 0.0000 0.0000 0.0000
# 3 15.2307 32.4327 109.5828 0.0000 0.0000 0.0000
# 4 0.0000 0.0000 0.0000 20.4035 0.0000 0.0000
# 5 0.0000 0.0000 0.0000 0.0000 10.5072 0.0000
# 6 0.0000 0.0000 0.0000 0.0000 0.0000 15.9603
#
#
#
# Elastic Compliance Matrix: (Units=1/GPa)
#
#
# Indices 1 2 3 4 5 6 
#
# 1 0.027889 -0.030884 0.005264 0.000000 0.000000 0.000000
# 2 -0.030884 0.138441 -0.036681 0.000000 0.000000 0.000000
# 3 0.005264 -0.036681 0.019250 0.000000 0.000000 0.000000
# 4 0.000000 0.000000 0.000000 0.049011 0.000000 0.000000
# 5 0.000000 0.000000 0.000000 0.000000 0.095173 0.000000
# 6 0.000000 0.000000 0.000000 0.000000 0.000000 0.062656
#
#
# Mechanical properties :
#
#
# Convention : Reuss Voigt Hill
#
# Bulk Modulus (GPa) = 16.39934 33.78919 25.09427
# Shear Modulus (GPa) = 9.30498 17.08875 13.19687
#
# Velocity S-wave (km/s) = 2.47700 3.35679 2.94988
# Velocity P-wave (km/s) = 4.35823 6.10771 5.30557
#
# Compressibility (1/GPa) = 0.06097806
#
# Stress axis : x y z
#
# Youngs Moduli (GPa) = 35.85661 7.22331 51.94759
#
# Poissons Ratio (x) = 0.22309 -0.27347
# Poissons Ratio (y) = 1.10740 1.90550
# Poissons Ratio (z) = -0.18876 0.26496
#
# Static dielectric constant tensor:
#      x y z
#    x 1.495760 0.000000 0.000000 
#    y 0.000000 1.508920 0.000000 
#    z 0.000000 0.000000 1.501020 
# 
# From -- ./inp_files/42692.got.cif
#   From: 2010.05.17/outbox.cif.g08.bks.cpg/sg67_22_cif.got.tgz:42692.got - 2010.06.03 18:28:57.
