data_PCOD9505211
_publ_section_title
;
Structure prediction by ZEFSAII (Michael W. Deem and Ramdas Pophale) SiO2 
 PCOD9505211
Probable space group: C M M A
;
_chemical_formula_sum "Si O2"
_cell_formula_units_Z 48
_cell_length_a 21.000000
_cell_length_b 9.000000
_cell_length_c 27.000000
_cell_angle_alpha 90.000000
_cell_angle_beta 90.000000
_cell_angle_gamma 90.000000
_cell_volume 5103.000000
_symmetry_space_group_name_H-M "C M M A"
_symmetry_group_IT_number 67
_symmetry_cell_setting 'orthorhombic'
loop_
_space_group_symop_operation_xyz
x,y,z
-x,1/2-y,z
x,-y,-z
-x,1/2+y,-z
-x,-y,-z
x,1/2+y,-z
-x,y,z
x,1/2-y,z
1/2+x,1/2+y,z
1/2-x,-y,z
1/2+x,1/2-y,-z
1/2-x,y,-z
1/2-x,1/2-y,-z
1/2+x,y,-z
1/2-x,1/2+y,z
1/2+x,-y,z
loop_
_atom_site_type_symbol
_atom_site_label
_atom_site_fract_x
_atom_site_fract_y
_atom_site_fract_z
Si Si1 0.685271 0.421037 0.775165
Si Si2 0.928315 0.570645 0.445631
Si Si3 0.071130 0.426347 0.946236
Si Si4 0.677886 0.569939 0.376772
Si Si5 0.686195 0.079547 0.893951
Si Si6 0.073970 0.929307 0.710044
O O1 0.689916 0.250000 0.758346
O O2 0.750000 0.500000 0.756784
O O3 0.687349 0.423407 0.834401
O O4 0.615879 0.478013 0.757724
O O5 0.930618 0.500000 0.500000
O O6 0.922810 0.750000 0.446772
O O7 0.865582 0.499961 0.420500
O O8 0.000000 0.536985 0.423095
O O9 0.077939 0.250000 0.950820
O O10 0.124909 0.493264 0.912082
O O11 0.000000 0.459319 0.927290
O O12 0.076931 0.500000 0.000000
O O13 0.683973 0.750000 0.381115
O O14 0.750000 0.500000 0.373044
O O15 0.627582 0.537548 0.331912
O O16 0.684413 0.250000 0.910466
O O17 0.750000 0.000000 0.912387
O O18 0.067566 0.750000 0.710702
O O19 0.000000 0.985435 0.705919
#
# Coordination Sequence:
#
# PCOD9505211 Si02
#       6
#    16  16  16  16  16  16
#     4   9  18  33  54  78 106 140 176 217 263 314
#     4  10  21  38  60  85 113 144 180 223 271 324
#     4  10  21  37  56  78 106 139 176 220 269 321
#     4  11  22  36  56  81 111 147 186 227 272 321
#     4  10  20  34  54  80 109 142 180 221 266 317
#     4   9  18  33  54  80 108 140 180 223 267 318
#
# _framework density 9.4062319999999993
#
# number of rings (size 3 to 8) (size 9 to 14) (size 15 to 20)
#    0.000    2.167    0.000    3.000    0.000    4.667 
#    0.000    5.833    0.000    2.500    0.000    0.000 
#    0.000    0.000    0.000    0.000    0.000    0.000 
#
# Total GULP energy -267247.100188 kJ/mol
# GULP energy per Si atom -5567.647921 kJ/mol
# Density = 0.938482 g / cm^3
# Si number density = 9.406232 Si / 1000 Ang^3
#
#
#
# Elastic Constant Matrix: (Units=GPa)
#
#
# Indices 1 2 3 4 5 6 
#
# 1 219.7796 73.1166 45.9396 0.0000 0.0000 0.0000
# 2 73.1166 80.6052 27.2911 0.0000 0.0000 0.0000
# 3 45.9396 27.2911 18.5267 0.0000 0.0000 0.0000
# 4 0.0000 0.0000 0.0000 13.4587 0.0000 0.0000
# 5 0.0000 0.0000 0.0000 0.0000 35.7138 0.0000
# 6 0.0000 0.0000 0.0000 0.0000 0.0000 39.8892
#
#
#
# Elastic Compliance Matrix: (Units=1/GPa)
#
#
# Indices 1 2 3 4 5 6 
#
# 1 0.009512 -0.001282 -0.021698 0.000000 0.000000 0.000000
# 2 -0.001282 0.024923 -0.033535 0.000000 0.000000 0.000000
# 3 -0.021698 -0.033535 0.157178 0.000000 0.000000 0.000000
# 4 0.000000 0.000000 0.000000 0.074301 0.000000 0.000000
# 5 0.000000 0.000000 0.000000 0.000000 0.028000 0.000000
# 6 0.000000 0.000000 0.000000 0.000000 0.000000 0.025069
#
#
# Mechanical properties :
#
#
# Convention : Reuss Voigt Hill
#
# Bulk Modulus (GPa) = 12.72524 67.95622 40.34073
# Shear Modulus (GPa) = 10.91207 29.31662 20.11435
#
# Velocity S-wave (km/s) = 2.41102 3.95189 3.27341
# Velocity P-wave (km/s) = 3.81178 7.55147 5.98140
#
# Compressibility (1/GPa) = 0.07858399
#
# Stress axis : x y z
#
# Youngs Moduli (GPa) = 105.13222 40.12358 6.36220
#
# Poissons Ratio (x) = 0.05143 0.13805
# Poissons Ratio (y) = 0.13475 0.21336
# Poissons Ratio (z) = 2.28114 1.34554
#
# Static dielectric constant tensor:
#      x y z
#    x 1.654590 0.000000 0.000000 
#    y 0.000000 1.648390 0.000000 
#    z 0.000000 0.000000 1.727400 
# 
# From -- ./inp_files/44590.got.cif
#   From: 2010.05.17/outbox.ucp.g08.bks.cvg/sg67_23_cif.got.tgz:44590.got - 2010.06.11 16:47:20.
