data_PCOD9505371
_publ_section_title
;
Structure prediction by ZEFSAII (Michael W. Deem and Ramdas Pophale) SiO2 
 PCOD9505371
Probable space group: C C C A
;
_chemical_formula_sum "Si O2"
_cell_formula_units_Z 48
_cell_length_a 5.348642
_cell_length_b 24.394432
_cell_length_c 16.276682
_cell_angle_alpha 90.000000
_cell_angle_beta 90.000000
_cell_angle_gamma 90.000000
_cell_volume 2123.733997
_symmetry_space_group_name_H-M "C C C A"
_symmetry_group_IT_number 68
_space_group.IT_coordinate_system_code '2'
_symmetry_cell_setting 'orthorhombic'
loop_
_space_group_symop_operation_xyz
x,y,z
-x,1/2-y,z
x,1/2-y,1/2-z
-x,y,1/2-z
-x,-y,-z
x,1/2+y,-z
-x,1/2+y,1/2+z
x,-y,1/2+z
1/2+x,1/2+y,z
1/2-x,-y,z
1/2+x,-y,1/2-z
1/2-x,1/2+y,1/2-z
1/2-x,1/2-y,-z
1/2+x,y,-z
1/2-x,y,1/2+z
1/2+x,1/2-y,1/2+z
loop_
_atom_site_type_symbol
_atom_site_label
_atom_site_fract_x
_atom_site_fract_y
_atom_site_fract_z
Si Si1 0.069598 0.561409 0.528871
Si Si2 0.748582 0.400877 0.302663
Si Si3 0.747368 0.773414 0.656040
O O1 0.289798 0.587403 0.472140
O O2 0.197179 0.563098 0.617530
O O3 0.000000 0.500000 0.500000
O O4 0.500000 0.413954 0.250000
O O5 0.731905 0.338426 0.335040
O O6 0.000000 0.404722 0.250000
O O7 0.500000 0.750000 0.614953
O O8 0.748329 0.750000 0.750000
O O9 0.000000 0.750000 0.617730
#
# Coordination Sequence:
#
# PCOD9505371 Si02
#       3
#    16  16  16
#     4  10  23  45  64  84 128 178 203 261 343 387
#     4  12  21  35  66 102 119 163 228 272 307 390
#     4  10  16  30  51  90 131 157 189 268 335 358
#
# _framework density 22.601700000000001
#
# number of rings (size 3 to 8) (size 9 to 14) (size 15 to 20)
#    0.000    1.333    6.667    2.000    0.000    0.000 
#    0.000   13.333    0.000    6.000    0.000    0.000 
#    0.000    0.000    0.000    0.000    0.000    0.000 
#
# Total GULP energy -133874.529691 kJ/mol
# GULP energy per Si atom -5578.105404 kJ/mol
# Density = 2.255026 g / cm^3
# Si number density = 22.601700 Si / 1000 Ang^3
#
#
#
# Elastic Constant Matrix: (Units=GPa)
#
#
# Indices 1 2 3 4 5 6 
#
# 1 284.8603 27.6737 64.0149 0.0000 0.0000 0.0000
# 2 27.6737 92.5899 55.9589 0.0000 0.0000 0.0000
# 3 64.0149 55.9589 88.2532 0.0000 0.0000 0.0000
# 4 0.0000 0.0000 0.0000 433.2262 0.0000 0.0000
# 5 0.0000 0.0000 0.0000 0.0000 39.0600 0.0000
# 6 0.0000 0.0000 0.0000 0.0000 0.0000 15.7849
#
#
#
# Elastic Compliance Matrix: (Units=1/GPa)
#
#
# Indices 1 2 3 4 5 6 
#
# 1 0.004246 0.000960 -0.003689 0.000000 0.000000 0.000000
# 2 0.000960 0.017728 -0.011937 0.000000 0.000000 0.000000
# 3 -0.003689 -0.011937 0.021576 0.000000 0.000000 0.000000
# 4 0.000000 0.000000 0.000000 0.002308 0.000000 0.000000
# 5 0.000000 0.000000 0.000000 0.000000 0.025602 0.000000
# 6 0.000000 0.000000 0.000000 0.000000 0.000000 0.063352
#
#
# Mechanical properties :
#
#
# Convention : Reuss Voigt Hill
#
# Bulk Modulus (GPa) = 70.33246 84.55538 77.44392
# Shear Modulus (GPa) = 29.60628 118.81794 74.21211
#
# Velocity S-wave (km/s) = 3.62320 7.25841 5.73638
# Velocity P-wave (km/s) = 6.97777 10.37970 8.84385
#
# Compressibility (1/GPa) = 0.01421819
#
# Stress axis : x y z
#
# Youngs Moduli (GPa) = 235.50539 56.40826 46.34780
#
# Poissons Ratio (x) = -0.05417 0.17097
# Poissons Ratio (y) = -0.22618 0.55327
# Poissons Ratio (z) = 0.86877 0.67337
#
# Static dielectric constant tensor:
#      x y z
#    x 1.940880 0.000000 0.000000 
#    y 0.000000 0.195980 0.000000 
#    z 0.000000 0.000000 1.875940 
# 
# From -- ./inp_files/18155.got.cif
#   From: 2010.05.17/outbox.cif.g08.bks.cpg/sg68_10_cif.got.tgz:18155.got - 2010.06.03 18:57:09.
