data_PCOD9505012
_publ_section_title
;
Structure prediction by ZEFSAII (Michael W. Deem and Ramdas Pophale) SiO2 
 PCOD9505012
Probable space group: C M M A
;
_chemical_formula_sum "Si O2"
_cell_formula_units_Z 56
_cell_length_a 33.117907
_cell_length_b 15.421683
_cell_length_c 5.078313
_cell_angle_alpha 90.000000
_cell_angle_beta 90.000000
_cell_angle_gamma 90.000000
_cell_volume 2593.666418
_symmetry_space_group_name_H-M "C M M A"
_symmetry_group_IT_number 67
_symmetry_cell_setting 'orthorhombic'
loop_
_space_group_symop_operation_xyz
x,y,z
-x,1/2-y,z
x,-y,-z
-x,1/2+y,-z
-x,-y,-z
x,1/2+y,-z
-x,y,z
x,1/2-y,z
1/2+x,1/2+y,z
1/2-x,-y,z
1/2+x,1/2-y,-z
1/2-x,y,-z
1/2-x,1/2-y,-z
1/2+x,y,-z
1/2-x,1/2+y,z
1/2+x,-y,z
loop_
_atom_site_type_symbol
_atom_site_label
_atom_site_fract_x
_atom_site_fract_y
_atom_site_fract_z
Si Si1 0.084378 0.917637 0.333942
Si Si2 0.778829 0.250000 0.750446
Si Si3 0.319830 0.940506 0.745254
Si Si4 0.454065 0.652267 0.184970
O O1 0.131781 0.928886 0.282187
O O2 0.073407 0.847215 0.554246
O O3 0.069196 0.000000 0.500000
O O4 0.063406 0.902882 0.055766
O O5 0.750000 0.250000 0.500000
O O6 0.802761 0.342201 0.752373
O O7 0.750000 0.250000 0.000000
O O8 0.305796 0.000000 0.500000
O O9 0.311067 0.000000 0.000000
O O10 0.500000 0.627267 0.253439
O O11 0.454952 0.750000 0.079652
#
# Coordination Sequence:
#
# PCOD9505012 Si02
#       4
#    16   8  16  16
#     4  11  23  42  64  93 127 174 227 271 334 397
#     4  12  28  46  74 112 135 180 231 262 346 424
#     4  11  25  47  71 103 143 180 225 284 336 399
#     4  11  24  39  60  93 131 174 222 278 337 388
#
# _framework density 21.591059000000001
#
# number of rings (size 3 to 8) (size 9 to 14) (size 15 to 20)
#    0.000    0.857    0.000    7.714    4.000    9.143 
#    0.000    0.000    0.000    0.000    0.000    0.000 
#    0.000    0.000    0.000    0.000    0.000    0.000 
#
# Total GULP energy -156378.505785 kJ/mol
# GULP energy per Si atom -5584.946635 kJ/mol
# Density = 2.154192 g / cm^3
# Si number density = 21.591059 Si / 1000 Ang^3
#
#
#
# Elastic Constant Matrix: (Units=GPa)
#
#
# Indices 1 2 3 4 5 6 
#
# 1 43.2832 51.4443 36.1693 0.0000 0.0000 0.0000
# 2 51.4443 184.9055 60.0322 0.0000 0.0000 0.0000
# 3 36.1693 60.0322 182.9494 0.0000 0.0000 0.0000
# 4 0.0000 0.0000 0.0000 44.8782 0.0000 0.0000
# 5 0.0000 0.0000 0.0000 0.0000 26.2025 0.0000
# 6 0.0000 0.0000 0.0000 0.0000 0.0000 30.7558
#
#
#
# Elastic Compliance Matrix: (Units=1/GPa)
#
#
# Indices 1 2 3 4 5 6 
#
# 1 0.037521 -0.008988 -0.004469 0.000000 0.000000 0.000000
# 2 -0.008988 0.008206 -0.000916 0.000000 0.000000 0.000000
# 3 -0.004469 -0.000916 0.006650 0.000000 0.000000 0.000000
# 4 0.000000 0.000000 0.000000 0.022283 0.000000 0.000000
# 5 0.000000 0.000000 0.000000 0.000000 0.038164 0.000000
# 6 0.000000 0.000000 0.000000 0.000000 0.000000 0.032514
#
#
# Mechanical properties :
#
#
# Convention : Reuss Voigt Hill
#
# Bulk Modulus (GPa) = 42.31589 78.49219 60.40404
# Shear Modulus (GPa) = 27.47857 37.93347 32.70602
#
# Velocity S-wave (km/s) = 3.57134 4.19609 3.89626
# Velocity P-wave (km/s) = 6.05370 7.74010 6.94826
#
# Compressibility (1/GPa) = 0.02363178
#
# Stress axis : x y z
#
# Youngs Moduli (GPa) = 26.65198 121.85949 150.37777
#
# Poissons Ratio (x) = 1.09530 0.67197
# Poissons Ratio (y) = 0.23955 0.13771
# Poissons Ratio (z) = 0.11910 0.11159
#
# Static dielectric constant tensor:
#      x y z
#    x 1.756820 0.000000 0.000000 
#    y 0.000000 1.975670 0.000000 
#    z 0.000000 0.000000 1.758610 
# 
# From -- ./inp_files/4448.got.cif
#   From: 2010.05.17/outbox.cif.g08.bks.cpg/sg67_3_cif.got.tgz:4448.got - 2010.06.03 18:28:57.
