data_PCOD9505829
_publ_section_title
;
Structure prediction by ZEFSAII (Michael W. Deem and Ramdas Pophale) SiO2 
 PCOD9505829
Probable space group: C C C A
;
_chemical_formula_sum "Si O2"
_cell_formula_units_Z 96
_cell_length_a 14.576693
_cell_length_b 17.739756
_cell_length_c 19.879662
_cell_angle_alpha 90.000000
_cell_angle_beta 90.000000
_cell_angle_gamma 90.000000
_cell_volume 5140.621702
_symmetry_space_group_name_H-M "C C C A"
_symmetry_group_IT_number 68
_space_group.IT_coordinate_system_code '2'
_symmetry_cell_setting 'orthorhombic'
loop_
_space_group_symop_operation_xyz
x,y,z
-x,1/2-y,z
x,1/2-y,1/2-z
-x,y,1/2-z
-x,-y,-z
x,1/2+y,-z
-x,1/2+y,1/2+z
x,-y,1/2+z
1/2+x,1/2+y,z
1/2-x,-y,z
1/2+x,-y,1/2-z
1/2-x,1/2+y,1/2-z
1/2-x,1/2-y,-z
1/2+x,y,-z
1/2-x,y,1/2+z
1/2+x,1/2-y,1/2+z
loop_
_atom_site_type_symbol
_atom_site_label
_atom_site_fract_x
_atom_site_fract_y
_atom_site_fract_z
Si Si1 0.649882 0.043917 0.348236
Si Si2 0.853601 0.686344 0.629535
Si Si3 0.002067 0.579854 0.669834
Si Si4 0.313847 0.139024 0.879746
Si Si5 0.296853 0.835616 0.747452
Si Si6 0.737317 0.089940 0.472474
O O1 0.640481 0.100632 0.285980
O O2 0.656252 0.092198 0.416845
O O3 0.750000 0.000000 0.340630
O O4 0.566937 0.985895 0.353082
O O5 0.953413 0.656582 0.646565
O O6 0.848134 0.774736 0.618042
O O7 0.789488 0.669321 0.695076
O O8 0.815223 0.637740 0.566547
O O9 0.000000 0.577628 0.750000
O O10 0.104436 0.582542 0.641429
O O11 0.238784 0.138933 0.820217
O O12 0.278918 0.120612 0.953787
O O13 0.334144 0.750000 0.750000
O O14 0.750000 0.000000 0.479835
#
# Coordination Sequence:
#
# PCOD9505829 Si02
#       6
#    16  16  16  16  16  16
#     4  10  18  37  57  75 116 160 189 224 304 361
#     4  10  19  38  55  80 120 154 179 239 308 350
#     4  12  21  34  59  89 113 145 188 249 303 342
#     4  11  22  31  57  92 113 141 201 246 286 342
#     4   9  18  34  58  84 113 151 196 241 281 348
#     4  10  20  38  56  76 113 161 193 224 281 361
#
# _framework density 18.674785
#
# number of rings (size 3 to 8) (size 9 to 14) (size 15 to 20)
#    0.000    1.667    6.667    1.000    0.000    3.333 
#    0.000    0.000    0.000    0.500    0.000    0.000 
#    0.000    0.000    0.000    0.000    0.000    0.000 
#
# Total GULP energy -267506.252001 kJ/mol
# GULP energy per Si atom -5573.046917 kJ/mol
# Density = 1.863228 g / cm^3
# Si number density = 18.674785 Si / 1000 Ang^3
#
#
#
# Elastic Constant Matrix: (Units=GPa)
#
#
# Indices 1 2 3 4 5 6 
#
# 1 15.6035 3.0042 13.3400 0.0000 0.0000 0.0000
# 2 3.0042 64.9694 18.3442 0.0000 0.0000 0.0000
# 3 13.3400 18.3442 137.8317 0.0000 0.0000 0.0000
# 4 0.0000 0.0000 0.0000 38.1460 0.0000 0.0000
# 5 0.0000 0.0000 0.0000 0.0000 13.4261 0.0000
# 6 0.0000 0.0000 0.0000 0.0000 0.0000 19.3454
#
#
#
# Elastic Compliance Matrix: (Units=1/GPa)
#
#
# Indices 1 2 3 4 5 6 
#
# 1 0.069988 -0.001375 -0.006591 0.000000 0.000000 0.000000
# 2 -0.001375 0.016020 -0.001999 0.000000 0.000000 0.000000
# 3 -0.006591 -0.001999 0.008159 0.000000 0.000000 0.000000
# 4 0.000000 0.000000 0.000000 0.026215 0.000000 0.000000
# 5 0.000000 0.000000 0.000000 0.000000 0.074482 0.000000
# 6 0.000000 0.000000 0.000000 0.000000 0.000000 0.051692
#
#
# Mechanical properties :
#
#
# Convention : Reuss Voigt Hill
#
# Bulk Modulus (GPa) = 13.47045 31.97572 22.72309
# Shear Modulus (GPa) = 17.16852 26.43126 21.79989
#
# Velocity S-wave (km/s) = 3.03535 3.76619 3.42035
# Velocity P-wave (km/s) = 4.41739 6.00598 5.27187
#
# Compressibility (1/GPa) = 0.07423656
#
# Stress axis : x y z
#
# Youngs Moduli (GPa) = 14.28823 62.42248 122.56175
#
# Poissons Ratio (x) = 0.08586 0.80777
# Poissons Ratio (y) = 0.01965 0.24500
# Poissons Ratio (z) = 0.09417 0.12478
#
# Static dielectric constant tensor:
#      x y z
#    x 1.630870 0.000000 0.000000 
#    y 0.000000 1.696560 0.000000 
#    z 0.000000 0.000000 1.643680 
# 
# From -- ./inp_files/32027.got.cif
#   From: 2010.05.17/outbox.cif.g08.bks.cpg/sg68_17_cif.got.tgz:32027.got - 2010.06.03 18:57:09.
