data_PCOD9505895
_publ_section_title
;
Structure prediction by ZEFSAII (Michael W. Deem and Ramdas Pophale) SiO2 
 PCOD9505895
Probable space group: C C C A
;
_chemical_formula_sum "Si O2"
_cell_formula_units_Z 96
_cell_length_a 31.535599
_cell_length_b 14.009648
_cell_length_c 10.643619
_cell_angle_alpha 90.000000
_cell_angle_beta 90.000000
_cell_angle_gamma 90.000000
_cell_volume 4702.378989
_symmetry_space_group_name_H-M "C C C A"
_symmetry_group_IT_number 68
_space_group.IT_coordinate_system_code '2'
_symmetry_cell_setting 'orthorhombic'
loop_
_space_group_symop_operation_xyz
x,y,z
-x,1/2-y,z
x,1/2-y,1/2-z
-x,y,1/2-z
-x,-y,-z
x,1/2+y,-z
-x,1/2+y,1/2+z
x,-y,1/2+z
1/2+x,1/2+y,z
1/2-x,-y,z
1/2+x,-y,1/2-z
1/2-x,1/2+y,1/2-z
1/2-x,1/2-y,-z
1/2+x,y,-z
1/2-x,y,1/2+z
1/2+x,1/2-y,1/2+z
loop_
_atom_site_type_symbol
_atom_site_label
_atom_site_fract_x
_atom_site_fract_y
_atom_site_fract_z
Si Si1 0.901684 0.984436 0.034567
Si Si2 0.920273 0.750000 0.750000
Si Si3 0.654775 0.150199 0.600177
Si Si4 0.048082 0.955857 0.715345
Si Si5 0.669568 0.841008 0.537290
Si Si6 0.215662 0.250000 0.750000
Si Si7 0.278121 0.593067 0.318488
O O1 0.877771 0.882769 0.034298
O O2 0.864033 0.062061 0.023620
O O3 0.923755 0.004883 0.168510
O O4 0.933668 0.992846 0.917518
O O5 0.887168 0.798564 0.655084
O O6 0.947444 0.659569 0.706061
O O7 0.674294 0.235238 0.520321
O O8 0.686729 0.114870 0.709802
O O9 0.000000 0.980827 0.750000
O O10 0.687292 0.825818 0.675413
O O11 0.697607 0.909928 0.450562
O O12 0.247170 0.183711 0.671012
O O13 0.250000 0.500000 0.292937
#
# Coordination Sequence:
#
# PCOD9505895 Si02
#       7
#    16   8  16  16  16   8  16
#     4  11  25  41  71 100 130 184 224 272 344 421
#     4  10  18  42  70  95 122 182 226 259 326 426
#     4  11  21  43  68  92 133 176 228 273 328 406
#     4  11  23  43  70 106 138 168 219 287 347 411
#     4  12  24  43  64  90 136 177 229 272 339 406
#     4  12  27  40  60  97 131 176 223 297 336 380
#     4  12  25  43  65  95 132 177 232 289 341 383
#
# _framework density 20.415198
#
# number of rings (size 3 to 8) (size 9 to 14) (size 15 to 20)
#    0.000    0.667    5.000    3.250    4.667    0.667 
#    0.000    0.000    0.000    1.000    0.000    0.000 
#    0.000    0.000    0.000    0.000    0.000    0.000 
#
# Total GULP energy -267893.045821 kJ/mol
# GULP energy per Si atom -5581.105121 kJ/mol
# Density = 2.036873 g / cm^3
# Si number density = 20.415198 Si / 1000 Ang^3
#
#
#
# Elastic Constant Matrix: (Units=GPa)
#
#
# Indices 1 2 3 4 5 6 
#
# 1 104.7786 32.2814 42.2239 0.0000 0.0000 0.0000
# 2 32.2814 90.1290 21.1859 0.0000 0.0000 0.0000
# 3 42.2239 21.1859 80.1207 0.0000 0.0000 0.0000
# 4 0.0000 0.0000 0.0000 6.0149 0.0000 0.0000
# 5 0.0000 0.0000 0.0000 0.0000 27.8677 0.0000
# 6 0.0000 0.0000 0.0000 0.0000 0.0000 33.5906
#
#
#
# Elastic Compliance Matrix: (Units=1/GPa)
#
#
# Indices 1 2 3 4 5 6 
#
# 1 0.012945 -0.003234 -0.005967 0.000000 0.000000 0.000000
# 2 -0.003234 0.012638 -0.001638 0.000000 0.000000 0.000000
# 3 -0.005967 -0.001638 0.016059 0.000000 0.000000 0.000000
# 4 0.000000 0.000000 0.000000 0.166255 0.000000 0.000000
# 5 0.000000 0.000000 0.000000 0.000000 0.035884 0.000000
# 6 0.000000 0.000000 0.000000 0.000000 0.000000 0.029770
#
#
# Mechanical properties :
#
#
# Convention : Reuss Voigt Hill
#
# Bulk Modulus (GPa) = 50.08700 51.82343 50.95522
# Shear Modulus (GPa) = 16.56273 25.45045 21.00659
#
# Velocity S-wave (km/s) = 2.85141 3.53461 3.21123
# Velocity P-wave (km/s) = 5.95216 6.48828 6.22599
#
# Compressibility (1/GPa) = 0.01996526
#
# Stress axis : x y z
#
# Youngs Moduli (GPa) = 77.25126 79.12382 62.27136
#
# Poissons Ratio (x) = 0.25587 0.37156
# Poissons Ratio (y) = 0.24982 0.10198
# Poissons Ratio (z) = 0.46095 0.12958
#
# Static dielectric constant tensor:
#      x y z
#    x 1.737270 0.000000 0.000000 
#    y 0.000000 1.815510 0.000000 
#    z 0.000000 0.000000 1.756600 
# 
# From -- ./inp_files/17737.got.cif
#   From: 2010.05.17/outbox.cif.g08.bks.cpg/sg68_9_cif.got.tgz:17737.got - 2010.06.03 18:57:09.
