data_PCOD9505144
_publ_section_title
;
Structure prediction by ZEFSAII (Michael W. Deem and Ramdas Pophale) SiO2 
 PCOD9505144
Probable space group: C M M A
;
_chemical_formula_sum "Si O2"
_cell_formula_units_Z 96
_cell_length_a 19.874286
_cell_length_b 9.273189
_cell_length_c 31.739202
_cell_angle_alpha 90.000000
_cell_angle_beta 90.000000
_cell_angle_gamma 90.000000
_cell_volume 5849.471778
_symmetry_space_group_name_H-M "C M M A"
_symmetry_group_IT_number 67
_symmetry_cell_setting 'orthorhombic'
loop_
_space_group_symop_operation_xyz
x,y,z
-x,1/2-y,z
x,-y,-z
-x,1/2+y,-z
-x,-y,-z
x,1/2+y,-z
-x,y,z
x,1/2-y,z
1/2+x,1/2+y,z
1/2-x,-y,z
1/2+x,1/2-y,-z
1/2-x,y,-z
1/2-x,1/2-y,-z
1/2+x,y,-z
1/2-x,1/2+y,z
1/2+x,-y,z
loop_
_atom_site_type_symbol
_atom_site_label
_atom_site_fract_x
_atom_site_fract_y
_atom_site_fract_z
Si Si1 0.582094 0.083505 0.042158
Si Si2 0.179111 0.077036 0.713770
Si Si3 0.920975 0.577367 0.211406
Si Si4 0.421513 0.576959 0.543233
Si Si5 0.320936 0.076788 0.382480
Si Si6 0.581932 0.416131 0.873930
O O1 0.500000 0.082885 0.042294
O O2 0.603311 0.250000 0.041766
O O3 0.604109 0.001942 0.084495
O O4 0.603311 0.000000 0.000000
O O5 0.188250 0.250000 0.715891
O O6 0.123855 0.036935 0.748446
O O7 0.158337 0.041857 0.665654
O O8 0.250000 0.000000 0.721979
O O9 0.915409 0.750000 0.204750
O O10 0.898575 0.495244 0.169220
O O11 0.000000 0.545783 0.218767
O O12 0.400501 0.500000 0.500000
O O13 0.500000 0.541524 0.550887
O O14 0.416731 0.750000 0.538073
O O15 0.375576 0.534588 0.582701
O O16 0.312301 0.250000 0.384773
O O17 0.250000 0.000000 0.390537
O O18 0.500000 0.416928 0.874641
O O19 0.603737 0.250000 0.874869
#
# Coordination Sequence:
#
# PCOD9505144 Si02
#       6
#    16  16  16  16  16  16
#     4   9  15  22  33  50  75 109 147 184 223 269
#     4   9  18  32  49  68  91 119 150 186 228 272
#     4   9  17  29  45  65  88 115 148 185 225 269
#     4   9  18  32  49  69  94 123 154 188 226 268
#     4   9  18  32  49  69  92 119 151 187 227 270
#     4   9  16  25  37  55  81 112 145 182 224 269
#
# _framework density 16.411738
#
# number of rings (size 3 to 8) (size 9 to 14) (size 15 to 20)
#    0.000    3.000    0.000    1.000    0.000    6.333 
#    0.000    5.000    0.000    0.000    0.000    9.333 
#    0.000    0.667    0.000    7.000    0.000   10.500 
#
# Total GULP energy -267400.289306 kJ/mol
# GULP energy per Si atom -5570.839361 kJ/mol
# Density = 1.637438 g / cm^3
# Si number density = 16.411738 Si / 1000 Ang^3
#
#
#
# Elastic Constant Matrix: (Units=GPa)
#
#
# Indices 1 2 3 4 5 6 
#
# 1 46.2717 36.8187 81.5523 0.0000 0.0000 0.0000
# 2 36.8187 63.5188 77.9312 0.0000 0.0000 0.0000
# 3 81.5523 77.9312 191.1548 0.0000 0.0000 0.0000
# 4 0.0000 0.0000 0.0000 29.6840 0.0000 0.0000
# 5 0.0000 0.0000 0.0000 0.0000 -4.2435 0.0000
# 6 0.0000 0.0000 0.0000 0.0000 0.0000 17.6798
#
#
#
# Elastic Compliance Matrix: (Units=1/GPa)
#
#
# Indices 1 2 3 4 5 6 
#
# 1 0.090274 -0.010154 -0.034374 0.000000 0.000000 0.000000
# 2 -0.010154 0.032641 -0.008975 0.000000 0.000000 0.000000
# 3 -0.034374 -0.008975 0.023555 0.000000 0.000000 0.000000
# 4 0.000000 0.000000 0.000000 0.033688 0.000000 0.000000
# 5 0.000000 0.000000 0.000000 0.000000 -0.235655 0.000000
# 6 0.000000 0.000000 0.000000 0.000000 0.000000 0.056562
#
#
# Mechanical properties :
#
#
# Convention : Reuss Voigt Hill
#
# Bulk Modulus (GPa) = 25.33961 77.06111 51.20036
# Shear Modulus (GPa) = 41.24503 15.60026 28.42265
#
# Velocity S-wave (km/s) = 5.01856 3.08645 4.16606
# Velocity P-wave (km/s) = 7.00391 7.73036 7.37608
#
# Compressibility (1/GPa) = 0.03946390
#
# Stress axis : x y z
#
# Youngs Moduli (GPa) = 11.07738 30.63643 42.45314
#
# Poissons Ratio (x) = 0.31108 1.45928
# Poissons Ratio (y) = 0.11248 0.38103
# Poissons Ratio (z) = 0.38077 0.27497
#
# Static dielectric constant tensor:
#      x y z
#    x 1.521480 0.000000 0.000000 
#    y 0.000000 1.550210 0.000000 
#    z 0.000000 0.000000 1.545980 
# 
# From -- ./inp_files/40800.got.cif
#   From: 2010.05.17/outbox.cif.g08.bks.cpg/sg67_21_cif.got.tgz:40800.got - 2010.06.03 18:28:57.
