data_PCOD9505594
_publ_section_title
;
Structure prediction by ZEFSAII (Michael W. Deem and Ramdas Pophale) SiO2 
 PCOD9505594
Probable space group: C C C A
;
_chemical_formula_sum "Si O2"
_cell_formula_units_Z 72
_cell_length_a 13.870629
_cell_length_b 8.398972
_cell_length_c 23.340186
_cell_angle_alpha 90.000000
_cell_angle_beta 90.000000
_cell_angle_gamma 90.000000
_cell_volume 2719.108903
_symmetry_space_group_name_H-M "C C C A"
_symmetry_group_IT_number 68
_space_group.IT_coordinate_system_code '2'
_symmetry_cell_setting 'orthorhombic'
loop_
_space_group_symop_operation_xyz
x,y,z
-x,1/2-y,z
x,1/2-y,1/2-z
-x,y,1/2-z
-x,-y,-z
x,1/2+y,-z
-x,1/2+y,1/2+z
x,-y,1/2+z
1/2+x,1/2+y,z
1/2-x,-y,z
1/2+x,-y,1/2-z
1/2-x,1/2+y,1/2-z
1/2-x,1/2-y,-z
1/2+x,y,-z
1/2-x,y,1/2+z
1/2+x,1/2-y,1/2+z
loop_
_atom_site_type_symbol
_atom_site_label
_atom_site_fract_x
_atom_site_fract_y
_atom_site_fract_z
Si Si1 0.123209 0.385430 0.582537
Si Si2 0.247595 0.750000 0.250000
Si Si3 0.858657 0.205280 0.018112
Si Si4 0.561786 0.415860 0.297329
Si Si5 0.202495 0.173933 0.127230
O O1 0.090898 0.239986 0.542071
O O2 0.134074 0.524073 0.536385
O O3 0.069630 0.463113 0.636790
O O4 0.219071 0.311582 0.611905
O O5 0.167420 0.881495 0.270703
O O6 0.310842 0.797899 0.194980
O O7 0.876448 0.303792 0.077056
O O8 0.750000 0.250000 0.000000
O O9 0.500000 0.250000 0.304359
O O10 0.500000 0.508705 0.250000
O O11 0.250000 0.000000 0.121212
#
# Coordination Sequence:
#
# PCOD9505594 Si02
#       5
#    16   8  16  16  16
#     4  10  19  32  51  77 107 142 181 221 274 333
#     4   8  17  28  46  74  98 130 173 216 266 322
#     4  10  18  30  48  75 113 143 168 209 268 343
#     4   8  16  34  55  74  95 132 187 241 276 310
#     4  10  18  29  47  74 110 144 174 210 263 338
#
# _framework density 26.479264000000001
#
# number of rings (size 3 to 8) (size 9 to 14) (size 15 to 20)
#    0.000    2.889    0.000    5.333    0.000    3.556 
#    0.000    1.111    0.000    0.000    0.000   24.889 
#    0.000    0.000    0.000    0.000    0.000    0.000 
#
# Total GULP energy -200536.944617 kJ/mol
# GULP energy per Si atom -5570.470684 kJ/mol
# Density = 2.641900 g / cm^3
# Si number density = 26.479264 Si / 1000 Ang^3
#
#
#
# Elastic Constant Matrix: (Units=GPa)
#
#
# Indices 1 2 3 4 5 6 
#
# 1 63.5776 -16.7742 15.5435 0.0000 0.0000 0.0000
# 2 -16.7742 81.3642 35.2934 0.0000 0.0000 0.0000
# 3 15.5435 35.2934 270.8806 0.0000 0.0000 0.0000
# 4 0.0000 0.0000 0.0000 66.4909 0.0000 0.0000
# 5 0.0000 0.0000 0.0000 0.0000 -15.5937 0.0000
# 6 0.0000 0.0000 0.0000 0.0000 0.0000 -0.2800
#
#
#
# Elastic Compliance Matrix: (Units=1/GPa)
#
#
# Indices 1 2 3 4 5 6 
#
# 1 0.017217 0.004216 -0.001537 0.000000 0.000000 0.000000
# 2 0.004216 0.014059 -0.002074 0.000000 0.000000 0.000000
# 3 -0.001537 -0.002074 0.004050 0.000000 0.000000 0.000000
# 4 0.000000 0.000000 0.000000 0.015040 0.000000 0.000000
# 5 0.000000 0.000000 0.000000 0.000000 -0.064129 0.000000
# 6 0.000000 0.000000 0.000000 0.000000 0.000000 -3.571051
#
#
# Mechanical properties :
#
#
# Convention : Reuss Voigt Hill
#
# Bulk Modulus (GPa) = 27.36957 53.77199 40.57078
# Shear Modulus (GPa) = -1.39905 35.57410 17.08752
#
# Velocity S-wave (km/s) = -0.72767 3.66931 2.54307
# Velocity P-wave (km/s) = 3.10687 6.18895 4.89672
#
# Compressibility (1/GPa) = 0.03653693
#
# Stress axis : x y z
#
# Youngs Moduli (GPa) = 58.08190 71.12792 246.90971
#
# Poissons Ratio (x) = -0.29990 0.37957
# Poissons Ratio (y) = -0.24489 0.51202
# Poissons Ratio (z) = 0.08929 0.14750
#
# Static dielectric constant tensor:
#      x y z
#    x 2.365880 0.000000 0.000000 
#    y 0.000000 2.452460 0.000000 
#    z 0.000000 0.000000 2.284330 
# 
# From -- ./inp_files/46387.got.cif
#   From: 2010.05.17/outbox.cif.g08.bks.cpg/sg68_24_cif.got.tgz:46387.got - 2010.06.03 18:57:09.
