data_PCOD9505924
_publ_section_title
;
Structure prediction by ZEFSAII (Michael W. Deem and Ramdas Pophale) SiO2 
 PCOD9505924
Probable space group: C C C A
;
_chemical_formula_sum "Si O2"
_cell_formula_units_Z 88
_cell_length_a 23.874048
_cell_length_b 8.365615
_cell_length_c 24.776428
_cell_angle_alpha 90.000000
_cell_angle_beta 90.000000
_cell_angle_gamma 90.000000
_cell_volume 4948.375307
_symmetry_space_group_name_H-M "C C C A"
_symmetry_group_IT_number 68
_space_group.IT_coordinate_system_code '2'
_symmetry_cell_setting 'orthorhombic'
loop_
_space_group_symop_operation_xyz
x,y,z
-x,1/2-y,z
x,1/2-y,1/2-z
-x,y,1/2-z
-x,-y,-z
x,1/2+y,-z
-x,1/2+y,1/2+z
x,-y,1/2+z
1/2+x,1/2+y,z
1/2-x,-y,z
1/2+x,-y,1/2-z
1/2-x,1/2+y,1/2-z
1/2-x,1/2-y,-z
1/2+x,y,-z
1/2-x,y,1/2+z
1/2+x,1/2-y,1/2+z
loop_
_atom_site_type_symbol
_atom_site_label
_atom_site_fract_x
_atom_site_fract_y
_atom_site_fract_z
Si Si1 0.187023 0.441006 0.754484
Si Si2 0.092549 0.392947 0.327123
Si Si3 0.597740 0.013333 0.673044
Si Si4 0.937423 0.534067 0.058914
Si Si5 0.433059 0.583212 0.556462
Si Si6 0.500000 0.535632 0.750000
O O1 0.185466 0.250000 0.750000
O O2 0.250000 0.500000 0.761435
O O3 0.146546 0.524584 0.799044
O O4 0.158313 0.491176 0.698649
O O5 0.087746 0.202574 0.321546
O O6 0.088312 0.451303 0.388626
O O7 0.039002 0.453405 0.293855
O O8 0.551101 0.908765 0.707880
O O9 0.597072 0.972220 0.610437
O O10 0.933119 0.725333 0.059307
O O11 0.004533 0.507026 0.060464
O O12 0.912986 0.468842 0.002713
#
# Coordination Sequence:
#
# PCOD9505924 Si02
#       6
#    16  16  16  16  16   8
#     4  11  23  40  58  81 108 142 185 229 274 326
#     4  11  20  34  55  81 111 146 180 225 274 325
#     4  11  20  34  55  81 111 146 180 225 274 325
#     4  10  20  33  50  77 111 149 186 224 268 322
#     4  10  20  33  50  77 111 149 186 224 268 322
#     4  10  19  30  49  78 111 142 177 214 269 328
#
# _framework density 17.783615000000001
#
# number of rings (size 3 to 8) (size 9 to 14) (size 15 to 20)
#    0.000    1.455    1.818    6.545    0.000    1.455 
#    0.000    2.727    0.000    1.091    0.000    7.636 
#    0.000    0.000    0.000    0.000    0.000    0.000 
#
# Total GULP energy -245071.941242 kJ/mol
# GULP energy per Si atom -5569.816846 kJ/mol
# Density = 1.774314 g / cm^3
# Si number density = 17.783615 Si / 1000 Ang^3
#
#
#
# Elastic Constant Matrix: (Units=GPa)
#
#
# Indices 1 2 3 4 5 6 
#
# 1 91.8371 13.1327 43.5953 0.0000 0.0000 0.0000
# 2 13.1327 34.5619 27.5055 0.0000 0.0000 0.0000
# 3 43.5953 27.5055 162.7906 0.0000 0.0000 0.0000
# 4 0.0000 0.0000 0.0000 27.3116 0.0000 0.0000
# 5 0.0000 0.0000 0.0000 0.0000 8.1052 0.0000
# 6 0.0000 0.0000 0.0000 0.0000 0.0000 13.3489
#
#
#
# Elastic Compliance Matrix: (Units=1/GPa)
#
#
# Indices 1 2 3 4 5 6 
#
# 1 0.012650 -0.002439 -0.002976 0.000000 0.000000 0.000000
# 2 -0.002439 0.033899 -0.005075 0.000000 0.000000 0.000000
# 3 -0.002976 -0.005075 0.007797 0.000000 0.000000 0.000000
# 4 0.000000 0.000000 0.000000 0.036614 0.000000 0.000000
# 5 0.000000 0.000000 0.000000 0.000000 0.123378 0.000000
# 6 0.000000 0.000000 0.000000 0.000000 0.000000 0.074913
#
#
# Mechanical properties :
#
#
# Convention : Reuss Voigt Hill
#
# Bulk Modulus (GPa) = 29.96855 50.85073 40.40964
# Shear Modulus (GPa) = 15.55928 23.41687 19.48807
#
# Velocity S-wave (km/s) = 2.96112 3.63266 3.31395
# Velocity P-wave (km/s) = 5.34596 6.80083 6.11680
#
# Compressibility (1/GPa) = 0.03336831
#
# Stress axis : x y z
#
# Youngs Moduli (GPa) = 79.05055 29.49967 128.25204
#
# Poissons Ratio (x) = 0.07194 0.38164
# Poissons Ratio (y) = 0.19277 0.65082
# Poissons Ratio (z) = 0.23523 0.14970
#
# Static dielectric constant tensor:
#      x y z
#    x 1.599280 0.000000 0.000000 
#    y 0.000000 1.666840 0.000000 
#    z 0.000000 0.000000 1.621250 
# 
# From -- ./inp_files/43113.got.cif
#   From: 2010.05.17/outbox.cif.g08.bks.cpg/sg68_22_cif.got.tgz:43113.got - 2010.06.03 18:57:09.
