data_PCOD9505252
_publ_section_title
;
Structure prediction by ZEFSAII (Michael W. Deem and Ramdas Pophale) SiO2 
 PCOD9505252
Probable space group: C M M A
;
_chemical_formula_sum "Si O2"
_cell_formula_units_Z 32
_cell_length_a 15.000000
_cell_length_b 15.000000
_cell_length_c 15.000000
_cell_angle_alpha 90.000000
_cell_angle_beta 90.000000
_cell_angle_gamma 90.000000
_cell_volume 3375.000000
_symmetry_space_group_name_H-M "C M M A"
_symmetry_group_IT_number 67
_symmetry_cell_setting 'orthorhombic'
loop_
_space_group_symop_operation_xyz
x,y,z
-x,1/2-y,z
x,-y,-z
-x,1/2+y,-z
-x,-y,-z
x,1/2+y,-z
-x,y,z
x,1/2-y,z
1/2+x,1/2+y,z
1/2-x,-y,z
1/2+x,1/2-y,-z
1/2-x,y,-z
1/2-x,1/2-y,-z
1/2+x,y,-z
1/2-x,1/2+y,z
1/2+x,-y,z
loop_
_atom_site_type_symbol
_atom_site_label
_atom_site_fract_x
_atom_site_fract_y
_atom_site_fract_z
Si Si1 0.606622 0.647757 0.500000
Si Si2 0.750000 0.145605 0.893223
Si Si3 0.398104 0.500000 0.158545
Si Si4 0.148575 1.000000 0.645023
O O1 0.500000 0.651405 0.500000
O O2 0.639992 0.750000 0.500000
O O3 0.633820 0.587380 0.584390
O O4 0.633820 0.587380 0.415610
O O5 0.749999 0.250000 0.860916
O O6 0.662652 0.086764 0.866201
O O7 0.837347 0.086764 0.866200
O O8 0.750000 0.148902 0.000000
O O9 0.500000 0.499999 0.121470
O O10 0.406224 0.500000 0.265318
O O11 0.250000 0.000000 0.675113
#
# Coordination Sequence:
#
# PCOD9505252 Si02
#       4
#    16  16  16  16
#     4  10  21  36  55  81 114 154 199 243 290 346
#     4  10  23  43  64  91 125 157 196 247 303 367
#     4  11  22  40  65  92 123 160 202 249 302 356
#     4  11  21  37  57  81 117 155 197 246 291 343
#
# _framework density 9.4814810000000005
#
# number of rings (size 3 to 8) (size 9 to 14) (size 15 to 20)
#    0.000    1.500    2.500    6.000    0.000    7.000 
#    0.000    2.500    0.000    0.000    0.000    0.000 
#    0.000    0.000    0.000    0.000    0.000    0.000 
#
# Total GULP energy -178449.712815 kJ/mol
# GULP energy per Si atom -5576.553525 kJ/mol
# Density = 0.945990 g / cm^3
# Si number density = 9.481481 Si / 1000 Ang^3
#
#
#
# Elastic Constant Matrix: (Units=GPa)
#
#
# Indices 1 2 3 4 5 6 
#
# 1 167.1884 54.3542 15.8587 0.0000 0.0000 0.0000
# 2 54.3542 198.9826 38.8304 0.0000 0.0000 0.0000
# 3 15.8587 38.8304 91.1416 0.0000 0.0000 0.0000
# 4 0.0000 0.0000 0.0000 9.6362 0.0000 0.0000
# 5 0.0000 0.0000 0.0000 0.0000 -16.0530 0.0000
# 6 0.0000 0.0000 0.0000 0.0000 0.0000 28.8476
#
#
#
# Elastic Compliance Matrix: (Units=1/GPa)
#
#
# Indices 1 2 3 4 5 6 
#
# 1 0.006578 -0.001716 -0.000413 0.000000 0.000000 0.000000
# 2 -0.001716 0.005929 -0.002227 0.000000 0.000000 0.000000
# 3 -0.000413 -0.002227 0.011993 0.000000 0.000000 0.000000
# 4 0.000000 0.000000 0.000000 0.103775 0.000000 0.000000
# 5 0.000000 0.000000 0.000000 0.000000 -0.062294 0.000000
# 6 0.000000 0.000000 0.000000 0.000000 0.000000 0.034665
#
#
# Mechanical properties :
#
#
# Convention : Reuss Voigt Hill
#
# Bulk Modulus (GPa) = 63.34686 75.04433 69.19560
# Shear Modulus (GPa) = 43.62127 27.70412 35.66270
#
# Velocity S-wave (km/s) = 4.80139 3.82640 4.34135
# Velocity P-wave (km/s) = 8.01348 7.69297 7.85486
#
# Compressibility (1/GPa) = 0.01578610
#
# Stress axis : x y z
#
# Youngs Moduli (GPa) = 152.01094 168.66094 83.38298
#
# Poissons Ratio (x) = 0.28947 0.03447
# Poissons Ratio (y) = 0.26090 0.18573
# Poissons Ratio (z) = 0.06285 0.37568
#
# Static dielectric constant tensor:
#      x y z
#    x 1.700990 0.000000 0.000000 
#    y 0.000000 1.659890 0.000000 
#    z 0.000000 0.000000 1.713440 
# 
# From -- ./inp_files/26710.got.cif
#   From: 2010.05.17/outbox.ucp.g08.bks.cvg/sg67_14_cif.got.tgz:26710.got - 2010.06.11 16:47:20.
