data_PCOD9505001
_publ_section_title
;
Structure prediction by ZEFSAII (Michael W. Deem and Ramdas Pophale) SiO2 
 PCOD9505001
Probable space group: C M M A
;
_chemical_formula_sum "Si O2"
_cell_formula_units_Z 64
_cell_length_a 18.917987
_cell_length_b 20.548544
_cell_length_c 7.344746
_cell_angle_alpha 90.000000
_cell_angle_beta 90.000000
_cell_angle_gamma 90.000000
_cell_volume 2855.175174
_symmetry_space_group_name_H-M "C M M A"
_symmetry_group_IT_number 67
_symmetry_cell_setting 'orthorhombic'
loop_
_space_group_symop_operation_xyz
x,y,z
-x,1/2-y,z
x,-y,-z
-x,1/2+y,-z
-x,-y,-z
x,1/2+y,-z
-x,y,z
x,1/2-y,z
1/2+x,1/2+y,z
1/2-x,-y,z
1/2+x,1/2-y,-z
1/2-x,y,-z
1/2-x,1/2-y,-z
1/2+x,y,-z
1/2-x,1/2+y,z
1/2+x,-y,z
loop_
_atom_site_type_symbol
_atom_site_label
_atom_site_fract_x
_atom_site_fract_y
_atom_site_fract_z
Si Si1 0.917747 0.117461 0.647825
Si Si2 0.925961 0.824640 0.977741
Si Si3 0.219269 0.566833 0.207256
Si Si4 0.321933 0.328257 0.675988
O O1 0.919482 0.171473 0.806739
O O2 0.864681 0.066379 0.747985
O O3 0.878393 0.145801 0.471653
O O4 0.000000 0.098020 0.614448
O O5 0.930910 0.750000 0.921770
O O6 0.000000 0.858504 0.928233
O O7 0.859105 0.847072 0.867593
O O8 0.250000 0.500000 0.285598
O O9 0.249928 0.630912 0.307731
O O10 0.250000 0.568201 0.000000
O O11 0.310574 0.250000 0.659916
#
# Coordination Sequence:
#
# PCOD9505001 Si02
#       4
#    16  16  16  16
#     4  11  23  41  67 100 135 177 225 281 347 414
#     4   9  18  34  57  91 135 174 211 267 333 395
#     4  11  25  48  71  96 135 185 235 290 344 404
#     4  11  23  40  68 101 134 177 229 280 340 415
#
# _framework density 22.415436
#
# number of rings (size 3 to 8) (size 9 to 14) (size 15 to 20)
#    0.000    1.500    2.500    2.250    0.000    8.000 
#    0.000    6.250    0.000    0.000    0.000    0.000 
#    0.000    0.000    0.000    0.000    0.000    0.000 
#
# Total GULP energy -178150.658338 kJ/mol
# GULP energy per Si atom -5567.208073 kJ/mol
# Density = 2.236442 g / cm^3
# Si number density = 22.415436 Si / 1000 Ang^3
#
#
#
# Elastic Constant Matrix: (Units=GPa)
#
#
# Indices 1 2 3 4 5 6 
#
# 1 160.1889 53.0894 18.7960 0.0000 0.0000 0.0000
# 2 53.0894 80.3457 7.9322 0.0000 0.0000 0.0000
# 3 18.7960 7.9322 78.1752 0.0000 0.0000 0.0000
# 4 0.0000 0.0000 0.0000 -304.5982 0.0000 0.0000
# 5 0.0000 0.0000 0.0000 0.0000 28.7670 0.0000
# 6 0.0000 0.0000 0.0000 0.0000 0.0000 12.2835
#
#
#
# Elastic Compliance Matrix: (Units=1/GPa)
#
#
# Indices 1 2 3 4 5 6 
#
# 1 0.008148 -0.005243 -0.001427 0.000000 0.000000 0.000000
# 2 -0.005243 0.015946 -0.000357 0.000000 0.000000 0.000000
# 3 -0.001427 -0.000357 0.013171 0.000000 0.000000 0.000000
# 4 0.000000 0.000000 0.000000 -0.003283 0.000000 0.000000
# 5 0.000000 0.000000 0.000000 0.000000 0.034762 0.000000
# 6 0.000000 0.000000 0.000000 0.000000 0.000000 0.081410
#
#
# Mechanical properties :
#
#
# Convention : Reuss Voigt Hill
#
# Bulk Modulus (GPa) = 43.08467 53.14945 48.11706
# Shear Modulus (GPa) = 29.07912 -36.78340 -3.85214
#
# Velocity S-wave (km/s) = 3.60569 -4.05530 -1.31235
# Velocity P-wave (km/s) = 6.04957 1.35472 4.38364
#
# Compressibility (1/GPa) = 0.02321011
#
# Stress axis : x y z
#
# Youngs Moduli (GPa) = 122.73540 62.71279 75.92351
#
# Poissons Ratio (x) = 0.32879 0.10834
# Poissons Ratio (y) = 0.64347 0.02714
# Poissons Ratio (z) = 0.17514 0.02242
#
# Static dielectric constant tensor:
#      x y z
#    x 1.964880 0.000000 0.000000 
#    y 0.000000 1.806250 0.000000 
#    z 0.000000 0.000000 1.860310 
# 
# From -- ./inp_files/10895.got.cif
#   From: 2010.05.17/outbox.cif.g08.bks.cpg/sg67_6_cif.got.tgz:10895.got - 2010.06.03 18:28:57.
