data_PCOD9505703
_publ_section_title
;
Structure prediction by ZEFSAII (Michael W. Deem and Ramdas Pophale) SiO2 
 PCOD9505703
Probable space group: C C C A
;
_chemical_formula_sum "Si O2"
_cell_formula_units_Z 40
_cell_length_a 5.053754
_cell_length_b 22.209852
_cell_length_c 14.248576
_cell_angle_alpha 90.000000
_cell_angle_beta 90.000000
_cell_angle_gamma 90.000000
_cell_volume 1599.304745
_symmetry_space_group_name_H-M "C C C A"
_symmetry_group_IT_number 68
_space_group.IT_coordinate_system_code '2'
_symmetry_cell_setting 'orthorhombic'
loop_
_space_group_symop_operation_xyz
x,y,z
-x,1/2-y,z
x,1/2-y,1/2-z
-x,y,1/2-z
-x,-y,-z
x,1/2+y,-z
-x,1/2+y,1/2+z
x,-y,1/2+z
1/2+x,1/2+y,z
1/2-x,-y,z
1/2+x,-y,1/2-z
1/2-x,1/2+y,1/2-z
1/2-x,1/2-y,-z
1/2+x,y,-z
1/2-x,y,1/2+z
1/2+x,1/2-y,1/2+z
loop_
_atom_site_type_symbol
_atom_site_label
_atom_site_fract_x
_atom_site_fract_y
_atom_site_fract_z
Si Si1 0.483581 0.380686 0.860513
Si Si2 0.500000 0.750000 0.432568
Si Si3 0.462943 0.552358 0.636723
O O1 0.500000 0.393539 0.750000
O O2 0.441981 0.310376 0.873916
O O3 0.782792 0.391534 0.894012
O O4 0.258906 0.428380 0.896193
O O5 0.750000 0.750000 0.500000
O O6 0.500000 0.545917 0.750000
O O7 0.250000 0.500000 0.610226
#
# Coordination Sequence:
#
# PCOD9505703 Si02
#       3
#    16   8  16
#     4  10  21  37  61  89 118 154 198 246 297 358
#     4  12  25  42  61  82 118 162 206 254 303 356
#     4  10  18  32  58  92 123 149 187 244 303 357
#
# _framework density 25.010867000000001
#
# number of rings (size 3 to 8) (size 9 to 14) (size 15 to 20)
#    0.000    1.600    0.000    7.800    0.000    0.000 
#    0.000    8.000    0.000   24.000    0.000    0.000 
#    0.000    0.000    0.000    0.000    0.000    0.000 
#
# Total GULP energy -111350.723124 kJ/mol
# GULP energy per Si atom -5567.536156 kJ/mol
# Density = 2.495394 g / cm^3
# Si number density = 25.010867 Si / 1000 Ang^3
#
#
#
# Elastic Constant Matrix: (Units=GPa)
#
#
# Indices 1 2 3 4 5 6 
#
# 1 234.3267 48.0165 14.0452 0.0000 0.0000 0.0000
# 2 48.0165 139.2481 6.7660 0.0000 0.0000 0.0000
# 3 14.0452 6.7660 67.3465 0.0000 0.0000 0.0000
# 4 0.0000 0.0000 0.0000 13.3818 0.0000 0.0000
# 5 0.0000 0.0000 0.0000 0.0000 10.8207 0.0000
# 6 0.0000 0.0000 0.0000 0.0000 0.0000 46.6229
#
#
#
# Elastic Compliance Matrix: (Units=1/GPa)
#
#
# Indices 1 2 3 4 5 6 
#
# 1 0.004636 -0.001559 -0.000810 0.000000 0.000000 0.000000
# 2 -0.001559 0.007741 -0.000453 0.000000 0.000000 0.000000
# 3 -0.000810 -0.000453 0.015063 0.000000 0.000000 0.000000
# 4 0.000000 0.000000 0.000000 0.074728 0.000000 0.000000
# 5 0.000000 0.000000 0.000000 0.000000 0.092416 0.000000
# 6 0.000000 0.000000 0.000000 0.000000 0.000000 0.021449
#
#
# Mechanical properties :
#
#
# Convention : Reuss Voigt Hill
#
# Bulk Modulus (GPa) = 45.87983 64.28627 55.08305
# Shear Modulus (GPa) = 21.83969 38.97133 30.40551
#
# Velocity S-wave (km/s) = 2.95822 3.95166 3.49046
# Velocity P-wave (km/s) = 5.48196 6.82495 6.18998
#
# Compressibility (1/GPa) = 0.02179607
#
# Stress axis : x y z
#
# Youngs Moduli (GPa) = 215.72248 129.18160 66.38781
#
# Poissons Ratio (x) = 0.20141 0.05378
# Poissons Ratio (y) = 0.33634 0.03004
# Poissons Ratio (z) = 0.17476 0.05846
#
# Static dielectric constant tensor:
#      x y z
#    x 2.006280 0.000000 0.000000 
#    y 0.000000 2.099580 0.000000 
#    z 0.000000 0.000000 2.043770 
# 
# From -- ./inp_files/26792.got.cif
#   From: 2010.05.17/outbox.cif.g08.bks.cpg/sg68_14_cif.got.tgz:26792.got - 2010.06.03 18:57:09.
