data_PCOD9505901
_publ_section_title
;
Structure prediction by ZEFSAII (Michael W. Deem and Ramdas Pophale) SiO2 
 PCOD9505901
Probable space group: C C C A
;
_chemical_formula_sum "Si O2"
_cell_formula_units_Z 56
_cell_length_a 23.677050
_cell_length_b 10.659137
_cell_length_c 8.734405
_cell_angle_alpha 90.000000
_cell_angle_beta 90.000000
_cell_angle_gamma 90.000000
_cell_volume 2204.362229
_symmetry_space_group_name_H-M "C C C A"
_symmetry_group_IT_number 68
_space_group.IT_coordinate_system_code '2'
_symmetry_cell_setting 'orthorhombic'
loop_
_space_group_symop_operation_xyz
x,y,z
-x,1/2-y,z
x,1/2-y,1/2-z
-x,y,1/2-z
-x,-y,-z
x,1/2+y,-z
-x,1/2+y,1/2+z
x,-y,1/2+z
1/2+x,1/2+y,z
1/2-x,-y,z
1/2+x,-y,1/2-z
1/2-x,1/2+y,1/2-z
1/2-x,1/2-y,-z
1/2+x,y,-z
1/2-x,y,1/2+z
1/2+x,1/2-y,1/2+z
loop_
_atom_site_type_symbol
_atom_site_label
_atom_site_fract_x
_atom_site_fract_y
_atom_site_fract_z
Si Si1 0.945647 0.475257 0.138334
Si Si2 0.574235 0.737668 0.571774
Si Si3 0.250000 0.500000 0.115604
Si Si4 0.328098 0.403103 0.353392
O O1 0.939527 0.153337 0.455116
O O2 0.949302 0.599771 0.029733
O O3 0.882191 0.510838 0.203924
O O4 0.000000 0.476192 0.250000
O O5 0.556191 0.750000 0.750000
O O6 0.641236 0.722515 0.589126
O O7 0.299762 0.542773 0.005071
O O8 0.278623 0.400767 0.230147
#
# Coordination Sequence:
#
# PCOD9505901 Si02
#       4
#    16  16   8  16
#     4  10  24  49  83 116 163 213 269 332 410 484
#     4  10  23  48  80 117 160 206 269 331 407 475
#     4  10  18  46  74 124 158 206 270 324 408 474
#     4   9  22  41  82 112 161 208 260 337 396 488
#
# _framework density 25.404173
#
# number of rings (size 3 to 8) (size 9 to 14) (size 15 to 20)
#    1.714    0.571    0.000    1.714    0.000    1.714 
#    0.000   22.857   12.571    1.714    0.000    0.000 
#    0.000    0.000    0.000    0.000    0.000    0.000 
#
# Total GULP energy -156055.738853 kJ/mol
# GULP energy per Si atom -5573.419245 kJ/mol
# Density = 2.534635 g / cm^3
# Si number density = 25.404173 Si / 1000 Ang^3
#
#
#
# Elastic Constant Matrix: (Units=GPa)
#
#
# Indices 1 2 3 4 5 6 
#
# 1 171.9440 45.6459 47.0206 0.0000 0.0000 0.0000
# 2 45.6459 185.3748 49.3695 0.0000 0.0000 0.0000
# 3 47.0206 49.3695 76.3752 0.0000 0.0000 0.0000
# 4 0.0000 0.0000 0.0000 36.7945 0.0000 0.0000
# 5 0.0000 0.0000 0.0000 0.0000 56.7407 0.0000
# 6 0.0000 0.0000 0.0000 0.0000 0.0000 -13.7598
#
#
#
# Elastic Compliance Matrix: (Units=1/GPa)
#
#
# Indices 1 2 3 4 5 6 
#
# 1 0.007068 -0.000702 -0.003897 0.000000 0.000000 0.000000
# 2 -0.000702 0.006586 -0.003825 0.000000 0.000000 0.000000
# 3 -0.003897 -0.003825 0.017965 0.000000 0.000000 0.000000
# 4 0.000000 0.000000 0.000000 0.027178 0.000000 0.000000
# 5 0.000000 0.000000 0.000000 0.000000 0.017624 0.000000
# 6 0.000000 0.000000 0.000000 0.000000 0.000000 -0.072676
#
#
# Mechanical properties :
#
#
# Convention : Reuss Voigt Hill
#
# Bulk Modulus (GPa) = 67.70528 79.75179 73.72854
# Shear Modulus (GPa) = 195.93484 35.39893 115.66688
#
# Velocity S-wave (km/s) = 8.79173 3.73692 6.75496
# Velocity P-wave (km/s) = 11.39159 7.07677 9.48286
#
# Compressibility (1/GPa) = 0.01476990
#
# Stress axis : x y z
#
# Youngs Moduli (GPa) = 141.47985 151.83531 55.66332
#
# Poissons Ratio (x) = 0.10666 0.21695
# Poissons Ratio (y) = 0.09938 0.21290
# Poissons Ratio (z) = 0.55141 0.58074
#
# Static dielectric constant tensor:
#      x y z
#    x 2.094790 0.000000 0.000000 
#    y 0.000000 2.096240 0.000000 
#    z 0.000000 0.000000 2.064090 
# 
# From -- ./inp_files/8576.got.cif
#   From: 2010.05.17/outbox.cif.g08.bks.cpg/sg68_5_cif.got.tgz:8576.got - 2010.06.03 18:57:09.
