data_PCOD9505369
_publ_section_title
;
Structure prediction by ZEFSAII (Michael W. Deem and Ramdas Pophale) SiO2 
 PCOD9505369
Probable space group: C C C A
;
_chemical_formula_sum "Si O2"
_cell_formula_units_Z 112
_cell_length_a 31.919988
_cell_length_b 34.237659
_cell_length_c 5.210033
_cell_angle_alpha 90.000000
_cell_angle_beta 90.000000
_cell_angle_gamma 90.000000
_cell_volume 5693.866176
_symmetry_space_group_name_H-M "C C C A"
_symmetry_group_IT_number 68
_space_group.IT_coordinate_system_code '2'
_symmetry_cell_setting 'orthorhombic'
loop_
_space_group_symop_operation_xyz
x,y,z
-x,1/2-y,z
x,1/2-y,1/2-z
-x,y,1/2-z
-x,-y,-z
x,1/2+y,-z
-x,1/2+y,1/2+z
x,-y,1/2+z
1/2+x,1/2+y,z
1/2-x,-y,z
1/2+x,-y,1/2-z
1/2-x,1/2+y,1/2-z
1/2-x,1/2-y,-z
1/2+x,y,-z
1/2-x,y,1/2+z
1/2+x,1/2-y,1/2+z
loop_
_atom_site_type_symbol
_atom_site_label
_atom_site_fract_x
_atom_site_fract_y
_atom_site_fract_z
Si Si1 0.233480 0.044434 0.173298
Si Si2 0.089899 0.293606 0.746200
Si Si3 0.358702 0.184668 0.754212
Si Si4 0.766793 0.794447 0.941476
Si Si5 0.403509 0.394004 0.810706
Si Si6 0.639115 0.025448 0.697333
Si Si7 0.047270 0.127770 0.685728
O O1 0.261539 0.063316 0.395028
O O2 0.186607 0.040623 0.270480
O O3 0.250000 0.000000 0.127241
O O4 0.073640 0.250000 0.750000
O O5 0.110892 0.300009 0.469818
O O6 0.054743 0.325887 0.791609
O O7 0.124856 0.300418 0.969947
O O8 0.312726 0.200186 0.679024
O O9 0.366279 0.137738 0.738832
O O10 0.736270 0.812350 0.725524
O O11 0.750000 0.750000 0.000000
O O12 0.389383 0.437688 0.756103
O O13 0.438647 0.383650 0.599418
O O14 0.421425 0.389520 0.097817
O O15 0.633221 0.007356 0.416326
O O16 0.000000 0.116779 0.750000
#
# Coordination Sequence:
#
# PCOD9505369 Si02
#       7
#    16  16  16  16  16  16  16
#     4  10  16  30  49  78 112 144 185 223 285 334
#     4  10  21  33  60  90 111 149 187 240 294 335
#     4  10  21  38  53  77 123 154 197 243 284 347
#     4  10  21  32  50  76 105 155 211 243 276 328
#     4  10  23  40  60  90 114 154 196 228 300 360
#     4  12  21  35  61  87 118 152 195 252 283 351
#     4  10  21  42  65  86 118 153 185 229 292 366
#
# _framework density 19.670292
#
# number of rings (size 3 to 8) (size 9 to 14) (size 15 to 20)
#    0.000    1.714    2.857    2.571    6.000    0.286 
#    0.000    1.429    0.000   13.714    0.000    0.000 
#    0.000    0.000    0.000    0.000    0.000    0.000 
#
# Total GULP energy -312334.432584 kJ/mol
# GULP energy per Si atom -5577.400582 kJ/mol
# Density = 1.962552 g / cm^3
# Si number density = 19.670292 Si / 1000 Ang^3
#
#
#
# Elastic Constant Matrix: (Units=GPa)
#
#
# Indices 1 2 3 4 5 6 
#
# 1 44.5771 6.1904 -22.0571 0.0000 0.0000 0.0000
# 2 6.1904 37.7483 -18.6794 0.0000 0.0000 0.0000
# 3 -22.0571 -18.6794 83.5170 0.0000 0.0000 0.0000
# 4 0.0000 0.0000 0.0000 7.8284 0.0000 0.0000
# 5 0.0000 0.0000 0.0000 0.0000 19.9204 0.0000
# 6 0.0000 0.0000 0.0000 0.0000 0.0000 4.3987
#
#
#
# Elastic Compliance Matrix: (Units=1/GPa)
#
#
# Indices 1 2 3 4 5 6 
#
# 1 0.025837 -0.000968 0.006607 0.000000 0.000000 0.000000
# 2 -0.000968 0.029824 0.006415 0.000000 0.000000 0.000000
# 3 0.006607 0.006415 0.015153 0.000000 0.000000 0.000000
# 4 0.000000 0.000000 0.000000 0.127740 0.000000 0.000000
# 5 0.000000 0.000000 0.000000 0.000000 0.050200 0.000000
# 6 0.000000 0.000000 0.000000 0.000000 0.000000 0.227338
#
#
# Mechanical properties :
#
#
# Convention : Reuss Voigt Hill
#
# Bulk Modulus (GPa) = 10.53479 10.75002 10.64240
# Shear Modulus (GPa) = 10.33862 19.78875 15.06368
#
# Velocity S-wave (km/s) = 2.29507 3.17523 2.77033
# Velocity P-wave (km/s) = 3.52001 4.34968 3.95665
#
# Compressibility (1/GPa) = 0.09492361
#
# Stress axis : x y z
#
# Youngs Moduli (GPa) = 38.70469 33.52965 65.99202
#
# Poissons Ratio (x) = 0.03244 -0.43602
# Poissons Ratio (y) = 0.03745 -0.42334
# Poissons Ratio (z) = -0.25573 -0.21509
#
# Static dielectric constant tensor:
#      x y z
#    x 1.685270 0.000000 0.000000 
#    y 0.000000 1.744300 0.000000 
#    z 0.000000 0.000000 1.766470 
# 
# From -- ./inp_files/2948.got.cif
#   From: 2010.05.17/outbox.cif.g08.bks.cpg/sg68_2_cif.got.tgz:2948.got - 2010.06.03 18:57:09.
