data_PCOD9505485
_publ_section_title
;
Structure prediction by ZEFSAII (Michael W. Deem and Ramdas Pophale) SiO2 
 PCOD9505485
Probable space group: C C C A
;
_chemical_formula_sum "Si O2"
_cell_formula_units_Z 80
_cell_length_a 5.532013
_cell_length_b 32.014405
_cell_length_c 18.594953
_cell_angle_alpha 90.000000
_cell_angle_beta 90.000000
_cell_angle_gamma 90.000000
_cell_volume 3293.242502
_symmetry_space_group_name_H-M "C C C A"
_symmetry_group_IT_number 68
_space_group.IT_coordinate_system_code '2'
_symmetry_cell_setting 'orthorhombic'
loop_
_space_group_symop_operation_xyz
x,y,z
-x,1/2-y,z
x,1/2-y,1/2-z
-x,y,1/2-z
-x,-y,-z
x,1/2+y,-z
-x,1/2+y,1/2+z
x,-y,1/2+z
1/2+x,1/2+y,z
1/2-x,-y,z
1/2+x,-y,1/2-z
1/2-x,1/2+y,1/2-z
1/2-x,1/2-y,-z
1/2+x,y,-z
1/2-x,y,1/2+z
1/2+x,1/2-y,1/2+z
loop_
_atom_site_type_symbol
_atom_site_label
_atom_site_fract_x
_atom_site_fract_y
_atom_site_fract_z
Si Si1 0.250000 0.500000 0.319223
Si Si2 0.450090 0.125951 0.571761
Si Si3 0.500000 0.250000 0.452509
Si Si4 0.639038 0.038570 0.580251
Si Si5 0.760622 0.583273 0.275861
Si Si6 0.450982 0.341039 0.088828
O O1 0.470333 0.510166 0.370251
O O2 0.232446 0.540663 0.271044
O O3 0.490125 0.077440 0.547278
O O4 0.431751 0.150671 0.497168
O O5 0.683520 0.144521 0.613832
O O6 0.193118 0.133442 0.609512
O O7 0.750000 0.250000 0.500000
O O8 0.493972 0.208079 0.404997
O O9 0.777452 0.066082 0.641937
O O10 0.750000 0.000000 0.534187
O O11 0.500000 0.601025 0.250000
O O12 0.000000 0.607262 0.250000
#
# Coordination Sequence:
#
# PCOD9505485 Si02
#       6
#     8  16   8  16  16  16
#     4  10  18  32  46  68  90 122 180 220 256 286
#     4  10  21  33  50  69 107 130 167 216 254 288
#     4  12  16  32  64  82  90 130 174 188 262 336
#     4  11  21  31  49  70  94 140 182 208 261 296
#     4  10  17  30  47  65  90 113 170 217 254 289
#     4  10  20  38  50  76 102 132 162 209 259 301
#
# _framework density 24.292169000000001
#
# number of rings (size 3 to 8) (size 9 to 14) (size 15 to 20)
#    0.000    1.600    7.000    0.600    2.800    0.000 
#    0.000    4.000    0.000    0.000    0.000    0.000 
#    0.000    0.000    0.000  122.400    0.000    0.400 
#
# Total GULP energy -222892.972666 kJ/mol
# GULP energy per Si atom -5572.324317 kJ/mol
# Density = 2.423688 g / cm^3
# Si number density = 24.292169 Si / 1000 Ang^3
#
#
#
# Elastic Constant Matrix: (Units=GPa)
#
#
# Indices 1 2 3 4 5 6 
#
# 1 214.4368 25.8277 14.8256 0.0000 0.0000 0.0000
# 2 25.8277 149.0738 10.2872 0.0000 0.0000 0.0000
# 3 14.8256 10.2872 33.8404 0.0000 0.0000 0.0000
# 4 0.0000 0.0000 0.0000 -328.5812 0.0000 0.0000
# 5 0.0000 0.0000 0.0000 0.0000 21.8283 0.0000
# 6 0.0000 0.0000 0.0000 0.0000 0.0000 35.0694
#
#
#
# Elastic Compliance Matrix: (Units=1/GPa)
#
#
# Indices 1 2 3 4 5 6 
#
# 1 0.004882 -0.000713 -0.001922 0.000000 0.000000 0.000000
# 2 -0.000713 0.006956 -0.001802 0.000000 0.000000 0.000000
# 3 -0.001922 -0.001802 0.030940 0.000000 0.000000 0.000000
# 4 0.000000 0.000000 0.000000 -0.003043 0.000000 0.000000
# 5 0.000000 0.000000 0.000000 0.000000 0.045812 0.000000
# 6 0.000000 0.000000 0.000000 0.000000 0.000000 0.028515
#
#
# Mechanical properties :
#
#
# Convention : Reuss Voigt Hill
#
# Bulk Modulus (GPa) = 29.49531 55.47023 42.48277
# Shear Modulus (GPa) = 37.24724 -31.24265 3.00229
#
# Velocity S-wave (km/s) = 3.91999 -3.59014 1.11292
# Velocity P-wave (km/s) = 5.71460 2.38719 4.37923
#
# Compressibility (1/GPa) = 0.03390370
#
# Stress axis : x y z
#
# Youngs Moduli (GPa) = 204.82704 143.76053 32.32028
#
# Poissons Ratio (x) = 0.10253 0.06212
# Poissons Ratio (y) = 0.14609 0.05824
# Poissons Ratio (z) = 0.39369 0.25907
#
# Static dielectric constant tensor:
#      x y z
#    x 2.398920 0.000000 0.000000 
#    y 0.000000 2.010620 0.000000 
#    z 0.000000 0.000000 2.199920 
# 
# From -- ./inp_files/42361.got.cif
#   From: 2010.05.17/outbox.cif.g08.bks.cpg/sg68_22_cif.got.tgz:42361.got - 2010.06.03 18:57:09.
