data_PCOD9505113
_publ_section_title
;
Structure prediction by ZEFSAII (Michael W. Deem and Ramdas Pophale) SiO2 
 PCOD9505113
Probable space group: C M M A
;
_chemical_formula_sum "Si O2"
_cell_formula_units_Z 112
_cell_length_a 10.791806
_cell_length_b 14.302892
_cell_length_c 34.840112
_cell_angle_alpha 90.000000
_cell_angle_beta 90.000000
_cell_angle_gamma 90.000000
_cell_volume 5377.711892
_symmetry_space_group_name_H-M "C M M A"
_symmetry_group_IT_number 67
_symmetry_cell_setting 'orthorhombic'
loop_
_space_group_symop_operation_xyz
x,y,z
-x,1/2-y,z
x,-y,-z
-x,1/2+y,-z
-x,-y,-z
x,1/2+y,-z
-x,y,z
x,1/2-y,z
1/2+x,1/2+y,z
1/2-x,-y,z
1/2+x,1/2-y,-z
1/2-x,y,-z
1/2-x,1/2-y,-z
1/2+x,y,-z
1/2-x,1/2+y,z
1/2+x,-y,z
loop_
_atom_site_type_symbol
_atom_site_label
_atom_site_fract_x
_atom_site_fract_y
_atom_site_fract_z
Si Si1 0.139171 0.863931 0.472449
Si Si2 0.643576 0.364350 0.673764
Si Si3 0.350847 0.856497 0.241921
Si Si4 0.362617 0.098137 0.842505
Si Si5 0.360861 0.363068 0.028035
Si Si6 0.360105 0.636067 0.615994
Si Si7 0.365495 0.397420 0.115843
O O1 0.140640 0.750000 0.472385
O O2 0.250000 0.894332 0.500000
O O3 0.157243 0.893359 0.428257
O O4 0.000000 0.891478 0.484839
O O5 0.500000 0.393018 0.666468
O O6 0.641398 0.250000 0.674605
O O7 0.687415 0.393777 0.716474
O O8 0.745587 0.392934 0.642611
O O9 0.500000 0.852277 0.245212
O O10 0.304339 0.750000 0.237402
O O11 0.326001 0.908331 0.202190
O O12 0.500000 0.140931 0.844106
O O13 0.253845 0.148744 0.865285
O O14 0.372712 0.997664 0.863073
O O15 0.500000 0.384788 0.013419
O O16 0.354550 0.250000 0.032771
O O17 0.347418 0.405894 0.070321
O O18 0.250000 0.390598 0.000000
O O19 0.500000 0.607802 0.628296
O O20 0.359834 0.750000 0.616261
O O21 0.500000 0.352635 0.121484
#
# Coordination Sequence:
#
# PCOD9505113 Si02
#       7
#    16  16  16  16  16  16  16
#     4   8  13  19  25  34  50  74 106 146 191 239
#     4   8  13  21  33  48  65  86 115 154 199 243
#     4   8  14  25  41  61  82 103 134 177 216 249
#     4   9  17  30  47  64  85 116 148 175 207 251
#     4   9  18  33  52  73  97 122 146 175 210 246
#     4   8  13  20  28  39  58  83 111 148 197 250
#     4   9  18  32  48  68  94 119 144 176 211 246
#
# _framework density 20.826702000000001
#
# number of rings (size 3 to 8) (size 9 to 14) (size 15 to 20)
#    0.000    3.571    0.000    1.714    0.000    1.714 
#    0.000    5.000    0.000    8.571    0.000    0.000 
#    0.000    0.000    0.000    0.000    0.000    0.000 
#
# Total GULP energy -311911.511700 kJ/mol
# GULP energy per Si atom -5569.848423 kJ/mol
# Density = 2.077930 g / cm^3
# Si number density = 20.826702 Si / 1000 Ang^3
#
#
#
# Elastic Constant Matrix: (Units=GPa)
#
#
# Indices 1 2 3 4 5 6 
#
# 1 199.8449 16.3310 119.8541 0.0000 0.0000 0.0000
# 2 16.3310 76.6723 26.7846 0.0000 0.0000 0.0000
# 3 119.8541 26.7846 155.8086 0.0000 0.0000 0.0000
# 4 0.0000 0.0000 0.0000 15.3216 0.0000 0.0000
# 5 0.0000 0.0000 0.0000 0.0000 36.2803 0.0000
# 6 0.0000 0.0000 0.0000 0.0000 0.0000 -26.9430
#
#
#
# Elastic Compliance Matrix: (Units=1/GPa)
#
#
# Indices 1 2 3 4 5 6 
#
# 1 0.009311 0.000552 -0.007258 0.000000 0.000000 0.000000
# 2 0.000552 0.013909 -0.002816 0.000000 0.000000 0.000000
# 3 -0.007258 -0.002816 0.012485 0.000000 0.000000 0.000000
# 4 0.000000 0.000000 0.000000 0.065267 0.000000 0.000000
# 5 0.000000 0.000000 0.000000 0.000000 0.027563 0.000000
# 6 0.000000 0.000000 0.000000 0.000000 0.000000 -0.037115
#
#
# Mechanical properties :
#
#
# Convention : Reuss Voigt Hill
#
# Bulk Modulus (GPa) = 60.01473 84.25168 72.13320
# Shear Modulus (GPa) = 43.09730 22.88884 32.99307
#
# Velocity S-wave (km/s) = 4.55392 3.31874 3.98448
# Velocity P-wave (km/s) = 7.51863 7.43148 7.47518
#
# Compressibility (1/GPa) = 0.01666258
#
# Stress axis : x y z
#
# Youngs Moduli (GPa) = 107.39505 71.89823 80.09616
#
# Poissons Ratio (x) = -0.03969 0.58131
# Poissons Ratio (y) = -0.05929 0.22552
# Poissons Ratio (z) = 0.77943 0.20244
#
# Static dielectric constant tensor:
#      x y z
#    x 1.809350 0.000000 0.000000 
#    y 0.000000 1.742420 0.000000 
#    z 0.000000 0.000000 1.728620 
# 
# From -- ./inp_files/45552.got.cif
#   From: 2010.05.17/outbox.cif.g08.bks.cpg/sg67_23_cif.got.tgz:45552.got - 2010.06.03 18:28:57.
