data_PCOD9505116
_publ_section_title
;
Structure prediction by ZEFSAII (Michael W. Deem and Ramdas Pophale) SiO2 
 PCOD9505116
Probable space group: C M M A
;
_chemical_formula_sum "Si O2"
_cell_formula_units_Z 112
_cell_length_a 14.388524
_cell_length_b 10.959065
_cell_length_c 33.838887
_cell_angle_alpha 90.000000
_cell_angle_beta 90.000000
_cell_angle_gamma 90.000000
_cell_volume 5335.877106
_symmetry_space_group_name_H-M "C M M A"
_symmetry_group_IT_number 67
_symmetry_cell_setting 'orthorhombic'
loop_
_space_group_symop_operation_xyz
x,y,z
-x,1/2-y,z
x,-y,-z
-x,1/2+y,-z
-x,-y,-z
x,1/2+y,-z
-x,y,z
x,1/2-y,z
1/2+x,1/2+y,z
1/2-x,-y,z
1/2+x,1/2-y,-z
1/2-x,y,-z
1/2-x,1/2-y,-z
1/2+x,y,-z
1/2-x,1/2+y,z
1/2+x,-y,z
loop_
_atom_site_type_symbol
_atom_site_label
_atom_site_fract_x
_atom_site_fract_y
_atom_site_fract_z
Si Si1 0.105642 0.103573 0.609129
Si Si2 0.647497 0.117272 0.737766
Si Si3 0.386706 0.386488 0.026577
Si Si4 0.349695 0.112907 0.478326
Si Si5 0.612523 0.613290 0.171644
Si Si6 0.349372 0.887077 0.696773
Si Si7 0.386797 0.613832 0.882117
O O1 0.100115 0.250000 0.609822
O O2 0.155565 0.077094 0.567823
O O3 0.151807 0.072951 0.650902
O O4 0.000000 0.054831 0.608013
O O5 0.603327 0.250000 0.730643
O O6 0.655821 0.103999 0.784817
O O7 0.747314 0.122410 0.716090
O O8 0.602054 0.995540 0.720590
O O9 0.500000 0.387990 0.026459
O O10 0.359513 0.250000 0.012814
O O11 0.357548 0.400490 0.072248
O O12 0.356254 0.500000 0.000000
O O13 0.390778 0.250000 0.480741
O O14 0.250000 0.122081 0.500000
O O15 0.398219 0.000000 0.500000
O O16 0.500000 0.606244 0.176607
O O17 0.632264 0.750000 0.155691
O O18 0.641748 0.500941 0.144250
O O19 0.389869 0.750000 0.699184
O O20 0.500000 0.613423 0.882076
O O21 0.358305 0.750000 0.868200
#
# Coordination Sequence:
#
# PCOD9505116 Si02
#       7
#    16  16  16  16  16  16  16
#     4   9  18  33  52  74 100 127 156 193 233 272
#     4   9  18  31  46  66  92 117 145 188 236 278
#     4   8  13  20  30  46  70 102 142 188 235 280
#     4   9  18  32  51  75 102 132 163 194 230 273
#     4   9  17  28  41  58  83 116 149 182 229 284
#     4   9  18  33  52  70  89 120 156 185 223 277
#     4   8  14  24  36  52  77 109 148 195 239 277
#
# _framework density 20.989989999999999
#
# number of rings (size 3 to 8) (size 9 to 14) (size 15 to 20)
#    0.000    3.286    0.000    0.857    0.000    4.286 
#    0.000    5.000    0.000    0.857    0.000    0.000 
#    0.000    0.000    0.000    2.571    0.000   50.000 
#
# Total GULP energy -311825.101745 kJ/mol
# GULP energy per Si atom -5568.305388 kJ/mol
# Density = 2.094222 g / cm^3
# Si number density = 20.989990 Si / 1000 Ang^3
#
#
#
# Elastic Constant Matrix: (Units=GPa)
#
#
# Indices 1 2 3 4 5 6 
#
# 1 89.0720 12.8721 28.5513 0.0000 0.0000 0.0000
# 2 12.8721 217.7935 104.0990 0.0000 0.0000 0.0000
# 3 28.5513 104.0990 131.0709 0.0000 0.0000 0.0000
# 4 0.0000 0.0000 0.0000 39.4540 0.0000 0.0000
# 5 0.0000 0.0000 0.0000 0.0000 59.3185 0.0000
# 6 0.0000 0.0000 0.0000 0.0000 0.0000 -7.7664
#
#
#
# Elastic Compliance Matrix: (Units=1/GPa)
#
#
# Indices 1 2 3 4 5 6 
#
# 1 0.012174 0.000883 -0.003353 0.000000 0.000000 0.000000
# 2 0.000883 0.007465 -0.006121 0.000000 0.000000 0.000000
# 3 -0.003353 -0.006121 0.013222 0.000000 0.000000 0.000000
# 4 0.000000 0.000000 0.000000 0.025346 0.000000 0.000000
# 5 0.000000 0.000000 0.000000 0.000000 0.016858 0.000000
# 6 0.000000 0.000000 0.000000 0.000000 0.000000 -0.128760
#
#
# Mechanical properties :
#
#
# Convention : Reuss Voigt Hill
#
# Bulk Modulus (GPa) = 63.78390 80.99790 72.39090
# Shear Modulus (GPa) = -159.81443 37.69549 -61.05947
#
# Velocity S-wave (km/s) = -8.73520 4.24238 -5.39935
# Velocity P-wave (km/s) = 8.44302 7.91642 2.07544
#
# Compressibility (1/GPa) = 0.01567794
#
# Stress axis : x y z
#
# Youngs Moduli (GPa) = 82.14132 133.95601 75.63350
#
# Poissons Ratio (x) = -0.11833 0.25363
# Poissons Ratio (y) = -0.07256 0.46298
# Poissons Ratio (z) = 0.27546 0.81999
#
# Static dielectric constant tensor:
#      x y z
#    x 1.563650 0.000000 0.000000 
#    y 0.000000 1.816590 0.000000 
#    z 0.000000 0.000000 1.724050 
# 
# From -- ./inp_files/45703.got.cif
#   From: 2010.05.17/outbox.cif.g08.bks.cpg/sg67_23_cif.got.tgz:45703.got - 2010.06.03 18:28:57.
