data_PCOD9505107
_publ_section_title
;
Structure prediction by ZEFSAII (Michael W. Deem and Ramdas Pophale) SiO2 
 PCOD9505107
Probable space group: C M M A
;
_chemical_formula_sum "Si O2"
_cell_formula_units_Z 96
_cell_length_a 7.505289
_cell_length_b 28.329804
_cell_length_c 25.270132
_cell_angle_alpha 90.000000
_cell_angle_beta 90.000000
_cell_angle_gamma 90.000000
_cell_volume 5373.020534
_symmetry_space_group_name_H-M "C M M A"
_symmetry_group_IT_number 67
_symmetry_cell_setting 'orthorhombic'
loop_
_space_group_symop_operation_xyz
x,y,z
-x,1/2-y,z
x,-y,-z
-x,1/2+y,-z
-x,-y,-z
x,1/2+y,-z
-x,y,z
x,1/2-y,z
1/2+x,1/2+y,z
1/2-x,-y,z
1/2+x,1/2-y,-z
1/2-x,y,-z
1/2-x,1/2-y,-z
1/2+x,y,-z
1/2-x,1/2+y,z
1/2+x,-y,z
loop_
_atom_site_type_symbol
_atom_site_label
_atom_site_fract_x
_atom_site_fract_y
_atom_site_fract_z
Si Si1 0.282860 0.197228 0.388348
Si Si2 0.287107 0.101686 0.440262
Si Si3 0.287067 0.195872 0.056982
Si Si4 0.782800 0.194693 0.827880
Si Si5 0.287032 0.053658 0.334744
Si Si6 0.282563 0.147501 0.279578
O O1 0.500000 0.198014 0.389930
O O2 0.220646 0.250000 0.400808
O O3 0.222551 0.154825 0.426645
O O4 0.233407 0.181396 0.328722
O O5 0.500000 0.103201 0.435219
O O6 0.250000 0.087417 0.500000
O O7 0.220298 0.067312 0.393716
O O8 0.500000 0.198432 0.060455
O O9 0.217664 0.250000 0.054419
O O10 0.225268 0.176697 0.113889
O O11 0.250000 0.172930 0.000000
O O12 0.733975 0.250000 0.823468
O O13 0.719441 0.166221 0.776868
O O14 0.000000 0.193298 0.826716
O O15 0.500000 0.058214 0.335906
O O16 0.223164 0.094854 0.295478
O O17 0.250000 0.000000 0.320453
O O18 0.500000 0.147686 0.278221
#
# Coordination Sequence:
#
# PCOD9505107 Si02
#       6
#    16  16  16  16  16  16
#     4   8  13  22  37  56  78 102 124 149 184 222
#     4   9  18  30  42  59  80  99 123 153 183 220
#     4   8  13  20  30  47  73 104 134 158 179 207
#     4   8  12  18  32  55  79 102 129 159 187 215
#     4   9  18  31  45  60  77  97 121 152 192 233
#     4   8  13  22  37  57  78  97 122 157 191 223
#
# _framework density 17.867044
#
# number of rings (size 3 to 8) (size 9 to 14) (size 15 to 20)
#    0.000    3.667    0.000    3.500    0.000    3.333 
#    0.000    1.667    0.000    1.000    0.000    0.000 
#    0.000    4.667    0.000    8.333    0.000    0.333 
#
# Total GULP energy -267209.598009 kJ/mol
# GULP energy per Si atom -5566.866625 kJ/mol
# Density = 1.782638 g / cm^3
# Si number density = 17.867044 Si / 1000 Ang^3
#
#
#
# Elastic Constant Matrix: (Units=GPa)
#
#
# Indices 1 2 3 4 5 6 
#
# 1 44.1289 0.8992 2.1865 0.0000 0.0000 0.0000
# 2 0.8992 64.9997 23.8395 0.0000 0.0000 0.0000
# 3 2.1865 23.8395 130.8014 0.0000 0.0000 0.0000
# 4 0.0000 0.0000 0.0000 12.8713 0.0000 0.0000
# 5 0.0000 0.0000 0.0000 0.0000 9.3193 0.0000
# 6 0.0000 0.0000 0.0000 0.0000 0.0000 5.7253
#
#
#
# Elastic Compliance Matrix: (Units=1/GPa)
#
#
# Indices 1 2 3 4 5 6 
#
# 1 0.022682 -0.000187 -0.000345 0.000000 0.000000 0.000000
# 2 -0.000187 0.016488 -0.003002 0.000000 0.000000 0.000000
# 3 -0.000345 -0.003002 0.008198 0.000000 0.000000 0.000000
# 4 0.000000 0.000000 0.000000 0.077692 0.000000 0.000000
# 5 0.000000 0.000000 0.000000 0.000000 0.107304 0.000000
# 6 0.000000 0.000000 0.000000 0.000000 0.000000 0.174664
#
#
# Mechanical properties :
#
#
# Convention : Reuss Voigt Hill
#
# Bulk Modulus (GPa) = 24.81409 32.64227 28.72818
# Shear Modulus (GPa) = 11.69507 19.78350 15.73928
#
# Velocity S-wave (km/s) = 2.56121 3.33116 2.97124
# Velocity P-wave (km/s) = 4.76075 5.75367 5.28060
#
# Compressibility (1/GPa) = 0.04029968
#
# Stress axis : x y z
#
# Youngs Moduli (GPa) = 44.08817 60.64916 121.97986
#
# Poissons Ratio (x) = 0.01136 0.04209
# Poissons Ratio (y) = 0.00826 0.36618
# Poissons Ratio (z) = 0.01521 0.18207
#
# Static dielectric constant tensor:
#      x y z
#    x 1.701840 0.000000 0.000000 
#    y 0.000000 1.595050 0.000000 
#    z 0.000000 0.000000 1.648590 
# 
# From -- ./inp_files/37986.got.cif
#   From: 2010.05.17/outbox.cif.g08.bks.cpg/sg67_19_cif.got.tgz:37986.got - 2010.06.03 18:28:57.
