data_PCOD9505033
_publ_section_title
;
Structure prediction by ZEFSAII (Michael W. Deem and Ramdas Pophale) SiO2 
 PCOD9505033
Probable space group: C M M A
;
_chemical_formula_sum "Si O2"
_cell_formula_units_Z 112
_cell_length_a 28.081742
_cell_length_b 16.545211
_cell_length_c 12.624419
_cell_angle_alpha 90.000000
_cell_angle_beta 90.000000
_cell_angle_gamma 90.000000
_cell_volume 5865.536683
_symmetry_space_group_name_H-M "C M M A"
_symmetry_group_IT_number 67
_symmetry_cell_setting 'orthorhombic'
loop_
_space_group_symop_operation_xyz
x,y,z
-x,1/2-y,z
x,-y,-z
-x,1/2+y,-z
-x,-y,-z
x,1/2+y,-z
-x,y,z
x,1/2-y,z
1/2+x,1/2+y,z
1/2-x,-y,z
1/2+x,1/2-y,-z
1/2-x,y,-z
1/2-x,1/2-y,-z
1/2+x,y,-z
1/2-x,1/2+y,z
1/2+x,-y,z
loop_
_atom_site_type_symbol
_atom_site_label
_atom_site_fract_x
_atom_site_fract_y
_atom_site_fract_z
Si Si1 0.946078 0.656816 0.307081
Si Si2 0.694043 0.339539 0.526492
Si Si3 0.189012 0.091561 0.245000
Si Si4 0.713698 0.158227 0.172560
Si Si5 0.350088 0.422933 0.337516
Si Si6 0.653201 0.094204 0.981563
Si Si7 0.947532 0.844121 0.051640
O O1 0.934548 0.750000 0.337883
O O2 0.906198 0.593325 0.341078
O O3 0.946637 0.654671 0.179195
O O4 0.000000 0.639366 0.343459
O O5 0.676571 0.250000 0.497143
O O6 0.750000 0.343043 0.500000
O O7 0.686792 0.353765 0.650613
O O8 0.669995 0.406864 0.453953
O O9 0.243589 0.097805 0.203738
O O10 0.160364 0.116513 0.140607
O O11 0.168483 0.005700 0.285247
O O12 0.731780 0.250000 0.176505
O O13 0.672952 0.144888 0.260459
O O14 0.688957 0.141184 0.059985
O O15 0.598653 0.109561 0.012343
O O16 0.664492 0.000000 0.000000
O O17 0.943330 0.750000 0.019650
O O18 0.000000 0.873987 0.017380
#
# Coordination Sequence:
#
# PCOD9505033 Si02
#       7
#    16  16  16  16  16  16  16
#     4   9  17  33  61  94 123 154 204 266 318 364
#     4  11  24  40  62  88 118 161 216 259 300 367
#     4  12  26  40  59  87 128 166 204 251 306 369
#     4  12  24  39  61  87 122 168 208 247 297 363
#     4  12  22  39  64  91 122 161 200 260 316 361
#     4  12  24  38  58  88 126 166 204 253 311 374
#     4   9  18  34  57  85 117 156 204 256 311 373
#
# _framework density 19.094586
#
# number of rings (size 3 to 8) (size 9 to 14) (size 15 to 20)
#    0.000    1.000    4.286    4.286    0.000    4.286 
#    0.000    0.714    0.000    2.571    0.000    2.000 
#    0.000    0.000    0.000    0.000    0.000    0.000 
#
# Total GULP energy -312696.228905 kJ/mol
# GULP energy per Si atom -5583.861230 kJ/mol
# Density = 1.905113 g / cm^3
# Si number density = 19.094586 Si / 1000 Ang^3
#
#
#
# Elastic Constant Matrix: (Units=GPa)
#
#
# Indices 1 2 3 4 5 6 
#
# 1 112.7250 40.7442 20.1903 0.0000 0.0000 0.0000
# 2 40.7442 76.3040 18.2129 0.0000 0.0000 0.0000
# 3 20.1903 18.2129 104.9787 0.0000 0.0000 0.0000
# 4 0.0000 0.0000 0.0000 17.7169 0.0000 0.0000
# 5 0.0000 0.0000 0.0000 0.0000 17.1880 0.0000
# 6 0.0000 0.0000 0.0000 0.0000 0.0000 25.5493
#
#
#
# Elastic Compliance Matrix: (Units=1/GPa)
#
#
# Indices 1 2 3 4 5 6 
#
# 1 0.011126 -0.005665 -0.001157 0.000000 0.000000 0.000000
# 2 -0.005665 0.016556 -0.001783 0.000000 0.000000 0.000000
# 3 -0.001157 -0.001783 0.010058 0.000000 0.000000 0.000000
# 4 0.000000 0.000000 0.000000 0.056443 0.000000 0.000000
# 5 0.000000 0.000000 0.000000 0.000000 0.058180 0.000000
# 6 0.000000 0.000000 0.000000 0.000000 0.000000 0.039140
#
#
# Mechanical properties :
#
#
# Convention : Reuss Voigt Hill
#
# Bulk Modulus (GPa) = 48.70892 50.25584 49.48238
# Shear Modulus (GPa) = 23.19588 26.41484 24.80536
#
# Velocity S-wave (km/s) = 3.48916 3.72340 3.60818
# Velocity P-wave (km/s) = 6.46506 6.69787 6.58250
#
# Compressibility (1/GPa) = 0.02053012
#
# Stress axis : x y z
#
# Youngs Moduli (GPa) = 89.88038 60.40170 99.42760
#
# Poissons Ratio (x) = 0.34216 0.11504
# Poissons Ratio (y) = 0.50915 0.17726
# Poissons Ratio (z) = 0.10399 0.10768
#
# Static dielectric constant tensor:
#      x y z
#    x 1.673950 0.000000 0.000000 
#    y 0.000000 1.697240 0.000000 
#    z 0.000000 0.000000 1.658600 
# 
# From -- ./inp_files/23784.got.cif
#   From: 2010.05.17/outbox.cif.g08.bks.cpg/sg67_12_cif.got.tgz:23784.got - 2010.06.03 18:28:57.
