data_PCOD9505737
_publ_section_title
;
Structure prediction by ZEFSAII (Michael W. Deem and Ramdas Pophale) SiO2 
 PCOD9505737
Probable space group: C C C A
;
_chemical_formula_sum "Si O2"
_cell_formula_units_Z 104
_cell_length_a 23.670119
_cell_length_b 25.572044
_cell_length_c 9.606301
_cell_angle_alpha 90.000000
_cell_angle_beta 90.000000
_cell_angle_gamma 90.000000
_cell_volume 5814.629869
_symmetry_space_group_name_H-M "C C C A"
_symmetry_group_IT_number 68
_space_group.IT_coordinate_system_code '2'
_symmetry_cell_setting 'orthorhombic'
loop_
_space_group_symop_operation_xyz
x,y,z
-x,1/2-y,z
x,1/2-y,1/2-z
-x,y,1/2-z
-x,-y,-z
x,1/2+y,-z
-x,1/2+y,1/2+z
x,-y,1/2+z
1/2+x,1/2+y,z
1/2-x,-y,z
1/2+x,-y,1/2-z
1/2-x,1/2+y,1/2-z
1/2-x,1/2-y,-z
1/2+x,y,-z
1/2-x,y,1/2+z
1/2+x,1/2-y,1/2+z
loop_
_atom_site_type_symbol
_atom_site_label
_atom_site_fract_x
_atom_site_fract_y
_atom_site_fract_z
Si Si1 0.638053 0.937415 0.983880
Si Si2 0.811753 0.811162 0.779556
Si Si3 0.000000 0.954766 0.750000
Si Si4 0.240319 0.631637 0.511658
Si Si5 0.839234 0.445069 0.978830
Si Si6 0.395350 0.896124 0.223438
Si Si7 0.940243 0.055784 0.716718
O O1 0.689292 0.899750 0.937827
O O2 0.594272 0.948603 0.860374
O O3 0.663290 0.992748 0.035362
O O4 0.608637 0.908329 0.113182
O O5 0.814373 0.750000 0.750000
O O6 0.785334 0.838795 0.643706
O O7 0.772807 0.828685 0.909351
O O8 0.873355 0.837761 0.802521
O O9 0.956254 0.916736 0.825440
O O10 0.962015 0.997843 0.668597
O O11 0.284703 0.587680 0.562259
O O12 0.850442 0.431635 0.140481
O O13 0.894423 0.425460 0.894099
O O14 0.000000 0.083987 0.750000
#
# Coordination Sequence:
#
# PCOD9505737 Si02
#       7
#    16  16   8  16  16  16  16
#     4  11  18  34  46  80 112 141 169 202 252 313
#     4  10  21  40  54  75  99 130 179 227 268 304
#     4  10  18  34  47  76 102 144 179 198 256 302
#     4  10  22  32  58  78 104 140 170 212 266 318
#     4  11  18  34  46  80 112 141 169 202 252 313
#     4  10  22  30  53  74 102 136 173 215 250 306
#     4  10  21  29  51  73 112 150 177 201 242 299
#
# _framework density 17.885919000000001
#
# number of rings (size 3 to 8) (size 9 to 14) (size 15 to 20)
#    0.462    1.231    3.077    1.846    2.154    1.846 
#    0.000    6.538    0.000    0.000    0.000    0.000 
#    0.000    8.615    0.000    0.000    0.000    0.000 
#
# Total GULP energy -289512.236329 kJ/mol
# GULP energy per Si atom -5567.543006 kJ/mol
# Density = 1.784521 g / cm^3
# Si number density = 17.885919 Si / 1000 Ang^3
#
#
#
# Elastic Constant Matrix: (Units=GPa)
#
#
# Indices 1 2 3 4 5 6 
#
# 1 89.5842 32.4564 12.1989 0.0000 0.0000 0.0000
# 2 32.4564 52.1199 6.0410 0.0000 0.0000 0.0000
# 3 12.1989 6.0410 58.2241 0.0000 0.0000 0.0000
# 4 0.0000 0.0000 0.0000 13.0814 0.0000 0.0000
# 5 0.0000 0.0000 0.0000 0.0000 21.2564 0.0000
# 6 0.0000 0.0000 0.0000 0.0000 0.0000 18.0575
#
#
#
# Elastic Compliance Matrix: (Units=1/GPa)
#
#
# Indices 1 2 3 4 5 6 
#
# 1 0.014677 -0.008890 -0.002153 0.000000 0.000000 0.000000
# 2 -0.008890 0.024805 -0.000711 0.000000 0.000000 0.000000
# 3 -0.002153 -0.000711 0.017700 0.000000 0.000000 0.000000
# 4 0.000000 0.000000 0.000000 0.076444 0.000000 0.000000
# 5 0.000000 0.000000 0.000000 0.000000 0.047045 0.000000
# 6 0.000000 0.000000 0.000000 0.000000 0.000000 0.055379
#
#
# Mechanical properties :
#
#
# Convention : Reuss Voigt Hill
#
# Bulk Modulus (GPa) = 29.69638 33.48008 31.58823
# Shear Modulus (GPa) = 18.46509 20.42785 19.44647
#
# Velocity S-wave (km/s) = 3.21656 3.38319 3.30093
# Velocity P-wave (km/s) = 5.51672 5.83272 5.67692
#
# Compressibility (1/GPa) = 0.03367414
#
# Stress axis : x y z
#
# Youngs Moduli (GPa) = 68.13538 40.31448 56.49777
#
# Poissons Ratio (x) = 0.35840 0.12162
# Poissons Ratio (y) = 0.60573 0.04017
# Poissons Ratio (z) = 0.14667 0.02866
#
# Static dielectric constant tensor:
#      x y z
#    x 1.671640 0.000000 0.000000 
#    y 0.000000 1.602800 0.000000 
#    z 0.000000 0.000000 1.639890 
# 
# From -- ./inp_files/9199.got.cif
#   From: 2010.05.17/outbox.cif.g08.bks.cpg/sg68_5_cif.got.tgz:9199.got - 2010.06.03 18:57:09.
