data_PCOD9505171
_publ_section_title
;
Structure prediction by ZEFSAII (Michael W. Deem and Ramdas Pophale) SiO2 
 PCOD9505171
Probable space group: C M M A
;
_chemical_formula_sum "Si O2"
_cell_formula_units_Z 52
_cell_length_a 27.000000
_cell_length_b 9.000000
_cell_length_c 24.000000
_cell_angle_alpha 90.000000
_cell_angle_beta 90.000000
_cell_angle_gamma 90.000000
_cell_volume 5832.000000
_symmetry_space_group_name_H-M "C M M A"
_symmetry_group_IT_number 67
_symmetry_cell_setting 'orthorhombic'
loop_
_space_group_symop_operation_xyz
x,y,z
-x,1/2-y,z
x,-y,-z
-x,1/2+y,-z
-x,-y,-z
x,1/2+y,-z
-x,y,z
x,1/2-y,z
1/2+x,1/2+y,z
1/2-x,-y,z
1/2+x,1/2-y,-z
1/2-x,y,-z
1/2-x,1/2-y,-z
1/2+x,y,-z
1/2-x,1/2+y,z
1/2+x,-y,z
loop_
_atom_site_type_symbol
_atom_site_label
_atom_site_fract_x
_atom_site_fract_y
_atom_site_fract_z
Si Si1 0.000000 0.574410 0.559761
Si Si2 0.056145 0.582856 0.263265
Si Si3 0.299750 0.071205 0.365235
Si Si4 0.557713 0.071019 0.941151
Si Si5 0.406996 0.074741 0.383309
Si Si6 0.699700 0.070112 0.758119
Si Si7 0.394094 0.573297 0.170058
O O1 0.000000 0.500000 0.500000
O O2 0.049892 0.519800 0.589705
O O3 0.000000 0.750000 0.555985
O O4 0.067114 0.750000 0.243151
O O5 0.089082 0.551603 0.316810
O O6 0.063375 0.471071 0.213254
O O7 0.000000 0.580111 0.283826
O O8 0.295264 0.250000 0.359072
O O9 0.350376 0.040293 0.398536
O O10 0.250000 0.000000 0.389895
O O11 0.304904 0.996880 0.304008
O O12 0.500000 0.034571 0.929028
O O13 0.560889 0.250000 0.944983
O O14 0.592019 0.016157 0.890780
O O15 0.570847 0.000000 0.000000
O O16 0.416560 0.250000 0.393558
O O17 0.701445 0.250000 0.754742
O O18 0.655296 0.022393 0.798570
O O19 0.750000 0.000000 0.780960
O O20 0.390952 0.750000 0.165746
#
# Coordination Sequence:
#
# PCOD9505171 Si02
#       7
#     8  16  16  16  16  16  16
#     4  12  26  42  64  88 114 152 193 232 271 320
#     4  10  19  31  48  73 107 142 171 207 258 315
#     4  10  19  32  53  79 112 150 184 224 271 321
#     4   9  18  33  50  68  93 125 163 209 259 310
#     4  10  20  37  57  80 115 151 183 225 272 319
#     4  10  19  30  46  70 102 136 172 212 258 316
#     4  10  20  32  48  71 100 132 168 214 262 315
#
# _framework density 8.9163239999999995
#
# number of rings (size 3 to 8) (size 9 to 14) (size 15 to 20)
#    0.000    2.000    2.308    3.000    0.000    4.000 
#    0.000    1.538    0.000    0.923    0.000    6.462 
#    0.000    0.000    0.000    0.000    0.000    0.000 
#
# Total GULP energy -289736.417468 kJ/mol
# GULP energy per Si atom -5571.854182 kJ/mol
# Density = 0.889603 g / cm^3
# Si number density = 8.916324 Si / 1000 Ang^3
#
#
#
# Elastic Constant Matrix: (Units=GPa)
#
#
# Indices 1 2 3 4 5 6 
#
# 1 119.6155 48.2441 31.7786 0.0000 0.0000 0.0000
# 2 48.2441 41.9519 31.9028 0.0000 0.0000 0.0000
# 3 31.7786 31.9028 16.5002 0.0000 0.0000 0.0000
# 4 0.0000 0.0000 0.0000 23.4943 0.0000 0.0000
# 5 0.0000 0.0000 0.0000 0.0000 -0.4100 0.0000
# 6 0.0000 0.0000 0.0000 0.0000 0.0000 19.4966
#
#
#
# Elastic Compliance Matrix: (Units=1/GPa)
#
#
# Indices 1 2 3 4 5 6 
#
# 1 0.014872 -0.009948 -0.009408 0.000000 0.000000 0.000000
# 2 -0.009948 -0.044025 0.104282 0.000000 0.000000 0.000000
# 3 -0.009408 0.104282 -0.122904 0.000000 0.000000 0.000000
# 4 0.000000 0.000000 0.000000 0.042563 0.000000 0.000000
# 5 0.000000 0.000000 0.000000 0.000000 -2.439300 0.000000
# 6 0.000000 0.000000 0.000000 0.000000 0.000000 0.051291
#
#
# Mechanical properties :
#
#
# Convention : Reuss Voigt Hill
#
# Bulk Modulus (GPa) = 56.19447 44.65763 50.42605
# Shear Modulus (GPa) = -1.87869 12.92566 5.52348
#
# Velocity S-wave (km/s) = -1.02752 2.69519 1.76185
# Velocity P-wave (km/s) = 5.49298 5.89766 5.69891
#
# Compressibility (1/GPa) = 0.01779534
#
# Stress axis : x y z
#
# Youngs Moduli (GPa) = 67.24078 -22.71424 -8.13644
#
# Poissons Ratio (x) = -0.22597 -0.07654
# Poissons Ratio (y) = 0.66894 0.84849
# Poissons Ratio (z) = 0.63257 2.36869
#
# Static dielectric constant tensor:
#      x y z
#    x 1.651010 0.000000 0.000000 
#    y 0.000000 1.601400 0.000000 
#    z 0.000000 0.000000 1.596360 
# 
# From -- ./inp_files/42775.got.cif
#   From: 2010.05.17/outbox.ucp.g08.bks.cvg/sg67_22_cif.got.tgz:42775.got - 2010.06.11 16:47:20.
