data_PCOD9505452
_publ_section_title
;
Structure prediction by ZEFSAII (Michael W. Deem and Ramdas Pophale) SiO2 
 PCOD9505452
Probable space group: C C C A
;
_chemical_formula_sum "Si O2"
_cell_formula_units_Z 84
_cell_length_a 14.459994
_cell_length_b 7.954918
_cell_length_c 33.259329
_cell_angle_alpha 90.000000
_cell_angle_beta 90.000000
_cell_angle_gamma 90.000000
_cell_volume 3825.756310
_symmetry_space_group_name_H-M "C C C A"
_symmetry_group_IT_number 68
_space_group.IT_coordinate_system_code '2'
_symmetry_cell_setting 'orthorhombic'
loop_
_space_group_symop_operation_xyz
x,y,z
-x,1/2-y,z
x,1/2-y,1/2-z
-x,y,1/2-z
-x,-y,-z
x,1/2+y,-z
-x,1/2+y,1/2+z
x,-y,1/2+z
1/2+x,1/2+y,z
1/2-x,-y,z
1/2+x,-y,1/2-z
1/2-x,1/2+y,1/2-z
1/2-x,1/2-y,-z
1/2+x,y,-z
1/2-x,y,1/2+z
1/2+x,1/2-y,1/2+z
loop_
_atom_site_type_symbol
_atom_site_label
_atom_site_fract_x
_atom_site_fract_y
_atom_site_fract_z
Si Si1 0.855347 0.066114 0.946678
Si Si2 0.142249 0.552701 0.028621
Si Si3 0.000000 0.250000 0.750000
Si Si4 0.354943 0.467146 0.863496
Si Si5 0.018283 0.453994 0.191229
Si Si6 0.853862 0.578716 0.886001
O O1 0.856021 0.253670 0.961735
O O2 0.750000 0.000000 0.941188
O O3 0.893512 0.067952 0.901760
O O4 0.899784 0.968744 0.984149
O O5 0.250000 0.500000 0.024352
O O6 0.108121 0.461956 0.069259
O O7 0.048049 0.395294 0.721632
O O8 0.250000 0.500000 0.852800
O O9 0.417447 0.499102 0.825315
O O10 0.354394 0.278264 0.880574
O O11 0.000000 0.250000 0.202223
O O12 0.085388 0.470827 0.152616
O O13 0.750000 0.500000 0.883994
#
# Coordination Sequence:
#
# PCOD9505452 Si02
#       6
#    16  16   4  16  16  16
#     4  10  17  27  47  79 119 162 208 248 295 343
#     4  10  17  27  47  79 119 162 208 248 295 343
#     4  12  26  44  80  86 128 150 210 240 332 370
#     4  10  20  37  62  90 125 162 207 251 301 361
#     4  10  25  45  68  95 126 158 199 253 314 373
#     4  10  20  37  62  90 125 162 207 251 301 361
#
# _framework density 21.956443
#
# number of rings (size 3 to 8) (size 9 to 14) (size 15 to 20)
#    0.000    1.905    0.000    8.286    5.333    0.000 
#    0.000    1.905    0.000    0.000    0.000    0.000 
#    0.000    0.000    0.000    0.000    0.000    0.000 
#
# Total GULP energy -233812.578850 kJ/mol
# GULP energy per Si atom -5566.966163 kJ/mol
# Density = 2.190647 g / cm^3
# Si number density = 21.956443 Si / 1000 Ang^3
#
#
#
# Elastic Constant Matrix: (Units=GPa)
#
#
# Indices 1 2 3 4 5 6 
#
# 1 54.1109 -10.9474 22.2526 0.0000 0.0000 0.0000
# 2 -10.9474 74.3276 9.3040 0.0000 0.0000 0.0000
# 3 22.2526 9.3040 99.3614 0.0000 0.0000 0.0000
# 4 0.0000 0.0000 0.0000 557.4948 0.0000 0.0000
# 5 0.0000 0.0000 0.0000 0.0000 21.2483 0.0000
# 6 0.0000 0.0000 0.0000 0.0000 0.0000 10.9107
#
#
#
# Elastic Compliance Matrix: (Units=1/GPa)
#
#
# Indices 1 2 3 4 5 6 
#
# 1 0.021360 0.003789 -0.005139 0.000000 0.000000 0.000000
# 2 0.003789 0.014286 -0.002186 0.000000 0.000000 0.000000
# 3 -0.005139 -0.002186 0.011420 0.000000 0.000000 0.000000
# 4 0.000000 0.000000 0.000000 0.001794 0.000000 0.000000
# 5 0.000000 0.000000 0.000000 0.000000 0.047063 0.000000
# 6 0.000000 0.000000 0.000000 0.000000 0.000000 0.091653
#
#
# Mechanical properties :
#
#
# Convention : Reuss Voigt Hill
#
# Bulk Modulus (GPa) = 25.00332 29.89092 27.44712
# Shear Modulus (GPa) = 24.04095 131.74347 77.89221
#
# Velocity S-wave (km/s) = 3.31257 7.75451 5.96262
# Velocity P-wave (km/s) = 5.10326 9.68607 7.74155
#
# Compressibility (1/GPa) = 0.03999468
#
# Stress axis : x y z
#
# Youngs Moduli (GPa) = 46.81557 69.99991 87.56702
#
# Poissons Ratio (x) = -0.26525 0.44997
# Poissons Ratio (y) = -0.17740 0.19145
# Poissons Ratio (z) = 0.24057 0.15304
#
# Static dielectric constant tensor:
#      x y z
#    x 1.871250 0.000000 0.000000 
#    y 0.000000 1.847950 0.000000 
#    z 0.000000 0.000000 1.939680 
# 
# From -- ./inp_files/51698.got.cif
#   From: 2010.05.17/outbox.cif.g08.bks.cpg/sg68_26_cif.got.tgz:51698.got - 2010.06.03 18:57:09.
