data_PCOD9505852
_publ_section_title
;
Structure prediction by ZEFSAII (Michael W. Deem and Ramdas Pophale) SiO2 
 PCOD9505852
Probable space group: C C C A
;
_chemical_formula_sum "Si O2"
_cell_formula_units_Z 120
_cell_length_a 24.477911
_cell_length_b 12.173493
_cell_length_c 19.056948
_cell_angle_alpha 90.000000
_cell_angle_beta 90.000000
_cell_angle_gamma 90.000000
_cell_volume 5678.621347
_symmetry_space_group_name_H-M "C C C A"
_symmetry_group_IT_number 68
_space_group.IT_coordinate_system_code '2'
_symmetry_cell_setting 'orthorhombic'
loop_
_space_group_symop_operation_xyz
x,y,z
-x,1/2-y,z
x,1/2-y,1/2-z
-x,y,1/2-z
-x,-y,-z
x,1/2+y,-z
-x,1/2+y,1/2+z
x,-y,1/2+z
1/2+x,1/2+y,z
1/2-x,-y,z
1/2+x,-y,1/2-z
1/2-x,1/2+y,1/2-z
1/2-x,1/2-y,-z
1/2+x,y,-z
1/2-x,y,1/2+z
1/2+x,1/2-y,1/2+z
loop_
_atom_site_type_symbol
_atom_site_label
_atom_site_fract_x
_atom_site_fract_y
_atom_site_fract_z
Si Si1 0.550627 0.975778 0.852719
Si Si2 0.093476 0.760578 0.391512
Si Si3 0.292982 0.701184 0.441956
Si Si4 0.750000 0.500000 0.378551
Si Si5 0.892106 0.420826 0.020079
Si Si6 0.572990 0.023831 0.194084
Si Si7 0.789054 0.265101 0.832005
Si Si8 0.860822 0.905309 0.580630
O O1 0.559373 0.850740 0.881220
O O2 0.488054 0.000394 0.833161
O O3 0.579922 0.982321 0.777190
O O4 0.574403 0.060704 0.909127
O O5 0.088010 0.827965 0.464514
O O6 0.081784 0.851206 0.331558
O O7 0.157564 0.736946 0.378005
O O8 0.250000 0.750000 0.500000
O O9 0.327357 0.595608 0.464299
O O10 0.259806 0.698109 0.369357
O O11 0.345563 0.780606 0.430430
O O12 0.772319 0.606901 0.339028
O O13 0.800901 0.457939 0.421760
O O14 0.896827 0.536035 0.977864
O O15 0.613543 0.941706 0.154222
O O16 0.798322 0.250000 0.750000
#
# Coordination Sequence:
#
# PCOD9505852 Si02
#       8
#    16  16  16   8  16  16  16  16
#     4  11  24  40  67  98 129 166 226 267 325 389
#     4  11  21  41  64  92 130 168 213 274 328 379
#     4  11  22  41  60  87 128 170 215 262 332 398
#     4  10  18  38  60  80 122 166 204 268 338 386
#     4  11  22  39  63  95 126 168 212 271 323 390
#     4  10  22  43  66  94 129 174 212 274 326 384
#     4  11  22  37  59  91 122 166 224 265 323 400
#     4  10  21  39  64  84 126 170 211 263 333 378
#
# _framework density 21.131889999999999
#
# number of rings (size 3 to 8) (size 9 to 14) (size 15 to 20)
#    0.000    1.333    4.000    3.200    0.000    5.333 
#    0.000    3.333    0.000    1.600    0.000    0.000 
#    0.000    0.000    0.000    0.000    0.000    0.000 
#
# Total GULP energy -334719.847298 kJ/mol
# GULP energy per Si atom -5578.664122 kJ/mol
# Density = 2.108379 g / cm^3
# Si number density = 21.131890 Si / 1000 Ang^3
#
#
#
# Elastic Constant Matrix: (Units=GPa)
#
#
# Indices 1 2 3 4 5 6 
#
# 1 33.5003 9.0859 21.3791 0.0000 0.0000 0.0000
# 2 9.0859 48.6479 32.6931 0.0000 0.0000 0.0000
# 3 21.3791 32.6931 136.5481 0.0000 0.0000 0.0000
# 4 0.0000 0.0000 0.0000 1.1164 0.0000 0.0000
# 5 0.0000 0.0000 0.0000 0.0000 -4.6433 0.0000
# 6 0.0000 0.0000 0.0000 0.0000 0.0000 26.6591
#
#
#
# Elastic Compliance Matrix: (Units=1/GPa)
#
#
# Indices 1 2 3 4 5 6 
#
# 1 0.033594 -0.003265 -0.004478 0.000000 0.000000 0.000000
# 2 -0.003265 0.024815 -0.005430 0.000000 0.000000 0.000000
# 3 -0.004478 -0.005430 0.009325 0.000000 0.000000 0.000000
# 4 0.000000 0.000000 0.000000 0.895714 0.000000 0.000000
# 5 0.000000 0.000000 0.000000 0.000000 -0.215362 0.000000
# 6 0.000000 0.000000 0.000000 0.000000 0.000000 0.037511
#
#
# Mechanical properties :
#
#
# Convention : Reuss Voigt Hill
#
# Bulk Modulus (GPa) = 24.16207 38.33472 31.24840
# Shear Modulus (GPa) = 6.05519 14.99565 10.52542
#
# Velocity S-wave (km/s) = 1.69459 2.66676 2.23420
# Velocity P-wave (km/s) = 3.90994 5.25949 4.63411
#
# Compressibility (1/GPa) = 0.04138718
#
# Stress axis : x y z
#
# Youngs Moduli (GPa) = 29.76751 40.29841 107.24254
#
# Poissons Ratio (x) = 0.13157 0.48023
# Poissons Ratio (y) = 0.09719 0.58234
# Poissons Ratio (z) = 0.13330 0.21883
#
# Static dielectric constant tensor:
#      x y z
#    x 1.800260 0.000000 0.000000 
#    y 0.000000 2.086770 0.000000 
#    z 0.000000 0.000000 1.764000 
# 
# From -- ./inp_files/40948.got.cif
#   From: 2010.05.17/outbox.cif.g08.bks.cpg/sg68_21_cif.got.tgz:40948.got - 2010.06.03 18:57:09.
