data_PCOD9505279
_publ_section_title
;
Structure prediction by ZEFSAII (Michael W. Deem and Ramdas Pophale) SiO2 
 PCOD9505279
Probable space group: C M M A
;
_chemical_formula_sum "Si O2"
_cell_formula_units_Z 48
_cell_length_a 21.000000
_cell_length_b 15.000000
_cell_length_c 15.000000
_cell_angle_alpha 90.000000
_cell_angle_beta 90.000000
_cell_angle_gamma 90.000000
_cell_volume 4725.000000
_symmetry_space_group_name_H-M "C M M A"
_symmetry_group_IT_number 67
_symmetry_cell_setting 'orthorhombic'
loop_
_space_group_symop_operation_xyz
x,y,z
-x,1/2-y,z
x,-y,-z
-x,1/2+y,-z
-x,-y,-z
x,1/2+y,-z
-x,y,z
x,1/2-y,z
1/2+x,1/2+y,z
1/2-x,-y,z
1/2+x,1/2-y,-z
1/2-x,y,-z
1/2-x,1/2-y,-z
1/2+x,y,-z
1/2-x,1/2+y,z
1/2+x,-y,z
loop_
_atom_site_type_symbol
_atom_site_label
_atom_site_fract_x
_atom_site_fract_y
_atom_site_fract_z
Si Si1 0.426840 0.060250 0.588768
Si Si2 0.244233 0.895162 0.210110
Si Si3 0.569051 0.983347 0.209596
Si Si4 0.710618 0.355488 0.587394
Si Si5 0.646130 0.150523 0.912995
Si Si6 0.116885 0.851233 0.118853
O O1 0.500000 0.097713 0.592054
O O2 0.416437 0.010470 0.684570
O O3 0.364504 0.121943 0.581042
O O4 0.425355 0.000000 0.500000
O O5 0.265108 0.883109 0.313344
O O6 0.284671 0.847936 0.132068
O O7 0.173925 0.861158 0.189983
O O8 0.250000 0.000000 0.191945
O O9 0.500000 0.940943 0.204954
O O10 0.613579 0.919476 0.152731
O O11 0.569286 0.076124 0.157315
O O12 0.718256 0.250000 0.585842
O O13 0.750000 0.390904 0.500000
O O14 0.618386 0.250000 0.904346
O O15 0.640702 0.126588 0.017750
O O16 0.093539 0.750000 0.117228
#
# Coordination Sequence:
#
# PCOD9505279 Si02
#       6
#    16  16  16  16  16  16
#     4  10  23  44  68  93 126 169 215 259 319 395
#     4  12  23  39  64  93 128 170 208 260 324 386
#     4  11  24  43  66  93 125 169 217 265 319 379
#     4  11  25  40  63  99 131 162 212 272 327 385
#     4  11  23  40  63  93 128 168 215 267 320 378
#     4  11  24  40  62  92 130 173 214 263 321 380
#
# _framework density 10.15873
#
# number of rings (size 3 to 8) (size 9 to 14) (size 15 to 20)
#    0.000    1.000    3.333    2.500    4.667    4.333 
#    0.000    3.333    0.000    3.000    0.000    0.000 
#    0.000    0.000    0.000    0.000    0.000    0.000 
#
# Total GULP energy -267443.945659 kJ/mol
# GULP energy per Si atom -5571.748868 kJ/mol
# Density = 1.013561 g / cm^3
# Si number density = 10.158730 Si / 1000 Ang^3
#
#
#
# Elastic Constant Matrix: (Units=GPa)
#
#
# Indices 1 2 3 4 5 6 
#
# 1 83.2448 12.4941 27.1865 0.0000 0.0000 0.0000
# 2 12.4941 91.0612 29.7755 0.0000 0.0000 0.0000
# 3 27.1865 29.7755 139.2473 0.0000 0.0000 0.0000
# 4 0.0000 0.0000 0.0000 25.3177 0.0000 0.0000
# 5 0.0000 0.0000 0.0000 0.0000 24.8788 0.0000
# 6 0.0000 0.0000 0.0000 0.0000 0.0000 65.7795
#
#
#
# Elastic Compliance Matrix: (Units=1/GPa)
#
#
# Indices 1 2 3 4 5 6 
#
# 1 0.012918 -0.001019 -0.002304 0.000000 0.000000 0.000000
# 2 -0.001019 0.011888 -0.002343 0.000000 0.000000 0.000000
# 3 -0.002304 -0.002343 0.008132 0.000000 0.000000 0.000000
# 4 0.000000 0.000000 0.000000 0.039498 0.000000 0.000000
# 5 0.000000 0.000000 0.000000 0.000000 0.040195 0.000000
# 6 0.000000 0.000000 0.000000 0.000000 0.000000 0.015202
#
#
# Mechanical properties :
#
#
# Convention : Reuss Voigt Hill
#
# Bulk Modulus (GPa) = 46.28416 50.27395 48.27906
# Shear Modulus (GPa) = 34.16053 39.46834 36.81444
#
# Velocity S-wave (km/s) = 4.10486 4.41226 4.26133
# Velocity P-wave (km/s) = 6.73026 7.12427 6.93007
#
# Compressibility (1/GPa) = 0.02160566
#
# Stress axis : x y z
#
# Youngs Moduli (GPa) = 77.40997 84.12158 122.96566
#
# Poissons Ratio (x) = 0.08572 0.28334
# Poissons Ratio (y) = 0.07888 0.28811
# Poissons Ratio (z) = 0.17837 0.19710
#
# Static dielectric constant tensor:
#      x y z
#    x 1.814190 0.000000 0.000000 
#    y 0.000000 1.733070 0.000000 
#    z 0.000000 0.000000 1.685020 
# 
# From -- ./inp_files/29252.got.cif
#   From: 2010.05.17/outbox.ucp.g08.bks.cvg/sg67_15_cif.got.tgz:29252.got - 2010.06.11 16:47:20.
