data_PCOD9505358
_publ_section_title
;
Structure prediction by ZEFSAII (Michael W. Deem and Ramdas Pophale) SiO2 
 PCOD9505358
Probable space group: C C C A
;
_chemical_formula_sum "Si O2"
_cell_formula_units_Z 64
_cell_length_a 5.421242
_cell_length_b 21.114637
_cell_length_c 25.658546
_cell_angle_alpha 90.000000
_cell_angle_beta 90.000000
_cell_angle_gamma 90.000000
_cell_volume 2937.071075
_symmetry_space_group_name_H-M "C C C A"
_symmetry_group_IT_number 68
_space_group.IT_coordinate_system_code '2'
_symmetry_cell_setting 'orthorhombic'
loop_
_space_group_symop_operation_xyz
x,y,z
-x,1/2-y,z
x,1/2-y,1/2-z
-x,y,1/2-z
-x,-y,-z
x,1/2+y,-z
-x,1/2+y,1/2+z
x,-y,1/2+z
1/2+x,1/2+y,z
1/2-x,-y,z
1/2+x,-y,1/2-z
1/2-x,1/2+y,1/2-z
1/2-x,1/2-y,-z
1/2+x,y,-z
1/2-x,y,1/2+z
1/2+x,1/2-y,1/2+z
loop_
_atom_site_type_symbol
_atom_site_label
_atom_site_fract_x
_atom_site_fract_y
_atom_site_fract_z
Si Si1 0.743129 0.223258 0.940795
Si Si2 0.135360 0.923140 0.532208
Si Si3 0.506925 0.064580 0.853505
Si Si4 0.996999 0.922572 0.188815
O O1 0.500000 0.250000 0.913242
O O2 0.683266 0.149697 0.950273
O O3 0.000000 0.250000 0.917849
O O4 0.750000 0.250000 0.000000
O O5 0.402861 0.935862 0.506208
O O6 0.047059 0.953537 0.586537
O O7 0.749293 0.101833 0.835647
O O8 0.249942 0.098514 0.840981
O O9 0.501013 0.998841 0.821097
O O10 0.000000 0.910293 0.250000
#
# Coordination Sequence:
#
# PCOD9505358 Si02
#       4
#    16  16  16  16
#     4  10  16  30  48  66  88 137 178 194 235 283
#     4  12  21  32  47  72 110 140 163 211 240 291
#     4  10  20  32  51  78  96 129 177 208 247 308
#     4  10  19  38  57  70  96 130 169 224 264 298
#
# _framework density 21.790414999999999
#
# number of rings (size 3 to 8) (size 9 to 14) (size 15 to 20)
#    0.000    1.500    5.000    5.250    0.000    0.000 
#    0.000   15.000    0.000    0.000    0.000    0.000 
#    0.000   24.000    0.000    0.000    0.000    0.000 
#
# Total GULP energy -178325.034611 kJ/mol
# GULP energy per Si atom -5572.657332 kJ/mol
# Density = 2.174082 g / cm^3
# Si number density = 21.790415 Si / 1000 Ang^3
#
#
#
# Elastic Constant Matrix: (Units=GPa)
#
#
# Indices 1 2 3 4 5 6 
#
# 1 289.2493 20.6299 63.3478 0.0000 0.0000 0.0000
# 2 20.6299 26.9287 1.8223 0.0000 0.0000 0.0000
# 3 63.3478 1.8223 134.1670 0.0000 0.0000 0.0000
# 4 0.0000 0.0000 0.0000 0.5726 0.0000 0.0000
# 5 0.0000 0.0000 0.0000 0.0000 27.4443 0.0000
# 6 0.0000 0.0000 0.0000 0.0000 0.0000 16.4729
#
#
#
# Elastic Compliance Matrix: (Units=1/GPa)
#
#
# Indices 1 2 3 4 5 6 
#
# 1 0.004085 -0.003002 -0.001888 0.000000 0.000000 0.000000
# 2 -0.003002 0.039375 0.000882 0.000000 0.000000 0.000000
# 3 -0.001888 0.000882 0.008333 0.000000 0.000000 0.000000
# 4 0.000000 0.000000 0.000000 1.746556 0.000000 0.000000
# 5 0.000000 0.000000 0.000000 0.000000 0.036437 0.000000
# 6 0.000000 0.000000 0.000000 0.000000 0.000000 0.060706
#
#
# Mechanical properties :
#
#
# Convention : Reuss Voigt Hill
#
# Bulk Modulus (GPa) = 22.84231 69.10500 45.97365
# Shear Modulus (GPa) = 2.60675 33.20093 17.90384
#
# Velocity S-wave (km/s) = 1.09493 3.90763 2.86953
# Velocity P-wave (km/s) = 3.47908 7.22092 5.66770
#
# Compressibility (1/GPa) = 0.04377841
#
# Stress axis : x y z
#
# Youngs Moduli (GPa) = 244.81220 25.39687 120.00787
#
# Poissons Ratio (x) = 0.07623 0.22656
# Poissons Ratio (y) = 0.73482 -0.10590
# Poissons Ratio (z) = 0.46218 -0.02241
#
# Static dielectric constant tensor:
#      x y z
#    x 2.552550 0.000000 0.000000 
#    y 0.000000 1.881970 0.000000 
#    z 0.000000 0.000000 1.861870 
# 
# From -- ./inp_files/1396.got.cif
#   From: 2010.05.17/outbox.cif.g08.bks.cpg/sg68_1_cif.got.tgz:1396.got - 2010.06.03 18:57:09.
