data_PCOD9505006
_publ_section_title
;
Structure prediction by ZEFSAII (Michael W. Deem and Ramdas Pophale) SiO2 
 PCOD9505006
Probable space group: C M M A
;
_chemical_formula_sum "Si O2"
_cell_formula_units_Z 72
_cell_length_a 15.150449
_cell_length_b 10.115070
_cell_length_c 26.898221
_cell_angle_alpha 90.000000
_cell_angle_beta 90.000000
_cell_angle_gamma 90.000000
_cell_volume 4122.094595
_symmetry_space_group_name_H-M "C M M A"
_symmetry_group_IT_number 67
_symmetry_cell_setting 'orthorhombic'
loop_
_space_group_symop_operation_xyz
x,y,z
-x,1/2-y,z
x,-y,-z
-x,1/2+y,-z
-x,-y,-z
x,1/2+y,-z
-x,y,z
x,1/2-y,z
1/2+x,1/2+y,z
1/2-x,-y,z
1/2+x,1/2-y,-z
1/2-x,y,-z
1/2-x,1/2-y,-z
1/2+x,y,-z
1/2-x,1/2+y,z
1/2+x,-y,z
loop_
_atom_site_type_symbol
_atom_site_label
_atom_site_fract_x
_atom_site_fract_y
_atom_site_fract_z
Si Si1 0.840504 0.589875 0.125589
Si Si2 0.664980 0.250000 0.463386
Si Si3 0.343917 0.514000 0.615251
Si Si4 0.500000 0.409019 0.312734
Si Si5 0.500000 0.089772 0.198670
Si Si6 0.500000 0.405364 0.047221
Si Si7 0.096493 0.250000 0.434774
O O1 0.820166 0.750000 0.128418
O O2 0.750000 0.500000 0.123685
O O3 0.908111 0.552593 0.170905
O O4 0.909844 0.572472 0.079441
O O5 0.750000 0.250000 0.500000
O O6 0.658284 0.125970 0.427085
O O7 0.592071 0.250000 0.505945
O O8 0.250000 0.500000 0.641020
O O9 0.416856 0.542993 0.655732
O O10 0.358312 0.379843 0.585430
O O11 0.500000 0.250000 0.312619
O O12 0.500000 0.454381 0.255759
O O13 0.500000 0.250000 0.196758
O O14 0.500000 0.250000 0.033647
O O15 0.500000 0.500000 0.000000
O O16 0.000000 0.250000 0.412449
#
# Coordination Sequence:
#
# PCOD9505006 Si02
#       7
#    16   8  16   8   8   8   8
#     4   9  18  35  60  86 115 153 207 247 290 347
#     4  12  24  40  60  84 108 145 187 218 261 339
#     4  12  24  41  59  84 112 143 179 222 275 336
#     4  11  23  41  62  86 110 142 189 232 283 349
#     4   8  18  38  61  80 109 147 187 244 296 345
#     4   9  19  34  52  84 128 175 203 243 291 336
#     4  12  26  38  58  83 115 144 174 220 271 322
#
# _framework density 17.466847999999999
#
# number of rings (size 3 to 8) (size 9 to 14) (size 15 to 20)
#    0.000    1.556    4.444    2.000    1.556    3.111 
#    0.000    3.889    4.889    0.000    0.000    0.000 
#    0.000    0.000    0.000    0.000    0.000    0.000 
#
# Total GULP energy -200471.661062 kJ/mol
# GULP energy per Si atom -5568.657252 kJ/mol
# Density = 1.742709 g / cm^3
# Si number density = 17.466848 Si / 1000 Ang^3
#
#
#
# Elastic Constant Matrix: (Units=GPa)
#
#
# Indices 1 2 3 4 5 6 
#
# 1 177.4519 64.2070 76.9427 0.0000 0.0000 0.0000
# 2 64.2070 120.7693 63.0150 0.0000 0.0000 0.0000
# 3 76.9427 63.0150 146.4261 0.0000 0.0000 0.0000
# 4 0.0000 0.0000 0.0000 28.7944 0.0000 0.0000
# 5 0.0000 0.0000 0.0000 0.0000 19.1000 0.0000
# 6 0.0000 0.0000 0.0000 0.0000 0.0000 36.6395
#
#
#
# Elastic Compliance Matrix: (Units=1/GPa)
#
#
# Indices 1 2 3 4 5 6 
#
# 1 0.007893 -0.002621 -0.003020 0.000000 0.000000 0.000000
# 2 -0.002621 0.011548 -0.003593 0.000000 0.000000 0.000000
# 3 -0.003020 -0.003593 0.009962 0.000000 0.000000 0.000000
# 4 0.000000 0.000000 0.000000 0.034729 0.000000 0.000000
# 5 0.000000 0.000000 0.000000 0.000000 0.052356 0.000000
# 6 0.000000 0.000000 0.000000 0.000000 0.000000 0.027293
#
#
# Mechanical properties :
#
#
# Convention : Reuss Voigt Hill
#
# Bulk Modulus (GPa) = 91.43091 94.77519 93.10305
# Shear Modulus (GPa) = 30.13990 32.93894 31.53942
#
# Velocity S-wave (km/s) = 4.15848 4.34729 4.25393
# Velocity P-wave (km/s) = 8.69001 8.92056 8.80604
#
# Compressibility (1/GPa) = 0.01093722
#
# Stress axis : x y z
#
# Youngs Moduli (GPa) = 126.69654 86.59420 100.37871
#
# Poissons Ratio (x) = 0.22693 0.30311
# Poissons Ratio (y) = 0.33203 0.36063
# Poissons Ratio (z) = 0.38258 0.31111
#
# Static dielectric constant tensor:
#      x y z
#    x 1.677090 0.000000 0.000000 
#    y 0.000000 1.571120 0.000000 
#    z 0.000000 0.000000 1.573930 
# 
# From -- ./inp_files/43165.got.cif
#   From: 2010.05.17/outbox.cif.g08.bks.cpg/sg67_22_cif.got.tgz:43165.got - 2010.06.03 18:28:57.
