data_PCOD9505977
_publ_section_title
;
Structure prediction by ZEFSAII (Michael W. Deem and Ramdas Pophale) SiO2 
 PCOD9505977
Probable space group: C C C A
;
_chemical_formula_sum "Si O2"
_cell_formula_units_Z 96
_cell_length_a 7.987888
_cell_length_b 24.096600
_cell_length_c 23.254819
_cell_angle_alpha 90.000000
_cell_angle_beta 90.000000
_cell_angle_gamma 90.000000
_cell_volume 4476.109467
_symmetry_space_group_name_H-M "C C C A"
_symmetry_group_IT_number 68
_space_group.IT_coordinate_system_code '2'
_symmetry_cell_setting 'orthorhombic'
loop_
_space_group_symop_operation_xyz
x,y,z
-x,1/2-y,z
x,1/2-y,1/2-z
-x,y,1/2-z
-x,-y,-z
x,1/2+y,-z
-x,1/2+y,1/2+z
x,-y,1/2+z
1/2+x,1/2+y,z
1/2-x,-y,z
1/2+x,-y,1/2-z
1/2-x,1/2+y,1/2-z
1/2-x,1/2-y,-z
1/2+x,y,-z
1/2-x,y,1/2+z
1/2+x,1/2-y,1/2+z
loop_
_atom_site_type_symbol
_atom_site_label
_atom_site_fract_x
_atom_site_fract_y
_atom_site_fract_z
Si Si1 0.115805 0.936164 0.425730
Si Si2 0.582565 0.970720 0.354112
Si Si3 0.135514 0.125320 0.341524
Si Si4 0.385341 0.203891 0.587665
Si Si5 0.245965 0.903633 0.042365
Si Si6 0.194032 0.267892 0.689038
O O1 0.245376 0.902524 0.388146
O O2 0.212268 0.939817 0.486356
O O3 0.949188 0.903933 0.444192
O O4 0.043081 0.986453 0.386711
O O5 0.473521 0.926547 0.317564
O O6 0.662192 0.934698 0.405586
O O7 0.750000 0.000000 0.327523
O O8 0.262990 0.166585 0.309647
O O9 0.003977 0.166961 0.371068
O O10 0.500000 0.250000 0.557565
O O11 0.304507 0.160213 0.543853
O O12 0.267289 0.236916 0.632653
O O13 0.271693 0.250000 0.750000
O O14 0.000000 0.250000 0.689569
#
# Coordination Sequence:
#
# PCOD9505977 Si02
#       6
#    16  16  16  16  16  16
#     4  11  20  32  51  78 115 154 194 233 276 333
#     4   9  19  33  52  80 116 154 193 234 275 329
#     4  10  20  34  54  84 115 146 188 233 282 337
#     4   9  19  35  53  78 111 146 189 235 285 335
#     4  10  19  32  50  78 114 157 198 235 279 333
#     4  10  21  39  63  89 112 140 182 235 292 351
#
# _framework density 21.447196000000002
#
# number of rings (size 3 to 8) (size 9 to 14) (size 15 to 20)
#    0.000    2.167    0.000    4.000    0.000    5.667 
#    0.000    8.333    0.000    0.000    0.000   72.333 
#    0.000    0.000    0.000    0.000    0.000    0.000 
#
# Total GULP energy -267256.145595 kJ/mol
# GULP energy per Si atom -5567.836367 kJ/mol
# Density = 2.139838 g / cm^3
# Si number density = 21.447196 Si / 1000 Ang^3
#
#
#
# Elastic Constant Matrix: (Units=GPa)
#
#
# Indices 1 2 3 4 5 6 
#
# 1 84.2925 33.9176 18.5329 0.0000 0.0000 0.0000
# 2 33.9176 110.0113 18.2235 0.0000 0.0000 0.0000
# 3 18.5329 18.2235 40.2805 0.0000 0.0000 0.0000
# 4 0.0000 0.0000 0.0000 2.3482 0.0000 0.0000
# 5 0.0000 0.0000 0.0000 0.0000 -14.7284 0.0000
# 6 0.0000 0.0000 0.0000 0.0000 0.0000 69.4676
#
#
#
# Elastic Compliance Matrix: (Units=1/GPa)
#
#
# Indices 1 2 3 4 5 6 
#
# 1 0.014418 -0.003617 -0.004997 0.000000 0.000000 0.000000
# 2 -0.003617 0.010734 -0.003192 0.000000 0.000000 0.000000
# 3 -0.004997 -0.003192 0.028569 0.000000 0.000000 0.000000
# 4 0.000000 0.000000 0.000000 0.425860 0.000000 0.000000
# 5 0.000000 0.000000 0.000000 0.000000 -0.067896 0.000000
# 6 0.000000 0.000000 0.000000 0.000000 0.000000 0.014395
#
#
# Mechanical properties :
#
#
# Convention : Reuss Voigt Hill
#
# Bulk Modulus (GPa) = 33.21346 41.77025 37.49186
# Shear Modulus (GPa) = 10.87600 22.34482 16.61041
#
# Velocity S-wave (km/s) = 2.25434 3.23128 2.78597
# Velocity P-wave (km/s) = 4.72185 5.78270 5.27899
#
# Compressibility (1/GPa) = 0.03010827
#
# Stress axis : x y z
#
# Youngs Moduli (GPa) = 69.35943 93.16209 35.00295
#
# Poissons Ratio (x) = 0.33700 0.17491
# Poissons Ratio (y) = 0.25090 0.11172
# Poissons Ratio (z) = 0.34659 0.29736
#
# Static dielectric constant tensor:
#      x y z
#    x 1.810460 0.000000 0.000000 
#    y 0.000000 1.845970 0.000000 
#    z 0.000000 0.000000 1.736000 
# 
# From -- ./inp_files/43299.got.cif
#   From: 2010.05.17/outbox.cif.g08.bks.cpg/sg68_22_cif.got.tgz:43299.got - 2010.06.03 18:57:09.
