data_PCOD9505684
_publ_section_title
;
Structure prediction by ZEFSAII (Michael W. Deem and Ramdas Pophale) SiO2 
 PCOD9505684
Probable space group: C C C A
;
_chemical_formula_sum "Si O2"
_cell_formula_units_Z 80
_cell_length_a 8.886728
_cell_length_b 17.460902
_cell_length_c 25.443833
_cell_angle_alpha 90.000000
_cell_angle_beta 90.000000
_cell_angle_gamma 90.000000
_cell_volume 3948.126862
_symmetry_space_group_name_H-M "C C C A"
_symmetry_group_IT_number 68
_space_group.IT_coordinate_system_code '2'
_symmetry_cell_setting 'orthorhombic'
loop_
_space_group_symop_operation_xyz
x,y,z
-x,1/2-y,z
x,1/2-y,1/2-z
-x,y,1/2-z
-x,-y,-z
x,1/2+y,-z
-x,1/2+y,1/2+z
x,-y,1/2+z
1/2+x,1/2+y,z
1/2-x,-y,z
1/2+x,-y,1/2-z
1/2-x,1/2+y,1/2-z
1/2-x,1/2-y,-z
1/2+x,y,-z
1/2-x,y,1/2+z
1/2+x,1/2-y,1/2+z
loop_
_atom_site_type_symbol
_atom_site_label
_atom_site_fract_x
_atom_site_fract_y
_atom_site_fract_z
Si Si1 0.334635 0.878626 0.649771
Si Si2 0.649279 0.699542 0.538617
Si Si3 0.000000 0.114181 0.750000
Si Si4 0.250000 0.000000 0.292331
Si Si5 0.391508 0.552812 0.032967
Si Si6 0.525659 0.048307 0.858953
O O1 0.317139 0.825057 0.598758
O O2 0.437732 0.845407 0.697222
O O3 0.164947 0.904729 0.664812
O O4 0.418511 0.959535 0.635076
O O5 0.500000 0.750000 0.542287
O O6 0.750000 0.750000 0.500000
O O7 0.645505 0.620958 0.506023
O O8 0.141902 0.058594 0.762040
O O9 0.127370 0.046902 0.325892
O O10 0.250000 0.500000 0.049100
O O11 0.480532 0.579999 0.084229
O O12 0.500000 0.500000 0.000000
#
# Coordination Sequence:
#
# PCOD9505684 Si02
#       6
#    16  16   8   8  16  16
#     4  10  21  38  58  87 124 165 216 267 326 395
#     4  12  26  41  60  91 134 172 211 271 339 402
#     4  10  20  34  59  88 122 170 211 274 328 396
#     4  10  18  32  54  94 134 154 208 278 344 380
#     4  12  22  38  63  93 123 170 215 260 318 398
#     4  10  19  34  61  93 122 160 209 271 323 388
#
# _framework density 20.262774
#
# number of rings (size 3 to 8) (size 9 to 14) (size 15 to 20)
#    0.000    1.200    3.000    6.000    0.000    0.000 
#    0.000    0.500    0.000    0.000    0.000    2.800 
#    0.000    0.000    0.000    0.000    0.000    0.000 
#
# Total GULP energy -222999.184027 kJ/mol
# GULP energy per Si atom -5574.979601 kJ/mol
# Density = 2.021665 g / cm^3
# Si number density = 20.262774 Si / 1000 Ang^3
#
#
#
# Elastic Constant Matrix: (Units=GPa)
#
#
# Indices 1 2 3 4 5 6 
#
# 1 147.3595 28.8428 53.6494 0.0000 0.0000 0.0000
# 2 28.8428 67.5041 27.6679 0.0000 0.0000 0.0000
# 3 53.6494 27.6679 140.1161 0.0000 0.0000 0.0000
# 4 0.0000 0.0000 0.0000 20.6888 0.0000 0.0000
# 5 0.0000 0.0000 0.0000 0.0000 45.3640 0.0000
# 6 0.0000 0.0000 0.0000 0.0000 0.0000 26.6239
#
#
#
# Elastic Compliance Matrix: (Units=1/GPa)
#
#
# Indices 1 2 3 4 5 6 
#
# 1 0.008234 -0.002422 -0.002674 0.000000 0.000000 0.000000
# 2 -0.002422 0.016831 -0.002396 0.000000 0.000000 0.000000
# 3 -0.002674 -0.002396 0.008634 0.000000 0.000000 0.000000
# 4 0.000000 0.000000 0.000000 0.048335 0.000000 0.000000
# 5 0.000000 0.000000 0.000000 0.000000 0.022044 0.000000
# 6 0.000000 0.000000 0.000000 0.000000 0.000000 0.037560
#
#
# Mechanical properties :
#
#
# Convention : Reuss Voigt Hill
#
# Bulk Modulus (GPa) = 53.43654 63.92220 58.67937
# Shear Modulus (GPa) = 30.70097 34.85665 32.77881
#
# Velocity S-wave (km/s) = 3.89670 4.15207 4.02641
# Velocity P-wave (km/s) = 6.83189 7.38927 7.11604
#
# Compressibility (1/GPa) = 0.01871379
#
# Stress axis : x y z
#
# Youngs Moduli (GPa) = 121.44970 59.41464 115.81964
#
# Poissons Ratio (x) = 0.14390 0.30975
# Poissons Ratio (y) = 0.29415 0.27752
# Poissons Ratio (z) = 0.32481 0.14237
#
# Static dielectric constant tensor:
#      x y z
#    x 1.709100 0.000000 0.000000 
#    y 0.000000 1.666500 0.000000 
#    z 0.000000 0.000000 1.833220 
# 
# From -- ./inp_files/49167.got.cif
#   From: 2010.05.17/outbox.cif.g08.bks.cpg/sg68_25_cif.got.tgz:49167.got - 2010.06.03 18:57:09.
