data_PCOD9505581
_publ_section_title
;
Structure prediction by ZEFSAII (Michael W. Deem and Ramdas Pophale) SiO2 
 PCOD9505581
Probable space group: C C C A
;
_chemical_formula_sum "Si O2"
_cell_formula_units_Z 80
_cell_length_a 15.629107
_cell_length_b 9.229376
_cell_length_c 30.117630
_cell_angle_alpha 90.000000
_cell_angle_beta 90.000000
_cell_angle_gamma 90.000000
_cell_volume 4344.374915
_symmetry_space_group_name_H-M "C C C A"
_symmetry_group_IT_number 68
_space_group.IT_coordinate_system_code '2'
_symmetry_cell_setting 'orthorhombic'
loop_
_space_group_symop_operation_xyz
x,y,z
-x,1/2-y,z
x,1/2-y,1/2-z
-x,y,1/2-z
-x,-y,-z
x,1/2+y,-z
-x,1/2+y,1/2+z
x,-y,1/2+z
1/2+x,1/2+y,z
1/2-x,-y,z
1/2+x,-y,1/2-z
1/2-x,1/2+y,1/2-z
1/2-x,1/2-y,-z
1/2+x,y,-z
1/2-x,y,1/2+z
1/2+x,1/2-y,1/2+z
loop_
_atom_site_type_symbol
_atom_site_label
_atom_site_fract_x
_atom_site_fract_y
_atom_site_fract_z
Si Si1 0.349210 0.170881 0.706154
Si Si2 0.142145 0.339545 0.793707
Si Si3 0.409333 0.189404 0.386562
Si Si4 0.755748 0.671503 0.453517
Si Si5 0.837173 0.602957 0.871237
O O1 0.381402 0.250000 0.750000
O O2 0.245528 0.158413 0.709197
O O3 0.360364 0.282188 0.665883
O O4 0.385007 0.007929 0.704055
O O5 0.112062 0.250000 0.750000
O O6 0.117010 0.262819 0.839773
O O7 0.500000 0.250000 0.400078
O O8 0.340443 0.212443 0.425653
O O9 0.408793 0.017504 0.377979
O O10 0.750000 0.500000 0.462481
O O11 0.750000 0.750000 0.500000
O O12 0.682323 0.690073 0.416358
O O13 0.750000 0.500000 0.861892
#
# Coordination Sequence:
#
# PCOD9505581 Si02
#       5
#    16  16  16  16  16
#     4  10  18  28  52  79 108 141 189 237 261 308
#     4  10  19  30  50  81 111 146 186 226 272 313
#     4  10  20  36  55  77 110 146 182 220 276 337
#     4   9  19  35  56  79 102 136 177 226 276 330
#     4   9  17  34  51  77 107 140 181 227 272 322
#
# _framework density 18.414615999999999
#
# number of rings (size 3 to 8) (size 9 to 14) (size 15 to 20)
#    0.000    2.800    4.000    1.200    2.800    2.000 
#    0.000    5.000    0.000    1.200    0.000    0.000 
#    0.000    0.000    0.000    0.000    0.000    0.000 
#
# Total GULP energy -222741.069180 kJ/mol
# GULP energy per Si atom -5568.526730 kJ/mol
# Density = 1.837270 g / cm^3
# Si number density = 18.414616 Si / 1000 Ang^3
#
#
#
# Elastic Constant Matrix: (Units=GPa)
#
#
# Indices 1 2 3 4 5 6 
#
# 1 46.8289 42.3407 32.4214 0.0000 0.0000 0.0000
# 2 42.3407 119.7043 104.5731 0.0000 0.0000 0.0000
# 3 32.4214 104.5731 207.5127 0.0000 0.0000 0.0000
# 4 0.0000 0.0000 0.0000 42.1284 0.0000 0.0000
# 5 0.0000 0.0000 0.0000 0.0000 3.9680 0.0000
# 6 0.0000 0.0000 0.0000 0.0000 0.0000 19.7792
#
#
#
# Elastic Compliance Matrix: (Units=1/GPa)
#
#
# Indices 1 2 3 4 5 6 
#
# 1 0.031573 -0.012252 0.001241 0.000000 0.000000 0.000000
# 2 -0.012252 0.019679 -0.008002 0.000000 0.000000 0.000000
# 3 0.001241 -0.008002 0.008658 0.000000 0.000000 0.000000
# 4 0.000000 0.000000 0.000000 0.023737 0.000000 0.000000
# 5 0.000000 0.000000 0.000000 0.000000 0.252013 0.000000
# 6 0.000000 0.000000 0.000000 0.000000 0.000000 0.050558
#
#
# Mechanical properties :
#
#
# Convention : Reuss Voigt Hill
#
# Bulk Modulus (GPa) = 45.69830 81.41293 63.55562
# Shear Modulus (GPa) = 11.58647 26.15586 18.87116
#
# Velocity S-wave (km/s) = 2.51111 3.77289 3.20471
# Velocity P-wave (km/s) = 5.76869 7.95529 6.94854
#
# Compressibility (1/GPa) = 0.02188265
#
# Stress axis : x y z
#
# Youngs Moduli (GPa) = 31.67300 50.81677 115.50320
#
# Poissons Ratio (x) = 0.62261 -0.14339
# Poissons Ratio (y) = 0.38806 0.92431
# Poissons Ratio (z) = -0.03932 0.40666
#
# Static dielectric constant tensor:
#      x y z
#    x 1.689750 0.000000 0.000000 
#    y 0.000000 1.638500 0.000000 
#    z 0.000000 0.000000 1.627570 
# 
# From -- ./inp_files/55538.got.cif
#   From: 2010.05.17/outbox.cif.g08.bks.cpg/sg68_28_cif.got.tgz:55538.got - 2010.06.03 18:57:09.
