data_PCOD9505708
_publ_section_title
;
Structure prediction by ZEFSAII (Michael W. Deem and Ramdas Pophale) SiO2 
 PCOD9505708
Probable space group: C C C A
;
_chemical_formula_sum "Si O2"
_cell_formula_units_Z 96
_cell_length_a 24.178698
_cell_length_b 10.624927
_cell_length_c 21.151656
_cell_angle_alpha 90.000000
_cell_angle_beta 90.000000
_cell_angle_gamma 90.000000
_cell_volume 5433.794882
_symmetry_space_group_name_H-M "C C C A"
_symmetry_group_IT_number 68
_space_group.IT_coordinate_system_code '2'
_symmetry_cell_setting 'orthorhombic'
loop_
_space_group_symop_operation_xyz
x,y,z
-x,1/2-y,z
x,1/2-y,1/2-z
-x,y,1/2-z
-x,-y,-z
x,1/2+y,-z
-x,1/2+y,1/2+z
x,-y,1/2+z
1/2+x,1/2+y,z
1/2-x,-y,z
1/2+x,-y,1/2-z
1/2-x,1/2+y,1/2-z
1/2-x,1/2-y,-z
1/2+x,y,-z
1/2-x,y,1/2+z
1/2+x,1/2-y,1/2+z
loop_
_atom_site_type_symbol
_atom_site_label
_atom_site_fract_x
_atom_site_fract_y
_atom_site_fract_z
Si Si1 0.562649 0.731235 0.354028
Si Si2 0.332591 0.281054 0.561251
Si Si3 0.314649 0.495679 0.965305
Si Si4 0.269564 0.305348 0.818125
Si Si5 0.436428 0.463709 0.755328
Si Si6 0.840273 0.559846 0.168766
O O1 0.500000 0.750000 0.377053
O O2 0.606593 0.728352 0.409304
O O3 0.573012 0.606569 0.311466
O O4 0.568471 0.849628 0.306369
O O5 0.324422 0.151837 0.521724
O O6 0.322744 0.406374 0.521558
O O7 0.291668 0.271974 0.621760
O O8 0.250000 0.500000 0.944764
O O9 0.352109 0.541674 0.906030
O O10 0.281619 0.250000 0.750000
O O11 0.204210 0.329662 0.823954
O O12 0.304803 0.433776 0.817964
O O13 0.500000 0.509204 0.750000
O O14 0.391596 0.560693 0.783056
#
# Coordination Sequence:
#
# PCOD9505708 Si02
#       6
#    16  16  16  16  16  16
#     4   9  17  31  55  84 106 138 190 244 286 330
#     4  11  21  36  57  81 115 154 193 233 285 346
#     4  11  21  37  55  79 115 160 192 229 283 348
#     4  10  19  33  53  78 110 140 177 238 287 344
#     4   9  16  30  56  81 106 136 183 239 291 338
#     4  10  18  33  52  78 108 145 182 229 297 332
#
# _framework density 17.667211000000002
#
# number of rings (size 3 to 8) (size 9 to 14) (size 15 to 20)
#    0.000    2.000    6.667    2.500    0.000    0.000 
#    6.000    0.833    0.000    0.500    0.000    0.000 
#    0.000    0.000    0.000    0.000    0.000    0.000 
#
# Total GULP energy -267292.792649 kJ/mol
# GULP energy per Si atom -5568.599847 kJ/mol
# Density = 1.762700 g / cm^3
# Si number density = 17.667211 Si / 1000 Ang^3
#
#
#
# Elastic Constant Matrix: (Units=GPa)
#
#
# Indices 1 2 3 4 5 6 
#
# 1 118.2480 25.8398 39.4072 0.0000 0.0000 0.0000
# 2 25.8398 57.0780 55.9488 0.0000 0.0000 0.0000
# 3 39.4072 55.9488 91.0869 0.0000 0.0000 0.0000
# 4 0.0000 0.0000 0.0000 26.1618 0.0000 0.0000
# 5 0.0000 0.0000 0.0000 0.0000 19.0701 0.0000
# 6 0.0000 0.0000 0.0000 0.0000 0.0000 15.5972
#
#
#
# Elastic Compliance Matrix: (Units=1/GPa)
#
#
# Indices 1 2 3 4 5 6 
#
# 1 0.009893 -0.000712 -0.003843 0.000000 0.000000 0.000000
# 2 -0.000712 0.044080 -0.026768 0.000000 0.000000 0.000000
# 3 -0.003843 -0.026768 0.029083 0.000000 0.000000 0.000000
# 4 0.000000 0.000000 0.000000 0.038224 0.000000 0.000000
# 5 0.000000 0.000000 0.000000 0.000000 0.052438 0.000000
# 6 0.000000 0.000000 0.000000 0.000000 0.000000 0.064114
#
#
# Mechanical properties :
#
#
# Convention : Reuss Voigt Hill
#
# Bulk Modulus (GPa) = 48.99252 56.53382 52.76317
# Shear Modulus (GPa) = 16.27178 21.84696 19.05937
#
# Velocity S-wave (km/s) = 3.03812 3.52032 3.28807
# Velocity P-wave (km/s) = 6.33228 6.97082 6.65921
#
# Compressibility (1/GPa) = 0.02041128
#
# Stress axis : x y z
#
# Youngs Moduli (GPa) = 101.08150 22.68586 34.38470
#
# Poissons Ratio (x) = 0.01615 0.13213
# Poissons Ratio (y) = 0.07196 0.92040
# Poissons Ratio (z) = 0.38843 0.60725
#
# Static dielectric constant tensor:
#      x y z
#    x 1.653330 0.000000 0.000000 
#    y 0.000000 1.638820 0.000000 
#    z 0.000000 0.000000 1.627830 
# 
# From -- ./inp_files/29919.got.cif
#   From: 2010.05.17/outbox.cif.g08.bks.cpg/sg68_15_cif.got.tgz:29919.got - 2010.06.03 18:57:09.
