data_PCOD9505280
_publ_section_title
;
Structure prediction by ZEFSAII (Michael W. Deem and Ramdas Pophale) SiO2 
 PCOD9505280
Probable space group: C M M A
;
_chemical_formula_sum "Si O2"
_cell_formula_units_Z 44
_cell_length_a 18.000000
_cell_length_b 9.000000
_cell_length_c 30.000000
_cell_angle_alpha 90.000000
_cell_angle_beta 90.000000
_cell_angle_gamma 90.000000
_cell_volume 4860.000000
_symmetry_space_group_name_H-M "C M M A"
_symmetry_group_IT_number 67
_symmetry_cell_setting 'orthorhombic'
loop_
_space_group_symop_operation_xyz
x,y,z
-x,1/2-y,z
x,-y,-z
-x,1/2+y,-z
-x,-y,-z
x,1/2+y,-z
-x,y,z
x,1/2-y,z
1/2+x,1/2+y,z
1/2-x,-y,z
1/2+x,1/2-y,-z
1/2-x,y,-z
1/2-x,1/2-y,-z
1/2+x,y,-z
1/2-x,1/2+y,z
1/2+x,-y,z
loop_
_atom_site_type_symbol
_atom_site_label
_atom_site_fract_x
_atom_site_fract_y
_atom_site_fract_z
Si Si1 0.334417 0.429853 0.904688
Si Si2 0.087931 0.929406 0.178297
Si Si3 0.089029 0.077500 0.718775
Si Si4 0.587128 0.071599 0.545930
Si Si5 0.330488 0.427783 0.636759
Si Si6 0.000000 0.428978 0.048976
O O1 0.326803 0.250000 0.907062
O O2 0.250000 0.500000 0.916327
O O3 0.357145 0.488155 0.855520
O O4 0.415725 0.467805 0.930154
O O5 0.093791 0.750000 0.172844
O O6 0.105547 0.965075 0.229929
O O7 0.000000 0.967296 0.170144
O O8 0.111535 0.250000 0.712955
O O9 0.000000 0.070317 0.714364
O O10 0.125965 0.980448 0.680628
O O11 0.500000 0.031885 0.550211
O O12 0.592246 0.250000 0.542196
O O13 0.628494 0.025170 0.591007
O O14 0.615646 0.000000 0.500000
O O15 0.325705 0.250000 0.636564
O O16 0.250000 0.500000 0.637626
O O17 0.000000 0.250000 0.048188
O O18 0.000000 0.500000 0.000000
#
# Coordination Sequence:
#
# PCOD9505280 Si02
#       6
#    16  16  16  16  16   8
#     4  11  23  40  62  93 127 163 208 256 305 364
#     4   9  18  35  60  88 118 155 197 243 297 354
#     4   9  19  36  58  84 113 147 190 235 282 340
#     4   9  19  36  57  79 101 129 171 221 273 334
#     4  11  23  37  53  76 109 146 184 228 278 334
#     4  10  24  44  66  92 126 164 208 258 309 364
#
# _framework density 9.0534979999999994
#
# number of rings (size 3 to 8) (size 9 to 14) (size 15 to 20)
#    0.000    2.182    0.909    2.727    0.000    6.182 
#    0.000    7.273    0.000    0.000    0.000    0.000 
#    0.000    0.000    0.000    0.000    0.000    0.000 
#
# Total GULP energy -245065.341612 kJ/mol
# GULP energy per Si atom -5569.666855 kJ/mol
# Density = 0.903289 g / cm^3
# Si number density = 9.053498 Si / 1000 Ang^3
#
#
#
# Elastic Constant Matrix: (Units=GPa)
#
#
# Indices 1 2 3 4 5 6 
#
# 1 104.6233 37.2039 67.1426 0.0000 0.0000 0.0000
# 2 37.2039 45.9373 42.9460 0.0000 0.0000 0.0000
# 3 67.1426 42.9460 125.7626 0.0000 0.0000 0.0000
# 4 0.0000 0.0000 0.0000 33.8047 0.0000 0.0000
# 5 0.0000 0.0000 0.0000 0.0000 24.2366 0.0000
# 6 0.0000 0.0000 0.0000 0.0000 0.0000 30.5907
#
#
#
# Elastic Compliance Matrix: (Units=1/GPa)
#
#
# Indices 1 2 3 4 5 6 
#
# 1 0.016062 -0.007332 -0.006071 0.000000 0.000000 0.000000
# 2 -0.007332 0.035325 -0.008148 0.000000 0.000000 0.000000
# 3 -0.006071 -0.008148 0.013975 0.000000 0.000000 0.000000
# 4 0.000000 0.000000 0.000000 0.029582 0.000000 0.000000
# 5 0.000000 0.000000 0.000000 0.000000 0.041260 0.000000
# 6 0.000000 0.000000 0.000000 0.000000 0.000000 0.032690
#
#
# Mechanical properties :
#
#
# Convention : Reuss Voigt Hill
#
# Bulk Modulus (GPa) = 44.92708 63.43421 54.18065
# Shear Modulus (GPa) = 22.78777 26.32845 24.55811
#
# Velocity S-wave (km/s) = 3.55139 3.81734 3.68676
# Velocity P-wave (km/s) = 6.45619 7.38501 6.93617
#
# Compressibility (1/GPa) = 0.02225829
#
# Stress axis : x y z
#
# Youngs Moduli (GPa) = 62.26003 28.30876 71.55463
#
# Poissons Ratio (x) = 0.20757 0.43442
# Poissons Ratio (y) = 0.45650 0.58305
# Poissons Ratio (z) = 0.37799 0.23067
#
# Static dielectric constant tensor:
#      x y z
#    x 1.643260 0.000000 0.000000 
#    y 0.000000 1.614860 0.000000 
#    z 0.000000 0.000000 1.626330 
# 
# From -- ./inp_files/45769.got.cif
#   From: 2010.05.17/outbox.ucp.g08.bks.cvg/sg67_23_cif.got.tgz:45769.got - 2010.06.11 16:47:20.
