data_PCOD9505290
_publ_section_title
;
Structure prediction by ZEFSAII (Michael W. Deem and Ramdas Pophale) SiO2 
 PCOD9505290
Probable space group: C C C A
;
_chemical_formula_sum "Si O2"
_cell_formula_units_Z 68
_cell_length_a 13.147285
_cell_length_b 8.206807
_cell_length_c 27.262467
_cell_angle_alpha 90.000000
_cell_angle_beta 90.000000
_cell_angle_gamma 90.000000
_cell_volume 2941.544688
_symmetry_space_group_name_H-M "C C C A"
_symmetry_group_IT_number 68
_space_group.IT_coordinate_system_code '2'
_symmetry_cell_setting 'orthorhombic'
loop_
_space_group_symop_operation_xyz
x,y,z
-x,1/2-y,z
x,1/2-y,1/2-z
-x,y,1/2-z
-x,-y,-z
x,1/2+y,-z
-x,1/2+y,1/2+z
x,-y,1/2+z
1/2+x,1/2+y,z
1/2-x,-y,z
1/2+x,-y,1/2-z
1/2-x,1/2+y,1/2-z
1/2-x,1/2-y,-z
1/2+x,y,-z
1/2-x,y,1/2+z
1/2+x,1/2-y,1/2+z
loop_
_atom_site_type_symbol
_atom_site_label
_atom_site_fract_x
_atom_site_fract_y
_atom_site_fract_z
Si Si1 0.128043 0.981219 0.050889
Si Si2 0.625031 0.349423 0.942321
Si Si3 0.303238 0.169228 0.201073
Si Si4 0.000000 0.750000 0.250000
Si Si5 0.844724 0.670080 0.397577
O O1 0.087968 0.162708 0.061852
O O2 0.250000 0.000000 0.054424
O O3 0.098630 0.835352 0.087118
O O4 0.103932 0.919621 0.996275
O O5 0.747986 0.334101 0.934560
O O6 0.601504 0.496731 0.904736
O O7 0.255675 0.250000 0.250000
O O8 0.421815 0.147441 0.216748
O O9 0.302699 0.295722 0.156511
O O10 0.250000 0.000000 0.188009
#
# Coordination Sequence:
#
# PCOD9505290 Si02
#       5
#    16  16  16   4  16
#     4  10  14  24  37  71 120 158 200 260 301 371
#     4  10  16  23  43  74 122 161 204 259 305 379
#     4  10  22  42  65  93 130 166 219 278 335 400
#     4   8  24  44  70  94 132 168 222 280 352 394
#     4  10  18  26  47  78 115 164 205 258 319 379
#
# _framework density 23.117108000000002
#
# number of rings (size 3 to 8) (size 9 to 14) (size 15 to 20)
#    0.706    1.412    4.706    3.529    3.294    0.000 
#    0.000    0.588    0.000    0.000    0.000    1.647 
#    0.000    0.000    0.000    1.176    0.000    0.000 
#
# Total GULP energy -189702.825270 kJ/mol
# GULP energy per Si atom -5579.494861 kJ/mol
# Density = 2.306449 g / cm^3
# Si number density = 23.117108 Si / 1000 Ang^3
#
#
#
# Elastic Constant Matrix: (Units=GPa)
#
#
# Indices 1 2 3 4 5 6 
#
# 1 87.6328 38.2492 -9.4984 0.0000 0.0000 0.0000
# 2 38.2492 268.9730 76.9848 0.0000 0.0000 0.0000
# 3 -9.4984 76.9848 122.5169 0.0000 0.0000 0.0000
# 4 0.0000 0.0000 0.0000 28.5801 0.0000 0.0000
# 5 0.0000 0.0000 0.0000 0.0000 6.6773 0.0000
# 6 0.0000 0.0000 0.0000 0.0000 0.0000 50.8035
#
#
#
# Elastic Compliance Matrix: (Units=1/GPa)
#
#
# Indices 1 2 3 4 5 6 
#
# 1 0.012815 -0.002569 0.002608 0.000000 0.000000 0.000000
# 2 -0.002569 0.005048 -0.003371 0.000000 0.000000 0.000000
# 3 0.002608 -0.003371 0.010483 0.000000 0.000000 0.000000
# 4 0.000000 0.000000 0.000000 0.034989 0.000000 0.000000
# 5 0.000000 0.000000 0.000000 0.000000 0.149761 0.000000
# 6 0.000000 0.000000 0.000000 0.000000 0.000000 0.019684
#
#
# Mechanical properties :
#
#
# Convention : Reuss Voigt Hill
#
# Bulk Modulus (GPa) = 46.12296 76.73266 61.42781
# Shear Modulus (GPa) = 20.26992 42.10465 31.18728
#
# Velocity S-wave (km/s) = 2.96435 4.27237 3.67699
# Velocity P-wave (km/s) = 5.63132 7.58964 6.68260
#
# Compressibility (1/GPa) = 0.02168117
#
# Stress axis : x y z
#
# Youngs Moduli (GPa) = 78.03329 198.09845 95.39649
#
# Poissons Ratio (x) = 0.50885 -0.24875
# Poissons Ratio (y) = 0.20044 0.32159
# Poissons Ratio (z) = -0.20348 0.66781
#
# Static dielectric constant tensor:
#      x y z
#    x 1.990880 0.000000 0.000000 
#    y 0.000000 1.904770 0.000000 
#    z 0.000000 0.000000 1.852700 
# 
# From -- ./inp_files/55515.got.cif
#   From: 2010.05.17/outbox.cif.g08.bks.cpg/sg68_28_cif.got.tgz:55515.got - 2010.06.03 18:57:09.
