data_PCOD9505157
_publ_section_title
;
Structure prediction by ZEFSAII (Michael W. Deem and Ramdas Pophale) SiO2 
 PCOD9505157
Probable space group: C M M A
;
_chemical_formula_sum "Si O2"
_cell_formula_units_Z 48
_cell_length_a 27.000000
_cell_length_b 9.000000
_cell_length_c 24.000000
_cell_angle_alpha 90.000000
_cell_angle_beta 90.000000
_cell_angle_gamma 90.000000
_cell_volume 5832.000000
_symmetry_space_group_name_H-M "C M M A"
_symmetry_group_IT_number 67
_symmetry_cell_setting 'orthorhombic'
loop_
_space_group_symop_operation_xyz
x,y,z
-x,1/2-y,z
x,-y,-z
-x,1/2+y,-z
-x,-y,-z
x,1/2+y,-z
-x,y,z
x,1/2-y,z
1/2+x,1/2+y,z
1/2-x,-y,z
1/2+x,1/2-y,-z
1/2-x,y,-z
1/2-x,1/2-y,-z
1/2+x,y,-z
1/2-x,1/2+y,z
1/2+x,-y,z
loop_
_atom_site_type_symbol
_atom_site_label
_atom_site_fract_x
_atom_site_fract_y
_atom_site_fract_z
Si Si1 0.196517 0.574653 0.664535
Si Si2 0.944440 0.572836 0.176335
Si Si3 0.905660 0.573263 0.056524
Si Si4 0.153061 0.923091 0.786399
Si Si5 0.301145 0.572283 0.892064
Si Si6 0.805533 0.071441 0.555396
O O1 0.201815 0.750000 0.650954
O O2 0.250000 0.500000 0.672879
O O3 0.169134 0.559925 0.722893
O O4 0.171748 0.487991 0.612951
O O5 0.934659 0.750000 0.182111
O O6 0.937895 0.537815 0.110805
O O7 0.902553 0.480895 0.206933
O O8 0.000000 0.541992 0.194726
O O9 0.905844 0.750000 0.049835
O O10 0.849139 0.527750 0.071657
O O11 0.922802 0.500000 0.000000
O O12 0.157332 0.750000 0.801990
O O13 0.186246 0.016604 0.829603
O O14 0.297396 0.750000 0.892384
O O15 0.250000 0.500000 0.911063
O O16 0.803148 0.250000 0.552494
O O17 0.828818 0.000000 0.500000
O O18 0.750000 0.000000 0.557124
#
# Coordination Sequence:
#
# PCOD9505157 Si02
#       6
#    16  16  16  16  16  16
#     4  10  19  29  42  64  93 124 158 192 225 263
#     4   9  19  36  54  70  91 118 146 181 229 280
#     4   9  19  33  48  68  92 117 147 183 222 268
#     4  10  20  32  48  70  94 119 151 191 230 272
#     4  10  20  33  48  66  91 122 154 187 224 268
#     4  10  17  26  40  58  85 122 161 196 228 261
#
# _framework density 8.2304530000000007
#
# number of rings (size 3 to 8) (size 9 to 14) (size 15 to 20)
#    0.000    2.333    0.000    6.000    0.000    8.333 
#    0.000    1.667    0.000    0.000    0.000    0.000 
#    0.000    0.667    0.000    2.167    0.000    3.500 
#
# Total GULP energy -267588.151914 kJ/mol
# GULP energy per Si atom -5574.753165 kJ/mol
# Density = 0.821172 g / cm^3
# Si number density = 8.230453 Si / 1000 Ang^3
#
#
#
# Elastic Constant Matrix: (Units=GPa)
#
#
# Indices 1 2 3 4 5 6 
#
# 1 35.7193 13.2459 4.8602 0.0000 0.0000 0.0000
# 2 13.2459 72.2091 36.0331 0.0000 0.0000 0.0000
# 3 4.8602 36.0331 65.9985 0.0000 0.0000 0.0000
# 4 0.0000 0.0000 0.0000 26.1447 0.0000 0.0000
# 5 0.0000 0.0000 0.0000 0.0000 6.3387 0.0000
# 6 0.0000 0.0000 0.0000 0.0000 0.0000 -12.0425
#
#
#
# Elastic Compliance Matrix: (Units=1/GPa)
#
#
# Indices 1 2 3 4 5 6 
#
# 1 0.030097 -0.006068 0.001097 0.000000 0.000000 0.000000
# 2 -0.006068 0.020258 -0.010613 0.000000 0.000000 0.000000
# 3 0.001097 -0.010613 0.020866 0.000000 0.000000 0.000000
# 4 0.000000 0.000000 0.000000 0.038249 0.000000 0.000000
# 5 0.000000 0.000000 0.000000 0.000000 0.157761 0.000000
# 6 0.000000 0.000000 0.000000 0.000000 0.000000 -0.083039
#
#
# Mechanical properties :
#
#
# Convention : Reuss Voigt Hill
#
# Bulk Modulus (GPa) = 24.96816 31.35613 28.16214
# Shear Modulus (GPa) = 21.86164 12.07403 16.96784
#
# Velocity S-wave (km/s) = 3.64826 2.71125 3.21408
# Velocity P-wave (km/s) = 5.73999 5.37507 5.56052
#
# Compressibility (1/GPa) = 0.04005101
#
# Stress axis : x y z
#
# Youngs Moduli (GPa) = 33.22572 49.36322 47.92562
#
# Poissons Ratio (x) = 0.29955 -0.05256
# Poissons Ratio (y) = 0.20162 0.50865
# Poissons Ratio (z) = -0.03644 0.52391
#
# Static dielectric constant tensor:
#      x y z
#    x 1.547740 0.000000 0.000000 
#    y 0.000000 1.551270 0.000000 
#    z 0.000000 0.000000 1.599160 
# 
# From -- ./inp_files/40928.got.cif
#   From: 2010.05.17/outbox.ucp.g08.bks.cvg/sg67_21_cif.got.tgz:40928.got - 2010.06.11 16:47:20.
