data_PCOD9505534
_publ_section_title
;
Structure prediction by ZEFSAII (Michael W. Deem and Ramdas Pophale) SiO2 
 PCOD9505534
Probable space group: C C C A
;
_chemical_formula_sum "Si O2"
_cell_formula_units_Z 88
_cell_length_a 15.981294
_cell_length_b 30.448930
_cell_length_c 8.969618
_cell_angle_alpha 90.000000
_cell_angle_beta 90.000000
_cell_angle_gamma 90.000000
_cell_volume 4364.735435
_symmetry_space_group_name_H-M "C C C A"
_symmetry_group_IT_number 68
_space_group.IT_coordinate_system_code '2'
_symmetry_cell_setting 'orthorhombic'
loop_
_space_group_symop_operation_xyz
x,y,z
-x,1/2-y,z
x,1/2-y,1/2-z
-x,y,1/2-z
-x,-y,-z
x,1/2+y,-z
-x,1/2+y,1/2+z
x,-y,1/2+z
1/2+x,1/2+y,z
1/2-x,-y,z
1/2+x,-y,1/2-z
1/2-x,1/2+y,1/2-z
1/2-x,1/2-y,-z
1/2+x,y,-z
1/2-x,y,1/2+z
1/2+x,1/2-y,1/2+z
loop_
_atom_site_type_symbol
_atom_site_label
_atom_site_fract_x
_atom_site_fract_y
_atom_site_fract_z
Si Si1 0.640735 0.799448 0.749108
Si Si2 0.388829 0.561501 0.861691
Si Si3 0.736692 0.662350 0.470961
Si Si4 0.847411 0.984556 0.669349
Si Si5 0.704803 0.899110 0.298030
Si Si6 0.000000 0.132369 0.750000
O O1 0.608524 0.750000 0.750000
O O2 0.675289 0.815267 0.910128
O O3 0.717408 0.802749 0.633650
O O4 0.572598 0.834974 0.698621
O O5 0.398879 0.525414 0.731572
O O6 0.301608 0.585813 0.819311
O O7 0.458907 0.598746 0.867193
O O8 0.377174 0.534862 0.013467
O O9 0.695850 0.627592 0.356004
O O10 0.804758 0.634347 0.566064
O O11 0.846344 0.944004 0.786480
O O12 0.750000 0.000000 0.653398
#
# Coordination Sequence:
#
# PCOD9505534 Si02
#       6
#    16  16  16  16  16   8
#     4  11  23  40  65  92 118 151 199 254 310 363
#     4  11  22  34  54  82 121 162 200 237 291 355
#     4  10  19  36  63  91 115 154 199 248 292 357
#     4  10  20  33  56  87 120 161 206 250 283 338
#     4  10  17  34  58  89 119 153 198 243 295 343
#     4  12  23  40  58  86 128 162 192 246 315 370
#
# _framework density 20.161587999999998
#
# number of rings (size 3 to 8) (size 9 to 14) (size 15 to 20)
#    0.000    1.455    5.455    2.455    2.545    0.727 
#    0.000    0.000    0.000   10.909    0.000   16.545 
#    0.000    0.000    0.000    0.000    0.000    0.000 
#
# Total GULP energy -245489.738682 kJ/mol
# GULP energy per Si atom -5579.312243 kJ/mol
# Density = 2.011570 g / cm^3
# Si number density = 20.161588 Si / 1000 Ang^3
#
#
#
# Elastic Constant Matrix: (Units=GPa)
#
#
# Indices 1 2 3 4 5 6 
#
# 1 44.9796 26.5016 7.6048 0.0000 0.0000 0.0000
# 2 26.5016 134.0413 31.5625 0.0000 0.0000 0.0000
# 3 7.6048 31.5625 61.9728 0.0000 0.0000 0.0000
# 4 0.0000 0.0000 0.0000 17.0721 0.0000 0.0000
# 5 0.0000 0.0000 0.0000 0.0000 -2.9024 0.0000
# 6 0.0000 0.0000 0.0000 0.0000 0.0000 30.7262
#
#
#
# Elastic Compliance Matrix: (Units=1/GPa)
#
#
# Indices 1 2 3 4 5 6 
#
# 1 0.025185 -0.004831 -0.000630 0.000000 0.000000 0.000000
# 2 -0.004831 0.009404 -0.004196 0.000000 0.000000 0.000000
# 3 -0.000630 -0.004196 0.018351 0.000000 0.000000 0.000000
# 4 0.000000 0.000000 0.000000 0.058575 0.000000 0.000000
# 5 0.000000 0.000000 0.000000 0.000000 -0.344538 0.000000
# 6 0.000000 0.000000 0.000000 0.000000 0.000000 0.032546
#
#
# Mechanical properties :
#
#
# Convention : Reuss Voigt Hill
#
# Bulk Modulus (GPa) = 29.74028 41.37015 35.55521
# Shear Modulus (GPa) = -29.41965 20.66750 -4.37608
#
# Velocity S-wave (km/s) = -3.82408 3.20518 -1.47486
# Velocity P-wave (km/s) = 2.17144 5.85332 3.84358
#
# Compressibility (1/GPa) = 0.03362443
#
# Stress axis : x y z
#
# Youngs Moduli (GPa) = 39.70579 106.34148 54.49396
#
# Poissons Ratio (x) = 0.51374 0.03434
# Poissons Ratio (y) = 0.19182 0.22868
# Poissons Ratio (z) = 0.02502 0.44625
#
# Static dielectric constant tensor:
#      x y z
#    x 1.731090 0.000000 0.000000 
#    y 0.000000 1.739550 0.000000 
#    z 0.000000 0.000000 1.720890 
# 
# From -- ./inp_files/7451.got.cif
#   From: 2010.05.17/outbox.cif.g08.bks.cpg/sg68_4_cif.got.tgz:7451.got - 2010.06.03 18:57:09.
