data_PCOD9505609
_publ_section_title
;
Structure prediction by ZEFSAII (Michael W. Deem and Ramdas Pophale) SiO2 
 PCOD9505609
Probable space group: C C C A
;
_chemical_formula_sum "Si O2"
_cell_formula_units_Z 80
_cell_length_a 5.529039
_cell_length_b 31.158793
_cell_length_c 18.226971
_cell_angle_alpha 90.000000
_cell_angle_beta 90.000000
_cell_angle_gamma 90.000000
_cell_volume 3140.109422
_symmetry_space_group_name_H-M "C C C A"
_symmetry_group_IT_number 68
_space_group.IT_coordinate_system_code '2'
_symmetry_cell_setting 'orthorhombic'
loop_
_space_group_symop_operation_xyz
x,y,z
-x,1/2-y,z
x,1/2-y,1/2-z
-x,y,1/2-z
-x,-y,-z
x,1/2+y,-z
-x,1/2+y,1/2+z
x,-y,1/2+z
1/2+x,1/2+y,z
1/2-x,-y,z
1/2+x,-y,1/2-z
1/2-x,1/2+y,1/2-z
1/2-x,1/2-y,-z
1/2+x,y,-z
1/2-x,y,1/2+z
1/2+x,1/2-y,1/2+z
loop_
_atom_site_type_symbol
_atom_site_label
_atom_site_fract_x
_atom_site_fract_y
_atom_site_fract_z
Si Si1 0.785338 0.923427 0.587363
Si Si2 0.516112 0.700333 0.592199
Si Si3 0.526262 0.667130 0.429397
Si Si4 0.250725 0.379324 0.246174
Si Si5 0.724321 0.046664 0.370371
O O1 0.879259 0.880206 0.546102
O O2 0.766706 0.906476 0.671391
O O3 0.519692 0.944868 0.581972
O O4 0.026167 0.951916 0.583679
O O5 0.500000 0.750000 0.611887
O O6 0.505055 0.695135 0.503207
O O7 0.257942 0.681843 0.616874
O O8 0.764623 0.674139 0.608560
O O9 0.500000 0.354324 0.250000
O O10 0.264120 0.415240 0.310728
O O11 0.000000 0.354982 0.250000
O O12 0.750000 0.000000 0.333405
#
# Coordination Sequence:
#
# PCOD9505609 Si02
#       5
#    16  16  16  16  16
#     4  10  19  29  44  70  96 124 161 194 242 288
#     4  10  19  33  53  76  98 122 149 185 242 298
#     4  10  18  30  48  73 102 124 147 191 239 289
#     4   8  16  27  41  61  91 121 154 192 234 277
#     4  10  19  31  46  66  96 129 164 206 242 273
#
# _framework density 25.476818000000002
#
# number of rings (size 3 to 8) (size 9 to 14) (size 15 to 20)
#    0.000    2.400    0.000    4.800    0.000    7.200 
#    0.000    0.000    0.000    0.000    0.000   56.000 
#    0.000  172.800    0.000    0.000    0.000    0.000 
#
# Total GULP energy -222849.225930 kJ/mol
# GULP energy per Si atom -5571.230648 kJ/mol
# Density = 2.541883 g / cm^3
# Si number density = 25.476818 Si / 1000 Ang^3
#
#
#
# Elastic Constant Matrix: (Units=GPa)
#
#
# Indices 1 2 3 4 5 6 
#
# 1 295.7246 27.3593 21.1381 0.0000 0.0000 0.0000
# 2 27.3593 101.3528 -10.2477 0.0000 0.0000 0.0000
# 3 21.1381 -10.2477 73.3178 0.0000 0.0000 0.0000
# 4 0.0000 0.0000 0.0000 42.1900 0.0000 0.0000
# 5 0.0000 0.0000 0.0000 0.0000 5.1431 0.0000
# 6 0.0000 0.0000 0.0000 0.0000 0.0000 9.1982
#
#
#
# Elastic Compliance Matrix: (Units=1/GPa)
#
#
# Indices 1 2 3 4 5 6 
#
# 1 0.003566 -0.001082 -0.001179 0.000000 0.000000 0.000000
# 2 -0.001082 0.010336 0.001757 0.000000 0.000000 0.000000
# 3 -0.001179 0.001757 0.014225 0.000000 0.000000 0.000000
# 4 0.000000 0.000000 0.000000 0.023702 0.000000 0.000000
# 5 0.000000 0.000000 0.000000 0.000000 0.194436 0.000000
# 6 0.000000 0.000000 0.000000 0.000000 0.000000 0.108716
#
#
# Mechanical properties :
#
#
# Convention : Reuss Voigt Hill
#
# Bulk Modulus (GPa) = 36.87614 60.76606 48.82110
# Shear Modulus (GPa) = 13.69750 40.11596 26.90673
#
# Velocity S-wave (km/s) = 2.32123 3.97244 3.25333
# Velocity P-wave (km/s) = 4.65725 6.70400 5.77207
#
# Compressibility (1/GPa) = 0.02711781
#
# Stress axis : x y z
#
# Youngs Moduli (GPa) = 280.43381 96.74773 70.29989
#
# Poissons Ratio (x) = 0.10466 0.08290
# Poissons Ratio (y) = 0.30338 -0.12349
# Poissons Ratio (z) = 0.33071 -0.16995
#
# Static dielectric constant tensor:
#      x y z
#    x 2.155880 0.000000 0.000000 
#    y 0.000000 2.128470 0.000000 
#    z 0.000000 0.000000 1.968570 
# 
# From -- ./inp_files/53174.got.cif
#   From: 2010.05.17/outbox.cif.g08.bks.cpg/sg68_27_cif.got.tgz:53174.got - 2010.06.03 18:57:09.
