data_PCOD9505007
_publ_section_title
;
Structure prediction by ZEFSAII (Michael W. Deem and Ramdas Pophale) SiO2 
 PCOD9505007
Probable space group: C M M A
;
_chemical_formula_sum "Si O2"
_cell_formula_units_Z 92
_cell_length_a 21.700186
_cell_length_b 7.696313
_cell_length_c 24.981323
_cell_angle_alpha 90.000000
_cell_angle_beta 90.000000
_cell_angle_gamma 90.000000
_cell_volume 4172.166318
_symmetry_space_group_name_H-M "C M M A"
_symmetry_group_IT_number 67
_symmetry_cell_setting 'orthorhombic'
loop_
_space_group_symop_operation_xyz
x,y,z
-x,1/2-y,z
x,-y,-z
-x,1/2+y,-z
-x,-y,-z
x,1/2+y,-z
-x,y,z
x,1/2-y,z
1/2+x,1/2+y,z
1/2-x,-y,z
1/2+x,1/2-y,-z
1/2-x,y,-z
1/2-x,1/2-y,-z
1/2+x,y,-z
1/2-x,1/2+y,z
1/2+x,-y,z
loop_
_atom_site_type_symbol
_atom_site_label
_atom_site_fract_x
_atom_site_fract_y
_atom_site_fract_z
Si Si1 0.864802 0.041088 0.937885
Si Si2 0.500000 0.957540 0.937263
Si Si3 0.820157 0.957817 0.363195
Si Si4 0.500000 0.750000 0.718767
Si Si5 0.431937 0.541254 0.562723
Si Si6 0.898840 0.556694 0.733311
Si Si7 0.682650 0.542701 0.828590
O O1 0.866360 0.250000 0.936739
O O2 0.821085 0.980131 0.890330
O O3 0.933188 0.976323 0.920468
O O4 0.851415 0.000000 0.000000
O O5 0.500000 0.750000 0.927879
O O6 0.500000 0.000000 0.000000
O O7 0.824645 0.750000 0.360062
O O8 0.872759 0.021798 0.404711
O O9 0.750000 0.000000 0.377941
O O10 0.840889 0.034873 0.306650
O O11 0.553656 0.596575 0.720314
O O12 0.426182 0.500000 0.500000
O O13 0.500000 0.477315 0.580892
O O14 0.433421 0.750000 0.568831
O O15 0.924596 0.750000 0.726600
O O16 0.871327 0.534871 0.792650
O O17 0.674491 0.750000 0.827518
O O18 0.750000 0.500000 0.806884
#
# Coordination Sequence:
#
# PCOD9505007 Si02
#       7
#    16   8  16   4  16  16  16
#     4   9  19  34  57  87 120 163 212 268 334 395
#     4   8  14  29  50  76 105 144 188 241 309 377
#     4  11  23  41  67  98 139 186 236 293 347 414
#     4  12  26  50  72 106 146 168 220 290 340 406
#     4   9  20  38  63  92 132 181 232 294 361 414
#     4  12  26  46  73 104 137 180 224 275 348 412
#     4  11  23  42  63  91 130 178 223 281 337 402
#
# _framework density 22.050892999999999
#
# number of rings (size 3 to 8) (size 9 to 14) (size 15 to 20)
#    0.000    1.739    1.739    1.826    1.217    4.174 
#    1.565    3.478    0.000    2.087    0.000    0.000 
#    0.000    0.000    0.000    0.000    0.000    0.000 
#
# Total GULP energy -256286.431945 kJ/mol
# GULP energy per Si atom -5571.444173 kJ/mol
# Density = 2.200070 g / cm^3
# Si number density = 22.050893 Si / 1000 Ang^3
#
#
#
# Elastic Constant Matrix: (Units=GPa)
#
#
# Indices 1 2 3 4 5 6 
#
# 1 147.8558 27.3535 50.9385 0.0000 0.0000 0.0000
# 2 27.3535 115.9507 8.7352 0.0000 0.0000 0.0000
# 3 50.9385 8.7352 89.5700 0.0000 0.0000 0.0000
# 4 0.0000 0.0000 0.0000 19.0953 0.0000 0.0000
# 5 0.0000 0.0000 0.0000 0.0000 -58.3365 0.0000
# 6 0.0000 0.0000 0.0000 0.0000 0.0000 33.8045
#
#
#
# Elastic Compliance Matrix: (Units=1/GPa)
#
#
# Indices 1 2 3 4 5 6 
#
# 1 0.008731 -0.001698 -0.004800 0.000000 0.000000 0.000000
# 2 -0.001698 0.009018 0.000086 0.000000 0.000000 0.000000
# 3 -0.004800 0.000086 0.013886 0.000000 0.000000 0.000000
# 4 0.000000 0.000000 0.000000 0.052369 0.000000 0.000000
# 5 0.000000 0.000000 0.000000 0.000000 -0.017142 0.000000
# 6 0.000000 0.000000 0.000000 0.000000 0.000000 0.029582
#
#
# Mechanical properties :
#
#
# Convention : Reuss Voigt Hill
#
# Bulk Modulus (GPa) = 53.15793 58.60342 55.88067
# Shear Modulus (GPa) = 43.27582 16.66929 29.97255
#
# Velocity S-wave (km/s) = 4.43487 2.75243 3.69079
# Velocity P-wave (km/s) = 7.09812 6.06096 6.59995
#
# Compressibility (1/GPa) = 0.01881187
#
# Stress axis : x y z
#
# Youngs Moduli (GPa) = 114.53317 110.88365 72.01663
#
# Poissons Ratio (x) = 0.18829 0.34566
# Poissons Ratio (y) = 0.19449 -0.00621
# Poissons Ratio (z) = 0.54973 -0.00956
#
# Static dielectric constant tensor:
#      x y z
#    x 1.826830 0.000000 0.000000 
#    y 0.000000 1.816430 0.000000 
#    z 0.000000 0.000000 1.821610 
# 
# From -- ./inp_files/44635.got.cif
#   From: 2010.05.17/outbox.cif.g08.bks.cpg/sg67_23_cif.got.tgz:44635.got - 2010.06.03 18:28:57.
