data_PCOD9505529
_publ_section_title
;
Structure prediction by ZEFSAII (Michael W. Deem and Ramdas Pophale) SiO2 
 PCOD9505529
Probable space group: C C C A
;
_chemical_formula_sum "Si O2"
_cell_formula_units_Z 116
_cell_length_a 7.586529
_cell_length_b 25.917086
_cell_length_c 27.732573
_cell_angle_alpha 90.000000
_cell_angle_beta 90.000000
_cell_angle_gamma 90.000000
_cell_volume 5452.798596
_symmetry_space_group_name_H-M "C C C A"
_symmetry_group_IT_number 68
_space_group.IT_coordinate_system_code '2'
_symmetry_cell_setting 'orthorhombic'
loop_
_space_group_symop_operation_xyz
x,y,z
-x,1/2-y,z
x,1/2-y,1/2-z
-x,y,1/2-z
-x,-y,-z
x,1/2+y,-z
-x,1/2+y,1/2+z
x,-y,1/2+z
1/2+x,1/2+y,z
1/2-x,-y,z
1/2+x,-y,1/2-z
1/2-x,1/2+y,1/2-z
1/2-x,1/2-y,-z
1/2+x,y,-z
1/2-x,y,1/2+z
1/2+x,1/2-y,1/2+z
loop_
_atom_site_type_symbol
_atom_site_label
_atom_site_fract_x
_atom_site_fract_y
_atom_site_fract_z
Si Si1 0.502618 0.542786 0.657975
Si Si2 0.183210 0.440950 0.036695
Si Si3 0.000000 0.750000 0.750000
Si Si4 0.918811 0.434675 0.359726
Si Si5 0.156219 0.366104 0.781931
Si Si6 0.026892 0.689705 0.366029
Si Si7 0.547087 0.100722 0.435811
Si Si8 0.669552 0.340732 0.809001
O O1 0.291311 0.554732 0.651599
O O2 0.519828 0.481944 0.664983
O O3 0.585922 0.580040 0.697451
O O4 0.587970 0.561266 0.607619
O O5 0.250000 0.500000 0.031338
O O6 0.052850 0.440122 0.082624
O O7 0.339963 0.404980 0.054777
O O8 0.126422 0.418344 0.985806
O O9 0.892206 0.712998 0.786207
O O10 0.956463 0.377771 0.340294
O O11 0.298191 0.372611 0.740602
O O12 0.000000 0.341077 0.750000
O O13 0.172853 0.326498 0.826075
O O14 0.842533 0.668413 0.342657
O O15 0.000000 0.750000 0.373335
O O16 0.075604 0.657355 0.413779
#
# Coordination Sequence:
#
# PCOD9505529 Si02
#       8
#    16  16   4  16  16  16  16  16
#     4   9  16  32  55  88 117 147 185 230 292 359
#     4  11  19  34  61  88 116 160 197 241 304 369
#     4  12  28  40  58  84 112 160 212 250 298 356
#     4  10  17  33  59  84 121 154 181 234 303 356
#     4   9  16  31  59  87 107 142 196 235 278 351
#     4  10  19  36  63  83 109 151 200 253 297 346
#     4  10  20  35  58  88 116 152 204 244 297 367
#     4  11  21  41  59  82 118 153 203 246 299 352
#
# _framework density 21.273481
#
# number of rings (size 3 to 8) (size 9 to 14) (size 15 to 20)
#    0.000    1.931    8.276    1.241    0.000    1.931 
#    1.241    4.828    1.517    0.000    0.000    0.000 
#    0.000    0.000    0.000    0.000    0.000    0.000 
#
# Total GULP energy -323344.153482 kJ/mol
# GULP energy per Si atom -5574.899198 kJ/mol
# Density = 2.122506 g / cm^3
# Si number density = 21.273481 Si / 1000 Ang^3
#
#
#
# Elastic Constant Matrix: (Units=GPa)
#
#
# Indices 1 2 3 4 5 6 
#
# 1 26.0779 13.4023 15.6808 0.0000 0.0000 0.0000
# 2 13.4023 163.2704 74.5260 0.0000 0.0000 0.0000
# 3 15.6808 74.5260 118.8896 0.0000 0.0000 0.0000
# 4 0.0000 0.0000 0.0000 25.8917 0.0000 0.0000
# 5 0.0000 0.0000 0.0000 0.0000 19.0773 0.0000
# 6 0.0000 0.0000 0.0000 0.0000 0.0000 24.6135
#
#
#
# Elastic Compliance Matrix: (Units=1/GPa)
#
#
# Indices 1 2 3 4 5 6 
#
# 1 0.041841 -0.001283 -0.004715 0.000000 0.000000 0.000000
# 2 -0.001283 0.008619 -0.005234 0.000000 0.000000 0.000000
# 3 -0.004715 -0.005234 0.012314 0.000000 0.000000 0.000000
# 4 0.000000 0.000000 0.000000 0.038622 0.000000 0.000000
# 5 0.000000 0.000000 0.000000 0.000000 0.052418 0.000000
# 6 0.000000 0.000000 0.000000 0.000000 0.000000 0.040628
#
#
# Mechanical properties :
#
#
# Convention : Reuss Voigt Hill
#
# Bulk Modulus (GPa) = 24.80659 57.27291 41.03975
# Shear Modulus (GPa) = 21.70692 27.55842 24.63267
#
# Velocity S-wave (km/s) = 3.19780 3.60312 3.40649
# Velocity P-wave (km/s) = 5.03196 6.65512 5.89963
#
# Compressibility (1/GPa) = 0.04031187
#
# Stress axis : x y z
#
# Youngs Moduli (GPa) = 23.90016 116.02202 81.21018
#
# Poissons Ratio (x) = 0.14881 0.38287
# Poissons Ratio (y) = 0.03065 0.42503
# Poissons Ratio (z) = 0.11268 0.60722
#
# Static dielectric constant tensor:
#      x y z
#    x 1.968670 0.000000 0.000000 
#    y 0.000000 1.776680 0.000000 
#    z 0.000000 0.000000 1.826610 
# 
# From -- ./inp_files/43536.got.cif
#   From: 2010.05.17/outbox.cif.g08.bks.cpg/sg68_22_cif.got.tgz:43536.got - 2010.06.03 18:57:09.
