data_PCOD9505820
_publ_section_title
;
Structure prediction by ZEFSAII (Michael W. Deem and Ramdas Pophale) SiO2 
 PCOD9505820
Probable space group: C C C A
;
_chemical_formula_sum "Si O2"
_cell_formula_units_Z 88
_cell_length_a 22.678980
_cell_length_b 13.000189
_cell_length_c 14.299086
_cell_angle_alpha 90.000000
_cell_angle_beta 90.000000
_cell_angle_gamma 90.000000
_cell_volume 4215.814201
_symmetry_space_group_name_H-M "C C C A"
_symmetry_group_IT_number 68
_space_group.IT_coordinate_system_code '2'
_symmetry_cell_setting 'orthorhombic'
loop_
_space_group_symop_operation_xyz
x,y,z
-x,1/2-y,z
x,1/2-y,1/2-z
-x,y,1/2-z
-x,-y,-z
x,1/2+y,-z
-x,1/2+y,1/2+z
x,-y,1/2+z
1/2+x,1/2+y,z
1/2-x,-y,z
1/2+x,-y,1/2-z
1/2-x,1/2+y,1/2-z
1/2-x,1/2-y,-z
1/2+x,y,-z
1/2-x,y,1/2+z
1/2+x,1/2-y,1/2+z
loop_
_atom_site_type_symbol
_atom_site_label
_atom_site_fract_x
_atom_site_fract_y
_atom_site_fract_z
Si Si1 0.944209 0.126270 0.949984
Si Si2 0.840936 0.965139 0.547721
Si Si3 0.924747 0.640575 0.407389
Si Si4 0.750000 0.500000 0.612273
Si Si5 0.318625 0.628631 0.239519
Si Si6 0.437109 0.993098 0.230964
O O1 0.923783 0.236333 0.908407
O O2 0.014666 0.122303 0.966531
O O3 0.933640 0.041844 0.870811
O O4 0.901627 0.099426 0.035407
O O5 0.800913 0.958767 0.456232
O O6 0.806309 0.918582 0.636305
O O7 0.866290 0.081630 0.557754
O O8 0.934435 0.587299 0.306258
O O9 0.724641 0.414897 0.681817
O O10 0.318438 0.750000 0.250000
O O11 0.383253 0.582679 0.257784
O O12 0.500000 0.942042 0.250000
#
# Coordination Sequence:
#
# PCOD9505820 Si02
#       6
#    16  16  16   8  16  16
#     4  10  18  36  65  96 131 176 210 270 327 387
#     4  11  24  42  67  94 129 174 222 270 332 392
#     4   9  20  35  62  99 132 167 222 265 324 392
#     4  12  26  50  66  88 132 174 226 272 322 406
#     4  11  26  47  66  99 132 168 223 278 333 393
#     4   9  18  38  65  96 135 170 211 271 326 392
#
# _framework density 20.873785000000002
#
# number of rings (size 3 to 8) (size 9 to 14) (size 15 to 20)
#    0.000    1.818    1.818    1.636    2.545    3.273 
#    6.545    0.000    0.000    0.000    0.000    0.000 
#    0.000    0.000    0.000    0.000    0.000    0.000 
#
# Total GULP energy -245604.231357 kJ/mol
# GULP energy per Si atom -5581.914349 kJ/mol
# Density = 2.082628 g / cm^3
# Si number density = 20.873785 Si / 1000 Ang^3
#
#
#
# Elastic Constant Matrix: (Units=GPa)
#
#
# Indices 1 2 3 4 5 6 
#
# 1 63.1187 36.6453 41.0763 0.0000 0.0000 0.0000
# 2 36.6453 128.3902 39.6993 0.0000 0.0000 0.0000
# 3 41.0763 39.6993 109.2054 0.0000 0.0000 0.0000
# 4 0.0000 0.0000 0.0000 2.8405 0.0000 0.0000
# 5 0.0000 0.0000 0.0000 0.0000 33.3251 0.0000
# 6 0.0000 0.0000 0.0000 0.0000 0.0000 12.1770
#
#
#
# Elastic Compliance Matrix: (Units=1/GPa)
#
#
# Indices 1 2 3 4 5 6 
#
# 1 0.022972 -0.004377 -0.007049 0.000000 0.000000 0.000000
# 2 -0.004377 0.009609 -0.001847 0.000000 0.000000 0.000000
# 3 -0.007049 -0.001847 0.012480 0.000000 0.000000 0.000000
# 4 0.000000 0.000000 0.000000 0.352051 0.000000 0.000000
# 5 0.000000 0.000000 0.000000 0.000000 0.030007 0.000000
# 6 0.000000 0.000000 0.000000 0.000000 0.000000 0.082122
#
#
# Mechanical properties :
#
#
# Convention : Reuss Voigt Hill
#
# Bulk Modulus (GPa) = 54.01161 59.50622 56.75891
# Shear Modulus (GPa) = 9.22578 21.88809 15.55694
#
# Velocity S-wave (km/s) = 2.10461 3.24171 2.73295
# Velocity P-wave (km/s) = 5.64246 6.52542 6.09994
#
# Compressibility (1/GPa) = 0.01851454
#
# Stress axis : x y z
#
# Youngs Moduli (GPa) = 43.53133 104.06822 80.12814
#
# Poissons Ratio (x) = 0.45550 0.56486
# Poissons Ratio (y) = 0.19053 0.14798
# Poissons Ratio (z) = 0.30687 0.19220
#
# Static dielectric constant tensor:
#      x y z
#    x 1.792460 0.000000 0.000000 
#    y 0.000000 1.724680 0.000000 
#    z 0.000000 0.000000 1.783340 
# 
# From -- ./inp_files/25264.got.cif
#   From: 2010.05.17/outbox.cif.g08.bks.cpg/sg68_13_cif.got.tgz:25264.got - 2010.06.03 18:57:09.
