data_PCOD9505881
_publ_section_title
;
Structure prediction by ZEFSAII (Michael W. Deem and Ramdas Pophale) SiO2 
 PCOD9505881
Probable space group: C C C A
;
_chemical_formula_sum "Si O2"
_cell_formula_units_Z 68
_cell_length_a 4.871462
_cell_length_b 23.069377
_cell_length_c 28.297754
_cell_angle_alpha 90.000000
_cell_angle_beta 90.000000
_cell_angle_gamma 90.000000
_cell_volume 3180.146685
_symmetry_space_group_name_H-M "C C C A"
_symmetry_group_IT_number 68
_space_group.IT_coordinate_system_code '2'
_symmetry_cell_setting 'orthorhombic'
loop_
_space_group_symop_operation_xyz
x,y,z
-x,1/2-y,z
x,1/2-y,1/2-z
-x,y,1/2-z
-x,-y,-z
x,1/2+y,-z
-x,1/2+y,1/2+z
x,-y,1/2+z
1/2+x,1/2+y,z
1/2-x,-y,z
1/2+x,-y,1/2-z
1/2-x,1/2+y,1/2-z
1/2-x,1/2-y,-z
1/2+x,y,-z
1/2-x,y,1/2+z
1/2+x,1/2-y,1/2+z
loop_
_atom_site_type_symbol
_atom_site_label
_atom_site_fract_x
_atom_site_fract_y
_atom_site_fract_z
Si Si1 0.500000 0.250000 0.250000
Si Si2 0.730097 0.841552 0.818970
Si Si3 0.020934 0.181291 0.030801
Si Si4 0.753875 0.633490 0.377073
Si Si5 0.513580 0.538333 0.821797
O O1 0.316328 0.209043 0.217376
O O2 0.533887 0.832100 0.865083
O O3 0.038330 0.849491 0.836045
O O4 0.612290 0.902872 0.799464
O O5 0.895225 0.146753 0.074426
O O6 0.000000 0.250000 0.041548
O O7 0.829900 0.169296 0.985091
O O8 0.836143 0.566797 0.367456
O O9 0.250000 0.500000 0.832951
O O10 0.750000 0.500000 0.796762
#
# Coordination Sequence:
#
# PCOD9505881 Si02
#       5
#     4  16  16  16  16
#     4  12  28  46  60 102 140 154 216 256 332 382
#     4  10  24  38  64  92 124 174 195 268 312 390
#     4  10  21  35  57  89 128 168 213 263 304 376
#     4  10  21  38  62  93 119 172 210 253 328 368
#     4  10  18  39  65  92 116 162 225 256 309 376
#
# _framework density 21.382660999999999
#
# number of rings (size 3 to 8) (size 9 to 14) (size 15 to 20)
#    1.412    0.471    2.353    1.412    3.294    1.882 
#    0.000    1.176    0.000    4.235    0.000    0.000 
#    0.000    0.000    0.000    0.000    0.000    0.000 
#
# Total GULP energy -189613.757828 kJ/mol
# GULP energy per Si atom -5576.875230 kJ/mol
# Density = 2.133399 g / cm^3
# Si number density = 21.382661 Si / 1000 Ang^3
#
#
#
# Elastic Constant Matrix: (Units=GPa)
#
#
# Indices 1 2 3 4 5 6 
#
# 1 123.6255 37.8064 8.9406 0.0000 0.0000 0.0000
# 2 37.8064 120.7014 43.2409 0.0000 0.0000 0.0000
# 3 8.9406 43.2409 61.2718 0.0000 0.0000 0.0000
# 4 0.0000 0.0000 0.0000 16.9582 0.0000 0.0000
# 5 0.0000 0.0000 0.0000 0.0000 -99.1847 0.0000
# 6 0.0000 0.0000 0.0000 0.0000 0.0000 23.9579
#
#
#
# Elastic Compliance Matrix: (Units=1/GPa)
#
#
# Indices 1 2 3 4 5 6 
#
# 1 0.008983 -0.003137 0.000903 0.000000 0.000000 0.000000
# 2 -0.003137 0.012184 -0.008141 0.000000 0.000000 0.000000
# 3 0.000903 -0.008141 0.021934 0.000000 0.000000 0.000000
# 4 0.000000 0.000000 0.000000 0.058968 0.000000 0.000000
# 5 0.000000 0.000000 0.000000 0.000000 -0.010082 0.000000
# 6 0.000000 0.000000 0.000000 0.000000 0.000000 0.041740
#
#
# Mechanical properties :
#
#
# Convention : Reuss Voigt Hill
#
# Bulk Modulus (GPa) = 44.73963 53.95275 49.34619
# Shear Modulus (GPa) = 30.87808 2.72033 16.79920
#
# Velocity S-wave (km/s) = 3.80422 1.12915 2.80598
# Velocity P-wave (km/s) = 6.34546 5.19488 5.79877
#
# Compressibility (1/GPa) = 0.02235155
#
# Stress axis : x y z
#
# Youngs Moduli (GPa) = 111.32079 82.07509 45.59132
#
# Poissons Ratio (x) = 0.25749 -0.04118
# Poissons Ratio (y) = 0.34925 0.37115
# Poissons Ratio (z) = -0.10055 0.66815
#
# Static dielectric constant tensor:
#      x y z
#    x 1.774080 0.000000 0.000000 
#    y 0.000000 1.788960 0.000000 
#    z 0.000000 0.000000 1.809690 
# 
# From -- ./inp_files/1530.got.cif
#   From: 2010.05.17/outbox.cif.g08.bks.cpg/sg68_1_cif.got.tgz:1530.got - 2010.06.03 18:57:09.
