data_PCOD9505419
_publ_section_title
;
Structure prediction by ZEFSAII (Michael W. Deem and Ramdas Pophale) SiO2 
 PCOD9505419
Probable space group: C C C A
;
_chemical_formula_sum "Si O2"
_cell_formula_units_Z 64
_cell_length_a 9.469698
_cell_length_b 11.025339
_cell_length_c 26.460210
_cell_angle_alpha 90.000000
_cell_angle_beta 90.000000
_cell_angle_gamma 90.000000
_cell_volume 2762.621373
_symmetry_space_group_name_H-M "C C C A"
_symmetry_group_IT_number 68
_space_group.IT_coordinate_system_code '2'
_symmetry_cell_setting 'orthorhombic'
loop_
_space_group_symop_operation_xyz
x,y,z
-x,1/2-y,z
x,1/2-y,1/2-z
-x,y,1/2-z
-x,-y,-z
x,1/2+y,-z
-x,1/2+y,1/2+z
x,-y,1/2+z
1/2+x,1/2+y,z
1/2-x,-y,z
1/2+x,-y,1/2-z
1/2-x,1/2+y,1/2-z
1/2-x,1/2-y,-z
1/2+x,y,-z
1/2-x,y,1/2+z
1/2+x,1/2-y,1/2+z
loop_
_atom_site_type_symbol
_atom_site_label
_atom_site_fract_x
_atom_site_fract_y
_atom_site_fract_z
Si Si1 0.516040 0.570861 0.152650
Si Si2 0.750000 0.500000 0.780542
Si Si3 0.081606 0.487092 0.552339
Si Si4 0.207479 0.341985 0.814244
Si Si5 0.000000 0.250000 0.615619
O O1 0.382275 0.545339 0.187551
O O2 0.469477 0.582716 0.094985
O O3 0.628311 0.668544 0.171908
O O4 0.617774 0.451488 0.158852
O O5 0.796615 0.388484 0.743391
O O6 0.250000 0.500000 0.545959
O O7 0.034872 0.359948 0.577530
O O8 0.000000 0.500000 0.500000
O O9 0.128141 0.236358 0.843509
#
# Coordination Sequence:
#
# PCOD9505419 Si02
#       5
#    16   8  16  16   8
#     4   9  18  36  63  97 133 173 225 274 339 409
#     4  10  16  34  68 104 130 184 216 274 352 414
#     4  11  25  44  70  97 133 181 227 293 353 401
#     4   9  18  34  62  95 133 175 216 272 334 415
#     4  10  24  44  67 108 134 178 243 280 346 428
#
# _framework density 23.166402000000001
#
# number of rings (size 3 to 8) (size 9 to 14) (size 15 to 20)
#    0.000    2.500    1.250    3.000    7.000    1.000 
#    0.000   10.000    0.000    0.000   58.500    0.000 
#    0.000    0.000    0.000    0.000    0.000    0.000 
#
# Total GULP energy -178437.551232 kJ/mol
# GULP energy per Si atom -5576.173476 kJ/mol
# Density = 2.311367 g / cm^3
# Si number density = 23.166402 Si / 1000 Ang^3
#
#
#
# Elastic Constant Matrix: (Units=GPa)
#
#
# Indices 1 2 3 4 5 6 
#
# 1 233.7606 29.9486 125.3200 0.0000 0.0000 0.0000
# 2 29.9486 71.1713 36.6308 0.0000 0.0000 0.0000
# 3 125.3200 36.6308 249.6182 0.0000 0.0000 0.0000
# 4 0.0000 0.0000 0.0000 21.0880 0.0000 0.0000
# 5 0.0000 0.0000 0.0000 0.0000 475.8958 0.0000
# 6 0.0000 0.0000 0.0000 0.0000 0.0000 24.8417
#
#
#
# Elastic Compliance Matrix: (Units=1/GPa)
#
#
# Indices 1 2 3 4 5 6 
#
# 1 0.005924 -0.001041 -0.002821 0.000000 0.000000 0.000000
# 2 -0.001041 0.015381 -0.001735 0.000000 0.000000 0.000000
# 3 -0.002821 -0.001735 0.005677 0.000000 0.000000 0.000000
# 4 0.000000 0.000000 0.000000 0.047420 0.000000 0.000000
# 5 0.000000 0.000000 0.000000 0.000000 0.002101 0.000000
# 6 0.000000 0.000000 0.000000 0.000000 0.000000 0.040255
#
#
# Mechanical properties :
#
#
# Convention : Reuss Voigt Hill
#
# Bulk Modulus (GPa) = 63.33560 104.26099 83.79830
# Shear Modulus (GPa) = 37.53336 128.54181 83.03759
#
# Velocity S-wave (km/s) = 4.02949 7.45699 5.99348
# Velocity P-wave (km/s) = 7.00342 10.91995 9.17314
#
# Compressibility (1/GPa) = 0.01578891
#
# Stress axis : x y z
#
# Youngs Moduli (GPa) = 168.81364 65.01387 176.14654
#
# Poissons Ratio (x) = 0.06765 0.49696
# Poissons Ratio (y) = 0.17567 0.30557
# Poissons Ratio (z) = 0.47627 0.11278
#
# Static dielectric constant tensor:
#      x y z
#    x 2.179600 0.000000 0.000000 
#    y 0.000000 2.487210 0.000000 
#    z 0.000000 0.000000 1.840320 
# 
# From -- ./inp_files/42789.got.cif
#   From: 2010.05.17/outbox.cif.g08.bks.cpg/sg68_22_cif.got.tgz:42789.got - 2010.06.03 18:57:09.
