data_PCOD9505106
_publ_section_title
;
Structure prediction by ZEFSAII (Michael W. Deem and Ramdas Pophale) SiO2 
 PCOD9505106
Probable space group: C M M A
;
_chemical_formula_sum "Si O2"
_cell_formula_units_Z 96
_cell_length_a 14.412658
_cell_length_b 22.413376
_cell_length_c 15.899427
_cell_angle_alpha 90.000000
_cell_angle_beta 90.000000
_cell_angle_gamma 90.000000
_cell_volume 5136.092435
_symmetry_space_group_name_H-M "C M M A"
_symmetry_group_IT_number 67
_symmetry_cell_setting 'orthorhombic'
loop_
_space_group_symop_operation_xyz
x,y,z
-x,1/2-y,z
x,-y,-z
-x,1/2+y,-z
-x,-y,-z
x,1/2+y,-z
-x,y,z
x,1/2-y,z
1/2+x,1/2+y,z
1/2-x,-y,z
1/2+x,1/2-y,-z
1/2-x,y,-z
1/2-x,1/2-y,-z
1/2+x,y,-z
1/2-x,1/2+y,z
1/2+x,-y,z
loop_
_atom_site_type_symbol
_atom_site_label
_atom_site_fract_x
_atom_site_fract_y
_atom_site_fract_z
Si Si1 0.113170 0.587554 0.443658
Si Si2 0.641602 0.066855 0.985345
Si Si3 0.111684 0.460017 0.195363
Si Si4 0.886310 0.318121 0.693736
Si Si5 0.113227 0.044121 0.379794
Si Si6 0.107138 0.905714 0.163239
O O1 0.142298 0.643170 0.387348
O O2 0.144919 0.582870 0.540449
O O3 0.138380 0.524809 0.399156
O O4 0.000000 0.588334 0.444978
O O5 0.628865 0.079691 0.887181
O O6 0.750000 0.063590 0.000000
O O7 0.607790 0.106274 0.063298
O O8 0.601547 0.000000 0.000000
O O9 0.145545 0.439117 0.286544
O O10 0.147908 0.527818 0.178234
O O11 0.000000 0.463781 0.200751
O O12 0.854019 0.250000 0.692534
O O13 0.854413 0.354663 0.776496
O O14 0.000000 0.316246 0.694152
O O15 0.000000 0.046253 0.380391
O O16 0.000000 0.911259 0.189094
#
# Coordination Sequence:
#
# PCOD9505106 Si02
#       6
#    16  16  16  16  16  16
#     4   8  12  19  30  50  78 103 124 152 190 229
#     4   9  17  26  36  53  78 103 129 157 198 243
#     4   9  14  22  37  57  78 103 131 158 191 237
#     4   9  15  22  34  54  80 106 131 161 196 229
#     4   8  12  18  32  52  77 102 123 151 190 233
#     4   9  15  24  37  54  77 103 131 162 194 232
#
# _framework density 18.691251999999999
#
# number of rings (size 3 to 8) (size 9 to 14) (size 15 to 20)
#    0.000    3.333    1.667    1.500    0.000    2.000 
#    0.000    0.000    0.000    0.500    0.000    2.333 
#    0.000    8.000    0.000    0.000    0.000    0.000 
#
# Total GULP energy -267244.470213 kJ/mol
# GULP energy per Si atom -5567.593129 kJ/mol
# Density = 1.864871 g / cm^3
# Si number density = 18.691252 Si / 1000 Ang^3
#
#
#
# Elastic Constant Matrix: (Units=GPa)
#
#
# Indices 1 2 3 4 5 6 
#
# 1 34.2249 7.1332 5.3508 0.0000 0.0000 0.0000
# 2 7.1332 84.7447 72.7555 0.0000 0.0000 0.0000
# 3 5.3508 72.7555 219.0186 0.0000 0.0000 0.0000
# 4 0.0000 0.0000 0.0000 17.8872 0.0000 0.0000
# 5 0.0000 0.0000 0.0000 0.0000 4.3385 0.0000
# 6 0.0000 0.0000 0.0000 0.0000 0.0000 6.5612
#
#
#
# Elastic Compliance Matrix: (Units=1/GPa)
#
#
# Indices 1 2 3 4 5 6 
#
# 1 0.029744 -0.002630 0.000147 0.000000 0.000000 0.000000
# 2 -0.002630 0.016741 -0.005497 0.000000 0.000000 0.000000
# 3 0.000147 -0.005497 0.006388 0.000000 0.000000 0.000000
# 4 0.000000 0.000000 0.000000 0.055906 0.000000 0.000000
# 5 0.000000 0.000000 0.000000 0.000000 0.230493 0.000000
# 6 0.000000 0.000000 0.000000 0.000000 0.000000 0.152410
#
#
# Mechanical properties :
#
#
# Convention : Reuss Voigt Hill
#
# Bulk Modulus (GPa) = 27.09058 56.49635 41.79347
# Shear Modulus (GPa) = 9.61640 22.60731 16.11185
#
# Velocity S-wave (km/s) = 2.27069 3.48158 2.93917
# Velocity P-wave (km/s) = 4.62600 6.81569 5.82467
#
# Compressibility (1/GPa) = 0.03691320
#
# Stress axis : x y z
#
# Youngs Moduli (GPa) = 33.62071 59.73489 156.53839
#
# Poissons Ratio (x) = 0.15708 -0.02299
# Poissons Ratio (y) = 0.08841 0.86046
# Poissons Ratio (z) = -0.00494 0.32835
#
# Static dielectric constant tensor:
#      x y z
#    x 1.716340 0.000000 0.000000 
#    y 0.000000 1.603580 0.000000 
#    z 0.000000 0.000000 1.724140 
# 
# From -- ./inp_files/29544.got.cif
#   From: 2010.05.17/outbox.cif.g08.bks.cpg/sg67_15_cif.got.tgz:29544.got - 2010.06.03 18:28:57.
