data_PCOD9505336
_publ_section_title
;
Structure prediction by ZEFSAII (Michael W. Deem and Ramdas Pophale) SiO2 
 PCOD9505336
Probable space group: C C C A
;
_chemical_formula_sum "Si O2"
_cell_formula_units_Z 48
_cell_length_a 13.763086
_cell_length_b 5.277442
_cell_length_c 28.602122
_cell_angle_alpha 90.000000
_cell_angle_beta 90.000000
_cell_angle_gamma 90.000000
_cell_volume 2077.483329
_symmetry_space_group_name_H-M "C C C A"
_symmetry_group_IT_number 68
_space_group.IT_coordinate_system_code '2'
_symmetry_cell_setting 'orthorhombic'
loop_
_space_group_symop_operation_xyz
x,y,z
-x,1/2-y,z
x,1/2-y,1/2-z
-x,y,1/2-z
-x,-y,-z
x,1/2+y,-z
-x,1/2+y,1/2+z
x,-y,1/2+z
1/2+x,1/2+y,z
1/2-x,-y,z
1/2+x,-y,1/2-z
1/2-x,1/2+y,1/2-z
1/2-x,1/2-y,-z
1/2+x,y,-z
1/2-x,y,1/2+z
1/2+x,1/2-y,1/2+z
loop_
_atom_site_type_symbol
_atom_site_label
_atom_site_fract_x
_atom_site_fract_y
_atom_site_fract_z
Si Si1 0.391657 0.072982 0.617663
Si Si2 0.185581 0.250000 0.750000
Si Si3 0.500000 0.750000 0.468567
Si Si4 0.890666 0.926739 0.152984
O O1 0.410737 0.198395 0.567298
O O2 0.344814 0.292547 0.649092
O O3 0.498417 0.998155 0.638954
O O4 0.349988 0.789664 0.617932
O O5 0.250000 0.500000 0.758936
O O6 0.122530 0.182345 0.795502
O O7 0.500000 0.500000 0.500000
#
# Coordination Sequence:
#
# PCOD9505336 Si02
#       4
#    16   8   8  16
#     4   9  18  32  52  72  99 132 158 201 252 298
#     4  12  24  35  50  73 102 138 180 218 246 286
#     4  10  16  26  46  77 110 125 146 190 252 324
#     4   9  18  34  48  68  99 128 170 203 244 295
#
# _framework density 23.104879
#
# number of rings (size 3 to 8) (size 9 to 14) (size 15 to 20)
#    0.000    2.667    0.000    6.000    0.000    2.667 
#    0.000   10.000    0.000    0.000    0.000    0.000 
#    0.000  488.000    0.000    0.000    0.000    0.000 
#
# Total GULP energy -133670.152102 kJ/mol
# GULP energy per Si atom -5569.589671 kJ/mol
# Density = 2.305229 g / cm^3
# Si number density = 23.104879 Si / 1000 Ang^3
#
#
#
# Elastic Constant Matrix: (Units=GPa)
#
#
# Indices 1 2 3 4 5 6 
#
# 1 66.8836 14.9669 11.7363 0.0000 0.0000 0.0000
# 2 14.9669 274.1623 74.4639 0.0000 0.0000 0.0000
# 3 11.7363 74.4639 147.1864 0.0000 0.0000 0.0000
# 4 0.0000 0.0000 0.0000 62.3185 0.0000 0.0000
# 5 0.0000 0.0000 0.0000 0.0000 15.5143 0.0000
# 6 0.0000 0.0000 0.0000 0.0000 0.0000 15.4831
#
#
#
# Elastic Compliance Matrix: (Units=1/GPa)
#
#
# Indices 1 2 3 4 5 6 
#
# 1 0.015243 -0.000582 -0.000921 0.000000 0.000000 0.000000
# 2 -0.000582 0.004251 -0.002104 0.000000 0.000000 0.000000
# 3 -0.000921 -0.002104 0.007932 0.000000 0.000000 0.000000
# 4 0.000000 0.000000 0.000000 0.016047 0.000000 0.000000
# 5 0.000000 0.000000 0.000000 0.000000 0.064457 0.000000
# 6 0.000000 0.000000 0.000000 0.000000 0.000000 0.064587
#
#
# Mechanical properties :
#
#
# Convention : Reuss Voigt Hill
#
# Bulk Modulus (GPa) = 49.47619 76.72961 63.10290
# Shear Modulus (GPa) = 26.81434 44.46752 35.64093
#
# Velocity S-wave (km/s) = 3.41038 4.39178 3.93182
# Velocity P-wave (km/s) = 6.08012 7.68104 6.92698
#
# Compressibility (1/GPa) = 0.02021174
#
# Stress axis : x y z
#
# Youngs Moduli (GPa) = 65.60303 235.25359 126.07094
#
# Poissons Ratio (x) = 0.13692 0.11611
# Poissons Ratio (y) = 0.03818 0.26527
# Poissons Ratio (z) = 0.06042 0.49500
#
# Static dielectric constant tensor:
#      x y z
#    x 2.136620 0.000000 0.000000 
#    y 0.000000 2.187980 0.000000 
#    z 0.000000 0.000000 1.866430 
# 
# From -- ./inp_files/51100.got.cif
#   From: 2010.05.17/outbox.cif.g08.bks.cpg/sg68_26_cif.got.tgz:51100.got - 2010.06.03 18:57:09.
