data_PCOD9505935
_publ_section_title
;
Structure prediction by ZEFSAII (Michael W. Deem and Ramdas Pophale) SiO2 
 PCOD9505935
Probable space group: C C C A
;
_chemical_formula_sum "Si O2"
_cell_formula_units_Z 68
_cell_length_a 13.327041
_cell_length_b 35.389817
_cell_length_c 5.669197
_cell_angle_alpha 90.000000
_cell_angle_beta 90.000000
_cell_angle_gamma 90.000000
_cell_volume 2673.828816
_symmetry_space_group_name_H-M "C C C A"
_symmetry_group_IT_number 68
_space_group.IT_coordinate_system_code '2'
_symmetry_cell_setting 'orthorhombic'
loop_
_space_group_symop_operation_xyz
x,y,z
-x,1/2-y,z
x,1/2-y,1/2-z
-x,y,1/2-z
-x,-y,-z
x,1/2+y,-z
-x,1/2+y,1/2+z
x,-y,1/2+z
1/2+x,1/2+y,z
1/2-x,-y,z
1/2+x,-y,1/2-z
1/2-x,1/2+y,1/2-z
1/2-x,1/2-y,-z
1/2+x,y,-z
1/2-x,y,1/2+z
1/2+x,1/2-y,1/2+z
loop_
_atom_site_type_symbol
_atom_site_label
_atom_site_fract_x
_atom_site_fract_y
_atom_site_fract_z
Si Si1 0.608702 0.897659 0.972844
Si Si2 0.878218 0.370886 0.031027
Si Si3 0.000000 0.250000 0.750000
Si Si4 0.611123 0.787806 0.364999
Si Si5 0.633399 0.514430 0.628804
O O1 0.648751 0.897049 0.243728
O O2 0.498140 0.879127 0.002869
O O3 0.653649 0.876331 0.742165
O O4 0.616523 0.941001 0.897378
O O5 0.846767 0.329424 0.125554
O O6 0.921704 0.222793 0.624706
O O7 0.659723 0.750000 0.250000
O O8 0.500000 0.790765 0.250000
O O9 0.593486 0.496583 0.386131
O O10 0.750000 0.500000 0.635995
#
# Coordination Sequence:
#
# PCOD9505935 Si02
#       5
#    16  16   4  16  16
#     4  10  19  32  50  70  99 135 168 208 258 302
#     4  10  19  31  45  71 108 140 170 200 247 307
#     4   8  14  20  36  54  84 128 194 192 226 252
#     4   9  16  24  39  62  94 145 183 195 227 284
#     4  10  21  38  57  74  93 124 168 220 267 310
#
# _framework density 25.431694
#
# number of rings (size 3 to 8) (size 9 to 14) (size 15 to 20)
#    0.000    2.588    2.353    2.824    3.294    0.000 
#    0.000   14.118    0.000    0.000    0.000    0.000 
#    0.000    0.000    0.000  127.059    0.000    0.000 
#
# Total GULP energy -189298.352807 kJ/mol
# GULP energy per Si atom -5567.598612 kJ/mol
# Density = 2.537381 g / cm^3
# Si number density = 25.431694 Si / 1000 Ang^3
#
#
#
# Elastic Constant Matrix: (Units=GPa)
#
#
# Indices 1 2 3 4 5 6 
#
# 1 106.6889 7.0250 21.3082 0.0000 0.0000 0.0000
# 2 7.0250 204.8811 49.7412 0.0000 0.0000 0.0000
# 3 21.3082 49.7412 204.4997 0.0000 0.0000 0.0000
# 4 0.0000 0.0000 0.0000 83.8565 0.0000 0.0000
# 5 0.0000 0.0000 0.0000 0.0000 -81.4530 0.0000
# 6 0.0000 0.0000 0.0000 0.0000 0.0000 -8.8752
#
#
#
# Elastic Compliance Matrix: (Units=1/GPa)
#
#
# Indices 1 2 3 4 5 6 
#
# 1 0.009574 -0.000091 -0.000975 0.000000 0.000000 0.000000
# 2 -0.000091 0.005188 -0.001252 0.000000 0.000000 0.000000
# 3 -0.000975 -0.001252 0.005296 0.000000 0.000000 0.000000
# 4 0.000000 0.000000 0.000000 0.011925 0.000000 0.000000
# 5 0.000000 0.000000 0.000000 0.000000 -0.012277 0.000000
# 6 0.000000 0.000000 0.000000 0.000000 0.000000 -0.112674
#
#
# Mechanical properties :
#
#
# Convention : Reuss Voigt Hill
#
# Bulk Modulus (GPa) = 64.85165 74.69093 69.77129
# Shear Modulus (GPa) = -60.10403 27.90534 -16.09935
#
# Velocity S-wave (km/s) = -4.86671 3.31609 -2.51876
# Velocity P-wave (km/s) = 2.45440 6.64040 4.36296
#
# Compressibility (1/GPa) = 0.01541981
#
# Stress axis : x y z
#
# Youngs Moduli (GPa) = 104.45104 192.74987 188.81361
#
# Poissons Ratio (x) = 0.01763 0.18415
# Poissons Ratio (y) = 0.00956 0.23647
# Poissons Ratio (z) = 0.10187 0.24140
#
# Static dielectric constant tensor:
#      x y z
#    x 1.911420 0.000000 0.000000 
#    y 0.000000 2.057050 0.000000 
#    z 0.000000 0.000000 0.441360 
# 
# From -- ./inp_files/1623.got.cif
#   From: 2010.05.17/outbox.cif.g08.bks.cpg/sg68_1_cif.got.tgz:1623.got - 2010.06.03 18:57:09.
