data_PCOD9505954
_publ_section_title
;
Structure prediction by ZEFSAII (Michael W. Deem and Ramdas Pophale) SiO2 
 PCOD9505954
Probable space group: C C C A
;
_chemical_formula_sum "Si O2"
_cell_formula_units_Z 96
_cell_length_a 21.456635
_cell_length_b 24.627184
_cell_length_c 9.104888
_cell_angle_alpha 90.000000
_cell_angle_beta 90.000000
_cell_angle_gamma 90.000000
_cell_volume 4811.173033
_symmetry_space_group_name_H-M "C C C A"
_symmetry_group_IT_number 68
_space_group.IT_coordinate_system_code '2'
_symmetry_cell_setting 'orthorhombic'
loop_
_space_group_symop_operation_xyz
x,y,z
-x,1/2-y,z
x,1/2-y,1/2-z
-x,y,1/2-z
-x,-y,-z
x,1/2+y,-z
-x,1/2+y,1/2+z
x,-y,1/2+z
1/2+x,1/2+y,z
1/2-x,-y,z
1/2+x,-y,1/2-z
1/2-x,1/2+y,1/2-z
1/2-x,1/2-y,-z
1/2+x,y,-z
1/2-x,y,1/2+z
1/2+x,1/2-y,1/2+z
loop_
_atom_site_type_symbol
_atom_site_label
_atom_site_fract_x
_atom_site_fract_y
_atom_site_fract_z
Si Si1 0.431904 0.770398 0.996506
Si Si2 0.395170 0.650147 0.964416
Si Si3 0.330307 0.445572 0.354544
Si Si4 0.951501 0.979967 0.880183
Si Si5 0.250000 0.500000 0.606069
Si Si6 0.927393 0.134736 0.292129
Si Si7 0.500000 0.164520 0.250000
O O1 0.500000 0.750000 0.051924
O O2 0.393397 0.715465 0.972458
O O3 0.450299 0.800575 0.844674
O O4 0.406416 0.813450 0.113042
O O5 0.343719 0.617966 0.873754
O O6 0.459930 0.636094 0.877432
O O7 0.395734 0.629406 0.132558
O O8 0.395926 0.477928 0.353368
O O9 0.293985 0.465935 0.498453
O O10 0.291263 0.462314 0.212333
O O11 0.921890 0.919673 0.890003
O O12 0.000000 0.974200 0.750000
O O13 0.000000 0.000000 0.000000
O O14 0.000000 0.143264 0.250000
#
# Coordination Sequence:
#
# PCOD9505954 Si02
#       7
#    16  16  16  16   8  16   8
#     4  10  19  31  51  81 122 169 201 230 285 379
#     4  11  21  33  57  87 121 156 206 244 311 369
#     4  11  23  43  64  90 115 166 214 267 316 364
#     4  11  24  37  56  94 135 159 192 250 326 397
#     4  10  24  46  66  80 116 166 238 268 296 370
#     4  11  19  33  50  80 124 173 199 225 289 390
#     4  10  21  32  50  90 136 170 190 232 309 402
#
# _framework density 19.953552999999999
#
# number of rings (size 3 to 8) (size 9 to 14) (size 15 to 20)
#    0.000    1.333    3.333    6.750    1.167    1.333 
#    0.000    0.000    0.000    0.000    0.000   39.667 
#    0.000    0.000    0.000    0.000    0.000    0.000 
#
# Total GULP energy -267767.603594 kJ/mol
# GULP energy per Si atom -5578.491742 kJ/mol
# Density = 1.990814 g / cm^3
# Si number density = 19.953553 Si / 1000 Ang^3
#
#
#
# Elastic Constant Matrix: (Units=GPa)
#
#
# Indices 1 2 3 4 5 6 
#
# 1 48.4558 30.9725 9.6571 0.0000 0.0000 0.0000
# 2 30.9725 131.2736 36.0368 0.0000 0.0000 0.0000
# 3 9.6571 36.0368 82.3809 0.0000 0.0000 0.0000
# 4 0.0000 0.0000 0.0000 15.2755 0.0000 0.0000
# 5 0.0000 0.0000 0.0000 0.0000 14.1581 0.0000
# 6 0.0000 0.0000 0.0000 0.0000 0.0000 -14.2185
#
#
#
# Elastic Compliance Matrix: (Units=1/GPa)
#
#
# Indices 1 2 3 4 5 6 
#
# 1 0.024313 -0.005630 -0.000387 0.000000 0.000000 0.000000
# 2 -0.005630 0.009961 -0.003697 0.000000 0.000000 0.000000
# 3 -0.000387 -0.003697 0.013802 0.000000 0.000000 0.000000
# 4 0.000000 0.000000 0.000000 0.065464 0.000000 0.000000
# 5 0.000000 0.000000 0.000000 0.000000 0.070631 0.000000
# 6 0.000000 0.000000 0.000000 0.000000 0.000000 -0.070331
#
#
# Mechanical properties :
#
#
# Convention : Reuss Voigt Hill
#
# Bulk Modulus (GPa) = 34.90857 46.16033 40.53445
# Shear Modulus (GPa) = 35.00952 15.40596 25.20774
#
# Velocity S-wave (km/s) = 4.19328 2.78167 3.55818
# Velocity P-wave (km/s) = 6.40138 5.78801 6.10241
#
# Compressibility (1/GPa) = 0.02864626
#
# Stress axis : x y z
#
# Youngs Moduli (GPa) = 41.12985 100.39120 72.45583
#
# Poissons Ratio (x) = 0.56521 0.02806
# Poissons Ratio (y) = 0.23157 0.26790
# Poissons Ratio (z) = 0.01593 0.37118
#
# Static dielectric constant tensor:
#      x y z
#    x 1.676870 0.000000 0.000000 
#    y 0.000000 1.854030 0.000000 
#    z 0.000000 0.000000 1.727870 
# 
# From -- ./inp_files/8173.got.cif
#   From: 2010.05.17/outbox.cif.g08.bks.cpg/sg68_5_cif.got.tgz:8173.got - 2010.06.03 18:57:09.
