data_PCOD9505325
_publ_section_title
;
Structure prediction by ZEFSAII (Michael W. Deem and Ramdas Pophale) SiO2 
 PCOD9505325
Probable space group: C C C A
;
_chemical_formula_sum "Si O2"
_cell_formula_units_Z 56
_cell_length_a 30.801599
_cell_length_b 5.299882
_cell_length_c 14.307577
_cell_angle_alpha 90.000000
_cell_angle_beta 90.000000
_cell_angle_gamma 90.000000
_cell_volume 2335.638120
_symmetry_space_group_name_H-M "C C C A"
_symmetry_group_IT_number 68
_space_group.IT_coordinate_system_code '2'
_symmetry_cell_setting 'orthorhombic'
loop_
_space_group_symop_operation_xyz
x,y,z
-x,1/2-y,z
x,1/2-y,1/2-z
-x,y,1/2-z
-x,-y,-z
x,1/2+y,-z
-x,1/2+y,1/2+z
x,-y,1/2+z
1/2+x,1/2+y,z
1/2-x,-y,z
1/2+x,-y,1/2-z
1/2-x,1/2+y,1/2-z
1/2-x,1/2-y,-z
1/2+x,y,-z
1/2-x,y,1/2+z
1/2+x,1/2-y,1/2+z
loop_
_atom_site_type_symbol
_atom_site_label
_atom_site_fract_x
_atom_site_fract_y
_atom_site_fract_z
Si Si1 0.750000 0.000000 0.199435
Si Si2 0.916229 0.829542 0.399221
Si Si3 0.316676 0.237306 0.443894
Si Si4 0.049292 0.668522 0.611291
O O1 0.730492 0.750000 0.250000
O O2 0.787110 0.862572 0.139133
O O3 0.867344 0.738665 0.417096
O O4 0.939532 0.865069 0.500592
O O5 0.940995 0.605047 0.348186
O O6 0.919880 0.105306 0.355262
O O7 0.307972 0.524040 0.476776
O O8 0.000000 0.750000 0.624090
#
# Coordination Sequence:
#
# PCOD9505325 Si02
#       4
#     8  16  16  16
#     4  12  28  46  62  88 122 158 200 258 326 378
#     4  10  16  27  44  76 110 150 190 229 281 346
#     4  12  21  40  65  90 116 155 207 254 299 370
#     4  10  16  25  41  72 125 158 174 223 303 347
#
# _framework density 23.976317000000002
#
# number of rings (size 3 to 8) (size 9 to 14) (size 15 to 20)
#    0.000    1.143    5.714    6.857    0.000    0.000 
#    0.000    0.000    0.000    0.000    0.000    0.000 
#    0.000   27.429    0.000    0.000    0.000    0.000 
#
# Total GULP energy -156435.447074 kJ/mol
# GULP energy per Si atom -5586.980253 kJ/mol
# Density = 2.392175 g / cm^3
# Si number density = 23.976317 Si / 1000 Ang^3
#
#
#
# Elastic Constant Matrix: (Units=GPa)
#
#
# Indices 1 2 3 4 5 6 
#
# 1 61.6845 6.2845 12.5366 0.0000 0.0000 0.0000
# 2 6.2845 190.4023 15.8446 0.0000 0.0000 0.0000
# 3 12.5366 15.8446 45.1959 0.0000 0.0000 0.0000
# 4 0.0000 0.0000 0.0000 14.5265 0.0000 0.0000
# 5 0.0000 0.0000 0.0000 0.0000 -62.8605 0.0000
# 6 0.0000 0.0000 0.0000 0.0000 0.0000 33.7835
#
#
#
# Elastic Compliance Matrix: (Units=1/GPa)
#
#
# Indices 1 2 3 4 5 6 
#
# 1 0.017186 -0.000176 -0.004705 0.000000 0.000000 0.000000
# 2 -0.000176 0.005412 -0.001848 0.000000 0.000000 0.000000
# 3 -0.004705 -0.001848 0.024079 0.000000 0.000000 0.000000
# 4 0.000000 0.000000 0.000000 0.068840 0.000000 0.000000
# 5 0.000000 0.000000 0.000000 0.000000 -0.015908 0.000000
# 6 0.000000 0.000000 0.000000 0.000000 0.000000 0.029600
#
#
# Mechanical properties :
#
#
# Convention : Reuss Voigt Hill
#
# Bulk Modulus (GPa) = 30.10473 40.73488 35.41980
# Shear Modulus (GPa) = 32.52248 14.59770 23.56009
#
# Velocity S-wave (km/s) = 3.68699 2.47014 3.13811
# Velocity P-wave (km/s) = 5.54152 5.01617 5.28538
#
# Compressibility (1/GPa) = 0.03321737
#
# Stress axis : x y z
#
# Youngs Moduli (GPa) = 58.18773 184.78625 41.52977
#
# Poissons Ratio (x) = 0.03246 0.19542
# Poissons Ratio (y) = 0.01022 0.07677
# Poissons Ratio (z) = 0.27380 0.34157
#
# Static dielectric constant tensor:
#      x y z
#    x 1.854510 0.000000 0.000000 
#    y 0.000000 1.979640 0.000000 
#    z 0.000000 0.000000 2.147970 
# 
# From -- ./inp_files/26207.got.cif
#   From: 2010.05.17/outbox.cif.g08.bks.cpg/sg68_14_cif.got.tgz:26207.got - 2010.06.03 18:57:09.
