data_PCOD9505958
_publ_section_title
;
Structure prediction by ZEFSAII (Michael W. Deem and Ramdas Pophale) SiO2 
 PCOD9505958
Probable space group: C C C A
;
_chemical_formula_sum "Si O2"
_cell_formula_units_Z 68
_cell_length_a 28.970475
_cell_length_b 22.899060
_cell_length_c 5.342625
_cell_angle_alpha 90.000000
_cell_angle_beta 90.000000
_cell_angle_gamma 90.000000
_cell_volume 3544.279502
_symmetry_space_group_name_H-M "C C C A"
_symmetry_group_IT_number 68
_space_group.IT_coordinate_system_code '2'
_symmetry_cell_setting 'orthorhombic'
loop_
_space_group_symop_operation_xyz
x,y,z
-x,1/2-y,z
x,1/2-y,1/2-z
-x,y,1/2-z
-x,-y,-z
x,1/2+y,-z
-x,1/2+y,1/2+z
x,-y,1/2+z
1/2+x,1/2+y,z
1/2-x,-y,z
1/2+x,-y,1/2-z
1/2-x,1/2+y,1/2-z
1/2-x,1/2-y,-z
1/2+x,y,-z
1/2-x,y,1/2+z
1/2+x,1/2-y,1/2+z
loop_
_atom_site_type_symbol
_atom_site_label
_atom_site_fract_x
_atom_site_fract_y
_atom_site_fract_z
Si Si1 0.071579 0.155969 0.619928
Si Si2 0.123092 0.814356 0.639043
Si Si3 0.500000 0.750000 0.750000
Si Si4 0.768812 0.817130 0.971350
Si Si5 0.052847 0.976200 0.230909
O O1 0.100970 0.148722 0.365395
O O2 0.051815 0.092479 0.682456
O O3 0.032193 0.205663 0.592297
O O4 0.100237 0.175593 0.867527
O O5 0.115051 0.750000 0.750000
O O6 0.177882 0.819576 0.602047
O O7 0.759938 0.843879 0.243098
O O8 0.750000 0.750000 0.000000
O O9 0.000000 0.998971 0.250000
O O10 0.075292 0.991728 0.495120
#
# Coordination Sequence:
#
# PCOD9505958 Si02
#       5
#    16  16   4  16  16
#     4  12  25  38  55  83 122 155 197 231 287 351
#     4  12  22  35  52  83 120 158 181 229 283 350
#     4  12  24  38  52  82 124 166 180 220 284 358
#     4  10  19  31  53  74 109 159 184 224 267 341
#     4  10  21  40  62  80 102 148 210 259 283 316
#
# _framework density 19.185846999999999
#
# number of rings (size 3 to 8) (size 9 to 14) (size 15 to 20)
#    0.000    0.941    5.882    2.824    3.294    1.882 
#    0.000    0.000    0.000    0.000    0.000    0.000 
#    0.000   65.882    0.000    0.000    0.000    0.000 
#
# Total GULP energy -189545.846091 kJ/mol
# GULP energy per Si atom -5574.877826 kJ/mol
# Density = 1.914218 g / cm^3
# Si number density = 19.185847 Si / 1000 Ang^3
#
#
#
# Elastic Constant Matrix: (Units=GPa)
#
#
# Indices 1 2 3 4 5 6 
#
# 1 92.2219 10.0075 51.6853 0.0000 0.0000 0.0000
# 2 10.0075 62.2031 16.3455 0.0000 0.0000 0.0000
# 3 51.6853 16.3455 170.2778 0.0000 0.0000 0.0000
# 4 0.0000 0.0000 0.0000 25.1336 0.0000 0.0000
# 5 0.0000 0.0000 0.0000 0.0000 20.6363 0.0000
# 6 0.0000 0.0000 0.0000 0.0000 0.0000 7.6708
#
#
#
# Elastic Compliance Matrix: (Units=1/GPa)
#
#
# Indices 1 2 3 4 5 6 
#
# 1 0.013138 -0.001093 -0.003883 0.000000 0.000000 0.000000
# 2 -0.001093 0.016583 -0.001260 0.000000 0.000000 0.000000
# 3 -0.003883 -0.001260 0.007172 0.000000 0.000000 0.000000
# 4 0.000000 0.000000 0.000000 0.039787 0.000000 0.000000
# 5 0.000000 0.000000 0.000000 0.000000 0.048458 0.000000
# 6 0.000000 0.000000 0.000000 0.000000 0.000000 0.130365
#
#
# Mechanical properties :
#
#
# Convention : Reuss Voigt Hill
#
# Bulk Modulus (GPa) = 40.94797 53.41992 47.18395
# Shear Modulus (GPa) = 18.10821 27.13244 22.62032
#
# Velocity S-wave (km/s) = 3.07552 3.76465 3.43740
# Velocity P-wave (km/s) = 5.83103 6.84110 6.35616
#
# Compressibility (1/GPa) = 0.02442123
#
# Stress axis : x y z
#
# Youngs Moduli (GPa) = 76.11371 60.30139 139.42487
#
# Poissons Ratio (x) = 0.06593 0.54138
# Poissons Ratio (y) = 0.08322 0.17568
# Poissons Ratio (z) = 0.29555 0.07598
#
# Static dielectric constant tensor:
#      x y z
#    x 1.685090 0.000000 0.000000 
#    y 0.000000 1.636780 0.000000 
#    z 0.000000 0.000000 1.794800 
# 
# From -- ./inp_files/1526.got.cif
#   From: 2010.05.17/outbox.cif.g08.bks.cpg/sg68_1_cif.got.tgz:1526.got - 2010.06.03 18:57:09.
