data_PCOD9505931
_publ_section_title
;
Structure prediction by ZEFSAII (Michael W. Deem and Ramdas Pophale) SiO2 
 PCOD9505931
Probable space group: C C C A
;
_chemical_formula_sum "Si O2"
_cell_formula_units_Z 72
_cell_length_a 5.293498
_cell_length_b 30.477667
_cell_length_c 23.500372
_cell_angle_alpha 90.000000
_cell_angle_beta 90.000000
_cell_angle_gamma 90.000000
_cell_volume 3791.396545
_symmetry_space_group_name_H-M "C C C A"
_symmetry_group_IT_number 68
_space_group.IT_coordinate_system_code '2'
_symmetry_cell_setting 'orthorhombic'
loop_
_space_group_symop_operation_xyz
x,y,z
-x,1/2-y,z
x,1/2-y,1/2-z
-x,y,1/2-z
-x,-y,-z
x,1/2+y,-z
-x,1/2+y,1/2+z
x,-y,1/2+z
1/2+x,1/2+y,z
1/2-x,-y,z
1/2+x,-y,1/2-z
1/2-x,1/2+y,1/2-z
1/2-x,1/2-y,-z
1/2+x,y,-z
1/2-x,y,1/2+z
1/2+x,1/2-y,1/2+z
loop_
_atom_site_type_symbol
_atom_site_label
_atom_site_fract_x
_atom_site_fract_y
_atom_site_fract_z
Si Si1 0.473216 0.449967 0.976413
Si Si2 0.000000 0.977167 0.750000
Si Si3 0.579561 0.129661 0.184724
Si Si4 0.244125 0.269380 0.685166
Si Si5 0.093545 0.916932 0.647600
O O1 0.405825 0.444105 0.910749
O O2 0.500000 0.500000 0.000000
O O3 0.244839 0.429191 0.011705
O O4 0.130666 0.949360 0.700310
O O5 0.250000 0.000000 0.776415
O O6 0.500000 0.119545 0.250000
O O7 0.692682 0.178995 0.186761
O O8 0.321213 0.118733 0.150372
O O9 0.814850 0.102485 0.159869
O O10 0.500000 0.250000 0.659653
O O11 0.245917 0.250000 0.750000
O O12 0.000000 0.250000 0.654954
#
# Coordination Sequence:
#
# PCOD9505931 Si02
#       5
#    16   8  16  16  16
#     4  10  23  42  64  83 107 152 218 282 316 359
#     4  12  26  36  56  82 123 158 205 252 314 408
#     4  12  21  38  56  90 134 172 191 243 305 382
#     4  10  19  30  53  83 123 176 200 221 269 367
#     4  12  25  40  59  87 122 165 208 260 329 371
#
# _framework density 18.990366000000002
#
# number of rings (size 3 to 8) (size 9 to 14) (size 15 to 20)
#    0.000    0.889    4.444    4.000    9.333    0.000 
#    0.000    0.000    0.000    0.000    0.000    0.000 
#    0.000   62.222    0.000    0.000    0.000    0.000 
#
# Total GULP energy -200440.122469 kJ/mol
# GULP energy per Si atom -5567.781180 kJ/mol
# Density = 1.894714 g / cm^3
# Si number density = 18.990366 Si / 1000 Ang^3
#
#
#
# Elastic Constant Matrix: (Units=GPa)
#
#
# Indices 1 2 3 4 5 6 
#
# 1 180.5227 30.1810 13.3117 0.0000 0.0000 0.0000
# 2 30.1810 75.8071 34.9868 0.0000 0.0000 0.0000
# 3 13.3117 34.9868 88.2085 0.0000 0.0000 0.0000
# 4 0.0000 0.0000 0.0000 18.6559 0.0000 0.0000
# 5 0.0000 0.0000 0.0000 0.0000 20.5635 0.0000
# 6 0.0000 0.0000 0.0000 0.0000 0.0000 33.9923
#
#
#
# Elastic Compliance Matrix: (Units=1/GPa)
#
#
# Indices 1 2 3 4 5 6 
#
# 1 0.005935 -0.002386 0.000051 0.000000 0.000000 0.000000
# 2 -0.002386 0.017107 -0.006425 0.000000 0.000000 0.000000
# 3 0.000051 -0.006425 0.013878 0.000000 0.000000 0.000000
# 4 0.000000 0.000000 0.000000 0.053602 0.000000 0.000000
# 5 0.000000 0.000000 0.000000 0.000000 0.048630 0.000000
# 6 0.000000 0.000000 0.000000 0.000000 0.000000 0.029418
#
#
# Mechanical properties :
#
#
# Convention : Reuss Voigt Hill
#
# Bulk Modulus (GPa) = 51.55162 55.72195 53.63679
# Shear Modulus (GPa) = 25.96642 32.37960 29.17301
#
# Velocity S-wave (km/s) = 3.70178 4.13371 3.92369
# Velocity P-wave (km/s) = 6.74359 7.22422 6.98804
#
# Compressibility (1/GPa) = 0.01939803
#
# Stress axis : x y z
#
# Youngs Moduli (GPa) = 168.50149 58.45657 72.05901
#
# Poissons Ratio (x) = 0.13949 -0.00367
# Poissons Ratio (y) = 0.40208 0.46298
# Poissons Ratio (z) = -0.00857 0.37559
#
# Static dielectric constant tensor:
#      x y z
#    x 1.878310 0.000000 0.000000 
#    y 0.000000 1.734190 0.000000 
#    z 0.000000 0.000000 1.609040 
# 
# From -- ./inp_files/42249.got.cif
#   From: 2010.05.17/outbox.cif.g08.bks.cpg/sg68_22_cif.got.tgz:42249.got - 2010.06.03 18:57:09.
