data_PCOD9505009
_publ_section_title
;
Structure prediction by ZEFSAII (Michael W. Deem and Ramdas Pophale) SiO2 
 PCOD9505009
Probable space group: C M M A
;
_chemical_formula_sum "Si O2"
_cell_formula_units_Z 116
_cell_length_a 18.985117
_cell_length_b 16.842548
_cell_length_c 17.348750
_cell_angle_alpha 90.000000
_cell_angle_beta 90.000000
_cell_angle_gamma 90.000000
_cell_volume 5547.397167
_symmetry_space_group_name_H-M "C M M A"
_symmetry_group_IT_number 67
_symmetry_cell_setting 'orthorhombic'
loop_
_space_group_symop_operation_xyz
x,y,z
-x,1/2-y,z
x,-y,-z
-x,1/2+y,-z
-x,-y,-z
x,1/2+y,-z
-x,y,z
x,1/2-y,z
1/2+x,1/2+y,z
1/2-x,-y,z
1/2+x,1/2-y,-z
1/2-x,y,-z
1/2-x,1/2-y,-z
1/2+x,y,-z
1/2-x,1/2+y,z
1/2+x,-y,z
loop_
_atom_site_type_symbol
_atom_site_label
_atom_site_fract_x
_atom_site_fract_y
_atom_site_fract_z
Si Si1 0.328432 0.659677 0.465944
Si Si2 0.918889 0.942060 0.111907
Si Si3 0.084228 0.077135 0.595981
Si Si4 0.000000 0.750000 0.792235
Si Si5 0.385810 0.114628 0.830617
Si Si6 0.321146 0.947511 0.323728
Si Si7 0.414787 0.663904 0.747577
Si Si8 0.333076 0.160966 0.993620
O O1 0.355735 0.750000 0.468848
O O2 0.250000 0.657721 0.500000
O O3 0.377226 0.601687 0.517390
O O4 0.319524 0.627905 0.379834
O O5 0.891683 0.900541 0.190574
O O6 0.872814 0.906347 0.042894
O O7 0.000000 0.918349 0.097047
O O8 0.918166 0.035124 0.130230
O O9 0.101636 0.144773 0.659339
O O10 0.000000 0.070398 0.585884
O O11 0.116357 0.000719 0.638943
O O12 0.939458 0.678991 0.796606
O O13 0.337138 0.081747 0.762019
O O14 0.349216 0.154854 0.903446
O O15 0.250000 0.000000 0.328367
O O16 0.500000 0.663701 0.750936
O O17 0.387753 0.750000 0.769742
O O18 0.354179 0.250000 0.020877
O O19 0.250000 0.151384 0.000000
#
# Coordination Sequence:
#
# PCOD9505009 Si02
#       8
#    16  16  16   4  16  16  16  16
#     4  11  25  46  71 104 143 186 235 293 363 443
#     4  11  23  41  70 105 136 185 246 297 363 437
#     4  11  23  43  71 105 144 186 241 305 365 431
#     4  12  28  52  76 108 154 196 256 324 370 446
#     4  12  27  47  74 103 144 195 244 309 373 440
#     4  12  27  47  75 105 143 195 248 299 367 449
#     4   9  18  35  61  99 141 175 218 285 353 419
#     4  11  27  47  69 104 149 188 239 306 373 445
#
# _framework density 20.910706999999999
#
# number of rings (size 3 to 8) (size 9 to 14) (size 15 to 20)
#    0.000    0.966    4.138    1.655    4.828    3.862 
#    0.000    0.000    0.000    0.000    0.000    0.000 
#    0.000    0.000    0.000    0.000    0.000    0.000 
#
# Total GULP energy -323397.138792 kJ/mol
# GULP energy per Si atom -5575.812738 kJ/mol
# Density = 2.086311 g / cm^3
# Si number density = 20.910707 Si / 1000 Ang^3
#
#
#
# Elastic Constant Matrix: (Units=GPa)
#
#
# Indices 1 2 3 4 5 6 
#
# 1 66.7966 16.8571 23.8441 0.0000 0.0000 0.0000
# 2 16.8571 108.3918 14.5302 0.0000 0.0000 0.0000
# 3 23.8441 14.5302 102.6289 0.0000 0.0000 0.0000
# 4 0.0000 0.0000 0.0000 20.0008 0.0000 0.0000
# 5 0.0000 0.0000 0.0000 0.0000 6.1212 0.0000
# 6 0.0000 0.0000 0.0000 0.0000 0.0000 6.6941
#
#
#
# Elastic Compliance Matrix: (Units=1/GPa)
#
#
# Indices 1 2 3 4 5 6 
#
# 1 0.016793 -0.002129 -0.003600 0.000000 0.000000 0.000000
# 2 -0.002129 0.009674 -0.000875 0.000000 0.000000 0.000000
# 3 -0.003600 -0.000875 0.010704 0.000000 0.000000 0.000000
# 4 0.000000 0.000000 0.000000 0.049998 0.000000 0.000000
# 5 0.000000 0.000000 0.000000 0.000000 0.163368 0.000000
# 6 0.000000 0.000000 0.000000 0.000000 0.000000 0.149385
#
#
# Mechanical properties :
#
#
# Convention : Reuss Voigt Hill
#
# Bulk Modulus (GPa) = 41.73086 43.14220 42.43653
# Shear Modulus (GPa) = 11.87314 21.40229 16.63771
#
# Velocity S-wave (km/s) = 2.38544 3.20270 2.82380
# Velocity P-wave (km/s) = 5.25235 5.86113 5.56507
#
# Compressibility (1/GPa) = 0.02396308
#
# Stress axis : x y z
#
# Youngs Moduli (GPa) = 59.54765 103.36767 93.42155
#
# Poissons Ratio (x) = 0.22008 0.33634
# Poissons Ratio (y) = 0.12678 0.08175
# Poissons Ratio (z) = 0.21438 0.09045
#
# Static dielectric constant tensor:
#      x y z
#    x 1.736330 0.000000 0.000000 
#    y 0.000000 1.779800 0.000000 
#    z 0.000000 0.000000 1.752480 
# 
# From -- ./inp_files/34336.got.cif
#   From: 2010.05.17/outbox.cif.g08.bks.cpg/sg67_18_cif.got.tgz:34336.got - 2010.06.03 18:28:57.
