data_PCOD9505747
_publ_section_title
;
Structure prediction by ZEFSAII (Michael W. Deem and Ramdas Pophale) SiO2 
 PCOD9505747
Probable space group: C C C A
;
_chemical_formula_sum "Si O2"
_cell_formula_units_Z 128
_cell_length_a 14.748631
_cell_length_b 18.501450
_cell_length_c 25.143074
_cell_angle_alpha 90.000000
_cell_angle_beta 90.000000
_cell_angle_gamma 90.000000
_cell_volume 6860.817229
_symmetry_space_group_name_H-M "C C C A"
_symmetry_group_IT_number 68
_space_group.IT_coordinate_system_code '2'
_symmetry_cell_setting 'orthorhombic'
loop_
_space_group_symop_operation_xyz
x,y,z
-x,1/2-y,z
x,1/2-y,1/2-z
-x,y,1/2-z
-x,-y,-z
x,1/2+y,-z
-x,1/2+y,1/2+z
x,-y,1/2+z
1/2+x,1/2+y,z
1/2-x,-y,z
1/2+x,-y,1/2-z
1/2-x,1/2+y,1/2-z
1/2-x,1/2-y,-z
1/2+x,y,-z
1/2-x,y,1/2+z
1/2+x,1/2-y,1/2+z
loop_
_atom_site_type_symbol
_atom_site_label
_atom_site_fract_x
_atom_site_fract_y
_atom_site_fract_z
Si Si1 0.906657 0.951652 0.554298
Si Si2 0.343158 0.954998 0.325661
Si Si3 0.267851 0.764534 0.911275
Si Si4 0.932356 0.599252 0.297402
Si Si5 0.926913 0.604041 0.498698
Si Si6 0.961353 0.326188 0.900667
Si Si7 0.220429 0.648764 0.490151
Si Si8 0.256744 0.189880 0.795628
O O1 0.873157 0.939185 0.613871
O O2 0.838464 0.918294 0.510176
O O3 0.006890 0.919416 0.545725
O O4 0.912003 0.035847 0.540215
O O5 0.324201 0.879350 0.296080
O O6 0.250000 0.000000 0.330561
O O7 0.407013 0.014407 0.297972
O O8 0.353106 0.818016 0.906732
O O9 0.302931 0.688514 0.934887
O O10 0.229414 0.768839 0.852241
O O11 0.208179 0.796075 0.959663
O O12 0.977967 0.616874 0.354404
O O13 0.842972 0.650878 0.292944
O O14 0.000000 0.616499 0.250000
O O15 0.986054 0.657300 0.461372
O O16 0.827559 0.630539 0.514856
O O17 0.000000 0.250000 0.882572
O O18 0.265670 0.250000 0.750000
#
# Coordination Sequence:
#
# PCOD9505747 Si02
#       8
#    16  16  16  16  16  16  16  16
#     4  11  19  33  57  81 114 154 193 235 280 351
#     4  10  19  39  62  81 109 156 201 234 285 359
#     4   9  19  32  53  81 109 149 182 229 290 349
#     4  10  22  35  57  86 113 148 188 245 303 351
#     4  10  21  32  51  87 113 147 195 230 280 359
#     4  10  19  32  51  80 118 144 181 234 296 353
#     4  10  18  34  55  79 117 149 184 235 294 340
#     4  10  21  37  61  86 111 148 202 246 290 359
#
# _framework density 18.656669999999998
#
# number of rings (size 3 to 8) (size 9 to 14) (size 15 to 20)
#    0.000    2.000    2.500    1.875    3.500    0.000 
#    0.000    1.250    0.000    3.375    0.000    0.000 
#    0.000    0.000    0.000    0.000    0.000    0.000 
#
# Total GULP energy -356368.183574 kJ/mol
# GULP energy per Si atom -5568.252868 kJ/mol
# Density = 1.861421 g / cm^3
# Si number density = 18.656670 Si / 1000 Ang^3
#
#
#
# Elastic Constant Matrix: (Units=GPa)
#
#
# Indices 1 2 3 4 5 6 
#
# 1 41.9149 18.9440 11.4293 0.0000 0.0000 0.0000
# 2 18.9440 95.6341 46.4113 0.0000 0.0000 0.0000
# 3 11.4293 46.4113 84.3080 0.0000 0.0000 0.0000
# 4 0.0000 0.0000 0.0000 23.6237 0.0000 0.0000
# 5 0.0000 0.0000 0.0000 0.0000 24.6369 0.0000
# 6 0.0000 0.0000 0.0000 0.0000 0.0000 23.5572
#
#
#
# Elastic Compliance Matrix: (Units=1/GPa)
#
#
# Indices 1 2 3 4 5 6 
#
# 1 0.026260 -0.004741 -0.000950 0.000000 0.000000 0.000000
# 2 -0.004741 0.015124 -0.007683 0.000000 0.000000 0.000000
# 3 -0.000950 -0.007683 0.016220 0.000000 0.000000 0.000000
# 4 0.000000 0.000000 0.000000 0.042330 0.000000 0.000000
# 5 0.000000 0.000000 0.000000 0.000000 0.040589 0.000000
# 6 0.000000 0.000000 0.000000 0.000000 0.000000 0.042450
#
#
# Mechanical properties :
#
#
# Convention : Reuss Voigt Hill
#
# Bulk Modulus (GPa) = 32.40917 41.71404 37.06161
# Shear Modulus (GPa) = 22.72662 24.03506 23.38084
#
# Velocity S-wave (km/s) = 3.49399 3.59316 3.54392
# Velocity P-wave (km/s) = 5.80399 6.29458 6.05426
#
# Compressibility (1/GPa) = 0.03085546
#
# Stress axis : x y z
#
# Youngs Moduli (GPa) = 38.08137 66.11908 61.65360
#
# Poissons Ratio (x) = 0.31344 0.05859
# Poissons Ratio (y) = 0.18053 0.47370
# Poissons Ratio (z) = 0.03619 0.50800
#
# Static dielectric constant tensor:
#      x y z
#    x 1.684230 0.000000 0.000000 
#    y 0.000000 1.709720 0.000000 
#    z 0.000000 0.000000 1.672340 
# 
# From -- ./inp_files/46195.got.cif
#   From: 2010.05.17/outbox.cif.g08.bks.cpg/sg68_24_cif.got.tgz:46195.got - 2010.06.03 18:57:09.
