data_PCOD9506806
_publ_section_title
;
Structure prediction by ZEFSAII (Michael W. Deem and Ramdas Pophale) SiO2 
 PCOD9506806
Probable space group: C C C A
;
_chemical_formula_sum "Si O2"
_cell_formula_units_Z 120
_cell_length_a 10.810922
_cell_length_b 23.335200
_cell_length_c 18.939589
_cell_angle_alpha 90.000000
_cell_angle_beta 90.000000
_cell_angle_gamma 90.000000
_cell_volume 4777.985327
_symmetry_space_group_name_H-M "C C C A"
_symmetry_group_IT_number 68
_space_group.IT_coordinate_system_code '2'
_symmetry_cell_setting 'orthorhombic'
loop_
_space_group_symop_operation_xyz
x,y,z
-x,1/2-y,z
x,1/2-y,1/2-z
-x,y,1/2-z
-x,-y,-z
x,1/2+y,-z
-x,1/2+y,1/2+z
x,-y,1/2+z
1/2+x,1/2+y,z
1/2-x,-y,z
1/2+x,-y,1/2-z
1/2-x,1/2+y,1/2-z
1/2-x,1/2-y,-z
1/2+x,y,-z
1/2-x,y,1/2+z
1/2+x,1/2-y,1/2+z
loop_
_atom_site_type_symbol
_atom_site_label
_atom_site_fract_x
_atom_site_fract_y
_atom_site_fract_z
Si Si1 0.685419 0.440885 0.662832
Si Si2 0.500000 0.750000 0.085965
Si Si3 0.869327 0.124572 0.210065
Si Si4 0.955812 0.074734 0.560375
Si Si5 0.761237 0.723179 0.347064
Si Si6 0.640422 0.162100 0.381566
Si Si7 0.571759 0.551528 0.416750
Si Si8 0.323073 0.171630 0.497189
O O1 0.750000 0.500000 0.648141
O O2 0.659295 0.432325 0.745341
O O3 0.761875 0.384548 0.644932
O O4 0.562650 0.441661 0.618089
O O5 0.617305 0.762049 0.135519
O O6 0.558783 0.699684 0.037359
O O7 0.764329 0.173631 0.210134
O O8 0.000000 0.143471 0.250000
O O9 0.865378 0.101696 0.128962
O O10 0.016923 0.123977 0.609602
O O11 0.060080 0.060024 0.501040
O O12 0.848880 0.105389 0.516389
O O13 0.903481 0.016458 0.593621
O O14 0.847150 0.779229 0.337151
O O15 0.809314 0.698987 0.421106
O O16 0.699301 0.180112 0.457475
#
# Coordination Sequence:
#
# PCOD9506806 Si02
#       8
#    16   8  16  16  16  16  16  16
#     4  11  22  42  63  86 125 166 213 265 318 376
#     4  10  20  36  59  90 134 163 192 258 318 382
#     4  10  24  42  63  87 122 166 214 269 314 370
#     4  11  21  36  67  92 133 162 199 267 319 386
#     4  11  24  39  60  94 127 162 215 255 320 387
#     4  11  22  37  60  93 127 164 206 254 322 384
#     4  10  21  40  59  97 122 161 215 256 321 382
#     4  11  20  35  59  91 129 166 196 251 320 388
#
# _framework density 25.115188
#
# number of rings (size 3 to 8) (size 9 to 14) (size 15 to 20)
#    0.000    1.333    2.667    4.800    5.600    1.600 
#    0.000    1.333    0.000    0.000    0.000    1.867 
#    0.000    0.000    0.000    0.000    0.000    0.000 
#
# Total GULP energy -334879.863549 kJ/mol
# GULP energy per Si atom -5581.331059 kJ/mol
# Density = 2.505802 g / cm^3
# Si number density = 25.115188 Si / 1000 Ang^3
#
#
#
# Elastic Constant Matrix: (Units=GPa)
#
#
# Indices 1 2 3 4 5 6 
#
# 1 37.1247 17.4851 -13.0870 0.0000 0.0000 0.0000
# 2 17.4851 155.3237 28.7807 0.0000 0.0000 0.0000
# 3 -13.0870 28.7807 65.8176 0.0000 0.0000 0.0000
# 4 0.0000 0.0000 0.0000 27.7595 0.0000 0.0000
# 5 0.0000 0.0000 0.0000 0.0000 18.7504 0.0000
# 6 0.0000 0.0000 0.0000 0.0000 0.0000 30.3138
#
#
#
# Elastic Compliance Matrix: (Units=1/GPa)
#
#
# Indices 1 2 3 4 5 6 
#
# 1 0.032521 -0.005288 0.008779 0.000000 0.000000 0.000000
# 2 -0.005288 0.007866 -0.004491 0.000000 0.000000 0.000000
# 3 0.008779 -0.004491 0.018903 0.000000 0.000000 0.000000
# 4 0.000000 0.000000 0.000000 0.036024 0.000000 0.000000
# 5 0.000000 0.000000 0.000000 0.000000 0.053332 0.000000
# 6 0.000000 0.000000 0.000000 0.000000 0.000000 0.032988
#
#
# Mechanical properties :
#
#
# Convention : Reuss Voigt Hill
#
# Bulk Modulus (GPa) = 17.45512 36.06929 26.76221
# Shear Modulus (GPa) = 24.66335 30.37054 27.51694
#
# Velocity S-wave (km/s) = 3.13710 3.48120 3.31362
# Velocity P-wave (km/s) = 4.48185 5.52730 5.03180
#
# Compressibility (1/GPa) = 0.05728978
#
# Stress axis : x y z
#
# Youngs Moduli (GPa) = 30.74922 127.13700 52.90233
#
# Poissons Ratio (x) = 0.67225 -0.46441
# Poissons Ratio (y) = 0.16259 0.23757
# Poissons Ratio (z) = -0.26993 0.57095
#
# Static dielectric constant tensor:
#      x y z
#    x 2.088250 0.000000 0.000000 
#    y 0.000000 1.978830 0.000000 
#    z 0.000000 0.000000 2.042200 
# 
# From -- ./inp_files/37906.got.cif
#   From: 2010.05.17/outbox.cif.g08.bks.cpg/sg68_19_cif.got.tgz:37906.got - 2010.06.03 18:57:09.
