data_PCOD9506683
_publ_section_title
;
Structure prediction by ZEFSAII (Michael W. Deem and Ramdas Pophale) SiO2 
 PCOD9506683
Probable space group: C C C A
;
_chemical_formula_sum "Si O2"
_cell_formula_units_Z 120
_cell_length_a 23.693686
_cell_length_b 18.291276
_cell_length_c 13.826713
_cell_angle_alpha 90.000000
_cell_angle_beta 90.000000
_cell_angle_gamma 90.000000
_cell_volume 5992.328038
_symmetry_space_group_name_H-M "C C C A"
_symmetry_group_IT_number 68
_space_group.IT_coordinate_system_code '2'
_symmetry_cell_setting 'orthorhombic'
loop_
_space_group_symop_operation_xyz
x,y,z
-x,1/2-y,z
x,1/2-y,1/2-z
-x,y,1/2-z
-x,-y,-z
x,1/2+y,-z
-x,1/2+y,1/2+z
x,-y,1/2+z
1/2+x,1/2+y,z
1/2-x,-y,z
1/2+x,-y,1/2-z
1/2-x,1/2+y,1/2-z
1/2-x,1/2-y,-z
1/2+x,y,-z
1/2-x,y,1/2+z
1/2+x,1/2-y,1/2+z
loop_
_atom_site_type_symbol
_atom_site_label
_atom_site_fract_x
_atom_site_fract_y
_atom_site_fract_z
Si Si1 0.938242 0.913343 0.964694
Si Si2 0.159774 0.186984 0.535646
Si Si3 0.943435 0.579756 0.066758
Si Si4 0.500000 0.151153 0.250000
Si Si5 0.110135 0.831569 0.361467
Si Si6 0.324874 0.824648 0.313460
Si Si7 0.287585 0.336783 0.272494
Si Si8 0.937937 0.663278 0.730068
O O1 0.925213 0.855345 0.880935
O O2 0.926190 0.995347 0.931756
O O3 0.904112 0.892787 0.060304
O O4 0.004359 0.909975 0.992936
O O5 0.107449 0.131633 0.536948
O O6 0.136464 0.262533 0.581653
O O7 0.181465 0.193979 0.426419
O O8 0.205272 0.156648 0.612726
O O9 0.966866 0.603530 0.171005
O O10 0.449725 0.189323 0.311561
O O11 0.155089 0.859178 0.282327
O O12 0.328303 0.750000 0.250000
O O13 0.270116 0.866644 0.272918
O O14 0.385041 0.863094 0.293784
O O15 0.285524 0.250000 0.250000
O O16 0.942524 0.750000 0.750000
O O17 0.000000 0.630668 0.750000
#
# Coordination Sequence:
#
# PCOD9506683 Si02
#       8
#    16  16  16   8  16  16  16  16
#     4  10  22  37  58  86 123 163 202 246 309 377
#     4  11  21  38  61  88 123 156 203 261 299 366
#     4  10  22  38  57  87 122 167 201 246 315 369
#     4  10  20  35  60  88 121 158 202 256 297 368
#     4  10  20  36  60  88 119 154 203 255 301 355
#     4  10  21  36  59  89 122 160 197 248 315 362
#     4   9  20  36  57  88 116 157 201 246 302 365
#     4  10  20  35  57  88 122 151 198 250 305 363
#
# _framework density 20.025607000000001
#
# number of rings (size 3 to 8) (size 9 to 14) (size 15 to 20)
#    0.000    2.000    1.333    2.400    0.933    9.600 
#    2.400    0.000    0.000    4.800    0.000    0.000 
#    0.000    0.000    0.000    0.000    0.000    0.000 
#
# Total GULP energy -334661.760586 kJ/mol
# GULP energy per Si atom -5577.696010 kJ/mol
# Density = 1.998003 g / cm^3
# Si number density = 20.025607 Si / 1000 Ang^3
#
#
#
# Elastic Constant Matrix: (Units=GPa)
#
#
# Indices 1 2 3 4 5 6 
#
# 1 128.8863 0.3701 47.8999 0.0000 0.0000 0.0000
# 2 0.3701 45.5541 20.7929 0.0000 0.0000 0.0000
# 3 47.8999 20.7929 161.0401 0.0000 0.0000 0.0000
# 4 0.0000 0.0000 0.0000 14.9768 0.0000 0.0000
# 5 0.0000 0.0000 0.0000 0.0000 24.8919 0.0000
# 6 0.0000 0.0000 0.0000 0.0000 0.0000 -22.2227
#
#
#
# Elastic Compliance Matrix: (Units=1/GPa)
#
#
# Indices 1 2 3 4 5 6 
#
# 1 0.008783 0.001191 -0.002766 0.000000 0.000000 0.000000
# 2 0.001191 0.023488 -0.003387 0.000000 0.000000 0.000000
# 3 -0.002766 -0.003387 0.007470 0.000000 0.000000 0.000000
# 4 0.000000 0.000000 0.000000 0.066770 0.000000 0.000000
# 5 0.000000 0.000000 0.000000 0.000000 0.040174 0.000000
# 6 0.000000 0.000000 0.000000 0.000000 0.000000 -0.044999
#
#
# Mechanical properties :
#
#
# Convention : Reuss Voigt Hill
#
# Bulk Modulus (GPa) = 33.53760 52.62294 43.08027
# Shear Modulus (GPa) = 41.13553 21.29038 31.21295
#
# Velocity S-wave (km/s) = 4.53719 3.26415 3.95226
# Velocity P-wave (km/s) = 6.65070 6.36719 6.51049
#
# Compressibility (1/GPa) = 0.02981728
#
# Stress axis : x y z
#
# Youngs Moduli (GPa) = 113.85032 42.57445 133.87248
#
# Poissons Ratio (x) = -0.05072 0.37034
# Poissons Ratio (y) = -0.13563 0.45344
# Poissons Ratio (z) = 0.31495 0.14420
#
# Static dielectric constant tensor:
#      x y z
#    x 1.798510 0.000000 0.000000 
#    y 0.000000 1.687440 0.000000 
#    z 0.000000 0.000000 1.724540 
# 
# From -- ./inp_files/17325.got.cif
#   From: 2010.05.17/outbox.cif.g08.bks.cpg/sg68_9_cif.got.tgz:17325.got - 2010.06.03 18:57:09.
