data_PCOD9506854
_publ_section_title
;
Structure prediction by ZEFSAII (Michael W. Deem and Ramdas Pophale) SiO2 
 PCOD9506854
Probable space group: C C C A
;
_chemical_formula_sum "Si O2"
_cell_formula_units_Z 88
_cell_length_a 23.051674
_cell_length_b 19.328860
_cell_length_c 8.302971
_cell_angle_alpha 90.000000
_cell_angle_beta 90.000000
_cell_angle_gamma 90.000000
_cell_volume 3699.493176
_symmetry_space_group_name_H-M "C C C A"
_symmetry_group_IT_number 68
_space_group.IT_coordinate_system_code '2'
_symmetry_cell_setting 'orthorhombic'
loop_
_space_group_symop_operation_xyz
x,y,z
-x,1/2-y,z
x,1/2-y,1/2-z
-x,y,1/2-z
-x,-y,-z
x,1/2+y,-z
-x,1/2+y,1/2+z
x,-y,1/2+z
1/2+x,1/2+y,z
1/2-x,-y,z
1/2+x,-y,1/2-z
1/2-x,1/2+y,1/2-z
1/2-x,1/2-y,-z
1/2+x,y,-z
1/2-x,y,1/2+z
1/2+x,1/2-y,1/2+z
loop_
_atom_site_type_symbol
_atom_site_label
_atom_site_fract_x
_atom_site_fract_y
_atom_site_fract_z
Si Si1 0.419373 0.348174 0.498738
Si Si2 0.163558 0.114773 0.262725
Si Si3 0.366395 0.044911 0.254875
Si Si4 0.281227 0.133692 0.416910
Si Si5 0.140994 0.250000 0.750000
Si Si6 0.522629 0.572336 0.931288
O O1 0.390579 0.341462 0.672860
O O2 0.389674 0.415708 0.405079
O O3 0.400423 0.287154 0.380015
O O4 0.487371 0.366022 0.514155
O O5 0.212419 0.130695 0.398786
O O6 0.196644 0.131713 0.098830
O O7 0.137798 0.037270 0.245766
O O8 0.303609 0.069082 0.311622
O O9 0.408984 0.070269 0.400417
O O10 0.315509 0.196778 0.335552
O O11 0.500000 0.575999 0.750000
O O12 0.500000 0.500000 0.000000
#
# Coordination Sequence:
#
# PCOD9506854 Si02
#       6
#    16  16  16  16   8  16
#     4  10  22  40  65  94 128 176 210 273 320 400
#     4  12  23  39  64  94 131 166 224 273 341 385
#     4  10  21  39  61  98 131 164 214 269 338 393
#     4  11  25  39  63  92 129 179 215 278 325 399
#     4  10  24  48  63  90 134 172 237 254 332 404
#     4  10  20  36  63  97 127 163 204 264 331 385
#
# _framework density 23.787043000000001
#
# number of rings (size 3 to 8) (size 9 to 14) (size 15 to 20)
#    0.000    1.455    1.818    3.818    2.545    5.091 
#    0.000   11.364    0.000    0.000    0.000   10.182 
#    0.000    0.000    0.000    0.000    0.000    0.000 
#
# Total GULP energy -245786.886256 kJ/mol
# GULP energy per Si atom -5586.065597 kJ/mol
# Density = 2.373290 g / cm^3
# Si number density = 23.787043 Si / 1000 Ang^3
#
#
#
# Elastic Constant Matrix: (Units=GPa)
#
#
# Indices 1 2 3 4 5 6 
#
# 1 92.7207 -3.1252 4.4087 0.0000 0.0000 0.0000
# 2 -3.1252 49.0735 -4.6417 0.0000 0.0000 0.0000
# 3 4.4087 -4.6417 79.3229 0.0000 0.0000 0.0000
# 4 0.0000 0.0000 0.0000 19.3444 0.0000 0.0000
# 5 0.0000 0.0000 0.0000 0.0000 36.5290 0.0000
# 6 0.0000 0.0000 0.0000 0.0000 0.0000 16.1600
#
#
#
# Elastic Compliance Matrix: (Units=1/GPa)
#
#
# Indices 1 2 3 4 5 6 
#
# 1 0.010833 0.000636 -0.000565 0.000000 0.000000 0.000000
# 2 0.000636 0.020528 0.001166 0.000000 0.000000 0.000000
# 3 -0.000565 0.001166 0.012706 0.000000 0.000000 0.000000
# 4 0.000000 0.000000 0.000000 0.051694 0.000000 0.000000
# 5 0.000000 0.000000 0.000000 0.000000 0.027376 0.000000
# 6 0.000000 0.000000 0.000000 0.000000 0.000000 0.061881
#
#
# Mechanical properties :
#
#
# Convention : Reuss Voigt Hill
#
# Bulk Modulus (GPa) = 21.48546 23.82231 22.65389
# Shear Modulus (GPa) = 25.24504 29.37170 27.30837
#
# Velocity S-wave (km/s) = 3.26128 3.51775 3.39194
# Velocity P-wave (km/s) = 4.82010 5.15131 4.98845
#
# Compressibility (1/GPa) = 0.04654310
#
# Stress axis : x y z
#
# Youngs Moduli (GPa) = 92.30721 48.71298 78.70104
#
# Poissons Ratio (x) = -0.03101 0.04446
# Poissons Ratio (y) = -0.05875 -0.09176
# Poissons Ratio (z) = 0.05214 -0.05679
#
# Static dielectric constant tensor:
#      x y z
#    x 1.945400 0.000000 0.000000 
#    y 0.000000 1.895550 0.000000 
#    z 0.000000 0.000000 1.932300 
# 
# From -- ./inp_files/7988.got.cif
#   From: 2010.05.17/outbox.cif.g08.bks.cpg/sg68_4_cif.got.tgz:7988.got - 2010.06.03 18:57:09.
