data_PCOD9506387
_publ_section_title
;
Structure prediction by ZEFSAII (Michael W. Deem and Ramdas Pophale) SiO2 
 PCOD9506387
Probable space group: C C C A
;
_chemical_formula_sum "Si O2"
_cell_formula_units_Z 96
_cell_length_a 19.752119
_cell_length_b 23.181187
_cell_length_c 9.346096
_cell_angle_alpha 90.000000
_cell_angle_beta 90.000000
_cell_angle_gamma 90.000000
_cell_volume 4279.367671
_symmetry_space_group_name_H-M "C C C A"
_symmetry_group_IT_number 68
_space_group.IT_coordinate_system_code '2'
_symmetry_cell_setting 'orthorhombic'
loop_
_space_group_symop_operation_xyz
x,y,z
-x,1/2-y,z
x,1/2-y,1/2-z
-x,y,1/2-z
-x,-y,-z
x,1/2+y,-z
-x,1/2+y,1/2+z
x,-y,1/2+z
1/2+x,1/2+y,z
1/2-x,-y,z
1/2+x,-y,1/2-z
1/2-x,1/2+y,1/2-z
1/2-x,1/2-y,-z
1/2+x,y,-z
1/2-x,y,1/2+z
1/2+x,1/2-y,1/2+z
loop_
_atom_site_type_symbol
_atom_site_label
_atom_site_fract_x
_atom_site_fract_y
_atom_site_fract_z
Si Si1 0.329263 0.105282 0.274291
Si Si2 0.057595 0.690983 0.129406
Si Si3 0.012424 0.406848 0.413675
Si Si4 0.250432 0.346490 0.485455
Si Si5 0.065073 0.025512 0.643004
Si Si6 0.856937 0.245118 0.085770
O O1 0.380578 0.159324 0.291270
O O2 0.286571 0.106564 0.417721
O O3 0.372310 0.050110 0.229854
O O4 0.278816 0.122189 0.150678
O O5 0.000000 0.695248 0.250000
O O6 0.035051 0.646295 0.007626
O O7 0.086326 0.745194 0.037617
O O8 0.066585 0.459132 0.404262
O O9 0.000000 0.390055 0.250000
O O10 0.950636 0.436242 0.502041
O O11 0.196200 0.297454 0.440771
O O12 0.312637 0.312622 0.562266
O O13 0.000000 0.030959 0.750000
O O14 0.881789 0.250000 0.250000
#
# Coordination Sequence:
#
# PCOD9506387 Si02
#       6
#    16  16  16  16  16  16
#     4  11  20  40  67  92 130 166 232 276 326 418
#     4  11  22  41  68  96 131 176 223 291 355 413
#     4  10  20  36  65 103 129 168 220 267 357 419
#     4  10  22  37  66  95 122 180 229 268 325 403
#     4  10  19  38  67 101 130 171 217 277 349 415
#     4  10  21  41  66  94 129 174 233 274 327 412
#
# _framework density 22.433219999999999
#
# number of rings (size 3 to 8) (size 9 to 14) (size 15 to 20)
#    0.000    1.667    5.000    0.000    0.000    1.333 
#    0.000    2.500    0.000    8.000    0.000    0.000 
#    0.000    0.000    0.000    0.000    0.000    0.000 
#
# Total GULP energy -268341.745209 kJ/mol
# GULP energy per Si atom -5590.453025 kJ/mol
# Density = 2.238216 g / cm^3
# Si number density = 22.433220 Si / 1000 Ang^3
#
#
#
# Elastic Constant Matrix: (Units=GPa)
#
#
# Indices 1 2 3 4 5 6 
#
# 1 85.0581 25.2207 69.4525 0.0000 0.0000 0.0000
# 2 25.2207 70.7144 35.9571 0.0000 0.0000 0.0000
# 3 69.4525 35.9571 170.5054 0.0000 0.0000 0.0000
# 4 0.0000 0.0000 0.0000 32.9532 0.0000 0.0000
# 5 0.0000 0.0000 0.0000 0.0000 46.5846 0.0000
# 6 0.0000 0.0000 0.0000 0.0000 0.0000 17.1334
#
#
#
# Elastic Compliance Matrix: (Units=1/GPa)
#
#
# Indices 1 2 3 4 5 6 
#
# 1 0.018183 -0.003046 -0.006764 0.000000 0.000000 0.000000
# 2 -0.003046 0.016350 -0.002207 0.000000 0.000000 0.000000
# 3 -0.006764 -0.002207 0.009086 0.000000 0.000000 0.000000
# 4 0.000000 0.000000 0.000000 0.030346 0.000000 0.000000
# 5 0.000000 0.000000 0.000000 0.000000 0.021466 0.000000
# 6 0.000000 0.000000 0.000000 0.000000 0.000000 0.058366
#
#
# Mechanical properties :
#
#
# Convention : Reuss Voigt Hill
#
# Bulk Modulus (GPa) = 51.06143 65.28208 58.17175
# Shear Modulus (GPa) = 27.12095 32.37740 29.74917
#
# Velocity S-wave (km/s) = 3.48079 3.80317 3.64555
# Velocity P-wave (km/s) = 6.24223 6.96055 6.61116
#
# Compressibility (1/GPa) = 0.01958425
#
# Stress axis : x y z
#
# Youngs Moduli (GPa) = 54.99670 61.16190 110.06257
#
# Poissons Ratio (x) = 0.18627 0.74449
# Poissons Ratio (y) = 0.16749 0.24296
# Poissons Ratio (z) = 0.37201 0.13501
#
# Static dielectric constant tensor:
#      x y z
#    x 1.871620 0.000000 0.000000 
#    y 0.000000 1.840700 0.000000 
#    z 0.000000 0.000000 1.818010 
# 
# From -- ./inp_files/7293.got.cif
#   From: 2010.05.17/outbox.cif.g08.bks.cpg/sg68_4_cif.got.tgz:7293.got - 2010.06.03 18:57:09.
