data_PCOD9506693
_publ_section_title
;
Structure prediction by ZEFSAII (Michael W. Deem and Ramdas Pophale) SiO2 
 PCOD9506693
Probable space group: C C C A
;
_chemical_formula_sum "Si O2"
_cell_formula_units_Z 60
_cell_length_a 7.480676
_cell_length_b 11.338022
_cell_length_c 29.667995
_cell_angle_alpha 90.000000
_cell_angle_beta 90.000000
_cell_angle_gamma 90.000000
_cell_volume 2516.322713
_symmetry_space_group_name_H-M "C C C A"
_symmetry_group_IT_number 68
_space_group.IT_coordinate_system_code '2'
_symmetry_cell_setting 'orthorhombic'
loop_
_space_group_symop_operation_xyz
x,y,z
-x,1/2-y,z
x,1/2-y,1/2-z
-x,y,1/2-z
-x,-y,-z
x,1/2+y,-z
-x,1/2+y,1/2+z
x,-y,1/2+z
1/2+x,1/2+y,z
1/2-x,-y,z
1/2+x,-y,1/2-z
1/2-x,1/2+y,1/2-z
1/2-x,1/2-y,-z
1/2+x,y,-z
1/2-x,y,1/2+z
1/2+x,1/2-y,1/2+z
loop_
_atom_site_type_symbol
_atom_site_label
_atom_site_fract_x
_atom_site_fract_y
_atom_site_fract_z
Si Si1 0.000000 0.750000 0.024941
Si Si2 0.772298 0.632924 0.684293
Si Si3 0.341072 0.375124 0.554428
Si Si4 0.643929 0.621716 0.345959
Si Si5 0.000000 0.250000 0.750000
O O1 0.821830 0.780582 0.052071
O O2 0.961773 0.646648 0.988919
O O3 0.750000 0.500000 0.665069
O O4 0.745549 0.756686 0.657350
O O5 0.634837 0.660138 0.724268
O O6 0.986762 0.628867 0.690532
O O7 0.250000 0.500000 0.550963
O O8 0.434371 0.375464 0.603127
O O9 0.750000 0.500000 0.340781
#
# Coordination Sequence:
#
# PCOD9506693 Si02
#       5
#     8  16  16  16   4
#     4  10  20  35  58  90 126 164 210 262 318 377
#     4  11  25  45  69  96 129 167 215 268 328 397
#     4  10  21  38  60  89 125 166 211 262 319 378
#     4  10  23  43  66  96 132 172 220 271 324 392
#     4  12  28  44  68 102 132 170 212 272 340 398
#
# _framework density 23.844317
#
# number of rings (size 3 to 8) (size 9 to 14) (size 15 to 20)
#    0.000    1.600    0.000    4.000    0.000   12.800 
#    0.000    6.667    0.000    0.000    0.000    0.000 
#    0.000    0.000    0.000    0.000    0.000    0.000 
#
# Total GULP energy -167039.110686 kJ/mol
# GULP energy per Si atom -5567.970356 kJ/mol
# Density = 2.379005 g / cm^3
# Si number density = 23.844317 Si / 1000 Ang^3
#
#
#
# Elastic Constant Matrix: (Units=GPa)
#
#
# Indices 1 2 3 4 5 6 
#
# 1 109.5083 26.7806 53.8973 0.0000 0.0000 0.0000
# 2 26.7806 206.2685 26.5618 0.0000 0.0000 0.0000
# 3 53.8973 26.5618 85.2568 0.0000 0.0000 0.0000
# 4 0.0000 0.0000 0.0000 -20.7654 0.0000 0.0000
# 5 0.0000 0.0000 0.0000 0.0000 8.7308 0.0000
# 6 0.0000 0.0000 0.0000 0.0000 0.0000 50.4809
#
#
#
# Elastic Compliance Matrix: (Units=1/GPa)
#
#
# Indices 1 2 3 4 5 6 
#
# 1 0.013345 -0.000673 -0.008227 0.000000 0.000000 0.000000
# 2 -0.000673 0.005085 -0.001158 0.000000 0.000000 0.000000
# 3 -0.008227 -0.001158 0.017291 0.000000 0.000000 0.000000
# 4 0.000000 0.000000 0.000000 -0.048157 0.000000 0.000000
# 5 0.000000 0.000000 0.000000 0.000000 0.114537 0.000000
# 6 0.000000 0.000000 0.000000 0.000000 0.000000 0.019809
#
#
# Mechanical properties :
#
#
# Convention : Reuss Voigt Hill
#
# Bulk Modulus (GPa) = 64.08704 68.39034 66.23869
# Shear Modulus (GPa) = 33.96072 27.27553 30.61813
#
# Velocity S-wave (km/s) = 3.77804 3.38583 3.58730
# Velocity P-wave (km/s) = 6.77990 6.63547 6.70807
#
# Compressibility (1/GPa) = 0.01560378
#
# Stress axis : x y z
#
# Youngs Moduli (GPa) = 74.93186 196.67042 57.83340
#
# Poissons Ratio (x) = 0.13242 0.47579
# Poissons Ratio (y) = 0.05045 0.06700
# Poissons Ratio (z) = 0.61646 0.22784
#
# Static dielectric constant tensor:
#      x y z
#    x 1.992090 0.000000 0.000000 
#    y 0.000000 1.992620 0.000000 
#    z 0.000000 0.000000 1.929650 
# 
# From -- ./inp_files/48766.got.cif
#   From: 2010.05.17/outbox.cif.g08.bks.cpg/sg68_25_cif.got.tgz:48766.got - 2010.06.03 18:57:09.
