data_PCOD9506183
_publ_section_title
;
Structure prediction by ZEFSAII (Michael W. Deem and Ramdas Pophale) SiO2 
 PCOD9506183
Probable space group: C C C A
;
_chemical_formula_sum "Si O2"
_cell_formula_units_Z 120
_cell_length_a 22.272490
_cell_length_b 19.379216
_cell_length_c 14.915837
_cell_angle_alpha 90.000000
_cell_angle_beta 90.000000
_cell_angle_gamma 90.000000
_cell_volume 6438.024199
_symmetry_space_group_name_H-M "C C C A"
_symmetry_group_IT_number 68
_space_group.IT_coordinate_system_code '2'
_symmetry_cell_setting 'orthorhombic'
loop_
_space_group_symop_operation_xyz
x,y,z
-x,1/2-y,z
x,1/2-y,1/2-z
-x,y,1/2-z
-x,-y,-z
x,1/2+y,-z
-x,1/2+y,1/2+z
x,-y,1/2+z
1/2+x,1/2+y,z
1/2-x,-y,z
1/2+x,-y,1/2-z
1/2-x,1/2+y,1/2-z
1/2-x,1/2-y,-z
1/2+x,y,-z
1/2-x,y,1/2+z
1/2+x,1/2-y,1/2+z
loop_
_atom_site_type_symbol
_atom_site_label
_atom_site_fract_x
_atom_site_fract_y
_atom_site_fract_z
Si Si1 0.025096 0.823411 0.022794
Si Si2 0.028721 0.939794 0.347973
Si Si3 0.654038 0.606936 0.776111
Si Si4 0.344198 0.339377 0.418625
Si Si5 0.750000 0.000000 0.698924
Si Si6 0.330630 0.390354 0.596824
Si Si7 0.031539 0.900259 0.846967
Si Si8 0.739490 0.222768 0.150625
O O1 0.096291 0.811986 0.032926
O O2 0.000000 0.750000 0.049523
O O3 0.001509 0.885288 0.085496
O O4 0.008551 0.847125 0.922143
O O5 0.099044 0.923717 0.332076
O O6 0.000000 0.931466 0.250000
O O7 0.019611 0.019811 0.374386
O O8 0.635809 0.638855 0.680855
O O9 0.703107 0.548887 0.750835
O O10 0.687288 0.665875 0.833479
O O11 0.329784 0.399991 0.489057
O O12 0.289957 0.285467 0.404709
O O13 0.790245 0.948964 0.640482
O O14 0.395821 0.392389 0.644549
O O15 0.296659 0.317373 0.612113
O O16 0.000000 0.889825 0.750000
O O17 0.754818 0.250000 0.250000
#
# Coordination Sequence:
#
# PCOD9506183 Si02
#       8
#    16  16  16  16   8  16  16  16
#     4  11  23  38  59  91 120 157 196 248 303 366
#     4  11  20  37  63  89 120 156 194 248 306 362
#     4  10  19  35  58  83 116 150 187 239 293 352
#     4  10  20  36  56  87 116 147 194 239 295 355
#     4  10  20  36  56  82 110 150 192 234 288 342
#     4  10  20  37  60  81 116 153 193 242 288 347
#     4  10  23  42  61  85 118 163 206 247 295 355
#     4   9  19  35  57  83 117 155 191 238 295 355
#
# _framework density 18.639258999999999
#
# number of rings (size 3 to 8) (size 9 to 14) (size 15 to 20)
#    0.000    1.867    2.667    1.600    0.000    1.067 
#    4.800    0.000   11.733    0.000    0.000    0.000 
#    0.000    0.000    0.000    0.000    0.000    0.000 
#
# Total GULP energy -334179.385414 kJ/mol
# GULP energy per Si atom -5569.656424 kJ/mol
# Density = 1.859684 g / cm^3
# Si number density = 18.639259 Si / 1000 Ang^3
#
#
#
# Elastic Constant Matrix: (Units=GPa)
#
#
# Indices 1 2 3 4 5 6 
#
# 1 63.1542 8.0401 16.6383 0.0000 0.0000 0.0000
# 2 8.0401 49.0359 13.1341 0.0000 0.0000 0.0000
# 3 16.6383 13.1341 63.3386 0.0000 0.0000 0.0000
# 4 0.0000 0.0000 0.0000 0.1574 0.0000 0.0000
# 5 0.0000 0.0000 0.0000 0.0000 18.3246 0.0000
# 6 0.0000 0.0000 0.0000 0.0000 0.0000 22.4219
#
#
#
# Elastic Compliance Matrix: (Units=1/GPa)
#
#
# Indices 1 2 3 4 5 6 
#
# 1 0.017144 -0.001699 -0.004151 0.000000 0.000000 0.000000
# 2 -0.001699 0.021761 -0.004066 0.000000 0.000000 0.000000
# 3 -0.004151 -0.004066 0.017722 0.000000 0.000000 0.000000
# 4 0.000000 0.000000 0.000000 6.354955 0.000000 0.000000
# 5 0.000000 0.000000 0.000000 0.000000 0.054572 0.000000
# 6 0.000000 0.000000 0.000000 0.000000 0.000000 0.044599
#
#
# Mechanical properties :
#
#
# Convention : Reuss Voigt Hill
#
# Bulk Modulus (GPa) = 27.17833 27.90597 27.54215
# Shear Modulus (GPa) = 0.76419 17.36184 9.06302
#
# Velocity S-wave (km/s) = 0.64100 3.05530 2.20746
# Velocity P-wave (km/s) = 3.89368 5.23933 4.61581
#
# Compressibility (1/GPa) = 0.03679403
#
# Stress axis : x y z
#
# Youngs Moduli (GPa) = 58.32855 45.95400 56.42769
#
# Poissons Ratio (x) = 0.07808 0.23425
# Poissons Ratio (y) = 0.09911 0.22944
# Poissons Ratio (z) = 0.24214 0.18685
#
# Static dielectric constant tensor:
#      x y z
#    x 1.679280 0.000000 0.000000 
#    y 0.000000 1.661860 0.000000 
#    z 0.000000 0.000000 1.643080 
# 
# From -- ./inp_files/24816.got.cif
#   From: 2010.05.17/outbox.cif.g08.bks.cpg/sg68_13_cif.got.tgz:24816.got - 2010.06.03 18:57:09.
