data_PCOD9506425
_publ_section_title
;
Structure prediction by ZEFSAII (Michael W. Deem and Ramdas Pophale) SiO2 
 PCOD9506425
Probable space group: C C C A
;
_chemical_formula_sum "Si O2"
_cell_formula_units_Z 56
_cell_length_a 5.543682
_cell_length_b 18.103230
_cell_length_c 26.900360
_cell_angle_alpha 90.000000
_cell_angle_beta 90.000000
_cell_angle_gamma 90.000000
_cell_volume 2699.681132
_symmetry_space_group_name_H-M "C C C A"
_symmetry_group_IT_number 68
_space_group.IT_coordinate_system_code '2'
_symmetry_cell_setting 'orthorhombic'
loop_
_space_group_symop_operation_xyz
x,y,z
-x,1/2-y,z
x,1/2-y,1/2-z
-x,y,1/2-z
-x,-y,-z
x,1/2+y,-z
-x,1/2+y,1/2+z
x,-y,1/2+z
1/2+x,1/2+y,z
1/2-x,-y,z
1/2+x,-y,1/2-z
1/2-x,1/2+y,1/2-z
1/2-x,1/2-y,-z
1/2+x,y,-z
1/2-x,y,1/2+z
1/2+x,1/2-y,1/2+z
loop_
_atom_site_type_symbol
_atom_site_label
_atom_site_fract_x
_atom_site_fract_y
_atom_site_fract_z
Si Si1 0.500000 0.750000 0.154122
Si Si2 0.750000 0.000000 0.532520
Si Si3 0.098757 0.165505 0.697507
Si Si4 0.500000 0.250000 0.029490
Si Si5 0.651024 0.635914 0.898532
O O1 0.623768 0.686967 0.188747
O O2 0.663985 0.800279 0.118542
O O3 0.740612 0.069773 0.569942
O O4 0.500000 0.000000 0.500000
O O5 0.000000 0.250000 0.692903
O O6 0.000000 0.137714 0.750000
O O7 0.995438 0.118249 0.651847
O O8 0.522586 0.322023 0.063686
O O9 0.750000 0.250000 0.000000
#
# Coordination Sequence:
#
# PCOD9506425 Si02
#       5
#     8   8  16   8  16
#     4  10  19  39  71  98 140 169 228 281 335 404
#     4  12  30  48  68  96 138 186 228 280 350 406
#     4   9  19  35  64 102 132 168 218 275 348 396
#     4  12  23  36  62  94 125 165 226 277 328 386
#     4  11  23  41  65  98 131 177 224 285 336 406
#
# _framework density 20.743190999999999
#
# number of rings (size 3 to 8) (size 9 to 14) (size 15 to 20)
#    0.000    1.429    4.286    2.571    4.000    9.143 
#    0.000    0.000    6.286    0.000    0.000    0.000 
#    0.000    0.000    0.000    0.000    0.000    0.000 
#
# Total GULP energy -155932.486233 kJ/mol
# GULP energy per Si atom -5569.017365 kJ/mol
# Density = 2.069598 g / cm^3
# Si number density = 20.743191 Si / 1000 Ang^3
#
#
#
# Elastic Constant Matrix: (Units=GPa)
#
#
# Indices 1 2 3 4 5 6 
#
# 1 112.4104 24.4490 81.8755 0.0000 0.0000 0.0000
# 2 24.4490 65.6398 55.2029 0.0000 0.0000 0.0000
# 3 81.8755 55.2029 195.3039 0.0000 0.0000 0.0000
# 4 0.0000 0.0000 0.0000 10.3622 0.0000 0.0000
# 5 0.0000 0.0000 0.0000 0.0000 13.8116 0.0000
# 6 0.0000 0.0000 0.0000 0.0000 0.0000 19.8537
#
#
#
# Elastic Compliance Matrix: (Units=1/GPa)
#
#
# Indices 1 2 3 4 5 6 
#
# 1 0.012812 -0.000335 -0.005276 0.000000 0.000000 0.000000
# 2 -0.000335 0.019994 -0.005511 0.000000 0.000000 0.000000
# 3 -0.005276 -0.005511 0.008890 0.000000 0.000000 0.000000
# 4 0.000000 0.000000 0.000000 0.096504 0.000000 0.000000
# 5 0.000000 0.000000 0.000000 0.000000 0.072403 0.000000
# 6 0.000000 0.000000 0.000000 0.000000 0.000000 0.050369
#
#
# Mechanical properties :
#
#
# Convention : Reuss Voigt Hill
#
# Bulk Modulus (GPa) = 51.40943 77.37876 64.39409
# Shear Modulus (GPa) = 17.25926 22.92729 20.09327
#
# Velocity S-wave (km/s) = 2.88765 3.32820 3.11572
# Velocity P-wave (km/s) = 5.99630 7.22173 6.63736
#
# Compressibility (1/GPa) = 0.01945168
#
# Stress axis : x y z
#
# Youngs Moduli (GPa) = 78.05232 50.01478 112.48665
#
# Poissons Ratio (x) = 0.01673 0.59353
# Poissons Ratio (y) = 0.02612 0.61992
# Poissons Ratio (z) = 0.41184 0.27564
#
# Static dielectric constant tensor:
#      x y z
#    x 2.012700 0.000000 0.000000 
#    y 0.000000 1.755970 0.000000 
#    z 0.000000 0.000000 1.799130 
# 
# From -- ./inp_files/48022.got.cif
#   From: 2010.05.17/outbox.cif.g08.bks.cpg/sg68_25_cif.got.tgz:48022.got - 2010.06.03 18:57:09.
