data_PCOD9506996
_publ_section_title
;
Structure prediction by ZEFSAII (Michael W. Deem and Ramdas Pophale) SiO2 
 PCOD9506996
Probable space group: C C C A
;
_chemical_formula_sum "Si O2"
_cell_formula_units_Z 88
_cell_length_a 21.435081
_cell_length_b 17.366377
_cell_length_c 12.699625
_cell_angle_alpha 90.000000
_cell_angle_beta 90.000000
_cell_angle_gamma 90.000000
_cell_volume 4727.431567
_symmetry_space_group_name_H-M "C C C A"
_symmetry_group_IT_number 68
_space_group.IT_coordinate_system_code '2'
_symmetry_cell_setting 'orthorhombic'
loop_
_space_group_symop_operation_xyz
x,y,z
-x,1/2-y,z
x,1/2-y,1/2-z
-x,y,1/2-z
-x,-y,-z
x,1/2+y,-z
-x,1/2+y,1/2+z
x,-y,1/2+z
1/2+x,1/2+y,z
1/2-x,-y,z
1/2+x,-y,1/2-z
1/2-x,1/2+y,1/2-z
1/2-x,1/2-y,-z
1/2+x,y,-z
1/2-x,y,1/2+z
1/2+x,1/2-y,1/2+z
loop_
_atom_site_type_symbol
_atom_site_label
_atom_site_fract_x
_atom_site_fract_y
_atom_site_fract_z
Si Si1 0.250000 0.500000 0.013500
Si Si2 0.150362 0.599925 0.639484
Si Si3 0.346992 0.914894 0.112675
Si Si4 0.939936 0.952477 0.466424
Si Si5 0.324707 0.749241 0.476798
Si Si6 0.564029 0.710995 0.633371
O O1 0.280550 0.439002 0.935141
O O2 0.200856 0.457037 0.087295
O O3 0.148435 0.587859 0.762693
O O4 0.087765 0.583361 0.573972
O O5 0.168165 0.686862 0.612970
O O6 0.392642 0.982708 0.075579
O O7 0.354089 0.830706 0.063232
O O8 0.946265 0.881486 0.383308
O O9 0.000000 0.000000 0.500000
O O10 0.250000 0.750000 0.500000
O O11 0.370552 0.772894 0.573317
O O12 0.500000 0.750000 0.588503
O O13 0.569365 0.750000 0.750000
#
# Coordination Sequence:
#
# PCOD9506996 Si02
#       6
#     8  16  16  16  16  16
#     4  10  20  38  54  86 120 154 200 258 302 378
#     4  10  22  38  58  88 119 160 208 254 319 390
#     4  11  22  37  62  85 122 163 205 257 321 382
#     4  10  23  42  63  92 128 164 214 273 328 389
#     4  11  22  41  60  90 129 169 214 267 327 393
#     4  10  23  42  66  95 128 171 223 269 330 405
#
# _framework density 18.614758999999999
#
# number of rings (size 3 to 8) (size 9 to 14) (size 15 to 20)
#    0.000    1.636    1.818    2.182    0.000    8.000 
#    0.000    0.000    0.000    3.273    0.000    0.000 
#    0.000    0.000    0.000    0.000    0.000    0.000 
#
# Total GULP energy -245065.370240 kJ/mol
# GULP energy per Si atom -5569.667505 kJ/mol
# Density = 1.857239 g / cm^3
# Si number density = 18.614759 Si / 1000 Ang^3
#
#
#
# Elastic Constant Matrix: (Units=GPa)
#
#
# Indices 1 2 3 4 5 6 
#
# 1 89.1374 26.9437 26.3797 0.0000 0.0000 0.0000
# 2 26.9437 141.4000 41.8301 0.0000 0.0000 0.0000
# 3 26.3797 41.8301 106.8001 0.0000 0.0000 0.0000
# 4 0.0000 0.0000 0.0000 58.8629 0.0000 0.0000
# 5 0.0000 0.0000 0.0000 0.0000 -17.2018 0.0000
# 6 0.0000 0.0000 0.0000 0.0000 0.0000 29.7057
#
#
#
# Elastic Compliance Matrix: (Units=1/GPa)
#
#
# Indices 1 2 3 4 5 6 
#
# 1 0.012436 -0.001652 -0.002424 0.000000 0.000000 0.000000
# 2 -0.001652 0.008219 -0.002811 0.000000 0.000000 0.000000
# 3 -0.002424 -0.002811 0.011063 0.000000 0.000000 0.000000
# 4 0.000000 0.000000 0.000000 0.016989 0.000000 0.000000
# 5 0.000000 0.000000 0.000000 0.000000 -0.058134 0.000000
# 6 0.000000 0.000000 0.000000 0.000000 0.000000 0.033664
#
#
# Mechanical properties :
#
#
# Convention : Reuss Voigt Hill
#
# Bulk Modulus (GPa) = 55.73528 58.62714 57.18121
# Shear Modulus (GPa) = 113.65813 30.41896 72.03854
#
# Velocity S-wave (km/s) = 7.82244 4.04682 6.22766
# Velocity P-wave (km/s) = 10.56380 7.30747 9.08276
#
# Compressibility (1/GPa) = 0.01794196
#
# Stress axis : x y z
#
# Youngs Moduli (GPa) = 80.41434 121.67665 90.39130
#
# Poissons Ratio (x) = 0.20106 0.21915
# Poissons Ratio (y) = 0.13288 0.25407
# Poissons Ratio (z) = 0.19496 0.34201
#
# Static dielectric constant tensor:
#      x y z
#    x 1.655510 0.000000 0.000000 
#    y 0.000000 1.602210 0.000000 
#    z 0.000000 0.000000 1.612400 
# 
# From -- ./inp_files/14467.got.cif
#   From: 2010.05.17/outbox.cif.g08.bks.cpg/sg68_8_cif.got.tgz:14467.got - 2010.06.03 18:57:09.
