data_PCOD9506311
_publ_section_title
;
Structure prediction by ZEFSAII (Michael W. Deem and Ramdas Pophale) SiO2 
 PCOD9506311
Probable space group: C C C A
;
_chemical_formula_sum "Si O2"
_cell_formula_units_Z 104
_cell_length_a 18.091321
_cell_length_b 21.135420
_cell_length_c 13.428776
_cell_angle_alpha 90.000000
_cell_angle_beta 90.000000
_cell_angle_gamma 90.000000
_cell_volume 5134.729759
_symmetry_space_group_name_H-M "C C C A"
_symmetry_group_IT_number 68
_space_group.IT_coordinate_system_code '2'
_symmetry_cell_setting 'orthorhombic'
loop_
_space_group_symop_operation_xyz
x,y,z
-x,1/2-y,z
x,1/2-y,1/2-z
-x,y,1/2-z
-x,-y,-z
x,1/2+y,-z
-x,1/2+y,1/2+z
x,-y,1/2+z
1/2+x,1/2+y,z
1/2-x,-y,z
1/2+x,-y,1/2-z
1/2-x,1/2+y,1/2-z
1/2-x,1/2-y,-z
1/2+x,y,-z
1/2-x,y,1/2+z
1/2+x,1/2-y,1/2+z
loop_
_atom_site_type_symbol
_atom_site_label
_atom_site_fract_x
_atom_site_fract_y
_atom_site_fract_z
Si Si1 0.308965 0.547971 0.494539
Si Si2 0.000000 0.750000 0.391472
Si Si3 0.629714 0.669048 0.787493
Si Si4 0.401081 0.524966 0.666274
Si Si5 0.106608 0.647072 0.444056
Si Si6 0.564492 0.004743 0.388962
Si Si7 0.746120 0.181197 0.552227
O O1 0.250000 0.500000 0.445140
O O2 0.328581 0.515266 0.600853
O O3 0.389770 0.547263 0.446881
O O4 0.282880 0.619752 0.499338
O O5 0.065497 0.785003 0.329828
O O6 0.037578 0.693887 0.452753
O O7 0.598260 0.600679 0.819217
O O8 0.638882 0.665276 0.667365
O O9 0.707059 0.683232 0.844509
O O10 0.476546 0.500909 0.616217
O O11 0.403761 0.499689 0.777361
O O12 0.085716 0.573804 0.432352
O O13 0.160867 0.661180 0.535983
O O14 0.750000 0.250000 0.500000
#
# Coordination Sequence:
#
# PCOD9506311 Si02
#       7
#    16   8  16  16  16  16  16
#     4  11  22  37  54  83 113 147 188 228 274 342
#     4  12  19  30  58  88 111 136 183 238 288 334
#     4  10  20  33  55  85 111 141 183 232 284 337
#     4   9  20  35  56  81 110 140 185 233 281 329
#     4  11  20  34  56  84 112 141 182 234 284 334
#     4  10  19  37  57  79 108 147 183 232 284 329
#     4  11  23  37  53  82 117 149 183 223 285 342
#
# _framework density 20.25423
#
# number of rings (size 3 to 8) (size 9 to 14) (size 15 to 20)
#    0.000    1.538    4.615    1.846    0.000    0.615 
#    2.769    0.000    0.000    0.000    0.000    1.077 
#    0.000    0.308    0.000    0.000    0.000    0.000 
#
# Total GULP energy -289553.006690 kJ/mol
# GULP energy per Si atom -5568.327052 kJ/mol
# Density = 2.020813 g / cm^3
# Si number density = 20.254230 Si / 1000 Ang^3
#
#
#
# Elastic Constant Matrix: (Units=GPa)
#
#
# Indices 1 2 3 4 5 6 
#
# 1 91.5987 15.8607 34.2411 0.0000 0.0000 0.0000
# 2 15.8607 54.7704 15.3543 0.0000 0.0000 0.0000
# 3 34.2411 15.3543 42.8699 0.0000 0.0000 0.0000
# 4 0.0000 0.0000 0.0000 16.4785 0.0000 0.0000
# 5 0.0000 0.0000 0.0000 0.0000 27.1278 0.0000
# 6 0.0000 0.0000 0.0000 0.0000 0.0000 36.4495
#
#
#
# Elastic Compliance Matrix: (Units=1/GPa)
#
#
# Indices 1 2 3 4 5 6 
#
# 1 0.015628 -0.001141 -0.012074 0.000000 0.000000 0.000000
# 2 -0.001141 0.020379 -0.006388 0.000000 0.000000 0.000000
# 3 -0.012074 -0.006388 0.035258 0.000000 0.000000 0.000000
# 4 0.000000 0.000000 0.000000 0.060685 0.000000 0.000000
# 5 0.000000 0.000000 0.000000 0.000000 0.036863 0.000000
# 6 0.000000 0.000000 0.000000 0.000000 0.000000 0.027435
#
#
# Mechanical properties :
#
#
# Convention : Reuss Voigt Hill
#
# Bulk Modulus (GPa) = 31.19140 35.57235 33.38187
# Shear Modulus (GPa) = 20.31367 24.26338 22.28852
#
# Velocity S-wave (km/s) = 3.17035 3.46488 3.32088
# Velocity P-wave (km/s) = 5.36981 5.79726 5.58763
#
# Compressibility (1/GPa) = 0.03206012
#
# Stress axis : x y z
#
# Youngs Moduli (GPa) = 63.98698 49.06980 28.36244
#
# Poissons Ratio (x) = 0.05598 0.34245
# Poissons Ratio (y) = 0.07300 0.18117
# Poissons Ratio (z) = 0.77257 0.31344
#
# Static dielectric constant tensor:
#      x y z
#    x 1.794130 0.000000 0.000000 
#    y 0.000000 1.725830 0.000000 
#    z 0.000000 0.000000 1.838790 
# 
# From -- ./inp_files/23812.got.cif
#   From: 2010.05.17/outbox.cif.g08.bks.cpg/sg68_12_cif.got.tgz:23812.got - 2010.06.03 18:57:09.
