data_PCOD9506675
_publ_section_title
;
Structure prediction by ZEFSAII (Michael W. Deem and Ramdas Pophale) SiO2 
 PCOD9506675
Probable space group: C C C A
;
_chemical_formula_sum "Si O2"
_cell_formula_units_Z 88
_cell_length_a 5.223744
_cell_length_b 21.167047
_cell_length_c 30.311475
_cell_angle_alpha 90.000000
_cell_angle_beta 90.000000
_cell_angle_gamma 90.000000
_cell_volume 3351.577218
_symmetry_space_group_name_H-M "C C C A"
_symmetry_group_IT_number 68
_space_group.IT_coordinate_system_code '2'
_symmetry_cell_setting 'orthorhombic'
loop_
_space_group_symop_operation_xyz
x,y,z
-x,1/2-y,z
x,1/2-y,1/2-z
-x,y,1/2-z
-x,-y,-z
x,1/2+y,-z
-x,1/2+y,1/2+z
x,-y,1/2+z
1/2+x,1/2+y,z
1/2-x,-y,z
1/2+x,-y,1/2-z
1/2-x,1/2+y,1/2-z
1/2-x,1/2-y,-z
1/2+x,y,-z
1/2-x,y,1/2+z
1/2+x,1/2-y,1/2+z
loop_
_atom_site_type_symbol
_atom_site_label
_atom_site_fract_x
_atom_site_fract_y
_atom_site_fract_z
Si Si1 0.500000 0.397192 0.750000
Si Si2 0.139845 0.312167 0.689250
Si Si3 0.954531 0.052847 0.581086
Si Si4 0.260982 0.576393 0.834889
Si Si5 0.262187 0.357633 0.970091
Si Si6 0.584711 0.159091 0.607144
O O1 0.311648 0.349396 0.724325
O O2 0.362425 0.439312 0.787508
O O3 0.295082 0.296794 0.644326
O O4 0.000000 0.250000 0.704578
O O5 0.926181 0.362124 0.676068
O O6 0.809181 0.120804 0.582371
O O7 0.052483 0.039008 0.631297
O O8 0.196563 0.071648 0.549822
O O9 0.750000 0.000000 0.566812
O O10 0.032776 0.601975 0.864382
O O11 0.359911 0.320342 0.926184
O O12 0.509546 0.345989 0.001084
#
# Coordination Sequence:
#
# PCOD9506675 Si02
#       6
#     8  16  16  16  16  16
#     4  10  20  35  56  90 124 160 204 264 338 393
#     4  10  21  37  61  94 125 163 206 263 328 400
#     4  10  21  38  59  90 124 168 218 265 329 393
#     4   9  20  35  57  87 118 166 204 262 327 389
#     4  11  21  37  61  92 131 171 215 272 332 385
#     4   9  20  39  57  89 125 168 209 259 326 389
#
# _framework density 26.256294
#
# number of rings (size 3 to 8) (size 9 to 14) (size 15 to 20)
#    0.000    2.182    1.818    0.545    0.000    8.727 
#    0.000    0.000    0.000    1.091  170.182    0.000 
#    0.000    0.000    0.000    0.000    0.000    0.000 
#
# Total GULP energy -245462.820014 kJ/mol
# GULP energy per Si atom -5578.700455 kJ/mol
# Density = 2.619653 g / cm^3
# Si number density = 26.256294 Si / 1000 Ang^3
#
#
#
# Elastic Constant Matrix: (Units=GPa)
#
#
# Indices 1 2 3 4 5 6 
#
# 1 143.1760 23.1459 51.7460 0.0000 0.0000 0.0000
# 2 23.1459 51.7932 -2.2514 0.0000 0.0000 0.0000
# 3 51.7460 -2.2514 139.2407 0.0000 0.0000 0.0000
# 4 0.0000 0.0000 0.0000 5.0379 0.0000 0.0000
# 5 0.0000 0.0000 0.0000 0.0000 60.1119 0.0000
# 6 0.0000 0.0000 0.0000 0.0000 0.0000 44.5611
#
#
#
# Elastic Compliance Matrix: (Units=1/GPa)
#
#
# Indices 1 2 3 4 5 6 
#
# 1 0.008863 -0.004107 -0.003360 0.000000 0.000000 0.000000
# 2 -0.004107 0.021224 0.001869 0.000000 0.000000 0.000000
# 3 -0.003360 0.001869 0.008461 0.000000 0.000000 0.000000
# 4 0.000000 0.000000 0.000000 0.198494 0.000000 0.000000
# 5 0.000000 0.000000 0.000000 0.000000 0.016636 0.000000
# 6 0.000000 0.000000 0.000000 0.000000 0.000000 0.022441
#
#
# Mechanical properties :
#
#
# Convention : Reuss Voigt Hill
#
# Bulk Modulus (GPa) = 36.55952 53.27679 44.91816
# Shear Modulus (GPa) = 16.86736 39.38014 28.12375
#
# Velocity S-wave (km/s) = 2.53733 3.87697 3.27635
# Velocity P-wave (km/s) = 4.74746 6.35424 5.60869
#
# Compressibility (1/GPa) = 0.02735265
#
# Stress axis : x y z
#
# Youngs Moduli (GPa) = 112.83277 47.11636 118.19324
#
# Poissons Ratio (x) = 0.19349 0.39713
# Poissons Ratio (y) = 0.46337 -0.22094
# Poissons Ratio (z) = 0.37912 -0.08808
#
# Static dielectric constant tensor:
#      x y z
#    x 2.634970 0.000000 0.000000 
#    y 0.000000 2.159770 0.000000 
#    z 0.000000 0.000000 1.828860 
# 
# From -- ./inp_files/53257.got.cif
#   From: 2010.05.17/outbox.cif.g08.bks.cpg/sg68_27_cif.got.tgz:53257.got - 2010.06.03 18:57:09.
