data_PCOD9506870
_publ_section_title
;
Structure prediction by ZEFSAII (Michael W. Deem and Ramdas Pophale) SiO2 
 PCOD9506870
Probable space group: C C C A
;
_chemical_formula_sum "Si O2"
_cell_formula_units_Z 64
_cell_length_a 13.367945
_cell_length_b 15.304373
_cell_length_c 11.686272
_cell_angle_alpha 90.000000
_cell_angle_beta 90.000000
_cell_angle_gamma 90.000000
_cell_volume 2390.871209
_symmetry_space_group_name_H-M "C C C A"
_symmetry_group_IT_number 68
_space_group.IT_coordinate_system_code '2'
_symmetry_cell_setting 'orthorhombic'
loop_
_space_group_symop_operation_xyz
x,y,z
-x,1/2-y,z
x,1/2-y,1/2-z
-x,y,1/2-z
-x,-y,-z
x,1/2+y,-z
-x,1/2+y,1/2+z
x,-y,1/2+z
1/2+x,1/2+y,z
1/2-x,-y,z
1/2+x,-y,1/2-z
1/2-x,1/2+y,1/2-z
1/2-x,1/2-y,-z
1/2+x,y,-z
1/2-x,y,1/2+z
1/2+x,1/2-y,1/2+z
loop_
_atom_site_type_symbol
_atom_site_label
_atom_site_fract_x
_atom_site_fract_y
_atom_site_fract_z
Si Si1 0.222039 0.344159 0.697286
Si Si2 0.538511 0.903457 0.568116
Si Si3 0.407561 0.154152 0.685044
Si Si4 0.837730 0.932117 0.498425
O O1 0.212013 0.250000 0.750000
O O2 0.111550 0.370678 0.665497
O O3 0.300288 0.388513 0.786374
O O4 0.286491 0.359958 0.579538
O O5 0.567907 0.851763 0.449195
O O6 0.419558 0.892308 0.587095
O O7 0.581586 0.002869 0.559113
O O8 0.403325 0.250000 0.750000
O O9 0.500000 0.109886 0.750000
O O10 0.750000 0.000000 0.471005
#
# Coordination Sequence:
#
# PCOD9506870 Si02
#       4
#    16  16  16  16
#     4  10  21  38  67 106 143 196 258 320 398 471
#     4  10  20  38  67 102 146 193 257 325 386 470
#     4  10  20  36  65 103 131 195 254 316 395 478
#     4   9  19  38  65  98 138 197 252 314 390 457
#
# _framework density 26.768484999999998
#
# number of rings (size 3 to 8) (size 9 to 14) (size 15 to 20)
#    0.000    2.250    2.500    0.000    0.000    4.000 
#    0.000   11.250    0.000    6.000    0.000    0.000 
#    0.000    0.000    0.000    0.000    0.000    0.000 
#
# Total GULP energy -178217.122959 kJ/mol
# GULP energy per Si atom -5569.285092 kJ/mol
# Density = 2.670756 g / cm^3
# Si number density = 26.768485 Si / 1000 Ang^3
#
#
#
# Elastic Constant Matrix: (Units=GPa)
#
#
# Indices 1 2 3 4 5 6 
#
# 1 242.8047 35.1675 69.3241 0.0000 0.0000 0.0000
# 2 35.1675 80.4724 58.9999 0.0000 0.0000 0.0000
# 3 69.3241 58.9999 170.3743 0.0000 0.0000 0.0000
# 4 0.0000 0.0000 0.0000 89.6934 0.0000 0.0000
# 5 0.0000 0.0000 0.0000 0.0000 568.2861 0.0000
# 6 0.0000 0.0000 0.0000 0.0000 0.0000 30.9247
#
#
#
# Elastic Compliance Matrix: (Units=1/GPa)
#
#
# Indices 1 2 3 4 5 6 
#
# 1 0.004705 -0.000875 -0.001612 0.000000 0.000000 0.000000
# 2 -0.000875 0.016818 -0.005468 0.000000 0.000000 0.000000
# 3 -0.001612 -0.005468 0.008419 0.000000 0.000000 0.000000
# 4 0.000000 0.000000 0.000000 0.011149 0.000000 0.000000
# 5 0.000000 0.000000 0.000000 0.000000 0.001760 0.000000
# 6 0.000000 0.000000 0.000000 0.000000 0.000000 0.032337
#
#
# Mechanical properties :
#
#
# Convention : Reuss Voigt Hill
#
# Bulk Modulus (GPa) = 71.25963 91.18161 81.22062
# Shear Modulus (GPa) = 52.20624 159.79151 105.99888
#
# Velocity S-wave (km/s) = 4.42100 7.73456 6.29955
# Velocity P-wave (km/s) = 7.26215 10.67247 9.12799
#
# Compressibility (1/GPa) = 0.01403319
#
# Stress axis : x y z
#
# Youngs Moduli (GPa) = 212.52254 59.46056 118.78203
#
# Poissons Ratio (x) = 0.05201 0.19144
# Poissons Ratio (y) = 0.18589 0.64951
# Poissons Ratio (z) = 0.34252 0.32513
#
# Static dielectric constant tensor:
#      x y z
#    x 2.794720 0.000000 0.000000 
#    y 0.000000 2.390480 0.000000 
#    z 0.000000 0.000000 2.166080 
# 
# From -- ./inp_files/21917.got.cif
#   From: 2010.05.17/outbox.cif.g08.bks.cpg/sg68_11_cif.got.tgz:21917.got - 2010.06.03 18:57:09.
