data_PCOD9506878
_publ_section_title
;
Structure prediction by ZEFSAII (Michael W. Deem and Ramdas Pophale) SiO2 
 PCOD9506878
Probable space group: C C C A
;
_chemical_formula_sum "Si O2"
_cell_formula_units_Z 52
_cell_length_a 7.740276
_cell_length_b 17.991820
_cell_length_c 15.424383
_cell_angle_alpha 90.000000
_cell_angle_beta 90.000000
_cell_angle_gamma 90.000000
_cell_volume 2148.025066
_symmetry_space_group_name_H-M "C C C A"
_symmetry_group_IT_number 68
_space_group.IT_coordinate_system_code '2'
_symmetry_cell_setting 'orthorhombic'
loop_
_space_group_symop_operation_xyz
x,y,z
-x,1/2-y,z
x,1/2-y,1/2-z
-x,y,1/2-z
-x,-y,-z
x,1/2+y,-z
-x,1/2+y,1/2+z
x,-y,1/2+z
1/2+x,1/2+y,z
1/2-x,-y,z
1/2+x,-y,1/2-z
1/2-x,1/2+y,1/2-z
1/2-x,1/2-y,-z
1/2+x,y,-z
1/2-x,y,1/2+z
1/2+x,1/2-y,1/2+z
loop_
_atom_site_type_symbol
_atom_site_label
_atom_site_fract_x
_atom_site_fract_y
_atom_site_fract_z
Si Si1 0.592549 0.828242 0.580966
Si Si2 0.452017 0.514390 0.899009
Si Si3 0.012714 0.143184 0.384298
Si Si4 0.000000 0.750000 0.750000
O O1 0.500000 0.750000 0.599000
O O2 0.507463 0.902243 0.623087
O O3 0.793157 0.826754 0.604872
O O4 0.577337 0.844661 0.477266
O O5 0.250000 0.500000 0.889007
O O6 0.535919 0.442155 0.855997
O O7 0.500000 0.500000 0.000000
O O8 0.910659 0.191463 0.314046
#
# Coordination Sequence:
#
# PCOD9506878 Si02
#       4
#    16  16  16   4
#     4  11  21  38  74  99 124 170 233 273 311 389
#     4  10  20  36  65  99 129 165 217 276 324 376
#     4  11  23  42  66  99 136 173 219 275 334 389
#     4  12  28  40  66  96 146 170 210 276 348 388
#
# _framework density 24.208283000000002
#
# number of rings (size 3 to 8) (size 9 to 14) (size 15 to 20)
#    0.000    1.231    1.538    9.231    4.308    0.000 
#    0.000    3.846    0.000    0.000    0.000    0.000 
#    0.000    0.000    0.000    0.000    0.000    0.000 
#
# Total GULP energy -145197.579025 kJ/mol
# GULP energy per Si atom -5584.522270 kJ/mol
# Density = 2.415318 g / cm^3
# Si number density = 24.208283 Si / 1000 Ang^3
#
#
#
# Elastic Constant Matrix: (Units=GPa)
#
#
# Indices 1 2 3 4 5 6 
#
# 1 84.1242 29.9046 26.0138 0.0000 0.0000 0.0000
# 2 29.9046 258.2289 51.1466 0.0000 0.0000 0.0000
# 3 26.0138 51.1466 42.0612 0.0000 0.0000 0.0000
# 4 0.0000 0.0000 0.0000 17.9864 0.0000 0.0000
# 5 0.0000 0.0000 0.0000 0.0000 0.3264 0.0000
# 6 0.0000 0.0000 0.0000 0.0000 0.0000 45.0064
#
#
#
# Elastic Compliance Matrix: (Units=1/GPa)
#
#
# Indices 1 2 3 4 5 6 
#
# 1 0.014702 0.000130 -0.009250 0.000000 0.000000 0.000000
# 2 0.000130 0.005102 -0.006285 0.000000 0.000000 0.000000
# 3 -0.009250 -0.006285 0.037138 0.000000 0.000000 0.000000
# 4 0.000000 0.000000 0.000000 0.055598 0.000000 0.000000
# 5 0.000000 0.000000 0.000000 0.000000 3.064079 0.000000
# 6 0.000000 0.000000 0.000000 0.000000 0.000000 0.022219
#
#
# Mechanical properties :
#
#
# Convention : Reuss Voigt Hill
#
# Bulk Modulus (GPa) = 38.26790 66.50490 52.38640
# Shear Modulus (GPa) = 1.54399 31.15379 16.34889
#
# Velocity S-wave (km/s) = 0.79949 3.59124 2.60156
# Velocity P-wave (km/s) = 4.08587 6.68787 5.54175
#
# Compressibility (1/GPa) = 0.02613156
#
# Stress axis : x y z
#
# Youngs Moduli (GPa) = 68.02011 195.99061 26.92667
#
# Poissons Ratio (x) = -0.02540 0.24908
# Poissons Ratio (y) = -0.00882 0.16922
# Poissons Ratio (z) = 0.62920 1.23171
#
# Static dielectric constant tensor:
#      x y z
#    x 1.912070 0.000000 0.000000 
#    y 0.000000 1.975540 0.000000 
#    z 0.000000 0.000000 2.005350 
# 
# From -- ./inp_files/27592.got.cif
#   From: 2010.05.17/outbox.cif.g08.bks.cpg/sg68_14_cif.got.tgz:27592.got - 2010.06.03 18:57:09.
