data_PCOD9506254
_publ_section_title
;
Structure prediction by ZEFSAII (Michael W. Deem and Ramdas Pophale) SiO2 
 PCOD9506254
Probable space group: C C C A
;
_chemical_formula_sum "Si O2"
_cell_formula_units_Z 72
_cell_length_a 5.129550
_cell_length_b 23.999184
_cell_length_c 29.631668
_cell_angle_alpha 90.000000
_cell_angle_beta 90.000000
_cell_angle_gamma 90.000000
_cell_volume 3647.806912
_symmetry_space_group_name_H-M "C C C A"
_symmetry_group_IT_number 68
_space_group.IT_coordinate_system_code '2'
_symmetry_cell_setting 'orthorhombic'
loop_
_space_group_symop_operation_xyz
x,y,z
-x,1/2-y,z
x,1/2-y,1/2-z
-x,y,1/2-z
-x,-y,-z
x,1/2+y,-z
-x,1/2+y,1/2+z
x,-y,1/2+z
1/2+x,1/2+y,z
1/2-x,-y,z
1/2+x,-y,1/2-z
1/2-x,1/2+y,1/2-z
1/2-x,1/2-y,-z
1/2+x,y,-z
1/2-x,y,1/2+z
1/2+x,1/2-y,1/2+z
loop_
_atom_site_type_symbol
_atom_site_label
_atom_site_fract_x
_atom_site_fract_y
_atom_site_fract_z
Si Si1 0.500000 0.250000 0.829610
Si Si2 0.500000 0.750000 0.606019
Si Si3 0.488766 0.127532 0.829714
Si Si4 0.717340 0.433325 0.476199
Si Si5 0.511007 0.628045 0.607089
Si Si6 0.500000 0.460636 0.750000
O O1 0.749772 0.251042 0.861865
O O2 0.513982 0.189240 0.807104
O O3 0.504695 0.689386 0.583340
O O4 0.207585 0.126057 0.853703
O O5 0.517764 0.079287 0.793402
O O6 0.710987 0.121198 0.868383
O O7 0.750000 0.500000 0.477869
O O8 0.510360 0.412784 0.514080
O O9 0.582618 0.416110 0.429669
O O10 0.750000 0.500000 0.753246
#
# Coordination Sequence:
#
# PCOD9506254 Si02
#       6
#     8   8  16  16  16   8
#     4   8  16  33  56  81 104 135 184 229 268 315
#     4   8  16  30  52  82 110 131 170 231 270 316
#     4  10  21  37  59  82 109 147 184 226 273 325
#     4  10  21  36  53  77 108 140 182 233 269 310
#     4  10  19  36  59  81 107 144 183 218 277 337
#     4  12  26  41  54  81 122 148 180 232 272 314
#
# _framework density 19.737888000000002
#
# number of rings (size 3 to 8) (size 9 to 14) (size 15 to 20)
#    0.000    2.222    0.000    2.667    0.000    3.111 
#    0.000    1.111    0.000    9.333    0.000    0.000 
#    0.000    0.000    0.000    0.000    0.000    0.000 
#
# Total GULP energy -200542.430754 kJ/mol
# GULP energy per Si atom -5570.623076 kJ/mol
# Density = 1.969296 g / cm^3
# Si number density = 19.737888 Si / 1000 Ang^3
#
#
#
# Elastic Constant Matrix: (Units=GPa)
#
#
# Indices 1 2 3 4 5 6 
#
# 1 113.1959 35.2800 0.7462 0.0000 0.0000 0.0000
# 2 35.2800 86.6726 23.7771 0.0000 0.0000 0.0000
# 3 0.7462 23.7771 39.5626 0.0000 0.0000 0.0000
# 4 0.0000 0.0000 0.0000 188.9813 0.0000 0.0000
# 5 0.0000 0.0000 0.0000 0.0000 18.0352 0.0000
# 6 0.0000 0.0000 0.0000 0.0000 0.0000 27.5283
#
#
#
# Elastic Compliance Matrix: (Units=1/GPa)
#
#
# Indices 1 2 3 4 5 6 
#
# 1 0.010371 -0.004991 0.002804 0.000000 0.000000 0.000000
# 2 -0.004991 0.016217 -0.009652 0.000000 0.000000 0.000000
# 3 0.002804 -0.009652 0.031025 0.000000 0.000000 0.000000
# 4 0.000000 0.000000 0.000000 0.005292 0.000000 0.000000
# 5 0.000000 0.000000 0.000000 0.000000 0.055447 0.000000
# 6 0.000000 0.000000 0.000000 0.000000 0.000000 0.036326
#
#
# Mechanical properties :
#
#
# Convention : Reuss Voigt Hill
#
# Bulk Modulus (GPa) = 29.46866 39.89309 34.68088
# Shear Modulus (GPa) = 26.36185 58.88414 42.62299
#
# Velocity S-wave (km/s) = 3.65855 5.46789 4.65203
# Velocity P-wave (km/s) = 5.72792 7.75365 6.81645
#
# Compressibility (1/GPa) = 0.03393435
#
# Stress axis : x y z
#
# Youngs Moduli (GPa) = 96.42036 61.66322 32.23249
#
# Poissons Ratio (x) = 0.30775 -0.09037
# Poissons Ratio (y) = 0.48121 0.31112
# Poissons Ratio (z) = -0.27035 0.59520
#
# Static dielectric constant tensor:
#      x y z
#    x 1.677100 0.000000 0.000000 
#    y 0.000000 1.748270 0.000000 
#    z 0.000000 0.000000 1.665430 
# 
# From -- ./inp_files/48347.got.cif
#   From: 2010.05.17/outbox.cif.g08.bks.cpg/sg68_25_cif.got.tgz:48347.got - 2010.06.03 18:57:09.
