data_PCOD9506409
_publ_section_title
;
Structure prediction by ZEFSAII (Michael W. Deem and Ramdas Pophale) SiO2 
 PCOD9506409
Probable space group: C C C A
;
_chemical_formula_sum "Si O2"
_cell_formula_units_Z 116
_cell_length_a 25.614278
_cell_length_b 25.576017
_cell_length_c 8.802987
_cell_angle_alpha 90.000000
_cell_angle_beta 90.000000
_cell_angle_gamma 90.000000
_cell_volume 5766.935461
_symmetry_space_group_name_H-M "C C C A"
_symmetry_group_IT_number 68
_space_group.IT_coordinate_system_code '2'
_symmetry_cell_setting 'orthorhombic'
loop_
_space_group_symop_operation_xyz
x,y,z
-x,1/2-y,z
x,1/2-y,1/2-z
-x,y,1/2-z
-x,-y,-z
x,1/2+y,-z
-x,1/2+y,1/2+z
x,-y,1/2+z
1/2+x,1/2+y,z
1/2-x,-y,z
1/2+x,-y,1/2-z
1/2-x,1/2+y,1/2-z
1/2-x,1/2-y,-z
1/2+x,y,-z
1/2-x,y,1/2+z
1/2+x,1/2-y,1/2+z
loop_
_atom_site_type_symbol
_atom_site_label
_atom_site_fract_x
_atom_site_fract_y
_atom_site_fract_z
Si Si1 0.802453 0.034065 0.583437
Si Si2 0.307307 0.347646 0.157946
Si Si3 0.038159 0.058870 0.621792
Si Si4 0.963330 0.399648 0.125455
Si Si5 0.927194 0.656750 0.324122
Si Si6 0.775123 0.287713 0.127256
Si Si7 0.000000 0.750000 0.250000
Si Si8 0.375715 0.977862 0.184724
O O1 0.795156 0.090597 0.659774
O O2 0.828374 0.041634 0.419673
O O3 0.750000 0.000000 0.577419
O O4 0.847391 0.003095 0.672886
O O5 0.366311 0.336025 0.207216
O O6 0.267855 0.317603 0.270373
O O7 0.303821 0.328413 0.982479
O O8 0.053093 0.115627 0.694807
O O9 0.000000 0.034944 0.750000
O O10 0.004145 0.064911 0.470960
O O11 0.089413 0.024017 0.609826
O O12 0.917518 0.432013 0.206287
O O13 0.000000 0.371778 0.250000
O O14 0.935663 0.368536 0.989577
O O15 0.960550 0.709559 0.329242
O O16 0.803950 0.250000 0.250000
O O17 0.750000 0.250000 0.000000
#
# Coordination Sequence:
#
# PCOD9506409 Si02
#       8
#    16  16  16  16  16  16   4  16
#     4  12  27  39  62  95 136 184 223 264 327 413
#     4  11  23  45  70  97 141 173 223 282 341 402
#     4  10  19  39  63  93 123 171 223 261 325 412
#     4  11  21  38  63  98 130 161 215 281 323 410
#     4  11  23  43  68  95 128 178 222 269 346 410
#     4   9  22  44  70 100 122 166 229 286 332 396
#     4  12  24  44  74  88 120 172 230 276 328 428
#     4  12  22  41  60  92 133 177 216 266 334 396
#
# _framework density 20.114668999999999
#
# number of rings (size 3 to 8) (size 9 to 14) (size 15 to 20)
#    0.000    1.103    4.828    2.897    6.759    0.000 
#    0.000    4.483    0.000    0.000    0.000    0.000 
#    0.000    0.000    0.000    0.000    0.000    0.000 
#
# Total GULP energy -323450.054047 kJ/mol
# GULP energy per Si atom -5576.725070 kJ/mol
# Density = 2.006889 g / cm^3
# Si number density = 20.114669 Si / 1000 Ang^3
#
#
#
# Elastic Constant Matrix: (Units=GPa)
#
#
# Indices 1 2 3 4 5 6 
#
# 1 111.3099 36.5321 11.6223 0.0000 0.0000 0.0000
# 2 36.5321 92.8818 13.5371 0.0000 0.0000 0.0000
# 3 11.6223 13.5371 58.8008 0.0000 0.0000 0.0000
# 4 0.0000 0.0000 0.0000 22.3519 0.0000 0.0000
# 5 0.0000 0.0000 0.0000 0.0000 37.9514 0.0000
# 6 0.0000 0.0000 0.0000 0.0000 0.0000 22.3502
#
#
#
# Elastic Compliance Matrix: (Units=1/GPa)
#
#
# Indices 1 2 3 4 5 6 
#
# 1 0.010390 -0.003919 -0.001152 0.000000 0.000000 0.000000
# 2 -0.003919 0.012618 -0.002130 0.000000 0.000000 0.000000
# 3 -0.001152 -0.002130 0.017725 0.000000 0.000000 0.000000
# 4 0.000000 0.000000 0.000000 0.044739 0.000000 0.000000
# 5 0.000000 0.000000 0.000000 0.000000 0.026349 0.000000
# 6 0.000000 0.000000 0.000000 0.000000 0.000000 0.044742
#
#
# Mechanical properties :
#
#
# Convention : Reuss Voigt Hill
#
# Bulk Modulus (GPa) = 37.97708 42.93060 40.45384
# Shear Modulus (GPa) = 27.81755 29.95077 28.88416
#
# Velocity S-wave (km/s) = 3.72284 3.86294 3.79354
# Velocity P-wave (km/s) = 6.11560 6.42540 6.27241
#
# Compressibility (1/GPa) = 0.02633167
#
# Stress axis : x y z
#
# Youngs Moduli (GPa) = 96.24322 79.25039 56.41869
#
# Poissons Ratio (x) = 0.31057 0.06497
# Poissons Ratio (y) = 0.37717 0.12019
# Poissons Ratio (z) = 0.11082 0.16883
#
# Static dielectric constant tensor:
#      x y z
#    x 1.697060 0.000000 0.000000 
#    y 0.000000 1.753150 0.000000 
#    z 0.000000 0.000000 1.694080 
# 
# From -- ./inp_files/8360.got.cif
#   From: 2010.05.17/outbox.cif.g08.bks.cpg/sg68_5_cif.got.tgz:8360.got - 2010.06.03 18:57:09.
