data_PCOD9506335
_publ_section_title
;
Structure prediction by ZEFSAII (Michael W. Deem and Ramdas Pophale) SiO2 
 PCOD9506335
Probable space group: C C C A
;
_chemical_formula_sum "Si O2"
_cell_formula_units_Z 108
_cell_length_a 13.582326
_cell_length_b 13.281968
_cell_length_c 28.216658
_cell_angle_alpha 90.000000
_cell_angle_beta 90.000000
_cell_angle_gamma 90.000000
_cell_volume 5090.285648
_symmetry_space_group_name_H-M "C C C A"
_symmetry_group_IT_number 68
_space_group.IT_coordinate_system_code '2'
_symmetry_cell_setting 'orthorhombic'
loop_
_space_group_symop_operation_xyz
x,y,z
-x,1/2-y,z
x,1/2-y,1/2-z
-x,y,1/2-z
-x,-y,-z
x,1/2+y,-z
-x,1/2+y,1/2+z
x,-y,1/2+z
1/2+x,1/2+y,z
1/2-x,-y,z
1/2+x,-y,1/2-z
1/2-x,1/2+y,1/2-z
1/2-x,1/2-y,-z
1/2+x,y,-z
1/2-x,y,1/2+z
1/2+x,1/2-y,1/2+z
loop_
_atom_site_type_symbol
_atom_site_label
_atom_site_fract_x
_atom_site_fract_y
_atom_site_fract_z
Si Si1 0.352130 0.367916 0.234451
Si Si2 0.989360 0.134179 0.655643
Si Si3 0.848047 0.370978 0.431438
Si Si4 0.500000 0.750000 0.493192
Si Si5 0.500000 0.750000 0.250000
Si Si6 0.878191 0.395462 0.940020
Si Si7 0.168785 0.694691 0.675266
Si Si8 0.295382 0.100192 0.161888
O O1 0.367984 0.250000 0.250000
O O2 0.440920 0.411599 0.203003
O O3 0.255943 0.365480 0.201391
O O4 0.328482 0.420127 0.283712
O O5 0.913545 0.122605 0.613488
O O6 0.000000 0.250000 0.668828
O O7 0.098494 0.111140 0.637703
O O8 0.876327 0.484483 0.445938
O O9 0.733370 0.356559 0.443825
O O10 0.859725 0.354002 0.374861
O O11 0.916074 0.295628 0.459973
O O12 0.450934 0.664334 0.525793
O O13 0.421944 0.799326 0.287603
O O14 0.220834 0.804581 0.663885
O O15 0.250000 0.000000 0.141238
#
# Coordination Sequence:
#
# PCOD9506335 Si02
#       8
#    16  16  16   8   4  16  16  16
#     4  10  19  37  63  90 125 179 236 272 329 385
#     4  12  20  39  71  92 129 179 223 285 336 393
#     4  11  25  47  73 103 142 177 231 278 350 433
#     4  12  25  46  76 105 137 174 216 297 364 404
#     4  12  22  40  64  90 140 198 232 278 340 402
#     4  11  25  45  74 106 133 178 231 279 350 427
#     4  11  22  42  65  89 138 190 227 276 340 399
#     4  11  24  38  59 101 137 173 237 286 330 393
#
# _framework density 21.216885000000001
#
# number of rings (size 3 to 8) (size 9 to 14) (size 15 to 20)
#    0.000    0.889    7.407    1.778    0.000    3.556 
#    2.667    0.000    0.000    0.000    0.000    0.000 
#    0.000    0.000    0.000    0.000    0.000    0.000 
#
# Total GULP energy -301486.217591 kJ/mol
# GULP energy per Si atom -5583.078104 kJ/mol
# Density = 2.116859 g / cm^3
# Si number density = 21.216885 Si / 1000 Ang^3
#
#
#
# Elastic Constant Matrix: (Units=GPa)
#
#
# Indices 1 2 3 4 5 6 
#
# 1 128.1430 49.1441 29.5900 0.0000 0.0000 0.0000
# 2 49.1441 43.2360 13.8810 0.0000 0.0000 0.0000
# 3 29.5900 13.8810 78.4696 0.0000 0.0000 0.0000
# 4 0.0000 0.0000 0.0000 26.4860 0.0000 0.0000
# 5 0.0000 0.0000 0.0000 0.0000 31.5634 0.0000
# 6 0.0000 0.0000 0.0000 0.0000 0.0000 20.1981
#
#
#
# Elastic Compliance Matrix: (Units=1/GPa)
#
#
# Indices 1 2 3 4 5 6 
#
# 1 0.014346 -0.015447 -0.002677 0.000000 0.000000 0.000000
# 2 -0.015447 0.041154 -0.001455 0.000000 0.000000 0.000000
# 3 -0.002677 -0.001455 0.014011 0.000000 0.000000 0.000000
# 4 0.000000 0.000000 0.000000 0.037756 0.000000 0.000000
# 5 0.000000 0.000000 0.000000 0.000000 0.031682 0.000000
# 6 0.000000 0.000000 0.000000 0.000000 0.000000 0.049510
#
#
# Mechanical properties :
#
#
# Convention : Reuss Voigt Hill
#
# Bulk Modulus (GPa) = 32.94666 48.34207 40.64437
# Shear Modulus (GPa) = 21.03193 26.13174 23.58183
#
# Velocity S-wave (km/s) = 3.15188 3.51329 3.33748
# Velocity P-wave (km/s) = 5.36731 6.26832 5.83523
#
# Compressibility (1/GPa) = 0.03035209
#
# Stress axis : x y z
#
# Youngs Moduli (GPa) = 69.70584 24.29918 71.37383
#
# Poissons Ratio (x) = 0.37535 0.19108
# Poissons Ratio (y) = 1.07673 0.10386
# Poissons Ratio (z) = 0.18662 0.03536
#
# Static dielectric constant tensor:
#      x y z
#    x 1.743770 0.000000 0.000000 
#    y 0.000000 1.790350 0.000000 
#    z 0.000000 0.000000 1.751570 
# 
# From -- ./inp_files/54876.got.cif
#   From: 2010.05.17/outbox.cif.g08.bks.cpg/sg68_28_cif.got.tgz:54876.got - 2010.06.03 18:57:09.
