data_PCOD9506706
_publ_section_title
;
Structure prediction by ZEFSAII (Michael W. Deem and Ramdas Pophale) SiO2 
 PCOD9506706
Probable space group: C C C A
;
_chemical_formula_sum "Si O2"
_cell_formula_units_Z 48
_cell_length_a 16.596552
_cell_length_b 12.816880
_cell_length_c 9.265139
_cell_angle_alpha 90.000000
_cell_angle_beta 90.000000
_cell_angle_gamma 90.000000
_cell_volume 1970.843450
_symmetry_space_group_name_H-M "C C C A"
_symmetry_group_IT_number 68
_space_group.IT_coordinate_system_code '2'
_symmetry_cell_setting 'orthorhombic'
loop_
_space_group_symop_operation_xyz
x,y,z
-x,1/2-y,z
x,1/2-y,1/2-z
-x,y,1/2-z
-x,-y,-z
x,1/2+y,-z
-x,1/2+y,1/2+z
x,-y,1/2+z
1/2+x,1/2+y,z
1/2-x,-y,z
1/2+x,-y,1/2-z
1/2-x,1/2+y,1/2-z
1/2-x,1/2-y,-z
1/2+x,y,-z
1/2-x,y,1/2+z
1/2+x,1/2-y,1/2+z
loop_
_atom_site_type_symbol
_atom_site_label
_atom_site_fract_x
_atom_site_fract_y
_atom_site_fract_z
Si Si1 0.582093 0.631574 0.313202
Si Si2 0.291877 0.397602 0.906246
Si Si3 0.130131 0.730459 0.404112
O O1 0.586878 0.750000 0.250000
O O2 0.500000 0.585155 0.250000
O O3 0.658808 0.577913 0.239716
O O4 0.586178 0.652296 0.483924
O O5 0.250000 0.500000 0.965404
O O6 0.218410 0.319153 0.877071
O O7 0.352481 0.339842 0.015204
O O8 0.091508 0.750000 0.250000
#
# Coordination Sequence:
#
# PCOD9506706 Si02
#       3
#    16  16  16
#     4   9  19  38  60  84 121 162 196 245 311 362
#     4  10  20  36  60  87 120 163 203 244 297 361
#     4  10  20  35  59  91 119 152 205 255 298 358
#
# _framework density 24.355056000000001
#
# number of rings (size 3 to 8) (size 9 to 14) (size 15 to 20)
#    0.000    2.333    0.000    5.000    0.000    5.333 
#    0.000   15.000    0.000   12.000    0.000    7.000 
#    0.000    0.000    0.000    0.000    0.000    0.000 
#
# Total GULP energy -134132.429174 kJ/mol
# GULP energy per Si atom -5588.851216 kJ/mol
# Density = 2.429962 g / cm^3
# Si number density = 24.355056 Si / 1000 Ang^3
#
#
#
# Elastic Constant Matrix: (Units=GPa)
#
#
# Indices 1 2 3 4 5 6 
#
# 1 110.2054 7.8565 71.3416 0.0000 0.0000 0.0000
# 2 7.8565 55.4115 24.7759 0.0000 0.0000 0.0000
# 3 71.3416 24.7759 219.3462 0.0000 0.0000 0.0000
# 4 0.0000 0.0000 0.0000 10.6497 0.0000 0.0000
# 5 0.0000 0.0000 0.0000 0.0000 30.2455 0.0000
# 6 0.0000 0.0000 0.0000 0.0000 0.0000 -1.6531
#
#
#
# Elastic Compliance Matrix: (Units=1/GPa)
#
#
# Indices 1 2 3 4 5 6 
#
# 1 0.011494 0.000044 -0.003743 0.000000 0.000000 0.000000
# 2 0.000044 0.019007 -0.002161 0.000000 0.000000 0.000000
# 3 -0.003743 -0.002161 0.006021 0.000000 0.000000 0.000000
# 4 0.000000 0.000000 0.000000 0.093900 0.000000 0.000000
# 5 0.000000 0.000000 0.000000 0.000000 0.033063 0.000000
# 6 0.000000 0.000000 0.000000 0.000000 0.000000 -0.604922
#
#
# Mechanical properties :
#
#
# Convention : Reuss Voigt Hill
#
# Bulk Modulus (GPa) = 40.32166 65.87900 53.10033
# Shear Modulus (GPa) = -11.86381 26.58101 7.35860
#
# Velocity S-wave (km/s) = -2.20947 3.30721 1.74010
# Velocity P-wave (km/s) = 3.17532 6.45691 5.08794
#
# Compressibility (1/GPa) = 0.02480057
#
# Stress axis : x y z
#
# Youngs Moduli (GPa) = 87.00098 52.61249 166.09497
#
# Poissons Ratio (x) = -0.00232 0.62176
# Poissons Ratio (y) = -0.00384 0.35897
# Poissons Ratio (z) = 0.32568 0.11371
#
# Static dielectric constant tensor:
#      x y z
#    x 1.988440 0.000000 0.000000 
#    y 0.000000 1.962320 0.000000 
#    z 0.000000 0.000000 2.027620 
# 
# From -- ./inp_files/4425.got.cif
#   From: 2010.05.17/outbox.cif.g08.bks.cpg/sg68_3_cif.got.tgz:4425.got - 2010.06.03 18:57:09.
