data_PCOD9506069
_publ_section_title
;
Structure prediction by ZEFSAII (Michael W. Deem and Ramdas Pophale) SiO2 
 PCOD9506069
Probable space group: C C C A
;
_chemical_formula_sum "Si O2"
_cell_formula_units_Z 104
_cell_length_a 23.526807
_cell_length_b 27.347540
_cell_length_c 9.210297
_cell_angle_alpha 90.000000
_cell_angle_beta 90.000000
_cell_angle_gamma 90.000000
_cell_volume 5925.907811
_symmetry_space_group_name_H-M "C C C A"
_symmetry_group_IT_number 68
_space_group.IT_coordinate_system_code '2'
_symmetry_cell_setting 'orthorhombic'
loop_
_space_group_symop_operation_xyz
x,y,z
-x,1/2-y,z
x,1/2-y,1/2-z
-x,y,1/2-z
-x,-y,-z
x,1/2+y,-z
-x,1/2+y,1/2+z
x,-y,1/2+z
1/2+x,1/2+y,z
1/2-x,-y,z
1/2+x,-y,1/2-z
1/2-x,1/2+y,1/2-z
1/2-x,1/2-y,-z
1/2+x,y,-z
1/2-x,y,1/2+z
1/2+x,1/2-y,1/2+z
loop_
_atom_site_type_symbol
_atom_site_label
_atom_site_fract_x
_atom_site_fract_y
_atom_site_fract_z
Si Si1 0.191487 0.295760 0.918644
Si Si2 0.750000 0.500000 0.002197
Si Si3 0.291093 0.164240 0.772648
Si Si4 0.000000 0.666645 0.250000
Si Si5 0.122972 0.210957 0.066746
Si Si6 0.000000 0.250000 0.994220
Si Si7 0.782014 0.070312 0.751061
Si Si8 0.118855 0.145983 0.788140
O O1 0.242406 0.302239 0.803242
O O2 0.137229 0.311882 0.824901
O O3 0.208056 0.330236 0.053966
O O4 0.171282 0.246529 0.997442
O O5 0.784834 0.534589 0.111490
O O6 0.779813 0.462607 0.892535
O O7 0.350113 0.186125 0.710039
O O8 0.271562 0.108426 0.738251
O O9 0.945263 0.633274 0.257476
O O10 0.994437 0.703144 0.112310
O O11 0.119992 0.167949 0.948563
O O12 0.060890 0.237899 0.074490
O O13 0.836210 0.104384 0.738142
#
# Coordination Sequence:
#
# PCOD9506069 Si02
#       8
#    16   8  16   8  16   8  16  16
#     4  11  21  34  48  76 111 150 184 220 265 311
#     4  10  20  36  58  76 108 126 164 216 296 360
#     4  11  22  34  52  78 112 140 183 225 273 323
#     4   9  16  32  54  76 100 146 190 232 236 304
#     4  11  20  33  51  75 109 156 187 229 251 305
#     4   9  18  32  51  72 106 151 209 212 256 287
#     4  10  20  35  53  82 102 136 167 223 283 350
#     4  10  19  33  57  76 106 138 191 226 259 312
#
# _framework density 17.550052999999998
#
# number of rings (size 3 to 8) (size 9 to 14) (size 15 to 20)
#    0.000    1.692    1.538    6.000    0.000    2.462 
#    0.000    1.538    0.000    0.923    0.000    0.000 
#    0.000    0.000    0.000    0.000    0.000    0.000 
#
# Total GULP energy -289715.481452 kJ/mol
# GULP energy per Si atom -5571.451566 kJ/mol
# Density = 1.751011 g / cm^3
# Si number density = 17.550053 Si / 1000 Ang^3
#
#
#
# Elastic Constant Matrix: (Units=GPa)
#
#
# Indices 1 2 3 4 5 6 
#
# 1 80.8942 13.0805 13.4684 0.0000 0.0000 0.0000
# 2 13.0805 67.7725 6.6478 0.0000 0.0000 0.0000
# 3 13.4684 6.6478 85.4976 0.0000 0.0000 0.0000
# 4 0.0000 0.0000 0.0000 20.2146 0.0000 0.0000
# 5 0.0000 0.0000 0.0000 0.0000 11.0711 0.0000
# 6 0.0000 0.0000 0.0000 0.0000 0.0000 15.5687
#
#
#
# Elastic Compliance Matrix: (Units=1/GPa)
#
#
# Indices 1 2 3 4 5 6 
#
# 1 0.013052 -0.002335 -0.001874 0.000000 0.000000 0.000000
# 2 -0.002335 0.015286 -0.000821 0.000000 0.000000 0.000000
# 3 -0.001874 -0.000821 0.012055 0.000000 0.000000 0.000000
# 4 0.000000 0.000000 0.000000 0.049469 0.000000 0.000000
# 5 0.000000 0.000000 0.000000 0.000000 0.090326 0.000000
# 6 0.000000 0.000000 0.000000 0.000000 0.000000 0.064232
#
#
# Mechanical properties :
#
#
# Convention : Reuss Voigt Hill
#
# Bulk Modulus (GPa) = 32.96778 33.39530 33.18154
# Shear Modulus (GPa) = 18.89709 22.76872 20.83291
#
# Velocity S-wave (km/s) = 3.28495 3.60579 3.44911
# Velocity P-wave (km/s) = 5.76313 6.03370 5.89997
#
# Compressibility (1/GPa) = 0.03033265
#
# Stress axis : x y z
#
# Youngs Moduli (GPa) = 76.61954 65.41745 82.95091
#
# Poissons Ratio (x) = 0.15276 0.15549
# Poissons Ratio (y) = 0.17892 0.06808
# Poissons Ratio (z) = 0.14362 0.05369
#
# Static dielectric constant tensor:
#      x y z
#    x 1.637060 0.000000 0.000000 
#    y 0.000000 1.617290 0.000000 
#    z 0.000000 0.000000 1.633240 
# 
# From -- ./inp_files/8331.got.cif
#   From: 2010.05.17/outbox.cif.g08.bks.cpg/sg68_5_cif.got.tgz:8331.got - 2010.06.03 18:57:09.
