data_PCOD9506252
_publ_section_title
;
Structure prediction by ZEFSAII (Michael W. Deem and Ramdas Pophale) SiO2 
 PCOD9506252
Probable space group: C C C A
;
_chemical_formula_sum "Si O2"
_cell_formula_units_Z 64
_cell_length_a 15.149751
_cell_length_b 13.372084
_cell_length_c 13.812976
_cell_angle_alpha 90.000000
_cell_angle_beta 90.000000
_cell_angle_gamma 90.000000
_cell_volume 2798.284379
_symmetry_space_group_name_H-M "C C C A"
_symmetry_group_IT_number 68
_space_group.IT_coordinate_system_code '2'
_symmetry_cell_setting 'orthorhombic'
loop_
_space_group_symop_operation_xyz
x,y,z
-x,1/2-y,z
x,1/2-y,1/2-z
-x,y,1/2-z
-x,-y,-z
x,1/2+y,-z
-x,1/2+y,1/2+z
x,-y,1/2+z
1/2+x,1/2+y,z
1/2-x,-y,z
1/2+x,-y,1/2-z
1/2-x,1/2+y,1/2-z
1/2-x,1/2-y,-z
1/2+x,y,-z
1/2-x,y,1/2+z
1/2+x,1/2-y,1/2+z
loop_
_atom_site_type_symbol
_atom_site_label
_atom_site_fract_x
_atom_site_fract_y
_atom_site_fract_z
Si Si1 0.598483 0.009484 0.769166
Si Si2 0.934282 0.385143 0.555067
Si Si3 0.386710 0.170578 0.383691
Si Si4 0.202275 0.896981 0.889015
O O1 0.500000 0.049060 0.750000
O O2 0.601615 0.976088 0.879929
O O3 0.606123 0.906245 0.706353
O O4 0.669075 0.083628 0.720872
O O5 0.915469 0.285242 0.617829
O O6 0.881803 0.377523 0.455614
O O7 0.040808 0.382100 0.545258
O O8 0.282456 0.178022 0.403145
O O9 0.250000 0.000000 0.920051
#
# Coordination Sequence:
#
# PCOD9506252 Si02
#       4
#    16  16  16  16
#     4   9  19  34  53  78 107 141 183 225 270 324
#     4  10  19  36  59  79 110 150 178 222 279 316
#     4   9  19  35  57  84 109 139 188 228 263 330
#     4  10  21  34  53  85 113 139 184 228 268 327
#
# _framework density 22.871158000000001
#
# number of rings (size 3 to 8) (size 9 to 14) (size 15 to 20)
#    0.000    2.500    0.000    1.500    0.000   15.000 
#    0.000    2.500    0.000    6.000    0.000    0.000 
#    0.000    0.000    0.000    0.000    0.000    0.000 
#
# Total GULP energy -178236.901802 kJ/mol
# GULP energy per Si atom -5569.903181 kJ/mol
# Density = 2.281910 g / cm^3
# Si number density = 22.871158 Si / 1000 Ang^3
#
#
#
# Elastic Constant Matrix: (Units=GPa)
#
#
# Indices 1 2 3 4 5 6 
#
# 1 160.0293 22.4656 67.3326 0.0000 0.0000 0.0000
# 2 22.4656 29.1054 13.7052 0.0000 0.0000 0.0000
# 3 67.3326 13.7052 61.0761 0.0000 0.0000 0.0000
# 4 0.0000 0.0000 0.0000 -1.3184 0.0000 0.0000
# 5 0.0000 0.0000 0.0000 0.0000 -6.2639 0.0000
# 6 0.0000 0.0000 0.0000 0.0000 0.0000 30.5694
#
#
#
# Elastic Compliance Matrix: (Units=1/GPa)
#
#
# Indices 1 2 3 4 5 6 
#
# 1 0.011945 -0.003376 -0.012411 0.000000 0.000000 0.000000
# 2 -0.003376 0.039371 -0.005113 0.000000 0.000000 0.000000
# 3 -0.012411 -0.005113 0.031202 0.000000 0.000000 0.000000
# 4 0.000000 0.000000 0.000000 -0.758489 0.000000 0.000000
# 5 0.000000 0.000000 0.000000 0.000000 -0.159645 0.000000
# 6 0.000000 0.000000 0.000000 0.000000 0.000000 0.032712
#
#
# Mechanical properties :
#
#
# Convention : Reuss Voigt Hill
#
# Bulk Modulus (GPa) = 24.55860 50.80196 37.68028
# Shear Modulus (GPa) = -6.68868 14.37791 3.84461
#
# Velocity S-wave (km/s) = -1.71197 2.51001 1.29794
# Velocity P-wave (km/s) = 2.61788 5.53720 4.33093
#
# Compressibility (1/GPa) = 0.04071894
#
# Stress axis : x y z
#
# Youngs Moduli (GPa) = 83.72041 25.39928 32.04893
#
# Poissons Ratio (x) = 0.08574 0.39775
# Poissons Ratio (y) = 0.28261 0.16387
# Poissons Ratio (z) = 1.03902 0.12987
#
# Static dielectric constant tensor:
#      x y z
#    x 1.988920 0.000000 0.000000 
#    y 0.000000 1.885270 0.000000 
#    z 0.000000 0.000000 1.862470 
# 
# From -- ./inp_files/12807.got.cif
#   From: 2010.05.17/outbox.cif.g08.bks.cpg/sg68_7_cif.got.tgz:12807.got - 2010.06.03 18:57:09.
