data_PCOD9506219
_publ_section_title
;
Structure prediction by ZEFSAII (Michael W. Deem and Ramdas Pophale) SiO2 
 PCOD9506219
Probable space group: C C C A
;
_chemical_formula_sum "Si O2"
_cell_formula_units_Z 68
_cell_length_a 19.174786
_cell_length_b 19.335880
_cell_length_c 8.161822
_cell_angle_alpha 90.000000
_cell_angle_beta 90.000000
_cell_angle_gamma 90.000000
_cell_volume 3026.088234
_symmetry_space_group_name_H-M "C C C A"
_symmetry_group_IT_number 68
_space_group.IT_coordinate_system_code '2'
_symmetry_cell_setting 'orthorhombic'
loop_
_space_group_symop_operation_xyz
x,y,z
-x,1/2-y,z
x,1/2-y,1/2-z
-x,y,1/2-z
-x,-y,-z
x,1/2+y,-z
-x,1/2+y,1/2+z
x,-y,1/2+z
1/2+x,1/2+y,z
1/2-x,-y,z
1/2+x,-y,1/2-z
1/2-x,1/2+y,1/2-z
1/2-x,1/2-y,-z
1/2+x,y,-z
1/2-x,y,1/2+z
1/2+x,1/2-y,1/2+z
loop_
_atom_site_type_symbol
_atom_site_label
_atom_site_fract_x
_atom_site_fract_y
_atom_site_fract_z
Si Si1 0.499433 0.420266 0.452217
Si Si2 0.732073 0.332825 0.256235
Si Si3 0.639184 0.340179 0.939469
Si Si4 0.500000 0.250000 0.250000
Si Si5 0.109073 0.318238 0.507298
O O1 0.500000 0.418771 0.250000
O O2 0.500000 0.500000 0.500000
O O3 0.430731 0.381151 0.521126
O O4 0.564137 0.383496 0.550174
O O5 0.738420 0.250000 0.250000
O O6 0.810242 0.359680 0.287847
O O7 0.679608 0.344113 0.407855
O O8 0.689536 0.352318 0.095612
O O9 0.622734 0.257435 0.928129
O O10 0.447395 0.205838 0.356297
#
# Coordination Sequence:
#
# PCOD9506219 Si02
#       5
#    16  16  16   4  16
#     4  12  24  45  68  89 125 175 227 262 314 380
#     4  10  19  35  65 101 133 155 200 266 328 381
#     4  11  21  39  70  99 128 163 208 270 324 389
#     4  12  12  28  72  88 114 164 216 248 306 380
#     4  11  16  35  67  93 118 161 213 259 312 376
#
# _framework density 22.471256
#
# number of rings (size 3 to 8) (size 9 to 14) (size 15 to 20)
#    0.000    0.941    9.412    2.824    0.000    0.000 
#    8.471    1.176    0.000    0.000    0.000    0.000 
#    0.000    0.000    0.000    0.000    0.000    0.000 
#
# Total GULP energy -189540.629923 kJ/mol
# GULP energy per Si atom -5574.724410 kJ/mol
# Density = 2.242011 g / cm^3
# Si number density = 22.471256 Si / 1000 Ang^3
#
#
#
# Elastic Constant Matrix: (Units=GPa)
#
#
# Indices 1 2 3 4 5 6 
#
# 1 209.2428 60.9262 47.2507 0.0000 0.0000 0.0000
# 2 60.9262 105.3852 25.3599 0.0000 0.0000 0.0000
# 3 47.2507 25.3599 96.2278 0.0000 0.0000 0.0000
# 4 0.0000 0.0000 0.0000 19.3248 0.0000 0.0000
# 5 0.0000 0.0000 0.0000 0.0000 55.5745 0.0000
# 6 0.0000 0.0000 0.0000 0.0000 0.0000 -0.1557
#
#
#
# Elastic Compliance Matrix: (Units=1/GPa)
#
#
# Indices 1 2 3 4 5 6 
#
# 1 0.006164 -0.003027 -0.002229 0.000000 0.000000 0.000000
# 2 -0.003027 0.011618 -0.001575 0.000000 0.000000 0.000000
# 3 -0.002229 -0.001575 0.011902 0.000000 0.000000 0.000000
# 4 0.000000 0.000000 0.000000 0.051747 0.000000 0.000000
# 5 0.000000 0.000000 0.000000 0.000000 0.017994 0.000000
# 6 0.000000 0.000000 0.000000 0.000000 0.000000 -6.424227
#
#
# Mechanical properties :
#
#
# Convention : Reuss Voigt Hill
#
# Bulk Modulus (GPa) = 62.41891 75.32548 68.87220
# Shear Modulus (GPa) = -0.79292 33.43667 16.32188
#
# Velocity S-wave (km/s) = -0.59466 3.86161 2.69800
# Velocity P-wave (km/s) = 5.23125 7.31275 6.35777
#
# Compressibility (1/GPa) = 0.01602079
#
# Stress axis : x y z
#
# Youngs Moduli (GPa) = 162.23520 86.07186 84.02206
#
# Poissons Ratio (x) = 0.26055 0.18727
# Poissons Ratio (y) = 0.49111 0.13237
# Poissons Ratio (z) = 0.36160 0.13560
#
# Static dielectric constant tensor:
#      x y z
#    x 1.855780 0.000000 0.000000 
#    y 0.000000 1.016280 0.000000 
#    z 0.000000 0.000000 2.132440 
# 
# From -- ./inp_files/5920.got.cif
#   From: 2010.05.17/outbox.cif.g08.bks.cpg/sg68_3_cif.got.tgz:5920.got - 2010.06.03 18:57:09.
