data_PCOD9506469
_publ_section_title
;
Structure prediction by ZEFSAII (Michael W. Deem and Ramdas Pophale) SiO2 
 PCOD9506469
Probable space group: C C C A
;
_chemical_formula_sum "Si O2"
_cell_formula_units_Z 92
_cell_length_a 20.514522
_cell_length_b 9.658516
_cell_length_c 27.847002
_cell_angle_alpha 90.000000
_cell_angle_beta 90.000000
_cell_angle_gamma 90.000000
_cell_volume 5517.600492
_symmetry_space_group_name_H-M "C C C A"
_symmetry_group_IT_number 68
_space_group.IT_coordinate_system_code '2'
_symmetry_cell_setting 'orthorhombic'
loop_
_space_group_symop_operation_xyz
x,y,z
-x,1/2-y,z
x,1/2-y,1/2-z
-x,y,1/2-z
-x,-y,-z
x,1/2+y,-z
-x,1/2+y,1/2+z
x,-y,1/2+z
1/2+x,1/2+y,z
1/2-x,-y,z
1/2+x,-y,1/2-z
1/2-x,1/2+y,1/2-z
1/2-x,1/2-y,-z
1/2+x,y,-z
1/2-x,y,1/2+z
1/2+x,1/2-y,1/2+z
loop_
_atom_site_type_symbol
_atom_site_label
_atom_site_fract_x
_atom_site_fract_y
_atom_site_fract_z
Si Si1 0.434942 0.178080 0.342945
Si Si2 0.899233 0.568815 0.910262
Si Si3 0.000000 0.750000 0.966333
Si Si4 0.663109 0.360550 0.103055
Si Si5 0.500000 0.750000 0.750000
Si Si6 0.370663 0.664574 0.517345
Si Si7 0.815041 0.669164 0.586571
O O1 0.500000 0.250000 0.365259
O O2 0.375822 0.281307 0.355304
O O3 0.454180 0.166808 0.287053
O O4 0.419164 0.033916 0.367932
O O5 0.864662 0.472951 0.950634
O O6 0.852305 0.694600 0.896046
O O7 0.962343 0.638670 0.934021
O O8 0.055984 0.676448 0.997269
O O9 0.639234 0.293642 0.052947
O O10 0.740409 0.332584 0.102896
O O11 0.653001 0.525063 0.103589
O O12 0.323179 0.668258 0.471542
#
# Coordination Sequence:
#
# PCOD9506469 Si02
#       7
#    16  16   8  16   4  16  16
#     4   9  21  37  59  80  98 130 172 217 277 335
#     4  10  21  31  52  75 106 141 183 225 255 315
#     4  10  20  29  46  71 112 143 180 221 268 298
#     4  10  21  34  53  72 111 146 184 219 259 318
#     4   8  20  38  64  82 100 124 168 210 284 336
#     4  10  20  30  46  71 109 151 194 219 251 299
#     4  10  20  34  49  77 109 152 180 216 259 293
#
# _framework density 16.673914
#
# number of rings (size 3 to 8) (size 9 to 14) (size 15 to 20)
#    0.522    1.739    0.000    3.130    9.739    4.174 
#    0.000    0.000    0.000    8.870    0.000    0.000 
#    0.000    0.000    0.000    0.000    0.000    0.000 
#
# Total GULP energy -256395.436226 kJ/mol
# GULP energy per Si atom -5573.813831 kJ/mol
# Density = 1.663596 g / cm^3
# Si number density = 16.673914 Si / 1000 Ang^3
#
#
#
# Elastic Constant Matrix: (Units=GPa)
#
#
# Indices 1 2 3 4 5 6 
#
# 1 76.8074 51.6801 22.4150 0.0000 0.0000 0.0000
# 2 51.6801 138.6826 49.9907 0.0000 0.0000 0.0000
# 3 22.4150 49.9907 69.0066 0.0000 0.0000 0.0000
# 4 0.0000 0.0000 0.0000 -25.2591 0.0000 0.0000
# 5 0.0000 0.0000 0.0000 0.0000 29.7915 0.0000
# 6 0.0000 0.0000 0.0000 0.0000 0.0000 21.1742
#
#
#
# Elastic Compliance Matrix: (Units=1/GPa)
#
#
# Indices 1 2 3 4 5 6 
#
# 1 0.017462 -0.006040 -0.001297 0.000000 0.000000 0.000000
# 2 -0.006040 0.011848 -0.006621 0.000000 0.000000 0.000000
# 3 -0.001297 -0.006621 0.019709 0.000000 0.000000 0.000000
# 4 0.000000 0.000000 0.000000 -0.039590 0.000000 0.000000
# 5 0.000000 0.000000 0.000000 0.000000 0.033567 0.000000
# 6 0.000000 0.000000 0.000000 0.000000 0.000000 0.047227
#
#
# Mechanical properties :
#
#
# Convention : Reuss Voigt Hill
#
# Bulk Modulus (GPa) = 47.38482 59.18539 53.28510
# Shear Modulus (GPa) = 39.94449 15.83538 27.88993
#
# Velocity S-wave (km/s) = 4.89982 3.08508 4.09426
# Velocity P-wave (km/s) = 7.77761 6.94717 7.37409
#
# Compressibility (1/GPa) = 0.02110381
#
# Stress axis : x y z
#
# Youngs Moduli (GPa) = 57.26768 84.40072 50.73748
#
# Poissons Ratio (x) = 0.50976 0.06579
# Poissons Ratio (y) = 0.34588 0.33595
# Poissons Ratio (z) = 0.07425 0.55885
#
# Static dielectric constant tensor:
#      x y z
#    x 1.574480 0.000000 0.000000 
#    y 0.000000 1.579890 0.000000 
#    z 0.000000 0.000000 1.545850 
# 
# From -- ./inp_files/55790.got.cif
#   From: 2010.05.17/outbox.cif.g08.bks.cpg/sg68_28_cif.got.tgz:55790.got - 2010.06.03 18:57:09.
