data_PCOD9506686
_publ_section_title
;
Structure prediction by ZEFSAII (Michael W. Deem and Ramdas Pophale) SiO2 
 PCOD9506686
Probable space group: C C C A
;
_chemical_formula_sum "Si O2"
_cell_formula_units_Z 80
_cell_length_a 16.712798
_cell_length_b 10.556405
_cell_length_c 23.815699
_cell_angle_alpha 90.000000
_cell_angle_beta 90.000000
_cell_angle_gamma 90.000000
_cell_volume 4201.733861
_symmetry_space_group_name_H-M "C C C A"
_symmetry_group_IT_number 68
_space_group.IT_coordinate_system_code '2'
_symmetry_cell_setting 'orthorhombic'
loop_
_space_group_symop_operation_xyz
x,y,z
-x,1/2-y,z
x,1/2-y,1/2-z
-x,y,1/2-z
-x,-y,-z
x,1/2+y,-z
-x,1/2+y,1/2+z
x,-y,1/2+z
1/2+x,1/2+y,z
1/2-x,-y,z
1/2+x,-y,1/2-z
1/2-x,1/2+y,1/2-z
1/2-x,1/2-y,-z
1/2+x,y,-z
1/2-x,y,1/2+z
1/2+x,1/2-y,1/2+z
loop_
_atom_site_type_symbol
_atom_site_label
_atom_site_fract_x
_atom_site_fract_y
_atom_site_fract_z
Si Si1 0.852384 0.228434 0.565329
Si Si2 0.599365 0.534284 0.626361
Si Si3 0.185542 0.892485 0.239136
Si Si4 0.554591 0.378083 0.332601
Si Si5 0.195452 0.625510 0.950513
O O1 0.900585 0.359429 0.576829
O O2 0.885144 0.141797 0.615304
O O3 0.856467 0.166803 0.504077
O O4 0.758919 0.267598 0.567460
O O5 0.656667 0.589671 0.675082
O O6 0.511639 0.519330 0.651258
O O7 0.639325 0.411621 0.600747
O O8 0.216322 0.750000 0.250000
O O9 0.106992 0.903642 0.278155
O O10 0.250000 0.000000 0.252227
O O11 0.500000 0.250000 0.325401
O O12 0.250000 0.500000 0.963582
#
# Coordination Sequence:
#
# PCOD9506686 Si02
#       5
#    16  16  16  16  16
#     4   9  17  31  52  80 113 152 201 246 295 360
#     4  10  20  35  58  85 118 156 205 258 304 360
#     4  12  23  38  64  99 122 161 207 261 309 373
#     4  10  20  35  61  89 117 155 210 252 294 374
#     4   9  18  32  51  81 116 157 190 250 311 351
#
# _framework density 19.039757999999999
#
# number of rings (size 3 to 8) (size 9 to 14) (size 15 to 20)
#    0.000    2.000    4.000    2.400    0.000    1.600 
#    0.000    0.000    0.000    2.400    0.000    0.000 
#    0.000    0.000    0.000    0.000    0.000    0.000 
#
# Total GULP energy -222976.604666 kJ/mol
# GULP energy per Si atom -5574.415117 kJ/mol
# Density = 1.899642 g / cm^3
# Si number density = 19.039758 Si / 1000 Ang^3
#
#
#
# Elastic Constant Matrix: (Units=GPa)
#
#
# Indices 1 2 3 4 5 6 
#
# 1 77.3827 43.2710 54.5294 0.0000 0.0000 0.0000
# 2 43.2710 56.7200 39.2336 0.0000 0.0000 0.0000
# 3 54.5294 39.2336 114.8189 0.0000 0.0000 0.0000
# 4 0.0000 0.0000 0.0000 31.4490 0.0000 0.0000
# 5 0.0000 0.0000 0.0000 0.0000 24.0397 0.0000
# 6 0.0000 0.0000 0.0000 0.0000 0.0000 21.4230
#
#
#
# Elastic Compliance Matrix: (Units=1/GPa)
#
#
# Indices 1 2 3 4 5 6 
#
# 1 0.026688 -0.015181 -0.007487 0.000000 0.000000 0.000000
# 2 -0.015181 0.031723 -0.003630 0.000000 0.000000 0.000000
# 3 -0.007487 -0.003630 0.013505 0.000000 0.000000 0.000000
# 4 0.000000 0.000000 0.000000 0.031798 0.000000 0.000000
# 5 0.000000 0.000000 0.000000 0.000000 0.041598 0.000000
# 6 0.000000 0.000000 0.000000 0.000000 0.000000 0.046679
#
#
# Mechanical properties :
#
#
# Convention : Reuss Voigt Hill
#
# Bulk Modulus (GPa) = 51.76007 58.10995 54.93501
# Shear Modulus (GPa) = 19.91830 22.84150 21.37990
#
# Velocity S-wave (km/s) = 3.23792 3.46739 3.35462
# Velocity P-wave (km/s) = 6.42052 6.82766 6.62722
#
# Compressibility (1/GPa) = 0.01931991
#
# Stress axis : x y z
#
# Youngs Moduli (GPa) = 37.47071 31.52330 74.04400
#
# Poissons Ratio (x) = 0.47855 0.55437
# Poissons Ratio (y) = 0.56883 0.26878
# Poissons Ratio (z) = 0.28055 0.11443
#
# Static dielectric constant tensor:
#      x y z
#    x 1.681890 0.000000 0.000000 
#    y 0.000000 1.698570 0.000000 
#    z 0.000000 0.000000 1.679160 
# 
# From -- ./inp_files/45168.got.cif
#   From: 2010.05.17/outbox.cif.g08.bks.cpg/sg68_23_cif.got.tgz:45168.got - 2010.06.03 18:57:09.
