data_PCOD9506004
_publ_section_title
;
Structure prediction by ZEFSAII (Michael W. Deem and Ramdas Pophale) SiO2 
 PCOD9506004
Probable space group: C C C A
;
_chemical_formula_sum "Si O2"
_cell_formula_units_Z 96
_cell_length_a 9.720556
_cell_length_b 26.032447
_cell_length_c 19.425595
_cell_angle_alpha 90.000000
_cell_angle_beta 90.000000
_cell_angle_gamma 90.000000
_cell_volume 4915.644073
_symmetry_space_group_name_H-M "C C C A"
_symmetry_group_IT_number 68
_space_group.IT_coordinate_system_code '2'
_symmetry_cell_setting 'orthorhombic'
loop_
_space_group_symop_operation_xyz
x,y,z
-x,1/2-y,z
x,1/2-y,1/2-z
-x,y,1/2-z
-x,-y,-z
x,1/2+y,-z
-x,1/2+y,1/2+z
x,-y,1/2+z
1/2+x,1/2+y,z
1/2-x,-y,z
1/2+x,-y,1/2-z
1/2-x,1/2+y,1/2-z
1/2-x,1/2-y,-z
1/2+x,y,-z
1/2-x,y,1/2+z
1/2+x,1/2-y,1/2+z
loop_
_atom_site_type_symbol
_atom_site_label
_atom_site_fract_x
_atom_site_fract_y
_atom_site_fract_z
Si Si1 0.279138 0.559027 0.917856
Si Si2 0.907510 0.796687 0.508824
Si Si3 0.758111 0.736955 0.617403
Si Si4 0.613682 0.663533 0.840399
Si Si5 0.438379 0.102842 0.473743
Si Si6 0.292876 0.144617 0.194785
O O1 0.250000 0.500000 0.901457
O O2 0.258586 0.595234 0.850989
O O3 0.171343 0.576124 0.977026
O O4 0.436035 0.567968 0.944958
O O5 0.861716 0.777105 0.582910
O O6 0.789820 0.796144 0.450301
O O7 0.984829 0.849890 0.511160
O O8 0.000000 0.750000 0.481538
O O9 0.651335 0.776829 0.650824
O O10 0.797106 0.693659 0.671793
O O11 0.450347 0.659286 0.826527
O O12 0.697583 0.639984 0.776594
O O13 0.636724 0.630994 0.909711
#
# Coordination Sequence:
#
# PCOD9506004 Si02
#       6
#    16  16  16  16  16  16
#     4  11  23  40  62  85 114 153 203 256 305 348
#     4  11  19  29  52  84 117 150 182 226 291 351
#     4  11  18  30  51  83 119 149 181 225 285 352
#     4  10  19  32  55  85 116 147 190 232 291 351
#     4  11  21  38  60  89 119 150 201 254 303 355
#     4  10  20  34  54  83 117 150 189 246 286 343
#
# _framework density 19.529487
#
# number of rings (size 3 to 8) (size 9 to 14) (size 15 to 20)
#    0.000    1.333    5.000    3.500    0.000    1.333 
#    0.000    0.833    0.000   20.000    0.000    0.000 
#    0.000    0.000    0.000    0.000    0.000    0.000 
#
# Total GULP energy -267799.452663 kJ/mol
# GULP energy per Si atom -5579.155264 kJ/mol
# Density = 1.948504 g / cm^3
# Si number density = 19.529487 Si / 1000 Ang^3
#
#
#
# Elastic Constant Matrix: (Units=GPa)
#
#
# Indices 1 2 3 4 5 6 
#
# 1 32.4792 30.8674 30.3386 0.0000 0.0000 0.0000
# 2 30.8674 146.7041 58.9309 0.0000 0.0000 0.0000
# 3 30.3386 58.9309 109.9996 0.0000 0.0000 0.0000
# 4 0.0000 0.0000 0.0000 17.0588 0.0000 0.0000
# 5 0.0000 0.0000 0.0000 0.0000 20.0098 0.0000
# 6 0.0000 0.0000 0.0000 0.0000 0.0000 19.4217
#
#
#
# Elastic Compliance Matrix: (Units=1/GPa)
#
#
# Indices 1 2 3 4 5 6 
#
# 1 0.044930 -0.005703 -0.009337 0.000000 0.000000 0.000000
# 2 -0.005703 0.009410 -0.003468 0.000000 0.000000 0.000000
# 3 -0.009337 -0.003468 0.013524 0.000000 0.000000 0.000000
# 4 0.000000 0.000000 0.000000 0.058621 0.000000 0.000000
# 5 0.000000 0.000000 0.000000 0.000000 0.049975 0.000000
# 6 0.000000 0.000000 0.000000 0.000000 0.000000 0.051489
#
#
# Mechanical properties :
#
#
# Convention : Reuss Voigt Hill
#
# Bulk Modulus (GPa) = 32.41685 58.82853 45.62269
# Shear Modulus (GPa) = 18.16548 22.56781 20.36665
#
# Velocity S-wave (km/s) = 3.05316 3.40306 3.23285
# Velocity P-wave (km/s) = 5.39110 6.75496 6.11120
#
# Compressibility (1/GPa) = 0.03084816
#
# Stress axis : x y z
#
# Youngs Moduli (GPa) = 22.25668 106.27527 73.94228
#
# Poissons Ratio (x) = 0.60609 0.69038
# Poissons Ratio (y) = 0.12693 0.25644
# Poissons Ratio (z) = 0.20780 0.36857
#
# Static dielectric constant tensor:
#      x y z
#    x 1.792840 0.000000 0.000000 
#    y 0.000000 1.677230 0.000000 
#    z 0.000000 0.000000 1.716340 
# 
# From -- ./inp_files/29794.got.cif
#   From: 2010.05.17/outbox.cif.g08.bks.cpg/sg68_15_cif.got.tgz:29794.got - 2010.06.03 18:57:09.
