data_PCOD9506872
_publ_section_title
;
Structure prediction by ZEFSAII (Michael W. Deem and Ramdas Pophale) SiO2 
 PCOD9506872
Probable space group: C C C A
;
_chemical_formula_sum "Si O2"
_cell_formula_units_Z 80
_cell_length_a 30.947127
_cell_length_b 23.036443
_cell_length_c 5.469746
_cell_angle_alpha 90.000000
_cell_angle_beta 90.000000
_cell_angle_gamma 90.000000
_cell_volume 3899.446068
_symmetry_space_group_name_H-M "C C C A"
_symmetry_group_IT_number 68
_space_group.IT_coordinate_system_code '2'
_symmetry_cell_setting 'orthorhombic'
loop_
_space_group_symop_operation_xyz
x,y,z
-x,1/2-y,z
x,1/2-y,1/2-z
-x,y,1/2-z
-x,-y,-z
x,1/2+y,-z
-x,1/2+y,1/2+z
x,-y,1/2+z
1/2+x,1/2+y,z
1/2-x,-y,z
1/2+x,-y,1/2-z
1/2-x,1/2+y,1/2-z
1/2-x,1/2-y,-z
1/2+x,y,-z
1/2-x,y,1/2+z
1/2+x,1/2-y,1/2+z
loop_
_atom_site_type_symbol
_atom_site_label
_atom_site_fract_x
_atom_site_fract_y
_atom_site_fract_z
Si Si1 0.623880 0.750000 0.250000
Si Si2 0.275584 0.819374 0.766708
Si Si3 0.417614 0.463594 0.468399
Si Si4 0.860369 0.146091 0.943816
Si Si5 0.061467 0.192663 0.871458
Si Si6 0.500000 0.403228 0.250000
O O1 0.652000 0.698689 0.370641
O O2 0.590531 0.788066 0.405758
O O3 0.284545 0.750000 0.750000
O O4 0.246755 0.832385 0.526176
O O5 0.320168 0.854678 0.738801
O O6 0.413776 0.505014 0.703997
O O7 0.379487 0.416268 0.514745
O O8 0.466130 0.436553 0.426344
O O9 0.903065 0.171887 0.820935
O O10 0.042283 0.250000 0.750000
O O11 0.028794 0.140548 0.914197
#
# Coordination Sequence:
#
# PCOD9506872 Si02
#       6
#     8  16  16  16  16   8
#     4  10  20  36  65  90 124 166 210 254 318 395
#     4  10  22  36  60  99 136 163 194 248 315 385
#     4  11  26  46  66  90 121 169 221 271 314 369
#     4  10  23  39  65  89 129 167 213 259 319 384
#     4   9  19  36  55  90 124 165 208 258 320 392
#     4  10  21  40  62  86 126 159 216 276 322 372
#
# _framework density 20.515733000000001
#
# number of rings (size 3 to 8) (size 9 to 14) (size 15 to 20)
#    0.000    2.000    0.000    2.700   12.600    0.000 
#    7.200    9.000    0.000    3.600    0.000    0.000 
#    0.000    0.000    0.000    0.000    0.000    0.000 
#
# Total GULP energy -222745.897354 kJ/mol
# GULP energy per Si atom -5568.647434 kJ/mol
# Density = 2.046904 g / cm^3
# Si number density = 20.515733 Si / 1000 Ang^3
#
#
#
# Elastic Constant Matrix: (Units=GPa)
#
#
# Indices 1 2 3 4 5 6 
#
# 1 91.6297 36.9300 10.8294 0.0000 0.0000 0.0000
# 2 36.9300 80.0334 34.2697 0.0000 0.0000 0.0000
# 3 10.8294 34.2697 83.5558 0.0000 0.0000 0.0000
# 4 0.0000 0.0000 0.0000 17.5005 0.0000 0.0000
# 5 0.0000 0.0000 0.0000 0.0000 12.2413 0.0000
# 6 0.0000 0.0000 0.0000 0.0000 0.0000 22.6954
#
#
#
# Elastic Compliance Matrix: (Units=1/GPa)
#
#
# Indices 1 2 3 4 5 6 
#
# 1 0.013472 -0.006634 0.000975 0.000000 0.000000 0.000000
# 2 -0.006634 0.018423 -0.006696 0.000000 0.000000 0.000000
# 3 0.000975 -0.006696 0.014588 0.000000 0.000000 0.000000
# 4 0.000000 0.000000 0.000000 0.057141 0.000000 0.000000
# 5 0.000000 0.000000 0.000000 0.000000 0.081690 0.000000
# 6 0.000000 0.000000 0.000000 0.000000 0.000000 0.044062
#
#
# Mechanical properties :
#
#
# Convention : Reuss Voigt Hill
#
# Bulk Modulus (GPa) = 45.92943 46.58634 46.25789
# Shear Modulus (GPa) = 19.13181 22.03344 20.58262
#
# Velocity S-wave (km/s) = 3.05707 3.28071 3.17086
# Velocity P-wave (km/s) = 5.90736 6.09161 6.00019
#
# Compressibility (1/GPa) = 0.02177253
#
# Stress axis : x y z
#
# Youngs Moduli (GPa) = 74.22844 54.27959 68.54878
#
# Poissons Ratio (x) = 0.36008 -0.06682
# Poissons Ratio (y) = 0.49241 0.45902
# Poissons Ratio (z) = -0.07235 0.36347
#
# Static dielectric constant tensor:
#      x y z
#    x 1.743130 0.000000 0.000000 
#    y 0.000000 1.869680 0.000000 
#    z 0.000000 0.000000 1.799530 
# 
# From -- ./inp_files/2752.got.cif
#   From: 2010.05.17/outbox.cif.g08.bks.cpg/sg68_2_cif.got.tgz:2752.got - 2010.06.03 18:57:09.
