data_PCOD9506438
_publ_section_title
;
Structure prediction by ZEFSAII (Michael W. Deem and Ramdas Pophale) SiO2 
 PCOD9506438
Probable space group: C C C A
;
_chemical_formula_sum "Si O2"
_cell_formula_units_Z 104
_cell_length_a 8.756654
_cell_length_b 20.748704
_cell_length_c 29.012497
_cell_angle_alpha 90.000000
_cell_angle_beta 90.000000
_cell_angle_gamma 90.000000
_cell_volume 5271.258005
_symmetry_space_group_name_H-M "C C C A"
_symmetry_group_IT_number 68
_space_group.IT_coordinate_system_code '2'
_symmetry_cell_setting 'orthorhombic'
loop_
_space_group_symop_operation_xyz
x,y,z
-x,1/2-y,z
x,1/2-y,1/2-z
-x,y,1/2-z
-x,-y,-z
x,1/2+y,-z
-x,1/2+y,1/2+z
x,-y,1/2+z
1/2+x,1/2+y,z
1/2-x,-y,z
1/2+x,-y,1/2-z
1/2-x,1/2+y,1/2-z
1/2-x,1/2-y,-z
1/2+x,y,-z
1/2-x,y,1/2+z
1/2+x,1/2-y,1/2+z
loop_
_atom_site_type_symbol
_atom_site_label
_atom_site_fract_x
_atom_site_fract_y
_atom_site_fract_z
Si Si1 0.250000 0.500000 0.979647
Si Si2 0.338488 0.933151 0.773357
Si Si3 0.647532 0.791751 0.965816
Si Si4 0.900921 0.148537 0.636830
Si Si5 0.334220 0.315759 0.772021
Si Si6 0.478161 0.915302 0.959604
Si Si7 0.228311 0.712885 0.366737
O O1 0.383276 0.534884 0.951169
O O2 0.345602 0.449592 0.011268
O O3 0.500000 0.946163 0.750000
O O4 0.357192 0.900656 0.823357
O O5 0.256832 0.878847 0.742417
O O6 0.250000 0.000000 0.776218
O O7 0.500000 0.750000 0.950034
O O8 0.566095 0.855921 0.984872
O O9 0.746382 0.806825 0.920141
O O10 0.750000 0.750000 0.000000
O O11 0.913082 0.113356 0.587645
O O12 0.789062 0.209884 0.634509
O O13 0.067234 0.179574 0.647016
O O14 0.262549 0.250000 0.750000
O O15 0.500000 0.320795 0.750000
O O16 0.342962 0.308199 0.827065
#
# Coordination Sequence:
#
# PCOD9506438 Si02
#       7
#     8  16  16  16  16  16  16
#     4  10  22  40  64  86 126 182 216 258 322 394
#     4  12  25  42  64  93 129 172 213 266 335 387
#     4  11  21  38  63  96 133 162 211 280 338 393
#     4  10  20  38  66  94 121 162 219 265 319 405
#     4  11  23  41  67  94 129 162 217 281 321 392
#     4  10  21  39  62  93 126 168 223 260 320 395
#     4  10  19  40  68  94 120 171 216 263 338 399
#
# _framework density 19.729635999999999
#
# number of rings (size 3 to 8) (size 9 to 14) (size 15 to 20)
#    0.000    1.385    6.154    1.385    1.077    0.308 
#    4.154    1.538    0.000    0.000    0.000    0.000 
#    0.000    0.000    0.000    0.000    0.000    0.000 
#
# Total GULP energy -290228.110566 kJ/mol
# GULP energy per Si atom -5581.309819 kJ/mol
# Density = 1.968473 g / cm^3
# Si number density = 19.729636 Si / 1000 Ang^3
#
#
#
# Elastic Constant Matrix: (Units=GPa)
#
#
# Indices 1 2 3 4 5 6 
#
# 1 76.6701 47.6109 46.3217 0.0000 0.0000 0.0000
# 2 47.6109 143.3817 49.9528 0.0000 0.0000 0.0000
# 3 46.3217 49.9528 113.2049 0.0000 0.0000 0.0000
# 4 0.0000 0.0000 0.0000 63.4633 0.0000 0.0000
# 5 0.0000 0.0000 0.0000 0.0000 22.5558 0.0000
# 6 0.0000 0.0000 0.0000 0.0000 0.0000 26.1668
#
#
#
# Elastic Compliance Matrix: (Units=1/GPa)
#
#
# Indices 1 2 3 4 5 6 
#
# 1 0.019368 -0.004337 -0.006011 0.000000 0.000000 0.000000
# 2 -0.004337 0.009212 -0.002290 0.000000 0.000000 0.000000
# 3 -0.006011 -0.002290 0.012304 0.000000 0.000000 0.000000
# 4 0.000000 0.000000 0.000000 0.015757 0.000000 0.000000
# 5 0.000000 0.000000 0.000000 0.000000 0.044335 0.000000
# 6 0.000000 0.000000 0.000000 0.000000 0.000000 0.038216
#
#
# Mechanical properties :
#
#
# Convention : Reuss Voigt Hill
#
# Bulk Modulus (GPa) = 64.07445 69.00305 66.53875
# Shear Modulus (GPa) = 29.46857 35.06194 32.26526
#
# Velocity S-wave (km/s) = 3.86893 4.22016 4.04836
# Velocity P-wave (km/s) = 7.24603 7.66790 7.45994
#
# Compressibility (1/GPa) = 0.01560685
#
# Stress axis : x y z
#
# Youngs Moduli (GPa) = 51.63174 108.54823 81.27454
#
# Poissons Ratio (x) = 0.47077 0.48857
# Poissons Ratio (y) = 0.22393 0.18616
# Poissons Ratio (z) = 0.31037 0.24863
#
# Static dielectric constant tensor:
#      x y z
#    x 1.700880 0.000000 0.000000 
#    y 0.000000 1.729120 0.000000 
#    z 0.000000 0.000000 1.699780 
# 
# From -- ./inp_files/49407.got.cif
#   From: 2010.05.17/outbox.cif.g08.bks.cpg/sg68_25_cif.got.tgz:49407.got - 2010.06.03 18:57:09.
