data_PCOD9506334
_publ_section_title
;
Structure prediction by ZEFSAII (Michael W. Deem and Ramdas Pophale) SiO2 
 PCOD9506334
Probable space group: C C C A
;
_chemical_formula_sum "Si O2"
_cell_formula_units_Z 112
_cell_length_a 13.818838
_cell_length_b 14.682316
_cell_length_c 27.948191
_cell_angle_alpha 90.000000
_cell_angle_beta 90.000000
_cell_angle_gamma 90.000000
_cell_volume 5670.479636
_symmetry_space_group_name_H-M "C C C A"
_symmetry_group_IT_number 68
_space_group.IT_coordinate_system_code '2'
_symmetry_cell_setting 'orthorhombic'
loop_
_space_group_symop_operation_xyz
x,y,z
-x,1/2-y,z
x,1/2-y,1/2-z
-x,y,1/2-z
-x,-y,-z
x,1/2+y,-z
-x,1/2+y,1/2+z
x,-y,1/2+z
1/2+x,1/2+y,z
1/2-x,-y,z
1/2+x,-y,1/2-z
1/2-x,1/2+y,1/2-z
1/2-x,1/2-y,-z
1/2+x,y,-z
1/2-x,y,1/2+z
1/2+x,1/2-y,1/2+z
loop_
_atom_site_type_symbol
_atom_site_label
_atom_site_fract_x
_atom_site_fract_y
_atom_site_fract_z
Si Si1 0.974975 0.143291 0.304504
Si Si2 0.109187 0.250562 0.693401
Si Si3 0.770545 0.693280 0.062109
Si Si4 0.401774 0.063833 0.892215
Si Si5 0.594100 0.306797 0.980924
Si Si6 0.179703 0.872897 0.382817
Si Si7 0.237999 0.894698 0.660363
O O1 0.861367 0.135896 0.315222
O O2 0.000000 0.250000 0.308568
O O3 0.000000 0.113648 0.250000
O O4 0.033434 0.090105 0.346237
O O5 0.106807 0.250000 0.750000
O O6 0.157029 0.339791 0.670640
O O7 0.171911 0.163947 0.678630
O O8 0.000000 0.250000 0.674403
O O9 0.673422 0.734601 0.038990
O O10 0.824442 0.781954 0.084895
O O11 0.737253 0.626941 0.104009
O O12 0.845289 0.649836 0.024603
O O13 0.432184 0.120650 0.939401
O O14 0.291103 0.096171 0.883957
O O15 0.390226 0.955014 0.898350
O O16 0.500000 0.250000 0.995347
O O17 0.250000 0.000000 0.669767
#
# Coordination Sequence:
#
# PCOD9506334 Si02
#       7
#    16  16  16  16  16  16  16
#     4  11  24  40  67  96 129 174 221 271 338 393
#     4  10  23  41  64  87 128 176 213 255 330 402
#     4   9  20  40  60  88 126 167 210 261 336 395
#     4  10  20  38  63  94 126 163 218 283 322 389
#     4  10  19  37  63  90 120 169 215 267 328 393
#     4   9  20  38  63  86 124 170 211 270 325 397
#     4  11  25  43  64  97 133 167 215 282 326 383
#
# _framework density 19.751415000000001
#
# number of rings (size 3 to 8) (size 9 to 14) (size 15 to 20)
#    0.000    2.000    0.000    3.857    6.000    3.429 
#    7.714    0.714    0.000    0.000    0.000    0.000 
#    0.000    0.000    0.000    0.000    0.000    0.000 
#
# Total GULP energy -312470.031868 kJ/mol
# GULP energy per Si atom -5579.821998 kJ/mol
# Density = 1.970646 g / cm^3
# Si number density = 19.751415 Si / 1000 Ang^3
#
#
#
# Elastic Constant Matrix: (Units=GPa)
#
#
# Indices 1 2 3 4 5 6 
#
# 1 101.1236 36.0154 40.1270 0.0000 0.0000 0.0000
# 2 36.0154 74.9771 5.1040 0.0000 0.0000 0.0000
# 3 40.1270 5.1040 79.3961 0.0000 0.0000 0.0000
# 4 0.0000 0.0000 0.0000 -1.3902 0.0000 0.0000
# 5 0.0000 0.0000 0.0000 0.0000 32.5918 0.0000
# 6 0.0000 0.0000 0.0000 0.0000 0.0000 12.9976
#
#
#
# Elastic Compliance Matrix: (Units=1/GPa)
#
#
# Indices 1 2 3 4 5 6 
#
# 1 0.015182 -0.006800 -0.007236 0.000000 0.000000 0.000000
# 2 -0.006800 0.016442 0.002380 0.000000 0.000000 0.000000
# 3 -0.007236 0.002380 0.016099 0.000000 0.000000 0.000000
# 4 0.000000 0.000000 0.000000 -0.719311 0.000000 0.000000
# 5 0.000000 0.000000 0.000000 0.000000 0.030683 0.000000
# 6 0.000000 0.000000 0.000000 0.000000 0.000000 0.076937
#
#
# Mechanical properties :
#
#
# Convention : Reuss Voigt Hill
#
# Bulk Modulus (GPa) = 40.96573 46.44327 43.70450
# Shear Modulus (GPa) = -9.38933 20.45654 5.53360
#
# Velocity S-wave (km/s) = -2.18267 3.22172 1.67562
# Velocity P-wave (km/s) = 3.79916 6.11590 5.09106
#
# Compressibility (1/GPa) = 0.02441065
#
# Stress axis : x y z
#
# Youngs Moduli (GPa) = 65.86714 60.82031 62.11514
#
# Poissons Ratio (x) = 0.41359 0.44946
# Poissons Ratio (y) = 0.44791 -0.14782
# Poissons Ratio (z) = 0.47661 -0.14474
#
# Static dielectric constant tensor:
#      x y z
#    x 1.701480 0.000000 0.000000 
#    y 0.000000 1.676490 0.000000 
#    z 0.000000 0.000000 1.742170 
# 
# From -- ./inp_files/54843.got.cif
#   From: 2010.05.17/outbox.cif.g08.bks.cpg/sg68_28_cif.got.tgz:54843.got - 2010.06.03 18:57:09.
