data_PCOD9506586
_publ_section_title
;
Structure prediction by ZEFSAII (Michael W. Deem and Ramdas Pophale) SiO2 
 PCOD9506586
Probable space group: C C C A
;
_chemical_formula_sum "Si O2"
_cell_formula_units_Z 96
_cell_length_a 19.098866
_cell_length_b 15.659378
_cell_length_c 16.161074
_cell_angle_alpha 90.000000
_cell_angle_beta 90.000000
_cell_angle_gamma 90.000000
_cell_volume 4833.395219
_symmetry_space_group_name_H-M "C C C A"
_symmetry_group_IT_number 68
_space_group.IT_coordinate_system_code '2'
_symmetry_cell_setting 'orthorhombic'
loop_
_space_group_symop_operation_xyz
x,y,z
-x,1/2-y,z
x,1/2-y,1/2-z
-x,y,1/2-z
-x,-y,-z
x,1/2+y,-z
-x,1/2+y,1/2+z
x,-y,1/2+z
1/2+x,1/2+y,z
1/2-x,-y,z
1/2+x,-y,1/2-z
1/2-x,1/2+y,1/2-z
1/2-x,1/2-y,-z
1/2+x,y,-z
1/2-x,y,1/2+z
1/2+x,1/2-y,1/2+z
loop_
_atom_site_type_symbol
_atom_site_label
_atom_site_fract_x
_atom_site_fract_y
_atom_site_fract_z
Si Si1 0.827878 0.504104 0.218255
Si Si2 0.978907 0.664179 0.885131
Si Si3 0.044332 0.330293 0.564641
Si Si4 0.024087 0.020833 0.661227
Si Si5 0.836095 0.674753 0.816575
Si Si6 0.324630 0.678860 0.678395
O O1 0.750000 0.500000 0.180817
O O2 0.892194 0.517678 0.156473
O O3 0.838914 0.415777 0.267955
O O4 0.830022 0.585245 0.279701
O O5 0.894494 0.670305 0.888251
O O6 0.000000 0.750000 0.838433
O O7 0.996344 0.574928 0.844156
O O8 0.027215 0.667986 0.967224
O O9 0.121604 0.318522 0.601981
O O10 0.000000 0.250000 0.598534
O O11 0.012011 0.418842 0.595552
O O12 0.000000 0.056420 0.750000
O O13 0.850397 0.750000 0.750000
O O14 0.756651 0.689475 0.846665
O O15 0.340020 0.750000 0.750000
#
# Coordination Sequence:
#
# PCOD9506586 Si02
#       6
#    16  16  16  16  16  16
#     4  10  20  34  54  88 115 142 195 247 289 334
#     4  11  24  39  57  88 123 155 193 244 306 360
#     4  11  24  39  57  88 123 155 193 244 306 360
#     4  12  21  36  63  88 112 158 203 247 290 355
#     4  10  20  36  60  87 116 154 200 248 292 348
#     4  10  20  36  60  87 116 154 200 248 292 348
#
# _framework density 19.861813999999999
#
# number of rings (size 3 to 8) (size 9 to 14) (size 15 to 20)
#    0.000    1.333    3.333    2.500    0.000    0.000 
#    0.000    5.000    0.000    0.000    0.000    0.000 
#    0.000    0.000    0.000    0.000    0.000    0.000 
#
# Total GULP energy -267625.487851 kJ/mol
# GULP energy per Si atom -5575.530997 kJ/mol
# Density = 1.981661 g / cm^3
# Si number density = 19.861814 Si / 1000 Ang^3
#
#
#
# Elastic Constant Matrix: (Units=GPa)
#
#
# Indices 1 2 3 4 5 6 
#
# 1 185.5317 7.1824 46.1991 0.0000 0.0000 0.0000
# 2 7.1824 111.9827 13.1189 0.0000 0.0000 0.0000
# 3 46.1991 13.1189 71.4478 0.0000 0.0000 0.0000
# 4 0.0000 0.0000 0.0000 95.2814 0.0000 0.0000
# 5 0.0000 0.0000 0.0000 0.0000 24.8026 0.0000
# 6 0.0000 0.0000 0.0000 0.0000 0.0000 18.5798
#
#
#
# Elastic Compliance Matrix: (Units=1/GPa)
#
#
# Indices 1 2 3 4 5 6 
#
# 1 0.006425 0.000076 -0.004168 0.000000 0.000000 0.000000
# 2 0.000076 0.009127 -0.001725 0.000000 0.000000 0.000000
# 3 -0.004168 -0.001725 0.017008 0.000000 0.000000 0.000000
# 4 0.000000 0.000000 0.000000 0.010495 0.000000 0.000000
# 5 0.000000 0.000000 0.000000 0.000000 0.040318 0.000000
# 6 0.000000 0.000000 0.000000 0.000000 0.000000 0.053822
#
#
# Mechanical properties :
#
#
# Convention : Reuss Voigt Hill
#
# Bulk Modulus (GPa) = 47.78815 55.77370 51.78092
# Shear Modulus (GPa) = 32.09118 47.89689 39.99403
#
# Velocity S-wave (km/s) = 4.02397 4.91604 4.49220
# Velocity P-wave (km/s) = 6.76035 7.76949 7.28242
#
# Compressibility (1/GPa) = 0.02092569
#
# Stress axis : x y z
#
# Youngs Moduli (GPa) = 155.64329 109.56305 58.79456
#
# Poissons Ratio (x) = -0.00835 0.24508
# Poissons Ratio (y) = -0.01187 0.10143
# Poissons Ratio (z) = 0.64879 0.18902
#
# Static dielectric constant tensor:
#      x y z
#    x 1.738940 0.000000 0.000000 
#    y 0.000000 1.700430 0.000000 
#    z 0.000000 0.000000 1.684050 
# 
# From -- ./inp_files/24479.got.cif
#   From: 2010.05.17/outbox.cif.g08.bks.cpg/sg68_13_cif.got.tgz:24479.got - 2010.06.03 18:57:09.
