data_PCOD9506410
_publ_section_title
;
Structure prediction by ZEFSAII (Michael W. Deem and Ramdas Pophale) SiO2 
 PCOD9506410
Probable space group: C C C A
;
_chemical_formula_sum "Si O2"
_cell_formula_units_Z 72
_cell_length_a 14.563271
_cell_length_b 14.884677
_cell_length_c 13.167016
_cell_angle_alpha 90.000000
_cell_angle_beta 90.000000
_cell_angle_gamma 90.000000
_cell_volume 2854.208593
_symmetry_space_group_name_H-M "C C C A"
_symmetry_group_IT_number 68
_space_group.IT_coordinate_system_code '2'
_symmetry_cell_setting 'orthorhombic'
loop_
_space_group_symop_operation_xyz
x,y,z
-x,1/2-y,z
x,1/2-y,1/2-z
-x,y,1/2-z
-x,-y,-z
x,1/2+y,-z
-x,1/2+y,1/2+z
x,-y,1/2+z
1/2+x,1/2+y,z
1/2-x,-y,z
1/2+x,-y,1/2-z
1/2-x,1/2+y,1/2-z
1/2-x,1/2-y,-z
1/2+x,y,-z
1/2-x,y,1/2+z
1/2+x,1/2-y,1/2+z
loop_
_atom_site_type_symbol
_atom_site_label
_atom_site_fract_x
_atom_site_fract_y
_atom_site_fract_z
Si Si1 0.121600 0.814107 0.462517
Si Si2 0.335358 0.444382 0.326419
Si Si3 0.506991 0.941518 0.398605
Si Si4 0.680451 0.878792 0.048598
Si Si5 0.115843 0.750000 0.250000
O O1 0.064333 0.859001 0.553112
O O2 0.211742 0.870445 0.427948
O O3 0.152044 0.720574 0.511732
O O4 0.074271 0.795545 0.353180
O O5 0.250000 0.500000 0.282530
O O6 0.430197 0.500731 0.321856
O O7 0.322862 0.437425 0.447402
O O8 0.335287 0.340016 0.292595
O O9 0.401526 0.911620 0.377473
O O10 0.500000 0.000000 0.500000
#
# Coordination Sequence:
#
# PCOD9506410 Si02
#       5
#    16  16  16  16   8
#     4  10  19  39  63  94 131 166 219 269 330 396
#     4  10  19  40  62  91 130 169 226 274 330 402
#     4  10  20  35  63  94 121 171 225 269 312 394
#     4   9  19  35  66  94 122 172 221 267 319 392
#     4  10  24  40  67  97 132 180 206 276 361 395
#
# _framework density 25.225905000000001
#
# number of rings (size 3 to 8) (size 9 to 14) (size 15 to 20)
#    0.000    2.222    2.222    0.667    0.000    0.000 
#    8.000   20.000    0.000    1.333    0.000    0.000 
#    0.000    0.000    0.000    0.000    0.000    0.000 
#
# Total GULP energy -200450.389496 kJ/mol
# GULP energy per Si atom -5568.066375 kJ/mol
# Density = 2.516849 g / cm^3
# Si number density = 25.225905 Si / 1000 Ang^3
#
#
#
# Elastic Constant Matrix: (Units=GPa)
#
#
# Indices 1 2 3 4 5 6 
#
# 1 197.8577 65.6960 32.4248 0.0000 0.0000 0.0000
# 2 65.6960 129.9895 24.9856 0.0000 0.0000 0.0000
# 3 32.4248 24.9856 72.6703 0.0000 0.0000 0.0000
# 4 0.0000 0.0000 0.0000 7.2896 0.0000 0.0000
# 5 0.0000 0.0000 0.0000 0.0000 11.3387 0.0000
# 6 0.0000 0.0000 0.0000 0.0000 0.0000 48.9306
#
#
#
# Elastic Compliance Matrix: (Units=1/GPa)
#
#
# Indices 1 2 3 4 5 6 
#
# 1 0.006294 -0.002828 -0.001836 0.000000 0.000000 0.000000
# 2 -0.002828 0.009508 -0.002007 0.000000 0.000000 0.000000
# 3 -0.001836 -0.002007 0.015270 0.000000 0.000000 0.000000
# 4 0.000000 0.000000 0.000000 0.137182 0.000000 0.000000
# 5 0.000000 0.000000 0.000000 0.000000 0.088193 0.000000
# 6 0.000000 0.000000 0.000000 0.000000 0.000000 0.020437
#
#
# Mechanical properties :
#
#
# Convention : Reuss Voigt Hill
#
# Bulk Modulus (GPa) = 56.40272 71.85890 64.13081
# Shear Modulus (GPa) = 16.88407 32.00586 24.44496
#
# Velocity S-wave (km/s) = 2.58992 3.56584 3.11632
# Velocity P-wave (km/s) = 5.59921 6.74549 6.19890
#
# Compressibility (1/GPa) = 0.01772964
#
# Stress axis : x y z
#
# Youngs Moduli (GPa) = 158.88042 105.17421 65.48743
#
# Poissons Ratio (x) = 0.29744 0.12023
# Poissons Ratio (y) = 0.44933 0.13145
# Poissons Ratio (z) = 0.29170 0.21111
#
# Static dielectric constant tensor:
#      x y z
#    x 1.779440 0.000000 0.000000 
#    y 0.000000 2.130760 0.000000 
#    z 0.000000 0.000000 1.968060 
# 
# From -- ./inp_files/23348.got.cif
#   From: 2010.05.17/outbox.cif.g08.bks.cpg/sg68_12_cif.got.tgz:23348.got - 2010.06.03 18:57:09.
