data_PCOD9506437
_publ_section_title
;
Structure prediction by ZEFSAII (Michael W. Deem and Ramdas Pophale) SiO2 
 PCOD9506437
Probable space group: C C C A
;
_chemical_formula_sum "Si O2"
_cell_formula_units_Z 56
_cell_length_a 12.007070
_cell_length_b 9.849627
_cell_length_c 22.382260
_cell_angle_alpha 90.000000
_cell_angle_beta 90.000000
_cell_angle_gamma 90.000000
_cell_volume 2647.041579
_symmetry_space_group_name_H-M "C C C A"
_symmetry_group_IT_number 68
_space_group.IT_coordinate_system_code '2'
_symmetry_cell_setting 'orthorhombic'
loop_
_space_group_symop_operation_xyz
x,y,z
-x,1/2-y,z
x,1/2-y,1/2-z
-x,y,1/2-z
-x,-y,-z
x,1/2+y,-z
-x,1/2+y,1/2+z
x,-y,1/2+z
1/2+x,1/2+y,z
1/2-x,-y,z
1/2+x,-y,1/2-z
1/2-x,1/2+y,1/2-z
1/2-x,1/2-y,-z
1/2+x,y,-z
1/2-x,y,1/2+z
1/2+x,1/2-y,1/2+z
loop_
_atom_site_type_symbol
_atom_site_label
_atom_site_fract_x
_atom_site_fract_y
_atom_site_fract_z
Si Si1 0.116391 0.989762 0.925715
Si Si2 0.750000 0.500000 0.126878
Si Si3 0.527969 0.591312 0.683862
Si Si4 0.862860 0.195109 0.469821
O O1 0.048568 0.022866 0.866419
O O2 0.250000 0.000000 0.915753
O O3 0.086318 0.837127 0.946454
O O4 0.088891 0.100219 0.977162
O O5 0.656938 0.427118 0.166599
O O6 0.820193 0.399531 0.084102
O O7 0.500000 0.750000 0.682586
O O8 0.500000 0.538231 0.750000
O O9 0.750000 0.250000 0.500000
#
# Coordination Sequence:
#
# PCOD9506437 Si02
#       4
#    16   8  16  16
#     4  10  21  41  70 105 142 184 235 294 366 428
#     4  12  24  46  70 104 146 180 246 300 358 440
#     4  11  27  48  72 102 141 200 240 293 356 431
#     4  10  19  40  67 107 144 178 228 298 367 426
#
# _framework density 21.155692999999999
#
# number of rings (size 3 to 8) (size 9 to 14) (size 15 to 20)
#    0.000    1.429    4.286    3.429    2.000    2.286 
#    5.143    1.429    0.000    0.000    0.000    0.000 
#    0.000    0.000    0.000    0.000    0.000    0.000 
#
# Total GULP energy -156544.172128 kJ/mol
# GULP energy per Si atom -5590.863290 kJ/mol
# Density = 2.110754 g / cm^3
# Si number density = 21.155693 Si / 1000 Ang^3
#
#
#
# Elastic Constant Matrix: (Units=GPa)
#
#
# Indices 1 2 3 4 5 6 
#
# 1 108.3970 34.9536 82.8690 0.0000 0.0000 0.0000
# 2 34.9536 145.8660 88.1177 0.0000 0.0000 0.0000
# 3 82.8690 88.1177 196.4225 0.0000 0.0000 0.0000
# 4 0.0000 0.0000 0.0000 35.9984 0.0000 0.0000
# 5 0.0000 0.0000 0.0000 0.0000 13.1714 0.0000
# 6 0.0000 0.0000 0.0000 0.0000 0.0000 53.0595
#
#
#
# Elastic Compliance Matrix: (Units=1/GPa)
#
#
# Indices 1 2 3 4 5 6 
#
# 1 0.013626 0.000285 -0.005876 0.000000 0.000000 0.000000
# 2 0.000285 0.009410 -0.004342 0.000000 0.000000 0.000000
# 3 -0.005876 -0.004342 0.009518 0.000000 0.000000 0.000000
# 4 0.000000 0.000000 0.000000 0.027779 0.000000 0.000000
# 5 0.000000 0.000000 0.000000 0.000000 0.075922 0.000000
# 6 0.000000 0.000000 0.000000 0.000000 0.000000 0.018847
#
#
# Mechanical properties :
#
#
# Convention : Reuss Voigt Hill
#
# Bulk Modulus (GPa) = 78.81749 95.84070 87.32910
# Shear Modulus (GPa) = 27.90212 36.76222 32.33217
#
# Velocity S-wave (km/s) = 3.63560 4.17309 3.91358
# Velocity P-wave (km/s) = 7.41352 8.28375 7.86069
#
# Compressibility (1/GPa) = 0.01268754
#
# Stress axis : x y z
#
# Youngs Moduli (GPa) = 73.38874 106.26793 105.06354
#
# Poissons Ratio (x) = -0.03027 0.61741
# Poissons Ratio (y) = -0.02090 0.45615
# Poissons Ratio (z) = 0.43127 0.46138
#
# Static dielectric constant tensor:
#      x y z
#    x 1.932220 0.000000 0.000000 
#    y 0.000000 1.696970 0.000000 
#    z 0.000000 0.000000 1.734680 
# 
# From -- ./inp_files/38106.got.cif
#   From: 2010.05.17/outbox.cif.g08.bks.cpg/sg68_20_cif.got.tgz:38106.got - 2010.06.03 18:57:09.
