data_PCOD9506169
_publ_section_title
;
Structure prediction by ZEFSAII (Michael W. Deem and Ramdas Pophale) SiO2 
 PCOD9506169
Probable space group: C C C A
;
_chemical_formula_sum "Si O2"
_cell_formula_units_Z 96
_cell_length_a 18.860726
_cell_length_b 16.418519
_cell_length_c 17.085847
_cell_angle_alpha 90.000000
_cell_angle_beta 90.000000
_cell_angle_gamma 90.000000
_cell_volume 5290.892027
_symmetry_space_group_name_H-M "C C C A"
_symmetry_group_IT_number 68
_space_group.IT_coordinate_system_code '2'
_symmetry_cell_setting 'orthorhombic'
loop_
_space_group_symop_operation_xyz
x,y,z
-x,1/2-y,z
x,1/2-y,1/2-z
-x,y,1/2-z
-x,-y,-z
x,1/2+y,-z
-x,1/2+y,1/2+z
x,-y,1/2+z
1/2+x,1/2+y,z
1/2-x,-y,z
1/2+x,-y,1/2-z
1/2-x,1/2+y,1/2-z
1/2-x,1/2-y,-z
1/2+x,y,-z
1/2-x,y,1/2+z
1/2+x,1/2-y,1/2+z
loop_
_atom_site_type_symbol
_atom_site_label
_atom_site_fract_x
_atom_site_fract_y
_atom_site_fract_z
Si Si1 0.398609 0.977626 0.818034
Si Si2 0.424888 0.704812 0.961762
Si Si3 0.177701 0.525206 0.957869
Si Si4 0.556914 0.457426 0.139325
Si Si5 0.816540 0.342574 0.916647
Si Si6 0.660375 0.383639 0.910389
O O1 0.474297 0.979446 0.862221
O O2 0.416149 0.958318 0.728409
O O3 0.351654 0.905624 0.855312
O O4 0.363553 0.065516 0.834485
O O5 0.500000 0.750000 0.968396
O O6 0.434277 0.629144 0.902967
O O7 0.364282 0.763101 0.925624
O O8 0.397223 0.671529 0.045435
O O9 0.250000 0.500000 0.913431
O O10 0.107341 0.518064 0.907871
O O11 0.181437 0.611706 0.999538
O O12 0.174609 0.457065 0.026931
O O13 0.733342 0.334886 0.897813
#
# Coordination Sequence:
#
# PCOD9506169 Si02
#       6
#    16  16  16  16  16  16
#     4  10  20  35  54  79 109 149 186 231 273 330
#     4  11  21  34  56  87 114 146 181 234 291 336
#     4   8  17  32  53  77 105 138 183 231 263 317
#     4  10  21  34  52  84 110 143 188 230 277 330
#     4  10  19  35  55  83 111 144 180 235 284 335
#     4   9  20  35  56  79 109 145 190 227 272 329
#
# _framework density 18.144389
#
# number of rings (size 3 to 8) (size 9 to 14) (size 15 to 20)
#    0.000    2.333    1.667    2.000    2.333    4.000 
#    0.000    0.000    0.000    3.000    0.000    0.000 
#    0.000    0.000    0.000    0.000    0.000    0.000 
#
# Total GULP energy -267574.419060 kJ/mol
# GULP energy per Si atom -5574.467064 kJ/mol
# Density = 1.810309 g / cm^3
# Si number density = 18.144389 Si / 1000 Ang^3
#
#
#
# Elastic Constant Matrix: (Units=GPa)
#
#
# Indices 1 2 3 4 5 6 
#
# 1 105.9269 25.6105 25.8390 0.0000 0.0000 0.0000
# 2 25.6105 53.7574 3.2720 0.0000 0.0000 0.0000
# 3 25.8390 3.2720 31.1461 0.0000 0.0000 0.0000
# 4 0.0000 0.0000 0.0000 8.1031 0.0000 0.0000
# 5 0.0000 0.0000 0.0000 0.0000 -0.3157 0.0000
# 6 0.0000 0.0000 0.0000 0.0000 0.0000 27.8404
#
#
#
# Elastic Compliance Matrix: (Units=1/GPa)
#
#
# Indices 1 2 3 4 5 6 
#
# 1 0.013391 -0.005740 -0.010506 0.000000 0.000000 0.000000
# 2 -0.005740 0.021182 0.002537 0.000000 0.000000 0.000000
# 3 -0.010506 0.002537 0.040556 0.000000 0.000000 0.000000
# 4 0.000000 0.000000 0.000000 0.123409 0.000000 0.000000
# 5 0.000000 0.000000 0.000000 0.000000 -3.167978 0.000000
# 6 0.000000 0.000000 0.000000 0.000000 0.000000 0.035919
#
#
# Mechanical properties :
#
#
# Convention : Reuss Voigt Hill
#
# Bulk Modulus (GPa) = 20.95974 33.36371 27.16173
# Shear Modulus (GPa) = -1.72999 16.19950 7.23476
#
# Velocity S-wave (km/s) = -0.97751 2.99124 1.99899
# Velocity P-wave (km/s) = 3.20978 5.50979 4.50891
#
# Compressibility (1/GPa) = 0.04771052
#
# Stress axis : x y z
#
# Youngs Moduli (GPa) = 74.67611 47.20907 24.65699
#
# Poissons Ratio (x) = 0.27099 0.25906
# Poissons Ratio (y) = 0.42866 -0.06255
# Poissons Ratio (z) = 0.78458 -0.11976
#
# Static dielectric constant tensor:
#      x y z
#    x 1.667120 0.000000 0.000000 
#    y 0.000000 1.611700 0.000000 
#    z 0.000000 0.000000 1.611770 
# 
# From -- ./inp_files/31997.got.cif
#   From: 2010.05.17/outbox.cif.g08.bks.cpg/sg68_16_cif.got.tgz:31997.got - 2010.06.03 18:57:09.
