data_PCOD9506346
_publ_section_title
;
Structure prediction by ZEFSAII (Michael W. Deem and Ramdas Pophale) SiO2 
 PCOD9506346
Probable space group: C C C A
;
_chemical_formula_sum "Si O2"
_cell_formula_units_Z 52
_cell_length_a 17.335289
_cell_length_b 5.757869
_cell_length_c 20.894760
_cell_angle_alpha 90.000000
_cell_angle_beta 90.000000
_cell_angle_gamma 90.000000
_cell_volume 2085.596327
_symmetry_space_group_name_H-M "C C C A"
_symmetry_group_IT_number 68
_space_group.IT_coordinate_system_code '2'
_symmetry_cell_setting 'orthorhombic'
loop_
_space_group_symop_operation_xyz
x,y,z
-x,1/2-y,z
x,1/2-y,1/2-z
-x,y,1/2-z
-x,-y,-z
x,1/2+y,-z
-x,1/2+y,1/2+z
x,-y,1/2+z
1/2+x,1/2+y,z
1/2-x,-y,z
1/2+x,-y,1/2-z
1/2-x,1/2+y,1/2-z
1/2-x,1/2-y,-z
1/2+x,y,-z
1/2-x,y,1/2+z
1/2+x,1/2-y,1/2+z
loop_
_atom_site_type_symbol
_atom_site_label
_atom_site_fract_x
_atom_site_fract_y
_atom_site_fract_z
Si Si1 0.000000 0.750000 0.450953
Si Si2 0.205906 0.250000 0.750000
Si Si3 0.155651 0.859880 0.975614
Si Si4 0.500000 0.750000 0.250000
Si Si5 0.392713 0.008599 0.349673
O O1 0.068525 0.637829 0.492575
O O2 0.044986 0.906326 0.399997
O O3 0.250000 0.500000 0.755613
O O4 0.155485 0.291698 0.685870
O O5 0.157704 0.849060 0.897932
O O6 0.184936 0.617217 0.005041
O O7 0.558458 0.610579 0.294591
#
# Coordination Sequence:
#
# PCOD9506346 Si02
#       5
#     8   8  16   4  16
#     4  10  19  37  66 105 135 162 202 288 384 430
#     4  12  29  49  66  89 135 206 256 276 310 390
#     4  10  20  35  61  97 133 164 197 262 359 431
#     4  12  20  34  68 114 140 170 216 294 384 430
#     4  11  22  39  66  99 139 173 224 286 348 418
#
# _framework density 24.932915999999999
#
# number of rings (size 3 to 8) (size 9 to 14) (size 15 to 20)
#    0.000    1.231    0.000    9.231    0.000    7.385 
#    0.000    0.000    0.000   22.154    0.000    0.000 
#    0.000    0.000    0.000    0.000    0.000    0.000 
#
# Total GULP energy -145094.571840 kJ/mol
# GULP energy per Si atom -5580.560455 kJ/mol
# Density = 2.487617 g / cm^3
# Si number density = 24.932916 Si / 1000 Ang^3
#
#
#
# Elastic Constant Matrix: (Units=GPa)
#
#
# Indices 1 2 3 4 5 6 
#
# 1 71.0069 78.3924 35.2893 0.0000 0.0000 0.0000
# 2 78.3924 184.1112 87.1302 0.0000 0.0000 0.0000
# 3 35.2893 87.1302 211.5774 0.0000 0.0000 0.0000
# 4 0.0000 0.0000 0.0000 90.1903 0.0000 0.0000
# 5 0.0000 0.0000 0.0000 0.0000 59.5292 0.0000
# 6 0.0000 0.0000 0.0000 0.0000 0.0000 59.1242
#
#
#
# Elastic Compliance Matrix: (Units=1/GPa)
#
#
# Indices 1 2 3 4 5 6 
#
# 1 0.026589 -0.011455 0.000282 0.000000 0.000000 0.000000
# 2 -0.011455 0.011681 -0.002900 0.000000 0.000000 0.000000
# 3 0.000282 -0.002900 0.005874 0.000000 0.000000 0.000000
# 4 0.000000 0.000000 0.000000 0.011088 0.000000 0.000000
# 5 0.000000 0.000000 0.000000 0.000000 0.016798 0.000000
# 6 0.000000 0.000000 0.000000 0.000000 0.000000 0.016914
#
#
# Mechanical properties :
#
#
# Convention : Reuss Voigt Hill
#
# Bulk Modulus (GPa) = 62.50358 96.47993 79.49176
# Shear Modulus (GPa) = 40.84240 59.49432 50.16836
#
# Velocity S-wave (km/s) = 4.05173 4.89015 4.49055
# Velocity P-wave (km/s) = 6.85651 8.40622 7.67060
#
# Compressibility (1/GPa) = 0.01599908
#
# Stress axis : x y z
#
# Youngs Moduli (GPa) = 37.60915 85.60682 170.25616
#
# Poissons Ratio (x) = 0.98063 -0.04809
# Poissons Ratio (y) = 0.43082 0.49373
# Poissons Ratio (z) = -0.01062 0.24825
#
# Static dielectric constant tensor:
#      x y z
#    x 2.157380 0.000000 0.000000 
#    y 0.000000 2.111360 0.000000 
#    z 0.000000 0.000000 -2.788880 
# 
# From -- ./inp_files/39972.got.cif
#   From: 2010.05.17/outbox.cif.g08.bks.cpg/sg68_20_cif.got.tgz:39972.got - 2010.06.03 18:57:09.
