data_PCOD9506174
_publ_section_title
;
Structure prediction by ZEFSAII (Michael W. Deem and Ramdas Pophale) SiO2 
 PCOD9506174
Probable space group: C C C A
;
_chemical_formula_sum "Si O2"
_cell_formula_units_Z 84
_cell_length_a 23.966925
_cell_length_b 27.322755
_cell_length_c 5.338322
_cell_angle_alpha 90.000000
_cell_angle_beta 90.000000
_cell_angle_gamma 90.000000
_cell_volume 3495.759697
_symmetry_space_group_name_H-M "C C C A"
_symmetry_group_IT_number 68
_space_group.IT_coordinate_system_code '2'
_symmetry_cell_setting 'orthorhombic'
loop_
_space_group_symop_operation_xyz
x,y,z
-x,1/2-y,z
x,1/2-y,1/2-z
-x,y,1/2-z
-x,-y,-z
x,1/2+y,-z
-x,1/2+y,1/2+z
x,-y,1/2+z
1/2+x,1/2+y,z
1/2-x,-y,z
1/2+x,-y,1/2-z
1/2-x,1/2+y,1/2-z
1/2-x,1/2-y,-z
1/2+x,y,-z
1/2-x,y,1/2+z
1/2+x,1/2-y,1/2+z
loop_
_atom_site_type_symbol
_atom_site_label
_atom_site_fract_x
_atom_site_fract_y
_atom_site_fract_z
Si Si1 0.907351 0.176260 0.375715
Si Si2 0.721584 0.184955 0.854150
Si Si3 0.767800 0.426220 0.617609
Si Si4 0.883096 0.968731 0.493344
Si Si5 0.500000 0.250000 0.750000
Si Si6 0.939293 0.877133 0.357249
O O1 0.844102 0.194067 0.341841
O O2 0.956027 0.217005 0.408939
O O3 0.903222 0.140655 0.617844
O O4 0.924855 0.150834 0.113956
O O5 0.752317 0.203300 0.609555
O O6 0.737927 0.126461 0.849797
O O7 0.734152 0.449983 0.390586
O O8 0.831510 0.430587 0.533656
O O9 0.934902 0.933932 0.430619
O O10 0.881096 0.991658 0.769524
O O11 0.000000 0.866718 0.250000
#
# Coordination Sequence:
#
# PCOD9506174 Si02
#       6
#    16  16  16  16   4  16
#     4  12  25  47  75 111 149 181 248 302 370 449
#     4  10  20  39  68 100 139 191 229 281 357 440
#     4  10  19  35  56  86 124 177 229 280 350 405
#     4  12  26  40  62  99 140 188 247 305 347 407
#     4  12  28  50  80 122 140 186 236 324 356 430
#     4  12  24  46  71 100 142 200 247 295 375 431
#
# _framework density 24.029112000000001
#
# number of rings (size 3 to 8) (size 9 to 14) (size 15 to 20)
#    0.000    0.762    1.905    8.000    0.000    4.571 
#    0.000    0.952    0.000    0.000    0.000    0.000 
#    0.000    0.000    0.000    0.000    0.000    0.000 
#
# Total GULP energy -234675.273015 kJ/mol
# GULP energy per Si atom -5587.506500 kJ/mol
# Density = 2.397442 g / cm^3
# Si number density = 24.029112 Si / 1000 Ang^3
#
#
#
# Elastic Constant Matrix: (Units=GPa)
#
#
# Indices 1 2 3 4 5 6 
#
# 1 116.9756 34.5441 26.2597 0.0000 0.0000 0.0000
# 2 34.5441 94.9013 31.9878 0.0000 0.0000 0.0000
# 3 26.2597 31.9878 179.5558 0.0000 0.0000 0.0000
# 4 0.0000 0.0000 0.0000 6.6686 0.0000 0.0000
# 5 0.0000 0.0000 0.0000 0.0000 26.9541 0.0000
# 6 0.0000 0.0000 0.0000 0.0000 0.0000 24.5496
#
#
#
# Elastic Compliance Matrix: (Units=1/GPa)
#
#
# Indices 1 2 3 4 5 6 
#
# 1 0.009696 -0.003246 -0.000840 0.000000 0.000000 0.000000
# 2 -0.003246 0.012297 -0.001716 0.000000 0.000000 0.000000
# 3 -0.000840 -0.001716 0.005998 0.000000 0.000000 0.000000
# 4 0.000000 0.000000 0.000000 0.149957 0.000000 0.000000
# 5 0.000000 0.000000 0.000000 0.000000 0.037100 0.000000
# 6 0.000000 0.000000 0.000000 0.000000 0.000000 0.040734
#
#
# Mechanical properties :
#
#
# Convention : Reuss Voigt Hill
#
# Bulk Modulus (GPa) = 61.02356 64.11286 62.56821
# Shear Modulus (GPa) = 18.32520 31.54387 24.93454
#
# Velocity S-wave (km/s) = 2.76456 3.62710 3.22480
# Velocity P-wave (km/s) = 5.97003 6.65435 6.32146
#
# Compressibility (1/GPa) = 0.01638711
#
# Stress axis : x y z
#
# Youngs Moduli (GPa) = 103.13577 81.31854 166.72768
#
# Poissons Ratio (x) = 0.26398 0.14000
# Poissons Ratio (y) = 0.33481 0.28610
# Poissons Ratio (z) = 0.08660 0.13954
#
# Static dielectric constant tensor:
#      x y z
#    x 1.975600 0.000000 0.000000 
#    y 0.000000 1.992260 0.000000 
#    z 0.000000 0.000000 1.982360 
# 
# From -- ./inp_files/2066.got.cif
#   From: 2010.05.17/outbox.cif.g08.bks.cpg/sg68_2_cif.got.tgz:2066.got - 2010.06.03 18:57:09.
