data_PCOD9506375
_publ_section_title
;
Structure prediction by ZEFSAII (Michael W. Deem and Ramdas Pophale) SiO2 
 PCOD9506375
Probable space group: C C C A
;
_chemical_formula_sum "Si O2"
_cell_formula_units_Z 80
_cell_length_a 10.649969
_cell_length_b 25.014979
_cell_length_c 13.754483
_cell_angle_alpha 90.000000
_cell_angle_beta 90.000000
_cell_angle_gamma 90.000000
_cell_volume 3664.314635
_symmetry_space_group_name_H-M "C C C A"
_symmetry_group_IT_number 68
_space_group.IT_coordinate_system_code '2'
_symmetry_cell_setting 'orthorhombic'
loop_
_space_group_symop_operation_xyz
x,y,z
-x,1/2-y,z
x,1/2-y,1/2-z
-x,y,1/2-z
-x,-y,-z
x,1/2+y,-z
-x,1/2+y,1/2+z
x,-y,1/2+z
1/2+x,1/2+y,z
1/2-x,-y,z
1/2+x,-y,1/2-z
1/2-x,1/2+y,1/2-z
1/2-x,1/2-y,-z
1/2+x,y,-z
1/2-x,y,1/2+z
1/2+x,1/2-y,1/2+z
loop_
_atom_site_type_symbol
_atom_site_label
_atom_site_fract_x
_atom_site_fract_y
_atom_site_fract_z
Si Si1 0.645782 0.952697 0.138250
Si Si2 0.282195 0.597032 0.333894
Si Si3 0.354853 0.807823 0.780883
Si Si4 0.162113 0.877211 0.456492
Si Si5 0.967479 0.959800 0.364587
O O1 0.639989 0.930903 0.248086
O O2 0.706592 0.906175 0.073659
O O3 0.750000 0.000000 0.138432
O O4 0.520213 0.982398 0.102919
O O5 0.210264 0.644645 0.278477
O O6 0.347785 0.622208 0.427752
O O7 0.178153 0.554415 0.371259
O O8 0.303774 0.750000 0.750000
O O9 0.500000 0.808822 0.750000
O O10 0.343140 0.822563 0.894925
O O11 0.050834 0.913988 0.414004
O O12 0.000000 0.957333 0.250000
#
# Coordination Sequence:
#
# PCOD9506375 Si02
#       5
#    16  16  16  16  16
#     4   9  19  34  51  79 114 155 190 226 274 343
#     4  11  20  36  59  81 119 149 186 252 280 335
#     4  10  19  38  65  83 107 149 189 241 303 349
#     4  10  20  35  55  88 114 141 201 233 282 352
#     4  11  18  39  55  74 119 156 187 236 274 340
#
# _framework density 21.832187000000001
#
# number of rings (size 3 to 8) (size 9 to 14) (size 15 to 20)
#    0.000    1.800    8.000    0.000    0.000    4.000 
#    3.600    0.000    0.000    0.000    0.000    1.400 
#    0.000    0.000    0.000    0.000    0.000    0.000 
#
# Total GULP energy -223632.488172 kJ/mol
# GULP energy per Si atom -5590.812204 kJ/mol
# Density = 2.178250 g / cm^3
# Si number density = 21.832187 Si / 1000 Ang^3
#
#
#
# Elastic Constant Matrix: (Units=GPa)
#
#
# Indices 1 2 3 4 5 6 
#
# 1 54.1655 25.9214 8.9627 0.0000 0.0000 0.0000
# 2 25.9214 110.9009 17.7570 0.0000 0.0000 0.0000
# 3 8.9627 17.7570 132.9144 0.0000 0.0000 0.0000
# 4 0.0000 0.0000 0.0000 20.3089 0.0000 0.0000
# 5 0.0000 0.0000 0.0000 0.0000 21.2334 0.0000
# 6 0.0000 0.0000 0.0000 0.0000 0.0000 23.5403
#
#
#
# Elastic Compliance Matrix: (Units=1/GPa)
#
#
# Indices 1 2 3 4 5 6 
#
# 1 0.020864 -0.004753 -0.000772 0.000000 0.000000 0.000000
# 2 -0.004753 0.010297 -0.001055 0.000000 0.000000 0.000000
# 3 -0.000772 -0.001055 0.007717 0.000000 0.000000 0.000000
# 4 0.000000 0.000000 0.000000 0.049239 0.000000 0.000000
# 5 0.000000 0.000000 0.000000 0.000000 0.047096 0.000000
# 6 0.000000 0.000000 0.000000 0.000000 0.000000 0.042480
#
#
# Mechanical properties :
#
#
# Convention : Reuss Voigt Hill
#
# Bulk Modulus (GPa) = 38.88389 44.80701 41.84545
# Shear Modulus (GPa) = 25.07195 29.37252 27.22224
#
# Velocity S-wave (km/s) = 3.39247 3.67192 3.53496
# Velocity P-wave (km/s) = 5.76144 6.20848 5.98913
#
# Compressibility (1/GPa) = 0.02571759
#
# Stress axis : x y z
#
# Youngs Moduli (GPa) = 47.92873 97.11598 129.58983
#
# Poissons Ratio (x) = 0.46160 0.10003
# Poissons Ratio (y) = 0.22781 0.13674
# Poissons Ratio (z) = 0.03700 0.10247
#
# Static dielectric constant tensor:
#      x y z
#    x 1.858740 0.000000 0.000000 
#    y 0.000000 1.792340 0.000000 
#    z 0.000000 0.000000 1.843060 
# 
# From -- ./inp_files/21081.got.cif
#   From: 2010.05.17/outbox.cif.g08.bks.cpg/sg68_11_cif.got.tgz:21081.got - 2010.06.03 18:57:09.
