data_PCOD9506940
_publ_section_title
;
Structure prediction by ZEFSAII (Michael W. Deem and Ramdas Pophale) SiO2 
 PCOD9506940
Probable space group: C C C A
;
_chemical_formula_sum "Si O2"
_cell_formula_units_Z 64
_cell_length_a 12.152932
_cell_length_b 25.385947
_cell_length_c 9.509413
_cell_angle_alpha 90.000000
_cell_angle_beta 90.000000
_cell_angle_gamma 90.000000
_cell_volume 2933.784072
_symmetry_space_group_name_H-M "C C C A"
_symmetry_group_IT_number 68
_space_group.IT_coordinate_system_code '2'
_symmetry_cell_setting 'orthorhombic'
loop_
_space_group_symop_operation_xyz
x,y,z
-x,1/2-y,z
x,1/2-y,1/2-z
-x,y,1/2-z
-x,-y,-z
x,1/2+y,-z
-x,1/2+y,1/2+z
x,-y,1/2+z
1/2+x,1/2+y,z
1/2-x,-y,z
1/2+x,-y,1/2-z
1/2-x,1/2+y,1/2-z
1/2-x,1/2-y,-z
1/2+x,y,-z
1/2-x,y,1/2+z
1/2+x,1/2-y,1/2+z
loop_
_atom_site_type_symbol
_atom_site_label
_atom_site_fract_x
_atom_site_fract_y
_atom_site_fract_z
Si Si1 0.260291 0.439532 0.694624
Si Si2 0.236680 0.209722 0.622646
Si Si3 0.615751 0.110219 0.426981
Si Si4 0.579562 0.619043 0.124846
O O1 0.250000 0.500000 0.654330
O O2 0.301572 0.407022 0.556965
O O3 0.356601 0.430822 0.810063
O O4 0.154817 0.419260 0.784637
O O5 0.235391 0.250000 0.750000
O O6 0.250000 0.250000 0.500000
O O7 0.131673 0.171931 0.606256
O O8 0.334390 0.166666 0.614370
O O9 0.494032 0.103756 0.491145
O O10 0.500000 0.636915 0.250000
#
# Coordination Sequence:
#
# PCOD9506940 Si02
#       4
#    16  16  16  16
#     4  10  20  37  61  88 121 160 197 240 292 349
#     4  11  22  38  60  84 113 154 196 242 297 351
#     4  10  21  39  58  86 121 154 199 247 291 350
#     4   9  20  38  59  83 117 157 196 237 293 359
#
# _framework density 21.814829
#
# number of rings (size 3 to 8) (size 9 to 14) (size 15 to 20)
#    0.000    2.000    0.000    5.250    0.000    4.500 
#    0.000   20.000    0.000    0.000    0.000    0.000 
#    0.000    0.000    0.000    0.000    0.000    0.000 
#
# Total GULP energy -178415.854773 kJ/mol
# GULP energy per Si atom -5575.495462 kJ/mol
# Density = 2.176518 g / cm^3
# Si number density = 21.814829 Si / 1000 Ang^3
#
#
#
# Elastic Constant Matrix: (Units=GPa)
#
#
# Indices 1 2 3 4 5 6 
#
# 1 39.6028 8.1322 22.8928 0.0000 0.0000 0.0000
# 2 8.1322 124.3099 40.8094 0.0000 0.0000 0.0000
# 3 22.8928 40.8094 138.9517 0.0000 0.0000 0.0000
# 4 0.0000 0.0000 0.0000 2.9634 0.0000 0.0000
# 5 0.0000 0.0000 0.0000 0.0000 44.1717 0.0000
# 6 0.0000 0.0000 0.0000 0.0000 0.0000 9.5993
#
#
#
# Elastic Compliance Matrix: (Units=1/GPa)
#
#
# Indices 1 2 3 4 5 6 
#
# 1 0.027922 -0.000350 -0.004497 0.000000 0.000000 0.000000
# 2 -0.000350 0.008907 -0.002558 0.000000 0.000000 0.000000
# 3 -0.004497 -0.002558 0.008689 0.000000 0.000000 0.000000
# 4 0.000000 0.000000 0.000000 0.337446 0.000000 0.000000
# 5 0.000000 0.000000 0.000000 0.000000 0.022639 0.000000
# 6 0.000000 0.000000 0.000000 0.000000 0.000000 0.104175
#
#
# Mechanical properties :
#
#
# Convention : Reuss Voigt Hill
#
# Bulk Modulus (GPa) = 32.56610 49.61479 41.09045
# Shear Modulus (GPa) = 9.34883 26.74887 18.04885
#
# Velocity S-wave (km/s) = 2.07240 3.50548 2.87952
# Velocity P-wave (km/s) = 4.54833 6.25919 5.47105
#
# Compressibility (1/GPa) = 0.03070678
#
# Stress axis : x y z
#
# Youngs Moduli (GPa) = 35.81352 112.26895 115.08695
#
# Poissons Ratio (x) = 0.03931 0.51760
# Poissons Ratio (y) = 0.01254 0.29443
# Poissons Ratio (z) = 0.16107 0.28722
#
# Static dielectric constant tensor:
#      x y z
#    x 1.895660 0.000000 0.000000 
#    y 0.000000 1.695320 0.000000 
#    z 0.000000 0.000000 1.745720 
# 
# From -- ./inp_files/11682.got.cif
#   From: 2010.05.17/outbox.cif.g08.bks.cpg/sg68_6_cif.got.tgz:11682.got - 2010.06.03 18:57:09.
