data_PCOD9506908
_publ_section_title
;
Structure prediction by ZEFSAII (Michael W. Deem and Ramdas Pophale) SiO2 
 PCOD9506908
Probable space group: C C C A
;
_chemical_formula_sum "Si O2"
_cell_formula_units_Z 76
_cell_length_a 24.649134
_cell_length_b 7.056578
_cell_length_c 19.219784
_cell_angle_alpha 90.000000
_cell_angle_beta 90.000000
_cell_angle_gamma 90.000000
_cell_volume 3343.061105
_symmetry_space_group_name_H-M "C C C A"
_symmetry_group_IT_number 68
_space_group.IT_coordinate_system_code '2'
_symmetry_cell_setting 'orthorhombic'
loop_
_space_group_symop_operation_xyz
x,y,z
-x,1/2-y,z
x,1/2-y,1/2-z
-x,y,1/2-z
-x,-y,-z
x,1/2+y,-z
-x,1/2+y,1/2+z
x,-y,1/2+z
1/2+x,1/2+y,z
1/2-x,-y,z
1/2+x,-y,1/2-z
1/2-x,1/2+y,1/2-z
1/2-x,1/2-y,-z
1/2+x,y,-z
1/2-x,y,1/2+z
1/2+x,1/2-y,1/2+z
loop_
_atom_site_type_symbol
_atom_site_label
_atom_site_fract_x
_atom_site_fract_y
_atom_site_fract_z
Si Si1 0.406119 0.513837 0.181999
Si Si2 0.253511 0.718985 0.394272
Si Si3 0.000000 0.250000 0.250000
Si Si4 0.182864 0.750000 0.750000
Si Si5 0.630444 0.704140 0.596837
Si Si6 0.135715 0.267699 0.441840
O O1 0.460878 0.608458 0.208130
O O2 0.357815 0.573946 0.235262
O O3 0.404444 0.295512 0.158684
O O4 0.392207 0.624710 0.110601
O O5 0.250000 0.500000 0.413079
O O6 0.279562 0.733277 0.317453
O O7 0.191779 0.785042 0.393028
O O8 0.300617 0.795471 0.444724
O O9 0.613047 0.766526 0.519359
O O10 0.631674 0.476472 0.592191
#
# Coordination Sequence:
#
# PCOD9506908 Si02
#       6
#    16  16   4   8  16  16
#     4  10  22  42  66  85 121 162 212 279 321 377
#     4   9  20  31  50  88 130 173 207 239 286 374
#     4  10  24  52  70  88 116 162 220 288 350 374
#     4   9  20  35  52  84 124 167 208 247 306 360
#     4  11  20  36  62  91 130 167 203 252 310 384
#     4  10  20  37  58  94 129 161 206 245 312 381
#
# _framework density 22.733657000000001
#
# number of rings (size 3 to 8) (size 9 to 14) (size 15 to 20)
#    0.000    2.105    2.105    0.632    2.947    2.526 
#    0.000    3.158    0.000    0.000    0.000    0.000 
#    0.000    0.000    0.000    0.000    0.000    0.000 
#
# Total GULP energy -212312.943202 kJ/mol
# GULP energy per Si atom -5587.182716 kJ/mol
# Density = 2.268191 g / cm^3
# Si number density = 22.733657 Si / 1000 Ang^3
#
#
#
# Elastic Constant Matrix: (Units=GPa)
#
#
# Indices 1 2 3 4 5 6 
#
# 1 69.4995 5.2306 12.3649 0.0000 0.0000 0.0000
# 2 5.2306 89.1336 -0.8107 0.0000 0.0000 0.0000
# 3 12.3649 -0.8107 85.6685 0.0000 0.0000 0.0000
# 4 0.0000 0.0000 0.0000 15.7779 0.0000 0.0000
# 5 0.0000 0.0000 0.0000 0.0000 12.1190 0.0000
# 6 0.0000 0.0000 0.0000 0.0000 0.0000 18.0720
#
#
#
# Elastic Compliance Matrix: (Units=1/GPa)
#
#
# Indices 1 2 3 4 5 6 
#
# 1 0.014838 -0.000890 -0.002150 0.000000 0.000000 0.000000
# 2 -0.000890 0.011273 0.000235 0.000000 0.000000 0.000000
# 3 -0.002150 0.000235 0.011985 0.000000 0.000000 0.000000
# 4 0.000000 0.000000 0.000000 0.063380 0.000000 0.000000
# 5 0.000000 0.000000 0.000000 0.000000 0.082515 0.000000
# 6 0.000000 0.000000 0.000000 0.000000 0.000000 0.055334
#
#
# Mechanical properties :
#
#
# Convention : Reuss Voigt Hill
#
# Bulk Modulus (GPa) = 30.78182 30.87457 30.82819
# Shear Modulus (GPa) = 19.54917 24.36157 21.95537
#
# Velocity S-wave (km/s) = 2.93562 3.27709 3.11105
# Velocity P-wave (km/s) = 5.00601 5.28485 5.14732
#
# Compressibility (1/GPa) = 0.03248671
#
# Stress axis : x y z
#
# Youngs Moduli (GPa) = 67.39391 88.70362 83.43447
#
# Poissons Ratio (x) = 0.07897 0.17939
# Poissons Ratio (y) = 0.06000 -0.01962
# Poissons Ratio (z) = 0.14490 -0.02086
#
# Static dielectric constant tensor:
#      x y z
#    x 1.850030 0.000000 0.000000 
#    y 0.000000 1.885480 0.000000 
#    z 0.000000 0.000000 1.876840 
# 
# From -- ./inp_files/34002.got.cif
#   From: 2010.05.17/outbox.cif.g08.bks.cpg/sg68_18_cif.got.tgz:34002.got - 2010.06.03 18:57:09.
