data_PCOD9506326
_publ_section_title
;
Structure prediction by ZEFSAII (Michael W. Deem and Ramdas Pophale) SiO2 
 PCOD9506326
Probable space group: C C C A
;
_chemical_formula_sum "Si O2"
_cell_formula_units_Z 72
_cell_length_a 8.703161
_cell_length_b 16.974716
_cell_length_c 26.736788
_cell_angle_alpha 90.000000
_cell_angle_beta 90.000000
_cell_angle_gamma 90.000000
_cell_volume 3949.924250
_symmetry_space_group_name_H-M "C C C A"
_symmetry_group_IT_number 68
_space_group.IT_coordinate_system_code '2'
_symmetry_cell_setting 'orthorhombic'
loop_
_space_group_symop_operation_xyz
x,y,z
-x,1/2-y,z
x,1/2-y,1/2-z
-x,y,1/2-z
-x,-y,-z
x,1/2+y,-z
-x,1/2+y,1/2+z
x,-y,1/2+z
1/2+x,1/2+y,z
1/2-x,-y,z
1/2+x,-y,1/2-z
1/2-x,1/2+y,1/2-z
1/2-x,1/2-y,-z
1/2+x,y,-z
1/2-x,y,1/2+z
1/2+x,1/2-y,1/2+z
loop_
_atom_site_type_symbol
_atom_site_label
_atom_site_fract_x
_atom_site_fract_y
_atom_site_fract_z
Si Si1 0.676694 0.155669 0.244171
Si Si2 0.188856 0.912505 0.655473
Si Si3 0.000000 0.750000 0.503349
Si Si4 0.386834 0.174516 0.849595
Si Si5 0.255652 0.792278 0.073673
O O1 0.672729 0.250000 0.250000
O O2 0.500000 0.127302 0.250000
O O3 0.774020 0.116694 0.288564
O O4 0.765268 0.147019 0.191851
O O5 0.274550 0.855243 0.616482
O O6 0.009830 0.895271 0.643704
O O7 0.250000 0.000000 0.649587
O O8 0.121632 0.711630 0.466303
O O9 0.092564 0.807478 0.540423
O O10 0.500000 0.250000 0.834706
O O11 0.294127 0.210678 0.896787
#
# Coordination Sequence:
#
# PCOD9506326 Si02
#       5
#    16  16   8  16  16
#     4  11  22  34  60  90 115 157 207 245 290 364
#     4  11  23  38  57  87 127 160 194 246 308 365
#     4  10  20  36  66  90 106 144 212 264 284 358
#     4  10  19  37  61  84 116 161 198 241 302 362
#     4  10  20  37  63  88 114 149 201 252 304 354
#
# _framework density 18.228197000000002
#
# number of rings (size 3 to 8) (size 9 to 14) (size 15 to 20)
#    0.000    1.556    7.778    0.667    3.111    1.778 
#    0.000    1.111    0.000    0.000    0.000    0.000 
#    0.000    0.000    0.000    0.000    0.000    0.000 
#
# Total GULP energy -200417.634000 kJ/mol
# GULP energy per Si atom -5567.156500 kJ/mol
# Density = 1.818671 g / cm^3
# Si number density = 18.228197 Si / 1000 Ang^3
#
#
#
# Elastic Constant Matrix: (Units=GPa)
#
#
# Indices 1 2 3 4 5 6 
#
# 1 67.2674 18.0736 27.8225 0.0000 0.0000 0.0000
# 2 18.0736 66.3898 18.8837 0.0000 0.0000 0.0000
# 3 27.8225 18.8837 114.1264 0.0000 0.0000 0.0000
# 4 0.0000 0.0000 0.0000 8.3263 0.0000 0.0000
# 5 0.0000 0.0000 0.0000 0.0000 63.2173 0.0000
# 6 0.0000 0.0000 0.0000 0.0000 0.0000 13.6879
#
#
#
# Elastic Compliance Matrix: (Units=1/GPa)
#
#
# Indices 1 2 3 4 5 6 
#
# 1 0.017356 -0.003695 -0.003620 0.000000 0.000000 0.000000
# 2 -0.003695 0.016593 -0.001845 0.000000 0.000000 0.000000
# 3 -0.003620 -0.001845 0.009950 0.000000 0.000000 0.000000
# 4 0.000000 0.000000 0.000000 0.120102 0.000000 0.000000
# 5 0.000000 0.000000 0.000000 0.000000 0.015818 0.000000
# 6 0.000000 0.000000 0.000000 0.000000 0.000000 0.073057
#
#
# Mechanical properties :
#
#
# Convention : Reuss Voigt Hill
#
# Bulk Modulus (GPa) = 39.09354 41.92702 40.51028
# Shear Modulus (GPa) = 17.87482 29.24655 23.56068
#
# Velocity S-wave (km/s) = 3.13487 4.00993 3.59909
# Velocity P-wave (km/s) = 5.88188 6.67012 6.28836
#
# Compressibility (1/GPa) = 0.02557967
#
# Stress axis : x y z
#
# Youngs Moduli (GPa) = 57.61673 60.26549 100.50368
#
# Poissons Ratio (x) = 0.22270 0.36380
# Poissons Ratio (y) = 0.21291 0.18540
# Poissons Ratio (z) = 0.20856 0.11117
#
# Static dielectric constant tensor:
#      x y z
#    x 1.692900 0.000000 0.000000 
#    y 0.000000 1.621980 0.000000 
#    z 0.000000 0.000000 1.636480 
# 
# From -- ./inp_files/49047.got.cif
#   From: 2010.05.17/outbox.cif.g08.bks.cpg/sg68_25_cif.got.tgz:49047.got - 2010.06.03 18:57:09.
