data_PCOD9506370
_publ_section_title
;
Structure prediction by ZEFSAII (Michael W. Deem and Ramdas Pophale) SiO2 
 PCOD9506370
Probable space group: C C C A
;
_chemical_formula_sum "Si O2"
_cell_formula_units_Z 116
_cell_length_a 26.080822
_cell_length_b 12.383799
_cell_length_c 15.751132
_cell_angle_alpha 90.000000
_cell_angle_beta 90.000000
_cell_angle_gamma 90.000000
_cell_volume 5087.295217
_symmetry_space_group_name_H-M "C C C A"
_symmetry_group_IT_number 68
_space_group.IT_coordinate_system_code '2'
_symmetry_cell_setting 'orthorhombic'
loop_
_space_group_symop_operation_xyz
x,y,z
-x,1/2-y,z
x,1/2-y,1/2-z
-x,y,1/2-z
-x,-y,-z
x,1/2+y,-z
-x,1/2+y,1/2+z
x,-y,1/2+z
1/2+x,1/2+y,z
1/2-x,-y,z
1/2+x,-y,1/2-z
1/2-x,1/2+y,1/2-z
1/2-x,1/2-y,-z
1/2+x,y,-z
1/2-x,y,1/2+z
1/2+x,1/2-y,1/2+z
loop_
_atom_site_type_symbol
_atom_site_label
_atom_site_fract_x
_atom_site_fract_y
_atom_site_fract_z
Si Si1 0.643321 0.938943 0.452846
Si Si2 0.454112 0.555730 0.363268
Si Si3 0.292724 0.904165 0.654573
Si Si4 0.308125 0.972716 0.389026
Si Si5 0.000000 0.250000 0.250000
Si Si6 0.119068 0.068649 0.770140
Si Si7 0.701607 0.740226 0.146823
Si Si8 0.977987 0.359544 0.846276
O O1 0.581959 0.932594 0.446140
O O2 0.662310 0.846679 0.389439
O O3 0.668815 0.047915 0.414877
O O4 0.671021 0.941048 0.543246
O O5 0.470287 0.665385 0.313490
O O6 0.417248 0.487474 0.299434
O O7 0.501471 0.474357 0.380607
O O8 0.331311 0.875178 0.730087
O O9 0.258249 0.804758 0.629865
O O10 0.250000 0.000000 0.672123
O O11 0.305297 0.846994 0.408289
O O12 0.250000 0.000000 0.363287
O O13 0.352404 0.973558 0.318991
O O14 0.082857 0.138625 0.831039
O O15 0.697056 0.750000 0.250000
O O16 0.000000 0.250000 0.888178
O O17 0.000000 0.357210 0.750000
#
# Coordination Sequence:
#
# PCOD9506370 Si02
#       8
#    16  16  16  16   4  16  16  16
#     4  10  24  41  62  90 140 178 216 277 349 417
#     4  10  21  39  67 102 127 166 228 292 353 404
#     4   9  18  37  59  91 127 163 216 276 329 396
#     4  12  25  42  60  94 140 178 227 275 343 425
#     4  12  20  36  78 100 128 156 232 320 348 392
#     4  10  19  38  62  93 126 168 218 282 342 403
#     4  11  22  40  68  94 127 180 232 286 330 404
#     4   9  18  38  59  88 126 163 215 280 342 411
#
# _framework density 22.801901000000001
#
# number of rings (size 3 to 8) (size 9 to 14) (size 15 to 20)
#    0.000    1.793    2.069    4.966    2.897    2.207 
#   22.345    0.690    1.517    0.000    0.000    0.000 
#    0.000    0.000    0.000    0.000    0.000    0.000 
#
# Total GULP energy -323060.598853 kJ/mol
# GULP energy per Si atom -5570.010325 kJ/mol
# Density = 2.275000 g / cm^3
# Si number density = 22.801901 Si / 1000 Ang^3
#
#
#
# Elastic Constant Matrix: (Units=GPa)
#
#
# Indices 1 2 3 4 5 6 
#
# 1 124.1367 17.8665 15.0993 0.0000 0.0000 0.0000
# 2 17.8665 80.6137 5.1758 0.0000 0.0000 0.0000
# 3 15.0993 5.1758 19.6629 0.0000 0.0000 0.0000
# 4 0.0000 0.0000 0.0000 17.5407 0.0000 0.0000
# 5 0.0000 0.0000 0.0000 0.0000 -19.4066 0.0000
# 6 0.0000 0.0000 0.0000 0.0000 0.0000 14.0625
#
#
#
# Elastic Compliance Matrix: (Units=1/GPa)
#
#
# Indices 1 2 3 4 5 6 
#
# 1 0.009082 -0.001592 -0.006555 0.000000 0.000000 0.000000
# 2 -0.001592 0.012897 -0.002172 0.000000 0.000000 0.000000
# 3 -0.006555 -0.002172 0.056463 0.000000 0.000000 0.000000
# 4 0.000000 0.000000 0.000000 0.057010 0.000000 0.000000
# 5 0.000000 0.000000 0.000000 0.000000 -0.051529 0.000000
# 6 0.000000 0.000000 0.000000 0.000000 0.000000 0.071111
#
#
# Mechanical properties :
#
#
# Convention : Reuss Voigt Hill
#
# Bulk Modulus (GPa) = 17.30014 33.41072 25.35543
# Shear Modulus (GPa) = 25.64872 14.85743 20.25307
#
# Velocity S-wave (km/s) = 3.35752 2.55539 2.98353
# Velocity P-wave (km/s) = 4.75754 4.83643 4.79715
#
# Compressibility (1/GPa) = 0.05780301
#
# Stress axis : x y z
#
# Youngs Moduli (GPa) = 110.10671 77.53652 17.71077
#
# Poissons Ratio (x) = 0.12344 0.11610
# Poissons Ratio (y) = 0.17529 0.03847
# Poissons Ratio (z) = 0.72177 0.16844
#
# Static dielectric constant tensor:
#      x y z
#    x 1.895390 0.000000 0.000000 
#    y 0.000000 1.978690 0.000000 
#    z 0.000000 0.000000 2.271020 
# 
# From -- ./inp_files/34178.got.cif
#   From: 2010.05.17/outbox.cif.g08.bks.cpg/sg68_18_cif.got.tgz:34178.got - 2010.06.03 18:57:09.
