data_PCOD9506390
_publ_section_title
;
Structure prediction by ZEFSAII (Michael W. Deem and Ramdas Pophale) SiO2 
 PCOD9506390
Probable space group: C C C A
;
_chemical_formula_sum "Si O2"
_cell_formula_units_Z 80
_cell_length_a 21.556641
_cell_length_b 20.613046
_cell_length_c 8.412446
_cell_angle_alpha 90.000000
_cell_angle_beta 90.000000
_cell_angle_gamma 90.000000
_cell_volume 3738.053829
_symmetry_space_group_name_H-M "C C C A"
_symmetry_group_IT_number 68
_space_group.IT_coordinate_system_code '2'
_symmetry_cell_setting 'orthorhombic'
loop_
_space_group_symop_operation_xyz
x,y,z
-x,1/2-y,z
x,1/2-y,1/2-z
-x,y,1/2-z
-x,-y,-z
x,1/2+y,-z
-x,1/2+y,1/2+z
x,-y,1/2+z
1/2+x,1/2+y,z
1/2-x,-y,z
1/2+x,-y,1/2-z
1/2-x,1/2+y,1/2-z
1/2-x,1/2-y,-z
1/2+x,y,-z
1/2-x,y,1/2+z
1/2+x,1/2-y,1/2+z
loop_
_atom_site_type_symbol
_atom_site_label
_atom_site_fract_x
_atom_site_fract_y
_atom_site_fract_z
Si Si1 0.500000 0.750000 0.450327
Si Si2 0.301210 0.417810 0.356591
Si Si3 0.170786 0.058008 0.016205
Si Si4 0.467366 0.899306 0.092273
Si Si5 0.389669 0.191903 0.152602
Si Si6 0.000000 0.894073 0.250000
O O1 0.474599 0.679316 0.391878
O O2 0.561753 0.724717 0.535763
O O3 0.228033 0.411649 0.385529
O O4 0.323380 0.481244 0.451432
O O5 0.339252 0.356027 0.416082
O O6 0.317149 0.427747 0.170123
O O7 0.104356 0.081780 0.076453
O O8 0.500000 0.927282 0.250000
O O9 0.500533 0.923188 0.927429
O O10 0.359207 0.250000 0.250000
O O11 0.437717 0.149383 0.257914
#
# Coordination Sequence:
#
# PCOD9506390 Si02
#       6
#     8  16  16  16  16   8
#     4  10  20  38  66  99 139 176 221 289 350 405
#     4  11  24  41  72  91 136 184 232 286 345 413
#     4  11  24  47  63  99 131 182 236 285 344 424
#     4  11  23  42  68 101 137 176 234 283 349 417
#     4  11  17  38  67  98 127 180 226 274 349 413
#     4  10  19  38  68  92 134 182 208 285 346 399
#
# _framework density 21.401512
#
# number of rings (size 3 to 8) (size 9 to 14) (size 15 to 20)
#    0.000    1.200    6.000    2.700    0.000    6.400 
#    1.800   11.000    0.000    0.000    0.000    0.000 
#    0.000    0.000    0.000    0.000    0.000    0.000 
#
# Total GULP energy -222921.426876 kJ/mol
# GULP energy per Si atom -5573.035672 kJ/mol
# Density = 2.135280 g / cm^3
# Si number density = 21.401512 Si / 1000 Ang^3
#
#
#
# Elastic Constant Matrix: (Units=GPa)
#
#
# Indices 1 2 3 4 5 6 
#
# 1 143.4092 65.3203 56.9168 0.0000 0.0000 0.0000
# 2 65.3203 73.6657 26.0742 0.0000 0.0000 0.0000
# 3 56.9168 26.0742 142.5800 0.0000 0.0000 0.0000
# 4 0.0000 0.0000 0.0000 -31.6034 0.0000 0.0000
# 5 0.0000 0.0000 0.0000 0.0000 17.4037 0.0000
# 6 0.0000 0.0000 0.0000 0.0000 0.0000 48.3680
#
#
#
# Elastic Compliance Matrix: (Units=1/GPa)
#
#
# Indices 1 2 3 4 5 6 
#
# 1 0.013000 -0.010361 -0.003295 0.000000 0.000000 0.000000
# 2 -0.010361 0.022772 -0.000028 0.000000 0.000000 0.000000
# 3 -0.003295 -0.000028 0.008334 0.000000 0.000000 0.000000
# 4 0.000000 0.000000 0.000000 -0.031642 0.000000 0.000000
# 5 0.000000 0.000000 0.000000 0.000000 0.057459 0.000000
# 6 0.000000 0.000000 0.000000 0.000000 0.000000 0.020675
#
#
# Mechanical properties :
#
#
# Convention : Reuss Voigt Hill
#
# Bulk Modulus (GPa) = 59.74487 72.91970 66.33229
# Shear Modulus (GPa) = 40.47095 20.92322 30.69709
#
# Velocity S-wave (km/s) = 4.35332 3.13013 3.79138
# Velocity P-wave (km/s) = 7.29694 6.87094 7.08714
#
# Compressibility (1/GPa) = 0.01673784
#
# Stress axis : x y z
#
# Youngs Moduli (GPa) = 76.92352 43.91329 119.99010
#
# Poissons Ratio (x) = 0.45499 0.39533
# Poissons Ratio (y) = 0.79701 0.00341
# Poissons Ratio (z) = 0.25344 0.00125
#
# Static dielectric constant tensor:
#      x y z
#    x 1.861580 0.000000 0.000000 
#    y 0.000000 1.806150 0.000000 
#    z 0.000000 0.000000 1.883300 
# 
# From -- ./inp_files/7067.got.cif
#   From: 2010.05.17/outbox.cif.g08.bks.cpg/sg68_4_cif.got.tgz:7067.got - 2010.06.03 18:57:09.
