data_PCOD9506308
_publ_section_title
;
Structure prediction by ZEFSAII (Michael W. Deem and Ramdas Pophale) SiO2 
 PCOD9506308
Probable space group: C C C A
;
_chemical_formula_sum "Si O2"
_cell_formula_units_Z 96
_cell_length_a 19.178960
_cell_length_b 10.980968
_cell_length_c 19.094038
_cell_angle_alpha 90.000000
_cell_angle_beta 90.000000
_cell_angle_gamma 90.000000
_cell_volume 4021.272111
_symmetry_space_group_name_H-M "C C C A"
_symmetry_group_IT_number 68
_space_group.IT_coordinate_system_code '2'
_symmetry_cell_setting 'orthorhombic'
loop_
_space_group_symop_operation_xyz
x,y,z
-x,1/2-y,z
x,1/2-y,1/2-z
-x,y,1/2-z
-x,-y,-z
x,1/2+y,-z
-x,1/2+y,1/2+z
x,-y,1/2+z
1/2+x,1/2+y,z
1/2-x,-y,z
1/2+x,-y,1/2-z
1/2-x,1/2+y,1/2-z
1/2-x,1/2-y,-z
1/2+x,y,-z
1/2-x,y,1/2+z
1/2+x,1/2-y,1/2+z
loop_
_atom_site_type_symbol
_atom_site_label
_atom_site_fract_x
_atom_site_fract_y
_atom_site_fract_z
Si Si1 0.711436 0.642289 0.910785
Si Si2 0.872068 0.124360 0.920564
Si Si3 0.033549 0.384400 0.042169
Si Si4 0.297579 0.889563 0.273556
Si Si5 0.000000 0.750000 0.161414
Si Si6 0.583599 0.520316 0.831826
Si Si7 0.250000 0.500000 0.955285
O O1 0.686161 0.778355 0.902237
O O2 0.770793 0.620140 0.853843
O O3 0.641221 0.571072 0.886936
O O4 0.735294 0.606631 0.987665
O O5 0.942859 0.168470 0.881974
O O6 0.893405 0.130033 0.002023
O O7 0.823520 0.005381 0.913171
O O8 0.037201 0.430070 0.121711
O O9 0.000000 0.250000 0.036601
O O10 0.000000 0.500000 0.000000
O O11 0.291948 0.750000 0.250000
O O12 0.250000 0.000000 0.242738
O O13 0.375193 0.944413 0.273870
O O14 0.046723 0.643105 0.195221
#
# Coordination Sequence:
#
# PCOD9506308 Si02
#       7
#    16  16  16  16   8  16   8
#     4  10  19  37  55  88 131 172 207 270 338 391
#     4  11  21  32  54  89 135 174 219 247 312 398
#     4  12  21  35  57  91 135 185 222 258 319 402
#     4  10  21  43  71  96 128 167 227 292 356 396
#     4  10  20  36  60  92 139 178 223 260 322 418
#     4  10  19  37  63  94 128 177 221 275 333 399
#     4  12  20  32  54  88 140 172 210 262 314 394
#
# _framework density 23.873042000000002
#
# number of rings (size 3 to 8) (size 9 to 14) (size 15 to 20)
#    0.000    1.333    6.667    1.500    0.000    0.000 
#    1.500    0.000    0.000    0.500   13.000    5.250 
#    0.000    0.000    0.000    0.000    0.000    0.000 
#
# Total GULP energy -267243.029967 kJ/mol
# GULP energy per Si atom -5567.563124 kJ/mol
# Density = 2.381871 g / cm^3
# Si number density = 23.873042 Si / 1000 Ang^3
#
#
#
# Elastic Constant Matrix: (Units=GPa)
#
#
# Indices 1 2 3 4 5 6 
#
# 1 109.0392 54.5258 26.9745 0.0000 0.0000 0.0000
# 2 54.5258 179.9413 31.9400 0.0000 0.0000 0.0000
# 3 26.9745 31.9400 44.8388 0.0000 0.0000 0.0000
# 4 0.0000 0.0000 0.0000 8.4778 0.0000 0.0000
# 5 0.0000 0.0000 0.0000 0.0000 -6.9755 0.0000
# 6 0.0000 0.0000 0.0000 0.0000 0.0000 53.9084
#
#
#
# Elastic Compliance Matrix: (Units=1/GPa)
#
#
# Indices 1 2 3 4 5 6 
#
# 1 0.011781 -0.002647 -0.005202 0.000000 0.000000 0.000000
# 2 -0.002647 0.006956 -0.003363 0.000000 0.000000 0.000000
# 3 -0.005202 -0.003363 0.027827 0.000000 0.000000 0.000000
# 4 0.000000 0.000000 0.000000 0.117956 0.000000 0.000000
# 5 0.000000 0.000000 0.000000 0.000000 -0.143359 0.000000
# 6 0.000000 0.000000 0.000000 0.000000 0.000000 0.018550
#
#
# Mechanical properties :
#
#
# Convention : Reuss Voigt Hill
#
# Bulk Modulus (GPa) = 41.42299 62.30000 51.86149
# Shear Modulus (GPa) = 71.24318 25.77407 48.50862
#
# Velocity S-wave (km/s) = 5.46876 3.28934 4.51260
# Velocity P-wave (km/s) = 7.56739 6.37019 6.99446
#
# Compressibility (1/GPa) = 0.02414119
#
# Stress axis : x y z
#
# Youngs Moduli (GPa) = 84.87938 143.75499 35.93591
#
# Poissons Ratio (x) = 0.38046 0.18695
# Poissons Ratio (y) = 0.22464 0.12085
# Poissons Ratio (z) = 0.44157 0.48345
#
# Static dielectric constant tensor:
#      x y z
#    x 1.991370 0.000000 0.000000 
#    y 0.000000 2.062130 0.000000 
#    z 0.000000 0.000000 1.962010 
# 
# From -- ./inp_files/46043.got.cif
#   From: 2010.05.17/outbox.cif.g08.bks.cpg/sg68_24_cif.got.tgz:46043.got - 2010.06.03 18:57:09.
