data_PCOD9506225
_publ_section_title
;
Structure prediction by ZEFSAII (Michael W. Deem and Ramdas Pophale) SiO2 
 PCOD9506225
Probable space group: C C C A
;
_chemical_formula_sum "Si O2"
_cell_formula_units_Z 80
_cell_length_a 15.091344
_cell_length_b 23.710990
_cell_length_c 11.950139
_cell_angle_alpha 90.000000
_cell_angle_beta 90.000000
_cell_angle_gamma 90.000000
_cell_volume 4276.126683
_symmetry_space_group_name_H-M "C C C A"
_symmetry_group_IT_number 68
_space_group.IT_coordinate_system_code '2'
_symmetry_cell_setting 'orthorhombic'
loop_
_space_group_symop_operation_xyz
x,y,z
-x,1/2-y,z
x,1/2-y,1/2-z
-x,y,1/2-z
-x,-y,-z
x,1/2+y,-z
-x,1/2+y,1/2+z
x,-y,1/2+z
1/2+x,1/2+y,z
1/2-x,-y,z
1/2+x,-y,1/2-z
1/2-x,1/2+y,1/2-z
1/2-x,1/2-y,-z
1/2+x,y,-z
1/2-x,y,1/2+z
1/2+x,1/2-y,1/2+z
loop_
_atom_site_type_symbol
_atom_site_label
_atom_site_fract_x
_atom_site_fract_y
_atom_site_fract_z
Si Si1 0.895405 0.814144 0.722052
Si Si2 0.680382 0.405702 0.609525
Si Si3 0.637213 0.889971 0.017812
Si Si4 0.400611 0.975189 0.283870
Si Si5 0.033274 0.941137 0.440320
O O1 0.870922 0.750000 0.750000
O O2 0.843374 0.856317 0.803897
O O3 0.876386 0.834429 0.594799
O O4 0.000000 0.820237 0.750000
O O5 0.773859 0.395267 0.552505
O O6 0.663583 0.463073 0.680878
O O7 0.605465 0.410240 0.515169
O O8 0.635623 0.939438 0.111957
O O9 0.553264 0.902553 0.938591
O O10 0.500000 0.953732 0.250000
O O11 0.419208 0.037800 0.327599
O O12 0.000000 0.000000 0.500000
#
# Coordination Sequence:
#
# PCOD9506225 Si02
#       5
#    16  16  16  16  16
#     4  10  20  40  69  85 108 155 200 253 312 365
#     4  11  20  38  57  87 124 147 199 249 290 360
#     4  10  20  36  60  89 116 152 195 249 303 342
#     4  10  19  39  55  75 120 163 198 242 272 345
#     4  10  19  36  54  81 120 157 196 241 281 343
#
# _framework density 18.708518999999999
#
# number of rings (size 3 to 8) (size 9 to 14) (size 15 to 20)
#    0.000    1.800    6.000    1.200    0.000    4.000 
#   10.800    0.000    0.000    0.000    0.000    1.400 
#    0.000    0.000    0.000    0.000    0.000    0.000 
#
# Total GULP energy -223022.700355 kJ/mol
# GULP energy per Si atom -5575.567509 kJ/mol
# Density = 1.866594 g / cm^3
# Si number density = 18.708519 Si / 1000 Ang^3
#
#
#
# Elastic Constant Matrix: (Units=GPa)
#
#
# Indices 1 2 3 4 5 6 
#
# 1 140.8126 50.0074 64.5135 0.0000 0.0000 0.0000
# 2 50.0074 83.9991 47.6911 0.0000 0.0000 0.0000
# 3 64.5135 47.6911 92.6748 0.0000 0.0000 0.0000
# 4 0.0000 0.0000 0.0000 25.9167 0.0000 0.0000
# 5 0.0000 0.0000 0.0000 0.0000 48.8717 0.0000
# 6 0.0000 0.0000 0.0000 0.0000 0.0000 14.5011
#
#
#
# Elastic Compliance Matrix: (Units=1/GPa)
#
#
# Indices 1 2 3 4 5 6 
#
# 1 0.010971 -0.003101 -0.006041 0.000000 0.000000 0.000000
# 2 -0.003101 0.017696 -0.006947 0.000000 0.000000 0.000000
# 3 -0.006041 -0.006947 0.018571 0.000000 0.000000 0.000000
# 4 0.000000 0.000000 0.000000 0.038585 0.000000 0.000000
# 5 0.000000 0.000000 0.000000 0.000000 0.020462 0.000000
# 6 0.000000 0.000000 0.000000 0.000000 0.000000 0.068960
#
#
# Mechanical properties :
#
#
# Convention : Reuss Voigt Hill
#
# Bulk Modulus (GPa) = 66.41095 71.32337 68.86716
# Shear Modulus (GPa) = 23.53570 28.20954 25.87262
#
# Velocity S-wave (km/s) = 3.55071 3.88731 3.72281
# Velocity P-wave (km/s) = 7.23773 7.63901 7.44108
#
# Compressibility (1/GPa) = 0.01505776
#
# Stress axis : x y z
#
# Youngs Moduli (GPa) = 91.15128 56.51103 53.84767
#
# Poissons Ratio (x) = 0.17526 0.32530
# Poissons Ratio (y) = 0.28270 0.37410
# Poissons Ratio (z) = 0.55065 0.39260
#
# Static dielectric constant tensor:
#      x y z
#    x 1.665320 0.000000 0.000000 
#    y 0.000000 1.671940 0.000000 
#    z 0.000000 0.000000 1.719250 
# 
# From -- ./inp_files/13422.got.cif
#   From: 2010.05.17/outbox.cif.g08.bks.cpg/sg68_7_cif.got.tgz:13422.got - 2010.06.03 18:57:09.
