data_PCOD9506186
_publ_section_title
;
Structure prediction by ZEFSAII (Michael W. Deem and Ramdas Pophale) SiO2 
 PCOD9506186
Probable space group: C C C A
;
_chemical_formula_sum "Si O2"
_cell_formula_units_Z 80
_cell_length_a 26.690640
_cell_length_b 8.193163
_cell_length_c 18.795239
_cell_angle_alpha 90.000000
_cell_angle_beta 90.000000
_cell_angle_gamma 90.000000
_cell_volume 4110.157226
_symmetry_space_group_name_H-M "C C C A"
_symmetry_group_IT_number 68
_space_group.IT_coordinate_system_code '2'
_symmetry_cell_setting 'orthorhombic'
loop_
_space_group_symop_operation_xyz
x,y,z
-x,1/2-y,z
x,1/2-y,1/2-z
-x,y,1/2-z
-x,-y,-z
x,1/2+y,-z
-x,1/2+y,1/2+z
x,-y,1/2+z
1/2+x,1/2+y,z
1/2-x,-y,z
1/2+x,-y,1/2-z
1/2-x,1/2+y,1/2-z
1/2-x,1/2-y,-z
1/2+x,y,-z
1/2-x,y,1/2+z
1/2+x,1/2-y,1/2+z
loop_
_atom_site_type_symbol
_atom_site_label
_atom_site_fract_x
_atom_site_fract_y
_atom_site_fract_z
Si Si1 0.943042 0.785859 0.899427
Si Si2 0.150946 0.310425 0.174545
Si Si3 0.741857 0.693582 0.081143
Si Si4 0.393260 0.425440 0.477726
Si Si5 0.660158 0.128481 0.094967
O O1 0.903736 0.765741 0.836097
O O2 0.000000 0.750000 0.881180
O O3 0.930535 0.958142 0.935297
O O4 0.924625 0.659099 0.959784
O O5 0.171027 0.250000 0.250000
O O6 0.188673 0.242426 0.114143
O O7 0.145685 0.502662 0.157239
O O8 0.750000 0.500000 0.088809
O O9 0.785206 0.805094 0.115533
O O10 0.750000 0.750000 0.000000
O O11 0.370896 0.291074 0.424383
O O12 0.349458 0.525110 0.520752
#
# Coordination Sequence:
#
# PCOD9506186 Si02
#       5
#    16  16  16  16  16
#     4  10  19  35  59  85 115 151 194 248 299 346
#     4  11  25  40  54  81 117 158 201 239 291 358
#     4  12  22  36  61  89 115 149 191 240 296 355
#     4   9  18  34  59  93 118 143 190 247 304 348
#     4  10  19  35  58  84 121 154 185 238 296 359
#
# _framework density 19.463975000000001
#
# number of rings (size 3 to 8) (size 9 to 14) (size 15 to 20)
#    0.000    1.600    0.000    8.400    0.000    2.000 
#    0.000    3.000    0.000    0.000    0.000   14.000 
#    0.000    0.000    0.000    0.000    0.000    0.000 
#
# Total GULP energy -223065.091935 kJ/mol
# GULP energy per Si atom -5576.627298 kJ/mol
# Density = 1.941967 g / cm^3
# Si number density = 19.463975 Si / 1000 Ang^3
#
#
#
# Elastic Constant Matrix: (Units=GPa)
#
#
# Indices 1 2 3 4 5 6 
#
# 1 122.9879 29.9197 22.5462 0.0000 0.0000 0.0000
# 2 29.9197 107.8390 24.4838 0.0000 0.0000 0.0000
# 3 22.5462 24.4838 70.2526 0.0000 0.0000 0.0000
# 4 0.0000 0.0000 0.0000 13.0801 0.0000 0.0000
# 5 0.0000 0.0000 0.0000 0.0000 12.9012 0.0000
# 6 0.0000 0.0000 0.0000 0.0000 0.0000 13.4526
#
#
#
# Elastic Compliance Matrix: (Units=1/GPa)
#
#
# Indices 1 2 3 4 5 6 
#
# 1 0.009021 -0.002004 -0.002197 0.000000 0.000000 0.000000
# 2 -0.002004 0.010515 -0.003021 0.000000 0.000000 0.000000
# 3 -0.002197 -0.003021 0.015992 0.000000 0.000000 0.000000
# 4 0.000000 0.000000 0.000000 0.076452 0.000000 0.000000
# 5 0.000000 0.000000 0.000000 0.000000 0.077512 0.000000
# 6 0.000000 0.000000 0.000000 0.000000 0.000000 0.074335
#
#
# Mechanical properties :
#
#
# Convention : Reuss Voigt Hill
#
# Bulk Modulus (GPa) = 47.42927 50.55321 48.99124
# Shear Modulus (GPa) = 17.52540 22.82878 20.17709
#
# Velocity S-wave (km/s) = 3.00393 3.42844 3.22318
# Velocity P-wave (km/s) = 6.03755 6.45766 6.25114
#
# Compressibility (1/GPa) = 0.02108403
#
# Stress axis : x y z
#
# Youngs Moduli (GPa) = 110.85079 95.10121 62.52992
#
# Poissons Ratio (x) = 0.19060 0.13736
# Poissons Ratio (y) = 0.22216 0.18893
# Poissons Ratio (z) = 0.24350 0.28734
#
# Static dielectric constant tensor:
#      x y z
#    x 1.719930 0.000000 0.000000 
#    y 0.000000 1.721480 0.000000 
#    z 0.000000 0.000000 1.705760 
# 
# From -- ./inp_files/33978.got.cif
#   From: 2010.05.17/outbox.cif.g08.bks.cpg/sg68_17_cif.got.tgz:33978.got - 2010.06.03 18:57:09.
