data_PCOD9506627
_publ_section_title
;
Structure prediction by ZEFSAII (Michael W. Deem and Ramdas Pophale) SiO2 
 PCOD9506627
Probable space group: C C C A
;
_chemical_formula_sum "Si O2"
_cell_formula_units_Z 88
_cell_length_a 9.078548
_cell_length_b 18.361147
_cell_length_c 25.172961
_cell_angle_alpha 90.000000
_cell_angle_beta 90.000000
_cell_angle_gamma 90.000000
_cell_volume 4196.145170
_symmetry_space_group_name_H-M "C C C A"
_symmetry_group_IT_number 68
_space_group.IT_coordinate_system_code '2'
_symmetry_cell_setting 'orthorhombic'
loop_
_space_group_symop_operation_xyz
x,y,z
-x,1/2-y,z
x,1/2-y,1/2-z
-x,y,1/2-z
-x,-y,-z
x,1/2+y,-z
-x,1/2+y,1/2+z
x,-y,1/2+z
1/2+x,1/2+y,z
1/2-x,-y,z
1/2+x,-y,1/2-z
1/2-x,1/2+y,1/2-z
1/2-x,1/2-y,-z
1/2+x,y,-z
1/2-x,y,1/2+z
1/2+x,1/2-y,1/2+z
loop_
_atom_site_type_symbol
_atom_site_label
_atom_site_fract_x
_atom_site_fract_y
_atom_site_fract_z
Si Si1 0.005773 0.403326 0.409277
Si Si2 0.702360 0.874419 0.608321
Si Si3 0.029403 0.663793 0.476580
Si Si4 0.250000 0.000000 0.139097
Si Si5 0.443368 0.875961 0.690507
Si Si6 0.753774 0.794490 0.885269
O O1 0.963140 0.379562 0.468877
O O2 0.124209 0.466068 0.398677
O O3 0.090812 0.334759 0.382688
O O4 0.847180 0.422507 0.385634
O O5 0.603164 0.874600 0.555417
O O6 0.588283 0.885359 0.655176
O O7 0.761567 0.791111 0.607565
O O8 0.000000 0.750000 0.487797
O O9 0.168219 0.668902 0.436101
O O10 0.167898 0.941988 0.176696
O O11 0.500000 0.868777 0.750000
O O12 0.350991 0.809012 0.665326
#
# Coordination Sequence:
#
# PCOD9506627 Si02
#       6
#    16  16  16   8  16  16
#     4  11  20  35  55  81 119 157 187 228 274 325
#     4  10  20  34  60  90 112 143 188 228 283 353
#     4   9  17  32  56  85 118 152 182 221 284 351
#     4  10  26  42  54  78 112 150 202 244 266 318
#     4  10  22  42  63  79 106 145 185 235 287 332
#     4   9  19  35  56  91 121 139 178 232 286 347
#
# _framework density 20.971629
#
# number of rings (size 3 to 8) (size 9 to 14) (size 15 to 20)
#    0.000    2.182    0.000    4.364    0.000    6.545 
#    0.000   17.273    0.000    4.364    0.000    0.000 
#    0.000    0.000    0.000    0.000    0.000    0.000 
#
# Total GULP energy -245573.851309 kJ/mol
# GULP energy per Si atom -5581.223893 kJ/mol
# Density = 2.092390 g / cm^3
# Si number density = 20.971629 Si / 1000 Ang^3
#
#
#
# Elastic Constant Matrix: (Units=GPa)
#
#
# Indices 1 2 3 4 5 6 
#
# 1 151.6301 8.6309 39.3644 0.0000 0.0000 0.0000
# 2 8.6309 14.7319 8.0615 0.0000 0.0000 0.0000
# 3 39.3644 8.0615 115.2415 0.0000 0.0000 0.0000
# 4 0.0000 0.0000 0.0000 37.0295 0.0000 0.0000
# 5 0.0000 0.0000 0.0000 0.0000 -3.2707 0.0000
# 6 0.0000 0.0000 0.0000 0.0000 0.0000 28.8038
#
#
#
# Elastic Compliance Matrix: (Units=1/GPa)
#
#
# Indices 1 2 3 4 5 6 
#
# 1 0.007367 -0.003056 -0.002303 0.000000 0.000000 0.000000
# 2 -0.003056 0.071850 -0.003982 0.000000 0.000000 0.000000
# 3 -0.002303 -0.003982 0.009743 0.000000 0.000000 0.000000
# 4 0.000000 0.000000 0.000000 0.027005 0.000000 0.000000
# 5 0.000000 0.000000 0.000000 0.000000 -0.305749 0.000000
# 6 0.000000 0.000000 0.000000 0.000000 0.000000 0.034718
#
#
# Mechanical properties :
#
#
# Convention : Reuss Voigt Hill
#
# Bulk Modulus (GPa) = 14.22933 43.74634 28.98783
# Shear Modulus (GPa) = -44.26345 27.54897 -8.35724
#
# Velocity S-wave (km/s) = -4.59915 3.62834 -1.99842
# Velocity P-wave (km/s) = 4.62635 6.20146 2.92019
#
# Compressibility (1/GPa) = 0.07027740
#
# Stress axis : x y z
#
# Youngs Moduli (GPa) = 135.74584 13.91795 102.64286
#
# Poissons Ratio (x) = 0.04253 0.23634
# Poissons Ratio (y) = 0.41483 0.40875
# Poissons Ratio (z) = 0.31256 0.05542
#
# Static dielectric constant tensor:
#      x y z
#    x 1.781720 0.000000 0.000000 
#    y 0.000000 1.813890 0.000000 
#    z 0.000000 0.000000 1.748010 
# 
# From -- ./inp_files/43164.got.cif
#   From: 2010.05.17/outbox.cif.g08.bks.cpg/sg68_22_cif.got.tgz:43164.got - 2010.06.03 18:57:09.
