data_PCOD9506352
_publ_section_title
;
Structure prediction by ZEFSAII (Michael W. Deem and Ramdas Pophale) SiO2 
 PCOD9506352
Probable space group: C C C A
;
_chemical_formula_sum "Si O2"
_cell_formula_units_Z 120
_cell_length_a 25.817524
_cell_length_b 26.590060
_cell_length_c 8.342233
_cell_angle_alpha 90.000000
_cell_angle_beta 90.000000
_cell_angle_gamma 90.000000
_cell_volume 5726.855463
_symmetry_space_group_name_H-M "C C C A"
_symmetry_group_IT_number 68
_space_group.IT_coordinate_system_code '2'
_symmetry_cell_setting 'orthorhombic'
loop_
_space_group_symop_operation_xyz
x,y,z
-x,1/2-y,z
x,1/2-y,1/2-z
-x,y,1/2-z
-x,-y,-z
x,1/2+y,-z
-x,1/2+y,1/2+z
x,-y,1/2+z
1/2+x,1/2+y,z
1/2-x,-y,z
1/2+x,-y,1/2-z
1/2-x,1/2+y,1/2-z
1/2-x,1/2-y,-z
1/2+x,y,-z
1/2-x,y,1/2+z
1/2+x,1/2-y,1/2+z
loop_
_atom_site_type_symbol
_atom_site_label
_atom_site_fract_x
_atom_site_fract_y
_atom_site_fract_z
Si Si1 0.883222 0.443028 0.686247
Si Si2 0.363580 0.211495 0.131913
Si Si3 0.803495 0.398008 0.092566
Si Si4 0.250000 0.500000 0.045729
Si Si5 0.555281 0.731271 0.067783
Si Si6 0.359921 0.454224 0.669201
Si Si7 0.297496 0.871793 0.743804
Si Si8 0.555559 0.147923 0.166700
O O1 0.888305 0.499046 0.748535
O O2 0.888917 0.439500 0.494623
O O3 0.823734 0.425654 0.711423
O O4 0.916524 0.404964 0.794440
O O5 0.335032 0.250000 0.250000
O O6 0.325055 0.164988 0.116757
O O7 0.410744 0.187965 0.233382
O O8 0.392577 0.241328 0.994327
O O9 0.853216 0.411179 0.197938
O O10 0.762454 0.372074 0.209092
O O11 0.778007 0.451957 0.039447
O O12 0.809934 0.364994 0.931951
O O13 0.300728 0.526796 0.127185
O O14 0.500000 0.750000 0.994123
O O15 0.552919 0.750000 0.250000
O O16 0.555957 0.672749 0.010737
O O17 0.500000 0.145122 0.250000
#
# Coordination Sequence:
#
# PCOD9506352 Si02
#       8
#    16  16  16   8  16  16  16  16
#     4  11  21  35  55  85 117 163 210 257 307 361
#     4   9  20  37  60  86 119 155 191 237 316 382
#     4  12  20  32  57  83 117 161 213 262 297 352
#     4  12  18  28  54  78 114 144 202 252 312 338
#     4  10  19  37  71 101 118 144 200 251 316 384
#     4  12  20  34  56  83 119 162 217 257 303 349
#     4  11  20  35  53  87 115 159 208 256 309 357
#     4  10  20  38  63  89 121 159 190 244 321 379
#
# _framework density 20.953907999999998
#
# number of rings (size 3 to 8) (size 9 to 14) (size 15 to 20)
#    0.000    1.200    6.667    0.400    0.000    0.000 
#    0.000   16.000    0.000    0.000    0.000    0.000 
#    0.000    0.000    0.000    0.000    0.000    0.000 
#
# Total GULP energy -334002.787414 kJ/mol
# GULP energy per Si atom -5566.713124 kJ/mol
# Density = 2.090622 g / cm^3
# Si number density = 20.953908 Si / 1000 Ang^3
#
#
#
# Elastic Constant Matrix: (Units=GPa)
#
#
# Indices 1 2 3 4 5 6 
#
# 1 39.1984 31.1762 22.7236 0.0000 0.0000 0.0000
# 2 31.1762 55.0975 37.6924 0.0000 0.0000 0.0000
# 3 22.7236 37.6924 108.7041 0.0000 0.0000 0.0000
# 4 0.0000 0.0000 0.0000 18.4890 0.0000 0.0000
# 5 0.0000 0.0000 0.0000 0.0000 13.7432 0.0000
# 6 0.0000 0.0000 0.0000 0.0000 0.0000 7.9115
#
#
#
# Elastic Compliance Matrix: (Units=1/GPa)
#
#
# Indices 1 2 3 4 5 6 
#
# 1 0.046438 -0.025741 -0.000782 0.000000 0.000000 0.000000
# 2 -0.025741 0.038063 -0.007817 0.000000 0.000000 0.000000
# 3 -0.000782 -0.007817 0.012073 0.000000 0.000000 0.000000
# 4 0.000000 0.000000 0.000000 0.054086 0.000000 0.000000
# 5 0.000000 0.000000 0.000000 0.000000 0.072763 0.000000
# 6 0.000000 0.000000 0.000000 0.000000 0.000000 0.126398
#
#
# Mechanical properties :
#
#
# Convention : Reuss Voigt Hill
#
# Bulk Modulus (GPa) = 35.85082 42.90938 39.38010
# Shear Modulus (GPa) = 11.68773 15.45593 13.57183
#
# Velocity S-wave (km/s) = 2.36430 2.71885 2.54775
# Velocity P-wave (km/s) = 4.95981 5.51168 5.24302
#
# Compressibility (1/GPa) = 0.02789336
#
# Stress axis : x y z
#
# Youngs Moduli (GPa) = 21.53427 26.27247 82.82825
#
# Poissons Ratio (x) = 0.67629 0.06475
# Poissons Ratio (y) = 0.55432 0.64747
# Poissons Ratio (z) = 0.01683 0.20537
#
# Static dielectric constant tensor:
#      x y z
#    x 1.752300 0.000000 0.000000 
#    y 0.000000 1.810270 0.000000 
#    z 0.000000 0.000000 1.867910 
# 
# From -- ./inp_files/9226.got.cif
#   From: 2010.05.17/outbox.cif.g08.bks.cpg/sg68_5_cif.got.tgz:9226.got - 2010.06.03 18:57:09.
