data_PCOD9506140
_publ_section_title
;
Structure prediction by ZEFSAII (Michael W. Deem and Ramdas Pophale) SiO2 
 PCOD9506140
Probable space group: C C C A
;
_chemical_formula_sum "Si O2"
_cell_formula_units_Z 72
_cell_length_a 15.877549
_cell_length_b 18.038589
_cell_length_c 10.694124
_cell_angle_alpha 90.000000
_cell_angle_beta 90.000000
_cell_angle_gamma 90.000000
_cell_volume 3062.888877
_symmetry_space_group_name_H-M "C C C A"
_symmetry_group_IT_number 68
_space_group.IT_coordinate_system_code '2'
_symmetry_cell_setting 'orthorhombic'
loop_
_space_group_symop_operation_xyz
x,y,z
-x,1/2-y,z
x,1/2-y,1/2-z
-x,y,1/2-z
-x,-y,-z
x,1/2+y,-z
-x,1/2+y,1/2+z
x,-y,1/2+z
1/2+x,1/2+y,z
1/2-x,-y,z
1/2+x,-y,1/2-z
1/2-x,1/2+y,1/2-z
1/2-x,1/2-y,-z
1/2+x,y,-z
1/2-x,y,1/2+z
1/2+x,1/2-y,1/2+z
loop_
_atom_site_type_symbol
_atom_site_label
_atom_site_fract_x
_atom_site_fract_y
_atom_site_fract_z
Si Si1 0.090070 0.736489 0.984760
Si Si2 0.788583 0.351499 0.359005
Si Si3 0.649355 0.750000 0.750000
Si Si4 0.850214 0.515831 0.726273
Si Si5 0.359969 0.430002 0.031588
O O1 0.095606 0.765631 0.127457
O O2 0.101435 0.649034 0.997915
O O3 0.000000 0.750000 0.925662
O O4 0.164576 0.781172 0.917525
O O5 0.711941 0.318405 0.278088
O O6 0.852838 0.400353 0.279575
O O7 0.740011 0.407239 0.454543
O O8 0.750000 0.500000 0.721962
O O9 0.879905 0.515784 0.583786
O O10 0.886641 0.463537 0.834729
#
# Coordination Sequence:
#
# PCOD9506140 Si02
#       5
#    16  16   8  16  16
#     4  11  23  39  61  95 131 167 210 264 323 380
#     4  10  19  35  63  90 122 163 214 266 314 373
#     4  10  19  36  61  88 118 164 218 260 311 374
#     4  10  19  34  59  92 122 160 213 265 313 371
#     4  10  21  37  62  92 124 165 211 263 318 381
#
# _framework density 23.507218999999999
#
# number of rings (size 3 to 8) (size 9 to 14) (size 15 to 20)
#    0.000    1.778    0.000    7.667    0.000    3.556 
#    0.000    6.111    0.000   13.333    0.000    1.556 
#    0.000    0.000    0.000    0.000    0.000    0.000 
#
# Total GULP energy -201033.489364 kJ/mol
# GULP energy per Si atom -5584.263593 kJ/mol
# Density = 2.345372 g / cm^3
# Si number density = 23.507219 Si / 1000 Ang^3
#
#
#
# Elastic Constant Matrix: (Units=GPa)
#
#
# Indices 1 2 3 4 5 6 
#
# 1 46.6179 8.5026 18.6235 0.0000 0.0000 0.0000
# 2 8.5026 100.2696 51.3557 0.0000 0.0000 0.0000
# 3 18.6235 51.3557 130.0706 0.0000 0.0000 0.0000
# 4 0.0000 0.0000 0.0000 31.5412 0.0000 0.0000
# 5 0.0000 0.0000 0.0000 0.0000 2.1233 0.0000
# 6 0.0000 0.0000 0.0000 0.0000 0.0000 3.1718
#
#
#
# Elastic Compliance Matrix: (Units=1/GPa)
#
#
# Indices 1 2 3 4 5 6 
#
# 1 0.022761 -0.000327 -0.003130 0.000000 0.000000 0.000000
# 2 -0.000327 0.012506 -0.004891 0.000000 0.000000 0.000000
# 3 -0.003130 -0.004891 0.010067 0.000000 0.000000 0.000000
# 4 0.000000 0.000000 0.000000 0.031705 0.000000 0.000000
# 5 0.000000 0.000000 0.000000 0.000000 0.470960 0.000000
# 6 0.000000 0.000000 0.000000 0.000000 0.000000 0.315276
#
#
# Mechanical properties :
#
#
# Convention : Reuss Voigt Hill
#
# Bulk Modulus (GPa) = 34.91778 48.21352 41.56565
# Shear Modulus (GPa) = 5.62103 20.59901 13.11002
#
# Velocity S-wave (km/s) = 1.54803 2.96342 2.36413
# Velocity P-wave (km/s) = 4.25223 5.68012 5.01723
#
# Compressibility (1/GPa) = 0.02863871
#
# Stress axis : x y z
#
# Youngs Moduli (GPa) = 43.93488 79.96274 99.33148
#
# Poissons Ratio (x) = 0.02615 0.31088
# Poissons Ratio (y) = 0.01437 0.48581
# Poissons Ratio (z) = 0.13751 0.39108
#
# Static dielectric constant tensor:
#      x y z
#    x 1.867990 0.000000 0.000000 
#    y 0.000000 1.952190 0.000000 
#    z 0.000000 0.000000 1.973090 
# 
# From -- ./inp_files/14306.got.cif
#   From: 2010.05.17/outbox.cif.g08.bks.cpg/sg68_8_cif.got.tgz:14306.got - 2010.06.03 18:57:09.
