data_PCOD9506327
_publ_section_title
;
Structure prediction by ZEFSAII (Michael W. Deem and Ramdas Pophale) SiO2 
 PCOD9506327
Probable space group: C C C A
;
_chemical_formula_sum "Si O2"
_cell_formula_units_Z 96
_cell_length_a 14.881870
_cell_length_b 11.592956
_cell_length_c 26.700718
_cell_angle_alpha 90.000000
_cell_angle_beta 90.000000
_cell_angle_gamma 90.000000
_cell_volume 4606.537745
_symmetry_space_group_name_H-M "C C C A"
_symmetry_group_IT_number 68
_space_group.IT_coordinate_system_code '2'
_symmetry_cell_setting 'orthorhombic'
loop_
_space_group_symop_operation_xyz
x,y,z
-x,1/2-y,z
x,1/2-y,1/2-z
-x,y,1/2-z
-x,-y,-z
x,1/2+y,-z
-x,1/2+y,1/2+z
x,-y,1/2+z
1/2+x,1/2+y,z
1/2-x,-y,z
1/2+x,-y,1/2-z
1/2-x,1/2+y,1/2-z
1/2-x,1/2-y,-z
1/2+x,y,-z
1/2-x,y,1/2+z
1/2+x,1/2-y,1/2+z
loop_
_atom_site_type_symbol
_atom_site_label
_atom_site_fract_x
_atom_site_fract_y
_atom_site_fract_z
Si Si1 0.269314 0.629535 0.219187
Si Si2 0.972555 0.383119 0.304516
Si Si3 0.662935 0.186101 0.122301
Si Si4 0.475434 0.015053 0.906957
Si Si5 0.417139 0.164086 0.049032
Si Si6 0.692771 0.617302 0.458095
O O1 0.278564 0.750000 0.250000
O O2 0.250000 0.500000 0.241984
O O3 0.365059 0.611008 0.192390
O O4 0.194567 0.660388 0.177937
O O5 0.012830 0.437753 0.354672
O O6 0.000000 0.250000 0.303928
O O7 0.000000 0.433052 0.250000
O O8 0.589199 0.091501 0.107535
O O9 0.616571 0.303836 0.105024
O O10 0.748083 0.173208 0.085588
O O11 0.547692 0.965984 0.945834
O O12 0.405894 0.098908 0.933963
O O13 0.500000 0.250000 0.035819
O O14 0.335952 0.176431 0.010010
O O15 0.750000 0.500000 0.469259
#
# Coordination Sequence:
#
# PCOD9506327 Si02
#       6
#    16  16  16  16  16  16
#     4  12  23  44  71  97 127 174 224 269 335 402
#     4  11  22  40  63  91 122 163 211 270 326 386
#     4  10  20  40  63  86 127 173 209 265 331 393
#     4  10  20  39  63  84 127 168 209 264 329 389
#     4  10  22  37  58  92 126 159 216 269 316 379
#     4  10  19  37  61  86 124 176 212 260 325 392
#
# _framework density 20.839946999999999
#
# number of rings (size 3 to 8) (size 9 to 14) (size 15 to 20)
#    0.000    1.500    5.000    1.500    0.000    2.000 
#    3.000    0.000    0.000    0.000    0.000    0.000 
#    0.000    0.000    0.000    0.000    0.000    0.000 
#
# Total GULP energy -267297.916423 kJ/mol
# GULP energy per Si atom -5568.706592 kJ/mol
# Density = 2.079251 g / cm^3
# Si number density = 20.839947 Si / 1000 Ang^3
#
#
#
# Elastic Constant Matrix: (Units=GPa)
#
#
# Indices 1 2 3 4 5 6 
#
# 1 44.4864 4.2792 -3.2184 0.0000 0.0000 0.0000
# 2 4.2792 62.2059 24.5092 0.0000 0.0000 0.0000
# 3 -3.2184 24.5092 83.9961 0.0000 0.0000 0.0000
# 4 0.0000 0.0000 0.0000 23.2601 0.0000 0.0000
# 5 0.0000 0.0000 0.0000 0.0000 31.3177 0.0000
# 6 0.0000 0.0000 0.0000 0.0000 0.0000 19.3337
#
#
#
# Elastic Compliance Matrix: (Units=1/GPa)
#
#
# Indices 1 2 3 4 5 6 
#
# 1 0.022795 -0.002161 0.001504 0.000000 0.000000 0.000000
# 2 -0.002161 0.018369 -0.005443 0.000000 0.000000 0.000000
# 3 0.001504 -0.005443 0.013551 0.000000 0.000000 0.000000
# 4 0.000000 0.000000 0.000000 0.042992 0.000000 0.000000
# 5 0.000000 0.000000 0.000000 0.000000 0.031931 0.000000
# 6 0.000000 0.000000 0.000000 0.000000 0.000000 0.051723
#
#
# Mechanical properties :
#
#
# Convention : Reuss Voigt Hill
#
# Bulk Modulus (GPa) = 23.52033 26.86983 25.19508
# Shear Modulus (GPa) = 24.06948 25.79020 24.92984
#
# Velocity S-wave (km/s) = 3.40217 3.52168 3.46244
# Velocity P-wave (km/s) = 5.17143 5.42750 5.30101
#
# Compressibility (1/GPa) = 0.04251641
#
# Stress axis : x y z
#
# Youngs Moduli (GPa) = 43.86846 54.44056 73.79509
#
# Poissons Ratio (x) = 0.11763 -0.11098
# Poissons Ratio (y) = 0.09479 0.40164
# Poissons Ratio (z) = -0.06597 0.29630
#
# Static dielectric constant tensor:
#      x y z
#    x 1.751510 0.000000 0.000000 
#    y 0.000000 1.792260 0.000000 
#    z 0.000000 0.000000 1.763800 
# 
# From -- ./inp_files/45990.got.cif
#   From: 2010.05.17/outbox.cif.g08.bks.cpg/sg68_23_cif.got.tgz:45990.got - 2010.06.03 18:57:09.
