data_PCOD9506366
_publ_section_title
;
Structure prediction by ZEFSAII (Michael W. Deem and Ramdas Pophale) SiO2 
 PCOD9506366
Probable space group: C C C A
;
_chemical_formula_sum "Si O2"
_cell_formula_units_Z 88
_cell_length_a 10.611997
_cell_length_b 14.786665
_cell_length_c 28.937305
_cell_angle_alpha 90.000000
_cell_angle_beta 90.000000
_cell_angle_gamma 90.000000
_cell_volume 4540.727443
_symmetry_space_group_name_H-M "C C C A"
_symmetry_group_IT_number 68
_space_group.IT_coordinate_system_code '2'
_symmetry_cell_setting 'orthorhombic'
loop_
_space_group_symop_operation_xyz
x,y,z
-x,1/2-y,z
x,1/2-y,1/2-z
-x,y,1/2-z
-x,-y,-z
x,1/2+y,-z
-x,1/2+y,1/2+z
x,-y,1/2+z
1/2+x,1/2+y,z
1/2-x,-y,z
1/2+x,-y,1/2-z
1/2-x,1/2+y,1/2-z
1/2-x,1/2-y,-z
1/2+x,y,-z
1/2-x,y,1/2+z
1/2+x,1/2-y,1/2+z
loop_
_atom_site_type_symbol
_atom_site_label
_atom_site_fract_x
_atom_site_fract_y
_atom_site_fract_z
Si Si1 0.196276 0.601394 0.636430
Si Si2 0.750000 0.500000 0.688364
Si Si3 0.915521 0.837696 0.076082
Si Si4 0.871658 0.943938 0.990784
Si Si5 0.147733 0.143223 0.257441
Si Si6 0.054982 0.522580 0.892930
O O1 0.250000 0.500000 0.632009
O O2 0.290200 0.663955 0.607337
O O3 0.188151 0.624041 0.690208
O O4 0.056041 0.593911 0.616560
O O5 0.767448 0.585931 0.721938
O O6 0.867801 0.503394 0.653445
O O7 0.000000 0.750000 0.081499
O O8 0.994185 0.926796 0.091708
O O9 0.879838 0.855771 0.022545
O O10 0.750000 0.000000 0.007270
O O11 0.864649 0.936932 0.935471
O O12 0.000000 0.000000 0.000000
O O13 0.158380 0.250000 0.250000
O O14 0.000000 0.117557 0.250000
#
# Coordination Sequence:
#
# PCOD9506366 Si02
#       6
#    16   8  16  16  16  16
#     4  10  20  41  63  86 123 171 207 262 333 384
#     4  12  22  40  68  90 124 168 216 264 320 394
#     4  10  22  38  61  91 126 159 211 267 319 382
#     4  10  19  38  61  88 122 167 209 256 316 388
#     4  11  24  40  62  93 130 166 217 269 326 390
#     4  10  21  38  64  89 120 168 214 254 321 398
#
# _framework density 19.380154999999998
#
# number of rings (size 3 to 8) (size 9 to 14) (size 15 to 20)
#    0.000    1.636    3.636    2.727    2.545    0.000 
#    0.000   10.000    0.000    0.000    0.000    0.000 
#    0.000    0.000    0.000    0.000    0.000    0.000 
#
# Total GULP energy -245537.594216 kJ/mol
# GULP energy per Si atom -5580.399869 kJ/mol
# Density = 1.933604 g / cm^3
# Si number density = 19.380155 Si / 1000 Ang^3
#
#
#
# Elastic Constant Matrix: (Units=GPa)
#
#
# Indices 1 2 3 4 5 6 
#
# 1 112.8895 44.5245 54.5015 0.0000 0.0000 0.0000
# 2 44.5245 63.1914 52.7271 0.0000 0.0000 0.0000
# 3 54.5015 52.7271 154.6184 0.0000 0.0000 0.0000
# 4 0.0000 0.0000 0.0000 5.2150 0.0000 0.0000
# 5 0.0000 0.0000 0.0000 0.0000 26.0067 0.0000
# 6 0.0000 0.0000 0.0000 0.0000 0.0000 22.4481
#
#
#
# Elastic Compliance Matrix: (Units=1/GPa)
#
#
# Indices 1 2 3 4 5 6 
#
# 1 0.012691 -0.007281 -0.001990 0.000000 0.000000 0.000000
# 2 -0.007281 0.026296 -0.006401 0.000000 0.000000 0.000000
# 3 -0.001990 -0.006401 0.009352 0.000000 0.000000 0.000000
# 4 0.000000 0.000000 0.000000 0.191755 0.000000 0.000000
# 5 0.000000 0.000000 0.000000 0.000000 0.038452 0.000000
# 6 0.000000 0.000000 0.000000 0.000000 0.000000 0.044547
#
#
# Mechanical properties :
#
#
# Convention : Reuss Voigt Hill
#
# Bulk Modulus (GPa) = 58.84394 70.46727 64.65560
# Shear Modulus (GPa) = 13.88495 22.66372 18.27433
#
# Velocity S-wave (km/s) = 2.67957 3.42340 3.07406
# Velocity P-wave (km/s) = 6.32474 7.21566 6.78484
#
# Compressibility (1/GPa) = 0.01699410
#
# Stress axis : x y z
#
# Youngs Moduli (GPa) = 78.79647 38.02848 106.92994
#
# Poissons Ratio (x) = 0.27689 0.21284
# Poissons Ratio (y) = 0.57373 0.68444
# Poissons Ratio (z) = 0.15684 0.24341
#
# Static dielectric constant tensor:
#      x y z
#    x 1.680200 0.000000 0.000000 
#    y 0.000000 1.647180 0.000000 
#    z 0.000000 0.000000 1.698560 
# 
# From -- ./inp_files/44259.got.cif
#   From: 2010.05.17/outbox.cif.g08.bks.cpg/sg68_23_cif.got.tgz:44259.got - 2010.06.03 18:57:09.
