data_PCOD9506960
_publ_section_title
;
Structure prediction by ZEFSAII (Michael W. Deem and Ramdas Pophale) SiO2 
 PCOD9506960
Probable space group: C C C A
;
_chemical_formula_sum "Si O2"
_cell_formula_units_Z 108
_cell_length_a 10.604623
_cell_length_b 22.446197
_cell_length_c 21.327908
_cell_angle_alpha 90.000000
_cell_angle_beta 90.000000
_cell_angle_gamma 90.000000
_cell_volume 5076.755671
_symmetry_space_group_name_H-M "C C C A"
_symmetry_group_IT_number 68
_space_group.IT_coordinate_system_code '2'
_symmetry_cell_setting 'orthorhombic'
loop_
_space_group_symop_operation_xyz
x,y,z
-x,1/2-y,z
x,1/2-y,1/2-z
-x,y,1/2-z
-x,-y,-z
x,1/2+y,-z
-x,1/2+y,1/2+z
x,-y,1/2+z
1/2+x,1/2+y,z
1/2-x,-y,z
1/2+x,-y,1/2-z
1/2-x,1/2+y,1/2-z
1/2-x,1/2-y,-z
1/2+x,y,-z
1/2-x,y,1/2+z
1/2+x,1/2-y,1/2+z
loop_
_atom_site_type_symbol
_atom_site_label
_atom_site_fract_x
_atom_site_fract_y
_atom_site_fract_z
Si Si1 0.327132 0.404405 0.495240
Si Si2 0.000000 0.750000 0.750000
Si Si3 0.500000 0.250000 0.135259
Si Si4 0.118443 0.313179 0.363072
Si Si5 0.111291 0.367988 0.857042
Si Si6 0.063484 0.572187 0.931363
Si Si7 0.251560 0.713510 0.063420
Si Si8 0.099823 0.503287 0.304182
O O1 0.395713 0.376388 0.433134
O O2 0.196551 0.432855 0.468982
O O3 0.436713 0.441834 0.529522
O O4 0.280525 0.353593 0.543729
O O5 0.931981 0.704673 0.703701
O O6 0.458180 0.190064 0.169079
O O7 0.617442 0.226322 0.094900
O O8 0.243383 0.351384 0.349648
O O9 0.049333 0.357993 0.410677
O O10 0.149268 0.249353 0.394181
O O11 0.074892 0.428365 0.823601
O O12 0.076643 0.534507 0.867652
O O13 0.250000 0.750000 0.000000
O O14 0.250000 0.500000 0.287201
O O15 0.000000 0.485762 0.250000
#
# Coordination Sequence:
#
# PCOD9506960 Si02
#       8
#    16   4   8  16  16  16  16  16
#     4  11  21  38  71 104 153 179 230 299 362 446
#     4  12  24  38  60 102 144 186 248 288 330 412
#     4  10  20  37  63 100 144 174 232 284 346 444
#     4  10  22  38  63  97 145 184 235 292 349 417
#     4  10  22  44  67 101 137 185 228 299 358 417
#     4  11  24  44  71 105 139 190 233 301 372 425
#     4  11  19  35  62 100 141 190 221 274 368 431
#     4  12  27  56  76  98 141 194 251 303 354 429
#
# _framework density 21.273427999999999
#
# number of rings (size 3 to 8) (size 9 to 14) (size 15 to 20)
#    0.000    1.185    7.407    1.778    1.037    1.185 
#   10.667    0.000    0.000    0.000    0.000    0.000 
#    0.000    0.000    0.000    0.000    0.000    0.000 
#
# Total GULP energy -301206.555422 kJ/mol
# GULP energy per Si atom -5577.899174 kJ/mol
# Density = 2.122501 g / cm^3
# Si number density = 21.273428 Si / 1000 Ang^3
#
#
#
# Elastic Constant Matrix: (Units=GPa)
#
#
# Indices 1 2 3 4 5 6 
#
# 1 122.4042 46.4653 69.1260 0.0000 0.0000 0.0000
# 2 46.4653 109.2288 35.1722 0.0000 0.0000 0.0000
# 3 69.1260 35.1722 113.5133 0.0000 0.0000 0.0000
# 4 0.0000 0.0000 0.0000 46.7513 0.0000 0.0000
# 5 0.0000 0.0000 0.0000 0.0000 32.9959 0.0000
# 6 0.0000 0.0000 0.0000 0.0000 0.0000 24.7531
#
#
#
# Elastic Compliance Matrix: (Units=1/GPa)
#
#
# Indices 1 2 3 4 5 6 
#
# 1 0.013527 -0.003445 -0.007170 0.000000 0.000000 0.000000
# 2 -0.003445 0.011047 -0.001325 0.000000 0.000000 0.000000
# 3 -0.007170 -0.001325 0.013586 0.000000 0.000000 0.000000
# 4 0.000000 0.000000 0.000000 0.021390 0.000000 0.000000
# 5 0.000000 0.000000 0.000000 0.000000 0.030307 0.000000
# 6 0.000000 0.000000 0.000000 0.000000 0.000000 0.040399
#
#
# Mechanical properties :
#
#
# Convention : Reuss Voigt Hill
#
# Bulk Modulus (GPa) = 70.02748 71.85260 70.94004
# Shear Modulus (GPa) = 31.46719 33.85890 32.66305
#
# Velocity S-wave (km/s) = 3.85018 3.99382 3.92266
# Velocity P-wave (km/s) = 7.26323 7.42405 7.34408
#
# Compressibility (1/GPa) = 0.01428011
#
# Stress axis : x y z
#
# Youngs Moduli (GPa) = 73.92887 90.51916 73.60441
#
# Poissons Ratio (x) = 0.31188 0.52772
# Poissons Ratio (y) = 0.25472 0.09752
# Poissons Ratio (z) = 0.53004 0.11993
#
# Static dielectric constant tensor:
#      x y z
#    x 1.846680 0.000000 0.000000 
#    y 0.000000 2.160240 0.000000 
#    z 0.000000 0.000000 1.753090 
# 
# From -- ./inp_files/37852.got.cif
#   From: 2010.05.17/outbox.cif.g08.bks.cpg/sg68_19_cif.got.tgz:37852.got - 2010.06.03 18:57:09.
