data_PCOD9506052
_publ_section_title
;
Structure prediction by ZEFSAII (Michael W. Deem and Ramdas Pophale) SiO2 
 PCOD9506052
Probable space group: C C C A
;
_chemical_formula_sum "Si O2"
_cell_formula_units_Z 80
_cell_length_a 16.014779
_cell_length_b 23.779868
_cell_length_c 10.089403
_cell_angle_alpha 90.000000
_cell_angle_beta 90.000000
_cell_angle_gamma 90.000000
_cell_volume 3842.340591
_symmetry_space_group_name_H-M "C C C A"
_symmetry_group_IT_number 68
_space_group.IT_coordinate_system_code '2'
_symmetry_cell_setting 'orthorhombic'
loop_
_space_group_symop_operation_xyz
x,y,z
-x,1/2-y,z
x,1/2-y,1/2-z
-x,y,1/2-z
-x,-y,-z
x,1/2+y,-z
-x,1/2+y,1/2+z
x,-y,1/2+z
1/2+x,1/2+y,z
1/2-x,-y,z
1/2+x,-y,1/2-z
1/2-x,1/2+y,1/2-z
1/2-x,1/2-y,-z
1/2+x,y,-z
1/2-x,y,1/2+z
1/2+x,1/2-y,1/2+z
loop_
_atom_site_type_symbol
_atom_site_label
_atom_site_fract_x
_atom_site_fract_y
_atom_site_fract_z
Si Si1 0.310380 0.813981 0.255033
Si Si2 0.463717 0.590194 0.982877
Si Si3 0.927316 0.514228 0.349161
Si Si4 0.250000 0.000000 0.892837
Si Si5 0.500000 0.842809 0.250000
Si Si6 0.716001 0.380883 0.027892
O O1 0.278436 0.750000 0.250000
O O2 0.411044 0.812348 0.240744
O O3 0.287708 0.843580 0.393993
O O4 0.273341 0.852504 0.138039
O O5 0.430461 0.528792 0.028312
O O6 0.490571 0.621440 0.115533
O O7 0.380861 0.617415 0.922298
O O8 0.543555 0.576018 0.893905
O O9 0.832741 0.507856 0.303432
O O10 0.000000 0.495953 0.250000
O O11 0.255300 0.056777 0.981134
#
# Coordination Sequence:
#
# PCOD9506052 Si02
#       6
#    16  16  16   8   8  16
#     4  11  23  41  64  90 123 168 217 271 322 384
#     4   9  19  35  54  85 117 164 196 259 312 371
#     4  10  19  33  54  82 129 160 204 249 307 388
#     4  10  22  38  58 100 124 176 206 262 332 384
#     4  10  19  38  60  82 116 158 218 262 319 378
#     4  10  23  39  63  92 127 162 216 264 323 394
#
# _framework density 20.820643
#
# number of rings (size 3 to 8) (size 9 to 14) (size 15 to 20)
#    0.000    2.000    1.000    2.100    2.800    0.800 
#    0.000    0.000    0.000    0.000    0.000    5.600 
#    0.000    0.000    0.000    0.000    0.000    0.000 
#
# Total GULP energy -223040.857871 kJ/mol
# GULP energy per Si atom -5576.021447 kJ/mol
# Density = 2.077325 g / cm^3
# Si number density = 20.820643 Si / 1000 Ang^3
#
#
#
# Elastic Constant Matrix: (Units=GPa)
#
#
# Indices 1 2 3 4 5 6 
#
# 1 156.7354 33.6562 55.5303 0.0000 0.0000 0.0000
# 2 33.6562 115.6049 34.7646 0.0000 0.0000 0.0000
# 3 55.5303 34.7646 75.9734 0.0000 0.0000 0.0000
# 4 0.0000 0.0000 0.0000 5.0598 0.0000 0.0000
# 5 0.0000 0.0000 0.0000 0.0000 20.6252 0.0000
# 6 0.0000 0.0000 0.0000 0.0000 0.0000 11.6640
#
#
#
# Elastic Compliance Matrix: (Units=1/GPa)
#
#
# Indices 1 2 3 4 5 6 
#
# 1 0.008661 -0.000716 -0.006002 0.000000 0.000000 0.000000
# 2 -0.000716 0.010090 -0.004093 0.000000 0.000000 0.000000
# 3 -0.006002 -0.004093 0.019423 0.000000 0.000000 0.000000
# 4 0.000000 0.000000 0.000000 0.197636 0.000000 0.000000
# 5 0.000000 0.000000 0.000000 0.000000 0.048484 0.000000
# 6 0.000000 0.000000 0.000000 0.000000 0.000000 0.085734
#
#
# Mechanical properties :
#
#
# Convention : Reuss Voigt Hill
#
# Bulk Modulus (GPa) = 60.42681 66.24620 63.33650
# Shear Modulus (GPa) = 12.58913 22.42731 17.50822
#
# Velocity S-wave (km/s) = 2.46162 3.28558 2.90299
# Velocity P-wave (km/s) = 6.09631 6.80294 6.45930
#
# Compressibility (1/GPa) = 0.01654895
#
# Stress axis : x y z
#
# Youngs Moduli (GPa) = 115.46529 99.11150 51.48576
#
# Poissons Ratio (x) = 0.07100 0.30904
# Poissons Ratio (y) = 0.08271 0.21075
# Poissons Ratio (z) = 0.69307 0.40570
#
# Static dielectric constant tensor:
#      x y z
#    x 1.853730 0.000000 0.000000 
#    y 0.000000 1.745170 0.000000 
#    z 0.000000 0.000000 1.764800 
# 
# From -- ./inp_files/13236.got.cif
#   From: 2010.05.17/outbox.cif.g08.bks.cpg/sg68_7_cif.got.tgz:13236.got - 2010.06.03 18:57:09.
