data_PCOD9506096
_publ_section_title
;
Structure prediction by ZEFSAII (Michael W. Deem and Ramdas Pophale) SiO2 
 PCOD9506096
Probable space group: C C C A
;
_chemical_formula_sum "Si O2"
_cell_formula_units_Z 120
_cell_length_a 26.505323
_cell_length_b 11.638861
_cell_length_c 17.114880
_cell_angle_alpha 90.000000
_cell_angle_beta 90.000000
_cell_angle_gamma 90.000000
_cell_volume 5279.799627
_symmetry_space_group_name_H-M "C C C A"
_symmetry_group_IT_number 68
_space_group.IT_coordinate_system_code '2'
_symmetry_cell_setting 'orthorhombic'
loop_
_space_group_symop_operation_xyz
x,y,z
-x,1/2-y,z
x,1/2-y,1/2-z
-x,y,1/2-z
-x,-y,-z
x,1/2+y,-z
-x,1/2+y,1/2+z
x,-y,1/2+z
1/2+x,1/2+y,z
1/2-x,-y,z
1/2+x,-y,1/2-z
1/2-x,1/2+y,1/2-z
1/2-x,1/2-y,-z
1/2+x,y,-z
1/2-x,y,1/2+z
1/2+x,1/2-y,1/2+z
loop_
_atom_site_type_symbol
_atom_site_label
_atom_site_fract_x
_atom_site_fract_y
_atom_site_fract_z
Si Si1 0.021897 0.873172 0.907382
Si Si2 0.308439 0.971780 0.504907
Si Si3 0.250000 0.500000 0.701153
Si Si4 0.870940 0.705710 0.911020
Si Si5 0.805393 0.893126 0.841956
Si Si6 0.008898 0.379000 0.591706
Si Si7 0.291484 0.761951 0.841813
Si Si8 0.879634 0.163622 0.561403
O O1 0.081599 0.869982 0.885545
O O2 0.000000 0.750000 0.880463
O O3 0.995358 0.991977 0.878215
O O4 0.013756 0.876777 0.002711
O O5 0.326196 0.856508 0.460756
O O6 0.250000 0.000000 0.496421
O O7 0.318854 0.008439 0.595407
O O8 0.343093 0.061518 0.460196
O O9 0.206252 0.549270 0.758768
O O10 0.268621 0.609701 0.654024
O O11 0.846016 0.791092 0.848344
O O12 0.895510 0.781811 0.979422
O O13 0.752389 0.828273 0.864651
O O14 0.069259 0.380530 0.596608
O O15 0.000000 0.250000 0.625244
O O16 0.300904 0.750000 0.750000
O O17 0.344074 0.754353 0.887027
#
# Coordination Sequence:
#
# PCOD9506096 Si02
#       8
#    16  16   8  16  16  16  16  16
#     4  10  19  35  53  84 126 161 192 240 314 387
#     4  11  21  33  56  86 126 153 185 248 306 391
#     4  10  22  42  56  76 116 170 208 268 296 356
#     4  11  21  34  59  87 125 158 193 251 314 395
#     4  10  22  39  54  85 119 160 205 250 314 373
#     4  10  19  34  54  83 122 153 196 249 303 380
#     4  10  23  39  57  78 116 160 214 252 291 357
#     4  11  21  34  55  88 112 162 197 240 314 370
#
# _framework density 22.728135999999999
#
# number of rings (size 3 to 8) (size 9 to 14) (size 15 to 20)
#    0.000    1.600    4.667    1.600    4.667    2.133 
#    0.000    0.000    0.000    0.400    0.000    0.000 
#    0.000    5.600    0.000    0.000    0.000    0.000 
#
# Total GULP energy -334213.276761 kJ/mol
# GULP energy per Si atom -5570.221279 kJ/mol
# Density = 2.267641 g / cm^3
# Si number density = 22.728136 Si / 1000 Ang^3
#
#
#
# Elastic Constant Matrix: (Units=GPa)
#
#
# Indices 1 2 3 4 5 6 
#
# 1 94.0276 21.7905 2.0321 0.0000 0.0000 0.0000
# 2 21.7905 149.8965 8.4494 0.0000 0.0000 0.0000
# 3 2.0321 8.4494 43.9475 0.0000 0.0000 0.0000
# 4 0.0000 0.0000 0.0000 21.7778 0.0000 0.0000
# 5 0.0000 0.0000 0.0000 0.0000 3.1094 0.0000
# 6 0.0000 0.0000 0.0000 0.0000 0.0000 32.0297
#
#
#
# Elastic Compliance Matrix: (Units=1/GPa)
#
#
# Indices 1 2 3 4 5 6 
#
# 1 0.011008 -0.001589 -0.000204 0.000000 0.000000 0.000000
# 2 -0.001589 0.006974 -0.001267 0.000000 0.000000 0.000000
# 3 -0.000204 -0.001267 0.023008 0.000000 0.000000 0.000000
# 4 0.000000 0.000000 0.000000 0.045918 0.000000 0.000000
# 5 0.000000 0.000000 0.000000 0.000000 0.321610 0.000000
# 6 0.000000 0.000000 0.000000 0.000000 0.000000 0.031221
#
#
# Mechanical properties :
#
#
# Convention : Reuss Voigt Hill
#
# Bulk Modulus (GPa) = 28.67814 39.15730 33.91772
# Shear Modulus (GPa) = 10.92943 28.42334 19.67638
#
# Velocity S-wave (km/s) = 2.19527 3.54019 2.94552
# Velocity P-wave (km/s) = 4.36702 5.82894 5.15012
#
# Compressibility (1/GPa) = 0.03486976
#
# Stress axis : x y z
#
# Youngs Moduli (GPa) = 90.84504 143.39671 43.46408
#
# Poissons Ratio (x) = 0.22782 0.00885
# Poissons Ratio (y) = 0.14433 0.05508
# Poissons Ratio (z) = 0.01849 0.18173
#
# Static dielectric constant tensor:
#      x y z
#    x 1.855030 0.000000 0.000000 
#    y 0.000000 1.998420 0.000000 
#    z 0.000000 0.000000 1.864370 
# 
# From -- ./inp_files/40928.got.cif
#   From: 2010.05.17/outbox.cif.g08.bks.cpg/sg68_21_cif.got.tgz:40928.got - 2010.06.03 18:57:09.
