data_PCOD9506577
_publ_section_title
;
Structure prediction by ZEFSAII (Michael W. Deem and Ramdas Pophale) SiO2 
 PCOD9506577
Probable space group: C C C A
;
_chemical_formula_sum "Si O2"
_cell_formula_units_Z 96
_cell_length_a 22.488856
_cell_length_b 21.814308
_cell_length_c 9.313900
_cell_angle_alpha 90.000000
_cell_angle_beta 90.000000
_cell_angle_gamma 90.000000
_cell_volume 4569.202177
_symmetry_space_group_name_H-M "C C C A"
_symmetry_group_IT_number 68
_space_group.IT_coordinate_system_code '2'
_symmetry_cell_setting 'orthorhombic'
loop_
_space_group_symop_operation_xyz
x,y,z
-x,1/2-y,z
x,1/2-y,1/2-z
-x,y,1/2-z
-x,-y,-z
x,1/2+y,-z
-x,1/2+y,1/2+z
x,-y,1/2+z
1/2+x,1/2+y,z
1/2-x,-y,z
1/2+x,-y,1/2-z
1/2-x,1/2+y,1/2-z
1/2-x,1/2-y,-z
1/2+x,y,-z
1/2-x,y,1/2+z
1/2+x,1/2-y,1/2+z
loop_
_atom_site_type_symbol
_atom_site_label
_atom_site_fract_x
_atom_site_fract_y
_atom_site_fract_z
Si Si1 0.894309 0.501386 0.637097
Si Si2 0.547036 0.054049 0.617127
Si Si3 0.687158 0.259697 0.418531
Si Si4 0.136341 0.159020 0.384094
Si Si5 0.280196 0.561173 0.984018
Si Si6 0.836829 0.371485 0.084737
O O1 0.906209 0.508060 0.805377
O O2 0.948815 0.471553 0.546756
O O3 0.834724 0.462882 0.611971
O O4 0.881721 0.571289 0.586180
O O5 0.500000 0.057451 0.750000
O O6 0.575063 0.121702 0.603424
O O7 0.693862 0.250000 0.250000
O O8 0.750000 0.250000 0.500000
O O9 0.644416 0.211087 0.498121
O O10 0.664633 0.328487 0.446856
O O11 0.188164 0.108579 0.411172
O O12 0.147004 0.173240 0.217155
O O13 0.250000 0.500000 0.049160
O O14 0.228295 0.597881 0.903803
#
# Coordination Sequence:
#
# PCOD9506577 Si02
#       6
#    16  16  16  16  16  16
#     4   9  20  34  54  84 113 147 191 234 291 356
#     4  10  20  37  59  85 116 151 193 248 298 343
#     4  12  24  37  55  80 116 158 196 236 288 353
#     4  10  21  35  54  82 113 152 199 236 282 356
#     4   9  18  30  50  80 115 148 179 223 283 344
#     4  10  20  34  54  78 117 154 187 232 287 345
#
# _framework density 21.010234000000001
#
# number of rings (size 3 to 8) (size 9 to 14) (size 15 to 20)
#    0.000    2.000    1.667    2.000    0.000    8.667 
#    0.000    0.000    0.000    8.000    0.000    4.667 
#    0.000    0.000    0.000    0.000    0.000    0.000 
#
# Total GULP energy -267433.483314 kJ/mol
# GULP energy per Si atom -5571.530902 kJ/mol
# Density = 2.096241 g / cm^3
# Si number density = 21.010234 Si / 1000 Ang^3
#
#
#
# Elastic Constant Matrix: (Units=GPa)
#
#
# Indices 1 2 3 4 5 6 
#
# 1 30.3721 4.8207 -4.2841 0.0000 0.0000 0.0000
# 2 4.8207 71.7563 36.1190 0.0000 0.0000 0.0000
# 3 -4.2841 36.1190 101.5775 0.0000 0.0000 0.0000
# 4 0.0000 0.0000 0.0000 38.5776 0.0000 0.0000
# 5 0.0000 0.0000 0.0000 0.0000 19.9489 0.0000
# 6 0.0000 0.0000 0.0000 0.0000 0.0000 9.4397
#
#
#
# Elastic Compliance Matrix: (Units=1/GPa)
#
#
# Indices 1 2 3 4 5 6 
#
# 1 0.033889 -0.003649 0.002727 0.000000 0.000000 0.000000
# 2 -0.003649 0.017367 -0.006329 0.000000 0.000000 0.000000
# 3 0.002727 -0.006329 0.012210 0.000000 0.000000 0.000000
# 4 0.000000 0.000000 0.000000 0.025922 0.000000 0.000000
# 5 0.000000 0.000000 0.000000 0.000000 0.050128 0.000000
# 6 0.000000 0.000000 0.000000 0.000000 0.000000 0.105935
#
#
# Mechanical properties :
#
#
# Convention : Reuss Voigt Hill
#
# Bulk Modulus (GPa) = 20.42367 30.77969 25.60168
# Shear Modulus (GPa) = 18.09784 24.72993 21.41389
#
# Velocity S-wave (km/s) = 2.93812 3.43453 3.19597
# Velocity P-wave (km/s) = 4.60998 5.51449 5.08240
#
# Compressibility (1/GPa) = 0.04896280
#
# Stress axis : x y z
#
# Youngs Moduli (GPa) = 29.50823 57.57998 81.89809
#
# Poissons Ratio (x) = 0.21013 -0.22333
# Poissons Ratio (y) = 0.10768 0.51836
# Poissons Ratio (z) = -0.08047 0.36444
#
# Static dielectric constant tensor:
#      x y z
#    x 1.865960 0.000000 0.000000 
#    y 0.000000 1.768740 0.000000 
#    z 0.000000 0.000000 1.770130 
# 
# From -- ./inp_files/8135.got.cif
#   From: 2010.05.17/outbox.cif.g08.bks.cpg/sg68_5_cif.got.tgz:8135.got - 2010.06.03 18:57:09.
