data_PCOD9506098
_publ_section_title
;
Structure prediction by ZEFSAII (Michael W. Deem and Ramdas Pophale) SiO2 
 PCOD9506098
Probable space group: C C C A
;
_chemical_formula_sum "Si O2"
_cell_formula_units_Z 80
_cell_length_a 26.537071
_cell_length_b 4.938889
_cell_length_c 29.710134
_cell_angle_alpha 90.000000
_cell_angle_beta 90.000000
_cell_angle_gamma 90.000000
_cell_volume 3893.918546
_symmetry_space_group_name_H-M "C C C A"
_symmetry_group_IT_number 68
_space_group.IT_coordinate_system_code '2'
_symmetry_cell_setting 'orthorhombic'
loop_
_space_group_symop_operation_xyz
x,y,z
-x,1/2-y,z
x,1/2-y,1/2-z
-x,y,1/2-z
-x,-y,-z
x,1/2+y,-z
-x,1/2+y,1/2+z
x,-y,1/2+z
1/2+x,1/2+y,z
1/2-x,-y,z
1/2+x,-y,1/2-z
1/2-x,1/2+y,1/2-z
1/2-x,1/2-y,-z
1/2+x,y,-z
1/2-x,y,1/2+z
1/2+x,1/2-y,1/2+z
loop_
_atom_site_type_symbol
_atom_site_label
_atom_site_fract_x
_atom_site_fract_y
_atom_site_fract_z
Si Si1 0.750000 0.000000 0.278732
Si Si2 0.948683 0.839276 0.096319
Si Si3 0.161924 0.720086 0.097210
Si Si4 0.662275 0.275157 0.659309
Si Si5 0.250000 0.500000 0.533833
Si Si6 0.051483 0.840549 0.660033
O O1 0.728281 0.250000 0.250000
O O2 0.793209 0.139263 0.308293
O O3 0.893807 0.796409 0.075234
O O4 0.949925 0.641400 0.140034
O O5 0.000000 0.750000 0.071235
O O6 0.948814 0.141282 0.116147
O O7 0.163666 0.530697 0.141577
O O8 0.203745 0.586948 0.065840
O O9 0.167849 0.025032 0.115715
O O10 0.606700 0.310826 0.680815
O O11 0.250000 0.250000 0.500000
O O12 0.000000 0.750000 0.684621
#
# Coordination Sequence:
#
# PCOD9506098 Si02
#       6
#     8  16  16  16   8  16
#     4  12  24  36  50  74 108 140 172 214 262 304
#     4   8  14  25  45  73  98 118 152 205 252 288
#     4  10  19  34  55  75  98 131 172 210 248 303
#     4  10  19  34  55  76  99 132 173 211 250 305
#     4  12  24  36  50  72 104 136 168 210 256 298
#     4   8  14  25  45  74  98 118 154 207 253 288
#
# _framework density 20.544858999999999
#
# number of rings (size 3 to 8) (size 9 to 14) (size 15 to 20)
#    0.000    2.400    0.000    3.600    0.000    0.000 
#    0.000    0.000    0.000    1.800    0.000    1.400 
#    0.000    0.000    0.000    0.000    0.000    0.000 
#
# Total GULP energy -222686.317974 kJ/mol
# GULP energy per Si atom -5567.157949 kJ/mol
# Density = 2.049810 g / cm^3
# Si number density = 20.544859 Si / 1000 Ang^3
#
#
#
# Elastic Constant Matrix: (Units=GPa)
#
#
# Indices 1 2 3 4 5 6 
#
# 1 175.4750 -5.1360 32.0437 0.0000 0.0000 0.0000
# 2 -5.1360 90.1207 0.6645 0.0000 0.0000 0.0000
# 3 32.0437 0.6645 20.6488 0.0000 0.0000 0.0000
# 4 0.0000 0.0000 0.0000 21.3837 0.0000 0.0000
# 5 0.0000 0.0000 0.0000 0.0000 -15.5584 0.0000
# 6 0.0000 0.0000 0.0000 0.0000 0.0000 35.9617
#
#
#
# Elastic Compliance Matrix: (Units=1/GPa)
#
#
# Indices 1 2 3 4 5 6 
#
# 1 0.007979 0.000546 -0.012400 0.000000 0.000000 0.000000
# 2 0.000546 0.011136 -0.001206 0.000000 0.000000 0.000000
# 3 -0.012400 -0.001206 0.067711 0.000000 0.000000 0.000000
# 4 0.000000 0.000000 0.000000 0.046765 0.000000 0.000000
# 5 0.000000 0.000000 0.000000 0.000000 -0.064274 0.000000
# 6 0.000000 0.000000 0.000000 0.000000 0.000000 0.027807
#
#
# Mechanical properties :
#
#
# Convention : Reuss Voigt Hill
#
# Bulk Modulus (GPa) = 16.47266 37.93208 27.20237
# Shear Modulus (GPa) = 34.84824 25.60224 30.22524
#
# Velocity S-wave (km/s) = 4.12297 3.53393 3.83976
# Velocity P-wave (km/s) = 5.54080 5.92914 5.73826
#
# Compressibility (1/GPa) = 0.06070665
#
# Stress axis : x y z
#
# Youngs Moduli (GPa) = 125.32595 89.79681 14.76868
#
# Poissons Ratio (x) = -0.04904 0.18313
# Poissons Ratio (y) = -0.06845 0.01781
# Poissons Ratio (z) = 1.55405 0.10829
#
# Static dielectric constant tensor:
#      x y z
#    x 1.862680 0.000000 0.000000 
#    y 0.000000 1.704220 0.000000 
#    z 0.000000 0.000000 1.766540 
# 
# From -- ./inp_files/56137.got.cif
#   From: 2010.05.17/outbox.cif.g08.bks.cpg/sg68_29_cif.got.tgz:56137.got - 2010.06.03 18:57:09.
