data_PCOD9506918
_publ_section_title
;
Structure prediction by ZEFSAII (Michael W. Deem and Ramdas Pophale) SiO2 
 PCOD9506918
Probable space group: C C C A
;
_chemical_formula_sum "Si O2"
_cell_formula_units_Z 80
_cell_length_a 15.800618
_cell_length_b 13.452057
_cell_length_c 18.197337
_cell_angle_alpha 90.000000
_cell_angle_beta 90.000000
_cell_angle_gamma 90.000000
_cell_volume 3867.858791
_symmetry_space_group_name_H-M "C C C A"
_symmetry_group_IT_number 68
_space_group.IT_coordinate_system_code '2'
_symmetry_cell_setting 'orthorhombic'
loop_
_space_group_symop_operation_xyz
x,y,z
-x,1/2-y,z
x,1/2-y,1/2-z
-x,y,1/2-z
-x,-y,-z
x,1/2+y,-z
-x,1/2+y,1/2+z
x,-y,1/2+z
1/2+x,1/2+y,z
1/2-x,-y,z
1/2+x,-y,1/2-z
1/2-x,1/2+y,1/2-z
1/2-x,1/2-y,-z
1/2+x,y,-z
1/2-x,y,1/2+z
1/2+x,1/2-y,1/2+z
loop_
_atom_site_type_symbol
_atom_site_label
_atom_site_fract_x
_atom_site_fract_y
_atom_site_fract_z
Si Si1 0.631001 0.229939 0.989127
Si Si2 0.628201 0.301056 0.828975
Si Si3 0.529652 0.399706 0.037401
Si Si4 0.289009 0.103274 0.388893
Si Si5 0.038421 0.509577 0.170162
O O1 0.613324 0.344631 0.010861
O O2 0.548518 0.171116 0.017697
O O3 0.699580 0.177998 0.042173
O O4 0.629199 0.228580 0.900386
O O5 0.612075 0.250000 0.750000
O O6 0.721742 0.349825 0.832443
O O7 0.563345 0.393272 0.843693
O O8 0.531339 0.434759 0.120782
O O9 0.500000 0.500000 0.000000
O O10 0.376040 0.071882 0.348431
O O11 0.250000 0.000000 0.417005
O O12 0.000000 0.513356 0.250000
#
# Coordination Sequence:
#
# PCOD9506918 Si02
#       5
#    16  16  16  16  16
#     4  10  21  38  64  88 118 168 206 251 316 364
#     4  11  23  37  59  90 125 156 201 258 313 375
#     4  10  20  37  59  90 123 154 209 258 296 378
#     4   9  21  43  60  86 126 165 209 253 306 381
#     4  10  22  39  62  88 123 160 198 262 318 355
#
# _framework density 20.683278000000001
#
# number of rings (size 3 to 8) (size 9 to 14) (size 15 to 20)
#    0.000    2.000    2.000    0.600    2.800    2.000 
#    0.000   10.000    0.000    0.000    0.000    0.000 
#    0.000    0.000    0.000    0.000    0.000    0.000 
#
# Total GULP energy -222769.647747 kJ/mol
# GULP energy per Si atom -5569.241194 kJ/mol
# Density = 2.063620 g / cm^3
# Si number density = 20.683278 Si / 1000 Ang^3
#
#
#
# Elastic Constant Matrix: (Units=GPa)
#
#
# Indices 1 2 3 4 5 6 
#
# 1 56.4569 27.5132 28.8145 0.0000 0.0000 0.0000
# 2 27.5132 101.1749 48.9589 0.0000 0.0000 0.0000
# 3 28.8145 48.9589 145.0690 0.0000 0.0000 0.0000
# 4 0.0000 0.0000 0.0000 39.6017 0.0000 0.0000
# 5 0.0000 0.0000 0.0000 0.0000 28.2102 0.0000
# 6 0.0000 0.0000 0.0000 0.0000 0.0000 19.1966
#
#
#
# Elastic Compliance Matrix: (Units=1/GPa)
#
#
# Indices 1 2 3 4 5 6 
#
# 1 0.021279 -0.004471 -0.002717 0.000000 0.000000 0.000000
# 2 -0.004471 0.012753 -0.003416 0.000000 0.000000 0.000000
# 3 -0.002717 -0.003416 0.008586 0.000000 0.000000 0.000000
# 4 0.000000 0.000000 0.000000 0.025251 0.000000 0.000000
# 5 0.000000 0.000000 0.000000 0.000000 0.035448 0.000000
# 6 0.000000 0.000000 0.000000 0.000000 0.000000 0.052093
#
#
# Mechanical properties :
#
#
# Convention : Reuss Voigt Hill
#
# Bulk Modulus (GPa) = 46.71174 57.03043 51.87109
# Shear Modulus (GPa) = 27.21018 30.56262 28.88640
#
# Velocity S-wave (km/s) = 3.63101 3.84819 3.74117
# Velocity P-wave (km/s) = 6.34131 6.88315 6.61778
#
# Compressibility (1/GPa) = 0.02140789
#
# Stress axis : x y z
#
# Youngs Moduli (GPa) = 46.99546 78.41467 116.47157
#
# Poissons Ratio (x) = 0.35063 0.31650
# Poissons Ratio (y) = 0.21014 0.39783
# Poissons Ratio (z) = 0.12771 0.26784
#
# Static dielectric constant tensor:
#      x y z
#    x 1.845080 0.000000 0.000000 
#    y 0.000000 1.820720 0.000000 
#    z 0.000000 0.000000 1.431670 
# 
# From -- ./inp_files/24316.got.cif
#   From: 2010.05.17/outbox.cif.g08.bks.cpg/sg68_13_cif.got.tgz:24316.got - 2010.06.03 18:57:09.
