data_PCOD9506129
_publ_section_title
;
Structure prediction by ZEFSAII (Michael W. Deem and Ramdas Pophale) SiO2 
 PCOD9506129
Probable space group: C C C A
;
_chemical_formula_sum "Si O2"
_cell_formula_units_Z 112
_cell_length_a 25.139734
_cell_length_b 14.073832
_cell_length_c 15.258564
_cell_angle_alpha 90.000000
_cell_angle_beta 90.000000
_cell_angle_gamma 90.000000
_cell_volume 5398.669040
_symmetry_space_group_name_H-M "C C C A"
_symmetry_group_IT_number 68
_space_group.IT_coordinate_system_code '2'
_symmetry_cell_setting 'orthorhombic'
loop_
_space_group_symop_operation_xyz
x,y,z
-x,1/2-y,z
x,1/2-y,1/2-z
-x,y,1/2-z
-x,-y,-z
x,1/2+y,-z
-x,1/2+y,1/2+z
x,-y,1/2+z
1/2+x,1/2+y,z
1/2-x,-y,z
1/2+x,-y,1/2-z
1/2-x,1/2+y,1/2-z
1/2-x,1/2-y,-z
1/2+x,y,-z
1/2-x,y,1/2+z
1/2+x,1/2-y,1/2+z
loop_
_atom_site_type_symbol
_atom_site_label
_atom_site_fract_x
_atom_site_fract_y
_atom_site_fract_z
Si Si1 0.825833 0.159449 0.714281
Si Si2 0.250000 0.500000 0.776170
Si Si3 0.532680 0.039270 0.115415
Si Si4 0.844707 0.402625 0.137651
Si Si5 0.401638 0.750000 0.250000
Si Si6 0.047615 0.322385 0.068984
Si Si7 0.615159 0.188045 0.035590
Si Si8 0.920402 0.065821 0.806487
O O1 0.794384 0.250000 0.750000
O O2 0.790366 0.065163 0.720585
O O3 0.846966 0.183715 0.618833
O O4 0.878090 0.145511 0.776810
O O5 0.213585 0.564178 0.838080
O O6 0.567391 0.114823 0.061056
O O7 0.474464 0.081648 0.139085
O O8 0.560304 0.027069 0.211247
O O9 0.532466 0.933856 0.072466
O O10 0.865423 0.332934 0.212635
O O11 0.885469 0.490381 0.141352
O O12 0.852294 0.352468 0.045890
O O13 0.434325 0.708845 0.167418
O O14 0.000000 0.250000 0.049550
O O15 0.092053 0.289134 0.998298
#
# Coordination Sequence:
#
# PCOD9506129 Si02
#       8
#    16   8  16  16   8  16  16  16
#     4  10  23  45  66  89 129 167 212 261 324 393
#     4  10  24  42  70  90 106 170 214 264 328 396
#     4  10  19  37  59  86 131 171 212 249 306 378
#     4  10  20  38  60  89 121 149 212 271 315 371
#     4  10  19  34  58  88 124 156 206 263 320 366
#     4  11  22  32  58  92 129 171 209 256 307 366
#     4  10  24  39  58  98 130 165 208 261 318 379
#     4   9  19  36  62  89 119 175 209 248 305 376
#
# _framework density 20.745854000000001
#
# number of rings (size 3 to 8) (size 9 to 14) (size 15 to 20)
#    0.000    2.000    1.429    1.929    3.000    6.286 
#    0.000    5.714    0.000    0.000    0.000    0.000 
#    0.000    0.000    0.000    0.000    0.000    0.000 
#
# Total GULP energy -312626.217725 kJ/mol
# GULP energy per Si atom -5582.611031 kJ/mol
# Density = 2.069864 g / cm^3
# Si number density = 20.745854 Si / 1000 Ang^3
#
#
#
# Elastic Constant Matrix: (Units=GPa)
#
#
# Indices 1 2 3 4 5 6 
#
# 1 76.0494 15.1843 41.0202 0.0000 0.0000 0.0000
# 2 15.1843 78.9746 31.4623 0.0000 0.0000 0.0000
# 3 41.0202 31.4623 98.4119 0.0000 0.0000 0.0000
# 4 0.0000 0.0000 0.0000 21.2634 0.0000 0.0000
# 5 0.0000 0.0000 0.0000 0.0000 14.1656 0.0000
# 6 0.0000 0.0000 0.0000 0.0000 0.0000 8.3504
#
#
#
# Elastic Compliance Matrix: (Units=1/GPa)
#
#
# Indices 1 2 3 4 5 6 
#
# 1 0.016981 -0.000510 -0.006915 0.000000 0.000000 0.000000
# 2 -0.000510 0.014526 -0.004431 0.000000 0.000000 0.000000
# 3 -0.006915 -0.004431 0.014460 0.000000 0.000000 0.000000
# 4 0.000000 0.000000 0.000000 0.047029 0.000000 0.000000
# 5 0.000000 0.000000 0.000000 0.000000 0.070594 0.000000
# 6 0.000000 0.000000 0.000000 0.000000 0.000000 0.119754
#
#
# Mechanical properties :
#
#
# Convention : Reuss Voigt Hill
#
# Bulk Modulus (GPa) = 44.93479 47.64105 46.28792
# Shear Modulus (GPa) = 15.89950 19.80715 17.85332
#
# Velocity S-wave (km/s) = 2.77139 3.09326 2.93674
# Velocity P-wave (km/s) = 5.65221 5.98094 5.81890
#
# Compressibility (1/GPa) = 0.02225447
#
# Stress axis : x y z
#
# Youngs Moduli (GPa) = 58.88905 68.84334 69.15444
#
# Poissons Ratio (x) = 0.03511 0.47820
# Poissons Ratio (y) = 0.03004 0.30644
# Poissons Ratio (z) = 0.40722 0.30506
#
# Static dielectric constant tensor:
#      x y z
#    x 1.748940 0.000000 0.000000 
#    y 0.000000 1.719150 0.000000 
#    z 0.000000 0.000000 1.739240 
# 
# From -- ./inp_files/26086.got.cif
#   From: 2010.05.17/outbox.cif.g08.bks.cpg/sg68_14_cif.got.tgz:26086.got - 2010.06.03 18:57:09.
