data_PCOD9506688
_publ_section_title
;
Structure prediction by ZEFSAII (Michael W. Deem and Ramdas Pophale) SiO2 
 PCOD9506688
Probable space group: C C C A
;
_chemical_formula_sum "Si O2"
_cell_formula_units_Z 80
_cell_length_a 17.590477
_cell_length_b 11.709639
_cell_length_c 17.313992
_cell_angle_alpha 90.000000
_cell_angle_beta 90.000000
_cell_angle_gamma 90.000000
_cell_volume 3566.303790
_symmetry_space_group_name_H-M "C C C A"
_symmetry_group_IT_number 68
_space_group.IT_coordinate_system_code '2'
_symmetry_cell_setting 'orthorhombic'
loop_
_space_group_symop_operation_xyz
x,y,z
-x,1/2-y,z
x,1/2-y,1/2-z
-x,y,1/2-z
-x,-y,-z
x,1/2+y,-z
-x,1/2+y,1/2+z
x,-y,1/2+z
1/2+x,1/2+y,z
1/2-x,-y,z
1/2+x,-y,1/2-z
1/2-x,1/2+y,1/2-z
1/2-x,1/2-y,-z
1/2+x,y,-z
1/2-x,y,1/2+z
1/2+x,1/2-y,1/2+z
loop_
_atom_site_type_symbol
_atom_site_label
_atom_site_fract_x
_atom_site_fract_y
_atom_site_fract_z
Si Si1 0.796949 0.273114 0.379452
Si Si2 0.191733 0.396770 0.787778
Si Si3 0.113843 0.004714 0.361967
Si Si4 0.025851 0.628263 0.338877
Si Si5 0.693217 0.906897 0.495686
O O1 0.742186 0.208643 0.319641
O O2 0.852942 0.369254 0.345504
O O3 0.743648 0.336823 0.441982
O O4 0.838243 0.175995 0.430340
O O5 0.250000 0.500000 0.793910
O O6 0.154890 0.420450 0.701438
O O7 0.115611 0.391712 0.840172
O O8 0.024434 0.980273 0.361878
O O9 0.136336 0.972384 0.448917
O O10 0.000000 0.750000 0.376010
O O11 0.000000 0.639523 0.250000
O O12 0.750000 0.000000 0.459895
#
# Coordination Sequence:
#
# PCOD9506688 Si02
#       5
#    16  16  16  16  16
#     4  10  20  35  58  86 121 161 204 257 313 374
#     4  11  22  36  61  95 126 161 208 259 318 386
#     4  10  21  37  60  90 123 162 213 265 318 377
#     4   9  19  36  59  88 122 158 199 253 315 378
#     4   9  18  34  58  85 117 160 208 257 309 372
#
# _framework density 22.432189000000001
#
# number of rings (size 3 to 8) (size 9 to 14) (size 15 to 20)
#    0.000    2.200    0.000    3.600    0.000    9.600 
#    0.000    1.000    0.000   43.200    0.000    0.000 
#    0.000    0.000    0.000    0.000    0.000    0.000 
#
# Total GULP energy -222818.457554 kJ/mol
# GULP energy per Si atom -5570.461439 kJ/mol
# Density = 2.238113 g / cm^3
# Si number density = 22.432189 Si / 1000 Ang^3
#
#
#
# Elastic Constant Matrix: (Units=GPa)
#
#
# Indices 1 2 3 4 5 6 
#
# 1 155.4199 72.9615 27.0564 0.0000 0.0000 0.0000
# 2 72.9615 129.6900 24.7403 0.0000 0.0000 0.0000
# 3 27.0564 24.7403 67.8018 0.0000 0.0000 0.0000
# 4 0.0000 0.0000 0.0000 561.9305 0.0000 0.0000
# 5 0.0000 0.0000 0.0000 0.0000 -2.1230 0.0000
# 6 0.0000 0.0000 0.0000 0.0000 0.0000 23.8342
#
#
#
# Elastic Compliance Matrix: (Units=1/GPa)
#
#
# Indices 1 2 3 4 5 6 
#
# 1 0.008958 -0.004684 -0.001866 0.000000 0.000000 0.000000
# 2 -0.004684 0.010736 -0.002049 0.000000 0.000000 0.000000
# 3 -0.001866 -0.002049 0.016241 0.000000 0.000000 0.000000
# 4 0.000000 0.000000 0.000000 0.001780 0.000000 0.000000
# 5 0.000000 0.000000 0.000000 0.000000 -0.471029 0.000000
# 6 0.000000 0.000000 0.000000 0.000000 0.000000 0.041956
#
#
# Mechanical properties :
#
#
# Convention : Reuss Voigt Hill
#
# Bulk Modulus (GPa) = 53.36355 66.93645 60.15000
# Shear Modulus (GPa) = -13.59005 131.93856 59.17426
#
# Velocity S-wave (km/s) = -2.46403 7.67752 5.14164
# Velocity P-wave (km/s) = 3.96803 10.41617 7.88168
#
# Compressibility (1/GPa) = 0.01873938
#
# Stress axis : x y z
#
# Youngs Moduli (GPa) = 111.63677 93.14120 61.57304
#
# Poissons Ratio (x) = 0.43623 0.11487
# Poissons Ratio (y) = 0.52285 0.12614
# Poissons Ratio (z) = 0.20827 0.19081
#
# Static dielectric constant tensor:
#      x y z
#    x 1.830230 0.000000 0.000000 
#    y 0.000000 1.885930 0.000000 
#    z 0.000000 0.000000 1.913360 
# 
# From -- ./inp_files/39513.got.cif
#   From: 2010.05.17/outbox.cif.g08.bks.cpg/sg68_20_cif.got.tgz:39513.got - 2010.06.03 18:57:09.
