data_PCOD9506638
_publ_section_title
;
Structure prediction by ZEFSAII (Michael W. Deem and Ramdas Pophale) SiO2 
 PCOD9506638
Probable space group: C C C A
;
_chemical_formula_sum "Si O2"
_cell_formula_units_Z 116
_cell_length_a 13.992577
_cell_length_b 18.596749
_cell_length_c 17.428146
_cell_angle_alpha 90.000000
_cell_angle_beta 90.000000
_cell_angle_gamma 90.000000
_cell_volume 4535.090149
_symmetry_space_group_name_H-M "C C C A"
_symmetry_group_IT_number 68
_space_group.IT_coordinate_system_code '2'
_symmetry_cell_setting 'orthorhombic'
loop_
_space_group_symop_operation_xyz
x,y,z
-x,1/2-y,z
x,1/2-y,1/2-z
-x,y,1/2-z
-x,-y,-z
x,1/2+y,-z
-x,1/2+y,1/2+z
x,-y,1/2+z
1/2+x,1/2+y,z
1/2-x,-y,z
1/2+x,-y,1/2-z
1/2-x,1/2+y,1/2-z
1/2-x,1/2-y,-z
1/2+x,y,-z
1/2-x,y,1/2+z
1/2+x,1/2-y,1/2+z
loop_
_atom_site_type_symbol
_atom_site_label
_atom_site_fract_x
_atom_site_fract_y
_atom_site_fract_z
Si Si1 0.582127 0.539833 0.386356
Si Si2 0.550631 0.902998 0.512067
Si Si3 0.678757 0.126767 0.345100
Si Si4 0.477303 0.668840 0.652777
Si Si5 0.231273 0.705924 0.136218
Si Si6 0.268824 0.605634 0.009390
Si Si7 0.363898 0.128327 0.746244
Si Si8 0.500000 0.250000 0.750000
O O1 0.511400 0.588760 0.436770
O O2 0.547239 0.462502 0.417960
O O3 0.684111 0.556874 0.425125
O O4 0.588980 0.564458 0.298070
O O5 0.519012 0.834414 0.559764
O O6 0.659880 0.908458 0.488175
O O7 0.569215 0.124918 0.314774
O O8 0.705251 0.211362 0.354453
O O9 0.674097 0.096383 0.431267
O O10 0.773643 0.098183 0.302099
O O11 0.500000 0.750000 0.674478
O O12 0.362794 0.660373 0.662831
O O13 0.262337 0.682688 0.051329
O O14 0.314830 0.680033 0.190875
O O15 0.434672 0.187987 0.707068
#
# Coordination Sequence:
#
# PCOD9506638 Si02
#       8
#    16  16  16  16  16  16  16   4
#     4  10  22  40  62  88 125 174 224 263 334 395
#     4  10  20  39  63  89 124 170 215 281 324 386
#     4  11  19  36  58  97 130 161 216 272 331 396
#     4   9  19  35  64  97 126 157 215 271 332 383
#     4   9  19  37  56  89 132 172 207 270 333 396
#     4  10  20  34  62  91 123 168 221 267 328 386
#     4  11  24  39  60  91 130 178 212 262 335 406
#     4  12  24  44  60  94 140 180 210 258 340 406
#
# _framework density 25.578323000000001
#
# number of rings (size 3 to 8) (size 9 to 14) (size 15 to 20)
#    0.000    1.931    2.759    0.828    1.931    0.552 
#    1.241    2.069    0.000   19.862    0.000    0.000 
#    0.000    0.000    0.000    0.000    0.000    0.000 
#
# Total GULP energy -323091.612216 kJ/mol
# GULP energy per Si atom -5570.545038 kJ/mol
# Density = 2.552011 g / cm^3
# Si number density = 25.578323 Si / 1000 Ang^3
#
#
#
# Elastic Constant Matrix: (Units=GPa)
#
#
# Indices 1 2 3 4 5 6 
#
# 1 122.7473 13.2800 31.2281 0.0000 0.0000 0.0000
# 2 13.2800 45.5588 34.4639 0.0000 0.0000 0.0000
# 3 31.2281 34.4639 88.7980 0.0000 0.0000 0.0000
# 4 0.0000 0.0000 0.0000 -26.5423 0.0000 0.0000
# 5 0.0000 0.0000 0.0000 0.0000 50.3694 0.0000
# 6 0.0000 0.0000 0.0000 0.0000 0.0000 30.4496
#
#
#
# Elastic Compliance Matrix: (Units=1/GPa)
#
#
# Indices 1 2 3 4 5 6 
#
# 1 0.008951 -0.000323 -0.003023 0.000000 0.000000 0.000000
# 2 -0.000323 0.031084 -0.011951 0.000000 0.000000 0.000000
# 3 -0.003023 -0.011951 0.016963 0.000000 0.000000 0.000000
# 4 0.000000 0.000000 0.000000 -0.037676 0.000000 0.000000
# 5 0.000000 0.000000 0.000000 0.000000 0.019853 0.000000
# 6 0.000000 0.000000 0.000000 0.000000 0.000000 0.032841
#
#
# Mechanical properties :
#
#
# Convention : Reuss Voigt Hill
#
# Bulk Modulus (GPa) = 37.87057 46.11646 41.99352
# Shear Modulus (GPa) = 44.87920 22.73080 33.80500
#
# Velocity S-wave (km/s) = 4.19331 2.98430 3.63936
# Velocity P-wave (km/s) = 6.18733 5.47205 5.84065
#
# Compressibility (1/GPa) = 0.02640573
#
# Stress axis : x y z
#
# Youngs Moduli (GPa) = 111.72329 32.17075 58.95263
#
# Poissons Ratio (x) = 0.01038 0.17819
# Poissons Ratio (y) = 0.03604 0.70453
# Poissons Ratio (z) = 0.33769 0.38447
#
# Static dielectric constant tensor:
#      x y z
#    x 2.116850 0.000000 0.000000 
#    y 0.000000 2.169190 0.000000 
#    z 0.000000 0.000000 2.044700 
# 
# From -- ./inp_files/31255.got.cif
#   From: 2010.05.17/outbox.cif.g08.bks.cpg/sg68_16_cif.got.tgz:31255.got - 2010.06.03 18:57:09.
