data_PCOD9506642
_publ_section_title
;
Structure prediction by ZEFSAII (Michael W. Deem and Ramdas Pophale) SiO2 
 PCOD9506642
Probable space group: C C C A
;
_chemical_formula_sum "Si O2"
_cell_formula_units_Z 52
_cell_length_a 32.923637
_cell_length_b 4.785090
_cell_length_c 13.235165
_cell_angle_alpha 90.000000
_cell_angle_beta 90.000000
_cell_angle_gamma 90.000000
_cell_volume 2085.101858
_symmetry_space_group_name_H-M "C C C A"
_symmetry_group_IT_number 68
_space_group.IT_coordinate_system_code '2'
_symmetry_cell_setting 'orthorhombic'
loop_
_space_group_symop_operation_xyz
x,y,z
-x,1/2-y,z
x,1/2-y,1/2-z
-x,y,1/2-z
-x,-y,-z
x,1/2+y,-z
-x,1/2+y,1/2+z
x,-y,1/2+z
1/2+x,1/2+y,z
1/2-x,-y,z
1/2+x,-y,1/2-z
1/2-x,1/2+y,1/2-z
1/2-x,1/2-y,-z
1/2+x,y,-z
1/2-x,y,1/2+z
1/2+x,1/2-y,1/2+z
loop_
_atom_site_type_symbol
_atom_site_label
_atom_site_fract_x
_atom_site_fract_y
_atom_site_fract_z
Si Si1 0.365904 0.750000 0.750000
Si Si2 0.085174 0.479172 0.937746
Si Si3 0.000000 0.750000 0.121719
Si Si4 0.250000 0.000000 0.580859
Si Si5 0.189705 0.250000 0.250000
Si Si6 0.000000 0.250000 0.250000
O O1 0.393322 0.617153 0.836956
O O2 0.337775 0.501438 0.707885
O O3 0.036904 0.415718 0.928060
O O4 0.096557 0.789584 0.966884
O O5 0.021717 0.487777 0.181853
O O6 0.250000 0.750000 0.500000
O O7 0.215448 0.898695 0.661039
#
# Coordination Sequence:
#
# PCOD9506642 Si02
#       6
#     8  16   8   8   8   4
#     4  12  27  45  70 104 152 192 231 294 365 435
#     4  12  26  44  68 100 138 191 248 301 363 422
#     4  11  22  41  66  96 134 182 250 314 350 414
#     4  12  26  48  82 112 142 188 236 288 356 430
#     4  12  27  49  74 113 151 184 237 295 352 442
#     4  10  20  34  64  92 118 168 224 292 382 420
#
# _framework density 24.938828999999998
#
# number of rings (size 3 to 8) (size 9 to 14) (size 15 to 20)
#    0.000    0.308    0.000   10.154    0.000    9.846 
#    0.000    0.000    0.000    0.000    0.000    0.000 
#    0.000    0.000    0.000    0.000    0.000    0.000 
#
# Total GULP energy -145165.671243 kJ/mol
# GULP energy per Si atom -5583.295048 kJ/mol
# Density = 2.488207 g / cm^3
# Si number density = 24.938829 Si / 1000 Ang^3
#
#
#
# Elastic Constant Matrix: (Units=GPa)
#
#
# Indices 1 2 3 4 5 6 
#
# 1 99.4138 26.0707 52.7874 0.0000 0.0000 0.0000
# 2 26.0707 157.7788 22.6754 0.0000 0.0000 0.0000
# 3 52.7874 22.6754 119.2232 0.0000 0.0000 0.0000
# 4 0.0000 0.0000 0.0000 60.4456 0.0000 0.0000
# 5 0.0000 0.0000 0.0000 0.0000 12.3450 0.0000
# 6 0.0000 0.0000 0.0000 0.0000 0.0000 33.5978
#
#
#
# Elastic Compliance Matrix: (Units=1/GPa)
#
#
# Indices 1 2 3 4 5 6 
#
# 1 0.013447 -0.001405 -0.005687 0.000000 0.000000 0.000000
# 2 -0.001405 0.006663 -0.000645 0.000000 0.000000 0.000000
# 3 -0.005687 -0.000645 0.011028 0.000000 0.000000 0.000000
# 4 0.000000 0.000000 0.000000 0.016544 0.000000 0.000000
# 5 0.000000 0.000000 0.000000 0.000000 0.081004 0.000000
# 6 0.000000 0.000000 0.000000 0.000000 0.000000 0.029764
#
#
# Mechanical properties :
#
#
# Convention : Reuss Voigt Hill
#
# Bulk Modulus (GPa) = 63.83754 64.38697 64.11225
# Shear Modulus (GPa) = 27.91043 39.60318 33.75680
#
# Velocity S-wave (km/s) = 3.34901 3.98931 3.68310
# Velocity P-wave (km/s) = 6.37242 6.86247 6.62198
#
# Compressibility (1/GPa) = 0.01566476
#
# Stress axis : x y z
#
# Youngs Moduli (GPa) = 74.36704 150.08655 90.67698
#
# Poissons Ratio (x) = 0.21082 0.51564
# Poissons Ratio (y) = 0.10446 0.05851
# Poissons Ratio (z) = 0.42289 0.09685
#
# Static dielectric constant tensor:
#      x y z
#    x 2.018870 0.000000 0.000000 
#    y 0.000000 1.905940 0.000000 
#    z 0.000000 0.000000 1.998330 
# 
# From -- ./inp_files/26244.got.cif
#   From: 2010.05.17/outbox.cif.g08.bks.cpg/sg68_14_cif.got.tgz:26244.got - 2010.06.03 18:57:09.
