data_PCOD9506723
_publ_section_title
;
Structure prediction by ZEFSAII (Michael W. Deem and Ramdas Pophale) SiO2 
 PCOD9506723
Probable space group: C C C A
;
_chemical_formula_sum "Si O2"
_cell_formula_units_Z 52
_cell_length_a 7.373251
_cell_length_b 15.773354
_cell_length_c 20.661074
_cell_angle_alpha 90.000000
_cell_angle_beta 90.000000
_cell_angle_gamma 90.000000
_cell_volume 2402.901463
_symmetry_space_group_name_H-M "C C C A"
_symmetry_group_IT_number 68
_space_group.IT_coordinate_system_code '2'
_symmetry_cell_setting 'orthorhombic'
loop_
_space_group_symop_operation_xyz
x,y,z
-x,1/2-y,z
x,1/2-y,1/2-z
-x,y,1/2-z
-x,-y,-z
x,1/2+y,-z
-x,1/2+y,1/2+z
x,-y,1/2+z
1/2+x,1/2+y,z
1/2-x,-y,z
1/2+x,-y,1/2-z
1/2-x,1/2+y,1/2-z
1/2-x,1/2-y,-z
1/2+x,y,-z
1/2-x,y,1/2+z
1/2+x,1/2-y,1/2+z
loop_
_atom_site_type_symbol
_atom_site_label
_atom_site_fract_x
_atom_site_fract_y
_atom_site_fract_z
Si Si1 0.336854 0.590954 0.949426
Si Si2 0.718164 0.767417 0.849918
Si Si3 0.747015 0.408773 0.403512
Si Si4 0.000000 0.750000 0.750000
O O1 0.250000 0.500000 0.931621
O O2 0.253846 0.672207 0.912586
O O3 0.539650 0.597196 0.924838
O O4 0.347019 0.592405 0.027230
O O5 0.500000 0.750000 0.836388
O O6 0.794025 0.673666 0.863937
O O7 0.850463 0.800822 0.793474
O O8 0.750000 0.500000 0.369841
#
# Coordination Sequence:
#
# PCOD9506723 Si02
#       4
#    16  16  16   4
#     4  10  20  35  61  93 127 151 191 246 303 364
#     4  10  24  42  61  88 122 157 206 248 295 351
#     4  10  20  35  61  93 127 151 191 246 303 364
#     4  12  26  40  72  74 120 166 214 246 292 350
#
# _framework density 21.640506999999999
#
# number of rings (size 3 to 8) (size 9 to 14) (size 15 to 20)
#    0.000    1.846    0.000    5.077    8.615    0.000 
#    0.000    1.538    0.000    0.000    0.000    0.000 
#    0.000    0.000    0.000    0.000    0.000    0.000 
#
# Total GULP energy -144756.594165 kJ/mol
# GULP energy per Si atom -5567.561314 kJ/mol
# Density = 2.159125 g / cm^3
# Si number density = 21.640507 Si / 1000 Ang^3
#
#
#
# Elastic Constant Matrix: (Units=GPa)
#
#
# Indices 1 2 3 4 5 6 
#
# 1 80.3308 7.4240 9.4949 0.0000 0.0000 0.0000
# 2 7.4240 128.1671 29.8472 0.0000 0.0000 0.0000
# 3 9.4949 29.8472 38.0335 0.0000 0.0000 0.0000
# 4 0.0000 0.0000 0.0000 1.7002 0.0000 0.0000
# 5 0.0000 0.0000 0.0000 0.0000 25.6128 0.0000
# 6 0.0000 0.0000 0.0000 0.0000 0.0000 24.8656
#
#
#
# Elastic Compliance Matrix: (Units=1/GPa)
#
#
# Indices 1 2 3 4 5 6 
#
# 1 0.012827 0.000003 -0.003205 0.000000 0.000000 0.000000
# 2 0.000003 0.009547 -0.007493 0.000000 0.000000 0.000000
# 3 -0.003205 -0.007493 0.032973 0.000000 0.000000 0.000000
# 4 0.000000 0.000000 0.000000 0.588175 0.000000 0.000000
# 5 0.000000 0.000000 0.000000 0.000000 0.039043 0.000000
# 6 0.000000 0.000000 0.000000 0.000000 0.000000 0.040216
#
#
# Mechanical properties :
#
#
# Convention : Reuss Voigt Hill
#
# Bulk Modulus (GPa) = 29.44812 37.78485 33.61648
# Shear Modulus (GPa) = 6.61823 23.75341 15.18582
#
# Velocity S-wave (km/s) = 1.75069 3.31665 2.65190
# Velocity P-wave (km/s) = 4.20998 5.67143 4.99445
#
# Compressibility (1/GPa) = 0.03395802
#
# Stress axis : x y z
#
# Youngs Moduli (GPa) = 77.96048 104.74419 30.32793
#
# Poissons Ratio (x) = -0.00035 0.09720
# Poissons Ratio (y) = -0.00026 0.22725
# Poissons Ratio (z) = 0.24985 0.78485
#
# Static dielectric constant tensor:
#      x y z
#    x 1.887300 0.000000 0.000000 
#    y 0.000000 1.909350 0.000000 
#    z 0.000000 0.000000 2.129710 
# 
# From -- ./inp_files/4652.got.cif
#   From: 2010.05.17/outbox.cif.g08.bks.cpg/sg68_3_cif.got.tgz:4652.got - 2010.06.03 18:57:09.
