data_PCOD9506603
_publ_section_title
;
Structure prediction by ZEFSAII (Michael W. Deem and Ramdas Pophale) SiO2 
 PCOD9506603
Probable space group: C C C A
;
_chemical_formula_sum "Si O2"
_cell_formula_units_Z 80
_cell_length_a 11.348053
_cell_length_b 21.049852
_cell_length_c 14.085359
_cell_angle_alpha 90.000000
_cell_angle_beta 90.000000
_cell_angle_gamma 90.000000
_cell_volume 3364.637823
_symmetry_space_group_name_H-M "C C C A"
_symmetry_group_IT_number 68
_space_group.IT_coordinate_system_code '2'
_symmetry_cell_setting 'orthorhombic'
loop_
_space_group_symop_operation_xyz
x,y,z
-x,1/2-y,z
x,1/2-y,1/2-z
-x,y,1/2-z
-x,-y,-z
x,1/2+y,-z
-x,1/2+y,1/2+z
x,-y,1/2+z
1/2+x,1/2+y,z
1/2-x,-y,z
1/2+x,-y,1/2-z
1/2-x,1/2+y,1/2-z
1/2-x,1/2-y,-z
1/2+x,y,-z
1/2-x,y,1/2+z
1/2+x,1/2-y,1/2+z
loop_
_atom_site_type_symbol
_atom_site_label
_atom_site_fract_x
_atom_site_fract_y
_atom_site_fract_z
Si Si1 0.221249 0.390629 0.417399
Si Si2 0.361860 0.824554 0.751930
Si Si3 0.670738 0.134162 0.613246
Si Si4 0.124694 0.470697 0.259928
Si Si5 0.617009 0.737316 0.034381
O O1 0.304405 0.361132 0.336016
O O2 0.302589 0.397101 0.510735
O O3 0.153813 0.448724 0.367606
O O4 0.125824 0.335481 0.436859
O O5 0.331311 0.750000 0.750000
O O6 0.500000 0.831472 0.750000
O O7 0.300690 0.852405 0.844835
O O8 0.608818 0.088777 0.688618
O O9 0.607910 0.203232 0.606992
O O10 0.250000 0.500000 0.227555
O O11 0.000000 0.507272 0.250000
O O12 0.500000 0.750000 0.970901
O O13 0.750000 0.750000 0.000000
#
# Coordination Sequence:
#
# PCOD9506603 Si02
#       5
#    16  16  16  16  16
#     4  10  22  41  65  97 130 173 215 261 320 392
#     4  10  20  34  56  94 140 176 206 252 310 376
#     4  10  22  41  65  97 130 173 215 261 320 392
#     4  11  26  47  68  92 125 167 225 281 332 382
#     4  10  20  35  60  97 134 166 204 249 311 385
#
# _framework density 23.776703000000001
#
# number of rings (size 3 to 8) (size 9 to 14) (size 15 to 20)
#    0.000    1.800    2.000    1.200    0.000   12.000 
#    0.000    5.000    0.000    0.000    0.000    0.000 
#    0.000    0.000    0.000    0.000    0.000    0.000 
#
# Total GULP energy -223166.750448 kJ/mol
# GULP energy per Si atom -5579.168761 kJ/mol
# Density = 2.372259 g / cm^3
# Si number density = 23.776703 Si / 1000 Ang^3
#
#
#
# Elastic Constant Matrix: (Units=GPa)
#
#
# Indices 1 2 3 4 5 6 
#
# 1 138.0711 1.7310 4.6316 0.0000 0.0000 0.0000
# 2 1.7310 39.8414 2.9020 0.0000 0.0000 0.0000
# 3 4.6316 2.9020 110.9314 0.0000 0.0000 0.0000
# 4 0.0000 0.0000 0.0000 17.2722 0.0000 0.0000
# 5 0.0000 0.0000 0.0000 0.0000 21.7317 0.0000
# 6 0.0000 0.0000 0.0000 0.0000 0.0000 13.6500
#
#
#
# Elastic Compliance Matrix: (Units=1/GPa)
#
#
# Indices 1 2 3 4 5 6 
#
# 1 0.007256 -0.000294 -0.000295 0.000000 0.000000 0.000000
# 2 -0.000294 0.025159 -0.000646 0.000000 0.000000 0.000000
# 3 -0.000295 -0.000646 0.009044 0.000000 0.000000 0.000000
# 4 0.000000 0.000000 0.000000 0.057896 0.000000 0.000000
# 5 0.000000 0.000000 0.000000 0.000000 0.046016 0.000000
# 6 0.000000 0.000000 0.000000 0.000000 0.000000 0.073260
#
#
# Mechanical properties :
#
#
# Convention : Reuss Voigt Hill
#
# Bulk Modulus (GPa) = 25.64795 34.15258 29.90026
# Shear Modulus (GPa) = 21.35859 29.16941 25.26400
#
# Velocity S-wave (km/s) = 3.00042 3.50638 3.26322
# Velocity P-wave (km/s) = 4.77637 5.54869 5.17696
#
# Compressibility (1/GPa) = 0.03898947
#
# Stress axis : x y z
#
# Youngs Moduli (GPa) = 137.81252 39.74671 110.57295
#
# Poissons Ratio (x) = 0.01168 0.03265
# Poissons Ratio (y) = 0.04048 0.07142
# Poissons Ratio (z) = 0.04069 0.02567
#
# Static dielectric constant tensor:
#      x y z
#    x 1.987890 0.000000 0.000000 
#    y 0.000000 2.002490 0.000000 
#    z 0.000000 0.000000 2.002820 
# 
# From -- ./inp_files/20852.got.cif
#   From: 2010.05.17/outbox.cif.g08.bks.cpg/sg68_11_cif.got.tgz:20852.got - 2010.06.03 18:57:09.
