data_PCOD9506246
_publ_section_title
;
Structure prediction by ZEFSAII (Michael W. Deem and Ramdas Pophale) SiO2 
 PCOD9506246
Probable space group: C C C A
;
_chemical_formula_sum "Si O2"
_cell_formula_units_Z 104
_cell_length_a 9.924706
_cell_length_b 17.149524
_cell_length_c 28.400468
_cell_angle_alpha 90.000000
_cell_angle_beta 90.000000
_cell_angle_gamma 90.000000
_cell_volume 4833.872794
_symmetry_space_group_name_H-M "C C C A"
_symmetry_group_IT_number 68
_space_group.IT_coordinate_system_code '2'
_symmetry_cell_setting 'orthorhombic'
loop_
_space_group_symop_operation_xyz
x,y,z
-x,1/2-y,z
x,1/2-y,1/2-z
-x,y,1/2-z
-x,-y,-z
x,1/2+y,-z
-x,1/2+y,1/2+z
x,-y,1/2+z
1/2+x,1/2+y,z
1/2-x,-y,z
1/2+x,-y,1/2-z
1/2-x,1/2+y,1/2-z
1/2-x,1/2-y,-z
1/2+x,y,-z
1/2-x,y,1/2+z
1/2+x,1/2-y,1/2+z
loop_
_atom_site_type_symbol
_atom_site_label
_atom_site_fract_x
_atom_site_fract_y
_atom_site_fract_z
Si Si1 0.268526 0.590808 0.856963
Si Si2 0.500000 0.250000 0.114055
Si Si3 0.749584 0.164371 0.149049
Si Si4 0.864196 0.802257 0.553099
Si Si5 0.967287 0.442412 0.805613
Si Si6 0.159342 0.658242 0.451086
Si Si7 0.496279 0.126012 0.694214
O O1 0.250000 0.500000 0.846492
O O2 0.414447 0.603319 0.833454
O O3 0.267762 0.602473 0.913465
O O4 0.147133 0.635886 0.831484
O O5 0.635985 0.230974 0.142196
O O6 0.524368 0.320841 0.077521
O O7 0.814147 0.147936 0.097606
O O8 0.670300 0.096745 0.176764
O O9 0.884954 0.181884 0.177145
O O10 0.871661 0.854446 0.505779
O O11 0.749550 0.736207 0.548434
O O12 0.000000 0.750000 0.559387
O O13 0.967250 0.534677 0.816765
O O14 0.000000 0.434356 0.750000
O O15 0.500000 0.131666 0.750000
#
# Coordination Sequence:
#
# PCOD9506246 Si02
#       7
#    16   8  16  16  16  16  16
#     4  10  20  35  59  88 124 159 194 256 316 357
#     4  10  20  36  61  86 116 164 197 254 290 356
#     4  11  21  37  62  91 120 152 206 256 295 354
#     4  10  21  35  61  86 113 161 203 251 295 361
#     4  10  20  37  63  89 118 161 206 244 300 374
#     4  10  19  36  58  83 119 155 207 237 302 366
#     4  10  21  38  61  89 120 160 204 254 303 363
#
# _framework density 21.514841000000001
#
# number of rings (size 3 to 8) (size 9 to 14) (size 15 to 20)
#    0.000    1.846    2.308    2.308    0.000    2.462 
#    0.000    1.923    6.769    8.308    0.000    0.000 
#    0.000    0.000    0.000    0.000    0.000    0.000 
#
# Total GULP energy -289673.660464 kJ/mol
# GULP energy per Si atom -5570.647317 kJ/mol
# Density = 2.146587 g / cm^3
# Si number density = 21.514841 Si / 1000 Ang^3
#
#
#
# Elastic Constant Matrix: (Units=GPa)
#
#
# Indices 1 2 3 4 5 6 
#
# 1 154.5812 24.6289 55.0671 0.0000 0.0000 0.0000
# 2 24.6289 36.3530 27.4866 0.0000 0.0000 0.0000
# 3 55.0671 27.4866 112.5037 0.0000 0.0000 0.0000
# 4 0.0000 0.0000 0.0000 28.1585 0.0000 0.0000
# 5 0.0000 0.0000 0.0000 0.0000 29.0275 0.0000
# 6 0.0000 0.0000 0.0000 0.0000 0.0000 18.6736
#
#
#
# Elastic Compliance Matrix: (Units=1/GPa)
#
#
# Indices 1 2 3 4 5 6 
#
# 1 0.008103 -0.003055 -0.003220 0.000000 0.000000 0.000000
# 2 -0.003055 0.034893 -0.007030 0.000000 0.000000 0.000000
# 3 -0.003220 -0.007030 0.012182 0.000000 0.000000 0.000000
# 4 0.000000 0.000000 0.000000 0.035513 0.000000 0.000000
# 5 0.000000 0.000000 0.000000 0.000000 0.034450 0.000000
# 6 0.000000 0.000000 0.000000 0.000000 0.000000 0.053551
#
#
# Mechanical properties :
#
#
# Convention : Reuss Voigt Hill
#
# Bulk Modulus (GPa) = 35.00301 57.53369 46.26835
# Shear Modulus (GPa) = 23.27484 28.25562 25.76523
#
# Velocity S-wave (km/s) = 3.29265 3.62789 3.46433
# Velocity P-wave (km/s) = 5.54616 6.65945 6.12814
#
# Compressibility (1/GPa) = 0.02856897
#
# Stress axis : x y z
#
# Youngs Moduli (GPa) = 123.41396 28.65906 82.08865
#
# Poissons Ratio (x) = 0.08756 0.26430
# Poissons Ratio (y) = 0.37706 0.57705
# Poissons Ratio (z) = 0.39735 0.20146
#
# Static dielectric constant tensor:
#      x y z
#    x 1.835780 0.000000 0.000000 
#    y 0.000000 1.819590 0.000000 
#    z 0.000000 0.000000 1.859830 
# 
# From -- ./inp_files/49596.got.cif
#   From: 2010.05.17/outbox.cif.g08.bks.cpg/sg68_25_cif.got.tgz:49596.got - 2010.06.03 18:57:09.
