data_PCOD9506621
_publ_section_title
;
Structure prediction by ZEFSAII (Michael W. Deem and Ramdas Pophale) SiO2 
 PCOD9506621
Probable space group: C C C A
;
_chemical_formula_sum "Si O2"
_cell_formula_units_Z 72
_cell_length_a 23.224787
_cell_length_b 7.331955
_cell_length_c 21.707977
_cell_angle_alpha 90.000000
_cell_angle_beta 90.000000
_cell_angle_gamma 90.000000
_cell_volume 3696.501470
_symmetry_space_group_name_H-M "C C C A"
_symmetry_group_IT_number 68
_space_group.IT_coordinate_system_code '2'
_symmetry_cell_setting 'orthorhombic'
loop_
_space_group_symop_operation_xyz
x,y,z
-x,1/2-y,z
x,1/2-y,1/2-z
-x,y,1/2-z
-x,-y,-z
x,1/2+y,-z
-x,1/2+y,1/2+z
x,-y,1/2+z
1/2+x,1/2+y,z
1/2-x,-y,z
1/2+x,-y,1/2-z
1/2-x,1/2+y,1/2-z
1/2-x,1/2-y,-z
1/2+x,y,-z
1/2-x,y,1/2+z
1/2+x,1/2-y,1/2+z
loop_
_atom_site_type_symbol
_atom_site_label
_atom_site_fract_x
_atom_site_fract_y
_atom_site_fract_z
Si Si1 0.488605 0.463552 0.072261
Si Si2 0.890153 0.048292 0.409717
Si Si3 0.293295 0.829533 0.183122
Si Si4 0.868285 0.632333 0.450636
Si Si5 0.750000 0.000000 0.601049
O O1 0.500000 0.250000 0.083715
O O2 0.541566 0.565360 0.104592
O O3 0.420283 0.486018 0.080016
O O4 0.500000 0.500000 0.000000
O O5 0.874449 0.835437 0.423210
O O6 0.849392 0.115501 0.355734
O O7 0.878584 0.141619 0.476010
O O8 0.307554 0.750000 0.250000
O O9 0.250000 0.000000 0.189244
O O10 0.262152 0.826787 0.356288
O O11 0.806440 0.546043 0.438364
#
# Coordination Sequence:
#
# PCOD9506621 Si02
#       5
#    16  16  16  16   8
#     4   8  16  32  54  85 125 162 191 234 300 365
#     4  10  20  36  60  90 126 165 205 255 311 377
#     4  12  25  43  62  87 118 165 217 260 307 368
#     4  10  20  34  59  96 131 160 197 253 322 382
#     4  12  24  38  62  92 124 160 200 260 316 378
#
# _framework density 19.477875000000001
#
# number of rings (size 3 to 8) (size 9 to 14) (size 15 to 20)
#    0.000    1.778    3.333    1.333    1.556    3.556 
#    0.000    0.000    0.000    2.667    0.000    6.222 
#    0.000    0.000    0.000    0.000    0.000    0.000 
#
# Total GULP energy -201004.439456 kJ/mol
# GULP energy per Si atom -5583.456652 kJ/mol
# Density = 1.943354 g / cm^3
# Si number density = 19.477875 Si / 1000 Ang^3
#
#
#
# Elastic Constant Matrix: (Units=GPa)
#
#
# Indices 1 2 3 4 5 6 
#
# 1 205.8622 55.6717 69.0946 0.0000 0.0000 0.0000
# 2 55.6717 92.9351 37.2206 0.0000 0.0000 0.0000
# 3 69.0946 37.2206 85.7610 0.0000 0.0000 0.0000
# 4 0.0000 0.0000 0.0000 62.6324 0.0000 0.0000
# 5 0.0000 0.0000 0.0000 0.0000 -5.9590 0.0000
# 6 0.0000 0.0000 0.0000 0.0000 0.0000 30.3042
#
#
#
# Elastic Compliance Matrix: (Units=1/GPa)
#
#
# Indices 1 2 3 4 5 6 
#
# 1 0.007062 -0.002362 -0.004664 0.000000 0.000000 0.000000
# 2 -0.002362 0.013814 -0.004092 0.000000 0.000000 0.000000
# 3 -0.004664 -0.004092 0.017194 0.000000 0.000000 0.000000
# 4 0.000000 0.000000 0.000000 0.015966 0.000000 0.000000
# 5 0.000000 0.000000 0.000000 0.000000 -0.167813 0.000000
# 6 0.000000 0.000000 0.000000 0.000000 0.000000 0.032999
#
#
# Mechanical properties :
#
#
# Convention : Reuss Voigt Hill
#
# Bulk Modulus (GPa) = 63.16022 78.72580 70.94301
# Shear Modulus (GPa) = -93.87559 32.23361 -30.82099
#
# Velocity S-wave (km/s) = -6.94987 4.07244 -3.98220
# Velocity P-wave (km/s) = 5.64835 7.91321 3.91886
#
# Compressibility (1/GPa) = 0.01583275
#
# Stress axis : x y z
#
# Youngs Moduli (GPa) = 141.60336 72.38900 58.15910
#
# Poissons Ratio (x) = 0.17101 0.27127
# Poissons Ratio (y) = 0.33451 0.23800
# Poissons Ratio (z) = 0.66048 0.29623
#
# Static dielectric constant tensor:
#      x y z
#    x 1.730110 0.000000 0.000000 
#    y 0.000000 1.761940 0.000000 
#    z 0.000000 0.000000 1.618660 
# 
# From -- ./inp_files/33438.got.cif
#   From: 2010.05.17/outbox.cif.g08.bks.cpg/sg68_17_cif.got.tgz:33438.got - 2010.06.03 18:57:09.
