data_PCOD9506270
_publ_section_title
;
Structure prediction by ZEFSAII (Michael W. Deem and Ramdas Pophale) SiO2 
 PCOD9506270
Probable space group: C C C A
;
_chemical_formula_sum "Si O2"
_cell_formula_units_Z 104
_cell_length_a 19.475561
_cell_length_b 19.674682
_cell_length_c 13.409454
_cell_angle_alpha 90.000000
_cell_angle_beta 90.000000
_cell_angle_gamma 90.000000
_cell_volume 5138.173831
_symmetry_space_group_name_H-M "C C C A"
_symmetry_group_IT_number 68
_space_group.IT_coordinate_system_code '2'
_symmetry_cell_setting 'orthorhombic'
loop_
_space_group_symop_operation_xyz
x,y,z
-x,1/2-y,z
x,1/2-y,1/2-z
-x,y,1/2-z
-x,-y,-z
x,1/2+y,-z
-x,1/2+y,1/2+z
x,-y,1/2+z
1/2+x,1/2+y,z
1/2-x,-y,z
1/2+x,-y,1/2-z
1/2-x,1/2+y,1/2-z
1/2-x,1/2-y,-z
1/2+x,y,-z
1/2-x,y,1/2+z
1/2+x,1/2-y,1/2+z
loop_
_atom_site_type_symbol
_atom_site_label
_atom_site_fract_x
_atom_site_fract_y
_atom_site_fract_z
Si Si1 0.671549 0.087563 0.450044
Si Si2 0.437701 0.475760 0.606102
Si Si3 0.958236 0.107698 0.481099
Si Si4 0.824690 0.529942 0.267342
Si Si5 0.847658 0.761837 0.363564
Si Si6 0.000000 0.250000 0.569867
Si Si7 0.688296 0.626546 0.950974
O O1 0.613468 0.056620 0.522154
O O2 0.673093 0.045370 0.348660
O O3 0.660382 0.164088 0.410470
O O4 0.744261 0.091125 0.506694
O O5 0.464520 0.549689 0.568183
O O6 0.502271 0.426112 0.610561
O O7 0.389201 0.484441 0.700695
O O8 0.993144 0.179600 0.507969
O O9 0.876457 0.116355 0.475657
O O10 0.750000 0.500000 0.289405
O O11 0.830002 0.593864 0.343218
O O12 0.824613 0.750000 0.250000
O O13 0.808219 0.706525 0.430503
O O14 0.929521 0.748741 0.368810
#
# Coordination Sequence:
#
# PCOD9506270 Si02
#       7
#    16  16  16  16  16   8  16
#     4  12  23  39  66  88 125 168 206 270 329 373
#     4  10  21  41  59  89 126 162 208 258 325 387
#     4   9  20  37  61  86 122 164 208 257 317 392
#     4  11  23  37  61  90 119 161 210 261 309 380
#     4  11  21  38  59  95 127 163 211 263 319 393
#     4  10  19  36  60  90 127 168 210 263 326 380
#     4  10  22  40  61  92 126 161 214 259 322 390
#
# _framework density 20.240655
#
# number of rings (size 3 to 8) (size 9 to 14) (size 15 to 20)
#    0.000    1.538    4.615    0.692    4.308    0.000 
#    0.000    6.923    0.000    0.000    0.000    1.077 
#    0.000    0.154    0.000    0.000    0.000    0.000 
#
# Total GULP energy -290104.996850 kJ/mol
# GULP energy per Si atom -5578.942247 kJ/mol
# Density = 2.019459 g / cm^3
# Si number density = 20.240655 Si / 1000 Ang^3
#
#
#
# Elastic Constant Matrix: (Units=GPa)
#
#
# Indices 1 2 3 4 5 6 
#
# 1 90.5784 24.4131 38.1149 0.0000 0.0000 0.0000
# 2 24.4131 114.7132 31.7204 0.0000 0.0000 0.0000
# 3 38.1149 31.7204 83.3352 0.0000 0.0000 0.0000
# 4 0.0000 0.0000 0.0000 23.5757 0.0000 0.0000
# 5 0.0000 0.0000 0.0000 0.0000 12.8913 0.0000
# 6 0.0000 0.0000 0.0000 0.0000 0.0000 29.4127
#
#
#
# Elastic Compliance Matrix: (Units=1/GPa)
#
#
# Indices 1 2 3 4 5 6 
#
# 1 0.013852 -0.001337 -0.005827 0.000000 0.000000 0.000000
# 2 -0.001337 0.009872 -0.003146 0.000000 0.000000 0.000000
# 3 -0.005827 -0.003146 0.015862 0.000000 0.000000 0.000000
# 4 0.000000 0.000000 0.000000 0.042416 0.000000 0.000000
# 5 0.000000 0.000000 0.000000 0.000000 0.077572 0.000000
# 6 0.000000 0.000000 0.000000 0.000000 0.000000 0.033999
#
#
# Mechanical properties :
#
#
# Convention : Reuss Voigt Hill
#
# Bulk Modulus (GPa) = 52.72335 53.01373 52.86854
# Shear Modulus (GPa) = 22.67416 26.13452 24.40434
#
# Velocity S-wave (km/s) = 3.35061 3.59721 3.47610
# Velocity P-wave (km/s) = 6.40887 6.59559 6.50290
#
# Compressibility (1/GPa) = 0.01896693
#
# Stress axis : x y z
#
# Youngs Moduli (GPa) = 72.18992 101.29791 63.04269
#
# Poissons Ratio (x) = 0.13542 0.36734
# Poissons Ratio (y) = 0.09650 0.19834
# Poissons Ratio (z) = 0.42064 0.31870
#
# Static dielectric constant tensor:
#      x y z
#    x 1.725030 0.000000 0.000000 
#    y 0.000000 1.768100 0.000000 
#    z 0.000000 0.000000 1.693180 
# 
# From -- ./inp_files/24631.got.cif
#   From: 2010.05.17/outbox.cif.g08.bks.cpg/sg68_13_cif.got.tgz:24631.got - 2010.06.03 18:57:09.
