data_PCOD9506424
_publ_section_title
;
Structure prediction by ZEFSAII (Michael W. Deem and Ramdas Pophale) SiO2 
 PCOD9506424
Probable space group: C C C A
;
_chemical_formula_sum "Si O2"
_cell_formula_units_Z 120
_cell_length_a 24.692127
_cell_length_b 20.608450
_cell_length_c 9.106641
_cell_angle_alpha 90.000000
_cell_angle_beta 90.000000
_cell_angle_gamma 90.000000
_cell_volume 4634.064211
_symmetry_space_group_name_H-M "C C C A"
_symmetry_group_IT_number 68
_space_group.IT_coordinate_system_code '2'
_symmetry_cell_setting 'orthorhombic'
loop_
_space_group_symop_operation_xyz
x,y,z
-x,1/2-y,z
x,1/2-y,1/2-z
-x,y,1/2-z
-x,-y,-z
x,1/2+y,-z
-x,1/2+y,1/2+z
x,-y,1/2+z
1/2+x,1/2+y,z
1/2-x,-y,z
1/2+x,-y,1/2-z
1/2-x,1/2+y,1/2-z
1/2-x,1/2-y,-z
1/2+x,y,-z
1/2-x,y,1/2+z
1/2+x,1/2-y,1/2+z
loop_
_atom_site_type_symbol
_atom_site_label
_atom_site_fract_x
_atom_site_fract_y
_atom_site_fract_z
Si Si1 0.918579 0.411991 0.522850
Si Si2 0.500000 0.911367 0.750000
Si Si3 0.342958 0.468372 0.723696
Si Si4 0.872025 0.856430 0.913699
Si Si5 0.237869 0.187632 0.101690
Si Si6 0.647295 0.824007 0.752053
Si Si7 0.985766 0.324949 0.019860
Si Si8 0.766382 0.065832 0.609079
O O1 0.955598 0.447721 0.649271
O O2 0.883022 0.453441 0.411643
O O3 0.881465 0.363586 0.618193
O O4 0.961882 0.367471 0.435926
O O5 0.472927 0.862288 0.866066
O O6 0.250000 0.500000 0.518904
O O7 0.286741 0.429158 0.707635
O O8 0.318274 0.540855 0.704291
O O9 0.862392 0.848060 0.087407
O O10 0.932236 0.831517 0.883997
O O11 0.824194 0.813071 0.841724
O O12 0.867883 0.931894 0.863813
O O13 0.288357 0.179506 0.211095
O O14 0.236667 0.124537 0.999507
O O15 0.250000 0.250000 0.000000
O O16 0.626692 0.750000 0.750000
O O17 0.000000 0.250000 0.999212
#
# Coordination Sequence:
#
# PCOD9506424 Si02
#       8
#    16   8  16  16  16  16  16  16
#     4  10  19  39  70 102 155 214 275 332 415 500
#     4   8  19  30  66 100 150 204 272 332 407 500
#     4   9  22  45  76  97 155 215 272 329 406 505
#     4  12  25  42  69 110 166 207 276 342 424 508
#     4  12  26  42  74 114 160 204 275 349 428 512
#     4  12  22  39  66 109 155 213 258 338 430 518
#     4  10  20  36  62 106 154 210 264 339 420 497
#     4   8  21  49  73 100 144 223 266 315 421 508
#
# _framework density 25.895197
#
# number of rings (size 3 to 8) (size 9 to 14) (size 15 to 20)
#    1.600    0.000    4.000    1.000    1.867    0.533 
#    2.400    7.333    8.800    0.800    0.000    1.867 
#    0.000    0.000    0.000    0.000    0.000    0.000 
#
# Total GULP energy -334839.033409 kJ/mol
# GULP energy per Si atom -5580.650557 kJ/mol
# Density = 2.583626 g / cm^3
# Si number density = 25.895197 Si / 1000 Ang^3
#
#
#
# Elastic Constant Matrix: (Units=GPa)
#
#
# Indices 1 2 3 4 5 6 
#
# 1 178.5749 42.1330 51.2166 0.0000 0.0000 0.0000
# 2 42.1330 121.8692 59.1403 0.0000 0.0000 0.0000
# 3 51.2166 59.1403 134.2910 0.0000 0.0000 0.0000
# 4 0.0000 0.0000 0.0000 20.0911 0.0000 0.0000
# 5 0.0000 0.0000 0.0000 0.0000 34.9312 0.0000
# 6 0.0000 0.0000 0.0000 0.0000 0.0000 33.3568
#
#
#
# Elastic Compliance Matrix: (Units=1/GPa)
#
#
# Indices 1 2 3 4 5 6 
#
# 1 0.006450 -0.001318 -0.001880 0.000000 0.000000 0.000000
# 2 -0.001318 0.010705 -0.004212 0.000000 0.000000 0.000000
# 3 -0.001880 -0.004212 0.010018 0.000000 0.000000 0.000000
# 4 0.000000 0.000000 0.000000 0.049773 0.000000 0.000000
# 5 0.000000 0.000000 0.000000 0.000000 0.028628 0.000000
# 6 0.000000 0.000000 0.000000 0.000000 0.000000 0.029979
#
#
# Mechanical properties :
#
#
# Convention : Reuss Voigt Hill
#
# Bulk Modulus (GPa) = 80.94006 82.19054 81.56530
# Shear Modulus (GPa) = 32.36470 36.49217 34.42844
#
# Velocity S-wave (km/s) = 3.53913 3.75804 3.65023
# Velocity P-wave (km/s) = 6.93003 7.11611 7.02369
#
# Compressibility (1/GPa) = 0.01235482
#
# Stress axis : x y z
#
# Youngs Moduli (GPa) = 155.04179 93.41447 99.81867
#
# Poissons Ratio (x) = 0.12310 0.18761
# Poissons Ratio (y) = 0.20431 0.42041
# Poissons Ratio (z) = 0.29141 0.39344
#
# Static dielectric constant tensor:
#      x y z
#    x 2.223510 0.000000 0.000000 
#    y 0.000000 2.204620 0.000000 
#    z 0.000000 0.000000 2.066940 
# 
# From -- ./inp_files/25664.got.cif
#   From: 2010.05.17/outbox.cif.g08.bks.cpg/sg68_13_cif.got.tgz:25664.got - 2010.06.03 18:57:09.
