data_PCOD9506768
_publ_section_title
;
Structure prediction by ZEFSAII (Michael W. Deem and Ramdas Pophale) SiO2 
 PCOD9506768
Probable space group: C C C A
;
_chemical_formula_sum "Si O2"
_cell_formula_units_Z 92
_cell_length_a 22.393514
_cell_length_b 7.656537
_cell_length_c 30.634658
_cell_angle_alpha 90.000000
_cell_angle_beta 90.000000
_cell_angle_gamma 90.000000
_cell_volume 5252.519465
_symmetry_space_group_name_H-M "C C C A"
_symmetry_group_IT_number 68
_space_group.IT_coordinate_system_code '2'
_symmetry_cell_setting 'orthorhombic'
loop_
_space_group_symop_operation_xyz
x,y,z
-x,1/2-y,z
x,1/2-y,1/2-z
-x,y,1/2-z
-x,-y,-z
x,1/2+y,-z
-x,1/2+y,1/2+z
x,-y,1/2+z
1/2+x,1/2+y,z
1/2-x,-y,z
1/2+x,-y,1/2-z
1/2-x,1/2+y,1/2-z
1/2-x,1/2-y,-z
1/2+x,y,-z
1/2-x,y,1/2+z
1/2+x,1/2-y,1/2+z
loop_
_atom_site_type_symbol
_atom_site_label
_atom_site_fract_x
_atom_site_fract_y
_atom_site_fract_z
Si Si1 0.556572 0.650574 0.373686
Si Si2 0.012955 0.952661 0.049753
Si Si3 0.750000 0.000000 0.865194
Si Si4 0.381956 0.003814 0.109558
Si Si5 0.905359 0.689415 0.322920
Si Si6 0.000000 0.750000 0.250000
Si Si7 0.732083 0.697684 0.798916
O O1 0.500000 0.750000 0.351272
O O2 0.527390 0.572342 0.418199
O O3 0.604402 0.804030 0.378109
O O4 0.585653 0.485201 0.350689
O O5 0.000000 0.750000 0.057245
O O6 0.081440 0.975011 0.064846
O O7 0.000000 0.000000 0.000000
O O8 0.811084 0.032380 0.891418
O O9 0.758684 0.834335 0.833313
O O10 0.410637 0.140254 0.145063
O O11 0.953667 0.667982 0.284534
O O12 0.839507 0.707514 0.303190
O O13 0.750523 0.750000 0.750000
O O14 0.750000 0.500000 0.808205
#
# Coordination Sequence:
#
# PCOD9506768 Si02
#       7
#    16  16   8  16  16   4  16
#     4  10  20  36  57  82 114 151 193 240 291 354
#     4  11  20  36  62  92 118 149 188 239 288 355
#     4  10  22  38  62  82 116 156 196 248 294 342
#     4  10  21  39  59  86 115 154 195 237 296 349
#     4  11  22  37  53  80 118 154 193 244 298 339
#     4  12  20  32  54  76 112 154 188 234 306 336
#     4  11  21  37  56  81 110 154 208 247 285 338
#
# _framework density 17.515404
#
# number of rings (size 3 to 8) (size 9 to 14) (size 15 to 20)
#    0.000    1.391    3.478    4.696    0.000    0.000 
#    0.000    3.913    0.000    4.174    0.000    0.000 
#    0.000    0.000    0.000    0.000    0.000    0.000 
#
# Total GULP energy -256296.404938 kJ/mol
# GULP energy per Si atom -5571.660977 kJ/mol
# Density = 1.747554 g / cm^3
# Si number density = 17.515404 Si / 1000 Ang^3
#
#
#
# Elastic Constant Matrix: (Units=GPa)
#
#
# Indices 1 2 3 4 5 6 
#
# 1 76.3734 12.9239 37.2268 0.0000 0.0000 0.0000
# 2 12.9239 139.5277 34.2547 0.0000 0.0000 0.0000
# 3 37.2268 34.2547 74.3691 0.0000 0.0000 0.0000
# 4 0.0000 0.0000 0.0000 5659.3914 0.0000 0.0000
# 5 0.0000 0.0000 0.0000 0.0000 -11.3781 0.0000
# 6 0.0000 0.0000 0.0000 0.0000 0.0000 25.3492
#
#
#
# Elastic Compliance Matrix: (Units=1/GPa)
#
#
# Indices 1 2 3 4 5 6 
#
# 1 0.017363 0.000592 -0.008964 0.000000 0.000000 0.000000
# 2 0.000592 0.008101 -0.004028 0.000000 0.000000 0.000000
# 3 -0.008964 -0.004028 0.019789 0.000000 0.000000 0.000000
# 4 0.000000 0.000000 0.000000 0.000177 0.000000 0.000000
# 5 0.000000 0.000000 0.000000 0.000000 -0.087888 0.000000
# 6 0.000000 0.000000 0.000000 0.000000 0.000000 0.039449
#
#
# Mechanical properties :
#
#
# Convention : Reuss Voigt Hill
#
# Bulk Modulus (GPa) = 48.89147 51.00900 49.95023
# Shear Modulus (GPa) = 174.77909 1148.39681 661.58795
#
# Velocity S-wave (km/s) = 10.00013 25.63343 19.45605
# Velocity P-wave (km/s) = 12.70082 30.08792 23.09322
#
# Compressibility (1/GPa) = 0.02045347
#
# Stress axis : x y z
#
# Youngs Moduli (GPa) = 57.59477 123.44098 50.53345
#
# Poissons Ratio (x) = -0.07314 0.45299
# Poissons Ratio (y) = -0.03412 0.20355
# Poissons Ratio (z) = 0.51629 0.49721
#
# Static dielectric constant tensor:
#      x y z
#    x 1.601550 0.000000 0.000000 
#    y 0.000000 1.595630 0.000000 
#    z 0.000000 0.000000 1.600470 
# 
# From -- ./inp_files/51792.got.cif
#   From: 2010.05.17/outbox.cif.g08.bks.cpg/sg68_26_cif.got.tgz:51792.got - 2010.06.03 18:57:09.
