data_PCOD9506039
_publ_section_title
;
Structure prediction by ZEFSAII (Michael W. Deem and Ramdas Pophale) SiO2 
 PCOD9506039
Probable space group: C C C A
;
_chemical_formula_sum "Si O2"
_cell_formula_units_Z 96
_cell_length_a 21.996575
_cell_length_b 11.103633
_cell_length_c 21.907092
_cell_angle_alpha 90.000000
_cell_angle_beta 90.000000
_cell_angle_gamma 90.000000
_cell_volume 5350.629687
_symmetry_space_group_name_H-M "C C C A"
_symmetry_group_IT_number 68
_space_group.IT_coordinate_system_code '2'
_symmetry_cell_setting 'orthorhombic'
loop_
_space_group_symop_operation_xyz
x,y,z
-x,1/2-y,z
x,1/2-y,1/2-z
-x,y,1/2-z
-x,-y,-z
x,1/2+y,-z
-x,1/2+y,1/2+z
x,-y,1/2+z
1/2+x,1/2+y,z
1/2-x,-y,z
1/2+x,-y,1/2-z
1/2-x,1/2+y,1/2-z
1/2-x,1/2-y,-z
1/2+x,y,-z
1/2-x,y,1/2+z
1/2+x,1/2-y,1/2+z
loop_
_atom_site_type_symbol
_atom_site_label
_atom_site_fract_x
_atom_site_fract_y
_atom_site_fract_z
Si Si1 0.774162 0.187148 0.185318
Si Si2 0.571814 0.730499 0.819591
Si Si3 0.134591 0.564668 0.010849
Si Si4 0.843760 0.531556 0.350426
Si Si5 0.878874 0.676715 0.055473
Si Si6 0.759590 0.628456 0.582259
O O1 0.768826 0.250000 0.250000
O O2 0.710818 0.121216 0.168623
O O3 0.785129 0.279233 0.130694
O O4 0.827912 0.090281 0.183663
O O5 0.500000 0.750000 0.821480
O O6 0.593174 0.750000 0.750000
O O7 0.593261 0.595497 0.834830
O O8 0.600391 0.811770 0.873804
O O9 0.156713 0.517054 0.076655
O O10 0.102455 0.695167 0.023948
O O11 0.103061 0.449766 0.976998
O O12 0.192829 0.599802 0.970543
O O13 0.805135 0.673325 0.056975
O O14 0.750000 0.500000 0.614867
#
# Coordination Sequence:
#
# PCOD9506039 Si02
#       6
#    16  16  16  16  16  16
#     4  11  22  32  49  82 121 155 175 233 297 349
#     4  10  21  40  62  80 105 149 205 251 284 332
#     4  10  19  33  53  81 116 154 182 229 283 351
#     4  10  22  34  56  78 118 150 191 236 287 354
#     4  10  20  32  54  83 113 144 194 239 277 345
#     4  10  20  29  52  78 115 151 190 219 271 352
#
# _framework density 17.941813
#
# number of rings (size 3 to 8) (size 9 to 14) (size 15 to 20)
#    0.000    1.833    3.333    2.000    9.333    1.333 
#    0.000    3.333    0.000    0.000    0.000   24.500 
#    0.000    0.000    0.000    0.000    0.000    0.000 
#
# Total GULP energy -267397.244058 kJ/mol
# GULP energy per Si atom -5570.775918 kJ/mol
# Density = 1.790098 g / cm^3
# Si number density = 17.941813 Si / 1000 Ang^3
#
#
#
# Elastic Constant Matrix: (Units=GPa)
#
#
# Indices 1 2 3 4 5 6 
#
# 1 31.9430 17.2918 13.0727 0.0000 0.0000 0.0000
# 2 17.2918 124.5674 49.8452 0.0000 0.0000 0.0000
# 3 13.0727 49.8452 120.2397 0.0000 0.0000 0.0000
# 4 0.0000 0.0000 0.0000 21.7055 0.0000 0.0000
# 5 0.0000 0.0000 0.0000 0.0000 17.9838 0.0000
# 6 0.0000 0.0000 0.0000 0.0000 0.0000 19.0605
#
#
#
# Elastic Compliance Matrix: (Units=1/GPa)
#
#
# Indices 1 2 3 4 5 6 
#
# 1 0.034288 -0.003918 -0.002104 0.000000 0.000000 0.000000
# 2 -0.003918 0.010072 -0.003749 0.000000 0.000000 0.000000
# 3 -0.002104 -0.003749 0.010100 0.000000 0.000000 0.000000
# 4 0.000000 0.000000 0.000000 0.046071 0.000000 0.000000
# 5 0.000000 0.000000 0.000000 0.000000 0.055606 0.000000
# 6 0.000000 0.000000 0.000000 0.000000 0.000000 0.052465
#
#
# Mechanical properties :
#
#
# Convention : Reuss Voigt Hill
#
# Bulk Modulus (GPa) = 28.63893 48.57439 38.60666
# Shear Modulus (GPa) = 20.85230 24.85264 22.85247
#
# Velocity S-wave (km/s) = 3.41283 3.72584 3.57276
# Velocity P-wave (km/s) = 5.61486 6.75583 6.21160
#
# Compressibility (1/GPa) = 0.03491751
#
# Stress axis : x y z
#
# Youngs Moduli (GPa) = 29.16507 99.28586 99.01263
#
# Poissons Ratio (x) = 0.38899 0.20829
# Poissons Ratio (y) = 0.11426 0.37123
# Poissons Ratio (z) = 0.06135 0.37226
#
# Static dielectric constant tensor:
#      x y z
#    x 1.603090 0.000000 0.000000 
#    y 0.000000 1.681830 0.000000 
#    z 0.000000 0.000000 1.622230 
# 
# From -- ./inp_files/29824.got.cif
#   From: 2010.05.17/outbox.cif.g08.bks.cpg/sg68_15_cif.got.tgz:29824.got - 2010.06.03 18:57:09.
