data_PCOD9506062
_publ_section_title
;
Structure prediction by ZEFSAII (Michael W. Deem and Ramdas Pophale) SiO2 
 PCOD9506062
Probable space group: C C C A
;
_chemical_formula_sum "Si O2"
_cell_formula_units_Z 96
_cell_length_a 23.768777
_cell_length_b 17.333215
_cell_length_c 12.856087
_cell_angle_alpha 90.000000
_cell_angle_beta 90.000000
_cell_angle_gamma 90.000000
_cell_volume 5296.570567
_symmetry_space_group_name_H-M "C C C A"
_symmetry_group_IT_number 68
_space_group.IT_coordinate_system_code '2'
_symmetry_cell_setting 'orthorhombic'
loop_
_space_group_symop_operation_xyz
x,y,z
-x,1/2-y,z
x,1/2-y,1/2-z
-x,y,1/2-z
-x,-y,-z
x,1/2+y,-z
-x,1/2+y,1/2+z
x,-y,1/2+z
1/2+x,1/2+y,z
1/2-x,-y,z
1/2+x,-y,1/2-z
1/2-x,1/2+y,1/2-z
1/2-x,1/2-y,-z
1/2+x,y,-z
1/2-x,y,1/2+z
1/2+x,1/2-y,1/2+z
loop_
_atom_site_type_symbol
_atom_site_label
_atom_site_fract_x
_atom_site_fract_y
_atom_site_fract_z
Si Si1 0.118893 0.113506 0.129786
Si Si2 0.499682 0.159721 0.877096
Si Si3 0.615546 0.579172 0.363290
Si Si4 0.192786 0.550473 0.050858
Si Si5 0.300746 0.718787 0.638193
Si Si6 0.673141 0.764480 0.086693
O O1 0.056208 0.117967 0.083205
O O2 0.114139 0.071132 0.238995
O O3 0.134345 0.203506 0.146018
O O4 0.169380 0.081418 0.059503
O O5 0.500000 0.250000 0.909958
O O6 0.500000 0.160709 0.750000
O O7 0.444210 0.110872 0.904200
O O8 0.642087 0.502907 0.409885
O O9 0.657836 0.648849 0.388038
O O10 0.250000 0.500000 0.044429
O O11 0.200424 0.625956 0.123748
O O12 0.320278 0.750000 0.750000
O O13 0.333771 0.749547 0.536832
O O14 0.237307 0.749272 0.620009
#
# Coordination Sequence:
#
# PCOD9506062 Si02
#       6
#    16  16  16  16  16  16
#     4  10  21  36  56  81 114 144 182 241 281 332
#     4   9  17  32  58  85 104 138 190 236 286 329
#     4  11  20  35  57  83 115 141 187 239 286 324
#     4  11  24  37  50  86 118 150 191 224 287 353
#     4  10  21  37  55  76 117 155 189 223 269 339
#     4  10  19  33  56  84 104 145 191 227 273 340
#
# _framework density 18.124935000000001
#
# number of rings (size 3 to 8) (size 9 to 14) (size 15 to 20)
#    0.000    1.833    3.333    1.500    0.000    2.667 
#    0.000    0.000    0.000    0.000    0.000    8.167 
#    0.000    0.000    0.000    0.000    0.000    0.000 
#
# Total GULP energy -267518.922612 kJ/mol
# GULP energy per Si atom -5573.310888 kJ/mol
# Density = 1.808368 g / cm^3
# Si number density = 18.124935 Si / 1000 Ang^3
#
#
#
# Elastic Constant Matrix: (Units=GPa)
#
#
# Indices 1 2 3 4 5 6 
#
# 1 82.5550 28.0461 9.6834 0.0000 0.0000 0.0000
# 2 28.0461 75.3772 30.1459 0.0000 0.0000 0.0000
# 3 9.6834 30.1459 57.7901 0.0000 0.0000 0.0000
# 4 0.0000 0.0000 0.0000 17.6984 0.0000 0.0000
# 5 0.0000 0.0000 0.0000 0.0000 14.4692 0.0000
# 6 0.0000 0.0000 0.0000 0.0000 0.0000 23.9642
#
#
#
# Elastic Compliance Matrix: (Units=1/GPa)
#
#
# Indices 1 2 3 4 5 6 
#
# 1 0.013876 -0.005349 0.000465 0.000000 0.000000 0.000000
# 2 -0.005349 0.018826 -0.008924 0.000000 0.000000 0.000000
# 3 0.000465 -0.008924 0.021881 0.000000 0.000000 0.000000
# 4 0.000000 0.000000 0.000000 0.056502 0.000000 0.000000
# 5 0.000000 0.000000 0.000000 0.000000 0.069112 0.000000
# 6 0.000000 0.000000 0.000000 0.000000 0.000000 0.041729
#
#
# Mechanical properties :
#
#
# Convention : Reuss Voigt Hill
#
# Bulk Modulus (GPa) = 37.08207 39.05254 38.06731
# Shear Modulus (GPa) = 19.34003 21.08282 20.21142
#
# Velocity S-wave (km/s) = 3.27010 3.41426 3.34296
# Velocity P-wave (km/s) = 5.89590 6.09393 5.99573
#
# Compressibility (1/GPa) = 0.02696721
#
# Stress axis : x y z
#
# Youngs Moduli (GPa) = 72.06825 53.11837 45.70115
#
# Poissons Ratio (x) = 0.28412 -0.02126
# Poissons Ratio (y) = 0.38548 0.40784
# Poissons Ratio (z) = -0.03353 0.47404
#
# Static dielectric constant tensor:
#      x y z
#    x 1.647250 0.000000 0.000000 
#    y 0.000000 1.641550 0.000000 
#    z 0.000000 0.000000 1.655780 
# 
# From -- ./inp_files/16420.got.cif
#   From: 2010.05.17/outbox.cif.g08.bks.cpg/sg68_9_cif.got.tgz:16420.got - 2010.06.03 18:57:09.
