data_PCOD9506510
_publ_section_title
;
Structure prediction by ZEFSAII (Michael W. Deem and Ramdas Pophale) SiO2 
 PCOD9506510
Probable space group: C C C A
;
_chemical_formula_sum "Si O2"
_cell_formula_units_Z 84
_cell_length_a 18.373418
_cell_length_b 8.849307
_cell_length_c 25.339990
_cell_angle_alpha 90.000000
_cell_angle_beta 90.000000
_cell_angle_gamma 90.000000
_cell_volume 4120.080073
_symmetry_space_group_name_H-M "C C C A"
_symmetry_group_IT_number 68
_space_group.IT_coordinate_system_code '2'
_symmetry_cell_setting 'orthorhombic'
loop_
_space_group_symop_operation_xyz
x,y,z
-x,1/2-y,z
x,1/2-y,1/2-z
-x,y,1/2-z
-x,-y,-z
x,1/2+y,-z
-x,1/2+y,1/2+z
x,-y,1/2+z
1/2+x,1/2+y,z
1/2-x,-y,z
1/2+x,-y,1/2-z
1/2-x,1/2+y,1/2-z
1/2-x,1/2-y,-z
1/2+x,y,-z
1/2-x,y,1/2+z
1/2+x,1/2-y,1/2+z
loop_
_atom_site_type_symbol
_atom_site_label
_atom_site_fract_x
_atom_site_fract_y
_atom_site_fract_z
Si Si1 0.919715 0.332107 0.536876
Si Si2 0.384495 0.856444 0.336119
Si Si3 0.919453 0.317033 0.861679
Si Si4 0.750000 0.500000 0.777431
Si Si5 0.080803 0.315540 0.432868
Si Si6 0.348949 0.250000 0.250000
Si Si7 0.000000 0.750000 0.750000
O O1 0.881565 0.259996 0.588136
O O2 0.886216 0.283737 0.480913
O O3 0.924177 0.510848 0.547849
O O4 0.000000 0.250000 0.534165
O O5 0.381597 0.716413 0.376506
O O6 0.443810 0.834793 0.289338
O O7 0.412908 0.003620 0.367698
O O8 0.305873 0.900652 0.312411
O O9 0.890883 0.280000 0.803658
O O10 0.000000 0.250000 0.861772
O O11 0.701093 0.605794 0.742045
O O12 0.000000 0.250000 0.423683
#
# Coordination Sequence:
#
# PCOD9506510 Si02
#       7
#    16  16  16   8  16   8   4
#     4  10  20  32  57  88 127 156 198 251 321 374
#     4  11  24  39  61  88 128 161 209 259 317 370
#     4  10  21  35  57  88 117 153 198 253 304 363
#     4  10  24  42  58  86 124 176 204 258 320 398
#     4  11  19  35  58  88 122 161 199 256 312 372
#     4  10  22  38  60  76 122 160 208 244 309 375
#     4  12  26  36  66  98 124 162 222 274 310 372
#
# _framework density 20.387953
#
# number of rings (size 3 to 8) (size 9 to 14) (size 15 to 20)
#    0.000    1.524    0.952    6.571    5.333    1.524 
#    0.000    0.000    0.000   11.429    0.000    0.000 
#    0.000    0.000    0.000    0.000    0.000    0.000 
#
# Total GULP energy -234127.562600 kJ/mol
# GULP energy per Si atom -5574.465776 kJ/mol
# Density = 2.034155 g / cm^3
# Si number density = 20.387953 Si / 1000 Ang^3
#
#
#
# Elastic Constant Matrix: (Units=GPa)
#
#
# Indices 1 2 3 4 5 6 
#
# 1 46.3822 7.6455 16.8139 0.0000 0.0000 0.0000
# 2 7.6455 115.2786 37.2183 0.0000 0.0000 0.0000
# 3 16.8139 37.2183 112.0305 0.0000 0.0000 0.0000
# 4 0.0000 0.0000 0.0000 59.8844 0.0000 0.0000
# 5 0.0000 0.0000 0.0000 0.0000 -17.7527 0.0000
# 6 0.0000 0.0000 0.0000 0.0000 0.0000 23.6573
#
#
#
# Elastic Compliance Matrix: (Units=1/GPa)
#
#
# Indices 1 2 3 4 5 6 
#
# 1 0.022822 -0.000457 -0.003273 0.000000 0.000000 0.000000
# 2 -0.000457 0.009726 -0.003163 0.000000 0.000000 0.000000
# 3 -0.003273 -0.003163 0.010468 0.000000 0.000000 0.000000
# 4 0.000000 0.000000 0.000000 0.016699 0.000000 0.000000
# 5 0.000000 0.000000 0.000000 0.000000 -0.056329 0.000000
# 6 0.000000 0.000000 0.000000 0.000000 0.000000 0.042270
#
#
# Mechanical properties :
#
#
# Convention : Reuss Voigt Hill
#
# Bulk Modulus (GPa) = 34.21092 44.11632 39.16362
# Shear Modulus (GPa) = 72.27030 27.29203 49.78117
#
# Velocity S-wave (km/s) = 5.96024 3.66271 4.94671
# Velocity P-wave (km/s) = 8.01139 6.29068 7.20260
#
# Compressibility (1/GPa) = 0.02923043
#
# Stress axis : x y z
#
# Youngs Moduli (GPa) = 43.81752 102.81734 95.52842
#
# Poissons Ratio (x) = 0.04696 0.31271
# Poissons Ratio (y) = 0.02001 0.30212
# Poissons Ratio (z) = 0.14343 0.32517
#
# Static dielectric constant tensor:
#      x y z
#    x 1.690660 0.000000 0.000000 
#    y 0.000000 1.755330 0.000000 
#    z 0.000000 0.000000 1.805090 
# 
# From -- ./inp_files/43095.got.cif
#   From: 2010.05.17/outbox.cif.g08.bks.cpg/sg68_22_cif.got.tgz:43095.got - 2010.06.03 18:57:09.
