data_PCOD9506548
_publ_section_title
;
Structure prediction by ZEFSAII (Michael W. Deem and Ramdas Pophale) SiO2 
 PCOD9506548
Probable space group: C C C A
;
_chemical_formula_sum "Si O2"
_cell_formula_units_Z 88
_cell_length_a 18.659710
_cell_length_b 13.225055
_cell_length_c 14.288271
_cell_angle_alpha 90.000000
_cell_angle_beta 90.000000
_cell_angle_gamma 90.000000
_cell_volume 3525.997950
_symmetry_space_group_name_H-M "C C C A"
_symmetry_group_IT_number 68
_space_group.IT_coordinate_system_code '2'
_symmetry_cell_setting 'orthorhombic'
loop_
_space_group_symop_operation_xyz
x,y,z
-x,1/2-y,z
x,1/2-y,1/2-z
-x,y,1/2-z
-x,-y,-z
x,1/2+y,-z
-x,1/2+y,1/2+z
x,-y,1/2+z
1/2+x,1/2+y,z
1/2-x,-y,z
1/2+x,-y,1/2-z
1/2-x,1/2+y,1/2-z
1/2-x,1/2-y,-z
1/2+x,y,-z
1/2-x,y,1/2+z
1/2+x,1/2-y,1/2+z
loop_
_atom_site_type_symbol
_atom_site_label
_atom_site_fract_x
_atom_site_fract_y
_atom_site_fract_z
Si Si1 0.502628 0.616005 0.473252
Si Si2 0.924646 0.945329 0.699914
Si Si3 0.500000 0.750000 0.863044
Si Si4 0.804591 0.145798 0.879816
Si Si5 0.857755 0.645664 0.331360
Si Si6 0.645656 0.580240 0.104458
O O1 0.500000 0.500000 0.500000
O O2 0.547818 0.631007 0.379207
O O3 0.533498 0.672824 0.562145
O O4 0.418482 0.633370 0.452313
O O5 0.877966 0.908624 0.786763
O O6 0.000000 0.981658 0.750000
O O7 0.876713 0.029667 0.645736
O O8 0.561293 0.686124 0.814688
O O9 0.815874 0.139196 0.766639
O O10 0.824394 0.264861 0.894036
O O11 0.722847 0.128734 0.908375
O O12 0.844579 0.041612 0.913402
#
# Coordination Sequence:
#
# PCOD9506548 Si02
#       6
#    16  16   8  16  16  16
#     4  11  21  39  60  89 124 160 199 259 314 371
#     4   9  19  36  63  89 116 159 210 263 306 356
#     4  12  24  35  59  92 128 154 206 256 328 374
#     4   9  19  34  62  87 118 152 201 257 301 367
#     4  10  20  33  59  94 112 151 205 264 310 360
#     4   9  19  39  59  84 122 161 201 245 310 371
#
# _framework density 24.957474000000001
#
# number of rings (size 3 to 8) (size 9 to 14) (size 15 to 20)
#    0.000    2.182    1.818    1.091    7.636    0.000 
#    6.545    4.091    8.000    0.000    0.000    0.000 
#    0.000    0.000    0.000    0.000    0.000    0.000 
#
# Total GULP energy -245193.903497 kJ/mol
# GULP energy per Si atom -5572.588716 kJ/mol
# Density = 2.490067 g / cm^3
# Si number density = 24.957474 Si / 1000 Ang^3
#
#
#
# Elastic Constant Matrix: (Units=GPa)
#
#
# Indices 1 2 3 4 5 6 
#
# 1 94.0439 10.1921 -2.3554 0.0000 0.0000 0.0000
# 2 10.1921 69.3628 -1.5254 0.0000 0.0000 0.0000
# 3 -2.3554 -1.5254 54.2647 0.0000 0.0000 0.0000
# 4 0.0000 0.0000 0.0000 26.2613 0.0000 0.0000
# 5 0.0000 0.0000 0.0000 0.0000 29.0976 0.0000
# 6 0.0000 0.0000 0.0000 0.0000 0.0000 35.7573
#
#
#
# Elastic Compliance Matrix: (Units=1/GPa)
#
#
# Indices 1 2 3 4 5 6 
#
# 1 0.010815 -0.001580 0.000425 0.000000 0.000000 0.000000
# 2 -0.001580 0.014657 0.000343 0.000000 0.000000 0.000000
# 3 0.000425 0.000343 0.018456 0.000000 0.000000 0.000000
# 4 0.000000 0.000000 0.000000 0.038079 0.000000 0.000000
# 5 0.000000 0.000000 0.000000 0.000000 0.034367 0.000000
# 6 0.000000 0.000000 0.000000 0.000000 0.000000 0.027966
#
#
# Mechanical properties :
#
#
# Convention : Reuss Voigt Hill
#
# Bulk Modulus (GPa) = 23.63764 25.58822 24.61293
# Shear Modulus (GPa) = 31.23731 32.31390 31.77561
#
# Velocity S-wave (km/s) = 3.54166 3.60218 3.57205
# Velocity P-wave (km/s) = 5.12018 5.25128 5.18614
#
# Compressibility (1/GPa) = 0.04230542
#
# Stress axis : x y z
#
# Youngs Moduli (GPa) = 92.46255 68.22841 54.18204
#
# Poissons Ratio (x) = 0.10779 -0.02303
# Poissons Ratio (y) = 0.14607 -0.01861
# Poissons Ratio (z) = -0.03930 -0.02343
#
# Static dielectric constant tensor:
#      x y z
#    x 1.970170 0.000000 0.000000 
#    y 0.000000 2.069680 0.000000 
#    z 0.000000 0.000000 2.070920 
# 
# From -- ./inp_files/31841.got.cif
#   From: 2010.05.17/outbox.cif.g08.bks.cpg/sg68_16_cif.got.tgz:31841.got - 2010.06.03 18:57:09.
