data_PCOD9506460
_publ_section_title
;
Structure prediction by ZEFSAII (Michael W. Deem and Ramdas Pophale) SiO2 
 PCOD9506460
Probable space group: C C C A
;
_chemical_formula_sum "Si O2"
_cell_formula_units_Z 52
_cell_length_a 13.784378
_cell_length_b 8.001193
_cell_length_c 18.236486
_cell_angle_alpha 90.000000
_cell_angle_beta 90.000000
_cell_angle_gamma 90.000000
_cell_volume 2011.328826
_symmetry_space_group_name_H-M "C C C A"
_symmetry_group_IT_number 68
_space_group.IT_coordinate_system_code '2'
_symmetry_cell_setting 'orthorhombic'
loop_
_space_group_symop_operation_xyz
x,y,z
-x,1/2-y,z
x,1/2-y,1/2-z
-x,y,1/2-z
-x,-y,-z
x,1/2+y,-z
-x,1/2+y,1/2+z
x,-y,1/2+z
1/2+x,1/2+y,z
1/2-x,-y,z
1/2+x,-y,1/2-z
1/2-x,1/2+y,1/2-z
1/2-x,1/2-y,-z
1/2+x,y,-z
1/2-x,y,1/2+z
1/2+x,1/2-y,1/2+z
loop_
_atom_site_type_symbol
_atom_site_label
_atom_site_fract_x
_atom_site_fract_y
_atom_site_fract_z
Si Si1 0.033520 0.478299 0.124910
Si Si2 0.795812 0.681663 0.925966
Si Si3 0.500000 0.250000 0.750000
Si Si4 0.639826 0.308032 0.164637
O O1 0.089022 0.358527 0.067169
O O2 0.085256 0.655778 0.123846
O O3 0.059627 0.372928 0.197945
O O4 0.921311 0.529327 0.138097
O O5 0.750000 0.500000 0.911288
O O6 0.750216 0.798510 0.862527
O O7 0.750000 0.750000 0.000000
O O8 0.631302 0.250000 0.250000
#
# Coordination Sequence:
#
# PCOD9506460 Si02
#       4
#    16  16   4  16
#     4  10  21  38  63  93 132 171 227 291 354 424
#     4  10  24  42  62  95 134 183 236 283 358 436
#     4  12  20  34  60 104 128 156 238 292 352 418
#     4  10  19  42  67  92 131 182 229 290 367 425
#
# _framework density 25.853556000000001
#
# number of rings (size 3 to 8) (size 9 to 14) (size 15 to 20)
#    0.000    1.846    3.077    0.923    2.154    3.692 
#    0.000    3.077    0.000    0.000    0.000    0.000 
#    0.000    0.000    0.000    0.000    0.000    0.000 
#
# Total GULP energy -144736.778747 kJ/mol
# GULP energy per Si atom -5566.799183 kJ/mol
# Density = 2.579471 g / cm^3
# Si number density = 25.853556 Si / 1000 Ang^3
#
#
#
# Elastic Constant Matrix: (Units=GPa)
#
#
# Indices 1 2 3 4 5 6 
#
# 1 197.9739 93.9853 46.5375 0.0000 0.0000 0.0000
# 2 93.9853 117.6167 12.8936 0.0000 0.0000 0.0000
# 3 46.5375 12.8936 63.6778 0.0000 0.0000 0.0000
# 4 0.0000 0.0000 0.0000 18.6290 0.0000 0.0000
# 5 0.0000 0.0000 0.0000 0.0000 -18.9879 0.0000
# 6 0.0000 0.0000 0.0000 0.0000 0.0000 45.6370
#
#
#
# Elastic Compliance Matrix: (Units=1/GPa)
#
#
# Indices 1 2 3 4 5 6 
#
# 1 0.009825 -0.007224 -0.005717 0.000000 0.000000 0.000000
# 2 -0.007224 0.014007 0.002443 0.000000 0.000000 0.000000
# 3 -0.005717 0.002443 0.019388 0.000000 0.000000 0.000000
# 4 0.000000 0.000000 0.000000 0.053680 0.000000 0.000000
# 5 0.000000 0.000000 0.000000 0.000000 -0.052665 0.000000
# 6 0.000000 0.000000 0.000000 0.000000 0.000000 0.021912
#
#
# Mechanical properties :
#
#
# Convention : Reuss Voigt Hill
#
# Bulk Modulus (GPa) = 44.99794 76.23346 60.61570
# Shear Modulus (GPa) = 52.88241 24.11242 38.49742
#
# Velocity S-wave (km/s) = 4.52758 3.05725 3.86302
# Velocity P-wave (km/s) = 6.69139 6.48175 6.58740
#
# Compressibility (1/GPa) = 0.02222324
#
# Stress axis : x y z
#
# Youngs Moduli (GPa) = 101.78549 71.39387 51.57888
#
# Poissons Ratio (x) = 0.51574 0.29490
# Poissons Ratio (y) = 0.73529 -0.12602
# Poissons Ratio (z) = 0.58195 -0.17444
#
# Static dielectric constant tensor:
#      x y z
#    x 2.249280 0.000000 0.000000 
#    y 0.000000 2.032290 0.000000 
#    z 0.000000 0.000000 2.068230 
# 
# From -- ./inp_files/38107.got.cif
#   From: 2010.05.17/outbox.cif.g08.bks.cpg/sg68_20_cif.got.tgz:38107.got - 2010.06.03 18:57:09.
