data_PCOD9506765
_publ_section_title
;
Structure prediction by ZEFSAII (Michael W. Deem and Ramdas Pophale) SiO2 
 PCOD9506765
Probable space group: C C C A
;
_chemical_formula_sum "Si O2"
_cell_formula_units_Z 88
_cell_length_a 8.517034
_cell_length_b 23.884501
_cell_length_c 20.673423
_cell_angle_alpha 90.000000
_cell_angle_beta 90.000000
_cell_angle_gamma 90.000000
_cell_volume 4205.493288
_symmetry_space_group_name_H-M "C C C A"
_symmetry_group_IT_number 68
_space_group.IT_coordinate_system_code '2'
_symmetry_cell_setting 'orthorhombic'
loop_
_space_group_symop_operation_xyz
x,y,z
-x,1/2-y,z
x,1/2-y,1/2-z
-x,y,1/2-z
-x,-y,-z
x,1/2+y,-z
-x,1/2+y,1/2+z
x,-y,1/2+z
1/2+x,1/2+y,z
1/2-x,-y,z
1/2+x,-y,1/2-z
1/2-x,1/2+y,1/2-z
1/2-x,1/2-y,-z
1/2+x,y,-z
1/2-x,y,1/2+z
1/2+x,1/2-y,1/2+z
loop_
_atom_site_type_symbol
_atom_site_label
_atom_site_fract_x
_atom_site_fract_y
_atom_site_fract_z
Si Si1 0.679016 0.940348 0.272222
Si Si2 0.843559 0.617557 0.349438
Si Si3 0.209006 0.139079 0.619496
Si Si4 0.245730 0.838262 0.969396
Si Si5 0.310445 0.256093 0.178253
Si Si6 0.000000 0.250000 0.008217
O O1 0.500000 0.945882 0.250000
O O2 0.782982 0.918191 0.210885
O O3 0.686626 0.898956 0.333638
O O4 0.750000 0.000000 0.291492
O O5 0.773972 0.609990 0.421322
O O6 0.780774 0.680321 0.338584
O O7 0.031735 0.621968 0.357844
O O8 0.228412 0.137689 0.542224
O O9 0.242500 0.203959 0.636004
O O10 0.099166 0.797292 0.955548
O O11 0.386271 0.791484 0.967731
O O12 0.500000 0.250000 0.180599
O O13 0.245601 0.250000 0.250000
#
# Coordination Sequence:
#
# PCOD9506765 Si02
#       6
#    16  16  16  16  16   8
#     4  12  28  49  72  95 123 165 225 287 338 392
#     4  11  22  41  66  96 136 181 217 265 326 392
#     4  11  22  41  66  96 136 181 217 265 326 392
#     4  11  22  36  61  98 142 184 225 257 320 386
#     4   9  16  30  56  92 129 171 213 248 312 389
#     4  10  20  36  56  96 144 190 218 258 310 392
#
# _framework density 20.925014000000001
#
# number of rings (size 3 to 8) (size 9 to 14) (size 15 to 20)
#    0.000    1.273    3.636    3.818    5.091    0.000 
#    0.000    1.818    0.000    4.364    0.000    0.000 
#    0.000    0.000    0.000    0.000    0.000    0.000 
#
# Total GULP energy -245413.663234 kJ/mol
# GULP energy per Si atom -5577.583255 kJ/mol
# Density = 2.087739 g / cm^3
# Si number density = 20.925014 Si / 1000 Ang^3
#
#
#
# Elastic Constant Matrix: (Units=GPa)
#
#
# Indices 1 2 3 4 5 6 
#
# 1 64.2472 5.1464 -2.2903 0.0000 0.0000 0.0000
# 2 5.1464 70.0723 17.7439 0.0000 0.0000 0.0000
# 3 -2.2903 17.7439 99.2828 0.0000 0.0000 0.0000
# 4 0.0000 0.0000 0.0000 13.1538 0.0000 0.0000
# 5 0.0000 0.0000 0.0000 0.0000 18.2134 0.0000
# 6 0.0000 0.0000 0.0000 0.0000 0.0000 27.1022
#
#
#
# Elastic Compliance Matrix: (Units=1/GPa)
#
#
# Indices 1 2 3 4 5 6 
#
# 1 0.015690 -0.001303 0.000595 0.000000 0.000000 0.000000
# 2 -0.001303 0.015056 -0.002721 0.000000 0.000000 0.000000
# 3 0.000595 -0.002721 0.010572 0.000000 0.000000 0.000000
# 4 0.000000 0.000000 0.000000 0.076024 0.000000 0.000000
# 5 0.000000 0.000000 0.000000 0.000000 0.054905 0.000000
# 6 0.000000 0.000000 0.000000 0.000000 0.000000 0.036897
#
#
# Mechanical properties :
#
#
# Convention : Reuss Voigt Hill
#
# Bulk Modulus (GPa) = 29.01885 30.53359 29.77622
# Shear Modulus (GPa) = 21.97912 25.89404 23.93658
#
# Velocity S-wave (km/s) = 3.24447 3.52158 3.38586
# Velocity P-wave (km/s) = 5.28522 5.58202 5.43565
#
# Compressibility (1/GPa) = 0.03446036
#
# Stress axis : x y z
#
# Youngs Moduli (GPa) = 63.73299 66.42028 94.58752
#
# Poissons Ratio (x) = 0.08654 -0.05626
# Poissons Ratio (y) = 0.08304 0.25735
# Poissons Ratio (z) = -0.03791 0.18072
#
# Static dielectric constant tensor:
#      x y z
#    x 1.839030 0.000000 0.000000 
#    y 0.000000 1.707790 0.000000 
#    z 0.000000 0.000000 1.963240 
# 
# From -- ./inp_files/8016.got.cif
#   From: 2010.05.17/outbox.cif.g08.bks.cpg/sg68_5_cif.got.tgz:8016.got - 2010.06.03 18:57:09.
