data_PCOD9506400
_publ_section_title
;
Structure prediction by ZEFSAII (Michael W. Deem and Ramdas Pophale) SiO2 
 PCOD9506400
Probable space group: C C C A
;
_chemical_formula_sum "Si O2"
_cell_formula_units_Z 52
_cell_length_a 13.919816
_cell_length_b 12.713481
_cell_length_c 13.674305
_cell_angle_alpha 90.000000
_cell_angle_beta 90.000000
_cell_angle_gamma 90.000000
_cell_volume 2419.932406
_symmetry_space_group_name_H-M "C C C A"
_symmetry_group_IT_number 68
_space_group.IT_coordinate_system_code '2'
_symmetry_cell_setting 'orthorhombic'
loop_
_space_group_symop_operation_xyz
x,y,z
-x,1/2-y,z
x,1/2-y,1/2-z
-x,y,1/2-z
-x,-y,-z
x,1/2+y,-z
-x,1/2+y,1/2+z
x,-y,1/2+z
1/2+x,1/2+y,z
1/2-x,-y,z
1/2+x,-y,1/2-z
1/2-x,1/2+y,1/2-z
1/2-x,1/2-y,-z
1/2+x,y,-z
1/2-x,y,1/2+z
1/2+x,1/2-y,1/2+z
loop_
_atom_site_type_symbol
_atom_site_label
_atom_site_fract_x
_atom_site_fract_y
_atom_site_fract_z
Si Si1 0.321961 0.129386 0.167602
Si Si2 0.000000 0.750000 0.250000
Si Si3 0.886433 0.994098 0.506261
Si Si4 0.247230 0.652166 0.114213
O O1 0.427606 0.179092 0.187693
O O2 0.263479 0.222307 0.112956
O O3 0.272315 0.118852 0.273007
O O4 0.344266 0.029747 0.101109
O O5 0.844940 0.898057 0.572801
O O6 0.838026 0.096311 0.553598
O O7 0.000000 0.000000 0.500000
#
# Coordination Sequence:
#
# PCOD9506400 Si02
#       4
#    16   4  16  16
#     4  10  19  39  60  82 125 165 207 258 304 381
#     4   8  16  32  60  84 104 162 212 248 316 368
#     4  11  21  35  61  92 118 151 205 263 311 363
#     4   9  22  38  58  87 118 166 208 244 314 372
#
# _framework density 21.488204
#
# number of rings (size 3 to 8) (size 9 to 14) (size 15 to 20)
#    0.000    2.462    0.000    4.615    0.000    4.923 
#    0.000    0.000    0.000    7.385    0.000    8.615 
#    0.000    0.000    0.000    0.000    0.000    0.000 
#
# Total GULP energy -145237.765274 kJ/mol
# GULP energy per Si atom -5586.067895 kJ/mol
# Density = 2.143930 g / cm^3
# Si number density = 21.488204 Si / 1000 Ang^3
#
#
#
# Elastic Constant Matrix: (Units=GPa)
#
#
# Indices 1 2 3 4 5 6 
#
# 1 189.3185 33.5942 48.9110 0.0000 0.0000 0.0000
# 2 33.5942 72.7529 30.3938 0.0000 0.0000 0.0000
# 3 48.9110 30.3938 129.6593 0.0000 0.0000 0.0000
# 4 0.0000 0.0000 0.0000 51.9973 0.0000 0.0000
# 5 0.0000 0.0000 0.0000 0.0000 29.6390 0.0000
# 6 0.0000 0.0000 0.0000 0.0000 0.0000 36.5285
#
#
#
# Elastic Compliance Matrix: (Units=1/GPa)
#
#
# Indices 1 2 3 4 5 6 
#
# 1 0.006120 -0.002063 -0.001825 0.000000 0.000000 0.000000
# 2 -0.002063 0.015933 -0.002957 0.000000 0.000000 0.000000
# 3 -0.001825 -0.002957 0.009094 0.000000 0.000000 0.000000
# 4 0.000000 0.000000 0.000000 0.019232 0.000000 0.000000
# 5 0.000000 0.000000 0.000000 0.000000 0.033739 0.000000
# 6 0.000000 0.000000 0.000000 0.000000 0.000000 0.027376
#
#
# Mechanical properties :
#
#
# Convention : Reuss Voigt Hill
#
# Bulk Modulus (GPa) = 57.28317 68.61429 62.94873
# Shear Modulus (GPa) = 38.16723 42.22174 40.19449
#
# Velocity S-wave (km/s) = 4.21906 4.43751 4.32966
# Velocity P-wave (km/s) = 7.10281 7.63254 7.37243
#
# Compressibility (1/GPa) = 0.01745713
#
# Stress axis : x y z
#
# Youngs Moduli (GPa) = 163.40647 62.76240 109.96332
#
# Poissons Ratio (x) = 0.12951 0.20066
# Poissons Ratio (y) = 0.33718 0.32511
# Poissons Ratio (z) = 0.29819 0.18556
#
# Static dielectric constant tensor:
#      x y z
#    x 1.755120 0.000000 0.000000 
#    y 0.000000 1.878800 0.000000 
#    z 0.000000 0.000000 1.850900 
# 
# From -- ./inp_files/13878.got.cif
#   From: 2010.05.17/outbox.cif.g08.bks.cpg/sg68_7_cif.got.tgz:13878.got - 2010.06.03 18:57:09.
