data_PCOD9506488
_publ_section_title
;
Structure prediction by ZEFSAII (Michael W. Deem and Ramdas Pophale) SiO2 
 PCOD9506488
Probable space group: C C C A
;
_chemical_formula_sum "Si O2"
_cell_formula_units_Z 128
_cell_length_a 24.358170
_cell_length_b 12.435353
_cell_length_c 23.016095
_cell_angle_alpha 90.000000
_cell_angle_beta 90.000000
_cell_angle_gamma 90.000000
_cell_volume 6971.631390
_symmetry_space_group_name_H-M "C C C A"
_symmetry_group_IT_number 68
_space_group.IT_coordinate_system_code '2'
_symmetry_cell_setting 'orthorhombic'
loop_
_space_group_symop_operation_xyz
x,y,z
-x,1/2-y,z
x,1/2-y,1/2-z
-x,y,1/2-z
-x,-y,-z
x,1/2+y,-z
-x,1/2+y,1/2+z
x,-y,1/2+z
1/2+x,1/2+y,z
1/2-x,-y,z
1/2+x,-y,1/2-z
1/2-x,1/2+y,1/2-z
1/2-x,1/2-y,-z
1/2+x,y,-z
1/2-x,y,1/2+z
1/2+x,1/2-y,1/2+z
loop_
_atom_site_type_symbol
_atom_site_label
_atom_site_fract_x
_atom_site_fract_y
_atom_site_fract_z
Si Si1 0.791966 0.591899 0.153875
Si Si2 0.223811 0.734946 0.936066
Si Si3 0.147638 0.917248 0.939648
Si Si4 0.439300 0.770128 0.497662
Si Si5 0.039849 0.940308 0.101898
Si Si6 0.397463 0.799025 0.689306
Si Si7 0.640628 0.957242 0.440416
Si Si8 0.414304 0.109954 0.403319
O O1 0.750000 0.500000 0.177758
O O2 0.761531 0.679649 0.112771
O O3 0.835719 0.653081 0.194356
O O4 0.830206 0.525060 0.110175
O O5 0.200193 0.851266 0.919635
O O6 0.172671 0.653876 0.942833
O O7 0.250000 0.750000 0.000000
O O8 0.128680 0.014030 0.899493
O O9 0.099198 0.831317 0.952513
O O10 0.154357 0.974761 0.002043
O O11 0.500000 0.750000 0.473754
O O12 0.448377 0.852721 0.551378
O O13 0.415516 0.666052 0.532308
O O14 0.063729 0.891263 0.161597
O O15 0.974387 0.942832 0.105155
O O16 0.076491 0.040192 0.078993
O O17 0.416282 0.750000 0.750000
O O18 0.400706 0.702810 0.642276
#
# Coordination Sequence:
#
# PCOD9506488 Si02
#       8
#    16  16  16  16  16  16  16  16
#     4   9  19  37  53  73 102 139 189 217 258 318
#     4  11  21  31  48  72 102 148 191 215 251 307
#     4  11  20  28  45  73 108 143 172 216 254 303
#     4   8  16  30  46  67 103 146 173 196 248 319
#     4   8  17  33  52  75 103 133 169 218 267 320
#     4  10  20  37  60  80 100 133 175 231 276 312
#     4   9  18  32  49  70 103 143 182 211 253 319
#     4  10  20  32  49  78 111 134 170 220 266 325
#
# _framework density 18.360120999999999
#
# number of rings (size 3 to 8) (size 9 to 14) (size 15 to 20)
#    0.000    2.500    1.250    2.625    1.750    6.500 
#    0.000    1.250    0.000    0.000    0.000    0.000 
#    0.000    6.000    0.000    0.000    0.000    0.000 
#
# Total GULP energy -356518.462097 kJ/mol
# GULP energy per Si atom -5570.600970 kJ/mol
# Density = 1.831833 g / cm^3
# Si number density = 18.360121 Si / 1000 Ang^3
#
#
#
# Elastic Constant Matrix: (Units=GPa)
#
#
# Indices 1 2 3 4 5 6 
#
# 1 25.2708 11.1935 -9.0059 0.0000 0.0000 0.0000
# 2 11.1935 69.4268 2.7783 0.0000 0.0000 0.0000
# 3 -9.0059 2.7783 33.3328 0.0000 0.0000 0.0000
# 4 0.0000 0.0000 0.0000 18.1130 0.0000 0.0000
# 5 0.0000 0.0000 0.0000 0.0000 12.3891 0.0000
# 6 0.0000 0.0000 0.0000 0.0000 0.0000 30.0725
#
#
#
# Elastic Compliance Matrix: (Units=1/GPa)
#
#
# Indices 1 2 3 4 5 6 
#
# 1 0.048133 -0.008308 0.013697 0.000000 0.000000 0.000000
# 2 -0.008308 0.015886 -0.003569 0.000000 0.000000 0.000000
# 3 0.013697 -0.003569 0.033999 0.000000 0.000000 0.000000
# 4 0.000000 0.000000 0.000000 0.055209 0.000000 0.000000
# 5 0.000000 0.000000 0.000000 0.000000 0.080716 0.000000
# 6 0.000000 0.000000 0.000000 0.000000 0.000000 0.033253
#
#
# Mechanical properties :
#
#
# Convention : Reuss Voigt Hill
#
# Bulk Modulus (GPa) = 9.83703 15.32915 12.58309
# Shear Modulus (GPa) = 16.81001 20.31921 18.56461
#
# Velocity S-wave (km/s) = 3.02912 3.33032 3.18329
# Velocity P-wave (km/s) = 4.19566 4.81200 4.51436
#
# Compressibility (1/GPa) = 0.10165672
#
# Stress axis : x y z
#
# Youngs Moduli (GPa) = 20.77587 62.94842 29.41302
#
# Poissons Ratio (x) = 0.52300 -0.40287
# Poissons Ratio (y) = 0.17262 0.10497
# Poissons Ratio (z) = -0.28457 0.22465
#
# Static dielectric constant tensor:
#      x y z
#    x 1.709740 0.000000 0.000000 
#    y 0.000000 1.684370 0.000000 
#    z 0.000000 0.000000 1.598340 
# 
# From -- ./inp_files/47359.got.cif
#   From: 2010.05.17/outbox.cif.g08.bks.cpg/sg68_24_cif.got.tgz:47359.got - 2010.06.03 18:57:09.
