data_PCOD9506711
_publ_section_title
;
Structure prediction by ZEFSAII (Michael W. Deem and Ramdas Pophale) SiO2 
 PCOD9506711
Probable space group: C C C A
;
_chemical_formula_sum "Si O2"
_cell_formula_units_Z 60
_cell_length_a 30.229686
_cell_length_b 19.244271
_cell_length_c 4.776045
_cell_angle_alpha 90.000000
_cell_angle_beta 90.000000
_cell_angle_gamma 90.000000
_cell_volume 2778.455914
_symmetry_space_group_name_H-M "C C C A"
_symmetry_group_IT_number 68
_space_group.IT_coordinate_system_code '2'
_symmetry_cell_setting 'orthorhombic'
loop_
_space_group_symop_operation_xyz
x,y,z
-x,1/2-y,z
x,1/2-y,1/2-z
-x,y,1/2-z
-x,-y,-z
x,1/2+y,-z
-x,1/2+y,1/2+z
x,-y,1/2+z
1/2+x,1/2+y,z
1/2-x,-y,z
1/2+x,-y,1/2-z
1/2-x,1/2+y,1/2-z
1/2-x,1/2-y,-z
1/2+x,y,-z
1/2-x,y,1/2+z
1/2+x,1/2-y,1/2+z
loop_
_atom_site_type_symbol
_atom_site_label
_atom_site_fract_x
_atom_site_fract_y
_atom_site_fract_z
Si Si1 0.780441 0.328050 0.293842
Si Si2 0.835060 0.954306 0.950074
Si Si3 0.500000 0.843746 0.750000
Si Si4 0.059217 0.545315 0.942877
Si Si5 0.500000 0.750000 0.250000
O O1 0.798248 0.250000 0.250000
O O2 0.764792 0.333895 0.612563
O O3 0.812130 0.387278 0.178359
O O4 0.888002 0.944664 0.948173
O O5 0.822980 0.978906 0.259531
O O6 0.464614 0.890103 0.915890
O O7 0.477951 0.799769 0.489836
O O8 0.047825 0.476992 0.128773
#
# Coordination Sequence:
#
# PCOD9506711 Si02
#       5
#    16  16   8  16   4
#     4  10  21  37  57  81 115 159 199 238 290 361
#     4  10  21  36  56  87 118 146 196 251 296 347
#     4  11  20  39  58  83 118 157 196 238 298 357
#     4  10  20  35  60  87 113 149 195 248 296 354
#     4  10  24  36  56  80 120 154 192 248 280 354
#
# _framework density 21.594725
#
# number of rings (size 3 to 8) (size 9 to 14) (size 15 to 20)
#    0.000    1.867    0.000    4.000    0.000    3.200 
#    2.400    0.000   11.733    0.000    0.000    0.000 
#    0.000    0.000    0.000    0.000    0.000    0.000 
#
# Total GULP energy -167323.100063 kJ/mol
# GULP energy per Si atom -5577.436669 kJ/mol
# Density = 2.154557 g / cm^3
# Si number density = 21.594725 Si / 1000 Ang^3
#
#
#
# Elastic Constant Matrix: (Units=GPa)
#
#
# Indices 1 2 3 4 5 6 
#
# 1 39.2739 53.6920 13.6707 0.0000 0.0000 0.0000
# 2 53.6920 128.0522 29.6376 0.0000 0.0000 0.0000
# 3 13.6707 29.6376 121.0006 0.0000 0.0000 0.0000
# 4 0.0000 0.0000 0.0000 45.3259 0.0000 0.0000
# 5 0.0000 0.0000 0.0000 0.0000 29.1886 0.0000
# 6 0.0000 0.0000 0.0000 0.0000 0.0000 -5.9975
#
#
#
# Elastic Compliance Matrix: (Units=1/GPa)
#
#
# Indices 1 2 3 4 5 6 
#
# 1 0.059710 -0.024886 -0.000651 0.000000 0.000000 0.000000
# 2 -0.024886 0.018650 -0.001757 0.000000 0.000000 0.000000
# 3 -0.000651 -0.001757 0.008768 0.000000 0.000000 0.000000
# 4 0.000000 0.000000 0.000000 0.022062 0.000000 0.000000
# 5 0.000000 0.000000 0.000000 0.000000 0.034260 0.000000
# 6 0.000000 0.000000 0.000000 0.000000 0.000000 -0.166736
#
#
# Mechanical properties :
#
#
# Convention : Reuss Voigt Hill
#
# Bulk Modulus (GPa) = 30.72864 53.59193 42.16028
# Shear Modulus (GPa) = 118.62725 26.45851 72.54288
#
# Velocity S-wave (km/s) = 7.41975 3.50413 5.80222
# Velocity P-wave (km/s) = 9.36291 6.42206 8.02830
#
# Compressibility (1/GPa) = 0.03254294
#
# Stress axis : x y z
#
# Youngs Moduli (GPa) = 16.74749 53.61807 114.04870
#
# Poissons Ratio (x) = 1.33433 0.07421
# Poissons Ratio (y) = 0.41678 0.20033
# Poissons Ratio (z) = 0.01090 0.09418
#
# Static dielectric constant tensor:
#      x y z
#    x 1.759300 0.000000 0.000000 
#    y 0.000000 1.849450 0.000000 
#    z 0.000000 0.000000 1.766760 
# 
# From -- ./inp_files/1072.got.cif
#   From: 2010.05.17/outbox.cif.g08.bks.cpg/sg68_1_cif.got.tgz:1072.got - 2010.06.03 18:57:09.
