data_PCOD9506699
_publ_section_title
;
Structure prediction by ZEFSAII (Michael W. Deem and Ramdas Pophale) SiO2 
 PCOD9506699
Probable space group: C C C A
;
_chemical_formula_sum "Si O2"
_cell_formula_units_Z 44
_cell_length_a 33.096950
_cell_length_b 4.674155
_cell_length_c 10.501679
_cell_angle_alpha 90.000000
_cell_angle_beta 90.000000
_cell_angle_gamma 90.000000
_cell_volume 1624.612622
_symmetry_space_group_name_H-M "C C C A"
_symmetry_group_IT_number 68
_space_group.IT_coordinate_system_code '2'
_symmetry_cell_setting 'orthorhombic'
loop_
_space_group_symop_operation_xyz
x,y,z
-x,1/2-y,z
x,1/2-y,1/2-z
-x,y,1/2-z
-x,-y,-z
x,1/2+y,-z
-x,1/2+y,1/2+z
x,-y,1/2+z
1/2+x,1/2+y,z
1/2-x,-y,z
1/2+x,-y,1/2-z
1/2-x,1/2+y,1/2-z
1/2-x,1/2-y,-z
1/2+x,y,-z
1/2-x,y,1/2+z
1/2+x,1/2-y,1/2+z
loop_
_atom_site_type_symbol
_atom_site_label
_atom_site_fract_x
_atom_site_fract_y
_atom_site_fract_z
Si Si1 0.054652 0.250000 0.250000
Si Si2 0.878608 0.555686 0.413868
Si Si3 0.707890 0.416103 0.908613
Si Si4 0.500000 0.250000 0.250000
O O1 0.083379 0.064627 0.340161
O O2 0.028204 0.506137 0.317071
O O3 0.879356 0.885585 0.451438
O O4 0.835339 0.488735 0.349900
O O5 0.750000 0.500000 0.843514
O O6 0.708090 0.594163 0.041924
#
# Coordination Sequence:
#
# PCOD9506699 Si02
#       4
#     8  16  16   4
#     4  11  22  42  60  81 114 145 186 242 290 345
#     4  10  20  35  59  86 112 149 189 225 277 337
#     4   8  14  26  47  76 109 142 175 214 260 312
#     4  10  24  42  60  80 112 146 180 242 308 342
#
# _framework density 27.083376999999999
#
# number of rings (size 3 to 8) (size 9 to 14) (size 15 to 20)
#    0.000    2.545    0.000    2.182    0.000    0.000 
#    0.000   18.182    0.000   24.000    0.000    0.000 
#    0.000    0.000    0.000    0.000    0.000    0.000 
#
# Total GULP energy -122781.663488 kJ/mol
# GULP energy per Si atom -5580.984704 kJ/mol
# Density = 2.702173 g / cm^3
# Si number density = 27.083377 Si / 1000 Ang^3
#
#
#
# Elastic Constant Matrix: (Units=GPa)
#
#
# Indices 1 2 3 4 5 6 
#
# 1 168.8969 52.6969 20.6963 0.0000 0.0000 0.0000
# 2 52.6969 137.9140 21.2030 0.0000 0.0000 0.0000
# 3 20.6963 21.2030 46.2888 0.0000 0.0000 0.0000
# 4 0.0000 0.0000 0.0000 43.0342 0.0000 0.0000
# 5 0.0000 0.0000 0.0000 0.0000 15.9701 0.0000
# 6 0.0000 0.0000 0.0000 0.0000 0.0000 63.9074
#
#
#
# Elastic Compliance Matrix: (Units=1/GPa)
#
#
# Indices 1 2 3 4 5 6 
#
# 1 0.006893 -0.002324 -0.002018 0.000000 0.000000 0.000000
# 2 -0.002324 0.008583 -0.002893 0.000000 0.000000 0.000000
# 3 -0.002018 -0.002893 0.023831 0.000000 0.000000 0.000000
# 4 0.000000 0.000000 0.000000 0.023237 0.000000 0.000000
# 5 0.000000 0.000000 0.000000 0.000000 0.062617 0.000000
# 6 0.000000 0.000000 0.000000 0.000000 0.000000 0.015648
#
#
# Mechanical properties :
#
#
# Convention : Reuss Voigt Hill
#
# Bulk Modulus (GPa) = 40.25913 60.25467 50.25690
# Shear Modulus (GPa) = 30.57043 41.81592 36.19318
#
# Velocity S-wave (km/s) = 3.36334 3.93360 3.65959
# Velocity P-wave (km/s) = 5.47539 6.55188 6.03767
#
# Compressibility (1/GPa) = 0.02483909
#
# Stress axis : x y z
#
# Youngs Moduli (GPa) = 145.07496 116.50265 41.96274
#
# Poissons Ratio (x) = 0.27071 0.08466
# Poissons Ratio (y) = 0.33710 0.12139
# Poissons Ratio (z) = 0.29270 0.33702
#
# Static dielectric constant tensor:
#      x y z
#    x 2.256600 0.000000 0.000000 
#    y 0.000000 1.968710 0.000000 
#    z 0.000000 0.000000 2.129230 
# 
# From -- ./inp_files/25693.got.cif
#   From: 2010.05.17/outbox.cif.g08.bks.cpg/sg68_13_cif.got.tgz:25693.got - 2010.06.03 18:57:09.
