data_PCOD9506646
_publ_section_title
;
Structure prediction by ZEFSAII (Michael W. Deem and Ramdas Pophale) SiO2 
 PCOD9506646
Probable space group: C C C A
;
_chemical_formula_sum "Si O2"
_cell_formula_units_Z 104
_cell_length_a 8.340702
_cell_length_b 20.033184
_cell_length_c 27.143766
_cell_angle_alpha 90.000000
_cell_angle_beta 90.000000
_cell_angle_gamma 90.000000
_cell_volume 4535.474061
_symmetry_space_group_name_H-M "C C C A"
_symmetry_group_IT_number 68
_space_group.IT_coordinate_system_code '2'
_symmetry_cell_setting 'orthorhombic'
loop_
_space_group_symop_operation_xyz
x,y,z
-x,1/2-y,z
x,1/2-y,1/2-z
-x,y,1/2-z
-x,-y,-z
x,1/2+y,-z
-x,1/2+y,1/2+z
x,-y,1/2+z
1/2+x,1/2+y,z
1/2-x,-y,z
1/2+x,-y,1/2-z
1/2-x,1/2+y,1/2-z
1/2-x,1/2-y,-z
1/2+x,y,-z
1/2-x,y,1/2+z
1/2+x,1/2-y,1/2+z
loop_
_atom_site_type_symbol
_atom_site_label
_atom_site_fract_x
_atom_site_fract_y
_atom_site_fract_z
Si Si1 0.280891 0.361437 0.088602
Si Si2 0.333832 0.854930 0.220407
Si Si3 0.727942 0.173838 0.480790
Si Si4 0.250000 0.000000 0.689888
Si Si5 0.500000 0.359601 0.250000
Si Si6 0.500000 0.750000 0.922289
Si Si7 0.584915 0.541010 0.840088
Si Si8 0.054183 0.673452 0.887770
O O1 0.353722 0.287763 0.103423
O O2 0.390728 0.418682 0.109767
O O3 0.110204 0.367323 0.115420
O O4 0.239894 0.366714 0.030709
O O5 0.500000 0.841548 0.250000
O O6 0.291390 0.934239 0.221709
O O7 0.355491 0.835991 0.163301
O O8 0.166940 0.822906 0.238253
O O9 0.750000 0.250000 0.500000
O O10 0.558375 0.186553 0.454517
O O11 0.847285 0.155337 0.436929
O O12 0.086941 0.004911 0.658528
O O13 0.450307 0.405448 0.203222
O O14 0.750000 0.500000 0.831109
O O15 0.000000 0.750000 0.894965
#
# Coordination Sequence:
#
# PCOD9506646 Si02
#       8
#    16  16  16   8   8   8  16  16
#     4  11  22  37  64  99 132 171 224 278 335 401
#     4  11  25  44  68 100 132 174 226 285 340 400
#     4  10  20  38  65  97 127 173 229 274 327 405
#     4  10  24  40  70  96 122 168 230 282 334 394
#     4  10  24  40  68  97 124 170 227 274 326 394
#     4  10  20  34  66  97 128 164 227 278 322 404
#     4  11  24  42  66  97 132 170 223 283 340 399
#     4  12  23  41  65  99 139 178 220 277 348 416
#
# _framework density 22.930349
#
# number of rings (size 3 to 8) (size 9 to 14) (size 15 to 20)
#    0.000    1.231    3.077    4.615   14.000    0.308 
#    0.000    0.000    1.692    8.769    0.000    0.000 
#    0.000    0.000    0.000    0.000    0.000    0.000 
#
# Total GULP energy -290024.464620 kJ/mol
# GULP energy per Si atom -5577.393550 kJ/mol
# Density = 2.287816 g / cm^3
# Si number density = 22.930349 Si / 1000 Ang^3
#
#
#
# Elastic Constant Matrix: (Units=GPa)
#
#
# Indices 1 2 3 4 5 6 
#
# 1 203.5219 27.9818 52.9949 0.0000 0.0000 0.0000
# 2 27.9818 46.4610 26.4336 0.0000 0.0000 0.0000
# 3 52.9949 26.4336 112.5757 0.0000 0.0000 0.0000
# 4 0.0000 0.0000 0.0000 24.3522 0.0000 0.0000
# 5 0.0000 0.0000 0.0000 0.0000 35.2669 0.0000
# 6 0.0000 0.0000 0.0000 0.0000 0.0000 8.8446
#
#
#
# Elastic Compliance Matrix: (Units=1/GPa)
#
#
# Indices 1 2 3 4 5 6 
#
# 1 0.005795 -0.002237 -0.002203 0.000000 0.000000 0.000000
# 2 -0.002237 0.025706 -0.004983 0.000000 0.000000 0.000000
# 3 -0.002203 -0.004983 0.011090 0.000000 0.000000 0.000000
# 4 0.000000 0.000000 0.000000 0.041064 0.000000 0.000000
# 5 0.000000 0.000000 0.000000 0.000000 0.028355 0.000000
# 6 0.000000 0.000000 0.000000 0.000000 0.000000 0.113063
#
#
# Mechanical properties :
#
#
# Convention : Reuss Voigt Hill
#
# Bulk Modulus (GPa) = 42.11333 64.15324 53.13329
# Shear Modulus (GPa) = 19.85453 30.70263 25.27858
#
# Velocity S-wave (km/s) = 2.94575 3.66314 3.32385
# Velocity P-wave (km/s) = 5.47499 6.77714 6.16057
#
# Compressibility (1/GPa) = 0.02374545
#
# Stress axis : x y z
#
# Youngs Moduli (GPa) = 172.57682 38.90216 90.17303
#
# Poissons Ratio (x) = 0.08701 0.19861
# Poissons Ratio (y) = 0.38600 0.44932
# Poissons Ratio (z) = 0.38011 0.19385
#
# Static dielectric constant tensor:
#      x y z
#    x 2.059800 0.000000 0.000000 
#    y 0.000000 1.913070 0.000000 
#    z 0.000000 0.000000 1.907230 
# 
# From -- ./inp_files/49483.got.cif
#   From: 2010.05.17/outbox.cif.g08.bks.cpg/sg68_25_cif.got.tgz:49483.got - 2010.06.03 18:57:09.
