data_PCOD9506823
_publ_section_title
;
Structure prediction by ZEFSAII (Michael W. Deem and Ramdas Pophale) SiO2 
 PCOD9506823
Probable space group: C C C A
;
_chemical_formula_sum "Si O2"
_cell_formula_units_Z 104
_cell_length_a 26.954758
_cell_length_b 7.947289
_cell_length_c 24.936352
_cell_angle_alpha 90.000000
_cell_angle_beta 90.000000
_cell_angle_gamma 90.000000
_cell_volume 5341.796794
_symmetry_space_group_name_H-M "C C C A"
_symmetry_group_IT_number 68
_space_group.IT_coordinate_system_code '2'
_symmetry_cell_setting 'orthorhombic'
loop_
_space_group_symop_operation_xyz
x,y,z
-x,1/2-y,z
x,1/2-y,1/2-z
-x,y,1/2-z
-x,-y,-z
x,1/2+y,-z
-x,1/2+y,1/2+z
x,-y,1/2+z
1/2+x,1/2+y,z
1/2-x,-y,z
1/2+x,-y,1/2-z
1/2-x,1/2+y,1/2-z
1/2-x,1/2-y,-z
1/2+x,y,-z
1/2-x,y,1/2+z
1/2+x,1/2-y,1/2+z
loop_
_atom_site_type_symbol
_atom_site_label
_atom_site_fract_x
_atom_site_fract_y
_atom_site_fract_z
Si Si1 0.851262 0.310386 0.871425
Si Si2 0.748319 0.298545 0.437512
Si Si3 0.445396 0.307168 0.060550
Si Si4 0.347823 0.221294 0.875209
Si Si5 0.054793 0.706276 0.563630
Si Si6 0.795228 0.092034 0.284763
Si Si7 0.163928 0.250000 0.750000
O O1 0.800862 0.253746 0.902643
O O2 0.898358 0.247174 0.905578
O O3 0.849753 0.516727 0.869278
O O4 0.857323 0.244196 0.810739
O O5 0.750000 0.500000 0.435456
O O6 0.750000 0.250000 0.500000
O O7 0.799411 0.237949 0.410781
O O8 0.500000 0.250000 0.079114
O O9 0.442959 0.506598 0.064026
O O10 0.440857 0.260815 0.998135
O O11 0.399057 0.274387 0.902773
O O12 0.337067 0.323394 0.821049
O O13 0.000000 0.750000 0.584016
O O14 0.775918 0.250000 0.250000
O O15 0.750000 0.000000 0.315647
O O16 0.812686 0.938405 0.247964
#
# Coordination Sequence:
#
# PCOD9506823 Si02
#       7
#    16  16  16  16  16  16   8
#     4  10  22  39  59  87 122 166 208 260 318 377
#     4  10  21  36  56  83 122 157 198 249 313 382
#     4  10  20  36  60  89 124 161 211 263 311 384
#     4  10  22  40  59  87 125 161 206 259 316 380
#     4  10  20  36  62  90 122 163 206 261 321 379
#     4  12  24  39  63  89 126 162 216 258 305 373
#     4  12  24  38  63  90 118 170 215 258 310 372
#
# _framework density 19.469103
#
# number of rings (size 3 to 8) (size 9 to 14) (size 15 to 20)
#    0.000    1.538    2.308    3.692    0.000    4.308 
#    0.000    0.385    0.000    0.462    0.000    0.000 
#    0.000    0.000    0.000    0.000    0.000    0.000 
#
# Total GULP energy -289729.941312 kJ/mol
# GULP energy per Si atom -5571.729641 kJ/mol
# Density = 1.942479 g / cm^3
# Si number density = 19.469103 Si / 1000 Ang^3
#
#
#
# Elastic Constant Matrix: (Units=GPa)
#
#
# Indices 1 2 3 4 5 6 
#
# 1 173.6323 34.5001 78.9186 0.0000 0.0000 0.0000
# 2 34.5001 70.1339 18.4580 0.0000 0.0000 0.0000
# 3 78.9186 18.4580 90.7624 0.0000 0.0000 0.0000
# 4 0.0000 0.0000 0.0000 32.4536 0.0000 0.0000
# 5 0.0000 0.0000 0.0000 0.0000 21.5140 0.0000
# 6 0.0000 0.0000 0.0000 0.0000 0.0000 22.7771
#
#
#
# Elastic Compliance Matrix: (Units=1/GPa)
#
#
# Indices 1 2 3 4 5 6 
#
# 1 0.010012 -0.002783 -0.008139 0.000000 0.000000 0.000000
# 2 -0.002783 0.015838 -0.000801 0.000000 0.000000 0.000000
# 3 -0.008139 -0.000801 0.018258 0.000000 0.000000 0.000000
# 4 0.000000 0.000000 0.000000 0.030813 0.000000 0.000000
# 5 0.000000 0.000000 0.000000 0.000000 0.046481 0.000000
# 6 0.000000 0.000000 0.000000 0.000000 0.000000 0.043904
#
#
# Mechanical properties :
#
#
# Convention : Reuss Voigt Hill
#
# Bulk Modulus (GPa) = 48.40023 66.47578 57.43800
# Shear Modulus (GPa) = 25.55714 28.85906 27.20810
#
# Velocity S-wave (km/s) = 3.62705 3.85424 3.74237
# Velocity P-wave (km/s) = 6.51573 7.35019 6.94550
#
# Compressibility (1/GPa) = 0.02066106
#
# Stress axis : x y z
#
# Youngs Moduli (GPa) = 99.88340 63.13831 54.77071
#
# Poissons Ratio (x) = 0.17570 0.44580
# Poissons Ratio (y) = 0.27796 0.04389
# Poissons Ratio (z) = 0.81298 0.05059
#
# Static dielectric constant tensor:
#      x y z
#    x 1.737300 0.000000 0.000000 
#    y 0.000000 1.735320 0.000000 
#    z 0.000000 0.000000 1.719660 
# 
# From -- ./inp_files/47246.got.cif
#   From: 2010.05.17/outbox.cif.g08.bks.cpg/sg68_24_cif.got.tgz:47246.got - 2010.06.03 18:57:09.
