data_PCOD9506286
_publ_section_title
;
Structure prediction by ZEFSAII (Michael W. Deem and Ramdas Pophale) SiO2 
 PCOD9506286
Probable space group: C C C A
;
_chemical_formula_sum "Si O2"
_cell_formula_units_Z 116
_cell_length_a 13.968579
_cell_length_b 18.850253
_cell_length_c 23.685147
_cell_angle_alpha 90.000000
_cell_angle_beta 90.000000
_cell_angle_gamma 90.000000
_cell_volume 6236.565620
_symmetry_space_group_name_H-M "C C C A"
_symmetry_group_IT_number 68
_space_group.IT_coordinate_system_code '2'
_symmetry_cell_setting 'orthorhombic'
loop_
_space_group_symop_operation_xyz
x,y,z
-x,1/2-y,z
x,1/2-y,1/2-z
-x,y,1/2-z
-x,-y,-z
x,1/2+y,-z
-x,1/2+y,1/2+z
x,-y,1/2+z
1/2+x,1/2+y,z
1/2-x,-y,z
1/2+x,-y,1/2-z
1/2-x,1/2+y,1/2-z
1/2-x,1/2-y,-z
1/2+x,y,-z
1/2-x,y,1/2+z
1/2+x,1/2-y,1/2+z
loop_
_atom_site_type_symbol
_atom_site_label
_atom_site_fract_x
_atom_site_fract_y
_atom_site_fract_z
Si Si1 0.836430 0.555469 0.598124
Si Si2 0.837226 0.301520 0.168402
Si Si3 0.736961 0.881443 0.744758
Si Si4 0.893436 0.500453 0.764753
Si Si5 0.500000 0.250000 0.750000
Si Si6 0.555749 0.022991 0.610576
Si Si7 0.822247 0.934397 0.035340
Si Si8 0.698927 0.151240 0.617606
O O1 0.750000 0.500000 0.610291
O O2 0.829829 0.629308 0.630431
O O3 0.832696 0.572814 0.531320
O O4 0.941577 0.526486 0.614139
O O5 0.754289 0.315224 0.214862
O O6 0.931572 0.294349 0.208115
O O7 0.830262 0.232443 0.128861
O O8 0.640360 0.924173 0.756759
O O9 0.753634 0.866737 0.678577
O O10 0.821094 0.939418 0.755987
O O11 0.893000 0.496495 0.832442
O O12 0.000000 0.520613 0.750000
O O13 0.606115 0.100958 0.604720
O O14 0.581943 0.966069 0.562665
O O15 0.775500 0.868581 0.068945
O O16 0.750000 0.000000 0.046057
#
# Coordination Sequence:
#
# PCOD9506286 Si02
#       8
#    16  16  16  16   4  16  16  16
#     4  11  25  38  55  89 121 153 191 242 298 344
#     4  12  24  36  57  87 127 149 187 241 301 353
#     4  10  20  35  54  87 117 150 195 237 294 357
#     4  10  20  31  56  87 115 152 192 241 295 350
#     4  12  24  40  60  92 118 156 192 250 302 348
#     4  10  19  36  63  85 112 148 197 243 286 343
#     4   9  19  39  64  85 112 150 199 244 287 349
#     4  10  19  39  62  87 112 151 196 240 295 352
#
# _framework density 18.599981
#
# number of rings (size 3 to 8) (size 9 to 14) (size 15 to 20)
#    0.000    1.655    2.759    2.069    6.759    0.552 
#    0.000    0.000    0.000    5.793    0.000    0.000 
#    0.000    0.000    0.000    0.000    0.000    0.000 
#
# Total GULP energy -323269.145060 kJ/mol
# GULP energy per Si atom -5573.605949 kJ/mol
# Density = 1.855765 g / cm^3
# Si number density = 18.599981 Si / 1000 Ang^3
#
#
#
# Elastic Constant Matrix: (Units=GPa)
#
#
# Indices 1 2 3 4 5 6 
#
# 1 62.0083 49.4606 14.1787 0.0000 0.0000 0.0000
# 2 49.4606 118.6041 57.0712 0.0000 0.0000 0.0000
# 3 14.1787 57.0712 87.1479 0.0000 0.0000 0.0000
# 4 0.0000 0.0000 0.0000 27.5385 0.0000 0.0000
# 5 0.0000 0.0000 0.0000 0.0000 21.7613 0.0000
# 6 0.0000 0.0000 0.0000 0.0000 0.0000 23.3413
#
#
#
# Elastic Compliance Matrix: (Units=1/GPa)
#
#
# Indices 1 2 3 4 5 6 
#
# 1 0.025106 -0.012417 0.004047 0.000000 0.000000 0.000000
# 2 -0.012417 0.018452 -0.010064 0.000000 0.000000 0.000000
# 3 0.004047 -0.010064 0.017407 0.000000 0.000000 0.000000
# 4 0.000000 0.000000 0.000000 0.036313 0.000000 0.000000
# 5 0.000000 0.000000 0.000000 0.000000 0.045953 0.000000
# 6 0.000000 0.000000 0.000000 0.000000 0.000000 0.042843
#
#
# Mechanical properties :
#
#
# Convention : Reuss Voigt Hill
#
# Bulk Modulus (GPa) = 41.49832 56.57569 49.03701
# Shear Modulus (GPa) = 21.64751 24.33154 22.98952
#
# Velocity S-wave (km/s) = 3.41522 3.62076 3.51949
# Velocity P-wave (km/s) = 6.15719 6.92553 6.55263
#
# Compressibility (1/GPa) = 0.02409736
#
# Stress axis : x y z
#
# Youngs Moduli (GPa) = 39.83115 54.19407 57.44885
#
# Poissons Ratio (x) = 0.67294 -0.23250
# Poissons Ratio (y) = 0.49459 0.57815
# Poissons Ratio (z) = -0.16120 0.54539
#
# Static dielectric constant tensor:
#      x y z
#    x 1.660320 0.000000 0.000000 
#    y 0.000000 1.678480 0.000000 
#    z 0.000000 0.000000 1.701680 
# 
# From -- ./inp_files/45672.got.cif
#   From: 2010.05.17/outbox.cif.g08.bks.cpg/sg68_23_cif.got.tgz:45672.got - 2010.06.03 18:57:09.
