data_PCOD9506648
_publ_section_title
;
Structure prediction by ZEFSAII (Michael W. Deem and Ramdas Pophale) SiO2 
 PCOD9506648
Probable space group: C C C A
;
_chemical_formula_sum "Si O2"
_cell_formula_units_Z 64
_cell_length_a 10.803479
_cell_length_b 15.345514
_cell_length_c 18.234527
_cell_angle_alpha 90.000000
_cell_angle_beta 90.000000
_cell_angle_gamma 90.000000
_cell_volume 3023.009933
_symmetry_space_group_name_H-M "C C C A"
_symmetry_group_IT_number 68
_space_group.IT_coordinate_system_code '2'
_symmetry_cell_setting 'orthorhombic'
loop_
_space_group_symop_operation_xyz
x,y,z
-x,1/2-y,z
x,1/2-y,1/2-z
-x,y,1/2-z
-x,-y,-z
x,1/2+y,-z
-x,1/2+y,1/2+z
x,-y,1/2+z
1/2+x,1/2+y,z
1/2-x,-y,z
1/2+x,-y,1/2-z
1/2-x,1/2+y,1/2-z
1/2-x,1/2-y,-z
1/2+x,y,-z
1/2-x,y,1/2+z
1/2+x,1/2-y,1/2+z
loop_
_atom_site_type_symbol
_atom_site_label
_atom_site_fract_x
_atom_site_fract_y
_atom_site_fract_z
Si Si1 0.126413 0.808089 0.154729
Si Si2 0.386813 0.977811 0.554387
Si Si3 0.217644 0.862773 0.317995
Si Si4 0.951331 0.479394 0.329095
O O1 0.117816 0.881571 0.092220
O O2 0.170573 0.847438 0.233608
O O3 0.219712 0.728799 0.140354
O O4 0.000000 0.750000 0.162710
O O5 0.500000 0.000000 0.500000
O O6 0.250000 0.000000 0.526075
O O7 0.428403 0.038252 0.622542
O O8 0.352522 0.903746 0.321880
O O9 0.124911 0.934178 0.353042
O O10 0.000000 0.501052 0.250000
#
# Coordination Sequence:
#
# PCOD9506648 Si02
#       4
#    16  16  16  16
#     4  11  20  41  69 107 139 179 230 294 354 420
#     4  12  28  47  68  99 144 194 242 288 357 433
#     4  10  20  34  72 108 133 169 228 291 355 411
#     4  11  20  39  69 102 139 178 227 291 355 417
#
# _framework density 21.170952
#
# number of rings (size 3 to 8) (size 9 to 14) (size 15 to 20)
#    0.000    1.000    5.000    3.000    3.500    0.000 
#    0.000   13.750    0.000    0.000    0.000    0.000 
#    0.000    0.000    0.000    0.000    0.000    0.000 
#
# Total GULP energy -178250.398497 kJ/mol
# GULP energy per Si atom -5570.324953 kJ/mol
# Density = 2.112277 g / cm^3
# Si number density = 21.170952 Si / 1000 Ang^3
#
#
#
# Elastic Constant Matrix: (Units=GPa)
#
#
# Indices 1 2 3 4 5 6 
#
# 1 131.6228 65.2609 28.8459 0.0000 0.0000 0.0000
# 2 65.2609 151.0101 27.3618 0.0000 0.0000 0.0000
# 3 28.8459 27.3618 71.6987 0.0000 0.0000 0.0000
# 4 0.0000 0.0000 0.0000 15.8136 0.0000 0.0000
# 5 0.0000 0.0000 0.0000 0.0000 28.2376 0.0000
# 6 0.0000 0.0000 0.0000 0.0000 0.0000 44.4691
#
#
#
# Elastic Compliance Matrix: (Units=1/GPa)
#
#
# Indices 1 2 3 4 5 6 
#
# 1 0.010093 -0.003895 -0.002574 0.000000 0.000000 0.000000
# 2 -0.003895 0.008617 -0.001721 0.000000 0.000000 0.000000
# 3 -0.002574 -0.001721 0.015640 0.000000 0.000000 0.000000
# 4 0.000000 0.000000 0.000000 0.063237 0.000000 0.000000
# 5 0.000000 0.000000 0.000000 0.000000 0.035414 0.000000
# 6 0.000000 0.000000 0.000000 0.000000 0.000000 0.022488
#
#
# Mechanical properties :
#
#
# Convention : Reuss Voigt Hill
#
# Bulk Modulus (GPa) = 55.65303 66.36321 61.00812
# Shear Modulus (GPa) = 28.11208 33.22826 30.67017
#
# Velocity S-wave (km/s) = 3.64794 3.96602 3.81030
# Velocity P-wave (km/s) = 6.63986 7.23787 6.94531
#
# Compressibility (1/GPa) = 0.01796847
#
# Stress axis : x y z
#
# Youngs Moduli (GPa) = 99.07855 116.04389 63.93957
#
# Poissons Ratio (x) = 0.45204 0.16458
# Poissons Ratio (y) = 0.38595 0.11007
# Poissons Ratio (z) = 0.25503 0.19976
#
# Static dielectric constant tensor:
#      x y z
#    x 1.863290 0.000000 0.000000 
#    y 0.000000 1.897980 0.000000 
#    z 0.000000 0.000000 1.707830 
# 
# From -- ./inp_files/29159.got.cif
#   From: 2010.05.17/outbox.cif.g08.bks.cpg/sg68_15_cif.got.tgz:29159.got - 2010.06.03 18:57:09.
