data_PCOD9506200
_publ_section_title
;
Structure prediction by ZEFSAII (Michael W. Deem and Ramdas Pophale) SiO2 
 PCOD9506200
Probable space group: C C C A
;
_chemical_formula_sum "Si O2"
_cell_formula_units_Z 80
_cell_length_a 17.324208
_cell_length_b 15.182636
_cell_length_c 18.332932
_cell_angle_alpha 90.000000
_cell_angle_beta 90.000000
_cell_angle_gamma 90.000000
_cell_volume 4822.058746
_symmetry_space_group_name_H-M "C C C A"
_symmetry_group_IT_number 68
_space_group.IT_coordinate_system_code '2'
_symmetry_cell_setting 'orthorhombic'
loop_
_space_group_symop_operation_xyz
x,y,z
-x,1/2-y,z
x,1/2-y,1/2-z
-x,y,1/2-z
-x,-y,-z
x,1/2+y,-z
-x,1/2+y,1/2+z
x,-y,1/2+z
1/2+x,1/2+y,z
1/2-x,-y,z
1/2+x,-y,1/2-z
1/2-x,1/2+y,1/2-z
1/2-x,1/2-y,-z
1/2+x,y,-z
1/2-x,y,1/2+z
1/2+x,1/2-y,1/2+z
loop_
_atom_site_type_symbol
_atom_site_label
_atom_site_fract_x
_atom_site_fract_y
_atom_site_fract_z
Si Si1 0.909395 0.229388 0.436030
Si Si2 0.235537 0.249768 0.163563
Si Si3 0.179903 0.140229 0.543394
Si Si4 0.914113 0.031200 0.485325
Si Si5 0.707590 0.085276 0.089687
O O1 0.850099 0.256409 0.371976
O O2 0.874032 0.283593 0.506043
O O3 0.907354 0.123780 0.444106
O O4 0.000000 0.250000 0.426354
O O5 0.230084 0.250000 0.250000
O O6 0.278913 0.173196 0.117017
O O7 0.286279 0.334900 0.143651
O O8 0.245614 0.117545 0.482989
O O9 0.132094 0.049979 0.550603
O O10 0.874681 0.053109 0.562804
O O11 0.000000 0.000000 0.500000
O O12 0.750000 0.000000 0.120073
#
# Coordination Sequence:
#
# PCOD9506200 Si02
#       5
#    16  16  16  16  16
#     4  11  20  36  59  84 116 148 194 243 283 331
#     4  11  22  38  57  81 118 157 187 227 286 350
#     4  10  19  35  60  83 108 148 192 243 277 326
#     4  11  19  31  61  90 108 139 189 247 290 320
#     4   9  18  35  56  83 109 138 194 241 273 327
#
# _framework density 16.590423999999999
#
# number of rings (size 3 to 8) (size 9 to 14) (size 15 to 20)
#    0.000    1.600    6.000    1.200    0.000    0.400 
#    3.600    0.000    0.000    5.400    0.000    0.000 
#    0.000    0.000    0.000    0.000    0.000    0.000 
#
# Total GULP energy -222765.940328 kJ/mol
# GULP energy per Si atom -5569.148508 kJ/mol
# Density = 1.655266 g / cm^3
# Si number density = 16.590424 Si / 1000 Ang^3
#
#
#
# Elastic Constant Matrix: (Units=GPa)
#
#
# Indices 1 2 3 4 5 6 
#
# 1 126.8673 32.8613 32.7203 0.0000 0.0000 0.0000
# 2 32.8613 105.0188 27.1147 0.0000 0.0000 0.0000
# 3 32.7203 27.1147 79.3651 0.0000 0.0000 0.0000
# 4 0.0000 0.0000 0.0000 7.1210 0.0000 0.0000
# 5 0.0000 0.0000 0.0000 0.0000 12.8486 0.0000
# 6 0.0000 0.0000 0.0000 0.0000 0.0000 27.6344
#
#
#
# Elastic Compliance Matrix: (Units=1/GPa)
#
#
# Indices 1 2 3 4 5 6 
#
# 1 0.009219 -0.002088 -0.003088 0.000000 0.000000 0.000000
# 2 -0.002088 0.010916 -0.002869 0.000000 0.000000 0.000000
# 3 -0.003088 -0.002869 0.014853 0.000000 0.000000 0.000000
# 4 0.000000 0.000000 0.000000 0.140430 0.000000 0.000000
# 5 0.000000 0.000000 0.000000 0.000000 0.077829 0.000000
# 6 0.000000 0.000000 0.000000 0.000000 0.000000 0.036187
#
#
# Mechanical properties :
#
#
# Convention : Reuss Voigt Hill
#
# Bulk Modulus (GPa) = 52.90906 55.18266 54.04586
# Shear Modulus (GPa) = 16.03476 24.09113 20.06294
#
# Velocity S-wave (km/s) = 3.11224 3.81479 3.48128
# Velocity P-wave (km/s) = 6.69890 7.26206 6.98616
#
# Compressibility (1/GPa) = 0.01890035
#
# Stress axis : x y z
#
# Youngs Moduli (GPa) = 108.46780 91.60857 67.32622
#
# Poissons Ratio (x) = 0.19124 0.20788
# Poissons Ratio (y) = 0.22644 0.19314
# Poissons Ratio (z) = 0.33491 0.26280
#
# Static dielectric constant tensor:
#      x y z
#    x 1.578760 0.000000 0.000000 
#    y 0.000000 1.608640 0.000000 
#    z 0.000000 0.000000 1.538180 
# 
# From -- ./inp_files/30801.got.cif
#   From: 2010.05.17/outbox.cif.g08.bks.cpg/sg68_16_cif.got.tgz:30801.got - 2010.06.03 18:57:09.
