data_PCOD9506331
_publ_section_title
;
Structure prediction by ZEFSAII (Michael W. Deem and Ramdas Pophale) SiO2 
 PCOD9506331
Probable space group: C C C A
;
_chemical_formula_sum "Si O2"
_cell_formula_units_Z 80
_cell_length_a 22.073770
_cell_length_b 10.052694
_cell_length_c 17.676778
_cell_angle_alpha 90.000000
_cell_angle_beta 90.000000
_cell_angle_gamma 90.000000
_cell_volume 3922.492156
_symmetry_space_group_name_H-M "C C C A"
_symmetry_group_IT_number 68
_space_group.IT_coordinate_system_code '2'
_symmetry_cell_setting 'orthorhombic'
loop_
_space_group_symop_operation_xyz
x,y,z
-x,1/2-y,z
x,1/2-y,1/2-z
-x,y,1/2-z
-x,-y,-z
x,1/2+y,-z
-x,1/2+y,1/2+z
x,-y,1/2+z
1/2+x,1/2+y,z
1/2-x,-y,z
1/2+x,-y,1/2-z
1/2-x,1/2+y,1/2-z
1/2-x,1/2-y,-z
1/2+x,y,-z
1/2-x,y,1/2+z
1/2+x,1/2-y,1/2+z
loop_
_atom_site_type_symbol
_atom_site_label
_atom_site_fract_x
_atom_site_fract_y
_atom_site_fract_z
Si Si1 0.427418 0.972965 0.671939
Si Si2 0.192251 0.069622 0.574519
Si Si3 0.063938 0.446450 0.653809
Si Si4 0.067730 0.253012 0.104167
Si Si5 0.153919 0.338608 0.530573
O O1 0.492170 0.923496 0.639883
O O2 0.423653 0.923819 0.757745
O O3 0.430963 0.134093 0.665475
O O4 0.369054 0.936293 0.623356
O O5 0.200326 0.224510 0.556203
O O6 0.250000 0.000000 0.613274
O O7 0.181134 0.976205 0.500986
O O8 0.076405 0.602238 0.638412
O O9 0.107166 0.367503 0.597968
O O10 0.000000 0.250000 0.069962
O O11 0.116125 0.221242 0.039745
#
# Coordination Sequence:
#
# PCOD9506331 Si02
#       5
#    16  16  16  16  16
#     4   9  21  36  62  89 126 161 194 258 309 378
#     4  11  24  42  60  85 122 165 207 249 300 363
#     4  10  19  37  61  96 122 154 203 252 327 362
#     4   9  18  32  59  92 124 156 196 246 309 374
#     4  11  22  37  65  88 120 156 204 258 301 359
#
# _framework density 20.395198000000001
#
# number of rings (size 3 to 8) (size 9 to 14) (size 15 to 20)
#    0.000    2.000    2.000    1.200    2.800    5.600 
#    0.000    3.000    8.800    0.000    0.000    0.000 
#    0.000    0.000    0.000    0.000    0.000    0.000 
#
# Total GULP energy -223349.467194 kJ/mol
# GULP energy per Si atom -5583.736680 kJ/mol
# Density = 2.034878 g / cm^3
# Si number density = 20.395198 Si / 1000 Ang^3
#
#
#
# Elastic Constant Matrix: (Units=GPa)
#
#
# Indices 1 2 3 4 5 6 
#
# 1 93.3739 33.1655 39.3448 0.0000 0.0000 0.0000
# 2 33.1655 97.8383 24.0429 0.0000 0.0000 0.0000
# 3 39.3448 24.0429 65.2254 0.0000 0.0000 0.0000
# 4 0.0000 0.0000 0.0000 -2.8318 0.0000 0.0000
# 5 0.0000 0.0000 0.0000 0.0000 21.9385 0.0000
# 6 0.0000 0.0000 0.0000 0.0000 0.0000 24.0725
#
#
#
# Elastic Compliance Matrix: (Units=1/GPa)
#
#
# Indices 1 2 3 4 5 6 
#
# 1 0.015215 -0.003191 -0.008001 0.000000 0.000000 0.000000
# 2 -0.003191 0.011908 -0.002465 0.000000 0.000000 0.000000
# 3 -0.008001 -0.002465 0.021066 0.000000 0.000000 0.000000
# 4 0.000000 0.000000 0.000000 -0.353136 0.000000 0.000000
# 5 0.000000 0.000000 0.000000 0.000000 0.045582 0.000000
# 6 0.000000 0.000000 0.000000 0.000000 0.000000 0.041541
#
#
# Mechanical properties :
#
#
# Convention : Reuss Voigt Hill
#
# Bulk Modulus (GPa) = 47.90389 49.94934 48.92661
# Shear Modulus (GPa) = -27.24036 19.29480 -3.97278
#
# Velocity S-wave (km/s) = -3.65859 3.07912 -1.39719
# Velocity P-wave (km/s) = 2.38575 6.09797 4.63017
#
# Compressibility (1/GPa) = 0.02087513
#
# Stress axis : x y z
#
# Youngs Moduli (GPa) = 65.72620 83.97451 47.46886
#
# Poissons Ratio (x) = 0.26798 0.37981
# Poissons Ratio (y) = 0.20975 0.11699
# Poissons Ratio (z) = 0.52590 0.20696
#
# Static dielectric constant tensor:
#      x y z
#    x 1.745940 0.000000 0.000000 
#    y 0.000000 1.759430 0.000000 
#    z 0.000000 0.000000 1.686710 
# 
# From -- ./inp_files/25143.got.cif
#   From: 2010.05.17/outbox.cif.g08.bks.cpg/sg68_13_cif.got.tgz:25143.got - 2010.06.03 18:57:09.
