data_PCOD9506990
_publ_section_title
;
Structure prediction by ZEFSAII (Michael W. Deem and Ramdas Pophale) SiO2 
 PCOD9506990
Probable space group: C C C A
;
_chemical_formula_sum "Si O2"
_cell_formula_units_Z 56
_cell_length_a 14.629522
_cell_length_b 15.598776
_cell_length_c 11.484156
_cell_angle_alpha 90.000000
_cell_angle_beta 90.000000
_cell_angle_gamma 90.000000
_cell_volume 2620.714679
_symmetry_space_group_name_H-M "C C C A"
_symmetry_group_IT_number 68
_space_group.IT_coordinate_system_code '2'
_symmetry_cell_setting 'orthorhombic'
loop_
_space_group_symop_operation_xyz
x,y,z
-x,1/2-y,z
x,1/2-y,1/2-z
-x,y,1/2-z
-x,-y,-z
x,1/2+y,-z
-x,1/2+y,1/2+z
x,-y,1/2+z
1/2+x,1/2+y,z
1/2-x,-y,z
1/2+x,-y,1/2-z
1/2-x,1/2+y,1/2-z
1/2-x,1/2-y,-z
1/2+x,y,-z
1/2-x,y,1/2+z
1/2+x,1/2-y,1/2+z
loop_
_atom_site_type_symbol
_atom_site_label
_atom_site_fract_x
_atom_site_fract_y
_atom_site_fract_z
Si Si1 0.627966 0.903937 0.199333
Si Si2 0.224796 0.348664 0.525511
Si Si3 0.038188 0.843903 0.573165
Si Si4 0.750000 0.000000 0.847280
O O1 0.720075 0.870702 0.141048
O O2 0.592762 0.843682 0.303849
O O3 0.547698 0.905303 0.103187
O O4 0.660174 0.988240 0.267519
O O5 0.250000 0.250000 0.500000
O O6 0.115480 0.363577 0.521889
O O7 0.259211 0.416619 0.428556
O O8 0.000000 0.750000 0.549440
#
# Coordination Sequence:
#
# PCOD9506990 Si02
#       4
#    16  16  16   8
#     4  10  20  39  62  91 132 168 222 272 330 407
#     4  11  22  38  67  98 131 173 233 284 327 410
#     4  10  20  37  67  97 120 178 227 267 341 400
#     4  10  24  38  58  98 132 178 220 276 348 396
#
# _framework density 21.368217000000001
#
# number of rings (size 3 to 8) (size 9 to 14) (size 15 to 20)
#    0.000    1.714    2.857    2.571    4.000    0.000 
#    0.000   25.714    0.000    5.143    0.000    0.000 
#    0.000    0.000    0.000    0.000    0.000    0.000 
#
# Total GULP energy -156026.798020 kJ/mol
# GULP energy per Si atom -5572.385644 kJ/mol
# Density = 2.131958 g / cm^3
# Si number density = 21.368217 Si / 1000 Ang^3
#
#
#
# Elastic Constant Matrix: (Units=GPa)
#
#
# Indices 1 2 3 4 5 6 
#
# 1 129.4324 30.4900 44.3107 0.0000 0.0000 0.0000
# 2 30.4900 109.0792 20.0813 0.0000 0.0000 0.0000
# 3 44.3107 20.0813 41.2420 0.0000 0.0000 0.0000
# 4 0.0000 0.0000 0.0000 15.4878 0.0000 0.0000
# 5 0.0000 0.0000 0.0000 0.0000 53.3010 0.0000
# 6 0.0000 0.0000 0.0000 0.0000 0.0000 38.8160
#
#
#
# Elastic Compliance Matrix: (Units=1/GPa)
#
#
# Indices 1 2 3 4 5 6 
#
# 1 0.012342 -0.001108 -0.012721 0.000000 0.000000 0.000000
# 2 -0.001108 0.010170 -0.003761 0.000000 0.000000 0.000000
# 3 -0.012721 -0.003761 0.039746 0.000000 0.000000 0.000000
# 4 0.000000 0.000000 0.000000 0.064567 0.000000 0.000000
# 5 0.000000 0.000000 0.000000 0.000000 0.018761 0.000000
# 6 0.000000 0.000000 0.000000 0.000000 0.000000 0.025763
#
#
# Mechanical properties :
#
#
# Convention : Reuss Voigt Hill
#
# Bulk Modulus (GPa) = 36.93128 52.16863 44.54996
# Shear Modulus (GPa) = 23.19597 33.84573 28.52085
#
# Velocity S-wave (km/s) = 3.29832 3.98418 3.65736
# Velocity P-wave (km/s) = 5.64146 6.75515 6.22327
#
# Compressibility (1/GPa) = 0.02707732
#
# Stress axis : x y z
#
# Youngs Moduli (GPa) = 81.02447 98.33017 25.15987
#
# Poissons Ratio (x) = 0.10895 0.32005
# Poissons Ratio (y) = 0.08977 0.09464
# Poissons Ratio (z) = 1.03069 0.36986
#
# Static dielectric constant tensor:
#      x y z
#    x 1.842800 0.000000 0.000000 
#    y 0.000000 1.797800 0.000000 
#    z 0.000000 0.000000 1.838400 
# 
# From -- ./inp_files/12507.got.cif
#   From: 2010.05.17/outbox.cif.g08.bks.cpg/sg68_7_cif.got.tgz:12507.got - 2010.06.03 18:57:09.
