data_PCOD9506261
_publ_section_title
;
Structure prediction by ZEFSAII (Michael W. Deem and Ramdas Pophale) SiO2 
 PCOD9506261
Probable space group: C C C A
;
_chemical_formula_sum "Si O2"
_cell_formula_units_Z 116
_cell_length_a 9.242125
_cell_length_b 23.405866
_cell_length_c 25.220602
_cell_angle_alpha 90.000000
_cell_angle_beta 90.000000
_cell_angle_gamma 90.000000
_cell_volume 5455.719094
_symmetry_space_group_name_H-M "C C C A"
_symmetry_group_IT_number 68
_space_group.IT_coordinate_system_code '2'
_symmetry_cell_setting 'orthorhombic'
loop_
_space_group_symop_operation_xyz
x,y,z
-x,1/2-y,z
x,1/2-y,1/2-z
-x,y,1/2-z
-x,-y,-z
x,1/2+y,-z
-x,1/2+y,1/2+z
x,-y,1/2+z
1/2+x,1/2+y,z
1/2-x,-y,z
1/2+x,-y,1/2-z
1/2-x,1/2+y,1/2-z
1/2-x,1/2-y,-z
1/2+x,y,-z
1/2-x,y,1/2+z
1/2+x,1/2-y,1/2+z
loop_
_atom_site_type_symbol
_atom_site_label
_atom_site_fract_x
_atom_site_fract_y
_atom_site_fract_z
Si Si1 0.500000 0.250000 0.250000
Si Si2 0.850220 0.876138 0.042123
Si Si3 0.237914 0.224929 0.171677
Si Si4 0.401009 0.968789 0.298531
Si Si5 0.029184 0.892766 0.948044
Si Si6 0.330396 0.255193 0.057242
Si Si7 0.448543 0.841081 0.330616
Si Si8 0.426245 0.009504 0.411930
O O1 0.382044 0.221279 0.208632
O O2 0.689795 0.895716 0.028586
O O3 0.823362 0.820818 0.076851
O O4 0.941419 0.925992 0.069501
O O5 0.928430 0.860344 0.988208
O O6 0.277174 0.219460 0.108447
O O7 0.158998 0.287308 0.177472
O O8 0.109613 0.180236 0.186093
O O9 0.500000 0.982429 0.250000
O O10 0.392859 0.899987 0.304595
O O11 0.250000 0.000000 0.291527
O O12 0.466090 0.995847 0.351911
O O13 0.034374 0.860968 0.892055
O O14 0.990335 0.959852 0.943353
O O15 0.500000 0.250000 0.047511
O O16 0.250000 0.250000 0.000000
O O17 0.250000 0.000000 0.414161
#
# Coordination Sequence:
#
# PCOD9506261 Si02
#       8
#     4  16  16  16  16  16  16  16
#     4  12  28  50  68 108 140 182 244 330 344 432
#     4  11  20  35  60  87 130 175 222 275 346 405
#     4  11  25  46  70 103 143 186 248 293 378 432
#     4  10  22  43  67  98 128 172 238 289 359 422
#     4  10  19  36  59  97 126 176 224 274 347 416
#     4  12  25  40  63  99 141 185 236 297 361 434
#     4  10  23  44  71  94 139 191 230 291 357 459
#     4   8  18  36  59  84 126 168 222 275 335 422
#
# _framework density 21.262093
#
# number of rings (size 3 to 8) (size 9 to 14) (size 15 to 20)
#    0.000    1.655    2.069    2.897    3.862    0.552 
#    1.241    4.138    0.000    0.000    0.000    0.000 
#    0.000    0.000    0.000    0.000    0.000    0.000 
#
# Total GULP energy -323136.798881 kJ/mol
# GULP energy per Si atom -5571.324119 kJ/mol
# Density = 2.121370 g / cm^3
# Si number density = 21.262093 Si / 1000 Ang^3
#
#
#
# Elastic Constant Matrix: (Units=GPa)
#
#
# Indices 1 2 3 4 5 6 
#
# 1 107.0275 36.7505 37.2762 0.0000 0.0000 0.0000
# 2 36.7505 109.0301 26.6221 0.0000 0.0000 0.0000
# 3 37.2762 26.6221 72.4082 0.0000 0.0000 0.0000
# 4 0.0000 0.0000 0.0000 13.5954 0.0000 0.0000
# 5 0.0000 0.0000 0.0000 0.0000 38.2702 0.0000
# 6 0.0000 0.0000 0.0000 0.0000 0.0000 27.4318
#
#
#
# Elastic Compliance Matrix: (Units=1/GPa)
#
#
# Indices 1 2 3 4 5 6 
#
# 1 0.012123 -0.002815 -0.005206 0.000000 0.000000 0.000000
# 2 -0.002815 0.010730 -0.002496 0.000000 0.000000 0.000000
# 3 -0.005206 -0.002496 0.017408 0.000000 0.000000 0.000000
# 4 0.000000 0.000000 0.000000 0.073554 0.000000 0.000000
# 5 0.000000 0.000000 0.000000 0.000000 0.026130 0.000000
# 6 0.000000 0.000000 0.000000 0.000000 0.000000 0.036454
#
#
# Mechanical properties :
#
#
# Convention : Reuss Voigt Hill
#
# Bulk Modulus (GPa) = 52.00880 54.41818 53.21349
# Shear Modulus (GPa) = 24.52864 28.38062 26.45463
#
# Velocity S-wave (km/s) = 3.40020 3.65745 3.53117
# Velocity P-wave (km/s) = 6.31895 6.59435 6.45812
#
# Compressibility (1/GPa) = 0.01922751
#
# Stress axis : x y z
#
# Youngs Moduli (GPa) = 82.48608 93.19577 57.44370
#
# Poissons Ratio (x) = 0.26236 0.29906
# Poissons Ratio (y) = 0.23221 0.14337
# Poissons Ratio (z) = 0.42943 0.23260
#
# Static dielectric constant tensor:
#      x y z
#    x -1.424410 0.000000 0.000000 
#    y 0.000000 1.866980 0.000000 
#    z 0.000000 0.000000 1.823420 
# 
# From -- ./inp_files/49643.got.cif
#   From: 2010.05.17/outbox.cif.g08.bks.cpg/sg68_25_cif.got.tgz:49643.got - 2010.06.03 18:57:09.
