data_PCOD9506429
_publ_section_title
;
Structure prediction by ZEFSAII (Michael W. Deem and Ramdas Pophale) SiO2 
 PCOD9506429
Probable space group: C C C A
;
_chemical_formula_sum "Si O2"
_cell_formula_units_Z 108
_cell_length_a 28.471355
_cell_length_b 11.926980
_cell_length_c 14.997779
_cell_angle_alpha 90.000000
_cell_angle_beta 90.000000
_cell_angle_gamma 90.000000
_cell_volume 5092.905024
_symmetry_space_group_name_H-M "C C C A"
_symmetry_group_IT_number 68
_space_group.IT_coordinate_system_code '2'
_symmetry_cell_setting 'orthorhombic'
loop_
_space_group_symop_operation_xyz
x,y,z
-x,1/2-y,z
x,1/2-y,1/2-z
-x,y,1/2-z
-x,-y,-z
x,1/2+y,-z
-x,1/2+y,1/2+z
x,-y,1/2+z
1/2+x,1/2+y,z
1/2-x,-y,z
1/2+x,-y,1/2-z
1/2-x,1/2+y,1/2-z
1/2-x,1/2-y,-z
1/2+x,y,-z
1/2-x,y,1/2+z
1/2+x,1/2-y,1/2+z
loop_
_atom_site_type_symbol
_atom_site_label
_atom_site_fract_x
_atom_site_fract_y
_atom_site_fract_z
Si Si1 0.563959 0.436310 0.835169
Si Si2 0.739592 0.874194 0.289669
Si Si3 0.955253 0.324606 0.883294
Si Si4 0.133182 0.414279 0.330294
Si Si5 0.000000 0.250000 0.250000
Si Si6 0.123806 0.750000 0.250000
Si Si7 0.606389 0.224519 0.536993
Si Si8 0.174793 0.625824 0.401709
O O1 0.534909 0.544412 0.868068
O O2 0.597488 0.452251 0.747955
O O3 0.530395 0.333724 0.809808
O O4 0.593760 0.394359 0.919472
O O5 0.750768 0.750000 0.250000
O O6 0.683530 0.878189 0.292890
O O7 0.769555 0.879173 0.383049
O O8 0.750000 0.000000 0.247915
O O9 0.910969 0.307552 0.818847
O O10 0.000000 0.250000 0.858854
O O11 0.934912 0.276721 0.976051
O O12 0.112999 0.308724 0.381876
O O13 0.147756 0.507384 0.404013
O O14 0.155998 0.668007 0.305879
O O15 0.653340 0.205222 0.477545
#
# Coordination Sequence:
#
# PCOD9506429 Si02
#       8
#    16  16  16  16   4   8  16  16
#     4  12  25  46  67  92 137 173 223 278 337 411
#     4  10  21  37  67 102 136 178 231 281 336 415
#     4  11  26  41  68  95 126 169 226 277 336 395
#     4  11  22  44  67  96 137 182 223 272 346 408
#     4  12  28  40  68  92 120 172 232 270 336 400
#     4  10  19  40  61  92 122 165 210 261 334 390
#     4  11  24  41  65  98 131 180 219 276 345 393
#     4  10  21  39  67  95 137 170 221 277 330 400
#
# _framework density 21.205970000000001
#
# number of rings (size 3 to 8) (size 9 to 14) (size 15 to 20)
#    0.000    1.185    3.704    2.000    3.111    1.185 
#    0.000    1.481    0.000    2.667    0.000    0.000 
#    0.000    0.000    0.000    0.000    0.000    0.000 
#
# Total GULP energy -300830.366257 kJ/mol
# GULP energy per Si atom -5570.932708 kJ/mol
# Density = 2.115770 g / cm^3
# Si number density = 21.205970 Si / 1000 Ang^3
#
#
#
# Elastic Constant Matrix: (Units=GPa)
#
#
# Indices 1 2 3 4 5 6 
#
# 1 77.3499 22.9704 20.9992 0.0000 0.0000 0.0000
# 2 22.9704 133.7581 29.7024 0.0000 0.0000 0.0000
# 3 20.9992 29.7024 64.0797 0.0000 0.0000 0.0000
# 4 0.0000 0.0000 0.0000 -3.3944 0.0000 0.0000
# 5 0.0000 0.0000 0.0000 0.0000 7.6301 0.0000
# 6 0.0000 0.0000 0.0000 0.0000 0.0000 -26.0868
#
#
#
# Elastic Compliance Matrix: (Units=1/GPa)
#
#
# Indices 1 2 3 4 5 6 
#
# 1 0.014491 -0.001599 -0.004008 0.000000 0.000000 0.000000
# 2 -0.001599 0.008510 -0.003421 0.000000 0.000000 0.000000
# 3 -0.004008 -0.003421 0.018505 0.000000 0.000000 0.000000
# 4 0.000000 0.000000 0.000000 -0.294600 0.000000 0.000000
# 5 0.000000 0.000000 0.000000 0.000000 0.131059 0.000000
# 6 0.000000 0.000000 0.000000 0.000000 0.000000 -0.038334
#
#
# Mechanical properties :
#
#
# Convention : Reuss Voigt Hill
#
# Bulk Modulus (GPa) = 42.64126 46.94797 44.79461
# Shear Modulus (GPa) = -37.17558 9.06416 -14.05571
#
# Velocity S-wave (km/s) = -4.19151 2.06969 -2.57732
# Velocity P-wave (km/s) = 1.80921 5.28191 3.50894
#
# Compressibility (1/GPa) = 0.02345146
#
# Stress axis : x y z
#
# Youngs Moduli (GPa) = 69.00812 117.50396 54.04067
#
# Poissons Ratio (x) = 0.18784 0.21658
# Poissons Ratio (y) = 0.11032 0.18487
# Poissons Ratio (z) = 0.27657 0.40197
#
# Static dielectric constant tensor:
#      x y z
#    x 1.779020 0.000000 0.000000 
#    y 0.000000 1.909630 0.000000 
#    z 0.000000 0.000000 1.787250 
# 
# From -- ./inp_files/26458.got.cif
#   From: 2010.05.17/outbox.cif.g08.bks.cpg/sg68_14_cif.got.tgz:26458.got - 2010.06.03 18:57:09.
