data_PCOD9506265
_publ_section_title
;
Structure prediction by ZEFSAII (Michael W. Deem and Ramdas Pophale) SiO2 
 PCOD9506265
Probable space group: C C C A
;
_chemical_formula_sum "Si O2"
_cell_formula_units_Z 64
_cell_length_a 20.608065
_cell_length_b 4.961664
_cell_length_c 29.087421
_cell_angle_alpha 90.000000
_cell_angle_beta 90.000000
_cell_angle_gamma 90.000000
_cell_volume 2974.197355
_symmetry_space_group_name_H-M "C C C A"
_symmetry_group_IT_number 68
_space_group.IT_coordinate_system_code '2'
_symmetry_cell_setting 'orthorhombic'
loop_
_space_group_symop_operation_xyz
x,y,z
-x,1/2-y,z
x,1/2-y,1/2-z
-x,y,1/2-z
-x,-y,-z
x,1/2+y,-z
-x,1/2+y,1/2+z
x,-y,1/2+z
1/2+x,1/2+y,z
1/2-x,-y,z
1/2+x,-y,1/2-z
1/2-x,1/2+y,1/2-z
1/2-x,1/2-y,-z
1/2+x,y,-z
1/2-x,y,1/2+z
1/2+x,1/2-y,1/2+z
loop_
_atom_site_type_symbol
_atom_site_label
_atom_site_fract_x
_atom_site_fract_y
_atom_site_fract_z
Si Si1 0.250000 0.000000 0.965671
Si Si2 0.000000 0.750000 0.904433
Si Si3 0.108746 0.512615 0.032518
Si Si4 0.250000 0.500000 0.715480
Si Si5 0.390729 0.499159 0.215781
Si Si6 0.000000 0.750000 0.348125
O O1 0.320712 0.008626 0.942922
O O2 0.250000 0.250000 0.000000
O O3 0.052654 0.909767 0.934508
O O4 0.031496 0.499661 0.876272
O O5 0.104132 0.811900 0.011638
O O6 0.250471 0.750000 0.750000
O O7 0.320051 0.476184 0.691318
O O8 0.404149 0.750000 0.250000
O O9 0.447443 0.414542 0.181549
O O10 0.385269 0.250000 0.250000
#
# Coordination Sequence:
#
# PCOD9506265 Si02
#       6
#     8   8  16   8  16   8
#     4   8  16  30  55  84 105 134 194 250 278 320
#     4  12  24  37  53  84 125 156 187 236 291 347
#     4  10  19  36  60  83 108 150 198 239 282 340
#     4   8  16  32  59  86 105 132 186 242 278 324
#     4  10  20  38  62  85 109 148 195 239 285 344
#     4  12  25  37  54  88 125 154 187 238 294 347
#
# _framework density 21.518409999999999
#
# number of rings (size 3 to 8) (size 9 to 14) (size 15 to 20)
#    0.000    2.000    0.000    4.125    0.000    1.000 
#    0.000    1.250    0.000    3.000    0.000    0.000 
#    0.000    0.000    0.000    0.000    0.000    0.000 
#
# Total GULP energy -178288.380213 kJ/mol
# GULP energy per Si atom -5571.511882 kJ/mol
# Density = 2.146943 g / cm^3
# Si number density = 21.518410 Si / 1000 Ang^3
#
#
#
# Elastic Constant Matrix: (Units=GPa)
#
#
# Indices 1 2 3 4 5 6 
#
# 1 155.2484 6.2150 35.9144 0.0000 0.0000 0.0000
# 2 6.2150 139.7057 8.5947 0.0000 0.0000 0.0000
# 3 35.9144 8.5947 32.3888 0.0000 0.0000 0.0000
# 4 0.0000 0.0000 0.0000 37.8744 0.0000 0.0000
# 5 0.0000 0.0000 0.0000 0.0000 -43.3988 0.0000
# 6 0.0000 0.0000 0.0000 0.0000 0.0000 30.0314
#
#
#
# Elastic Compliance Matrix: (Units=1/GPa)
#
#
# Indices 1 2 3 4 5 6 
#
# 1 0.008670 0.000209 -0.009669 0.000000 0.000000 0.000000
# 2 0.000209 0.007282 -0.002164 0.000000 0.000000 0.000000
# 3 -0.009669 -0.002164 0.042170 0.000000 0.000000 0.000000
# 4 0.000000 0.000000 0.000000 0.026403 0.000000 0.000000
# 5 0.000000 0.000000 0.000000 0.000000 -0.023042 0.000000
# 6 0.000000 0.000000 0.000000 0.000000 0.000000 0.033298
#
#
# Mechanical properties :
#
#
# Convention : Reuss Voigt Hill
#
# Bulk Modulus (GPa) = 28.67461 47.64345 38.15903
# Shear Modulus (GPa) = 38.56427 23.34267 30.95347
#
# Velocity S-wave (km/s) = 4.23797 3.29717 3.79682
# Velocity P-wave (km/s) = 6.10752 6.05673 6.08218
#
# Compressibility (1/GPa) = 0.03487406
#
# Stress axis : x y z
#
# Youngs Moduli (GPa) = 115.34475 137.32984 23.71329
#
# Poissons Ratio (x) = -0.02872 0.22928
# Poissons Ratio (y) = -0.02412 0.05132
# Poissons Ratio (z) = 1.11525 0.29721
#
# Static dielectric constant tensor:
#      x y z
#    x 1.946850 0.000000 0.000000 
#    y 0.000000 1.734880 0.000000 
#    z 0.000000 0.000000 1.768500 
# 
# From -- ./inp_files/48153.got.cif
#   From: 2010.05.17/outbox.cif.g08.bks.cpg/sg68_25_cif.got.tgz:48153.got - 2010.06.03 18:57:09.
