data_PCOD9506920
_publ_section_title
;
Structure prediction by ZEFSAII (Michael W. Deem and Ramdas Pophale) SiO2 
 PCOD9506920
Probable space group: C C C A
;
_chemical_formula_sum "Si O2"
_cell_formula_units_Z 104
_cell_length_a 15.367420
_cell_length_b 11.836391
_cell_length_c 25.702948
_cell_angle_alpha 90.000000
_cell_angle_beta 90.000000
_cell_angle_gamma 90.000000
_cell_volume 4675.232375
_symmetry_space_group_name_H-M "C C C A"
_symmetry_group_IT_number 68
_space_group.IT_coordinate_system_code '2'
_symmetry_cell_setting 'orthorhombic'
loop_
_space_group_symop_operation_xyz
x,y,z
-x,1/2-y,z
x,1/2-y,1/2-z
-x,y,1/2-z
-x,-y,-z
x,1/2+y,-z
-x,1/2+y,1/2+z
x,-y,1/2+z
1/2+x,1/2+y,z
1/2-x,-y,z
1/2+x,-y,1/2-z
1/2-x,1/2+y,1/2-z
1/2-x,1/2-y,-z
1/2+x,y,-z
1/2-x,y,1/2+z
1/2+x,1/2-y,1/2+z
loop_
_atom_site_type_symbol
_atom_site_label
_atom_site_fract_x
_atom_site_fract_y
_atom_site_fract_z
Si Si1 0.019943 0.612693 0.847617
Si Si2 0.185754 0.207569 0.428937
Si Si3 0.161943 0.572145 0.669685
Si Si4 0.875362 0.766280 0.035609
Si Si5 0.979442 0.054721 0.944041
Si Si6 0.769529 0.250000 0.250000
Si Si7 0.211959 0.883881 0.662245
O O1 0.112192 0.602690 0.818733
O O2 0.000000 0.750000 0.853235
O O3 0.939364 0.547525 0.820343
O O4 0.030525 0.543649 0.901712
O O5 0.158627 0.105235 0.391727
O O6 0.119132 0.247255 0.473130
O O7 0.279017 0.186600 0.454871
O O8 0.204430 0.303990 0.387083
O O9 0.250000 0.500000 0.676383
O O10 0.178993 0.676396 0.708088
O O11 0.941094 0.855397 0.061164
O O12 0.896547 0.639983 0.056178
O O13 0.000000 0.000000 0.000000
O O14 0.727742 0.162571 0.290531
O O15 0.250000 0.000000 0.644551
#
# Coordination Sequence:
#
# PCOD9506920 Si02
#       7
#    16  16  16  16  16   8  16
#     4  12  23  41  66  96 125 170 214 259 321 379
#     4  10  20  37  60  84 125 160 210 259 315 370
#     4  11  23  40  66  93 128 162 208 265 325 383
#     4  10  22  38  55  90 121 171 213 263 312 378
#     4  11  23  34  58  81 125 161 216 260 311 362
#     4  10  22  41  66  95 124 160 210 261 330 387
#     4  11  23  40  66  93 128 162 208 265 325 383
#
# _framework density 22.244883000000002
#
# number of rings (size 3 to 8) (size 9 to 14) (size 15 to 20)
#    0.000    1.231    3.077    4.154    2.154    1.231 
#    0.000    3.077    0.000    0.923    0.000    0.000 
#    0.000    0.000    0.000    0.000    0.000    0.000 
#
# Total GULP energy -289573.961088 kJ/mol
# GULP energy per Si atom -5568.730021 kJ/mol
# Density = 2.219425 g / cm^3
# Si number density = 22.244883 Si / 1000 Ang^3
#
#
#
# Elastic Constant Matrix: (Units=GPa)
#
#
# Indices 1 2 3 4 5 6 
#
# 1 70.8084 22.5814 -6.4300 0.0000 0.0000 0.0000
# 2 22.5814 79.6701 16.2392 0.0000 0.0000 0.0000
# 3 -6.4300 16.2392 67.5654 0.0000 0.0000 0.0000
# 4 0.0000 0.0000 0.0000 24.1163 0.0000 0.0000
# 5 0.0000 0.0000 0.0000 0.0000 3.8223 0.0000
# 6 0.0000 0.0000 0.0000 0.0000 0.0000 30.2908
#
#
#
# Elastic Compliance Matrix: (Units=1/GPa)
#
#
# Indices 1 2 3 4 5 6 
#
# 1 0.015996 -0.005094 0.002747 0.000000 0.000000 0.000000
# 2 -0.005094 0.014820 -0.004047 0.000000 0.000000 0.000000
# 3 0.002747 -0.004047 0.016035 0.000000 0.000000 0.000000
# 4 0.000000 0.000000 0.000000 0.041466 0.000000 0.000000
# 5 0.000000 0.000000 0.000000 0.000000 0.261626 0.000000
# 6 0.000000 0.000000 0.000000 0.000000 0.000000 0.033013
#
#
# Mechanical properties :
#
#
# Convention : Reuss Voigt Hill
#
# Bulk Modulus (GPa) = 29.35704 31.42500 30.39102
# Shear Modulus (GPa) = 12.28204 24.02277 18.15240
#
# Velocity S-wave (km/s) = 2.35229 3.28978 2.85972
# Velocity P-wave (km/s) = 4.53911 5.34675 4.95940
#
# Compressibility (1/GPa) = 0.03406338
#
# Stress axis : x y z
#
# Youngs Moduli (GPa) = 62.51370 67.47456 62.36550
#
# Poissons Ratio (x) = 0.34370 -0.17130
# Poissons Ratio (y) = 0.31843 0.25238
# Poissons Ratio (z) = -0.17170 0.27306
#
# Static dielectric constant tensor:
#      x y z
#    x 1.904480 0.000000 0.000000 
#    y 0.000000 1.908610 0.000000 
#    z 0.000000 0.000000 1.844540 
# 
# From -- ./inp_files/51447.got.cif
#   From: 2010.05.17/outbox.cif.g08.bks.cpg/sg68_26_cif.got.tgz:51447.got - 2010.06.03 18:57:09.
