data_PCOD9506708
_publ_section_title
;
Structure prediction by ZEFSAII (Michael W. Deem and Ramdas Pophale) SiO2 
 PCOD9506708
Probable space group: C C C A
;
_chemical_formula_sum "Si O2"
_cell_formula_units_Z 96
_cell_length_a 17.453762
_cell_length_b 19.441950
_cell_length_c 13.576966
_cell_angle_alpha 90.000000
_cell_angle_beta 90.000000
_cell_angle_gamma 90.000000
_cell_volume 4607.142040
_symmetry_space_group_name_H-M "C C C A"
_symmetry_group_IT_number 68
_space_group.IT_coordinate_system_code '2'
_symmetry_cell_setting 'orthorhombic'
loop_
_space_group_symop_operation_xyz
x,y,z
-x,1/2-y,z
x,1/2-y,1/2-z
-x,y,1/2-z
-x,-y,-z
x,1/2+y,-z
-x,1/2+y,1/2+z
x,-y,1/2+z
1/2+x,1/2+y,z
1/2-x,-y,z
1/2+x,-y,1/2-z
1/2-x,1/2+y,1/2-z
1/2-x,1/2-y,-z
1/2+x,y,-z
1/2-x,y,1/2+z
1/2+x,1/2-y,1/2+z
loop_
_atom_site_type_symbol
_atom_site_label
_atom_site_fract_x
_atom_site_fract_y
_atom_site_fract_z
Si Si1 0.316740 0.847205 0.052115
Si Si2 0.351464 0.306319 0.513503
Si Si3 0.794508 0.671763 0.769891
Si Si4 0.185501 0.048403 0.740136
Si Si5 0.393165 0.967961 0.930636
Si Si6 0.558193 0.584430 0.582309
O O1 0.349534 0.776094 0.007969
O O2 0.336458 0.849374 0.168305
O O3 0.225043 0.837441 0.038611
O O4 0.346627 0.913936 0.996992
O O5 0.342411 0.325614 0.629245
O O6 0.422987 0.340561 0.460132
O O7 0.767329 0.750000 0.750000
O O8 0.725132 0.618476 0.777264
O O9 0.155666 0.009589 0.836798
O O10 0.115017 0.066082 0.670752
O O11 0.250000 0.000000 0.690942
O O12 0.470090 0.929552 0.894557
O O13 0.418108 0.032488 0.994898
#
# Coordination Sequence:
#
# PCOD9506708 Si02
#       6
#    16  16  16  16  16  16
#     4  10  20  37  62  89 119 156 201 247 295 358
#     4  10  20  37  62  89 119 156 201 247 295 358
#     4  10  20  35  59  93 119 146 202 253 286 341
#     4  12  23  37  64  90 114 159 203 247 299 363
#     4  11  25  41  58  87 124 159 197 249 307 363
#     4  11  25  41  58  87 124 159 197 249 307 363
#
# _framework density 20.837212000000001
#
# number of rings (size 3 to 8) (size 9 to 14) (size 15 to 20)
#    0.000    1.333    3.333    2.500    0.000    0.667 
#    0.000    2.500    0.000    6.000    0.000    0.000 
#    0.000    0.000    0.000    0.000    0.000    0.000 
#
# Total GULP energy -268282.365974 kJ/mol
# GULP energy per Si atom -5589.215958 kJ/mol
# Density = 2.078979 g / cm^3
# Si number density = 20.837212 Si / 1000 Ang^3
#
#
#
# Elastic Constant Matrix: (Units=GPa)
#
#
# Indices 1 2 3 4 5 6 
#
# 1 38.0740 -0.3861 -1.5902 0.0000 0.0000 0.0000
# 2 -0.3861 31.1828 -12.9406 0.0000 0.0000 0.0000
# 3 -1.5902 -12.9406 71.3126 0.0000 0.0000 0.0000
# 4 0.0000 0.0000 0.0000 26.5682 0.0000 0.0000
# 5 0.0000 0.0000 0.0000 0.0000 22.6467 0.0000
# 6 0.0000 0.0000 0.0000 0.0000 0.0000 28.5984
#
#
#
# Elastic Compliance Matrix: (Units=1/GPa)
#
#
# Indices 1 2 3 4 5 6 
#
# 1 0.026300 0.000615 0.000698 0.000000 0.000000 0.000000
# 2 0.000615 0.034695 0.006310 0.000000 0.000000 0.000000
# 3 0.000698 0.006310 0.015183 0.000000 0.000000 0.000000
# 4 0.000000 0.000000 0.000000 0.037639 0.000000 0.000000
# 5 0.000000 0.000000 0.000000 0.000000 0.044157 0.000000
# 6 0.000000 0.000000 0.000000 0.000000 0.000000 0.034967
#
#
# Mechanical properties :
#
#
# Convention : Reuss Voigt Hill
#
# Bulk Modulus (GPa) = 10.93799 12.30395 11.62097
# Shear Modulus (GPa) = 24.01889 25.92842 24.97365
#
# Velocity S-wave (km/s) = 3.39882 3.53134 3.46571
# Velocity P-wave (km/s) = 4.54568 4.74813 4.64801
#
# Compressibility (1/GPa) = 0.09142449
#
# Stress axis : x y z
#
# Youngs Moduli (GPa) = 38.02272 28.82262 65.86186
#
# Poissons Ratio (x) = -0.01774 -0.04598
# Poissons Ratio (y) = -0.02340 -0.41556
# Poissons Ratio (z) = -0.02654 -0.18186
#
# Static dielectric constant tensor:
#      x y z
#    x 1.731100 0.000000 0.000000 
#    y 0.000000 1.742050 0.000000 
#    z 0.000000 0.000000 1.767810 
# 
# From -- ./inp_files/16434.got.cif
#   From: 2010.05.17/outbox.cif.g08.bks.cpg/sg68_9_cif.got.tgz:16434.got - 2010.06.03 18:57:09.
