data_PCOD9506433
_publ_section_title
;
Structure prediction by ZEFSAII (Michael W. Deem and Ramdas Pophale) SiO2 
 PCOD9506433
Probable space group: C C C A
;
_chemical_formula_sum "Si O2"
_cell_formula_units_Z 108
_cell_length_a 11.217112
_cell_length_b 28.671374
_cell_length_c 14.157866
_cell_angle_alpha 90.000000
_cell_angle_beta 90.000000
_cell_angle_gamma 90.000000
_cell_volume 4553.311473
_symmetry_space_group_name_H-M "C C C A"
_symmetry_group_IT_number 68
_space_group.IT_coordinate_system_code '2'
_symmetry_cell_setting 'orthorhombic'
loop_
_space_group_symop_operation_xyz
x,y,z
-x,1/2-y,z
x,1/2-y,1/2-z
-x,y,1/2-z
-x,-y,-z
x,1/2+y,-z
-x,1/2+y,1/2+z
x,-y,1/2+z
1/2+x,1/2+y,z
1/2-x,-y,z
1/2+x,-y,1/2-z
1/2-x,1/2+y,1/2-z
1/2-x,1/2-y,-z
1/2+x,y,-z
1/2-x,y,1/2+z
1/2+x,1/2-y,1/2+z
loop_
_atom_site_type_symbol
_atom_site_label
_atom_site_fract_x
_atom_site_fract_y
_atom_site_fract_z
Si Si1 0.817713 0.683802 0.643076
Si Si2 0.424546 0.482579 0.592309
Si Si3 0.039955 0.894645 0.587187
Si Si4 0.500000 0.250000 0.090341
Si Si5 0.671159 0.177209 0.187812
Si Si6 0.000000 0.750000 0.750000
Si Si7 0.177388 0.425574 0.601889
Si Si8 0.343337 0.316752 0.532067
O O1 0.881380 0.634617 0.658911
O O2 0.697813 0.686978 0.703650
O O3 0.915804 0.719496 0.680718
O O4 0.774262 0.679669 0.534885
O O5 0.500000 0.500000 0.500000
O O6 0.503114 0.442330 0.636601
O O7 0.302898 0.451645 0.575670
O O8 0.393869 0.530392 0.644934
O O9 0.114970 0.909748 0.495172
O O10 0.931806 0.860950 0.548628
O O11 0.565803 0.209451 0.149505
O O12 0.411908 0.223850 0.019472
O O13 0.670827 0.121747 0.164019
O O14 0.789170 0.194558 0.133192
#
# Coordination Sequence:
#
# PCOD9506433 Si02
#       8
#    16  16  16   8  16   4  16  16
#     4  12  27  44  69  97 142 184 234 295 354 425
#     4   9  19  34  70 101 136 178 226 286 360 433
#     4  11  20  42  69 101 134 184 230 282 363 426
#     4  12  26  44  68  98 140 186 242 296 360 418
#     4  12  25  43  69 103 139 185 235 295 355 434
#     4  12  28  46  60 104 140 190 244 294 364 418
#     4  10  19  40  65 104 137 178 229 290 355 428
#     4  12  24  44  67  99 134 183 236 288 355 423
#
# _framework density 23.719000999999999
#
# number of rings (size 3 to 8) (size 9 to 14) (size 15 to 20)
#    0.000    0.889    4.444    2.222    0.000    5.333 
#    0.000    0.000    0.000   24.889    0.000    0.000 
#    0.000    0.000    0.000    0.000    0.000    0.000 
#
# Total GULP energy -301325.920739 kJ/mol
# GULP energy per Si atom -5580.109643 kJ/mol
# Density = 2.366502 g / cm^3
# Si number density = 23.719001 Si / 1000 Ang^3
#
#
#
# Elastic Constant Matrix: (Units=GPa)
#
#
# Indices 1 2 3 4 5 6 
#
# 1 77.5414 67.8800 4.5061 0.0000 0.0000 0.0000
# 2 67.8800 185.1724 23.3162 0.0000 0.0000 0.0000
# 3 4.5061 23.3162 61.2758 0.0000 0.0000 0.0000
# 4 0.0000 0.0000 0.0000 15.2707 0.0000 0.0000
# 5 0.0000 0.0000 0.0000 0.0000 28.5364 0.0000
# 6 0.0000 0.0000 0.0000 0.0000 0.0000 49.9465
#
#
#
# Elastic Compliance Matrix: (Units=1/GPa)
#
#
# Indices 1 2 3 4 5 6 
#
# 1 0.019092 -0.007165 0.001322 0.000000 0.000000 0.000000
# 2 -0.007165 0.008361 -0.002655 0.000000 0.000000 0.000000
# 3 0.001322 -0.002655 0.017233 0.000000 0.000000 0.000000
# 4 0.000000 0.000000 0.000000 0.065485 0.000000 0.000000
# 5 0.000000 0.000000 0.000000 0.000000 0.035043 0.000000
# 6 0.000000 0.000000 0.000000 0.000000 0.000000 0.020021
#
#
# Mechanical properties :
#
#
# Convention : Reuss Voigt Hill
#
# Bulk Modulus (GPa) = 36.11287 57.26602 46.68945
# Shear Modulus (GPa) = 26.11511 33.96986 30.04249
#
# Velocity S-wave (km/s) = 3.32176 3.78852 3.56279
# Velocity P-wave (km/s) = 5.47453 6.58279 6.05407
#
# Compressibility (1/GPa) = 0.02769096
#
# Stress axis : x y z
#
# Youngs Moduli (GPa) = 52.37820 119.59956 58.02978
#
# Poissons Ratio (x) = 0.85695 -0.07674
# Poissons Ratio (y) = 0.37530 0.15405
# Poissons Ratio (z) = -0.06927 0.31749
#
# Static dielectric constant tensor:
#      x y z
#    x 2.007100 0.000000 0.000000 
#    y 0.000000 1.951750 0.000000 
#    z 0.000000 0.000000 1.863980 
# 
# From -- ./inp_files/37977.got.cif
#   From: 2010.05.17/outbox.cif.g08.bks.cpg/sg68_19_cif.got.tgz:37977.got - 2010.06.03 18:57:09.
