data_PCOD9506379
_publ_section_title
;
Structure prediction by ZEFSAII (Michael W. Deem and Ramdas Pophale) SiO2 
 PCOD9506379
Probable space group: C C C A
;
_chemical_formula_sum "Si O2"
_cell_formula_units_Z 64
_cell_length_a 16.242292
_cell_length_b 8.155814
_cell_length_c 21.891919
_cell_angle_alpha 90.000000
_cell_angle_beta 90.000000
_cell_angle_gamma 90.000000
_cell_volume 2900.003081
_symmetry_space_group_name_H-M "C C C A"
_symmetry_group_IT_number 68
_space_group.IT_coordinate_system_code '2'
_symmetry_cell_setting 'orthorhombic'
loop_
_space_group_symop_operation_xyz
x,y,z
-x,1/2-y,z
x,1/2-y,1/2-z
-x,y,1/2-z
-x,-y,-z
x,1/2+y,-z
-x,1/2+y,1/2+z
x,-y,1/2+z
1/2+x,1/2+y,z
1/2-x,-y,z
1/2+x,-y,1/2-z
1/2-x,1/2+y,1/2-z
1/2-x,1/2-y,-z
1/2+x,y,-z
1/2-x,y,1/2+z
1/2+x,1/2-y,1/2+z
loop_
_atom_site_type_symbol
_atom_site_label
_atom_site_fract_x
_atom_site_fract_y
_atom_site_fract_z
Si Si1 0.250000 0.500000 0.665755
Si Si2 0.805439 0.785741 0.559179
Si Si3 0.500000 0.750000 0.605200
Si Si4 0.591381 0.018519 0.474710
Si Si5 0.924251 0.074550 0.714988
O O1 0.239666 0.658095 0.620621
O O2 0.166521 0.496006 0.705464
O O3 0.750000 0.750000 0.500000
O O4 0.856213 0.940524 0.534342
O O5 0.867050 0.629720 0.562289
O O6 0.423738 0.823064 0.567387
O O7 0.462456 0.611529 0.648712
O O8 0.500000 0.000000 0.500000
O O9 0.913947 0.250000 0.750000
O O10 0.000000 0.985917 0.750000
#
# Coordination Sequence:
#
# PCOD9506379 Si02
#       5
#     8  16   8  16  16
#     4  12  22  42  70  94 136 176 228 300 346 406
#     4  12  23  37  60  99 141 175 216 263 335 418
#     4  10  19  38  66  84 128 176 223 258 340 390
#     4  12  21  36  59  94 137 181 213 255 318 420
#     4   9  22  45  68  86 117 172 228 285 342 393
#
# _framework density 22.068943000000001
#
# number of rings (size 3 to 8) (size 9 to 14) (size 15 to 20)
#    0.000    1.250    5.000    3.000    0.000    0.000 
#    9.000    0.000    0.000    0.000    0.000    0.000 
#    0.000    0.000    0.000    0.000    0.000    0.000 
#
# Total GULP energy -178431.001518 kJ/mol
# GULP energy per Si atom -5575.968797 kJ/mol
# Density = 2.201871 g / cm^3
# Si number density = 22.068943 Si / 1000 Ang^3
#
#
#
# Elastic Constant Matrix: (Units=GPa)
#
#
# Indices 1 2 3 4 5 6 
#
# 1 175.7528 28.2272 43.1366 0.0000 0.0000 0.0000
# 2 28.2272 72.3446 14.8973 0.0000 0.0000 0.0000
# 3 43.1366 14.8973 72.9260 0.0000 0.0000 0.0000
# 4 0.0000 0.0000 0.0000 17.7793 0.0000 0.0000
# 5 0.0000 0.0000 0.0000 0.0000 44.4297 0.0000
# 6 0.0000 0.0000 0.0000 0.0000 0.0000 52.8432
#
#
#
# Elastic Compliance Matrix: (Units=1/GPa)
#
#
# Indices 1 2 3 4 5 6 
#
# 1 0.006906 -0.001935 -0.003690 0.000000 0.000000 0.000000
# 2 -0.001935 0.014972 -0.001914 0.000000 0.000000 0.000000
# 3 -0.003690 -0.001914 0.016286 0.000000 0.000000 0.000000
# 4 0.000000 0.000000 0.000000 0.056245 0.000000 0.000000
# 5 0.000000 0.000000 0.000000 0.000000 0.022507 0.000000
# 6 0.000000 0.000000 0.000000 0.000000 0.000000 0.018924
#
#
# Mechanical properties :
#
#
# Convention : Reuss Voigt Hill
#
# Bulk Modulus (GPa) = 43.31479 54.83841 49.07660
# Shear Modulus (GPa) = 31.52316 38.66125 35.09221
#
# Velocity S-wave (km/s) = 3.78351 4.19004 3.99195
# Velocity P-wave (km/s) = 6.22545 6.95063 6.59801
#
# Compressibility (1/GPa) = 0.02308680
#
# Stress axis : x y z
#
# Youngs Moduli (GPa) = 144.79770 66.79237 61.40199
#
# Poissons Ratio (x) = 0.12923 0.22656
# Poissons Ratio (y) = 0.28016 0.11752
# Poissons Ratio (z) = 0.53428 0.12784
#
# Static dielectric constant tensor:
#      x y z
#    x 2.453760 0.000000 0.000000 
#    y 0.000000 1.955260 0.000000 
#    z 0.000000 0.000000 1.892430 
# 
# From -- ./inp_files/35780.got.cif
#   From: 2010.05.17/outbox.cif.g08.bks.cpg/sg68_18_cif.got.tgz:35780.got - 2010.06.03 18:57:09.
