data_PCOD9506192
_publ_section_title
;
Structure prediction by ZEFSAII (Michael W. Deem and Ramdas Pophale) SiO2 
 PCOD9506192
Probable space group: C C C A
;
_chemical_formula_sum "Si O2"
_cell_formula_units_Z 80
_cell_length_a 14.971374
_cell_length_b 17.140815
_cell_length_c 17.807798
_cell_angle_alpha 90.000000
_cell_angle_beta 90.000000
_cell_angle_gamma 90.000000
_cell_volume 4569.864761
_symmetry_space_group_name_H-M "C C C A"
_symmetry_group_IT_number 68
_space_group.IT_coordinate_system_code '2'
_symmetry_cell_setting 'orthorhombic'
loop_
_space_group_symop_operation_xyz
x,y,z
-x,1/2-y,z
x,1/2-y,1/2-z
-x,y,1/2-z
-x,-y,-z
x,1/2+y,-z
-x,1/2+y,1/2+z
x,-y,1/2+z
1/2+x,1/2+y,z
1/2-x,-y,z
1/2+x,-y,1/2-z
1/2-x,1/2+y,1/2-z
1/2-x,1/2-y,-z
1/2+x,y,-z
1/2-x,y,1/2+z
1/2+x,1/2-y,1/2+z
loop_
_atom_site_type_symbol
_atom_site_label
_atom_site_fract_x
_atom_site_fract_y
_atom_site_fract_z
Si Si1 0.961029 0.413541 0.501806
Si Si2 0.134834 0.180330 0.974172
Si Si3 0.230419 0.589022 0.421749
Si Si4 0.231088 0.743566 0.332616
Si Si5 0.588633 0.294277 0.888109
O O1 0.870636 0.409136 0.548784
O O2 0.938730 0.378853 0.419086
O O3 0.000000 0.500000 0.500000
O O4 0.038749 0.358934 0.535081
O O5 0.173795 0.216231 0.898491
O O6 0.203378 0.118317 0.011473
O O7 0.121624 0.247667 0.036808
O O8 0.250000 0.500000 0.400221
O O9 0.243056 0.653523 0.357177
O O10 0.191338 0.750000 0.250000
O O11 0.327483 0.786741 0.333785
O O12 0.500000 0.250000 0.860564
#
# Coordination Sequence:
#
# PCOD9506192 Si02
#       5
#    16  16  16  16  16
#     4  11  19  31  59  92 108 140 191 255 297 320
#     4  10  19  35  59  84 109 148 196 242 281 334
#     4  11  20  37  58  86 116 142 196 251 289 332
#     4  11  22  38  58  82 120 162 190 227 291 362
#     4   9  18  34  58  83 108 143 199 245 275 333
#
# _framework density 17.505989
#
# number of rings (size 3 to 8) (size 9 to 14) (size 15 to 20)
#    0.000    1.600    6.000    1.200    0.000    0.400 
#    0.000    5.000    0.000    0.000    0.000    0.000 
#    0.000    0.000    0.000    0.000    0.000    0.000 
#
# Total GULP energy -223159.453584 kJ/mol
# GULP energy per Si atom -5578.986340 kJ/mol
# Density = 1.746614 g / cm^3
# Si number density = 17.505989 Si / 1000 Ang^3
#
#
#
# Elastic Constant Matrix: (Units=GPa)
#
#
# Indices 1 2 3 4 5 6 
#
# 1 97.7761 12.6073 6.7397 0.0000 0.0000 0.0000
# 2 12.6073 111.0877 14.6147 0.0000 0.0000 0.0000
# 3 6.7397 14.6147 52.6321 0.0000 0.0000 0.0000
# 4 0.0000 0.0000 0.0000 12.0719 0.0000 0.0000
# 5 0.0000 0.0000 0.0000 0.0000 12.0421 0.0000
# 6 0.0000 0.0000 0.0000 0.0000 0.0000 29.7272
#
#
#
# Elastic Compliance Matrix: (Units=1/GPa)
#
#
# Indices 1 2 3 4 5 6 
#
# 1 0.010434 -0.001047 -0.001046 0.000000 0.000000 0.000000
# 2 -0.001047 0.009448 -0.002490 0.000000 0.000000 0.000000
# 3 -0.001046 -0.002490 0.019825 0.000000 0.000000 0.000000
# 4 0.000000 0.000000 0.000000 0.082837 0.000000 0.000000
# 5 0.000000 0.000000 0.000000 0.000000 0.083042 0.000000
# 6 0.000000 0.000000 0.000000 0.000000 0.000000 0.033639
#
#
# Mechanical properties :
#
#
# Convention : Reuss Voigt Hill
#
# Bulk Modulus (GPa) = 32.73939 36.60212 34.67075
# Shear Modulus (GPa) = 19.33712 25.93721 22.63717
#
# Velocity S-wave (km/s) = 3.32716 3.85336 3.59988
# Velocity P-wave (km/s) = 5.78813 6.38369 6.09319
#
# Compressibility (1/GPa) = 0.03054425
#
# Stress axis : x y z
#
# Youngs Moduli (GPa) = 95.83616 105.84024 50.44148
#
# Poissons Ratio (x) = 0.11078 0.05274
# Poissons Ratio (y) = 0.10031 0.12557
# Poissons Ratio (z) = 0.10020 0.26349
#
# Static dielectric constant tensor:
#      x y z
#    x 1.626300 0.000000 0.000000 
#    y 0.000000 1.620440 0.000000 
#    z 0.000000 0.000000 1.583060 
# 
# From -- ./inp_files/30785.got.cif
#   From: 2010.05.17/outbox.cif.g08.bks.cpg/sg68_16_cif.got.tgz:30785.got - 2010.06.03 18:57:09.
