data_PCOD9506655
_publ_section_title
;
Structure prediction by ZEFSAII (Michael W. Deem and Ramdas Pophale) SiO2 
 PCOD9506655
Probable space group: C C C A
;
_chemical_formula_sum "Si O2"
_cell_formula_units_Z 96
_cell_length_a 23.484811
_cell_length_b 9.315919
_cell_length_c 21.829685
_cell_angle_alpha 90.000000
_cell_angle_beta 90.000000
_cell_angle_gamma 90.000000
_cell_volume 4775.955176
_symmetry_space_group_name_H-M "C C C A"
_symmetry_group_IT_number 68
_space_group.IT_coordinate_system_code '2'
_symmetry_cell_setting 'orthorhombic'
loop_
_space_group_symop_operation_xyz
x,y,z
-x,1/2-y,z
x,1/2-y,1/2-z
-x,y,1/2-z
-x,-y,-z
x,1/2+y,-z
-x,1/2+y,1/2+z
x,-y,1/2+z
1/2+x,1/2+y,z
1/2-x,-y,z
1/2+x,-y,1/2-z
1/2-x,1/2+y,1/2-z
1/2-x,1/2-y,-z
1/2+x,y,-z
1/2-x,y,1/2+z
1/2+x,1/2-y,1/2+z
loop_
_atom_site_type_symbol
_atom_site_label
_atom_site_fract_x
_atom_site_fract_y
_atom_site_fract_z
Si Si1 0.725199 0.658585 0.056352
Si Si2 0.914954 0.849024 0.805566
Si Si3 0.910016 0.163443 0.440768
Si Si4 0.441893 0.339378 0.443339
Si Si5 0.777492 0.343927 0.192211
Si Si6 0.437079 0.178972 0.190283
O O1 0.750000 0.500000 0.052162
O O2 0.657339 0.636637 0.056117
O O3 0.737684 0.718691 0.124895
O O4 0.750000 0.750000 0.000000
O O5 0.933388 0.750000 0.750000
O O6 0.927238 0.785619 0.872876
O O7 0.846032 0.861273 0.803482
O O8 0.940228 0.008289 0.800365
O O9 0.918329 0.277661 0.493853
O O10 0.942788 0.011852 0.449216
O O11 0.500000 0.250000 0.437880
O O12 0.410715 0.306028 0.378133
O O13 0.758919 0.250000 0.250000
O O14 0.750000 0.500000 0.195679
O O15 0.500000 0.250000 0.187890
O O16 0.408140 0.250000 0.250000
#
# Coordination Sequence:
#
# PCOD9506655 Si02
#       6
#    16  16  16  16  16  16
#     4  10  20  35  54  77 109 143 175 218 267 317
#     4   9  19  36  55  78 109 141 176 221 270 318
#     4  10  20  35  55  80 108 139 179 219 264 322
#     4  10  20  35  55  78 107 140 176 222 268 316
#     4   9  19  35  54  78 107 140 179 222 267 317
#     4   9  19  36  55  77 105 138 179 222 265 319
#
# _framework density 20.100691999999999
#
# number of rings (size 3 to 8) (size 9 to 14) (size 15 to 20)
#    0.000    2.500    0.000    1.500    0.000    4.000 
#    0.000    8.333    0.000    0.000    0.000    0.000 
#    0.000    0.000    0.000    0.000    0.000    0.000 
#
# Total GULP energy -267459.377785 kJ/mol
# GULP energy per Si atom -5572.070371 kJ/mol
# Density = 2.005494 g / cm^3
# Si number density = 20.100692 Si / 1000 Ang^3
#
#
#
# Elastic Constant Matrix: (Units=GPa)
#
#
# Indices 1 2 3 4 5 6 
#
# 1 40.2083 12.6746 24.2299 0.0000 0.0000 0.0000
# 2 12.6746 77.8845 86.2953 0.0000 0.0000 0.0000
# 3 24.2299 86.2953 204.4185 0.0000 0.0000 0.0000
# 4 0.0000 0.0000 0.0000 41.7077 0.0000 0.0000
# 5 0.0000 0.0000 0.0000 0.0000 21.1453 0.0000
# 6 0.0000 0.0000 0.0000 0.0000 0.0000 24.5697
#
#
#
# Elastic Compliance Matrix: (Units=1/GPa)
#
#
# Indices 1 2 3 4 5 6 
#
# 1 0.026887 -0.001586 -0.002517 0.000000 0.000000 0.000000
# 2 -0.001586 0.024216 -0.010035 0.000000 0.000000 0.000000
# 3 -0.002517 -0.010035 0.009427 0.000000 0.000000 0.000000
# 4 0.000000 0.000000 0.000000 0.023976 0.000000 0.000000
# 5 0.000000 0.000000 0.000000 0.000000 0.047292 0.000000
# 6 0.000000 0.000000 0.000000 0.000000 0.000000 0.040701
#
#
# Mechanical properties :
#
#
# Convention : Reuss Voigt Hill
#
# Bulk Modulus (GPa) = 31.00477 63.21231 47.10854
# Shear Modulus (GPa) = 23.63764 30.77198 27.20481
#
# Velocity S-wave (km/s) = 3.43295 3.91691 3.68289
# Velocity P-wave (km/s) = 5.58317 7.20918 6.44764
#
# Compressibility (1/GPa) = 0.03225310
#
# Stress axis : x y z
#
# Youngs Moduli (GPa) = 37.19204 41.29471 106.08388
#
# Poissons Ratio (x) = 0.06551 0.26704
# Poissons Ratio (y) = 0.05900 1.06453
# Poissons Ratio (z) = 0.09362 0.41439
#
# Static dielectric constant tensor:
#      x y z
#    x 1.058560 0.000000 0.000000 
#    y 0.000000 1.694880 0.000000 
#    z 0.000000 0.000000 1.797250 
# 
# From -- ./inp_files/41227.got.cif
#   From: 2010.05.17/outbox.cif.g08.bks.cpg/sg68_21_cif.got.tgz:41227.got - 2010.06.03 18:57:09.
