data_PCOD9506715
_publ_section_title
;
Structure prediction by ZEFSAII (Michael W. Deem and Ramdas Pophale) SiO2 
 PCOD9506715
Probable space group: C C C A
;
_chemical_formula_sum "Si O2"
_cell_formula_units_Z 112
_cell_length_a 22.747564
_cell_length_b 14.633140
_cell_length_c 17.076127
_cell_angle_alpha 90.000000
_cell_angle_beta 90.000000
_cell_angle_gamma 90.000000
_cell_volume 5684.101172
_symmetry_space_group_name_H-M "C C C A"
_symmetry_group_IT_number 68
_space_group.IT_coordinate_system_code '2'
_symmetry_cell_setting 'orthorhombic'
loop_
_space_group_symop_operation_xyz
x,y,z
-x,1/2-y,z
x,1/2-y,1/2-z
-x,y,1/2-z
-x,-y,-z
x,1/2+y,-z
-x,1/2+y,1/2+z
x,-y,1/2+z
1/2+x,1/2+y,z
1/2-x,-y,z
1/2+x,-y,1/2-z
1/2-x,1/2+y,1/2-z
1/2-x,1/2-y,-z
1/2+x,y,-z
1/2-x,y,1/2+z
1/2+x,1/2-y,1/2+z
loop_
_atom_site_type_symbol
_atom_site_label
_atom_site_fract_x
_atom_site_fract_y
_atom_site_fract_z
Si Si1 0.890194 0.602706 0.443080
Si Si2 0.672904 0.837792 0.709633
Si Si3 0.117147 0.555548 0.435391
Si Si4 0.681890 0.489054 0.697045
Si Si5 0.494348 0.140246 0.157623
Si Si6 0.811911 0.324500 0.310082
Si Si7 0.820066 0.774013 0.511679
O O1 0.847705 0.614069 0.368777
O O2 0.892936 0.505301 0.486721
O O3 0.863688 0.688172 0.494038
O O4 0.952496 0.614860 0.400576
O O5 0.643256 0.750000 0.750000
O O6 0.740981 0.816297 0.693223
O O7 0.664378 0.911840 0.775301
O O8 0.145205 0.476462 0.380358
O O9 0.062385 0.599588 0.388161
O O10 0.160483 0.640236 0.457102
O O11 0.750000 0.500000 0.676779
O O12 0.674230 0.420085 0.768452
O O13 0.500000 0.250000 0.160739
O O14 0.500000 0.109018 0.250000
O O15 0.836729 0.250000 0.250000
O O16 0.829101 0.306533 0.398835
O O17 0.750000 0.750000 0.500000
#
# Coordination Sequence:
#
# PCOD9506715 Si02
#       7
#    16  16  16  16  16  16  16
#     4  12  24  41  69  98 136 173 225 286 344 396
#     4  10  20  35  60  90 129 174 221 266 319 389
#     4  12  26  43  68  99 139 174 226 287 348 400
#     4  10  22  36  59  91 129 177 219 263 323 403
#     4  11  25  47  73  99 127 178 239 292 344 399
#     4  10  21  38  57  88 136 181 215 255 322 412
#     4  12  25  40  64 101 140 180 221 274 345 406
#
# _framework density 19.704083000000001
#
# number of rings (size 3 to 8) (size 9 to 14) (size 15 to 20)
#    0.000    1.000    2.857    3.857    8.000    0.000 
#    0.000    0.000    0.000    0.000    0.000    2.000 
#    0.000    0.000    0.000    0.000    0.000    0.000 
#
# Total GULP energy -311814.094321 kJ/mol
# GULP energy per Si atom -5568.108827 kJ/mol
# Density = 1.965924 g / cm^3
# Si number density = 19.704083 Si / 1000 Ang^3
#
#
#
# Elastic Constant Matrix: (Units=GPa)
#
#
# Indices 1 2 3 4 5 6 
#
# 1 829.3392 -728.6332 -86.2951 0.0000 0.0000 0.0000
# 2 -728.6332 937.5018 206.9327 0.0000 0.0000 0.0000
# 3 -86.2951 206.9327 166.8893 0.0000 0.0000 0.0000
# 4 0.0000 0.0000 0.0000 49.9281 0.0000 0.0000
# 5 0.0000 0.0000 0.0000 0.0000 32.4602 0.0000
# 6 0.0000 0.0000 0.0000 0.0000 0.0000 20.4656
#
#
#
# Elastic Compliance Matrix: (Units=1/GPa)
#
#
# Indices 1 2 3 4 5 6 
#
# 1 0.004604 0.004203 -0.002831 0.000000 0.000000 0.000000
# 2 0.004203 0.005306 -0.004405 0.000000 0.000000 0.000000
# 3 -0.002831 -0.004405 0.009991 0.000000 0.000000 0.000000
# 4 0.000000 0.000000 0.000000 0.020029 0.000000 0.000000
# 5 0.000000 0.000000 0.000000 0.000000 0.030807 0.000000
# 6 0.000000 0.000000 0.000000 0.000000 0.000000 0.048863
#
#
# Mechanical properties :
#
#
# Convention : Reuss Voigt Hill
#
# Bulk Modulus (GPa) = 72.28816 79.74879 76.01848
# Shear Modulus (GPa) = 38.37993 190.01916 114.19955
#
# Velocity S-wave (km/s) = 4.41820 9.83086 7.62123
# Velocity P-wave (km/s) = 7.92425 13.01623 10.77534
#
# Compressibility (1/GPa) = 0.01383352
#
# Stress axis : x y z
#
# Youngs Moduli (GPa) = 217.20882 188.47710 100.09355
#
# Poissons Ratio (x) = -0.79217 0.28336
# Poissons Ratio (y) = -0.91293 0.44096
# Poissons Ratio (z) = 0.61490 0.83032
#
# Static dielectric constant tensor:
#      x y z
#    x 1.802340 0.000000 0.000000 
#    y 0.000000 1.839210 0.000000 
#    z 0.000000 0.000000 1.815360 
# 
# From -- ./inp_files/25438.got.cif
#   From: 2010.05.17/outbox.cif.g08.bks.cpg/sg68_13_cif.got.tgz:25438.got - 2010.06.03 18:57:09.
