data_PCOD9506389
_publ_section_title
;
Structure prediction by ZEFSAII (Michael W. Deem and Ramdas Pophale) SiO2 
 PCOD9506389
Probable space group: C C C A
;
_chemical_formula_sum "Si O2"
_cell_formula_units_Z 72
_cell_length_a 8.703094
_cell_length_b 24.326268
_cell_length_c 15.916947
_cell_angle_alpha 90.000000
_cell_angle_beta 90.000000
_cell_angle_gamma 90.000000
_cell_volume 3369.837287
_symmetry_space_group_name_H-M "C C C A"
_symmetry_group_IT_number 68
_space_group.IT_coordinate_system_code '2'
_symmetry_cell_setting 'orthorhombic'
loop_
_space_group_symop_operation_xyz
x,y,z
-x,1/2-y,z
x,1/2-y,1/2-z
-x,y,1/2-z
-x,-y,-z
x,1/2+y,-z
-x,1/2+y,1/2+z
x,-y,1/2+z
1/2+x,1/2+y,z
1/2-x,-y,z
1/2+x,-y,1/2-z
1/2-x,1/2+y,1/2-z
1/2-x,1/2-y,-z
1/2+x,y,-z
1/2-x,y,1/2+z
1/2+x,1/2-y,1/2+z
loop_
_atom_site_type_symbol
_atom_site_label
_atom_site_fract_x
_atom_site_fract_y
_atom_site_fract_z
Si Si1 0.788458 0.056368 0.621924
Si Si2 0.966460 0.406904 0.501794
Si Si3 0.840395 0.653675 0.774779
Si Si4 0.720810 0.837298 0.414386
Si Si5 0.000000 0.250000 0.386169
O O1 0.952923 0.060739 0.577333
O O2 0.658202 0.058880 0.549379
O O3 0.762748 0.112262 0.673097
O O4 0.750000 0.000000 0.669670
O O5 0.099629 0.385113 0.440101
O O6 0.875285 0.354256 0.539194
O O7 0.761686 0.667798 0.686271
O O8 0.000000 0.623684 0.750000
O O9 0.905445 0.705522 0.828764
O O10 0.628153 0.782481 0.437856
#
# Coordination Sequence:
#
# PCOD9506389 Si02
#       5
#    16  16  16  16   8
#     4  11  22  41  61  87 121 163 200 247 306 361
#     4  10  22  39  58  89 125 151 201 254 296 364
#     4  10  19  39  62  86 115 159 206 238 300 370
#     4  10  20  38  60  89 117 157 199 246 301 359
#     4  10  19  38  68  82 120 167 198 245 312 366
#
# _framework density 21.366018
#
# number of rings (size 3 to 8) (size 9 to 14) (size 15 to 20)
#    0.000    1.778    4.444    3.667    0.000    1.778 
#    4.000    1.111    0.000    5.333    0.000    0.000 
#    0.000    0.000    0.000    0.000    0.000    0.000 
#
# Total GULP energy -200656.127135 kJ/mol
# GULP energy per Si atom -5573.781309 kJ/mol
# Density = 2.131739 g / cm^3
# Si number density = 21.366018 Si / 1000 Ang^3
#
#
#
# Elastic Constant Matrix: (Units=GPa)
#
#
# Indices 1 2 3 4 5 6 
#
# 1 54.9286 11.3265 13.1819 0.0000 0.0000 0.0000
# 2 11.3265 91.7383 11.7063 0.0000 0.0000 0.0000
# 3 13.1819 11.7063 30.9665 0.0000 0.0000 0.0000
# 4 0.0000 0.0000 0.0000 6.5893 0.0000 0.0000
# 5 0.0000 0.0000 0.0000 0.0000 -8.2634 0.0000
# 6 0.0000 0.0000 0.0000 0.0000 0.0000 24.2554
#
#
#
# Elastic Compliance Matrix: (Units=1/GPa)
#
#
# Indices 1 2 3 4 5 6 
#
# 1 0.020468 -0.001487 -0.008151 0.000000 0.000000 0.000000
# 2 -0.001487 0.011561 -0.003737 0.000000 0.000000 0.000000
# 3 -0.008151 -0.003737 0.037176 0.000000 0.000000 0.000000
# 4 0.000000 0.000000 0.000000 0.151762 0.000000 0.000000
# 5 0.000000 0.000000 0.000000 0.000000 -0.121015 0.000000
# 6 0.000000 0.000000 0.000000 0.000000 0.000000 0.041228
#
#
# Mechanical properties :
#
#
# Convention : Reuss Voigt Hill
#
# Bulk Modulus (GPa) = 23.55482 27.78477 25.66980
# Shear Modulus (GPa) = 27.46025 13.94415 20.70220
#
# Velocity S-wave (km/s) = 3.58890 2.55744 3.11614
# Velocity P-wave (km/s) = 5.31243 4.66402 4.99875
#
# Compressibility (1/GPa) = 0.04245416
#
# Stress axis : x y z
#
# Youngs Moduli (GPa) = 48.85641 86.49702 26.89940
#
# Poissons Ratio (x) = 0.12862 0.21925
# Poissons Ratio (y) = 0.07265 0.10054
# Poissons Ratio (z) = 0.39822 0.32328
#
# Static dielectric constant tensor:
#      x y z
#    x 1.762300 0.000000 0.000000 
#    y 0.000000 1.859190 0.000000 
#    z 0.000000 0.000000 1.823130 
# 
# From -- ./inp_files/28123.got.cif
#   From: 2010.05.17/outbox.cif.g08.bks.cpg/sg68_15_cif.got.tgz:28123.got - 2010.06.03 18:57:09.
