data_PCOD9506891
_publ_section_title
;
Structure prediction by ZEFSAII (Michael W. Deem and Ramdas Pophale) SiO2 
 PCOD9506891
Probable space group: C C C A
;
_chemical_formula_sum "Si O2"
_cell_formula_units_Z 108
_cell_length_a 20.086103
_cell_length_b 14.770144
_cell_length_c 17.554466
_cell_angle_alpha 90.000000
_cell_angle_beta 90.000000
_cell_angle_gamma 90.000000
_cell_volume 5207.964771
_symmetry_space_group_name_H-M "C C C A"
_symmetry_group_IT_number 68
_space_group.IT_coordinate_system_code '2'
_symmetry_cell_setting 'orthorhombic'
loop_
_space_group_symop_operation_xyz
x,y,z
-x,1/2-y,z
x,1/2-y,1/2-z
-x,y,1/2-z
-x,-y,-z
x,1/2+y,-z
-x,1/2+y,1/2+z
x,-y,1/2+z
1/2+x,1/2+y,z
1/2-x,-y,z
1/2+x,-y,1/2-z
1/2-x,1/2+y,1/2-z
1/2-x,1/2-y,-z
1/2+x,y,-z
1/2-x,y,1/2+z
1/2+x,1/2-y,1/2+z
loop_
_atom_site_type_symbol
_atom_site_label
_atom_site_fract_x
_atom_site_fract_y
_atom_site_fract_z
Si Si1 0.250000 0.000000 0.483070
Si Si2 0.927039 0.772197 0.037072
Si Si3 0.186842 0.431815 0.738996
Si Si4 0.112137 0.033577 0.903150
Si Si5 0.000000 0.250000 0.250000
Si Si6 0.582439 0.839181 0.114436
Si Si7 0.781313 0.287088 0.328080
Si Si8 0.308756 0.645889 0.901816
O O1 0.188251 0.967775 0.433183
O O2 0.217371 0.077352 0.535075
O O3 0.868110 0.711451 0.072543
O O4 0.000000 0.750000 0.068588
O O5 0.916376 0.877438 0.056221
O O6 0.927327 0.739161 0.948748
O O7 0.250000 0.500000 0.739282
O O8 0.124071 0.460082 0.688185
O O9 0.217560 0.342819 0.699393
O O10 0.170484 0.408537 0.825962
O O11 0.070847 0.940933 0.917140
O O12 0.956797 0.188269 0.191152
O O13 0.661520 0.842326 0.131474
O O14 0.812235 0.250000 0.250000
O O15 0.754741 0.206818 0.379654
#
# Coordination Sequence:
#
# PCOD9506891 Si02
#       8
#     8  16  16  16   4  16  16  16
#     4  12  22  40  70 110 138 176 240 306 374 428
#     4  12  28  50  68  98 150 199 242 296 355 441
#     4  11  20  39  65 102 139 169 230 295 367 423
#     4  12  25  43  73 105 137 189 237 301 366 428
#     4  12  28  52  72 108 142 198 242 296 372 436
#     4  12  24  48  73 103 143 185 245 296 362 434
#     4  10  20  36  68  99 132 175 222 300 357 411
#     4  11  24  41  67 105 142 188 236 299 374 433
#
# _framework density 20.737468
#
# number of rings (size 3 to 8) (size 9 to 14) (size 15 to 20)
#    0.000    0.593    7.407    0.889    0.000    1.778 
#    5.333    0.741    0.000    0.000    0.000    0.000 
#    0.000    0.000    0.000    0.000    0.000    0.000 
#
# Total GULP energy -301525.505454 kJ/mol
# GULP energy per Si atom -5583.805657 kJ/mol
# Density = 2.069027 g / cm^3
# Si number density = 20.737468 Si / 1000 Ang^3
#
#
#
# Elastic Constant Matrix: (Units=GPa)
#
#
# Indices 1 2 3 4 5 6 
#
# 1 76.7461 34.5358 24.7149 0.0000 0.0000 0.0000
# 2 34.5358 125.4383 53.9374 0.0000 0.0000 0.0000
# 3 24.7149 53.9374 114.4765 0.0000 0.0000 0.0000
# 4 0.0000 0.0000 0.0000 15.3609 0.0000 0.0000
# 5 0.0000 0.0000 0.0000 0.0000 -121.7894 0.0000
# 6 0.0000 0.0000 0.0000 0.0000 0.0000 16.5020
#
#
#
# Elastic Compliance Matrix: (Units=1/GPa)
#
#
# Indices 1 2 3 4 5 6 
#
# 1 0.015112 -0.003458 -0.001633 0.000000 0.000000 0.000000
# 2 -0.003458 0.010789 -0.004337 0.000000 0.000000 0.000000
# 3 -0.001633 -0.004337 0.011131 0.000000 0.000000 0.000000
# 4 0.000000 0.000000 0.000000 0.065100 0.000000 0.000000
# 5 0.000000 0.000000 0.000000 0.000000 -0.008211 0.000000
# 6 0.000000 0.000000 0.000000 0.000000 0.000000 0.060599
#
#
# Mechanical properties :
#
#
# Convention : Reuss Voigt Hill
#
# Bulk Modulus (GPa) = 55.01810 60.33747 57.67779
# Shear Modulus (GPa) = 27.86508 -4.42044 11.72232
#
# Velocity S-wave (km/s) = 3.66964 -1.46159 2.38013
# Velocity P-wave (km/s) = 6.67408 5.12940 5.95206
#
# Compressibility (1/GPa) = 0.01817584
#
# Stress axis : x y z
#
# Youngs Moduli (GPa) = 66.17164 92.68700 89.83650
#
# Poissons Ratio (x) = 0.32056 0.14672
# Poissons Ratio (y) = 0.22885 0.38960
# Poissons Ratio (z) = 0.10807 0.40196
#
# Static dielectric constant tensor:
#      x y z
#    x 1.710060 0.000000 0.000000 
#    y 0.000000 1.817890 0.000000 
#    z 0.000000 0.000000 1.777060 
# 
# From -- ./inp_files/25525.got.cif
#   From: 2010.05.17/outbox.cif.g08.bks.cpg/sg68_13_cif.got.tgz:25525.got - 2010.06.03 18:57:09.
