data_PCOD9506913
_publ_section_title
;
Structure prediction by ZEFSAII (Michael W. Deem and Ramdas Pophale) SiO2 
 PCOD9506913
Probable space group: C C C A
;
_chemical_formula_sum "Si O2"
_cell_formula_units_Z 72
_cell_length_a 8.707285
_cell_length_b 31.885740
_cell_length_c 12.913336
_cell_angle_alpha 90.000000
_cell_angle_beta 90.000000
_cell_angle_gamma 90.000000
_cell_volume 3585.235694
_symmetry_space_group_name_H-M "C C C A"
_symmetry_group_IT_number 68
_space_group.IT_coordinate_system_code '2'
_symmetry_cell_setting 'orthorhombic'
loop_
_space_group_symop_operation_xyz
x,y,z
-x,1/2-y,z
x,1/2-y,1/2-z
-x,y,1/2-z
-x,-y,-z
x,1/2+y,-z
-x,1/2+y,1/2+z
x,-y,1/2+z
1/2+x,1/2+y,z
1/2-x,-y,z
1/2+x,-y,1/2-z
1/2-x,1/2+y,1/2-z
1/2-x,1/2-y,-z
1/2+x,y,-z
1/2-x,y,1/2+z
1/2+x,1/2-y,1/2+z
loop_
_atom_site_type_symbol
_atom_site_label
_atom_site_fract_x
_atom_site_fract_y
_atom_site_fract_z
Si Si1 0.500000 0.000292 0.750000
Si Si2 0.000000 0.250000 0.467332
Si Si3 0.716023 0.282469 0.348010
Si Si4 0.463626 0.925697 0.610456
Si Si5 0.000000 0.851373 0.250000
Si Si6 0.299642 0.544809 0.082803
O O1 0.393181 0.029533 0.818263
O O2 0.414201 0.967280 0.674192
O O3 0.109877 0.221481 0.393280
O O4 0.113236 0.272711 0.549495
O O5 0.703852 0.250000 0.250000
O O6 0.634722 0.323680 0.300983
O O7 0.424774 0.882778 0.666451
O O8 0.401167 0.929603 0.496167
O O9 0.647310 0.930147 0.608831
O O10 0.250000 0.500000 0.033279
#
# Coordination Sequence:
#
# PCOD9506913 Si02
#       6
#     8   8  16  16   8  16
#     4   9  18  34  59  82 117 166 223 268 303 370
#     4  10  22  38  76  98 118 162 228 244 320 388
#     4  11  21  44  67  99 127 167 210 267 311 398
#     4  10  23  36  57  90 123 169 205 265 333 369
#     4  11  23  40  61  88 142 160 194 270 337 372
#     4  10  20  37  59  85 118 167 227 263 309 378
#
# _framework density 20.082362
#
# number of rings (size 3 to 8) (size 9 to 14) (size 15 to 20)
#    0.000    1.778    2.222    3.000    0.000   13.333 
#    0.000    0.000    9.778    0.000    0.000    0.000 
#    0.000    0.000    0.000    0.000    0.000    0.000 
#
# Total GULP energy -200585.976569 kJ/mol
# GULP energy per Si atom -5571.832682 kJ/mol
# Density = 2.003665 g / cm^3
# Si number density = 20.082362 Si / 1000 Ang^3
#
#
#
# Elastic Constant Matrix: (Units=GPa)
#
#
# Indices 1 2 3 4 5 6 
#
# 1 109.7326 56.8423 78.7756 0.0000 0.0000 0.0000
# 2 56.8423 81.5316 62.9629 0.0000 0.0000 0.0000
# 3 78.7756 62.9629 140.3648 0.0000 0.0000 0.0000
# 4 0.0000 0.0000 0.0000 -85.1566 0.0000 0.0000
# 5 0.0000 0.0000 0.0000 0.0000 30.0412 0.0000
# 6 0.0000 0.0000 0.0000 0.0000 0.0000 15.7552
#
#
#
# Elastic Compliance Matrix: (Units=1/GPa)
#
#
# Indices 1 2 3 4 5 6 
#
# 1 0.017592 -0.007100 -0.006688 0.000000 0.000000 0.000000
# 2 -0.007100 0.021631 -0.005718 0.000000 0.000000 0.000000
# 3 -0.006688 -0.005718 0.013443 0.000000 0.000000 0.000000
# 4 0.000000 0.000000 0.000000 -0.011743 0.000000 0.000000
# 5 0.000000 0.000000 0.000000 0.000000 0.033288 0.000000
# 6 0.000000 0.000000 0.000000 0.000000 0.000000 0.063471
#
#
# Mechanical properties :
#
#
# Convention : Reuss Voigt Hill
#
# Bulk Modulus (GPa) = 73.24332 80.97672 77.11002
# Shear Modulus (GPa) = 27.58668 0.99783 14.29226
#
# Velocity S-wave (km/s) = 3.71034 0.70566 2.67063
# Velocity P-wave (km/s) = 7.40986 6.40888 6.92748
#
# Compressibility (1/GPa) = 0.01365312
#
# Stress axis : x y z
#
# Youngs Moduli (GPa) = 56.84270 46.22964 74.38793
#
# Poissons Ratio (x) = 0.32823 0.49754
# Poissons Ratio (y) = 0.40358 0.42538
# Poissons Ratio (z) = 0.38019 0.26436
#
# Static dielectric constant tensor:
#      x y z
#    x 1.931560 0.000000 0.000000 
#    y 0.000000 1.699160 0.000000 
#    z 0.000000 0.000000 1.741350 
# 
# From -- ./inp_files/19520.got.cif
#   From: 2010.05.17/outbox.cif.g08.bks.cpg/sg68_10_cif.got.tgz:19520.got - 2010.06.03 18:57:09.
