data_PCOD9506162
_publ_section_title
;
Structure prediction by ZEFSAII (Michael W. Deem and Ramdas Pophale) SiO2 
 PCOD9506162
Probable space group: C C C A
;
_chemical_formula_sum "Si O2"
_cell_formula_units_Z 112
_cell_length_a 14.921491
_cell_length_b 14.705129
_cell_length_c 24.041630
_cell_angle_alpha 90.000000
_cell_angle_beta 90.000000
_cell_angle_gamma 90.000000
_cell_volume 5275.273357
_symmetry_space_group_name_H-M "C C C A"
_symmetry_group_IT_number 68
_space_group.IT_coordinate_system_code '2'
_symmetry_cell_setting 'orthorhombic'
loop_
_space_group_symop_operation_xyz
x,y,z
-x,1/2-y,z
x,1/2-y,1/2-z
-x,y,1/2-z
-x,-y,-z
x,1/2+y,-z
-x,1/2+y,1/2+z
x,-y,1/2+z
1/2+x,1/2+y,z
1/2-x,-y,z
1/2+x,-y,1/2-z
1/2-x,1/2+y,1/2-z
1/2-x,1/2-y,-z
1/2+x,y,-z
1/2-x,y,1/2+z
1/2+x,1/2-y,1/2+z
loop_
_atom_site_type_symbol
_atom_site_label
_atom_site_fract_x
_atom_site_fract_y
_atom_site_fract_z
Si Si1 0.201400 0.294825 0.141689
Si Si2 0.466509 0.645573 0.192688
Si Si3 0.057320 0.388490 0.526927
Si Si4 0.102424 0.115803 0.100249
Si Si5 0.824091 0.063582 0.047766
Si Si6 0.356423 0.582537 0.930959
Si Si7 0.104354 0.258578 0.627720
O O1 0.139655 0.344435 0.187379
O O2 0.163483 0.193104 0.128902
O O3 0.172693 0.348322 0.085340
O O4 0.306900 0.302058 0.155913
O O5 0.500000 0.750000 0.192066
O O6 0.500000 0.602696 0.250000
O O7 0.514762 0.603350 0.139035
O O8 0.073918 0.360648 0.463112
O O9 0.098456 0.488133 0.539654
O O10 0.095874 0.314599 0.569819
O O11 0.953568 0.397347 0.541454
O O12 0.148010 0.017628 0.094014
O O13 0.750000 0.000000 0.075554
O O14 0.793860 0.092411 0.985229
O O15 0.356748 0.658945 0.884810
O O16 0.000000 0.250000 0.648999
#
# Coordination Sequence:
#
# PCOD9506162 Si02
#       7
#    16  16  16  16  16  16  16
#     4  11  21  34  55  83 115 149 192 239 285 343
#     4   9  19  37  61  91 108 133 181 247 314 346
#     4  10  19  35  48  75 122 162 193 230 274 341
#     4  10  20  33  55  84 114 151 189 240 297 347
#     4  11  20  30  49  78 116 154 197 230 277 335
#     4  10  21  32  48  74 119 162 193 229 274 343
#     4  10  22  35  49  76 119 165 196 224 265 336
#
# _framework density 21.231127000000001
#
# number of rings (size 3 to 8) (size 9 to 14) (size 15 to 20)
#    0.000    1.857    1.429    4.286    4.000    5.143 
#    0.000    0.000    0.000    0.000   14.857    8.000 
#    0.000    4.571    0.000    0.000    0.000    0.000 
#
# Total GULP energy -311949.313398 kJ/mol
# GULP energy per Si atom -5570.523454 kJ/mol
# Density = 2.118280 g / cm^3
# Si number density = 21.231127 Si / 1000 Ang^3
#
#
#
# Elastic Constant Matrix: (Units=GPa)
#
#
# Indices 1 2 3 4 5 6 
#
# 1 147.5194 0.8025 42.2171 0.0000 0.0000 0.0000
# 2 0.8025 74.3343 4.0371 0.0000 0.0000 0.0000
# 3 42.2171 4.0371 38.9023 0.0000 0.0000 0.0000
# 4 0.0000 0.0000 0.0000 3.3123 0.0000 0.0000
# 5 0.0000 0.0000 0.0000 0.0000 7.8352 0.0000
# 6 0.0000 0.0000 0.0000 0.0000 0.0000 22.2978
#
#
#
# Elastic Compliance Matrix: (Units=1/GPa)
#
#
# Indices 1 2 3 4 5 6 
#
# 1 0.009849 0.000477 -0.010738 0.000000 0.000000 0.000000
# 2 0.000477 0.013552 -0.001924 0.000000 0.000000 0.000000
# 3 -0.010738 -0.001924 0.037558 0.000000 0.000000 0.000000
# 4 0.000000 0.000000 0.000000 0.301907 0.000000 0.000000
# 5 0.000000 0.000000 0.000000 0.000000 0.127629 0.000000
# 6 0.000000 0.000000 0.000000 0.000000 0.000000 0.044848
#
#
# Mechanical properties :
#
#
# Convention : Reuss Voigt Hill
#
# Bulk Modulus (GPa) = 27.33033 39.42993 33.38013
# Shear Modulus (GPa) = 8.74264 20.93567 14.83916
#
# Velocity S-wave (km/s) = 2.03145 3.14360 2.64660
# Velocity P-wave (km/s) = 4.28988 5.63812 5.00957
#
# Compressibility (1/GPa) = 0.03658938
#
# Stress axis : x y z
#
# Youngs Moduli (GPa) = 101.53184 73.78948 26.62563
#
# Poissons Ratio (x) = -0.03519 0.28590
# Poissons Ratio (y) = -0.04841 0.05122
# Poissons Ratio (z) = 1.09023 0.14196
#
# Static dielectric constant tensor:
#      x y z
#    x 1.933680 0.000000 0.000000 
#    y 0.000000 1.803530 0.000000 
#    z 0.000000 0.000000 1.823860 
# 
# From -- ./inp_files/45535.got.cif
#   From: 2010.05.17/outbox.cif.g08.bks.cpg/sg68_23_cif.got.tgz:45535.got - 2010.06.03 18:57:09.
