data_PCOD9506905
_publ_section_title
;
Structure prediction by ZEFSAII (Michael W. Deem and Ramdas Pophale) SiO2 
 PCOD9506905
Probable space group: C C C A
;
_chemical_formula_sum "Si O2"
_cell_formula_units_Z 80
_cell_length_a 26.991093
_cell_length_b 14.041325
_cell_length_c 8.296591
_cell_angle_alpha 90.000000
_cell_angle_beta 90.000000
_cell_angle_gamma 90.000000
_cell_volume 3144.330905
_symmetry_space_group_name_H-M "C C C A"
_symmetry_group_IT_number 68
_space_group.IT_coordinate_system_code '2'
_symmetry_cell_setting 'orthorhombic'
loop_
_space_group_symop_operation_xyz
x,y,z
-x,1/2-y,z
x,1/2-y,1/2-z
-x,y,1/2-z
-x,-y,-z
x,1/2+y,-z
-x,1/2+y,1/2+z
x,-y,1/2+z
1/2+x,1/2+y,z
1/2-x,-y,z
1/2+x,-y,1/2-z
1/2-x,1/2+y,1/2-z
1/2-x,1/2-y,-z
1/2+x,y,-z
1/2-x,y,1/2+z
1/2+x,1/2-y,1/2+z
loop_
_atom_site_type_symbol
_atom_site_label
_atom_site_fract_x
_atom_site_fract_y
_atom_site_fract_z
Si Si1 0.615598 0.363608 0.934853
Si Si2 0.551100 0.708844 0.932770
Si Si3 0.228484 0.395945 0.003905
Si Si4 0.409685 0.040780 0.281160
Si Si5 0.683987 0.651483 0.826631
O O1 0.594562 0.257493 0.961626
O O2 0.675305 0.369466 0.917163
O O3 0.598482 0.419814 0.100015
O O4 0.590414 0.427750 0.796695
O O5 0.500000 0.750000 0.999737
O O6 0.555958 0.750000 0.750000
O O7 0.549892 0.596919 0.888411
O O8 0.250000 0.500000 0.043361
O O9 0.215526 0.393631 0.817021
O O10 0.276416 0.331255 0.036635
O O11 0.359787 0.080860 0.367926
O O12 0.664834 0.750000 0.750000
#
# Coordination Sequence:
#
# PCOD9506905 Si02
#       5
#    16  16  16  16  16
#     4  10  21  36  59  84 115 152 188 235 285 338
#     4   9  19  38  61  83 109 146 192 239 287 343
#     4  11  21  35  54  79 116 152 189 227 277 333
#     4  10  20  37  58  84 114 147 191 234 281 342
#     4  11  22  35  54  81 114 152 192 231 274 332
#
# _framework density 25.442613000000001
#
# number of rings (size 3 to 8) (size 9 to 14) (size 15 to 20)
#    0.000    1.800    2.000    4.200    2.800    0.800 
#    0.000    1.000    0.000    1.200    0.000    0.000 
#    0.000    0.000    0.000    0.000    0.000    0.000 
#
# Total GULP energy -223294.935290 kJ/mol
# GULP energy per Si atom -5582.373382 kJ/mol
# Density = 2.538470 g / cm^3
# Si number density = 25.442613 Si / 1000 Ang^3
#
#
#
# Elastic Constant Matrix: (Units=GPa)
#
#
# Indices 1 2 3 4 5 6 
#
# 1 90.1817 -1.1158 -2.7484 0.0000 0.0000 0.0000
# 2 -1.1158 82.1011 4.2533 0.0000 0.0000 0.0000
# 3 -2.7484 4.2533 15.8835 0.0000 0.0000 0.0000
# 4 0.0000 0.0000 0.0000 29.8146 0.0000 0.0000
# 5 0.0000 0.0000 0.0000 0.0000 3.8065 0.0000
# 6 0.0000 0.0000 0.0000 0.0000 0.0000 25.9937
#
#
#
# Elastic Compliance Matrix: (Units=1/GPa)
#
#
# Indices 1 2 3 4 5 6 
#
# 1 0.011148 0.000052 0.001915 0.000000 0.000000 0.000000
# 2 0.000052 0.012352 -0.003298 0.000000 0.000000 0.000000
# 3 0.001915 -0.003298 0.064173 0.000000 0.000000 0.000000
# 4 0.000000 0.000000 0.000000 0.033541 0.000000 0.000000
# 5 0.000000 0.000000 0.000000 0.000000 0.262708 0.000000
# 6 0.000000 0.000000 0.000000 0.000000 0.000000 0.038471
#
#
# Mechanical properties :
#
#
# Convention : Reuss Voigt Hill
#
# Bulk Modulus (GPa) = 11.76333 20.99383 16.37858
# Shear Modulus (GPa) = 11.02800 24.44146 17.73473
#
# Velocity S-wave (km/s) = 2.08420 3.10280 2.64303
# Velocity P-wave (km/s) = 3.22883 4.59411 3.97059
#
# Compressibility (1/GPa) = 0.08500997
#
# Stress axis : x y z
#
# Youngs Moduli (GPa) = 89.70438 80.96059 15.58288
#
# Poissons Ratio (x) = -0.00423 -0.02984
# Poissons Ratio (y) = -0.00469 0.05140
# Poissons Ratio (z) = -0.17178 0.26705
#
# Static dielectric constant tensor:
#      x y z
#    x 2.147370 0.000000 0.000000 
#    y 0.000000 2.155520 0.000000 
#    z 0.000000 0.000000 2.038680 
# 
# From -- ./inp_files/16241.got.cif
#   From: 2010.05.17/outbox.cif.g08.bks.cpg/sg68_9_cif.got.tgz:16241.got - 2010.06.03 18:57:09.
