data_PCOD9506217
_publ_section_title
;
Structure prediction by ZEFSAII (Michael W. Deem and Ramdas Pophale) SiO2 
 PCOD9506217
Probable space group: C C C A
;
_chemical_formula_sum "Si O2"
_cell_formula_units_Z 40
_cell_length_a 21.604415
_cell_length_b 5.395830
_cell_length_c 14.116398
_cell_angle_alpha 90.000000
_cell_angle_beta 90.000000
_cell_angle_gamma 90.000000
_cell_volume 1645.601460
_symmetry_space_group_name_H-M "C C C A"
_symmetry_group_IT_number 68
_space_group.IT_coordinate_system_code '2'
_symmetry_cell_setting 'orthorhombic'
loop_
_space_group_symop_operation_xyz
x,y,z
-x,1/2-y,z
x,1/2-y,1/2-z
-x,y,1/2-z
-x,-y,-z
x,1/2+y,-z
-x,1/2+y,1/2+z
x,-y,1/2+z
1/2+x,1/2+y,z
1/2-x,-y,z
1/2+x,-y,1/2-z
1/2-x,1/2+y,1/2-z
1/2-x,1/2-y,-z
1/2+x,y,-z
1/2-x,y,1/2+z
1/2+x,1/2-y,1/2+z
loop_
_atom_site_type_symbol
_atom_site_label
_atom_site_fract_x
_atom_site_fract_y
_atom_site_fract_z
Si Si1 0.878130 0.654491 0.111832
Si Si2 0.570169 0.665072 0.399637
Si Si3 0.750000 0.500000 0.192516
O O1 0.905528 0.403613 0.154354
O O2 0.805752 0.624033 0.132692
O O3 0.913465 0.901169 0.145504
O O4 0.893520 0.648313 0.999871
O O5 0.500000 0.750000 0.421471
O O6 0.771745 0.250000 0.250000
#
# Coordination Sequence:
#
# PCOD9506217 Si02
#       3
#    16  16   8
#     4  10  20  35  59  86 120 153 191 246 306 358
#     4  10  19  35  64  98 119 138 180 257 334 371
#     4  12  26  42  56  78 120 174 220 244 272 344
#
# _framework density 24.307221999999999
#
# number of rings (size 3 to 8) (size 9 to 14) (size 15 to 20)
#    0.000    1.600    0.000    8.400    0.000    6.400 
#    0.000    0.000    0.000   28.800    0.000    0.000 
#    0.000    0.000    0.000    0.000    0.000    0.000 
#
# Total GULP energy -111426.406533 kJ/mol
# GULP energy per Si atom -5571.320327 kJ/mol
# Density = 2.425190 g / cm^3
# Si number density = 24.307222 Si / 1000 Ang^3
#
#
#
# Elastic Constant Matrix: (Units=GPa)
#
#
# Indices 1 2 3 4 5 6 
#
# 1 189.5742 61.4540 44.8089 0.0000 0.0000 0.0000
# 2 61.4540 293.7458 37.3434 0.0000 0.0000 0.0000
# 3 44.8089 37.3434 83.5171 0.0000 0.0000 0.0000
# 4 0.0000 0.0000 0.0000 23.6699 0.0000 0.0000
# 5 0.0000 0.0000 0.0000 0.0000 -312.1928 0.0000
# 6 0.0000 0.0000 0.0000 0.0000 0.0000 -14.3250
#
#
#
# Elastic Compliance Matrix: (Units=1/GPa)
#
#
# Indices 1 2 3 4 5 6 
#
# 1 0.006276 -0.000938 -0.002948 0.000000 0.000000 0.000000
# 2 -0.000938 0.003750 -0.001173 0.000000 0.000000 0.000000
# 3 -0.002948 -0.001173 0.014080 0.000000 0.000000 0.000000
# 4 0.000000 0.000000 0.000000 0.042248 0.000000 0.000000
# 5 0.000000 0.000000 0.000000 0.000000 -0.003203 0.000000
# 6 0.000000 0.000000 0.000000 0.000000 0.000000 -0.069808
#
#
# Mechanical properties :
#
#
# Convention : Reuss Voigt Hill
#
# Bulk Modulus (GPa) = 71.49477 94.89440 83.19458
# Shear Modulus (GPa) = 615.57875 -32.35420 291.61227
#
# Velocity S-wave (km/s) = 15.93107 -3.65232 10.96494
# Velocity P-wave (km/s) = 19.18008 4.61935 13.95016
#
# Compressibility (1/GPa) = 0.01398704
#
# Stress axis : x y z
#
# Youngs Moduli (GPa) = 159.34123 266.68485 71.02440
#
# Poissons Ratio (x) = 0.25021 0.20935
# Poissons Ratio (y) = 0.14950 0.08333
# Poissons Ratio (z) = 0.46968 0.31289
#
# Static dielectric constant tensor:
#      x y z
#    x 2.068730 0.000000 0.000000 
#    y 0.000000 2.039610 0.000000 
#    z 0.000000 0.000000 2.337270 
# 
# From -- ./inp_files/24881.got.cif
#   From: 2010.05.17/outbox.cif.g08.bks.cpg/sg68_13_cif.got.tgz:24881.got - 2010.06.03 18:57:09.
