data_PCOD9506664
_publ_section_title
;
Structure prediction by ZEFSAII (Michael W. Deem and Ramdas Pophale) SiO2 
 PCOD9506664
Probable space group: C C C A
;
_chemical_formula_sum "Si O2"
_cell_formula_units_Z 72
_cell_length_a 8.198509
_cell_length_b 25.414202
_cell_length_c 16.779437
_cell_angle_alpha 90.000000
_cell_angle_beta 90.000000
_cell_angle_gamma 90.000000
_cell_volume 3496.139395
_symmetry_space_group_name_H-M "C C C A"
_symmetry_group_IT_number 68
_space_group.IT_coordinate_system_code '2'
_symmetry_cell_setting 'orthorhombic'
loop_
_space_group_symop_operation_xyz
x,y,z
-x,1/2-y,z
x,1/2-y,1/2-z
-x,y,1/2-z
-x,-y,-z
x,1/2+y,-z
-x,1/2+y,1/2+z
x,-y,1/2+z
1/2+x,1/2+y,z
1/2-x,-y,z
1/2+x,-y,1/2-z
1/2-x,1/2+y,1/2-z
1/2-x,1/2-y,-z
1/2+x,y,-z
1/2-x,y,1/2+z
1/2+x,1/2-y,1/2+z
loop_
_atom_site_type_symbol
_atom_site_label
_atom_site_fract_x
_atom_site_fract_y
_atom_site_fract_z
Si Si1 0.000000 0.860219 0.250000
Si Si2 0.840333 0.192809 0.292071
Si Si3 0.657056 0.121344 0.928896
Si Si4 0.027413 0.416181 0.592288
Si Si5 0.061868 0.979751 0.659198
O O1 0.158041 0.828145 0.222876
O O2 0.928420 0.895480 0.179358
O O3 0.836634 0.250000 0.250000
O O4 0.866387 0.177922 0.385855
O O5 0.000000 0.167313 0.250000
O O6 0.841902 0.102418 0.918855
O O7 0.554970 0.077776 0.879538
O O8 0.619905 0.112510 0.021277
O O9 0.032233 0.479111 0.601517
O O10 0.000000 0.980341 0.750000
O O11 0.250000 0.000000 0.660877
#
# Coordination Sequence:
#
# PCOD9506664 Si02
#       5
#     8  16  16  16  16
#     4  10  21  40  66  90 126 168 205 256 326 382
#     4  10  22  41  66  90 120 162 213 262 320 374
#     4  10  22  36  59  90 120 164 207 261 316 375
#     4  10  21  37  58  89 128 160 206 255 314 381
#     4  10  20  35  55  88 124 165 211 245 314 383
#
# _framework density 20.594142999999999
#
# number of rings (size 3 to 8) (size 9 to 14) (size 15 to 20)
#    0.000    2.000    1.111    1.667    3.111    1.778 
#    0.000    1.111    4.889    0.000    0.000    0.000 
#    0.000    0.000    0.000    0.000    0.000    0.000 
#
# Total GULP energy -200408.535582 kJ/mol
# GULP energy per Si atom -5566.903766 kJ/mol
# Density = 2.054727 g / cm^3
# Si number density = 20.594143 Si / 1000 Ang^3
#
#
#
# Elastic Constant Matrix: (Units=GPa)
#
#
# Indices 1 2 3 4 5 6 
#
# 1 36.4577 2.5518 -6.4267 0.0000 0.0000 0.0000
# 2 2.5518 92.2720 44.9995 0.0000 0.0000 0.0000
# 3 -6.4267 44.9995 132.6459 0.0000 0.0000 0.0000
# 4 0.0000 0.0000 0.0000 47.4196 0.0000 0.0000
# 5 0.0000 0.0000 0.0000 0.0000 27.1039 0.0000
# 6 0.0000 0.0000 0.0000 0.0000 0.0000 -10.8192
#
#
#
# Elastic Compliance Matrix: (Units=1/GPa)
#
#
# Indices 1 2 3 4 5 6 
#
# 1 0.027890 -0.001714 0.001933 0.000000 0.000000 0.000000
# 2 -0.001714 0.013091 -0.004524 0.000000 0.000000 0.000000
# 3 0.001933 -0.004524 0.009167 0.000000 0.000000 0.000000
# 4 0.000000 0.000000 0.000000 0.021088 0.000000 0.000000
# 5 0.000000 0.000000 0.000000 0.000000 0.036895 0.000000
# 6 0.000000 0.000000 0.000000 0.000000 0.000000 -0.092428
#
#
# Mechanical properties :
#
#
# Convention : Reuss Voigt Hill
#
# Bulk Modulus (GPa) = 24.07459 38.18053 31.12756
# Shear Modulus (GPa) = 131.02627 27.42425 79.22526
#
# Velocity S-wave (km/s) = 7.98506 3.65314 6.20913
# Velocity P-wave (km/s) = 9.83516 6.03106 8.15794
#
# Compressibility (1/GPa) = 0.04153758
#
# Stress axis : x y z
#
# Youngs Moduli (GPa) = 35.85555 76.38667 109.08320
#
# Poissons Ratio (x) = 0.13091 -0.21082
# Poissons Ratio (y) = 0.06145 0.49351
# Poissons Ratio (z) = -0.06930 0.34559
#
# Static dielectric constant tensor:
#      x y z
#    x 1.800880 0.000000 0.000000 
#    y 0.000000 1.843520 0.000000 
#    z 0.000000 0.000000 1.805450 
# 
# From -- ./inp_files/19471.got.cif
#   From: 2010.05.17/outbox.cif.g08.bks.cpg/sg68_10_cif.got.tgz:19471.got - 2010.06.03 18:57:09.
