data_PCOD9506689
_publ_section_title
;
Structure prediction by ZEFSAII (Michael W. Deem and Ramdas Pophale) SiO2 
 PCOD9506689
Probable space group: C C C A
;
_chemical_formula_sum "Si O2"
_cell_formula_units_Z 100
_cell_length_a 12.077721
_cell_length_b 14.587807
_cell_length_c 28.865885
_cell_angle_alpha 90.000000
_cell_angle_beta 90.000000
_cell_angle_gamma 90.000000
_cell_volume 5085.807044
_symmetry_space_group_name_H-M "C C C A"
_symmetry_group_IT_number 68
_space_group.IT_coordinate_system_code '2'
_symmetry_cell_setting 'orthorhombic'
loop_
_space_group_symop_operation_xyz
x,y,z
-x,1/2-y,z
x,1/2-y,1/2-z
-x,y,1/2-z
-x,-y,-z
x,1/2+y,-z
-x,1/2+y,1/2+z
x,-y,1/2+z
1/2+x,1/2+y,z
1/2-x,-y,z
1/2+x,-y,1/2-z
1/2-x,1/2+y,1/2-z
1/2-x,1/2-y,-z
1/2+x,y,-z
1/2-x,y,1/2+z
1/2+x,1/2-y,1/2+z
loop_
_atom_site_type_symbol
_atom_site_label
_atom_site_fract_x
_atom_site_fract_y
_atom_site_fract_z
Si Si1 0.612122 0.357323 0.573550
Si Si2 0.000000 0.250000 0.250000
Si Si3 0.000000 0.033147 0.750000
Si Si4 0.443773 0.611400 0.320305
Si Si5 0.110482 0.199026 0.797741
Si Si6 0.851727 0.649992 0.947391
Si Si7 0.203443 0.600101 0.653979
Si Si8 0.750000 0.500000 0.517164
O O1 0.611105 0.370922 0.629764
O O2 0.484332 0.355878 0.557718
O O3 0.666913 0.261103 0.555887
O O4 0.666137 0.444806 0.549704
O O5 0.923888 0.192090 0.284179
O O6 0.928198 0.099142 0.718252
O O7 0.926605 0.976065 0.786903
O O8 0.577146 0.610348 0.328978
O O9 0.137996 0.250000 0.750000
O O10 0.216218 0.180891 0.828777
O O11 0.000000 0.250000 0.817471
O O12 0.799819 0.608605 0.901060
O O13 0.807887 0.581901 0.987358
O O14 0.250000 0.500000 0.666666
#
# Coordination Sequence:
#
# PCOD9506689 Si02
#       8
#    16   4   8  16  16  16  16   8
#     4  10  23  43  63  93 134 157 203 272 316 365
#     4  10  20  36  58  84 108 168 206 236 304 370
#     4   9  17  35  55  78 122 166 201 247 303 363
#     4  10  20  35  58  86 123 159 208 252 303 364
#     4   9  20  37  54  83 128 164 201 264 316 359
#     4  10  22  42  66  90 125 164 208 260 317 381
#     4  11  19  35  59  86 115 165 214 246 305 382
#     4  12  22  42  70  98 116 170 210 256 330 390
#
# _framework density 19.662562000000001
#
# number of rings (size 3 to 8) (size 9 to 14) (size 15 to 20)
#    0.000    2.080    2.400    2.880    1.120    0.000 
#    5.760    0.000    3.520    0.000    0.000    0.000 
#    0.000    0.000    0.000    0.000    0.000    0.000 
#
# Total GULP energy -278435.526867 kJ/mol
# GULP energy per Si atom -5568.710537 kJ/mol
# Density = 1.961781 g / cm^3
# Si number density = 19.662562 Si / 1000 Ang^3
#
#
#
# Elastic Constant Matrix: (Units=GPa)
#
#
# Indices 1 2 3 4 5 6 
#
# 1 50.5248 29.9591 28.4338 0.0000 0.0000 0.0000
# 2 29.9591 136.7983 55.8173 0.0000 0.0000 0.0000
# 3 28.4338 55.8173 105.5925 0.0000 0.0000 0.0000
# 4 0.0000 0.0000 0.0000 -17.8139 0.0000 0.0000
# 5 0.0000 0.0000 0.0000 0.0000 4.3234 0.0000
# 6 0.0000 0.0000 0.0000 0.0000 0.0000 13.7587
#
#
#
# Elastic Compliance Matrix: (Units=1/GPa)
#
#
# Indices 1 2 3 4 5 6 
#
# 1 0.024515 -0.003411 -0.004798 0.000000 0.000000 0.000000
# 2 -0.003411 0.009795 -0.004259 0.000000 0.000000 0.000000
# 3 -0.004798 -0.004259 0.013014 0.000000 0.000000 0.000000
# 4 0.000000 0.000000 0.000000 -0.056136 0.000000 0.000000
# 5 0.000000 0.000000 0.000000 0.000000 0.231300 0.000000
# 6 0.000000 0.000000 0.000000 0.000000 0.000000 0.072681
#
#
# Mechanical properties :
#
#
# Convention : Reuss Voigt Hill
#
# Bulk Modulus (GPa) = 44.66884 57.92622 51.29753
# Shear Modulus (GPa) = 15.26398 11.96733 13.61565
#
# Velocity S-wave (km/s) = 2.78923 2.46973 2.63433
# Velocity P-wave (km/s) = 5.75675 6.13652 5.94966
#
# Compressibility (1/GPa) = 0.02238697
#
# Stress axis : x y z
#
# Youngs Moduli (GPa) = 40.79102 102.09379 76.84097
#
# Poissons Ratio (x) = 0.34825 0.36871
# Poissons Ratio (y) = 0.13914 0.32728
# Poissons Ratio (z) = 0.19573 0.43484
#
# Static dielectric constant tensor:
#      x y z
#    x 1.752750 0.000000 0.000000 
#    y 0.000000 1.790430 0.000000 
#    z 0.000000 0.000000 1.691200 
# 
# From -- ./inp_files/54794.got.cif
#   From: 2010.05.17/outbox.cif.g08.bks.cpg/sg68_28_cif.got.tgz:54794.got - 2010.06.03 18:57:09.
