data_PCOD9506061
_publ_section_title
;
Structure prediction by ZEFSAII (Michael W. Deem and Ramdas Pophale) SiO2 
 PCOD9506061
Probable space group: C C C A
;
_chemical_formula_sum "Si O2"
_cell_formula_units_Z 96
_cell_length_a 13.038044
_cell_length_b 15.035898
_cell_length_c 20.581013
_cell_angle_alpha 90.000000
_cell_angle_beta 90.000000
_cell_angle_gamma 90.000000
_cell_volume 4034.675027
_symmetry_space_group_name_H-M "C C C A"
_symmetry_group_IT_number 68
_space_group.IT_coordinate_system_code '2'
_symmetry_cell_setting 'orthorhombic'
loop_
_space_group_symop_operation_xyz
x,y,z
-x,1/2-y,z
x,1/2-y,1/2-z
-x,y,1/2-z
-x,-y,-z
x,1/2+y,-z
-x,1/2+y,1/2+z
x,-y,1/2+z
1/2+x,1/2+y,z
1/2-x,-y,z
1/2+x,-y,1/2-z
1/2-x,1/2+y,1/2-z
1/2-x,1/2-y,-z
1/2+x,y,-z
1/2-x,y,1/2+z
1/2+x,1/2-y,1/2+z
loop_
_atom_site_type_symbol
_atom_site_label
_atom_site_fract_x
_atom_site_fract_y
_atom_site_fract_z
Si Si1 0.185143 0.625502 0.235581
Si Si2 0.156565 0.204982 0.896513
Si Si3 0.510019 0.056833 0.586929
Si Si4 0.105806 0.932781 0.786658
Si Si5 0.570547 0.127687 0.368862
Si Si6 0.661639 0.436268 0.499495
O O1 0.199383 0.692824 0.176130
O O2 0.142752 0.534456 0.203152
O O3 0.302445 0.608154 0.255528
O O4 0.107592 0.641638 0.294564
O O5 0.147409 0.310013 0.910521
O O6 0.201906 0.139826 0.950530
O O7 0.040895 0.167332 0.884989
O O8 0.441777 0.976271 0.618181
O O9 0.591252 0.006616 0.540957
O O10 0.576540 0.104137 0.642370
O O11 0.422539 0.108197 0.547221
O O12 0.000000 0.931035 0.750000
O O13 0.750000 0.500000 0.527619
#
# Coordination Sequence:
#
# PCOD9506061 Si02
#       6
#    16  16  16  16  16  16
#     4  11  19  31  56  85 122 153 186 243 306 366
#     4  10  19  33  57  86 120 151 193 250 310 357
#     4  10  20  34  53  81 116 148 197 248 295 346
#     4  11  20  33  53  84 120 151 194 239 297 360
#     4  10  19  33  55  89 122 146 191 257 307 361
#     4  10  20  35  55  79 110 156 203 244 290 347
#
# _framework density 23.793737
#
# number of rings (size 3 to 8) (size 9 to 14) (size 15 to 20)
#    0.000    1.667    5.000    2.000    0.000    2.667 
#    0.000    0.833    0.000    6.000    0.000    2.333 
#    0.000    0.000    0.000    0.000    0.000    0.000 
#
# Total GULP energy -267512.117300 kJ/mol
# GULP energy per Si atom -5573.169110 kJ/mol
# Density = 2.373958 g / cm^3
# Si number density = 23.793737 Si / 1000 Ang^3
#
#
#
# Elastic Constant Matrix: (Units=GPa)
#
#
# Indices 1 2 3 4 5 6 
#
# 1 83.3068 -6.6784 17.8590 0.0000 0.0000 0.0000
# 2 -6.6784 32.2736 -9.7950 0.0000 0.0000 0.0000
# 3 17.8590 -9.7950 48.0240 0.0000 0.0000 0.0000
# 4 0.0000 0.0000 0.0000 4.4459 0.0000 0.0000
# 5 0.0000 0.0000 0.0000 0.0000 21.4408 0.0000
# 6 0.0000 0.0000 0.0000 0.0000 0.0000 10.1576
#
#
#
# Elastic Compliance Matrix: (Units=1/GPa)
#
#
# Indices 1 2 3 4 5 6 
#
# 1 0.013096 0.001313 -0.004602 0.000000 0.000000 0.000000
# 2 0.001313 0.033161 0.006275 0.000000 0.000000 0.000000
# 3 -0.004602 0.006275 0.023814 0.000000 0.000000 0.000000
# 4 0.000000 0.000000 0.000000 0.224928 0.000000 0.000000
# 5 0.000000 0.000000 0.000000 0.000000 0.046640 0.000000
# 6 0.000000 0.000000 0.000000 0.000000 0.000000 0.098448
#
#
# Mechanical properties :
#
#
# Convention : Reuss Voigt Hill
#
# Bulk Modulus (GPa) = 13.15031 18.48617 15.81824
# Shear Modulus (GPa) = 10.88228 18.02345 14.45286
#
# Velocity S-wave (km/s) = 2.14092 2.75523 2.46727
# Velocity P-wave (km/s) = 3.41323 4.23178 3.84435
#
# Compressibility (1/GPa) = 0.07604385
#
# Stress axis : x y z
#
# Youngs Moduli (GPa) = 76.36107 30.15561 41.99165
#
# Poissons Ratio (x) = -0.03960 0.19325
# Poissons Ratio (y) = -0.10028 -0.26351
# Poissons Ratio (z) = 0.35142 -0.18923
#
# Static dielectric constant tensor:
#      x y z
#    x 1.929300 0.000000 0.000000 
#    y 0.000000 1.997660 0.000000 
#    z 0.000000 0.000000 1.995480 
# 
# From -- ./inp_files/37676.got.cif
#   From: 2010.05.17/outbox.cif.g08.bks.cpg/sg68_19_cif.got.tgz:37676.got - 2010.06.03 18:57:09.
