data_PCOD9506602
_publ_section_title
;
Structure prediction by ZEFSAII (Michael W. Deem and Ramdas Pophale) SiO2 
 PCOD9506602
Probable space group: C C C A
;
_chemical_formula_sum "Si O2"
_cell_formula_units_Z 64
_cell_length_a 12.516483
_cell_length_b 10.956801
_cell_length_c 20.158560
_cell_angle_alpha 90.000000
_cell_angle_beta 90.000000
_cell_angle_gamma 90.000000
_cell_volume 2764.557285
_symmetry_space_group_name_H-M "C C C A"
_symmetry_group_IT_number 68
_space_group.IT_coordinate_system_code '2'
_symmetry_cell_setting 'orthorhombic'
loop_
_space_group_symop_operation_xyz
x,y,z
-x,1/2-y,z
x,1/2-y,1/2-z
-x,y,1/2-z
-x,-y,-z
x,1/2+y,-z
-x,1/2+y,1/2+z
x,-y,1/2+z
1/2+x,1/2+y,z
1/2-x,-y,z
1/2+x,-y,1/2-z
1/2-x,1/2+y,1/2-z
1/2-x,1/2-y,-z
1/2+x,y,-z
1/2-x,y,1/2+z
1/2+x,1/2-y,1/2+z
loop_
_atom_site_type_symbol
_atom_site_label
_atom_site_fract_x
_atom_site_fract_y
_atom_site_fract_z
Si Si1 0.323914 0.799865 0.914771
Si Si2 0.328615 0.115061 0.272489
Si Si3 0.394390 0.178710 0.554766
Si Si4 0.625621 0.546567 0.633978
O O1 0.362473 0.866922 0.848528
O O2 0.197766 0.764210 0.912817
O O3 0.379116 0.666517 0.911020
O O4 0.345793 0.864453 0.984314
O O5 0.283972 0.250000 0.250000
O O6 0.402135 0.082934 0.209075
O O7 0.250000 0.000000 0.275053
O O8 0.500000 0.250000 0.539253
O O9 0.429235 0.068768 0.602120
O O10 0.750000 0.500000 0.634328
#
# Coordination Sequence:
#
# PCOD9506602 Si02
#       4
#    16  16  16  16
#     4   9  19  34  56  84 115 160 204 248 314 376
#     4   9  17  33  60  85 114 159 205 250 308 371
#     4  10  20  34  56  87 121 156 204 261 310 364
#     4   8  16  33  55  80 113 152 199 253 305 361
#
# _framework density 23.150179000000001
#
# number of rings (size 3 to 8) (size 9 to 14) (size 15 to 20)
#    0.000    3.000    0.000    1.500    0.000    6.000 
#    0.000    0.000    0.000   58.500    0.000    0.000 
#    0.000    0.000    0.000    0.000    0.000    0.250 
#
# Total GULP energy -178454.500878 kJ/mol
# GULP energy per Si atom -5576.703152 kJ/mol
# Density = 2.309749 g / cm^3
# Si number density = 23.150179 Si / 1000 Ang^3
#
#
#
# Elastic Constant Matrix: (Units=GPa)
#
#
# Indices 1 2 3 4 5 6 
#
# 1 52.7729 25.2611 19.8160 0.0000 0.0000 0.0000
# 2 25.2611 95.7345 48.7982 0.0000 0.0000 0.0000
# 3 19.8160 48.7982 161.2436 0.0000 0.0000 0.0000
# 4 0.0000 0.0000 0.0000 23.7323 0.0000 0.0000
# 5 0.0000 0.0000 0.0000 0.0000 295.3003 0.0000
# 6 0.0000 0.0000 0.0000 0.0000 0.0000 7.4155
#
#
#
# Elastic Compliance Matrix: (Units=1/GPa)
#
#
# Indices 1 2 3 4 5 6 
#
# 1 0.021856 -0.005200 -0.001112 0.000000 0.000000 0.000000
# 2 -0.005200 0.013588 -0.003473 0.000000 0.000000 0.000000
# 3 -0.001112 -0.003473 0.007390 0.000000 0.000000 0.000000
# 4 0.000000 0.000000 0.000000 0.042137 0.000000 0.000000
# 5 0.000000 0.000000 0.000000 0.000000 0.003386 0.000000
# 6 0.000000 0.000000 0.000000 0.000000 0.000000 0.134852
#
#
# Mechanical properties :
#
#
# Convention : Reuss Voigt Hill
#
# Bulk Modulus (GPa) = 42.98762 55.27798 49.13280
# Shear Modulus (GPa) = 19.95737 79.68134 49.81935
#
# Velocity S-wave (km/s) = 2.93931 5.87316 4.64401
# Velocity P-wave (km/s) = 5.48896 8.36193 7.07286
#
# Compressibility (1/GPa) = 0.02326251
#
# Stress axis : x y z
#
# Youngs Moduli (GPa) = 45.75420 73.59405 135.32540
#
# Poissons Ratio (x) = 0.38270 0.15051
# Poissons Ratio (y) = 0.23793 0.47001
# Poissons Ratio (z) = 0.05089 0.25561
#
# Static dielectric constant tensor:
#      x y z
#    x 1.943350 0.000000 0.000000 
#    y 0.000000 1.867110 0.000000 
#    z 0.000000 0.000000 1.873430 
# 
# From -- ./inp_files/37048.got.cif
#   From: 2010.05.17/outbox.cif.g08.bks.cpg/sg68_19_cif.got.tgz:37048.got - 2010.06.03 18:57:09.
