data_PCOD9506780
_publ_section_title
;
Structure prediction by ZEFSAII (Michael W. Deem and Ramdas Pophale) SiO2 
 PCOD9506780
Probable space group: C C C A
;
_chemical_formula_sum "Si O2"
_cell_formula_units_Z 88
_cell_length_a 20.414161
_cell_length_b 8.444059
_cell_length_c 27.351839
_cell_angle_alpha 90.000000
_cell_angle_beta 90.000000
_cell_angle_gamma 90.000000
_cell_volume 4714.865695
_symmetry_space_group_name_H-M "C C C A"
_symmetry_group_IT_number 68
_space_group.IT_coordinate_system_code '2'
_symmetry_cell_setting 'orthorhombic'
loop_
_space_group_symop_operation_xyz
x,y,z
-x,1/2-y,z
x,1/2-y,1/2-z
-x,y,1/2-z
-x,-y,-z
x,1/2+y,-z
-x,1/2+y,1/2+z
x,-y,1/2+z
1/2+x,1/2+y,z
1/2-x,-y,z
1/2+x,-y,1/2-z
1/2-x,1/2+y,1/2-z
1/2-x,1/2-y,-z
1/2+x,y,-z
1/2-x,y,1/2+z
1/2+x,1/2-y,1/2+z
loop_
_atom_site_type_symbol
_atom_site_label
_atom_site_fract_x
_atom_site_fract_y
_atom_site_fract_z
Si Si1 0.058840 0.416733 0.719968
Si Si2 0.737456 0.313033 0.894745
Si Si3 0.183109 0.900444 0.519402
Si Si4 0.368235 0.697526 0.929369
Si Si5 0.810822 0.379627 0.291921
Si Si6 0.000000 0.750000 0.129076
O O1 0.071898 0.250000 0.750000
O O2 0.123324 0.519265 0.714306
O O3 0.000000 0.497305 0.750000
O O4 0.028632 0.379015 0.666939
O O5 0.750000 0.500000 0.900889
O O6 0.702720 0.234961 0.941599
O O7 0.808162 0.226188 0.891456
O O8 0.695902 0.298704 0.845280
O O9 0.149475 0.824229 0.472084
O O10 0.250000 0.000000 0.509547
O O11 0.137640 0.026593 0.546087
O O12 0.437967 0.710760 0.904303
O O13 0.806762 0.250000 0.250000
O O14 0.750000 0.500000 0.288401
#
# Coordination Sequence:
#
# PCOD9506780 Si02
#       6
#    16  16  16  16  16   8
#     4   9  21  41  60  80 114 157 190 225 286 351
#     4  10  20  36  58  83 113 145 184 235 286 333
#     4  10  21  36  57  82 110 147 188 233 283 335
#     4  11  21  36  56  82 113 149 190 231 281 337
#     4  11  23  37  60  89 116 144 188 242 283 332
#     4  10  21  36  60  82 112 154 191 230 280 340
#
# _framework density 18.664370999999999
#
# number of rings (size 3 to 8) (size 9 to 14) (size 15 to 20)
#    0.000    2.000    0.000    6.545    0.000    7.636 
#    0.000    0.000    0.000    0.000    0.000    0.000 
#    0.000    0.000    0.000    0.000    0.000    0.000 
#
# Total GULP energy -245521.999092 kJ/mol
# GULP energy per Si atom -5580.045434 kJ/mol
# Density = 1.862189 g / cm^3
# Si number density = 18.664371 Si / 1000 Ang^3
#
#
#
# Elastic Constant Matrix: (Units=GPa)
#
#
# Indices 1 2 3 4 5 6 
#
# 1 153.5887 33.4514 76.6038 0.0000 0.0000 0.0000
# 2 33.4514 71.6604 57.4720 0.0000 0.0000 0.0000
# 3 76.6038 57.4720 145.4491 0.0000 0.0000 0.0000
# 4 0.0000 0.0000 0.0000 17.1254 0.0000 0.0000
# 5 0.0000 0.0000 0.0000 0.0000 32.2187 0.0000
# 6 0.0000 0.0000 0.0000 0.0000 0.0000 22.6029
#
#
#
# Elastic Compliance Matrix: (Units=1/GPa)
#
#
# Indices 1 2 3 4 5 6 
#
# 1 0.008847 -0.000575 -0.004432 0.000000 0.000000 0.000000
# 2 -0.000575 0.020466 -0.007784 0.000000 0.000000 0.000000
# 3 -0.004432 -0.007784 0.012285 0.000000 0.000000 0.000000
# 4 0.000000 0.000000 0.000000 0.058393 0.000000 0.000000
# 5 0.000000 0.000000 0.000000 0.000000 0.031038 0.000000
# 6 0.000000 0.000000 0.000000 0.000000 0.000000 0.044242
#
#
# Mechanical properties :
#
#
# Convention : Reuss Voigt Hill
#
# Bulk Modulus (GPa) = 62.43906 78.41696 70.42801
# Shear Modulus (GPa) = 24.24935 27.93413 26.09174
#
# Velocity S-wave (km/s) = 3.60840 3.87286 3.74296
# Velocity P-wave (km/s) = 7.13351 7.88062 7.51635
#
# Compressibility (1/GPa) = 0.01601561
#
# Stress axis : x y z
#
# Youngs Moduli (GPa) = 113.03678 48.86182 81.39912
#
# Poissons Ratio (x) = 0.02810 0.36076
# Poissons Ratio (y) = 0.06502 0.63360
# Poissons Ratio (z) = 0.50098 0.38033
#
# Static dielectric constant tensor:
#      x y z
#    x 1.631760 0.000000 0.000000 
#    y 0.000000 1.659260 0.000000 
#    z 0.000000 0.000000 1.684280 
# 
# From -- ./inp_files/46515.got.cif
#   From: 2010.05.17/outbox.cif.g08.bks.cpg/sg68_24_cif.got.tgz:46515.got - 2010.06.03 18:57:09.
