data_PCOD9506449
_publ_section_title
;
Structure prediction by ZEFSAII (Michael W. Deem and Ramdas Pophale) SiO2 
 PCOD9506449
Probable space group: C C C A
;
_chemical_formula_sum "Si O2"
_cell_formula_units_Z 80
_cell_length_a 14.064228
_cell_length_b 24.004738
_cell_length_c 11.965515
_cell_angle_alpha 90.000000
_cell_angle_beta 90.000000
_cell_angle_gamma 90.000000
_cell_volume 4039.654884
_symmetry_space_group_name_H-M "C C C A"
_symmetry_group_IT_number 68
_space_group.IT_coordinate_system_code '2'
_symmetry_cell_setting 'orthorhombic'
loop_
_space_group_symop_operation_xyz
x,y,z
-x,1/2-y,z
x,1/2-y,1/2-z
-x,y,1/2-z
-x,-y,-z
x,1/2+y,-z
-x,1/2+y,1/2+z
x,-y,1/2+z
1/2+x,1/2+y,z
1/2-x,-y,z
1/2+x,-y,1/2-z
1/2-x,1/2+y,1/2-z
1/2-x,1/2-y,-z
1/2+x,y,-z
1/2-x,y,1/2+z
1/2+x,1/2-y,1/2+z
loop_
_atom_site_type_symbol
_atom_site_label
_atom_site_fract_x
_atom_site_fract_y
_atom_site_fract_z
Si Si1 0.389881 0.583630 0.358414
Si Si2 0.000000 0.750000 0.532228
Si Si3 0.598088 0.700583 0.819641
Si Si4 0.250000 0.000000 0.258814
Si Si5 0.416360 0.137495 0.868374
Si Si6 0.284100 0.895920 0.912516
O O1 0.336125 0.528345 0.312257
O O2 0.382026 0.629669 0.259626
O O3 0.503058 0.589318 0.382211
O O4 0.338855 0.598671 0.472160
O O5 0.073462 0.777451 0.443784
O O6 0.043414 0.698399 0.601746
O O7 0.645690 0.750000 0.750000
O O8 0.500000 0.688771 0.750000
O O9 0.664358 0.648664 0.834472
O O10 0.214434 0.952100 0.341460
O O11 0.323390 0.122929 0.938517
#
# Coordination Sequence:
#
# PCOD9506449 Si02
#       6
#    16   8  16   8  16  16
#     4  10  22  45  63  99 131 171 224 280 335 399
#     4  10  19  41  64  96 132 182 208 272 334 396
#     4   9  21  41  65  98 138 174 224 267 336 407
#     4  10  24  44  68  92 136 170 234 282 332 398
#     4  10  23  41  67  99 138 169 222 276 339 403
#     4  11  22  46  67  96 133 182 227 276 337 403
#
# _framework density 19.803671000000001
#
# number of rings (size 3 to 8) (size 9 to 14) (size 15 to 20)
#    0.000    2.200    2.000    0.600    0.000    8.800 
#   18.000   10.000    0.000    0.000    0.000    0.000 
#    0.000    0.000    0.000    0.000    0.000    0.000 
#
# Total GULP energy -222864.982121 kJ/mol
# GULP energy per Si atom -5571.624553 kJ/mol
# Density = 1.975860 g / cm^3
# Si number density = 19.803671 Si / 1000 Ang^3
#
#
#
# Elastic Constant Matrix: (Units=GPa)
#
#
# Indices 1 2 3 4 5 6 
#
# 1 114.3600 74.3507 59.3412 0.0000 0.0000 0.0000
# 2 74.3507 170.8489 63.9858 0.0000 0.0000 0.0000
# 3 59.3412 63.9858 93.2929 0.0000 0.0000 0.0000
# 4 0.0000 0.0000 0.0000 21.0498 0.0000 0.0000
# 5 0.0000 0.0000 0.0000 0.0000 18.4393 0.0000
# 6 0.0000 0.0000 0.0000 0.0000 0.0000 44.8801
#
#
#
# Elastic Compliance Matrix: (Units=1/GPa)
#
#
# Indices 1 2 3 4 5 6 
#
# 1 0.014772 -0.003915 -0.006711 0.000000 0.000000 0.000000
# 2 -0.003915 0.008914 -0.003623 0.000000 0.000000 0.000000
# 3 -0.006711 -0.003623 0.017473 0.000000 0.000000 0.000000
# 4 0.000000 0.000000 0.000000 0.047506 0.000000 0.000000
# 5 0.000000 0.000000 0.000000 0.000000 0.054232 0.000000
# 6 0.000000 0.000000 0.000000 0.000000 0.000000 0.022282
#
#
# Mechanical properties :
#
#
# Convention : Reuss Voigt Hill
#
# Bulk Modulus (GPa) = 78.99003 85.98412 82.48707
# Shear Modulus (GPa) = 25.26562 28.92877 27.09720
#
# Velocity S-wave (km/s) = 3.57572 3.82616 3.70306
# Velocity P-wave (km/s) = 7.55121 7.93926 7.74767
#
# Compressibility (1/GPa) = 0.01265983
#
# Stress axis : x y z
#
# Youngs Moduli (GPa) = 67.69557 112.18332 57.23248
#
# Poissons Ratio (x) = 0.43922 0.38408
# Poissons Ratio (y) = 0.26504 0.20737
# Poissons Ratio (z) = 0.45429 0.40648
#
# Static dielectric constant tensor:
#      x y z
#    x 1.770970 0.000000 0.000000 
#    y 0.000000 1.689720 0.000000 
#    z 0.000000 0.000000 1.707360 
# 
# From -- ./inp_files/13238.got.cif
#   From: 2010.05.17/outbox.cif.g08.bks.cpg/sg68_7_cif.got.tgz:13238.got - 2010.06.03 18:57:09.
