data_PCOD9506739
_publ_section_title
;
Structure prediction by ZEFSAII (Michael W. Deem and Ramdas Pophale) SiO2 
 PCOD9506739
Probable space group: C C C A
;
_chemical_formula_sum "Si O2"
_cell_formula_units_Z 96
_cell_length_a 8.546160
_cell_length_b 25.594069
_cell_length_c 24.458384
_cell_angle_alpha 90.000000
_cell_angle_beta 90.000000
_cell_angle_gamma 90.000000
_cell_volume 5349.807004
_symmetry_space_group_name_H-M "C C C A"
_symmetry_group_IT_number 68
_space_group.IT_coordinate_system_code '2'
_symmetry_cell_setting 'orthorhombic'
loop_
_space_group_symop_operation_xyz
x,y,z
-x,1/2-y,z
x,1/2-y,1/2-z
-x,y,1/2-z
-x,-y,-z
x,1/2+y,-z
-x,1/2+y,1/2+z
x,-y,1/2+z
1/2+x,1/2+y,z
1/2-x,-y,z
1/2+x,-y,1/2-z
1/2-x,1/2+y,1/2-z
1/2-x,1/2-y,-z
1/2+x,y,-z
1/2-x,y,1/2+z
1/2+x,1/2-y,1/2+z
loop_
_atom_site_type_symbol
_atom_site_label
_atom_site_fract_x
_atom_site_fract_y
_atom_site_fract_z
Si Si1 0.661822 0.447080 0.481017
Si Si2 0.877304 0.155616 0.035319
Si Si3 0.434848 0.305524 0.072105
Si Si4 0.438837 0.996174 0.189641
Si Si5 0.593690 0.084883 0.901120
Si Si6 0.459885 0.408555 0.382753
O O1 0.750000 0.500000 0.467207
O O2 0.775318 0.396423 0.478275
O O3 0.601299 0.448758 0.542957
O O4 0.525899 0.435735 0.437721
O O5 0.747704 0.195979 0.056303
O O6 0.997843 0.136082 0.081435
O O7 0.969371 0.176491 0.982527
O O8 0.500000 0.250000 0.089633
O O9 0.462786 0.351542 0.115959
O O10 0.500000 0.986095 0.250000
O O11 0.479018 0.950063 0.146875
O O12 0.250000 0.000000 0.189834
O O13 0.498937 0.051479 0.165808
O O14 0.772972 0.097175 0.886183
#
# Coordination Sequence:
#
# PCOD9506739 Si02
#       6
#    16  16  16  16  16  16
#     4  11  19  29  51  80 106 141 171 206 260 330
#     4  11  20  32  49  77 109 144 172 211 257 324
#     4  11  21  34  50  74 108 143 179 219 262 310
#     4  10  23  37  55  77 108 142 175 217 262 317
#     4  11  19  33  53  77 108 140 174 208 267 321
#     4  10  20  36  51  75 109 141 175 218 263 315
#
# _framework density 17.944572000000001
#
# number of rings (size 3 to 8) (size 9 to 14) (size 15 to 20)
#    0.000    1.333    5.000    3.000    0.000    5.333 
#    0.000    0.000    0.000    0.500    0.000    0.000 
#    0.000    4.667    0.000    0.000    0.000    0.000 
#
# Total GULP energy -268109.837342 kJ/mol
# GULP energy per Si atom -5585.621611 kJ/mol
# Density = 1.790373 g / cm^3
# Si number density = 17.944572 Si / 1000 Ang^3
#
#
#
# Elastic Constant Matrix: (Units=GPa)
#
#
# Indices 1 2 3 4 5 6 
#
# 1 49.2022 -2.9939 -0.2124 0.0000 0.0000 0.0000
# 2 -2.9939 48.6299 7.2418 0.0000 0.0000 0.0000
# 3 -0.2124 7.2418 77.6951 0.0000 0.0000 0.0000
# 4 0.0000 0.0000 0.0000 10.2734 0.0000 0.0000
# 5 0.0000 0.0000 0.0000 0.0000 23.2309 0.0000
# 6 0.0000 0.0000 0.0000 0.0000 0.0000 23.0002
#
#
#
# Elastic Compliance Matrix: (Units=1/GPa)
#
#
# Indices 1 2 3 4 5 6 
#
# 1 0.020401 0.001265 -0.000062 0.000000 0.000000 0.000000
# 2 0.001265 0.020931 -0.001948 0.000000 0.000000 0.000000
# 3 -0.000062 -0.001948 0.013052 0.000000 0.000000 0.000000
# 4 0.000000 0.000000 0.000000 0.097338 0.000000 0.000000
# 5 0.000000 0.000000 0.000000 0.000000 0.043046 0.000000
# 6 0.000000 0.000000 0.000000 0.000000 0.000000 0.043478
#
#
# Mechanical properties :
#
#
# Convention : Reuss Voigt Hill
#
# Bulk Modulus (GPa) = 18.90512 20.39981 19.65246
# Shear Modulus (GPa) = 19.42745 22.73369 21.08057
#
# Velocity S-wave (km/s) = 3.29391 3.56319 3.43120
# Velocity P-wave (km/s) = 5.00246 5.32178 5.16459
#
# Compressibility (1/GPa) = 0.05289573
#
# Stress axis : x y z
#
# Youngs Moduli (GPa) = 49.01715 47.77515 76.61559
#
# Poissons Ratio (x) = -0.06045 0.00476
# Poissons Ratio (y) = -0.06202 0.14921
# Poissons Ratio (z) = 0.00305 0.09304
#
# Static dielectric constant tensor:
#      x y z
#    x 1.679300 0.000000 0.000000 
#    y 0.000000 1.643700 0.000000 
#    z 0.000000 0.000000 1.593990 
# 
# From -- ./inp_files/41254.got.cif
#   From: 2010.05.17/outbox.cif.g08.bks.cpg/sg68_21_cif.got.tgz:41254.got - 2010.06.03 18:57:09.
