data_PCOD9506213
_publ_section_title
;
Structure prediction by ZEFSAII (Michael W. Deem and Ramdas Pophale) SiO2 
 PCOD9506213
Probable space group: C C C A
;
_chemical_formula_sum "Si O2"
_cell_formula_units_Z 64
_cell_length_a 23.530711
_cell_length_b 8.032279
_cell_length_c 15.732913
_cell_angle_alpha 90.000000
_cell_angle_beta 90.000000
_cell_angle_gamma 90.000000
_cell_volume 2973.602932
_symmetry_space_group_name_H-M "C C C A"
_symmetry_group_IT_number 68
_space_group.IT_coordinate_system_code '2'
_symmetry_cell_setting 'orthorhombic'
loop_
_space_group_symop_operation_xyz
x,y,z
-x,1/2-y,z
x,1/2-y,1/2-z
-x,y,1/2-z
-x,-y,-z
x,1/2+y,-z
-x,1/2+y,1/2+z
x,-y,1/2+z
1/2+x,1/2+y,z
1/2-x,-y,z
1/2+x,-y,1/2-z
1/2-x,1/2+y,1/2-z
1/2-x,1/2-y,-z
1/2+x,y,-z
1/2-x,y,1/2+z
1/2+x,1/2-y,1/2+z
loop_
_atom_site_type_symbol
_atom_site_label
_atom_site_fract_x
_atom_site_fract_y
_atom_site_fract_z
Si Si1 0.309038 0.404785 0.536100
Si Si2 0.000000 0.250000 0.546005
Si Si3 0.309910 0.943823 0.136139
Si Si4 0.069225 0.051709 0.404892
Si Si5 0.396575 0.250000 0.750000
O O1 0.250000 0.500000 0.551599
O O2 0.322003 0.415364 0.434950
O O3 0.303884 0.221917 0.576945
O O4 0.364438 0.484527 0.579117
O O5 0.044724 0.156705 0.484343
O O6 0.032583 0.386640 0.599942
O O7 0.356355 0.888913 0.204624
O O8 0.250000 0.000000 0.176228
O O9 0.066865 0.164564 0.322309
#
# Coordination Sequence:
#
# PCOD9506213 Si02
#       5
#    16   8  16  16   8
#     4  10  19  35  63  90 118 156 206 251 296 365
#     4  10  22  41  70  87 114 166 222 248 288 382
#     4  10  20  35  57  88 124 166 202 245 303 367
#     4  10  21  40  64  92 119 161 206 258 311 363
#     4  10  22  35  58  90 134 162 196 267 326 362
#
# _framework density 21.522711999999999
#
# number of rings (size 3 to 8) (size 9 to 14) (size 15 to 20)
#    0.000    2.000    0.000    6.000    0.000    4.500 
#    0.000    0.000    0.000   55.500    0.000    0.000 
#    0.000    0.000    0.000    0.000    0.000    0.000 
#
# Total GULP energy -178744.055817 kJ/mol
# GULP energy per Si atom -5585.751744 kJ/mol
# Density = 2.147372 g / cm^3
# Si number density = 21.522712 Si / 1000 Ang^3
#
#
#
# Elastic Constant Matrix: (Units=GPa)
#
#
# Indices 1 2 3 4 5 6 
#
# 1 128.2540 61.9022 49.5908 0.0000 0.0000 0.0000
# 2 61.9022 69.7654 13.1433 0.0000 0.0000 0.0000
# 3 49.5908 13.1433 52.9116 0.0000 0.0000 0.0000
# 4 0.0000 0.0000 0.0000 17.5532 0.0000 0.0000
# 5 0.0000 0.0000 0.0000 0.0000 -9.0858 0.0000
# 6 0.0000 0.0000 0.0000 0.0000 0.0000 40.5390
#
#
#
# Elastic Compliance Matrix: (Units=1/GPa)
#
#
# Indices 1 2 3 4 5 6 
#
# 1 0.022319 -0.016641 -0.016784 0.000000 0.000000 0.000000
# 2 -0.016641 0.027445 0.008779 0.000000 0.000000 0.000000
# 3 -0.016784 0.008779 0.032450 0.000000 0.000000 0.000000
# 4 0.000000 0.000000 0.000000 0.056970 0.000000 0.000000
# 5 0.000000 0.000000 0.000000 0.000000 -0.110062 0.000000
# 6 0.000000 0.000000 0.000000 0.000000 0.000000 0.024668
#
#
# Mechanical properties :
#
#
# Convention : Reuss Voigt Hill
#
# Bulk Modulus (GPa) = 30.37547 55.57819 42.97683
# Shear Modulus (GPa) = 43.83825 18.22094 31.02960
#
# Velocity S-wave (km/s) = 4.51803 2.91278 3.80111
# Velocity P-wave (km/s) = 6.43122 6.09848 6.26706
#
# Compressibility (1/GPa) = 0.03292130
#
# Stress axis : x y z
#
# Youngs Moduli (GPa) = 44.80522 36.43600 30.81703
#
# Poissons Ratio (x) = 0.60634 0.51724
# Poissons Ratio (y) = 0.74561 -0.27055
# Poissons Ratio (z) = 0.75203 -0.31988
#
# Static dielectric constant tensor:
#      x y z
#    x 1.805690 0.000000 0.000000 
#    y 0.000000 1.815800 0.000000 
#    z 0.000000 0.000000 1.774990 
# 
# From -- ./inp_files/25047.got.cif
#   From: 2010.05.17/outbox.cif.g08.bks.cpg/sg68_13_cif.got.tgz:25047.got - 2010.06.03 18:57:09.
