data_PCOD9506984
_publ_section_title
;
Structure prediction by ZEFSAII (Michael W. Deem and Ramdas Pophale) SiO2 
 PCOD9506984
Probable space group: C C C A
;
_chemical_formula_sum "Si O2"
_cell_formula_units_Z 104
_cell_length_a 20.336331
_cell_length_b 14.212953
_cell_length_c 17.110085
_cell_angle_alpha 90.000000
_cell_angle_beta 90.000000
_cell_angle_gamma 90.000000
_cell_volume 4945.487277
_symmetry_space_group_name_H-M "C C C A"
_symmetry_group_IT_number 68
_space_group.IT_coordinate_system_code '2'
_symmetry_cell_setting 'orthorhombic'
loop_
_space_group_symop_operation_xyz
x,y,z
-x,1/2-y,z
x,1/2-y,1/2-z
-x,y,1/2-z
-x,-y,-z
x,1/2+y,-z
-x,1/2+y,1/2+z
x,-y,1/2+z
1/2+x,1/2+y,z
1/2-x,-y,z
1/2+x,-y,1/2-z
1/2-x,1/2+y,1/2-z
1/2-x,1/2-y,-z
1/2+x,y,-z
1/2-x,y,1/2+z
1/2+x,1/2-y,1/2+z
loop_
_atom_site_type_symbol
_atom_site_label
_atom_site_fract_x
_atom_site_fract_y
_atom_site_fract_z
Si Si1 0.460100 0.006152 0.611512
Si Si2 0.338586 0.238488 0.065183
Si Si3 0.466946 0.344590 0.027702
Si Si4 0.750000 0.000000 0.036741
Si Si5 0.000000 0.604826 0.750000
Si Si6 0.681307 0.020332 0.388265
Si Si7 0.702960 0.185217 0.606729
Si Si8 0.386293 0.250000 0.750000
O O1 0.482876 0.903457 0.582353
O O2 0.387353 0.006846 0.648574
O O3 0.454554 0.079356 0.539991
O O4 0.512441 0.042529 0.673845
O O5 0.332103 0.128972 0.089776
O O6 0.278614 0.284085 0.111914
O O7 0.403878 0.301701 0.072575
O O8 0.324816 0.233866 0.971955
O O9 0.500000 0.250000 0.993579
O O10 0.789171 0.074912 0.087456
O O11 0.803151 0.965242 0.970862
O O12 0.937693 0.668317 0.729027
O O13 0.750000 0.000000 0.343975
O O14 0.659080 0.215781 0.678945
#
# Coordination Sequence:
#
# PCOD9506984 Si02
#       8
#    16  16  16   8   8  16  16   8
#     4  11  24  42  65  96 135 176 219 273 331 402
#     4  10  20  37  66  94 127 162 211 279 332 377
#     4  11  23  39  69 103 127 165 228 278 331 392
#     4   8  18  34  62  94 126 156 208 278 322 374
#     4  11  28  44  61  92 136 184 211 266 335 404
#     4   9  19  36  62  98 124 160 214 274 326 376
#     4  10  21  38  62  93 127 165 207 268 328 386
#     4  11  26  42  62  92 131 174 226 258 327 408
#
# _framework density 21.029273
#
# number of rings (size 3 to 8) (size 9 to 14) (size 15 to 20)
#    0.462    1.385    1.538    1.846    8.615    2.462 
#    0.000    3.462    0.000    0.000    0.000    0.000 
#    0.000    0.000    0.000    0.000    0.000    0.000 
#
# Total GULP energy -289536.110990 kJ/mol
# GULP energy per Si atom -5568.002134 kJ/mol
# Density = 2.098141 g / cm^3
# Si number density = 21.029273 Si / 1000 Ang^3
#
#
#
# Elastic Constant Matrix: (Units=GPa)
#
#
# Indices 1 2 3 4 5 6 
#
# 1 112.5486 35.9524 0.0699 0.0000 0.0000 0.0000
# 2 35.9524 101.4825 8.6867 0.0000 0.0000 0.0000
# 3 0.0699 8.6867 13.4437 0.0000 0.0000 0.0000
# 4 0.0000 0.0000 0.0000 13.2413 0.0000 0.0000
# 5 0.0000 0.0000 0.0000 0.0000 26.3397 0.0000
# 6 0.0000 0.0000 0.0000 0.0000 0.0000 31.8042
#
#
#
# Elastic Compliance Matrix: (Units=1/GPa)
#
#
# Indices 1 2 3 4 5 6 
#
# 1 0.010091 -0.003779 0.002390 0.000000 0.000000 0.000000
# 2 -0.003779 0.011846 -0.007635 0.000000 0.000000 0.000000
# 3 0.002390 -0.007635 0.079305 0.000000 0.000000 0.000000
# 4 0.000000 0.000000 0.000000 0.075521 0.000000 0.000000
# 5 0.000000 0.000000 0.000000 0.000000 0.037965 0.000000
# 6 0.000000 0.000000 0.000000 0.000000 0.000000 0.031442
#
#
# Mechanical properties :
#
#
# Convention : Reuss Voigt Hill
#
# Bulk Modulus (GPa) = 12.02025 35.21031 23.61528
# Shear Modulus (GPa) = 17.12610 26.46143 21.79377
#
# Velocity S-wave (km/s) = 2.85685 3.55112 3.22274
# Velocity P-wave (km/s) = 4.07560 5.79601 5.01020
#
# Compressibility (1/GPa) = 0.08319296
#
# Stress axis : x y z
#
# Youngs Moduli (GPa) = 99.09948 84.41376 12.60951
#
# Poissons Ratio (x) = 0.31904 -0.03013
# Poissons Ratio (y) = 0.37454 0.09627
# Poissons Ratio (z) = -0.23681 0.64449
#
# Static dielectric constant tensor:
#      x y z
#    x 1.807640 0.000000 0.000000 
#    y 0.000000 1.815110 0.000000 
#    z 0.000000 0.000000 1.725920 
# 
# From -- ./inp_files/33038.got.cif
#   From: 2010.05.17/outbox.cif.g08.bks.cpg/sg68_17_cif.got.tgz:33038.got - 2010.06.03 18:57:09.
