data_PCOD9506257
_publ_section_title
;
Structure prediction by ZEFSAII (Michael W. Deem and Ramdas Pophale) SiO2 
 PCOD9506257
Probable space group: C C C A
;
_chemical_formula_sum "Si O2"
_cell_formula_units_Z 60
_cell_length_a 13.110640
_cell_length_b 24.484079
_cell_length_c 8.305301
_cell_angle_alpha 90.000000
_cell_angle_beta 90.000000
_cell_angle_gamma 90.000000
_cell_volume 2666.017779
_symmetry_space_group_name_H-M "C C C A"
_symmetry_group_IT_number 68
_space_group.IT_coordinate_system_code '2'
_symmetry_cell_setting 'orthorhombic'
loop_
_space_group_symop_operation_xyz
x,y,z
-x,1/2-y,z
x,1/2-y,1/2-z
-x,y,1/2-z
-x,-y,-z
x,1/2+y,-z
-x,1/2+y,1/2+z
x,-y,1/2+z
1/2+x,1/2+y,z
1/2-x,-y,z
1/2+x,-y,1/2-z
1/2-x,1/2+y,1/2-z
1/2-x,1/2-y,-z
1/2+x,y,-z
1/2-x,y,1/2+z
1/2+x,1/2-y,1/2+z
loop_
_atom_site_type_symbol
_atom_site_label
_atom_site_fract_x
_atom_site_fract_y
_atom_site_fract_z
Si Si1 0.000000 0.250000 0.250000
Si Si2 0.619777 0.658034 0.434813
Si Si3 0.672068 0.045826 0.969958
Si Si4 0.000000 0.062326 0.250000
Si Si5 0.186700 0.877890 0.256270
O O1 0.065014 0.210254 0.362644
O O2 0.563977 0.603586 0.364968
O O3 0.734221 0.657229 0.361971
O O4 0.621828 0.655163 0.627417
O O5 0.578197 0.028164 0.858481
O O6 0.742797 0.083555 0.856600
O O7 0.750000 0.000000 0.031119
O O8 0.632275 0.082795 0.116128
#
# Coordination Sequence:
#
# PCOD9506257 Si02
#       5
#     4  16  16   8  16
#     4  10  20  36  64  94 120 152 212 260 312 400
#     4   9  19  37  60  87 120 159 198 256 317 374
#     4  10  19  36  59  87 122 165 210 249 299 374
#     4   9  20  37  60  88 124 160 200 261 316 353
#     4   9  19  36  57  82 123 163 198 250 317 363
#
# _framework density 22.505476000000002
#
# number of rings (size 3 to 8) (size 9 to 14) (size 15 to 20)
#    0.000    2.667    0.000    0.800    0.000    2.133 
#    0.000   22.667    0.000   25.600    0.000    0.000 
#    0.000    0.000    0.000    0.000    0.000    0.000 
#
# Total GULP energy -167616.818505 kJ/mol
# GULP energy per Si atom -5587.227284 kJ/mol
# Density = 2.245425 g / cm^3
# Si number density = 22.505476 Si / 1000 Ang^3
#
#
#
# Elastic Constant Matrix: (Units=GPa)
#
#
# Indices 1 2 3 4 5 6 
#
# 1 75.2385 35.2902 54.0376 0.0000 0.0000 0.0000
# 2 35.2902 69.4878 39.1951 0.0000 0.0000 0.0000
# 3 54.0376 39.1951 146.8184 0.0000 0.0000 0.0000
# 4 0.0000 0.0000 0.0000 21.3389 0.0000 0.0000
# 5 0.0000 0.0000 0.0000 0.0000 -25.7856 0.0000
# 6 0.0000 0.0000 0.0000 0.0000 0.0000 2.2784
#
#
#
# Elastic Compliance Matrix: (Units=1/GPa)
#
#
# Indices 1 2 3 4 5 6 
#
# 1 0.020844 -0.007368 -0.005705 0.000000 0.000000 0.000000
# 2 -0.007368 0.019547 -0.002506 0.000000 0.000000 0.000000
# 3 -0.005705 -0.002506 0.009580 0.000000 0.000000 0.000000
# 4 0.000000 0.000000 0.000000 0.046863 0.000000 0.000000
# 5 0.000000 0.000000 0.000000 0.000000 -0.038781 0.000000
# 6 0.000000 0.000000 0.000000 0.000000 0.000000 0.438908
#
#
# Mechanical properties :
#
#
# Convention : Reuss Voigt Hill
#
# Bulk Modulus (GPa) = 53.15680 60.95450 57.05565
# Shear Modulus (GPa) = 9.35646 10.43445 9.89546
#
# Velocity S-wave (km/s) = 2.04119 2.15557 2.09916
# Velocity P-wave (km/s) = 5.40611 5.77394 5.59305
#
# Compressibility (1/GPa) = 0.01881227
#
# Stress axis : x y z
#
# Youngs Moduli (GPa) = 47.97434 51.15930 104.38436
#
# Poissons Ratio (x) = 0.37695 0.59551
# Poissons Ratio (y) = 0.35349 0.26162
# Poissons Ratio (z) = 0.27369 0.12822
#
# Static dielectric constant tensor:
#      x y z
#    x 1.874860 0.000000 0.000000 
#    y 0.000000 1.808060 0.000000 
#    z 0.000000 0.000000 1.839450 
# 
# From -- ./inp_files/3942.got.cif
#   From: 2010.05.17/outbox.cif.g08.bks.cpg/sg68_2_cif.got.tgz:3942.got - 2010.06.03 18:57:09.
