data_PCOD9506552
_publ_section_title
;
Structure prediction by ZEFSAII (Michael W. Deem and Ramdas Pophale) SiO2 
 PCOD9506552
Probable space group: C C C A
;
_chemical_formula_sum "Si O2"
_cell_formula_units_Z 76
_cell_length_a 31.430913
_cell_length_b 7.444140
_cell_length_c 16.785229
_cell_angle_alpha 90.000000
_cell_angle_beta 90.000000
_cell_angle_gamma 90.000000
_cell_volume 3927.342699
_symmetry_space_group_name_H-M "C C C A"
_symmetry_group_IT_number 68
_space_group.IT_coordinate_system_code '2'
_symmetry_cell_setting 'orthorhombic'
loop_
_space_group_symop_operation_xyz
x,y,z
-x,1/2-y,z
x,1/2-y,1/2-z
-x,y,1/2-z
-x,-y,-z
x,1/2+y,-z
-x,1/2+y,1/2+z
x,-y,1/2+z
1/2+x,1/2+y,z
1/2-x,-y,z
1/2+x,-y,1/2-z
1/2-x,1/2+y,1/2-z
1/2-x,1/2-y,-z
1/2+x,y,-z
1/2-x,y,1/2+z
1/2+x,1/2-y,1/2+z
loop_
_atom_site_type_symbol
_atom_site_label
_atom_site_fract_x
_atom_site_fract_y
_atom_site_fract_z
Si Si1 0.917231 0.608633 0.815857
Si Si2 0.765628 0.707346 0.842502
Si Si3 0.619860 0.250000 0.250000
Si Si4 0.675784 0.806487 0.892008
Si Si5 0.345571 0.895741 0.433021
Si Si6 0.500000 0.750000 0.250000
O O1 0.899450 0.750000 0.750000
O O2 0.907505 0.404283 0.791601
O O3 0.891834 0.648730 0.897131
O O4 0.967660 0.641170 0.806955
O O5 0.772992 0.750000 0.750000
O O6 0.750000 0.500000 0.846914
O O7 0.726014 0.820353 0.876928
O O8 0.808394 0.725863 0.894011
O O9 0.650235 0.353229 0.187540
O O10 0.665356 0.595623 0.903828
O O11 0.659013 0.894447 0.972408
#
# Coordination Sequence:
#
# PCOD9506552 Si02
#       6
#    16  16   8  16  16   4
#     4   9  20  38  60  87 112 148 190 235 295 352
#     4  10  20  34  50  78 115 153 197 235 280 337
#     4  10  20  37  61  84 116 154 191 237 290 352
#     4  10  21  35  53  82 116 151 196 237 278 338
#     4  10  21  33  55  81 112 151 198 234 291 333
#     4   8  20  38  62  88 118 146 186 238 300 368
#
# _framework density 19.351507999999999
#
# number of rings (size 3 to 8) (size 9 to 14) (size 15 to 20)
#    0.632    1.684    1.053    1.263    2.947    2.105 
#    0.000    0.000    0.000   11.368    0.000    0.000 
#    0.000    0.000    0.000    0.000    0.000    0.000 
#
# Total GULP energy -211889.227855 kJ/mol
# GULP energy per Si atom -5576.032312 kJ/mol
# Density = 1.930746 g / cm^3
# Si number density = 19.351508 Si / 1000 Ang^3
#
#
#
# Elastic Constant Matrix: (Units=GPa)
#
#
# Indices 1 2 3 4 5 6 
#
# 1 149.0504 30.3498 58.6831 0.0000 0.0000 0.0000
# 2 30.3498 38.7281 -0.5680 0.0000 0.0000 0.0000
# 3 58.6831 -0.5680 111.6119 0.0000 0.0000 0.0000
# 4 0.0000 0.0000 0.0000 17.3813 0.0000 0.0000
# 5 0.0000 0.0000 0.0000 0.0000 143.9922 0.0000
# 6 0.0000 0.0000 0.0000 0.0000 0.0000 14.2415
#
#
#
# Elastic Compliance Matrix: (Units=1/GPa)
#
#
# Indices 1 2 3 4 5 6 
#
# 1 0.010645 -0.008425 -0.005640 0.000000 0.000000 0.000000
# 2 -0.008425 0.032491 0.004595 0.000000 0.000000 0.000000
# 3 -0.005640 0.004595 0.011948 0.000000 0.000000 0.000000
# 4 0.000000 0.000000 0.000000 0.057533 0.000000 0.000000
# 5 0.000000 0.000000 0.000000 0.000000 0.006945 0.000000
# 6 0.000000 0.000000 0.000000 0.000000 0.000000 0.070218
#
#
# Mechanical properties :
#
#
# Convention : Reuss Voigt Hill
#
# Bulk Modulus (GPa) = 27.66663 52.92447 40.29555
# Shear Modulus (GPa) = 22.64827 49.18468 35.91648
#
# Velocity S-wave (km/s) = 3.42477 5.04694 4.31281
# Velocity P-wave (km/s) = 5.47418 7.83394 6.75785
#
# Compressibility (1/GPa) = 0.03614462
#
# Stress axis : x y z
#
# Youngs Moduli (GPa) = 93.93987 30.77800 83.69387
#
# Poissons Ratio (x) = 0.25930 0.47202
# Poissons Ratio (y) = 0.79143 -0.38457
# Poissons Ratio (z) = 0.52981 -0.14142
#
# Static dielectric constant tensor:
#      x y z
#    x 1.670050 0.000000 0.000000 
#    y 0.000000 1.735820 0.000000 
#    z 0.000000 0.000000 1.693720 
# 
# From -- ./inp_files/34332.got.cif
#   From: 2010.05.17/outbox.cif.g08.bks.cpg/sg68_18_cif.got.tgz:34332.got - 2010.06.03 18:57:09.
