data_PCOD9506942
_publ_section_title
;
Structure prediction by ZEFSAII (Michael W. Deem and Ramdas Pophale) SiO2 
 PCOD9506942
Probable space group: C C C A
;
_chemical_formula_sum "Si O2"
_cell_formula_units_Z 104
_cell_length_a 15.783449
_cell_length_b 23.048620
_cell_length_c 13.678161
_cell_angle_alpha 90.000000
_cell_angle_beta 90.000000
_cell_angle_gamma 90.000000
_cell_volume 4975.933302
_symmetry_space_group_name_H-M "C C C A"
_symmetry_group_IT_number 68
_space_group.IT_coordinate_system_code '2'
_symmetry_cell_setting 'orthorhombic'
loop_
_space_group_symop_operation_xyz
x,y,z
-x,1/2-y,z
x,1/2-y,1/2-z
-x,y,1/2-z
-x,-y,-z
x,1/2+y,-z
-x,1/2+y,1/2+z
x,-y,1/2+z
1/2+x,1/2+y,z
1/2-x,-y,z
1/2+x,-y,1/2-z
1/2-x,1/2+y,1/2-z
1/2-x,1/2-y,-z
1/2+x,y,-z
1/2-x,y,1/2+z
1/2+x,1/2-y,1/2+z
loop_
_atom_site_type_symbol
_atom_site_label
_atom_site_fract_x
_atom_site_fract_y
_atom_site_fract_z
Si Si1 0.599302 0.357802 0.642513
Si Si2 0.897182 0.938418 0.042507
Si Si3 0.780597 0.750000 0.890846
Si Si4 0.902550 0.612929 0.250000
Si Si5 0.599301 0.142198 0.642513
Si Si6 0.102817 0.561582 0.457493
Si Si7 0.628920 0.250000 0.250000
O O1 0.618681 0.395125 0.547126
O O2 0.662628 0.304460 0.638072
O O3 0.500000 0.339891 0.635751
O O4 0.608555 0.386971 0.750000
O O5 0.865612 0.913192 0.147622
O O6 1.000000 0.943041 0.051472
O O7 0.865825 1.000000 0.000000
O O8 0.837373 0.695540 0.861929
O O9 0.691149 0.749999 0.839692
O O10 0.750000 0.750000 0.000000
O O11 0.865612 0.586807 0.147622
O O12 0.907530 0.683861 0.249999
O O13 0.000000 0.593296 0.250000
O O14 0.618680 0.104874 0.547127
#
# Coordination Sequence:
#
# PCOD9506942 Si02
#       7
#    16  16  16  16  16  16   8
#     4  10  20  37  61  89 119 153 198 249 298 353
#     4   9  19  34  58  90 117 151 196 248 302 352
#     4  12  23  37  58  86 119 157 195 244 296 358
#     4  10  21  38  59  87 124 158 199 249 301 367
#     4  10  20  37  61  89 119 153 198 249 298 353
#     4   9  19  34  58  90 117 151 196 248 302 352
#     4  12  23  38  57  86 116 158 200 240 305 362
#
# _framework density 20.900601999999999
#
# number of rings (size 3 to 8) (size 9 to 14) (size 15 to 20)
#    0.000    1.846    1.538    2.538    2.154    1.231 
#    0.000    6.154    0.000   10.154    0.000    0.000 
#    0.000    0.000    0.000    0.000    0.000    0.000 
#
# Total GULP energy -289533.306367 kJ/mol
# GULP energy per Si atom -5567.948199 kJ/mol
# Density = 2.085303 g / cm^3
# Si number density = 20.900602 Si / 1000 Ang^3
#
#
#
# Elastic Constant Matrix: (Units=GPa)
#
#
# Indices 1 2 3 4 5 6 
#
# 1 21.9418 22.3152 34.9555 0.0000 0.0000 0.0000
# 2 22.3152 105.6907 68.1247 0.0000 0.0000 0.0000
# 3 34.9555 68.1247 236.4154 0.0000 0.0000 0.0000
# 4 0.0000 0.0000 0.0000 17.2454 0.0000 0.0000
# 5 0.0000 0.0000 0.0000 0.0000 23.6038 0.0000
# 6 0.0000 0.0000 0.0000 0.0000 0.0000 -10.5250
#
#
#
# Elastic Compliance Matrix: (Units=1/GPa)
#
#
# Indices 1 2 3 4 5 6 
#
# 1 0.066526 -0.009464 -0.007109 0.000000 0.000000 0.000000
# 2 -0.009464 0.012966 -0.002337 0.000000 0.000000 0.000000
# 3 -0.007109 -0.002337 0.005954 0.000000 0.000000 0.000000
# 4 0.000000 0.000000 0.000000 0.057986 0.000000 0.000000
# 5 0.000000 0.000000 0.000000 0.000000 0.042366 0.000000
# 6 0.000000 0.000000 0.000000 0.000000 0.000000 -0.095011
#
#
# Mechanical properties :
#
#
# Convention : Reuss Voigt Hill
#
# Bulk Modulus (GPa) = 20.99678 68.31541 44.65609
# Shear Modulus (GPa) = 34.60637 21.97500 28.29068
#
# Velocity S-wave (km/s) = 4.07352 3.24606 3.68310
# Velocity P-wave (km/s) = 5.67385 6.84149 6.28484
#
# Compressibility (1/GPa) = 0.04762635
#
# Stress axis : x y z
#
# Youngs Moduli (GPa) = 15.03181 77.12450 167.94288
#
# Poissons Ratio (x) = 0.72988 1.19394
# Poissons Ratio (y) = 0.14226 0.39248
# Poissons Ratio (z) = 0.10686 0.18024
#
# Static dielectric constant tensor:
#      x y z
#    x 1.733940 0.000000 0.000000 
#    y 0.000000 1.773860 0.000000 
#    z 0.000000 0.000000 1.782930 
# 
# From -- ./inp_files/23801.got.cif
#   From: 2010.05.17/outbox.cif.g08.bks.cpg/sg68_12_cif.got.tgz:23801.got - 2010.06.03 18:57:09.
