data_PCOD9506512
_publ_section_title
;
Structure prediction by ZEFSAII (Michael W. Deem and Ramdas Pophale) SiO2 
 PCOD9506512
Probable space group: C C C A
;
_chemical_formula_sum "Si O2"
_cell_formula_units_Z 72
_cell_length_a 20.431877
_cell_length_b 21.056781
_cell_length_c 8.054704
_cell_angle_alpha 90.000000
_cell_angle_beta 90.000000
_cell_angle_gamma 90.000000
_cell_volume 3465.371753
_symmetry_space_group_name_H-M "C C C A"
_symmetry_group_IT_number 68
_space_group.IT_coordinate_system_code '2'
_symmetry_cell_setting 'orthorhombic'
loop_
_space_group_symop_operation_xyz
x,y,z
-x,1/2-y,z
x,1/2-y,1/2-z
-x,y,1/2-z
-x,-y,-z
x,1/2+y,-z
-x,1/2+y,1/2+z
x,-y,1/2+z
1/2+x,1/2+y,z
1/2-x,-y,z
1/2+x,-y,1/2-z
1/2-x,1/2+y,1/2-z
1/2-x,1/2-y,-z
1/2+x,y,-z
1/2-x,y,1/2+z
1/2+x,1/2-y,1/2+z
loop_
_atom_site_type_symbol
_atom_site_label
_atom_site_fract_x
_atom_site_fract_y
_atom_site_fract_z
Si Si1 0.417288 0.562888 0.443742
Si Si2 0.651420 0.680454 0.249548
Si Si3 0.202399 0.551340 0.148287
Si Si4 0.000000 0.460480 0.750000
Si Si5 0.714848 0.141825 0.419941
O O1 0.389395 0.623784 0.340753
O O2 0.357375 0.528952 0.538979
O O3 0.469270 0.576850 0.592541
O O4 0.447286 0.509793 0.325112
O O5 0.620026 0.750000 0.250000
O O6 0.667444 0.670874 0.444130
O O7 0.723608 0.680987 0.157434
O O8 0.250000 0.500000 0.230029
O O9 0.178305 0.606280 0.271584
O O10 0.250186 0.587112 0.023842
#
# Coordination Sequence:
#
# PCOD9506512 Si02
#       5
#    16  16  16   8  16
#     4  10  24  40  64  88 120 169 206 261 322 367
#     4  10  20  39  61  88 127 169 210 250 306 381
#     4  10  20  32  57  93 126 152 191 252 318 388
#     4  10  24  44  61  88 129 162 216 266 314 378
#     4   9  20  32  53  94 126 158 192 242 322 382
#
# _framework density 20.776990999999999
#
# number of rings (size 3 to 8) (size 9 to 14) (size 15 to 20)
#    0.000    2.222    0.000    1.333   12.444    1.778 
#    0.000    0.556    0.000    2.667    0.000    0.000 
#    0.000    0.000    0.000    0.000    0.000    0.000 
#
# Total GULP energy -200504.891062 kJ/mol
# GULP energy per Si atom -5569.580307 kJ/mol
# Density = 2.072970 g / cm^3
# Si number density = 20.776991 Si / 1000 Ang^3
#
#
#
# Elastic Constant Matrix: (Units=GPa)
#
#
# Indices 1 2 3 4 5 6 
#
# 1 57.4162 38.8457 26.2316 0.0000 0.0000 0.0000
# 2 38.8457 78.3485 42.8925 0.0000 0.0000 0.0000
# 3 26.2316 42.8925 99.7871 0.0000 0.0000 0.0000
# 4 0.0000 0.0000 0.0000 19.9389 0.0000 0.0000
# 5 0.0000 0.0000 0.0000 0.0000 33.3086 0.0000
# 6 0.0000 0.0000 0.0000 0.0000 0.0000 0.4722
#
#
#
# Elastic Compliance Matrix: (Units=1/GPa)
#
#
# Indices 1 2 3 4 5 6 
#
# 1 0.026432 -0.012163 -0.001720 0.000000 0.000000 0.000000
# 2 -0.012163 0.022289 -0.006383 0.000000 0.000000 0.000000
# 3 -0.001720 -0.006383 0.013217 0.000000 0.000000 0.000000
# 4 0.000000 0.000000 0.000000 0.050153 0.000000 0.000000
# 5 0.000000 0.000000 0.000000 0.000000 0.030022 0.000000
# 6 0.000000 0.000000 0.000000 0.000000 0.000000 2.117750
#
#
# Mechanical properties :
#
#
# Convention : Reuss Voigt Hill
#
# Bulk Modulus (GPa) = 46.71875 50.16572 48.44223
# Shear Modulus (GPa) = 2.16682 19.24941 10.70811
#
# Velocity S-wave (km/s) = 1.02233 3.04711 2.27267
# Velocity P-wave (km/s) = 4.89164 6.04790 5.50024
#
# Compressibility (1/GPa) = 0.02140468
#
# Stress axis : x y z
#
# Youngs Moduli (GPa) = 37.83322 44.86582 75.65914
#
# Poissons Ratio (x) = 0.54572 0.13013
# Poissons Ratio (y) = 0.46018 0.48294
# Poissons Ratio (z) = 0.06507 0.28638
#
# Static dielectric constant tensor:
#      x y z
#    x 1.867010 0.000000 0.000000 
#    y 0.000000 1.756870 0.000000 
#    z 0.000000 0.000000 1.828630 
# 
# From -- ./inp_files/6926.got.cif
#   From: 2010.05.17/outbox.cif.g08.bks.cpg/sg68_4_cif.got.tgz:6926.got - 2010.06.03 18:57:09.
