data_PCOD9506964
_publ_section_title
;
Structure prediction by ZEFSAII (Michael W. Deem and Ramdas Pophale) SiO2 
 PCOD9506964
Probable space group: C C C A
;
_chemical_formula_sum "Si O2"
_cell_formula_units_Z 88
_cell_length_a 20.622241
_cell_length_b 21.854707
_cell_length_c 8.524933
_cell_angle_alpha 90.000000
_cell_angle_beta 90.000000
_cell_angle_gamma 90.000000
_cell_volume 3842.127925
_symmetry_space_group_name_H-M "C C C A"
_symmetry_group_IT_number 68
_space_group.IT_coordinate_system_code '2'
_symmetry_cell_setting 'orthorhombic'
loop_
_space_group_symop_operation_xyz
x,y,z
-x,1/2-y,z
x,1/2-y,1/2-z
-x,y,1/2-z
-x,-y,-z
x,1/2+y,-z
-x,1/2+y,1/2+z
x,-y,1/2+z
1/2+x,1/2+y,z
1/2-x,-y,z
1/2+x,-y,1/2-z
1/2-x,1/2+y,1/2-z
1/2-x,1/2-y,-z
1/2+x,y,-z
1/2-x,y,1/2+z
1/2+x,1/2-y,1/2+z
loop_
_atom_site_type_symbol
_atom_site_label
_atom_site_fract_x
_atom_site_fract_y
_atom_site_fract_z
Si Si1 0.324396 0.015221 0.674207
Si Si2 0.241569 0.701951 0.363466
Si Si3 0.427235 0.921376 0.030648
Si Si4 0.500000 0.518298 0.750000
Si Si5 0.344930 0.596182 0.010567
Si Si6 0.109344 0.180473 0.242332
O O1 0.351269 0.061128 0.540349
O O2 0.329582 0.050579 0.841106
O O3 0.250000 0.000000 0.649854
O O4 0.359164 0.950454 0.631225
O O5 0.203847 0.750000 0.250000
O O6 0.250000 0.750000 0.500000
O O7 0.206556 0.642708 0.433177
O O8 0.312104 0.683321 0.292797
O O9 0.428417 0.854695 0.104994
O O10 0.455850 0.969705 0.156257
O O11 0.463015 0.939067 0.873454
O O12 0.396323 0.641209 0.096651
O O13 0.088124 0.250000 0.250000
#
# Coordination Sequence:
#
# PCOD9506964 Si02
#       6
#    16  16  16   8  16  16
#     4  11  23  36  62  96 136 166 212 289 353 413
#     4  11  21  38  59  84 131 188 219 259 328 431
#     4  10  21  40  64  92 128 171 226 281 343 411
#     4  10  22  42  65  92 123 180 228 284 344 396
#     4  11  21  38  53  90 131 177 220 265 340 421
#     4  10  20  37  63  90 129 171 229 277 343 414
#
# _framework density 22.903973000000001
#
# number of rings (size 3 to 8) (size 9 to 14) (size 15 to 20)
#    0.000    1.455    3.636    4.909    0.000    1.455 
#    0.000    0.455    0.000    0.000    0.000   14.000 
#    0.000    0.000    0.000    0.000    0.000    0.000 
#
# Total GULP energy -245117.814920 kJ/mol
# GULP energy per Si atom -5570.859430 kJ/mol
# Density = 2.285184 g / cm^3
# Si number density = 22.903973 Si / 1000 Ang^3
#
#
#
# Elastic Constant Matrix: (Units=GPa)
#
#
# Indices 1 2 3 4 5 6 
#
# 1 52.4097 46.1825 37.1856 0.0000 0.0000 0.0000
# 2 46.1825 225.0531 98.3015 0.0000 0.0000 0.0000
# 3 37.1856 98.3015 126.2560 0.0000 0.0000 0.0000
# 4 0.0000 0.0000 0.0000 64.7333 0.0000 0.0000
# 5 0.0000 0.0000 0.0000 0.0000 25.6885 0.0000
# 6 0.0000 0.0000 0.0000 0.0000 0.0000 13.7395
#
#
#
# Elastic Compliance Matrix: (Units=1/GPa)
#
#
# Indices 1 2 3 4 5 6 
#
# 1 0.025343 -0.002940 -0.005175 0.000000 0.000000 0.000000
# 2 -0.002940 0.007074 -0.004642 0.000000 0.000000 0.000000
# 3 -0.005175 -0.004642 0.013059 0.000000 0.000000 0.000000
# 4 0.000000 0.000000 0.000000 0.015448 0.000000 0.000000
# 5 0.000000 0.000000 0.000000 0.000000 0.038928 0.000000
# 6 0.000000 0.000000 0.000000 0.000000 0.000000 0.072783
#
#
# Mechanical properties :
#
#
# Convention : Reuss Voigt Hill
#
# Bulk Modulus (GPa) = 50.09576 85.22869 67.66222
# Shear Modulus (GPa) = 24.41369 35.63555 30.02462
#
# Velocity S-wave (km/s) = 3.26838 3.94873 3.62455
# Velocity P-wave (km/s) = 6.01354 7.62116 6.86457
#
# Compressibility (1/GPa) = 0.01996177
#
# Stress axis : x y z
#
# Youngs Moduli (GPa) = 39.45863 141.35560 76.57648
#
# Poissons Ratio (x) = 0.41561 0.39628
# Poissons Ratio (y) = 0.11602 0.35547
# Poissons Ratio (z) = 0.20420 0.65618
#
# Static dielectric constant tensor:
#      x y z
#    x 2.056000 0.000000 0.000000 
#    y 0.000000 1.863620 0.000000 
#    z 0.000000 0.000000 1.974470 
# 
# From -- ./inp_files/7995.got.cif
#   From: 2010.05.17/outbox.cif.g08.bks.cpg/sg68_4_cif.got.tgz:7995.got - 2010.06.03 18:57:09.
