data_PCOD9506501
_publ_section_title
;
Structure prediction by ZEFSAII (Michael W. Deem and Ramdas Pophale) SiO2 
 PCOD9506501
Probable space group: C C C A
;
_chemical_formula_sum "Si O2"
_cell_formula_units_Z 104
_cell_length_a 16.075565
_cell_length_b 13.783255
_cell_length_c 23.821775
_cell_angle_alpha 90.000000
_cell_angle_beta 90.000000
_cell_angle_gamma 90.000000
_cell_volume 5278.276723
_symmetry_space_group_name_H-M "C C C A"
_symmetry_group_IT_number 68
_space_group.IT_coordinate_system_code '2'
_symmetry_cell_setting 'orthorhombic'
loop_
_space_group_symop_operation_xyz
x,y,z
-x,1/2-y,z
x,1/2-y,1/2-z
-x,y,1/2-z
-x,-y,-z
x,1/2+y,-z
-x,1/2+y,1/2+z
x,-y,1/2+z
1/2+x,1/2+y,z
1/2-x,-y,z
1/2+x,-y,1/2-z
1/2-x,1/2+y,1/2-z
1/2-x,1/2-y,-z
1/2+x,y,-z
1/2-x,y,1/2+z
1/2+x,1/2-y,1/2+z
loop_
_atom_site_type_symbol
_atom_site_label
_atom_site_fract_x
_atom_site_fract_y
_atom_site_fract_z
Si Si1 0.052761 0.604025 0.950354
Si Si2 0.831428 0.434853 0.548652
Si Si3 0.333268 0.431697 0.320175
Si Si4 0.542921 0.098622 0.816759
Si Si5 0.374910 0.195835 0.954934
Si Si6 0.627976 0.809578 0.177771
Si Si7 0.776388 0.750000 0.250000
O O1 0.092985 0.505170 0.971147
O O2 0.040458 0.588452 0.884201
O O3 0.119608 0.688948 0.959169
O O4 0.966318 0.651598 0.968328
O O5 0.750000 0.500000 0.549868
O O6 0.845129 0.405180 0.613688
O O7 0.819831 0.351494 0.502892
O O8 0.250000 0.500000 0.316492
O O9 0.407658 0.502239 0.299473
O O10 0.324172 0.332287 0.285395
O O11 0.593448 0.200054 0.811381
O O12 0.553111 0.120815 0.699523
O O13 0.359142 0.174899 0.888949
O O14 0.715113 0.811291 0.209145
#
# Coordination Sequence:
#
# PCOD9506501 Si02
#       7
#    16  16  16  16  16  16   8
#     4   8  16  31  54  82 110 147 184 227 281 339
#     4  10  20  32  54  83 113 155 183 220 293 368
#     4  10  20  37  54  84 119 156 193 240 303 364
#     4   8  15  33  56  82 117 139 196 250 289 341
#     4   9  17  33  56  83 112 139 185 245 276 330
#     4   9  18  32  57  88 110 144 196 251 288 334
#     4  12  22  35  60  90 117 158 204 248 303 346
#
# _framework density 19.703400999999999
#
# number of rings (size 3 to 8) (size 9 to 14) (size 15 to 20)
#    0.000    2.769    1.538    2.308    2.154    1.846 
#    0.000    0.769    0.000    0.000   16.000    0.000 
#    9.231    0.000    0.000    0.000    0.000    0.000 
#
# Total GULP energy -289627.779016 kJ/mol
# GULP energy per Si atom -5569.764981 kJ/mol
# Density = 1.965855 g / cm^3
# Si number density = 19.703401 Si / 1000 Ang^3
#
#
#
# Elastic Constant Matrix: (Units=GPa)
#
#
# Indices 1 2 3 4 5 6 
#
# 1 55.3140 49.6492 34.8007 0.0000 0.0000 0.0000
# 2 49.6492 108.4226 66.8832 0.0000 0.0000 0.0000
# 3 34.8007 66.8832 99.3614 0.0000 0.0000 0.0000
# 4 0.0000 0.0000 0.0000 42.2701 0.0000 0.0000
# 5 0.0000 0.0000 0.0000 0.0000 12.4136 0.0000
# 6 0.0000 0.0000 0.0000 0.0000 0.0000 25.4719
#
#
#
# Elastic Compliance Matrix: (Units=1/GPa)
#
#
# Indices 1 2 3 4 5 6 
#
# 1 0.030980 -0.012814 -0.002225 0.000000 0.000000 0.000000
# 2 -0.012814 0.021072 -0.009697 0.000000 0.000000 0.000000
# 3 -0.002225 -0.009697 0.017371 0.000000 0.000000 0.000000
# 4 0.000000 0.000000 0.000000 0.023657 0.000000 0.000000
# 5 0.000000 0.000000 0.000000 0.000000 0.080557 0.000000
# 6 0.000000 0.000000 0.000000 0.000000 0.000000 0.039259
#
#
# Mechanical properties :
#
#
# Convention : Reuss Voigt Hill
#
# Bulk Modulus (GPa) = 50.12010 62.86268 56.49139
# Shear Modulus (GPa) = 18.58610 23.48211 21.03410
#
# Velocity S-wave (km/s) = 3.07464 3.45596 3.27086
# Velocity P-wave (km/s) = 6.17228 6.92088 6.55727
#
# Compressibility (1/GPa) = 0.01995208
#
# Stress axis : x y z
#
# Youngs Moduli (GPa) = 32.27877 47.45527 57.56816
#
# Poissons Ratio (x) = 0.60808 0.12810
# Poissons Ratio (y) = 0.41361 0.55821
# Poissons Ratio (z) = 0.07183 0.46015
#
# Static dielectric constant tensor:
#      x y z
#    x 1.760250 0.000000 0.000000 
#    y 0.000000 1.647060 0.000000 
#    z 0.000000 0.000000 1.731100 
# 
# From -- ./inp_files/46105.got.cif
#   From: 2010.05.17/outbox.cif.g08.bks.cpg/sg68_24_cif.got.tgz:46105.got - 2010.06.03 18:57:09.
