data_PCOD9506492
_publ_section_title
;
Structure prediction by ZEFSAII (Michael W. Deem and Ramdas Pophale) SiO2 
 PCOD9506492
Probable space group: C C C A
;
_chemical_formula_sum "Si O2"
_cell_formula_units_Z 96
_cell_length_a 27.792162
_cell_length_b 7.691279
_cell_length_c 25.878364
_cell_angle_alpha 90.000000
_cell_angle_beta 90.000000
_cell_angle_gamma 90.000000
_cell_volume 5531.688491
_symmetry_space_group_name_H-M "C C C A"
_symmetry_group_IT_number 68
_space_group.IT_coordinate_system_code '2'
_symmetry_cell_setting 'orthorhombic'
loop_
_space_group_symop_operation_xyz
x,y,z
-x,1/2-y,z
x,1/2-y,1/2-z
-x,y,1/2-z
-x,-y,-z
x,1/2+y,-z
-x,1/2+y,1/2+z
x,-y,1/2+z
1/2+x,1/2+y,z
1/2-x,-y,z
1/2+x,-y,1/2-z
1/2-x,1/2+y,1/2-z
1/2-x,1/2-y,-z
1/2+x,y,-z
1/2-x,y,1/2+z
1/2+x,1/2-y,1/2+z
loop_
_atom_site_type_symbol
_atom_site_label
_atom_site_fract_x
_atom_site_fract_y
_atom_site_fract_z
Si Si1 0.556900 0.750000 0.687832
Si Si2 0.194122 0.956418 0.750000
Si Si3 0.871059 0.462834 0.152877
Si Si4 0.305061 0.454741 0.940097
Si Si5 0.805061 0.045259 0.059903
Si Si6 0.628941 0.037166 0.652877
O O1 0.500000 0.750000 0.678236
O O2 0.564520 0.750000 0.750000
O O3 0.582049 0.577742 0.664278
O O4 0.582049 0.922257 0.664278
O O5 0.190902 0.750000 0.750000
O O6 0.166099 0.012326 0.698707
O O7 0.166099 0.012326 0.801293
O O8 0.250000 0.000000 0.750000
O O9 0.844917 0.520023 0.099844
O O10 0.878648 0.250000 0.153547
O O11 0.250000 0.500000 0.925971
O O12 0.307918 0.250000 0.935953
O O13 0.312772 0.500000 0.000000
O O14 0.844917 0.979977 0.099844
O O15 0.750000 0.000000 0.074029
#
# Coordination Sequence:
#
# PCOD9506492 Si02
#       6
#    16  16  16  16  16  16
#     4  11  24  40  64  87 106 146 194 238 295 341
#     4  10  20  32  50  79 115 152 178 216 271 330
#     4  10  22  38  55  83 117 148 188 233 285 335
#     4  10  20  33  53  84 118 158 193 226 276 335
#     4  10  20  33  53  84 118 158 193 226 276 335
#     4  10  22  38  55  83 117 148 188 233 285 335
#
# _framework density 17.354555999999999
#
# number of rings (size 3 to 8) (size 9 to 14) (size 15 to 20)
#    0.000    1.833    1.667    3.000    7.000    0.667 
#    0.000    1.667    0.000    1.000    0.000    0.000 
#    0.000    0.000    0.000    0.000    0.000    0.000 
#
# Total GULP energy -267638.192651 kJ/mol
# GULP energy per Si atom -5575.795680 kJ/mol
# Density = 1.731506 g / cm^3
# Si number density = 17.354556 Si / 1000 Ang^3
#
#
#
# Elastic Constant Matrix: (Units=GPa)
#
#
# Indices 1 2 3 4 5 6 
#
# 1 149.0903 52.3372 76.5088 0.0000 0.0000 0.0000
# 2 52.3372 68.3455 35.7121 0.0000 0.0000 0.0000
# 3 76.5088 35.7121 97.3963 0.0000 0.0000 0.0000
# 4 0.0000 0.0000 0.0000 32.5140 0.0000 0.0000
# 5 0.0000 0.0000 0.0000 0.0000 25.9662 0.0000
# 6 0.0000 0.0000 0.0000 0.0000 0.0000 31.7303
#
#
#
# Elastic Compliance Matrix: (Units=1/GPa)
#
#
# Indices 1 2 3 4 5 6 
#
# 1 0.012769 -0.005612 -0.007973 0.000000 0.000000 0.000000
# 2 -0.005612 0.020566 -0.003132 0.000000 0.000000 0.000000
# 3 -0.007973 -0.003132 0.017679 0.000000 0.000000 0.000000
# 4 0.000000 0.000000 0.000000 0.030756 0.000000 0.000000
# 5 0.000000 0.000000 0.000000 0.000000 0.038512 0.000000
# 6 0.000000 0.000000 0.000000 0.000000 0.000000 0.031516
#
#
# Mechanical properties :
#
#
# Convention : Reuss Voigt Hill
#
# Bulk Modulus (GPa) = 56.88529 71.54982 64.21755
# Shear Modulus (GPa) = 26.16566 28.06037 27.11301
#
# Velocity S-wave (km/s) = 3.88714 4.02542 3.95688
# Velocity P-wave (km/s) = 7.27983 7.93241 7.61311
#
# Compressibility (1/GPa) = 0.01757924
#
# Stress axis : x y z
#
# Youngs Moduli (GPa) = 78.31628 48.62425 56.56544
#
# Poissons Ratio (x) = 0.27288 0.45097
# Poissons Ratio (y) = 0.43952 0.17718
# Poissons Ratio (z) = 0.62438 0.15231
#
# Static dielectric constant tensor:
#      x y z
#    x -0.705150 0.000000 0.000000 
#    y 0.000000 1.625630 0.000000 
#    z 0.000000 0.000000 -0.957470 
# 
# From -- ./inp_files/46945.got.cif
#   From: 2010.05.17/outbox.cif.g08.bks.cpg/sg68_24_cif.got.tgz:46945.got - 2010.06.03 18:57:09.
