data_PCOD9506985
_publ_section_title
;
Structure prediction by ZEFSAII (Michael W. Deem and Ramdas Pophale) SiO2 
 PCOD9506985
Probable space group: C C C A
;
_chemical_formula_sum "Si O2"
_cell_formula_units_Z 104
_cell_length_a 16.519983
_cell_length_b 14.857320
_cell_length_c 18.806639
_cell_angle_alpha 90.000000
_cell_angle_beta 90.000000
_cell_angle_gamma 90.000000
_cell_volume 4615.951762
_symmetry_space_group_name_H-M "C C C A"
_symmetry_group_IT_number 68
_space_group.IT_coordinate_system_code '2'
_symmetry_cell_setting 'orthorhombic'
loop_
_space_group_symop_operation_xyz
x,y,z
-x,1/2-y,z
x,1/2-y,1/2-z
-x,y,1/2-z
-x,-y,-z
x,1/2+y,-z
-x,1/2+y,1/2+z
x,-y,1/2+z
1/2+x,1/2+y,z
1/2-x,-y,z
1/2+x,-y,1/2-z
1/2-x,1/2+y,1/2-z
1/2-x,1/2-y,-z
1/2+x,y,-z
1/2-x,y,1/2+z
1/2+x,1/2-y,1/2+z
loop_
_atom_site_type_symbol
_atom_site_label
_atom_site_fract_x
_atom_site_fract_y
_atom_site_fract_z
Si Si1 0.940101 0.882363 0.684419
Si Si2 0.334397 0.250000 0.750000
Si Si3 0.774616 0.104657 0.824749
Si Si4 0.086909 0.386198 0.552218
Si Si5 0.759283 0.390997 0.509184
Si Si6 0.064545 0.899652 0.968588
Si Si7 0.911688 0.079813 0.715216
O O1 0.887047 0.794394 0.688595
O O2 0.978806 0.887512 0.607419
O O3 0.000000 0.876795 0.750000
O O4 0.891695 0.975305 0.696434
O O5 0.286738 0.330641 0.785097
O O6 0.776284 0.128290 0.907874
O O7 0.854664 0.114713 0.777424
O O8 0.750000 0.000000 0.821512
O O9 0.172587 0.353880 0.518673
O O10 0.079327 0.492181 0.528206
O O11 0.092339 0.375085 0.637563
O O12 0.997407 0.357448 0.525194
O O13 0.750000 0.500000 0.501576
O O14 0.843058 0.363525 0.470120
O O15 0.000000 0.081198 0.750000
#
# Coordination Sequence:
#
# PCOD9506985 Si02
#       7
#    16   8  16  16  16  16  16
#     4  10  22  37  62  92 132 165 211 267 333 387
#     4  12  25  40  61  96 130 170 214 276 321 390
#     4  11  23  40  65  92 132 170 220 268 328 391
#     4   9  18  31  57  91 124 163 213 260 323 384
#     4   9  19  33  57  88 123 167 208 259 319 383
#     4   9  18  34  56  87 126 161 210 265 316 387
#     4  10  20  37  66  96 125 169 219 269 322 391
#
# _framework density 22.530564999999999
#
# number of rings (size 3 to 8) (size 9 to 14) (size 15 to 20)
#    0.000    2.154    1.538    1.154    4.308    4.308 
#    0.000    1.154    0.000    0.000    0.000    0.000 
#    0.000    0.000    0.000    0.000    0.000    0.000 
#
# Total GULP energy -289949.251833 kJ/mol
# GULP energy per Si atom -5575.947151 kJ/mol
# Density = 2.247928 g / cm^3
# Si number density = 22.530565 Si / 1000 Ang^3
#
#
#
# Elastic Constant Matrix: (Units=GPa)
#
#
# Indices 1 2 3 4 5 6 
#
# 1 120.4406 -0.1124 60.9211 0.0000 0.0000 0.0000
# 2 -0.1124 38.1956 7.4038 0.0000 0.0000 0.0000
# 3 60.9211 7.4038 141.3188 0.0000 0.0000 0.0000
# 4 0.0000 0.0000 0.0000 49.5826 0.0000 0.0000
# 5 0.0000 0.0000 0.0000 0.0000 44.2299 0.0000
# 6 0.0000 0.0000 0.0000 0.0000 0.0000 3.0982
#
#
#
# Elastic Compliance Matrix: (Units=1/GPa)
#
#
# Indices 1 2 3 4 5 6 
#
# 1 0.010651 0.000931 -0.004640 0.000000 0.000000 0.000000
# 2 0.000931 0.026531 -0.001791 0.000000 0.000000 0.000000
# 3 -0.004640 -0.001791 0.009170 0.000000 0.000000 0.000000
# 4 0.000000 0.000000 0.000000 0.020168 0.000000 0.000000
# 5 0.000000 0.000000 0.000000 0.000000 0.022609 0.000000
# 6 0.000000 0.000000 0.000000 0.000000 0.000000 0.322767
#
#
# Mechanical properties :
#
#
# Convention : Reuss Voigt Hill
#
# Bulk Modulus (GPa) = 28.28785 48.48667 38.38726
# Shear Modulus (GPa) = 11.50268 34.83165 23.16716
#
# Velocity S-wave (km/s) = 2.26196 3.93615 3.21012
# Velocity P-wave (km/s) = 4.40506 6.49806 5.55110
#
# Compressibility (1/GPa) = 0.03535086
#
# Stress axis : x y z
#
# Youngs Moduli (GPa) = 93.88933 37.69182 109.04639
#
# Poissons Ratio (x) = -0.03508 0.50600
# Poissons Ratio (y) = -0.08739 0.19533
# Poissons Ratio (z) = 0.43567 0.06752
#
# Static dielectric constant tensor:
#      x y z
#    x 1.402870 0.000000 0.000000 
#    y 0.000000 1.504030 0.000000 
#    z 0.000000 0.000000 1.840540 
# 
# From -- ./inp_files/38779.got.cif
#   From: 2010.05.17/outbox.cif.g08.bks.cpg/sg68_20_cif.got.tgz:38779.got - 2010.06.03 18:57:09.
