data_PCOD9506639
_publ_section_title
;
Structure prediction by ZEFSAII (Michael W. Deem and Ramdas Pophale) SiO2 
 PCOD9506639
Probable space group: C C C A
;
_chemical_formula_sum "Si O2"
_cell_formula_units_Z 64
_cell_length_a 17.957129
_cell_length_b 18.141940
_cell_length_c 9.118036
_cell_angle_alpha 90.000000
_cell_angle_beta 90.000000
_cell_angle_gamma 90.000000
_cell_volume 2970.447845
_symmetry_space_group_name_H-M "C C C A"
_symmetry_group_IT_number 68
_space_group.IT_coordinate_system_code '2'
_symmetry_cell_setting 'orthorhombic'
loop_
_space_group_symop_operation_xyz
x,y,z
-x,1/2-y,z
x,1/2-y,1/2-z
-x,y,1/2-z
-x,-y,-z
x,1/2+y,-z
-x,1/2+y,1/2+z
x,-y,1/2+z
1/2+x,1/2+y,z
1/2-x,-y,z
1/2+x,-y,1/2-z
1/2-x,1/2+y,1/2-z
1/2-x,1/2-y,-z
1/2+x,y,-z
1/2-x,y,1/2+z
1/2+x,1/2-y,1/2+z
loop_
_atom_site_type_symbol
_atom_site_label
_atom_site_fract_x
_atom_site_fract_y
_atom_site_fract_z
Si Si1 0.842564 0.216709 0.011812
Si Si2 0.295316 0.841483 0.168098
Si Si3 0.250000 0.500000 0.926514
Si Si4 0.000000 0.010215 0.250000
Si Si5 0.906053 0.926214 0.492764
O O1 0.852454 0.302484 0.052252
O O2 0.816030 0.181483 0.168243
O O3 0.907305 0.161671 0.968309
O O4 0.780041 0.198271 0.890599
O O5 0.283493 0.928431 0.155501
O O6 0.177043 0.462930 0.002211
O O7 0.051075 0.057056 0.358223
O O8 0.947297 0.963118 0.356099
#
# Coordination Sequence:
#
# PCOD9506639 Si02
#       5
#    16  16   8   8  16
#     4   9  18  33  52  80 116 151 186 239 306 360
#     4   9  18  31  52  85 117 142 186 249 302 354
#     4  10  20  34  62  92 112 148 204 250 296 358
#     4  10  22  38  56  84 124 162 204 252 310 373
#     4  10  21  37  59  84 117 158 204 256 307 367
#
# _framework density 21.545572
#
# number of rings (size 3 to 8) (size 9 to 14) (size 15 to 20)
#    0.000    2.500    0.000    1.500    0.000   13.000 
#    0.000    0.000    0.000   24.000    0.000    0.000 
#    0.000    0.000    0.000    0.000    0.000    0.000 
#
# Total GULP energy -178143.719202 kJ/mol
# GULP energy per Si atom -5566.991225 kJ/mol
# Density = 2.149653 g / cm^3
# Si number density = 21.545572 Si / 1000 Ang^3
#
#
#
# Elastic Constant Matrix: (Units=GPa)
#
#
# Indices 1 2 3 4 5 6 
#
# 1 68.7232 12.4280 17.6034 0.0000 0.0000 0.0000
# 2 12.4280 124.0349 -12.1440 0.0000 0.0000 0.0000
# 3 17.6034 -12.1440 38.0079 0.0000 0.0000 0.0000
# 4 0.0000 0.0000 0.0000 13.8242 0.0000 0.0000
# 5 0.0000 0.0000 0.0000 0.0000 5.2058 0.0000
# 6 0.0000 0.0000 0.0000 0.0000 0.0000 23.3158
#
#
#
# Elastic Compliance Matrix: (Units=1/GPa)
#
#
# Indices 1 2 3 4 5 6 
#
# 1 0.017284 -0.002597 -0.008835 0.000000 0.000000 0.000000
# 2 -0.002597 0.008713 0.003987 0.000000 0.000000 0.000000
# 3 -0.008835 0.003987 0.031676 0.000000 0.000000 0.000000
# 4 0.000000 0.000000 0.000000 0.072337 0.000000 0.000000
# 5 0.000000 0.000000 0.000000 0.000000 0.192093 0.000000
# 6 0.000000 0.000000 0.000000 0.000000 0.000000 0.042889
#
#
# Mechanical properties :
#
#
# Convention : Reuss Voigt Hill
#
# Bulk Modulus (GPa) = 23.37403 29.61563 26.49483
# Shear Modulus (GPa) = 12.68577 22.66107 17.67342
#
# Velocity S-wave (km/s) = 2.42913 3.24663 2.86716
# Velocity P-wave (km/s) = 4.32894 5.27537 4.82542
#
# Compressibility (1/GPa) = 0.04278252
#
# Stress axis : x y z
#
# Youngs Moduli (GPa) = 57.85792 114.77431 31.56977
#
# Poissons Ratio (x) = 0.29804 0.27891
# Poissons Ratio (y) = 0.15024 -0.12585
# Poissons Ratio (z) = 0.51116 -0.45755
#
# Static dielectric constant tensor:
#      x y z
#    x 1.883760 0.000000 0.000000 
#    y 0.000000 1.898150 0.000000 
#    z 0.000000 0.000000 1.761940 
# 
# From -- ./inp_files/5838.got.cif
#   From: 2010.05.17/outbox.cif.g08.bks.cpg/sg68_3_cif.got.tgz:5838.got - 2010.06.03 18:57:09.
