data_PCOD9506696
_publ_section_title
;
Structure prediction by ZEFSAII (Michael W. Deem and Ramdas Pophale) SiO2 
 PCOD9506696
Probable space group: C C C A
;
_chemical_formula_sum "Si O2"
_cell_formula_units_Z 116
_cell_length_a 19.172252
_cell_length_b 22.756963
_cell_length_c 10.739025
_cell_angle_alpha 90.000000
_cell_angle_beta 90.000000
_cell_angle_gamma 90.000000
_cell_volume 4685.460549
_symmetry_space_group_name_H-M "C C C A"
_symmetry_group_IT_number 68
_space_group.IT_coordinate_system_code '2'
_symmetry_cell_setting 'orthorhombic'
loop_
_space_group_symop_operation_xyz
x,y,z
-x,1/2-y,z
x,1/2-y,1/2-z
-x,y,1/2-z
-x,-y,-z
x,1/2+y,-z
-x,1/2+y,1/2+z
x,-y,1/2+z
1/2+x,1/2+y,z
1/2-x,-y,z
1/2+x,-y,1/2-z
1/2-x,1/2+y,1/2-z
1/2-x,1/2-y,-z
1/2+x,y,-z
1/2-x,y,1/2+z
1/2+x,1/2-y,1/2+z
loop_
_atom_site_type_symbol
_atom_site_label
_atom_site_fract_x
_atom_site_fract_y
_atom_site_fract_z
Si Si1 0.693922 0.552061 0.230042
Si Si2 0.174214 0.229770 0.476637
Si Si3 0.911209 0.685223 0.788757
Si Si4 0.000000 0.250000 0.750000
Si Si5 0.559728 0.421417 0.597644
Si Si6 0.589488 0.914923 0.047594
Si Si7 0.323729 0.873407 0.668390
Si Si8 0.899980 0.166308 0.594841
O O1 0.750000 0.500000 0.249436
O O2 0.628142 0.541660 0.136820
O O3 0.653902 0.568114 0.359828
O O4 0.744953 0.601471 0.169356
O O5 0.250000 0.250000 0.500000
O O6 0.165727 0.199525 0.341940
O O7 0.164574 0.185417 0.590115
O O8 0.128542 0.288437 0.490941
O O9 0.934571 0.750000 0.750000
O O10 0.929488 0.634518 0.691932
O O11 0.935462 0.652591 0.916729
O O12 0.046236 0.293511 0.668291
O O13 0.481419 0.448022 0.592670
O O14 0.568772 0.392102 0.464108
O O15 0.620890 0.914405 0.908807
O O16 0.342890 0.857734 0.808979
#
# Coordination Sequence:
#
# PCOD9506696 Si02
#       8
#    16  16  16   4  16  16  16  16
#     4  11  26  49  79 102 135 182 246 319 392 442
#     4  11  23  37  59  94 145 193 238 287 350 430
#     4  10  20  35  58  99 136 186 231 277 341 418
#     4  12  24  44  60  98 152 216 246 264 358 448
#     4  11  24  44  74 107 144 188 243 308 366 431
#     4  10  25  46  71 103 147 183 239 306 359 441
#     4  11  25  45  66 105 143 196 247 298 371 439
#     4  12  24  40  67  99 150 202 239 290 351 442
#
# _framework density 24.757438
#
# number of rings (size 3 to 8) (size 9 to 14) (size 15 to 20)
#    0.000    1.103    2.759    3.310   11.586    1.655 
#    0.000    0.690    6.069    0.000    0.000    0.000 
#    0.000    0.000    0.000    0.000    0.000    0.000 
#
# Total GULP energy -323013.467166 kJ/mol
# GULP energy per Si atom -5569.197710 kJ/mol
# Density = 2.470109 g / cm^3
# Si number density = 24.757438 Si / 1000 Ang^3
#
#
#
# Elastic Constant Matrix: (Units=GPa)
#
#
# Indices 1 2 3 4 5 6 
#
# 1 171.9803 32.4578 36.9609 0.0000 0.0000 0.0000
# 2 32.4578 90.6216 20.9931 0.0000 0.0000 0.0000
# 3 36.9609 20.9931 58.9833 0.0000 0.0000 0.0000
# 4 0.0000 0.0000 0.0000 9.1190 0.0000 0.0000
# 5 0.0000 0.0000 0.0000 0.0000 22.6359 0.0000
# 6 0.0000 0.0000 0.0000 0.0000 0.0000 -1.1822
#
#
#
# Elastic Compliance Matrix: (Units=1/GPa)
#
#
# Indices 1 2 3 4 5 6 
#
# 1 0.006928 -0.001608 -0.003769 0.000000 0.000000 0.000000
# 2 -0.001608 0.012400 -0.003405 0.000000 0.000000 0.000000
# 3 -0.003769 -0.003405 0.020528 0.000000 0.000000 0.000000
# 4 0.000000 0.000000 0.000000 0.109662 0.000000 0.000000
# 5 0.000000 0.000000 0.000000 0.000000 0.044178 0.000000
# 6 0.000000 0.000000 0.000000 0.000000 0.000000 -0.845867
#
#
# Mechanical properties :
#
#
# Convention : Reuss Voigt Hill
#
# Bulk Modulus (GPa) = 44.86273 55.82320 50.34296
# Shear Modulus (GPa) = -7.97225 21.52610 6.77692
#
# Velocity S-wave (km/s) = -1.79642 2.95189 1.65628
# Velocity P-wave (km/s) = 3.72255 5.84938 4.90268
#
# Compressibility (1/GPa) = 0.02229022
#
# Stress axis : x y z
#
# Youngs Moduli (GPa) = 144.33836 80.64612 48.71447
#
# Poissons Ratio (x) = 0.12971 0.18360
# Poissons Ratio (y) = 0.23214 0.16590
# Poissons Ratio (z) = 0.54401 0.27464
#
# Static dielectric constant tensor:
#      x y z
#    x 1.935220 0.000000 0.000000 
#    y 0.000000 2.062880 0.000000 
#    z 0.000000 0.000000 2.629240 
# 
# From -- ./inp_files/14850.got.cif
#   From: 2010.05.17/outbox.cif.g08.bks.cpg/sg68_8_cif.got.tgz:14850.got - 2010.06.03 18:57:09.
