data_PCOD9506210
_publ_section_title
;
Structure prediction by ZEFSAII (Michael W. Deem and Ramdas Pophale) SiO2 
 PCOD9506210
Probable space group: C C C A
;
_chemical_formula_sum "Si O2"
_cell_formula_units_Z 64
_cell_length_a 13.878014
_cell_length_b 12.360819
_cell_length_c 17.853838
_cell_angle_alpha 90.000000
_cell_angle_beta 90.000000
_cell_angle_gamma 90.000000
_cell_volume 3062.711986
_symmetry_space_group_name_H-M "C C C A"
_symmetry_group_IT_number 68
_space_group.IT_coordinate_system_code '2'
_symmetry_cell_setting 'orthorhombic'
loop_
_space_group_symop_operation_xyz
x,y,z
-x,1/2-y,z
x,1/2-y,1/2-z
-x,y,1/2-z
-x,-y,-z
x,1/2+y,-z
-x,1/2+y,1/2+z
x,-y,1/2+z
1/2+x,1/2+y,z
1/2-x,-y,z
1/2+x,-y,1/2-z
1/2-x,1/2+y,1/2-z
1/2-x,1/2-y,-z
1/2+x,y,-z
1/2-x,y,1/2+z
1/2+x,1/2-y,1/2+z
loop_
_atom_site_type_symbol
_atom_site_label
_atom_site_fract_x
_atom_site_fract_y
_atom_site_fract_z
Si Si1 0.815704 0.898363 0.964233
Si Si2 0.647932 0.442725 0.296627
Si Si3 0.450886 0.035141 0.134634
Si Si4 0.847843 0.757072 0.397000
O O1 0.748557 0.829335 0.907826
O O2 0.750000 0.000000 0.990472
O O3 0.904798 0.948887 0.920437
O O4 0.846393 0.823104 0.032352
O O5 0.750000 0.500000 0.306457
O O6 0.609568 0.458666 0.212294
O O7 0.561360 0.489014 0.347579
O O8 0.654097 0.318406 0.323917
O O9 0.433366 0.155443 0.102643
#
# Coordination Sequence:
#
# PCOD9506210 Si02
#       4
#    16  16  16  16
#     4   9  19  37  59  88 123 155 191 240 296 344
#     4  11  22  38  60  87 119 154 194 240 291 349
#     4  10  22  39  60  87 118 153 194 242 293 346
#     4  10  19  35  62  89 116 152 195 241 287 344
#
# _framework density 20.896512000000001
#
# number of rings (size 3 to 8) (size 9 to 14) (size 15 to 20)
#    0.000    2.000    0.000    4.500    0.000    3.000 
#    0.000    6.250    0.000    3.000    0.000    0.000 
#    0.000    0.000    0.000    0.000    0.000    0.000 
#
# Total GULP energy -178875.263329 kJ/mol
# GULP energy per Si atom -5589.851979 kJ/mol
# Density = 2.084895 g / cm^3
# Si number density = 20.896512 Si / 1000 Ang^3
#
#
#
# Elastic Constant Matrix: (Units=GPa)
#
#
# Indices 1 2 3 4 5 6 
#
# 1 163.0863 57.3297 49.2956 0.0000 0.0000 0.0000
# 2 57.3297 98.4668 29.5458 0.0000 0.0000 0.0000
# 3 49.2956 29.5458 46.0044 0.0000 0.0000 0.0000
# 4 0.0000 0.0000 0.0000 29.5450 0.0000 0.0000
# 5 0.0000 0.0000 0.0000 0.0000 33.8865 0.0000
# 6 0.0000 0.0000 0.0000 0.0000 0.0000 26.2200
#
#
#
# Elastic Compliance Matrix: (Units=1/GPa)
#
#
# Indices 1 2 3 4 5 6 
#
# 1 0.009806 -0.003167 -0.008474 0.000000 0.000000 0.000000
# 2 -0.003167 0.013603 -0.005343 0.000000 0.000000 0.000000
# 3 -0.008474 -0.005343 0.034249 0.000000 0.000000 0.000000
# 4 0.000000 0.000000 0.000000 0.033847 0.000000 0.000000
# 5 0.000000 0.000000 0.000000 0.000000 0.029510 0.000000
# 6 0.000000 0.000000 0.000000 0.000000 0.000000 0.038139
#
#
# Mechanical properties :
#
#
# Convention : Reuss Voigt Hill
#
# Bulk Modulus (GPa) = 42.21122 64.43332 53.32227
# Shear Modulus (GPa) = 24.87342 29.35605 27.11473
#
# Velocity S-wave (km/s) = 3.45384 3.75217 3.60609
# Velocity P-wave (km/s) = 6.01243 7.04792 6.55067
#
# Compressibility (1/GPa) = 0.02369039
#
# Stress axis : x y z
#
# Youngs Moduli (GPa) = 101.97436 73.51519 29.19814
#
# Poissons Ratio (x) = 0.23281 0.24743
# Poissons Ratio (y) = 0.32293 0.15600
# Poissons Ratio (z) = 0.86414 0.39278
#
# Static dielectric constant tensor:
#      x y z
#    x 1.767560 0.000000 0.000000 
#    y 0.000000 1.728720 0.000000 
#    z 0.000000 0.000000 1.756820 
# 
# From -- ./inp_files/29110.got.cif
#   From: 2010.05.17/outbox.cif.g08.bks.cpg/sg68_15_cif.got.tgz:29110.got - 2010.06.03 18:57:09.
