data_PCOD9506575
_publ_section_title
;
Structure prediction by ZEFSAII (Michael W. Deem and Ramdas Pophale) SiO2 
 PCOD9506575
Probable space group: C C C A
;
_chemical_formula_sum "Si O2"
_cell_formula_units_Z 96
_cell_length_a 23.634081
_cell_length_b 8.756936
_cell_length_c 25.912373
_cell_angle_alpha 90.000000
_cell_angle_beta 90.000000
_cell_angle_gamma 90.000000
_cell_volume 5362.880032
_symmetry_space_group_name_H-M "C C C A"
_symmetry_group_IT_number 68
_space_group.IT_coordinate_system_code '2'
_symmetry_cell_setting 'orthorhombic'
loop_
_space_group_symop_operation_xyz
x,y,z
-x,1/2-y,z
x,1/2-y,1/2-z
-x,y,1/2-z
-x,-y,-z
x,1/2+y,-z
-x,1/2+y,1/2+z
x,-y,1/2+z
1/2+x,1/2+y,z
1/2-x,-y,z
1/2+x,-y,1/2-z
1/2-x,1/2+y,1/2-z
1/2-x,1/2-y,-z
1/2+x,y,-z
1/2-x,y,1/2+z
1/2+x,1/2-y,1/2+z
loop_
_atom_site_type_symbol
_atom_site_label
_atom_site_fract_x
_atom_site_fract_y
_atom_site_fract_z
Si Si1 0.142568 0.750000 0.250000
Si Si2 0.432800 0.786067 0.011924
Si Si3 0.602326 0.988030 0.574820
Si Si4 0.134596 0.750000 0.750000
Si Si5 0.444244 0.526074 0.785789
Si Si6 0.517698 0.927788 0.395826
Si Si7 0.684853 0.487171 0.826216
O O1 0.098603 0.665989 0.287259
O O2 0.174770 0.623320 0.216005
O O3 0.500000 0.750000 0.998696
O O4 0.402857 0.644931 0.041160
O O5 0.442012 0.921202 0.054428
O O6 0.395246 0.848051 0.965171
O O7 0.538672 0.977144 0.595907
O O8 0.644853 0.996886 0.623150
O O9 0.092357 0.614290 0.764691
O O10 0.170938 0.672468 0.703863
O O11 0.500000 0.548494 0.750000
O O12 0.457635 0.485554 0.843631
O O13 0.500000 0.750000 0.388607
O O14 0.750000 0.500000 0.841993
#
# Coordination Sequence:
#
# PCOD9506575 Si02
#       7
#     8  16  16   8  16  16  16
#     4  10  24  36  52  82 112 142 178 228 284 330
#     4   9  18  33  53  81 111 142 175 216 273 347
#     4  10  20  34  54  78 107 142 181 223 272 323
#     4  10  20  36  58  78 110 150 180 218 278 348
#     4  11  19  31  52  86 120 146 174 217 277 349
#     4   9  16  29  51  80 111 145 176 208 264 344
#     4  11  23  41  59  77 103 145 196 242 278 320
#
# _framework density 17.900829999999999
#
# number of rings (size 3 to 8) (size 9 to 14) (size 15 to 20)
#    0.000    2.333    0.000    8.000    0.000    2.667 
#    0.000    0.833    0.000    0.000    0.000    0.000 
#    0.000    0.000    0.000    0.000    0.000    0.000 
#
# Total GULP energy -267221.127975 kJ/mol
# GULP energy per Si atom -5567.106833 kJ/mol
# Density = 1.786009 g / cm^3
# Si number density = 17.900830 Si / 1000 Ang^3
#
#
#
# Elastic Constant Matrix: (Units=GPa)
#
#
# Indices 1 2 3 4 5 6 
#
# 1 50.6008 9.4449 29.9783 0.0000 0.0000 0.0000
# 2 9.4449 27.7163 4.4046 0.0000 0.0000 0.0000
# 3 29.9783 4.4046 91.6309 0.0000 0.0000 0.0000
# 4 0.0000 0.0000 0.0000 -22.4789 0.0000 0.0000
# 5 0.0000 0.0000 0.0000 0.0000 18.3867 0.0000
# 6 0.0000 0.0000 0.0000 0.0000 0.0000 10.4368
#
#
#
# Elastic Compliance Matrix: (Units=1/GPa)
#
#
# Indices 1 2 3 4 5 6 
#
# 1 0.025998 -0.007566 -0.008142 0.000000 0.000000 0.000000
# 2 -0.007566 0.038559 0.000622 0.000000 0.000000 0.000000
# 3 -0.008142 0.000622 0.013547 0.000000 0.000000 0.000000
# 4 0.000000 0.000000 0.000000 -0.044486 0.000000 0.000000
# 5 0.000000 0.000000 0.000000 0.000000 0.054387 0.000000
# 6 0.000000 0.000000 0.000000 0.000000 0.000000 0.095815
#
#
# Mechanical properties :
#
#
# Convention : Reuss Voigt Hill
#
# Bulk Modulus (GPa) = 20.86247 28.62261 24.74254
# Shear Modulus (GPa) = 21.74194 9.67694 15.70944
#
# Velocity S-wave (km/s) = 3.48886 2.32757 2.96561
# Velocity P-wave (km/s) = 5.28292 4.82159 5.05752
#
# Compressibility (1/GPa) = 0.04793297
#
# Stress axis : x y z
#
# Youngs Moduli (GPa) = 38.46388 25.93416 73.81574
#
# Poissons Ratio (x) = 0.19621 0.60101
# Poissons Ratio (y) = 0.29100 -0.04589
# Poissons Ratio (z) = 0.31318 -0.01612
#
# Static dielectric constant tensor:
#      x y z
#    x 1.662920 0.000000 0.000000 
#    y 0.000000 1.417910 0.000000 
#    z 0.000000 0.000000 1.719350 
# 
# From -- ./inp_files/52128.got.cif
#   From: 2010.05.17/outbox.cif.g08.bks.cpg/sg68_27_cif.got.tgz:52128.got - 2010.06.03 18:57:09.
