data_PCOD9506001
_publ_section_title
;
Structure prediction by ZEFSAII (Michael W. Deem and Ramdas Pophale) SiO2 
 PCOD9506001
Probable space group: C C C A
;
_chemical_formula_sum "Si O2"
_cell_formula_units_Z 100
_cell_length_a 31.612295
_cell_length_b 21.497863
_cell_length_c 7.808172
_cell_angle_alpha 90.000000
_cell_angle_beta 90.000000
_cell_angle_gamma 90.000000
_cell_volume 5306.408604
_symmetry_space_group_name_H-M "C C C A"
_symmetry_group_IT_number 68
_space_group.IT_coordinate_system_code '2'
_symmetry_cell_setting 'orthorhombic'
loop_
_space_group_symop_operation_xyz
x,y,z
-x,1/2-y,z
x,1/2-y,1/2-z
-x,y,1/2-z
-x,-y,-z
x,1/2+y,-z
-x,1/2+y,1/2+z
x,-y,1/2+z
1/2+x,1/2+y,z
1/2-x,-y,z
1/2+x,-y,1/2-z
1/2-x,1/2+y,1/2-z
1/2-x,1/2-y,-z
1/2+x,y,-z
1/2-x,y,1/2+z
1/2+x,1/2-y,1/2+z
loop_
_atom_site_type_symbol
_atom_site_label
_atom_site_fract_x
_atom_site_fract_y
_atom_site_fract_z
Si Si1 0.635952 0.591788 0.927378
Si Si2 0.281322 0.134699 0.306475
Si Si3 0.582390 0.705018 0.901026
Si Si4 0.161691 0.967294 0.738643
Si Si5 0.500000 0.750000 0.750000
Si Si6 0.126098 0.250000 0.250000
Si Si7 0.308853 0.345354 0.576171
Si Si8 0.250000 0.000000 0.201380
O O1 0.679225 0.633369 0.935401
O O2 0.599381 0.636321 0.865501
O O3 0.644980 0.532039 0.810286
O O4 0.628402 0.564893 0.114931
O O5 0.238253 0.169494 0.351994
O O6 0.264018 0.063477 0.294169
O O7 0.301553 0.155465 0.127343
O O8 0.600517 0.750000 0.750000
O O9 0.532220 0.711482 0.869599
O O10 0.598173 0.723727 0.091047
O O11 0.176084 0.915545 0.875339
O O12 0.204507 0.980959 0.626621
O O13 0.156797 0.199648 0.340531
#
# Coordination Sequence:
#
# PCOD9506001 Si02
#       8
#    16  16  16  16   4   8  16   8
#     4  11  20  36  60  90 129 166 215 267 309 371
#     4  10  20  33  51  79 128 176 227 264 300 348
#     4  10  23  46  71  98 123 157 206 262 324 398
#     4  10  19  32  54  86 122 170 215 261 307 347
#     4   8  24  50  78  96 114 164 194 256 332 420
#     4  12  24  41  65  96 132 160 217 269 314 384
#     4  11  22  35  51  86 126 182 223 260 307 346
#     4   8  16  28  46  72 112 170 224 254 282 338
#
# _framework density 18.845137999999999
#
# number of rings (size 3 to 8) (size 9 to 14) (size 15 to 20)
#    0.480    1.280    1.600    4.800    0.000    6.080 
#    1.440    0.000    0.000    0.960    0.000    0.000 
#    0.000    0.000    0.000    0.000    0.000    0.000 
#
# Total GULP energy -278440.868114 kJ/mol
# GULP energy per Si atom -5568.817362 kJ/mol
# Density = 1.880225 g / cm^3
# Si number density = 18.845138 Si / 1000 Ang^3
#
#
#
# Elastic Constant Matrix: (Units=GPa)
#
#
# Indices 1 2 3 4 5 6 
#
# 1 100.6943 40.5669 17.7181 0.0000 0.0000 0.0000
# 2 40.5669 59.5871 17.0163 0.0000 0.0000 0.0000
# 3 17.7181 17.0163 81.9645 0.0000 0.0000 0.0000
# 4 0.0000 0.0000 0.0000 20.7013 0.0000 0.0000
# 5 0.0000 0.0000 0.0000 0.0000 16.1981 0.0000
# 6 0.0000 0.0000 0.0000 0.0000 0.0000 23.5088
#
#
#
# Elastic Compliance Matrix: (Units=1/GPa)
#
#
# Indices 1 2 3 4 5 6 
#
# 1 0.013776 -0.009066 -0.001096 0.000000 0.000000 0.000000
# 2 -0.009066 0.023806 -0.002982 0.000000 0.000000 0.000000
# 3 -0.001096 -0.002982 0.013056 0.000000 0.000000 0.000000
# 4 0.000000 0.000000 0.000000 0.048306 0.000000 0.000000
# 5 0.000000 0.000000 0.000000 0.000000 0.061735 0.000000
# 6 0.000000 0.000000 0.000000 0.000000 0.000000 0.042537
#
#
# Mechanical properties :
#
#
# Convention : Reuss Voigt Hill
#
# Bulk Modulus (GPa) = 41.06752 43.64984 42.35868
# Shear Modulus (GPa) = 21.04174 23.21129 22.12651
#
# Velocity S-wave (km/s) = 3.34512 3.51335 3.43027
# Velocity P-wave (km/s) = 6.06294 6.29848 6.18183
#
# Compressibility (1/GPa) = 0.02435014
#
# Stress axis : x y z
#
# Youngs Moduli (GPa) = 72.58845 42.00625 76.59033
#
# Poissons Ratio (x) = 0.38083 0.08393
# Poissons Ratio (y) = 0.65808 0.22843
# Poissons Ratio (z) = 0.07955 0.12528
#
# Static dielectric constant tensor:
#      x y z
#    x 1.638050 0.000000 0.000000 
#    y 0.000000 1.716320 0.000000 
#    z 0.000000 0.000000 1.722650 
# 
# From -- ./inp_files/9615.got.cif
#   From: 2010.05.17/outbox.cif.g08.bks.cpg/sg68_5_cif.got.tgz:9615.got - 2010.06.03 18:57:09.
