data_PCOD9506802
_publ_section_title
;
Structure prediction by ZEFSAII (Michael W. Deem and Ramdas Pophale) SiO2 
 PCOD9506802
Probable space group: C C C A
;
_chemical_formula_sum "Si O2"
_cell_formula_units_Z 112
_cell_length_a 13.749404
_cell_length_b 24.830978
_cell_length_c 14.443195
_cell_angle_alpha 90.000000
_cell_angle_beta 90.000000
_cell_angle_gamma 90.000000
_cell_volume 4931.067789
_symmetry_space_group_name_H-M "C C C A"
_symmetry_group_IT_number 68
_space_group.IT_coordinate_system_code '2'
_symmetry_cell_setting 'orthorhombic'
loop_
_space_group_symop_operation_xyz
x,y,z
-x,1/2-y,z
x,1/2-y,1/2-z
-x,y,1/2-z
-x,-y,-z
x,1/2+y,-z
-x,1/2+y,1/2+z
x,-y,1/2+z
1/2+x,1/2+y,z
1/2-x,-y,z
1/2+x,-y,1/2-z
1/2-x,1/2+y,1/2-z
1/2-x,1/2-y,-z
1/2+x,y,-z
1/2-x,y,1/2+z
1/2+x,1/2-y,1/2+z
loop_
_atom_site_type_symbol
_atom_site_label
_atom_site_fract_x
_atom_site_fract_y
_atom_site_fract_z
Si Si1 0.388281 0.639972 0.721518
Si Si2 0.608474 0.732999 0.921095
Si Si3 0.236943 0.667326 0.392775
Si Si4 0.271984 0.559936 0.179248
Si Si5 0.310396 0.553716 0.402474
Si Si6 0.514974 0.919954 0.144779
Si Si7 0.935619 0.801704 0.873796
O O1 0.500000 0.630107 0.750000
O O2 0.364495 0.692696 0.660497
O O3 0.341746 0.647736 0.820813
O O4 0.327031 0.593590 0.670573
O O5 0.500000 0.750000 0.893440
O O6 0.680883 0.782898 0.940329
O O7 0.592763 0.702861 0.017945
O O8 0.272419 0.611651 0.441288
O O9 0.328048 0.690975 0.333416
O O10 0.250000 0.500000 0.150682
O O11 0.295539 0.559958 0.290375
O O12 0.370481 0.576106 0.126187
O O13 0.250000 0.500000 0.428905
O O14 0.428129 0.552509 0.414615
O O15 0.500000 0.940596 0.250000
O O16 0.491946 0.856423 0.143570
O O17 0.000000 0.750000 0.850735
#
# Coordination Sequence:
#
# PCOD9506802 Si02
#       7
#    16  16  16  16  16  16  16
#     4  11  22  37  60  87 120 153 200 253 302 353
#     4  11  22  39  58  85 121 156 197 249 299 358
#     4  10  20  36  59  87 116 152 196 242 295 353
#     4   9  19  33  55  87 118 152 193 247 309 349
#     4   8  16  32  56  87 119 150 194 244 301 351
#     4   9  18  36  56  85 122 149 198 250 287 361
#     4  10  23  39  58  85 116 163 195 235 303 363
#
# _framework density 22.713132999999999
#
# number of rings (size 3 to 8) (size 9 to 14) (size 15 to 20)
#    0.000    2.286    1.429    1.714    2.000    4.286 
#    5.143    0.000    0.000    4.286    0.000    1.000 
#    0.000    0.000    0.000    0.000    0.000    0.000 
#
# Total GULP energy -312095.704467 kJ/mol
# GULP energy per Si atom -5573.137580 kJ/mol
# Density = 2.266144 g / cm^3
# Si number density = 22.713133 Si / 1000 Ang^3
#
#
#
# Elastic Constant Matrix: (Units=GPa)
#
#
# Indices 1 2 3 4 5 6 
#
# 1 174.9683 67.1389 6.6629 0.0000 0.0000 0.0000
# 2 67.1389 114.9023 2.8471 0.0000 0.0000 0.0000
# 3 6.6629 2.8471 31.0318 0.0000 0.0000 0.0000
# 4 0.0000 0.0000 0.0000 -7.4789 0.0000 0.0000
# 5 0.0000 0.0000 0.0000 0.0000 1.4077 0.0000
# 6 0.0000 0.0000 0.0000 0.0000 0.0000 32.7944
#
#
#
# Elastic Compliance Matrix: (Units=1/GPa)
#
#
# Indices 1 2 3 4 5 6 
#
# 1 0.007411 -0.004301 -0.001197 0.000000 0.000000 0.000000
# 2 -0.004301 0.011219 -0.000106 0.000000 0.000000 0.000000
# 3 -0.001197 -0.000106 0.032492 0.000000 0.000000 0.000000
# 4 0.000000 0.000000 0.000000 -0.133710 0.000000 0.000000
# 5 0.000000 0.000000 0.000000 0.000000 0.710363 0.000000
# 6 0.000000 0.000000 0.000000 0.000000 0.000000 0.030493
#
#
# Mechanical properties :
#
#
# Convention : Reuss Voigt Hill
#
# Bulk Modulus (GPa) = 25.05332 52.68891 38.87112
# Shear Modulus (GPa) = 7.32301 21.62821 14.47561
#
# Velocity S-wave (km/s) = 1.79753 3.08918 2.52727
# Velocity P-wave (km/s) = 3.91950 5.99766 5.06628
#
# Compressibility (1/GPa) = 0.03991487
#
# Stress axis : x y z
#
# Youngs Moduli (GPa) = 134.93090 89.13695 30.77712
#
# Poissons Ratio (x) = 0.38336 0.03683
# Poissons Ratio (y) = 0.58031 0.00326
# Poissons Ratio (z) = 0.16147 0.00944
#
# Static dielectric constant tensor:
#      x y z
#    x 2.711150 0.000000 0.000000 
#    y 0.000000 1.905240 0.000000 
#    z 0.000000 0.000000 1.921240 
# 
# From -- ./inp_files/37824.got.cif
#   From: 2010.05.17/outbox.cif.g08.bks.cpg/sg68_19_cif.got.tgz:37824.got - 2010.06.03 18:57:09.
