data_PCOD9506263
_publ_section_title
;
Structure prediction by ZEFSAII (Michael W. Deem and Ramdas Pophale) SiO2 
 PCOD9506263
Probable space group: C C C A
;
_chemical_formula_sum "Si O2"
_cell_formula_units_Z 88
_cell_length_a 30.603364
_cell_length_b 8.736209
_cell_length_c 15.936547
_cell_angle_alpha 90.000000
_cell_angle_beta 90.000000
_cell_angle_gamma 90.000000
_cell_volume 4260.753516
_symmetry_space_group_name_H-M "C C C A"
_symmetry_group_IT_number 68
_space_group.IT_coordinate_system_code '2'
_symmetry_cell_setting 'orthorhombic'
loop_
_space_group_symop_operation_xyz
x,y,z
-x,1/2-y,z
x,1/2-y,1/2-z
-x,y,1/2-z
-x,-y,-z
x,1/2+y,-z
-x,1/2+y,1/2+z
x,-y,1/2+z
1/2+x,1/2+y,z
1/2-x,-y,z
1/2+x,-y,1/2-z
1/2-x,1/2+y,1/2-z
1/2-x,1/2-y,-z
1/2+x,y,-z
1/2-x,y,1/2+z
1/2+x,1/2-y,1/2+z
loop_
_atom_site_type_symbol
_atom_site_label
_atom_site_fract_x
_atom_site_fract_y
_atom_site_fract_z
Si Si1 0.250000 0.500000 0.029308
Si Si2 0.609391 0.178949 0.959408
Si Si3 0.452663 0.678276 0.614272
Si Si4 0.879274 0.910957 0.327374
Si Si5 0.808904 0.766381 0.423944
Si Si6 0.419824 0.111734 0.809696
O O1 0.222568 0.620774 0.083734
O O2 0.218251 0.400356 0.969623
O O3 0.600655 0.312724 0.892298
O O4 0.616194 0.026341 0.905869
O O5 0.568847 0.160127 0.022489
O O6 0.651801 0.215453 0.014297
O O7 0.500000 0.750000 0.610376
O O8 0.418890 0.791209 0.661848
O O9 0.454202 0.514418 0.660090
O O10 0.833543 0.826114 0.341466
O O11 0.885154 0.014092 0.245070
O O12 0.435795 0.250000 0.750000
#
# Coordination Sequence:
#
# PCOD9506263 Si02
#       6
#     8  16  16  16  16  16
#     4  10  20  32  62  98 128 162 214 272 304 378
#     4  10  21  39  64  93 125 168 218 262 314 386
#     4  11  23  40  63  93 126 167 218 267 317 382
#     4  10  21  38  60  90 130 172 208 262 320 389
#     4  10  19  36  59  98 126 164 217 258 319 374
#     4  10  23  41  62  93 124 174 212 262 328 385
#
# _framework density 20.653623
#
# number of rings (size 3 to 8) (size 9 to 14) (size 15 to 20)
#    0.000    1.818    1.818    2.727    2.545    4.364 
#    0.000    7.273    0.000    1.091    4.727    0.000 
#    0.000    0.000    0.000    0.000    0.000    0.000 
#
# Total GULP energy -245939.547521 kJ/mol
# GULP energy per Si atom -5589.535171 kJ/mol
# Density = 2.060661 g / cm^3
# Si number density = 20.653623 Si / 1000 Ang^3
#
#
#
# Elastic Constant Matrix: (Units=GPa)
#
#
# Indices 1 2 3 4 5 6 
#
# 1 121.7712 63.8474 34.6617 0.0000 0.0000 0.0000
# 2 63.8474 150.1341 52.5477 0.0000 0.0000 0.0000
# 3 34.6617 52.5477 108.3495 0.0000 0.0000 0.0000
# 4 0.0000 0.0000 0.0000 32.5556 0.0000 0.0000
# 5 0.0000 0.0000 0.0000 0.0000 -12.8595 0.0000
# 6 0.0000 0.0000 0.0000 0.0000 0.0000 27.7081
#
#
#
# Elastic Compliance Matrix: (Units=1/GPa)
#
#
# Indices 1 2 3 4 5 6 
#
# 1 0.010760 -0.004061 -0.001473 0.000000 0.000000 0.000000
# 2 -0.004061 0.009555 -0.003335 0.000000 0.000000 0.000000
# 3 -0.001473 -0.003335 0.011318 0.000000 0.000000 0.000000
# 4 0.000000 0.000000 0.000000 0.030717 0.000000 0.000000
# 5 0.000000 0.000000 0.000000 0.000000 -0.077764 0.000000
# 6 0.000000 0.000000 0.000000 0.000000 0.000000 0.036090
#
#
# Mechanical properties :
#
#
# Convention : Reuss Voigt Hill
#
# Bulk Modulus (GPa) = 71.96183 75.81870 73.89026
# Shear Modulus (GPa) = 116.15513 24.76072 70.45792
#
# Velocity S-wave (km/s) = 7.50744 3.46621 5.84706
# Velocity P-wave (km/s) = 10.49127 7.26696 9.02429
#
# Compressibility (1/GPa) = 0.01389626
#
# Stress axis : x y z
#
# Youngs Moduli (GPa) = 92.93303 104.65987 88.35469
#
# Poissons Ratio (x) = 0.42497 0.13015
# Poissons Ratio (y) = 0.37735 0.29466
# Poissons Ratio (z) = 0.13690 0.34903
#
# Static dielectric constant tensor:
#      x y z
#    x 1.698730 0.000000 0.000000 
#    y 0.000000 1.793050 0.000000 
#    z 0.000000 0.000000 1.748730 
# 
# From -- ./inp_files/34363.got.cif
#   From: 2010.05.17/outbox.cif.g08.bks.cpg/sg68_18_cif.got.tgz:34363.got - 2010.06.03 18:57:09.
