data_PCOD9506342
_publ_section_title
;
Structure prediction by ZEFSAII (Michael W. Deem and Ramdas Pophale) SiO2 
 PCOD9506342
Probable space group: C C C A
;
_chemical_formula_sum "Si O2"
_cell_formula_units_Z 96
_cell_length_a 16.248390
_cell_length_b 24.001074
_cell_length_c 11.253769
_cell_angle_alpha 90.000000
_cell_angle_beta 90.000000
_cell_angle_gamma 90.000000
_cell_volume 4388.731451
_symmetry_space_group_name_H-M "C C C A"
_symmetry_group_IT_number 68
_space_group.IT_coordinate_system_code '2'
_symmetry_cell_setting 'orthorhombic'
loop_
_space_group_symop_operation_xyz
x,y,z
-x,1/2-y,z
x,1/2-y,1/2-z
-x,y,1/2-z
-x,-y,-z
x,1/2+y,-z
-x,1/2+y,1/2+z
x,-y,1/2+z
1/2+x,1/2+y,z
1/2-x,-y,z
1/2+x,-y,1/2-z
1/2-x,1/2+y,1/2-z
1/2-x,1/2-y,-z
1/2+x,y,-z
1/2-x,y,1/2+z
1/2+x,1/2-y,1/2+z
loop_
_atom_site_type_symbol
_atom_site_label
_atom_site_fract_x
_atom_site_fract_y
_atom_site_fract_z
Si Si1 0.400689 0.843044 0.248214
Si Si2 0.446698 0.601138 0.922843
Si Si3 0.362693 0.207445 0.987610
Si Si4 0.821985 0.827294 0.006364
Si Si5 0.627001 0.081653 0.182176
Si Si6 0.579030 0.961516 0.161909
O O1 0.500000 0.838649 0.250000
O O2 0.367884 0.797941 0.343551
O O3 0.367616 0.841957 0.115393
O O4 0.378749 0.905186 0.292502
O O5 0.535623 0.596294 0.865403
O O6 0.377555 0.589762 0.823432
O O7 0.429740 0.663179 0.969557
O O8 0.446169 0.556723 0.029497
O O9 0.367441 0.269299 0.040206
O O10 0.272154 0.186813 0.022229
O O11 0.820534 0.874871 0.106413
O O12 0.635358 0.015964 0.159330
O O13 0.500000 0.972184 0.250000
#
# Coordination Sequence:
#
# PCOD9506342 Si02
#       6
#    16  16  16  16  16  16
#     4  10  22  41  69  95 119 168 224 269 306 384
#     4  10  22  38  61  95 128 159 209 261 312 384
#     4  10  24  43  61  91 127 166 214 266 322 388
#     4  11  24  40  66  89 126 172 211 265 332 377
#     4  11  22  35  64  94 125 169 202 256 326 379
#     4  10  19  37  65  92 126 163 212 260 308 378
#
# _framework density 21.874202
#
# number of rings (size 3 to 8) (size 9 to 14) (size 15 to 20)
#    0.000    1.667    1.667    4.000    4.667    4.000 
#    0.000    5.000    0.000    0.000    0.000    0.000 
#    0.000    0.000    0.000    0.000    0.000    0.000 
#
# Total GULP energy -267996.494237 kJ/mol
# GULP energy per Si atom -5583.260297 kJ/mol
# Density = 2.182441 g / cm^3
# Si number density = 21.874202 Si / 1000 Ang^3
#
#
#
# Elastic Constant Matrix: (Units=GPa)
#
#
# Indices 1 2 3 4 5 6 
#
# 1 38.9132 17.6332 19.6879 0.0000 0.0000 0.0000
# 2 17.6332 104.1903 28.6046 0.0000 0.0000 0.0000
# 3 19.6879 28.6046 111.2964 0.0000 0.0000 0.0000
# 4 0.0000 0.0000 0.0000 31.7581 0.0000 0.0000
# 5 0.0000 0.0000 0.0000 0.0000 20.4315 0.0000
# 6 0.0000 0.0000 0.0000 0.0000 0.0000 19.7101
#
#
#
# Elastic Compliance Matrix: (Units=1/GPa)
#
#
# Indices 1 2 3 4 5 6 
#
# 1 0.029588 -0.003842 -0.004247 0.000000 0.000000 0.000000
# 2 -0.003842 0.010825 -0.002103 0.000000 0.000000 0.000000
# 3 -0.004247 -0.002103 0.010277 0.000000 0.000000 0.000000
# 4 0.000000 0.000000 0.000000 0.031488 0.000000 0.000000
# 5 0.000000 0.000000 0.000000 0.000000 0.048944 0.000000
# 6 0.000000 0.000000 0.000000 0.000000 0.000000 0.050735
#
#
# Mechanical properties :
#
#
# Convention : Reuss Voigt Hill
#
# Bulk Modulus (GPa) = 32.99482 42.91682 37.95582
# Shear Modulus (GPa) = 23.54703 26.94489 25.24596
#
# Velocity S-wave (km/s) = 3.28453 3.51352 3.40095
# Velocity P-wave (km/s) = 5.43146 6.01018 5.72813
#
# Compressibility (1/GPa) = 0.03030779
#
# Stress axis : x y z
#
# Youngs Moduli (GPa) = 33.79805 92.37667 97.30810
#
# Poissons Ratio (x) = 0.35487 0.41323
# Poissons Ratio (y) = 0.12984 0.20461
# Poissons Ratio (z) = 0.14353 0.19424
#
# Static dielectric constant tensor:
#      x y z
#    x 1.810440 0.000000 0.000000 
#    y 0.000000 1.832700 0.000000 
#    z 0.000000 0.000000 1.848300 
# 
# From -- ./inp_files/14628.got.cif
#   From: 2010.05.17/outbox.cif.g08.bks.cpg/sg68_8_cif.got.tgz:14628.got - 2010.06.03 18:57:09.
