data_PCOD9506125
_publ_section_title
;
Structure prediction by ZEFSAII (Michael W. Deem and Ramdas Pophale) SiO2 
 PCOD9506125
Probable space group: C C C A
;
_chemical_formula_sum "Si O2"
_cell_formula_units_Z 80
_cell_length_a 18.146257
_cell_length_b 18.729301
_cell_length_c 13.175486
_cell_angle_alpha 90.000000
_cell_angle_beta 90.000000
_cell_angle_gamma 90.000000
_cell_volume 4477.909071
_symmetry_space_group_name_H-M "C C C A"
_symmetry_group_IT_number 68
_space_group.IT_coordinate_system_code '2'
_symmetry_cell_setting 'orthorhombic'
loop_
_space_group_symop_operation_xyz
x,y,z
-x,1/2-y,z
x,1/2-y,1/2-z
-x,y,1/2-z
-x,-y,-z
x,1/2+y,-z
-x,1/2+y,1/2+z
x,-y,1/2+z
1/2+x,1/2+y,z
1/2-x,-y,z
1/2+x,-y,1/2-z
1/2-x,1/2+y,1/2-z
1/2-x,1/2-y,-z
1/2+x,y,-z
1/2-x,y,1/2+z
1/2+x,1/2-y,1/2+z
loop_
_atom_site_type_symbol
_atom_site_label
_atom_site_fract_x
_atom_site_fract_y
_atom_site_fract_z
Si Si1 0.927114 0.587039 0.447076
Si Si2 0.837362 0.496023 0.113099
Si Si3 0.592888 0.370470 0.002933
Si Si4 0.075377 0.551126 0.692889
Si Si5 0.588767 0.737340 0.863570
O O1 0.872583 0.559593 0.533461
O O2 0.942257 0.519760 0.373733
O O3 0.895463 0.655766 0.390673
O O4 0.005227 0.613907 0.489945
O O5 0.750000 0.500000 0.108549
O O6 0.866615 0.473109 0.222760
O O7 0.869538 0.571960 0.076944
O O8 0.608061 0.390792 0.885821
O O9 0.612055 0.293263 0.048947
O O10 0.000000 0.573784 0.750000
O O11 0.500000 0.750000 0.858267
O O12 0.617870 0.750000 0.750000
#
# Coordination Sequence:
#
# PCOD9506125 Si02
#       5
#    16  16  16  16  16
#     4  10  19  34  58  81 109 143 189 230 275 328
#     4  11  22  35  54  83 114 143 184 235 283 329
#     4  10  19  35  57  83 109 145 188 231 276 331
#     4  11  18  32  58  80 108 146 187 228 275 325
#     4   9  18  31  55  85 113 142 189 235 272 323
#
# _framework density 17.865480999999999
#
# number of rings (size 3 to 8) (size 9 to 14) (size 15 to 20)
#    0.000    1.800    4.000    2.400    2.800    3.200 
#    0.000    2.000    0.000    2.400    0.000    0.000 
#    0.000    0.000    0.000    0.000    0.000    0.000 
#
# Total GULP energy -223004.142387 kJ/mol
# GULP energy per Si atom -5575.103560 kJ/mol
# Density = 1.782482 g / cm^3
# Si number density = 17.865481 Si / 1000 Ang^3
#
#
#
# Elastic Constant Matrix: (Units=GPa)
#
#
# Indices 1 2 3 4 5 6 
#
# 1 56.2111 -23.6949 -0.2694 0.0000 0.0000 0.0000
# 2 -23.6949 62.2764 12.0337 0.0000 0.0000 0.0000
# 3 -0.2694 12.0337 92.1380 0.0000 0.0000 0.0000
# 4 0.0000 0.0000 0.0000 16.6927 0.0000 0.0000
# 5 0.0000 0.0000 0.0000 0.0000 34.4682 0.0000
# 6 0.0000 0.0000 0.0000 0.0000 0.0000 -0.8358
#
#
#
# Elastic Compliance Matrix: (Units=1/GPa)
#
#
# Indices 1 2 3 4 5 6 
#
# 1 0.021282 0.008295 -0.001021 0.000000 0.000000 0.000000
# 2 0.008295 0.019706 -0.002549 0.000000 0.000000 0.000000
# 3 -0.001021 -0.002549 0.011183 0.000000 0.000000 0.000000
# 4 0.000000 0.000000 0.000000 0.059906 0.000000 0.000000
# 5 0.000000 0.000000 0.000000 0.000000 0.029012 0.000000
# 6 0.000000 0.000000 0.000000 0.000000 0.000000 -1.196426
#
#
# Mechanical properties :
#
#
# Convention : Reuss Voigt Hill
#
# Bulk Modulus (GPa) = 16.22880 20.75159 18.49020
# Shear Modulus (GPa) = -4.78815 24.90210 10.05697
#
# Velocity S-wave (km/s) = -1.63888 3.73750 2.37518
# Velocity P-wave (km/s) = 2.34997 5.50145 4.23015
#
# Compressibility (1/GPa) = 0.06161885
#
# Stress axis : x y z
#
# Youngs Moduli (GPa) = 46.98892 50.74601 89.41932
#
# Poissons Ratio (x) = -0.42091 0.09130
# Poissons Ratio (y) = -0.38975 0.22797
# Poissons Ratio (z) = 0.04798 0.12937
#
# Static dielectric constant tensor:
#      x y z
#    x 1.603480 0.000000 0.000000 
#    y 0.000000 1.617700 0.000000 
#    z 0.000000 0.000000 1.652510 
# 
# From -- ./inp_files/23494.got.cif
#   From: 2010.05.17/outbox.cif.g08.bks.cpg/sg68_12_cif.got.tgz:23494.got - 2010.06.03 18:57:09.
