data_PCOD9506617
_publ_section_title
;
Structure prediction by ZEFSAII (Michael W. Deem and Ramdas Pophale) SiO2 
 PCOD9506617
Probable space group: C C C A
;
_chemical_formula_sum "Si O2"
_cell_formula_units_Z 96
_cell_length_a 14.672401
_cell_length_b 21.111225
_cell_length_c 13.846341
_cell_angle_alpha 90.000000
_cell_angle_beta 90.000000
_cell_angle_gamma 90.000000
_cell_volume 4288.936786
_symmetry_space_group_name_H-M "C C C A"
_symmetry_group_IT_number 68
_space_group.IT_coordinate_system_code '2'
_symmetry_cell_setting 'orthorhombic'
loop_
_space_group_symop_operation_xyz
x,y,z
-x,1/2-y,z
x,1/2-y,1/2-z
-x,y,1/2-z
-x,-y,-z
x,1/2+y,-z
-x,1/2+y,1/2+z
x,-y,1/2+z
1/2+x,1/2+y,z
1/2-x,-y,z
1/2+x,-y,1/2-z
1/2-x,1/2+y,1/2-z
1/2-x,1/2-y,-z
1/2+x,y,-z
1/2-x,y,1/2+z
1/2+x,1/2-y,1/2+z
loop_
_atom_site_type_symbol
_atom_site_label
_atom_site_fract_x
_atom_site_fract_y
_atom_site_fract_z
Si Si1 0.699124 0.432472 0.430675
Si Si2 0.944866 0.470042 0.085500
Si Si3 0.995802 0.660966 0.639383
Si Si4 0.712567 0.326061 0.653433
Si Si5 0.307540 0.191149 0.885640
Si Si6 0.673742 0.944363 0.787048
O O1 0.750000 0.500000 0.427484
O O2 0.638340 0.439510 0.525311
O O3 0.760209 0.369072 0.435254
O O4 0.652172 0.427425 0.324509
O O5 0.909307 0.522712 0.158470
O O6 0.004238 0.415180 0.134174
O O7 0.000000 0.500000 0.000000
O O8 0.084314 0.690515 0.588300
O O9 0.000000 0.681327 0.750000
O O10 0.890780 0.671682 0.611492
O O11 0.695592 0.321808 0.769760
O O12 0.744067 0.258736 0.609431
O O13 0.783140 0.384752 0.654897
O O14 0.750000 0.000000 0.784724
#
# Coordination Sequence:
#
# PCOD9506617 Si02
#       6
#    16  16  16  16  16  16
#     4  10  22  38  60  88 119 156 202 250 302 366
#     4  12  25  36  60  85 122 157 203 255 306 359
#     4  10  20  34  58  89 122 158 197 242 297 356
#     4   9  17  34  63  91 117 159 200 245 297 359
#     4   9  18  35  61  91 120 154 200 246 301 358
#     4  10  20  38  62  86 119 159 203 249 301 361
#
# _framework density 22.38317
#
# number of rings (size 3 to 8) (size 9 to 14) (size 15 to 20)
#    0.000    2.000    1.667    2.000    4.667    2.000 
#    0.000    0.833    3.667    0.000    0.000    4.667 
#    0.000    0.000    0.000    0.000    0.000    0.000 
#
# Total GULP energy -267540.361730 kJ/mol
# GULP energy per Si atom -5573.757536 kJ/mol
# Density = 2.233222 g / cm^3
# Si number density = 22.383170 Si / 1000 Ang^3
#
#
#
# Elastic Constant Matrix: (Units=GPa)
#
#
# Indices 1 2 3 4 5 6 
#
# 1 29.9111 26.4678 3.6648 0.0000 0.0000 0.0000
# 2 26.4678 165.8453 11.3745 0.0000 0.0000 0.0000
# 3 3.6648 11.3745 70.8361 0.0000 0.0000 0.0000
# 4 0.0000 0.0000 0.0000 79.6896 0.0000 0.0000
# 5 0.0000 0.0000 0.0000 0.0000 10.5404 0.0000
# 6 0.0000 0.0000 0.0000 0.0000 0.0000 33.3283
#
#
#
# Elastic Compliance Matrix: (Units=1/GPa)
#
#
# Indices 1 2 3 4 5 6 
#
# 1 0.039004 -0.006154 -0.001030 0.000000 0.000000 0.000000
# 2 -0.006154 0.007068 -0.000817 0.000000 0.000000 0.000000
# 3 -0.001030 -0.000817 0.014301 0.000000 0.000000 0.000000
# 4 0.000000 0.000000 0.000000 0.012549 0.000000 0.000000
# 5 0.000000 0.000000 0.000000 0.000000 0.094873 0.000000
# 6 0.000000 0.000000 0.000000 0.000000 0.000000 0.030005
#
#
# Mechanical properties :
#
#
# Convention : Reuss Voigt Hill
#
# Bulk Modulus (GPa) = 22.53635 38.84521 30.69078
# Shear Modulus (GPa) = 21.87308 39.71736 30.79522
#
# Velocity S-wave (km/s) = 3.12943 4.21697 3.71323
# Velocity P-wave (km/s) = 4.81124 6.41114 5.66793
#
# Compressibility (1/GPa) = 0.04437276
#
# Stress axis : x y z
#
# Youngs Moduli (GPa) = 25.63817 141.48495 69.92281
#
# Poissons Ratio (x) = 0.87073 0.07200
# Poissons Ratio (y) = 0.15778 0.05709
# Poissons Ratio (z) = 0.02640 0.11553
#
# Static dielectric constant tensor:
#      x y z
#    x 1.946410 0.000000 0.000000 
#    y 0.000000 3.517330 0.000000 
#    z 0.000000 0.000000 1.848530 
# 
# From -- ./inp_files/22386.got.cif
#   From: 2010.05.17/outbox.cif.g08.bks.cpg/sg68_12_cif.got.tgz:22386.got - 2010.06.03 18:57:09.
