data_PCOD9506773
_publ_section_title
;
Structure prediction by ZEFSAII (Michael W. Deem and Ramdas Pophale) SiO2 
 PCOD9506773
Probable space group: C C C A
;
_chemical_formula_sum "Si O2"
_cell_formula_units_Z 80
_cell_length_a 13.756694
_cell_length_b 18.737918
_cell_length_c 15.455597
_cell_angle_alpha 90.000000
_cell_angle_beta 90.000000
_cell_angle_gamma 90.000000
_cell_volume 3984.017122
_symmetry_space_group_name_H-M "C C C A"
_symmetry_group_IT_number 68
_space_group.IT_coordinate_system_code '2'
_symmetry_cell_setting 'orthorhombic'
loop_
_space_group_symop_operation_xyz
x,y,z
-x,1/2-y,z
x,1/2-y,1/2-z
-x,y,1/2-z
-x,-y,-z
x,1/2+y,-z
-x,1/2+y,1/2+z
x,-y,1/2+z
1/2+x,1/2+y,z
1/2-x,-y,z
1/2+x,-y,1/2-z
1/2-x,1/2+y,1/2-z
1/2-x,1/2-y,-z
1/2+x,y,-z
1/2-x,y,1/2+z
1/2+x,1/2-y,1/2+z
loop_
_atom_site_type_symbol
_atom_site_label
_atom_site_fract_x
_atom_site_fract_y
_atom_site_fract_z
Si Si1 0.569267 0.594217 0.168802
Si Si2 0.644153 0.744261 0.960466
Si Si3 0.255605 0.184612 0.192208
Si Si4 0.408390 0.568652 0.811446
Si Si5 0.009444 0.369839 0.989417
O O1 0.500000 0.614722 0.250000
O O2 0.657503 0.649609 0.154124
O O3 0.610774 0.515846 0.189955
O O4 0.509976 0.589701 0.078762
O O5 0.663169 0.775022 0.865537
O O6 0.750000 0.750000 0.000000
O O7 0.578865 0.802512 0.009060
O O8 0.590822 0.668563 0.959401
O O9 0.220128 0.250000 0.250000
O O10 0.318270 0.116089 0.221724
O O11 0.500000 0.583173 0.750000
O O12 0.440553 0.588537 0.910095
#
# Coordination Sequence:
#
# PCOD9506773 Si02
#       5
#    16  16  16  16  16
#     4  11  24  39  60  89 127 162 198 249 309 371
#     4  10  20  36  57  89 121 150 201 252 292 362
#     4  11  23  38  64  89 121 160 203 254 309 351
#     4  10  22  43  62  87 120 161 211 250 299 366
#     4  10  21  38  64  86 121 159 201 251 307 352
#
# _framework density 20.080234999999998
#
# number of rings (size 3 to 8) (size 9 to 14) (size 15 to 20)
#    0.000    1.600    2.000    2.400    2.800    2.400 
#    0.000    0.000    0.000    0.000    0.000    0.000 
#    0.000    0.000    0.000    0.000    0.000    0.000 
#
# Total GULP energy -222744.081859 kJ/mol
# GULP energy per Si atom -5568.602046 kJ/mol
# Density = 2.003453 g / cm^3
# Si number density = 20.080235 Si / 1000 Ang^3
#
#
#
# Elastic Constant Matrix: (Units=GPa)
#
#
# Indices 1 2 3 4 5 6 
#
# 1 71.5484 17.7847 6.6839 0.0000 0.0000 0.0000
# 2 17.7847 58.8426 14.1789 0.0000 0.0000 0.0000
# 3 6.6839 14.1789 54.0989 0.0000 0.0000 0.0000
# 4 0.0000 0.0000 0.0000 25.5399 0.0000 0.0000
# 5 0.0000 0.0000 0.0000 0.0000 26.0655 0.0000
# 6 0.0000 0.0000 0.0000 0.0000 0.0000 21.1990
#
#
#
# Elastic Compliance Matrix: (Units=1/GPa)
#
#
# Indices 1 2 3 4 5 6 
#
# 1 0.015138 -0.004403 -0.000716 0.000000 0.000000 0.000000
# 2 -0.004403 0.019421 -0.004546 0.000000 0.000000 0.000000
# 3 -0.000716 -0.004546 0.019765 0.000000 0.000000 0.000000
# 4 0.000000 0.000000 0.000000 0.039154 0.000000 0.000000
# 5 0.000000 0.000000 0.000000 0.000000 0.038365 0.000000
# 6 0.000000 0.000000 0.000000 0.000000 0.000000 0.047172
#
#
# Mechanical properties :
#
#
# Convention : Reuss Voigt Hill
#
# Bulk Modulus (GPa) = 28.57722 29.08723 28.83222
# Shear Modulus (GPa) = 23.80851 24.28370 24.04610
#
# Velocity S-wave (km/s) = 3.44709 3.48132 3.46425
# Velocity P-wave (km/s) = 5.48686 5.53863 5.51281
#
# Compressibility (1/GPa) = 0.03499291
#
# Stress axis : x y z
#
# Youngs Moduli (GPa) = 66.05962 51.49170 50.59535
#
# Poissons Ratio (x) = 0.22670 0.03625
# Poissons Ratio (y) = 0.29084 0.23001
# Poissons Ratio (z) = 0.04732 0.23408
#
# Static dielectric constant tensor:
#      x y z
#    x 1.702950 0.000000 0.000000 
#    y 0.000000 2.176050 0.000000 
#    z 0.000000 0.000000 1.806440 
# 
# From -- ./inp_files/22122.got.cif
#   From: 2010.05.17/outbox.cif.g08.bks.cpg/sg68_12_cif.got.tgz:22122.got - 2010.06.03 18:57:09.
