data_PCOD9506796
_publ_section_title
;
Structure prediction by ZEFSAII (Michael W. Deem and Ramdas Pophale) SiO2 
 PCOD9506796
Probable space group: C C C A
;
_chemical_formula_sum "Si O2"
_cell_formula_units_Z 56
_cell_length_a 4.925220
_cell_length_b 31.888713
_cell_length_c 15.156853
_cell_angle_alpha 90.000000
_cell_angle_beta 90.000000
_cell_angle_gamma 90.000000
_cell_volume 2380.519070
_symmetry_space_group_name_H-M "C C C A"
_symmetry_group_IT_number 68
_space_group.IT_coordinate_system_code '2'
_symmetry_cell_setting 'orthorhombic'
loop_
_space_group_symop_operation_xyz
x,y,z
-x,1/2-y,z
x,1/2-y,1/2-z
-x,y,1/2-z
-x,-y,-z
x,1/2+y,-z
-x,1/2+y,1/2+z
x,-y,1/2+z
1/2+x,1/2+y,z
1/2-x,-y,z
1/2+x,-y,1/2-z
1/2-x,1/2+y,1/2-z
1/2-x,1/2-y,-z
1/2+x,y,-z
1/2-x,y,1/2+z
1/2+x,1/2-y,1/2+z
loop_
_atom_site_type_symbol
_atom_site_label
_atom_site_fract_x
_atom_site_fract_y
_atom_site_fract_z
Si Si1 0.167326 0.715673 0.821894
Si Si2 0.514038 0.936953 0.557854
Si Si3 0.250000 0.000000 0.193846
Si Si4 0.030914 0.838952 0.443729
O O1 0.255023 0.750000 0.750000
O O2 0.397448 0.691161 0.872363
O O3 0.000000 0.750000 0.882004
O O4 0.000000 0.686896 0.750000
O O5 0.820340 0.945252 0.526956
O O6 0.490706 0.887695 0.580081
O O7 0.399262 0.965369 0.634667
O O8 0.500000 0.981239 0.250000
O O9 0.844709 0.832534 0.531709
#
# Coordination Sequence:
#
# PCOD9506796 Si02
#       4
#    16  16   8  16
#     4   6  16  35  52  79 113 148 181 223 303 325
#     4  10  21  39  61  84 119 158 195 240 294 347
#     4  12  24  38  60  94 120 154 196 242 296 354
#     4  10  20  36  59  84 108 148 198 236 275 338
#
# _framework density 23.524281999999999
#
# number of rings (size 3 to 8) (size 9 to 14) (size 15 to 20)
#    1.714    1.143    0.000    2.571    0.000    2.286 
#    0.000    2.857    0.000    0.000    0.000    0.000 
#    0.000    0.000    0.000    0.000    0.000    0.000 
#
# Total GULP energy -155958.420562 kJ/mol
# GULP energy per Si atom -5569.943591 kJ/mol
# Density = 2.347074 g / cm^3
# Si number density = 23.524282 Si / 1000 Ang^3
#
#
#
# Elastic Constant Matrix: (Units=GPa)
#
#
# Indices 1 2 3 4 5 6 
#
# 1 82.0630 -5.9832 -16.4204 0.0000 0.0000 0.0000
# 2 -5.9832 70.4671 21.6522 0.0000 0.0000 0.0000
# 3 -16.4204 21.6522 41.1817 0.0000 0.0000 0.0000
# 4 0.0000 0.0000 0.0000 -52.0952 0.0000 0.0000
# 5 0.0000 0.0000 0.0000 0.0000 -331.0300 0.0000
# 6 0.0000 0.0000 0.0000 0.0000 0.0000 55.7095
#
#
#
# Elastic Compliance Matrix: (Units=1/GPa)
#
#
# Indices 1 2 3 4 5 6 
#
# 1 0.013263 -0.000595 0.005601 0.000000 0.000000 0.000000
# 2 -0.000595 0.016952 -0.009150 0.000000 0.000000 0.000000
# 3 0.005601 -0.009150 0.031327 0.000000 0.000000 0.000000
# 4 0.000000 0.000000 0.000000 -0.019196 0.000000 0.000000
# 5 0.000000 0.000000 0.000000 0.000000 -0.003021 0.000000
# 6 0.000000 0.000000 0.000000 0.000000 0.000000 0.017950
#
#
# Mechanical properties :
#
#
# Convention : Reuss Voigt Hill
#
# Bulk Modulus (GPa) = 18.77781 21.35658 20.06720
# Shear Modulus (GPa) = 60.01321 -52.51892 3.74714
#
# Velocity S-wave (km/s) = 5.05634 -4.73010 1.26346
# Velocity P-wave (km/s) = 6.48756 4.55342 3.26763
#
# Compressibility (1/GPa) = 0.05325433
#
# Stress axis : x y z
#
# Youngs Moduli (GPa) = 75.39689 58.98993 31.92148
#
# Poissons Ratio (x) = 0.03509 -0.17880
# Poissons Ratio (y) = 0.04486 0.29209
# Poissons Ratio (z) = -0.42231 0.53977
#
# Static dielectric constant tensor:
#      x y z
#    x 2.249220 0.000000 0.000000 
#    y 0.000000 0.618800 0.000000 
#    z 0.000000 0.000000 3.118930 
# 
# From -- ./inp_files/18338.got.cif
#   From: 2010.05.17/outbox.cif.g08.bks.cpg/sg68_10_cif.got.tgz:18338.got - 2010.06.03 18:57:09.
