data_PCOD9506583
_publ_section_title
;
Structure prediction by ZEFSAII (Michael W. Deem and Ramdas Pophale) SiO2 
 PCOD9506583
Probable space group: C C C A
;
_chemical_formula_sum "Si O2"
_cell_formula_units_Z 104
_cell_length_a 19.266061
_cell_length_b 9.603289
_cell_length_c 27.640006
_cell_angle_alpha 90.000000
_cell_angle_beta 90.000000
_cell_angle_gamma 90.000000
_cell_volume 5113.886238
_symmetry_space_group_name_H-M "C C C A"
_symmetry_group_IT_number 68
_space_group.IT_coordinate_system_code '2'
_symmetry_cell_setting 'orthorhombic'
loop_
_space_group_symop_operation_xyz
x,y,z
-x,1/2-y,z
x,1/2-y,1/2-z
-x,y,1/2-z
-x,-y,-z
x,1/2+y,-z
-x,1/2+y,1/2+z
x,-y,1/2+z
1/2+x,1/2+y,z
1/2-x,-y,z
1/2+x,-y,1/2-z
1/2-x,1/2+y,1/2-z
1/2-x,1/2-y,-z
1/2+x,y,-z
1/2-x,y,1/2+z
1/2+x,1/2-y,1/2+z
loop_
_atom_site_type_symbol
_atom_site_label
_atom_site_fract_x
_atom_site_fract_y
_atom_site_fract_z
Si Si1 0.328528 0.489483 0.546664
Si Si2 0.998075 0.913680 0.192515
Si Si3 0.393347 0.891728 0.133916
Si Si4 0.522350 0.502458 0.555650
Si Si5 0.359939 0.689215 0.956741
Si Si6 0.250000 0.500000 0.398146
Si Si7 0.403081 0.077732 0.868198
O O1 0.250000 0.500000 0.530927
O O2 0.356131 0.646134 0.542049
O O3 0.360378 0.378415 0.509853
O O4 0.332850 0.441402 0.602217
O O5 0.000000 0.750000 0.181216
O O6 0.000000 0.931931 0.250000
O O7 0.059439 0.001257 0.165302
O O8 0.925097 0.974417 0.173580
O O9 0.408818 0.734935 0.149601
O O10 0.419630 0.896913 0.077459
O O11 0.312102 0.928804 0.132406
O O12 0.500000 0.500000 0.500000
O O13 0.565607 0.643866 0.565184
O O14 0.457379 0.463858 0.588952
O O15 0.294765 0.615650 0.928782
#
# Coordination Sequence:
#
# PCOD9506583 Si02
#       7
#    16  16  16  16  16   8  16
#     4  12  25  37  55  84 126 174 222 258 299 366
#     4  10  23  45  72  97 124 153 196 263 335 389
#     4  10  23  41  64  93 124 168 212 259 308 380
#     4  10  20  34  54  84 122 160 207 260 301 348
#     4  11  24  36  55  81 121 181 218 256 308 360
#     4  10  22  40  62  86 130 174 218 250 310 368
#     4  11  24  38  61  92 123 158 213 256 311 373
#
# _framework density 20.336784999999999
#
# number of rings (size 3 to 8) (size 9 to 14) (size 15 to 20)
#    0.000    1.385    2.308    3.231   10.769    2.462 
#    0.000    0.000    1.692    0.000    0.000    0.000 
#    0.000    0.000    0.000    0.000    0.000    0.000 
#
# Total GULP energy -289924.517918 kJ/mol
# GULP energy per Si atom -5575.471498 kJ/mol
# Density = 2.029050 g / cm^3
# Si number density = 20.336785 Si / 1000 Ang^3
#
#
#
# Elastic Constant Matrix: (Units=GPa)
#
#
# Indices 1 2 3 4 5 6 
#
# 1 75.1431 17.7283 14.3574 0.0000 0.0000 0.0000
# 2 17.7283 160.6781 44.5036 0.0000 0.0000 0.0000
# 3 14.3574 44.5036 87.5881 0.0000 0.0000 0.0000
# 4 0.0000 0.0000 0.0000 25.6016 0.0000 0.0000
# 5 0.0000 0.0000 0.0000 0.0000 24.6399 0.0000
# 6 0.0000 0.0000 0.0000 0.0000 0.0000 27.3234
#
#
#
# Elastic Compliance Matrix: (Units=1/GPa)
#
#
# Indices 1 2 3 4 5 6 
#
# 1 0.013889 -0.001050 -0.001743 0.000000 0.000000 0.000000
# 2 -0.001050 0.007322 -0.003548 0.000000 0.000000 0.000000
# 3 -0.001743 -0.003548 0.013506 0.000000 0.000000 0.000000
# 4 0.000000 0.000000 0.000000 0.039060 0.000000 0.000000
# 5 0.000000 0.000000 0.000000 0.000000 0.040585 0.000000
# 6 0.000000 0.000000 0.000000 0.000000 0.000000 0.036599
#
#
# Mechanical properties :
#
#
# Convention : Reuss Voigt Hill
#
# Bulk Modulus (GPa) = 45.38415 52.95420 49.16918
# Shear Modulus (GPa) = 29.24197 31.96767 30.60482
#
# Velocity S-wave (km/s) = 3.79606 3.96904 3.88351
# Velocity P-wave (km/s) = 6.44811 6.86291 6.65874
#
# Compressibility (1/GPa) = 0.02203412
#
# Stress axis : x y z
#
# Youngs Moduli (GPa) = 72.00124 136.57039 74.04234
#
# Poissons Ratio (x) = 0.14334 0.12908
# Poissons Ratio (y) = 0.07557 0.26273
# Poissons Ratio (z) = 0.12552 0.48461
#
# Static dielectric constant tensor:
#      x y z
#    x 1.848640 0.000000 0.000000 
#    y 0.000000 1.765430 0.000000 
#    z 0.000000 0.000000 1.752380 
# 
# From -- ./inp_files/51835.got.cif
#   From: 2010.05.17/outbox.cif.g08.bks.cpg/sg68_26_cif.got.tgz:51835.got - 2010.06.03 18:57:09.
