data_PCOD9506507
_publ_section_title
;
Structure prediction by ZEFSAII (Michael W. Deem and Ramdas Pophale) SiO2 
 PCOD9506507
Probable space group: C C C A
;
_chemical_formula_sum "Si O2"
_cell_formula_units_Z 96
_cell_length_a 13.019531
_cell_length_b 21.033781
_cell_length_c 18.068786
_cell_angle_alpha 90.000000
_cell_angle_beta 90.000000
_cell_angle_gamma 90.000000
_cell_volume 4948.136392
_symmetry_space_group_name_H-M "C C C A"
_symmetry_group_IT_number 68
_space_group.IT_coordinate_system_code '2'
_symmetry_cell_setting 'orthorhombic'
loop_
_space_group_symop_operation_xyz
x,y,z
-x,1/2-y,z
x,1/2-y,1/2-z
-x,y,1/2-z
-x,-y,-z
x,1/2+y,-z
-x,1/2+y,1/2+z
x,-y,1/2+z
1/2+x,1/2+y,z
1/2-x,-y,z
1/2+x,-y,1/2-z
1/2-x,1/2+y,1/2-z
1/2-x,1/2-y,-z
1/2+x,y,-z
1/2-x,y,1/2+z
1/2+x,1/2-y,1/2+z
loop_
_atom_site_type_symbol
_atom_site_label
_atom_site_fract_x
_atom_site_fract_y
_atom_site_fract_z
Si Si1 0.674282 0.907303 0.495262
Si Si2 0.802209 0.069144 0.737839
Si Si3 0.163807 0.373926 0.120700
Si Si4 0.562129 0.009658 0.109072
Si Si5 0.865595 0.585297 0.103284
Si Si6 0.019941 0.678706 0.512719
O O1 0.745024 0.878508 0.560672
O O2 0.618233 0.965683 0.535393
O O3 0.754024 0.924851 0.431822
O O4 0.586688 0.857791 0.472615
O O5 0.720726 0.116692 0.698807
O O6 0.887621 0.049169 0.676913
O O7 0.848447 0.100376 0.810728
O O8 0.750000 0.000000 0.755532
O O9 0.092820 0.436943 0.116248
O O10 0.089547 0.320442 0.087297
O O11 0.443066 0.025686 0.104928
O O12 0.922128 0.637727 0.051385
O O13 0.000000 0.750000 0.487310
#
# Coordination Sequence:
#
# PCOD9506507 Si02
#       6
#    16  16  16  16  16  16
#     4   9  19  33  54  79 106 138 183 229 276 333
#     4   9  18  33  53  81 113 142 175 223 288 352
#     4   9  19  34  54  78 112 148 179 225 281 340
#     4   9  18  33  52  81 115 142 171 221 285 343
#     4  10  20  32  56  84 110 142 181 228 283 343
#     4  10  22  38  56  78 108 149 197 244 281 320
#
# _framework density 19.401243000000001
#
# number of rings (size 3 to 8) (size 9 to 14) (size 15 to 20)
#    0.000    2.667    0.000    2.000    0.000   14.000 
#    0.000    2.500    0.000   28.000    0.000    0.000 
#    0.000    0.000    0.000    0.000    0.000    0.000 
#
# Total GULP energy -267639.123938 kJ/mol
# GULP energy per Si atom -5575.815082 kJ/mol
# Density = 1.935708 g / cm^3
# Si number density = 19.401243 Si / 1000 Ang^3
#
#
#
# Elastic Constant Matrix: (Units=GPa)
#
#
# Indices 1 2 3 4 5 6 
#
# 1 117.3394 26.4747 64.1564 0.0000 0.0000 0.0000
# 2 26.4747 25.1715 17.5396 0.0000 0.0000 0.0000
# 3 64.1564 17.5396 70.1854 0.0000 0.0000 0.0000
# 4 0.0000 0.0000 0.0000 11.8500 0.0000 0.0000
# 5 0.0000 0.0000 0.0000 0.0000 24.7853 0.0000
# 6 0.0000 0.0000 0.0000 0.0000 0.0000 10.3346
#
#
#
# Elastic Compliance Matrix: (Units=1/GPa)
#
#
# Indices 1 2 3 4 5 6 
#
# 1 0.018709 -0.009398 -0.014754 0.000000 0.000000 0.000000
# 2 -0.009398 0.052824 -0.004611 0.000000 0.000000 0.000000
# 3 -0.014754 -0.004611 0.028887 0.000000 0.000000 0.000000
# 4 0.000000 0.000000 0.000000 0.084388 0.000000 0.000000
# 5 0.000000 0.000000 0.000000 0.000000 0.040346 0.000000
# 6 0.000000 0.000000 0.000000 0.000000 0.000000 0.096763
#
#
# Mechanical properties :
#
#
# Convention : Reuss Voigt Hill
#
# Bulk Modulus (GPa) = 23.31205 47.67088 35.49147
# Shear Modulus (GPa) = 12.69873 16.36235 14.53054
#
# Velocity S-wave (km/s) = 2.56116 2.90723 2.73966
# Velocity P-wave (km/s) = 4.55937 5.99113 5.32361
#
# Compressibility (1/GPa) = 0.04289626
#
# Stress axis : x y z
#
# Youngs Moduli (GPa) = 53.44924 18.93068 34.61816
#
# Poissons Ratio (x) = 0.17790 0.51075
# Poissons Ratio (y) = 0.50229 0.15961
# Poissons Ratio (z) = 0.78857 0.08728
#
# Static dielectric constant tensor:
#      x y z
#    x 1.710680 0.000000 0.000000 
#    y 0.000000 1.698860 0.000000 
#    z 0.000000 0.000000 1.702290 
# 
# From -- ./inp_files/37669.got.cif
#   From: 2010.05.17/outbox.cif.g08.bks.cpg/sg68_19_cif.got.tgz:37669.got - 2010.06.03 18:57:09.
