data_PCOD9506022
_publ_section_title
;
Structure prediction by ZEFSAII (Michael W. Deem and Ramdas Pophale) SiO2 
 PCOD9506022
Probable space group: C C C A
;
_chemical_formula_sum "Si O2"
_cell_formula_units_Z 104
_cell_length_a 25.183626
_cell_length_b 7.858743
_cell_length_c 27.919542
_cell_angle_alpha 90.000000
_cell_angle_beta 90.000000
_cell_angle_gamma 90.000000
_cell_volume 5525.602472
_symmetry_space_group_name_H-M "C C C A"
_symmetry_group_IT_number 68
_space_group.IT_coordinate_system_code '2'
_symmetry_cell_setting 'orthorhombic'
loop_
_space_group_symop_operation_xyz
x,y,z
-x,1/2-y,z
x,1/2-y,1/2-z
-x,y,1/2-z
-x,-y,-z
x,1/2+y,-z
-x,1/2+y,1/2+z
x,-y,1/2+z
1/2+x,1/2+y,z
1/2-x,-y,z
1/2+x,-y,1/2-z
1/2-x,1/2+y,1/2-z
1/2-x,1/2-y,-z
1/2+x,y,-z
1/2-x,y,1/2+z
1/2+x,1/2-y,1/2+z
loop_
_atom_site_type_symbol
_atom_site_label
_atom_site_fract_x
_atom_site_fract_y
_atom_site_fract_z
Si Si1 0.373799 0.670754 0.857816
Si Si2 0.181302 0.162358 0.547178
Si Si3 0.717917 0.178139 0.196599
Si Si4 0.617432 0.750000 0.250000
Si Si5 0.200038 0.259300 0.443297
Si Si6 0.320162 0.301706 0.842381
Si Si7 0.442723 0.908337 0.723839
O O1 0.364659 0.703917 0.914375
O O2 0.337919 0.810906 0.830673
O O3 0.345017 0.489077 0.847104
O O4 0.431065 0.640735 0.831989
O O5 0.172705 0.186410 0.490604
O O6 0.236013 0.268784 0.556564
O O7 0.193551 0.963235 0.554273
O O8 0.712128 0.250000 0.250000
O O9 0.757873 0.303339 0.168373
O O10 0.750000 0.000000 0.196804
O O11 0.653071 0.784331 0.203545
O O12 0.583429 0.586739 0.236286
O O13 0.174578 0.206341 0.393025
O O14 0.415138 0.750000 0.750000
O O15 0.500000 0.917497 0.750000
#
# Coordination Sequence:
#
# PCOD9506022 Si02
#       7
#    16  16  16   8  16  16  16
#     4  10  20  35  53  71 104 144 182 226 279 329
#     4   9  17  30  47  67 100 144 178 223 257 315
#     4  12  23  30  45  71 107 146 180 217 265 332
#     4  10  21  36  58  82 112 142 181 222 292 350
#     4   9  17  30  45  67 104 142 186 214 260 313
#     4  10  19  33  49  74 107 146 179 218 267 334
#     4  10  22  39  59  81 109 139 184 238 289 340
#
# _framework density 18.821477999999999
#
# number of rings (size 3 to 8) (size 9 to 14) (size 15 to 20)
#    0.000    2.000    2.308    2.077    4.308    1.231 
#    0.000    0.000    0.000    0.000    0.000    1.077 
#    4.615    0.154    0.000    0.000    0.000    0.000 
#
# Total GULP energy -289528.553476 kJ/mol
# GULP energy per Si atom -5567.856798 kJ/mol
# Density = 1.877864 g / cm^3
# Si number density = 18.821478 Si / 1000 Ang^3
#
#
#
# Elastic Constant Matrix: (Units=GPa)
#
#
# Indices 1 2 3 4 5 6 
#
# 1 76.2694 12.3121 48.6308 0.0000 0.0000 0.0000
# 2 12.3121 48.8262 11.8812 0.0000 0.0000 0.0000
# 3 48.6308 11.8812 183.6928 0.0000 0.0000 0.0000
# 4 0.0000 0.0000 0.0000 21.8219 0.0000 0.0000
# 5 0.0000 0.0000 0.0000 0.0000 24.0393 0.0000
# 6 0.0000 0.0000 0.0000 0.0000 0.0000 33.2546
#
#
#
# Elastic Compliance Matrix: (Units=1/GPa)
#
#
# Indices 1 2 3 4 5 6 
#
# 1 0.016222 -0.003094 -0.004094 0.000000 0.000000 0.000000
# 2 -0.003094 0.021398 -0.000565 0.000000 0.000000 0.000000
# 3 -0.004094 -0.000565 0.006564 0.000000 0.000000 0.000000
# 4 0.000000 0.000000 0.000000 0.045825 0.000000 0.000000
# 5 0.000000 0.000000 0.000000 0.000000 0.041598 0.000000
# 6 0.000000 0.000000 0.000000 0.000000 0.000000 0.030071
#
#
# Mechanical properties :
#
#
# Convention : Reuss Voigt Hill
#
# Bulk Modulus (GPa) = 34.87048 50.49298 42.68173
# Shear Modulus (GPa) = 26.77442 31.55412 29.16427
#
# Velocity S-wave (km/s) = 3.77576 4.09895 3.94067
# Velocity P-wave (km/s) = 6.12990 7.02050 6.59026
#
# Compressibility (1/GPa) = 0.02867755
#
# Stress axis : x y z
#
# Youngs Moduli (GPa) = 61.64638 46.73227 152.33803
#
# Poissons Ratio (x) = 0.14460 0.62373
# Poissons Ratio (y) = 0.19074 0.08606
# Poissons Ratio (z) = 0.25240 0.02640
#
# Static dielectric constant tensor:
#      x y z
#    x 1.714110 0.000000 0.000000 
#    y 0.000000 1.711340 0.000000 
#    z 0.000000 0.000000 1.732910 
# 
# From -- ./inp_files/52376.got.cif
#   From: 2010.05.17/outbox.cif.g08.bks.cpg/sg68_27_cif.got.tgz:52376.got - 2010.06.03 18:57:09.
