data_PCOD9506175
_publ_section_title
;
Structure prediction by ZEFSAII (Michael W. Deem and Ramdas Pophale) SiO2 
 PCOD9506175
Probable space group: C C C A
;
_chemical_formula_sum "Si O2"
_cell_formula_units_Z 104
_cell_length_a 13.978358
_cell_length_b 23.691144
_cell_length_c 16.525506
_cell_angle_alpha 90.000000
_cell_angle_beta 90.000000
_cell_angle_gamma 90.000000
_cell_volume 5472.640973
_symmetry_space_group_name_H-M "C C C A"
_symmetry_group_IT_number 68
_space_group.IT_coordinate_system_code '2'
_symmetry_cell_setting 'orthorhombic'
loop_
_space_group_symop_operation_xyz
x,y,z
-x,1/2-y,z
x,1/2-y,1/2-z
-x,y,1/2-z
-x,-y,-z
x,1/2+y,-z
-x,1/2+y,1/2+z
x,-y,1/2+z
1/2+x,1/2+y,z
1/2-x,-y,z
1/2+x,-y,1/2-z
1/2-x,1/2+y,1/2-z
1/2-x,1/2-y,-z
1/2+x,y,-z
1/2-x,y,1/2+z
1/2+x,1/2-y,1/2+z
loop_
_atom_site_type_symbol
_atom_site_label
_atom_site_fract_x
_atom_site_fract_y
_atom_site_fract_z
Si Si1 0.659015 0.537468 0.094518
Si Si2 0.344140 0.298768 0.084393
Si Si3 0.796097 0.250000 0.750000
Si Si4 0.143718 0.187967 0.491428
Si Si5 0.762610 0.144626 0.841713
Si Si6 0.478011 0.895889 0.979570
Si Si7 0.577755 0.062087 0.317952
O O1 0.750000 0.500000 0.059891
O O2 0.688983 0.597067 0.132802
O O3 0.625563 0.497995 0.167520
O O4 0.577059 0.556593 0.031591
O O5 0.357658 0.274849 0.175025
O O6 0.379523 0.251876 0.019192
O O7 0.399912 0.355175 0.062271
O O8 0.229827 0.308411 0.073003
O O9 0.736257 0.198791 0.789099
O O10 0.194613 0.165616 0.573237
O O11 0.054860 0.145897 0.475514
O O12 0.846691 0.110657 0.796969
O O13 0.535498 0.923796 0.906131
O O14 0.500000 0.059969 0.250000
#
# Coordination Sequence:
#
# PCOD9506175 Si02
#       7
#    16  16   8  16  16  16  16
#     4  10  21  39  60  79 118 160 197 249 298 346
#     4  10  19  35  56  87 120 147 191 240 302 358
#     4  10  20  34  59  89 118 154 184 240 307 363
#     4   9  19  34  57  84 113 150 188 241 294 357
#     4   9  18  37  58  80 116 151 187 238 305 347
#     4  11  20  36  62  86 109 153 206 247 286 358
#     4  10  21  37  56  84 115 148 193 248 300 352
#
# _framework density 19.003622
#
# number of rings (size 3 to 8) (size 9 to 14) (size 15 to 20)
#    0.000    2.154    1.538    1.846    0.000    0.000 
#    2.769   11.154    0.000    0.923    0.000    0.000 
#    0.000    0.000    0.000    0.000    0.000    0.000 
#
# Total GULP energy -289597.250179 kJ/mol
# GULP energy per Si atom -5569.177888 kJ/mol
# Density = 1.896037 g / cm^3
# Si number density = 19.003622 Si / 1000 Ang^3
#
#
#
# Elastic Constant Matrix: (Units=GPa)
#
#
# Indices 1 2 3 4 5 6 
#
# 1 53.3195 8.7762 13.2352 0.0000 0.0000 0.0000
# 2 8.7762 95.3383 10.0586 0.0000 0.0000 0.0000
# 3 13.2352 10.0586 33.7991 0.0000 0.0000 0.0000
# 4 0.0000 0.0000 0.0000 24.0439 0.0000 0.0000
# 5 0.0000 0.0000 0.0000 0.0000 20.4857 0.0000
# 6 0.0000 0.0000 0.0000 0.0000 0.0000 93.7323
#
#
#
# Elastic Compliance Matrix: (Units=1/GPa)
#
#
# Indices 1 2 3 4 5 6 
#
# 1 0.020884 -0.001094 -0.007852 0.000000 0.000000 0.000000
# 2 -0.001094 0.010886 -0.002811 0.000000 0.000000 0.000000
# 3 -0.007852 -0.002811 0.033498 0.000000 0.000000 0.000000
# 4 0.000000 0.000000 0.000000 0.041591 0.000000 0.000000
# 5 0.000000 0.000000 0.000000 0.000000 0.048814 0.000000
# 6 0.000000 0.000000 0.000000 0.000000 0.000000 0.010669
#
#
# Mechanical properties :
#
#
# Convention : Reuss Voigt Hill
#
# Bulk Modulus (GPa) = 23.95029 27.39965 25.67497
# Shear Modulus (GPa) = 24.53683 37.67816 31.10750
#
# Velocity S-wave (km/s) = 3.59718 4.45756 4.05028
# Velocity P-wave (km/s) = 5.46656 6.39864 5.95088
#
# Compressibility (1/GPa) = 0.04175314
#
# Stress axis : x y z
#
# Youngs Moduli (GPa) = 47.88343 91.85872 29.85241
#
# Poissons Ratio (x) = 0.10049 0.23441
# Poissons Ratio (y) = 0.05238 0.08393
# Poissons Ratio (z) = 0.37599 0.25825
#
# Static dielectric constant tensor:
#      x y z
#    x 1.728200 0.000000 0.000000 
#    y 0.000000 1.752680 0.000000 
#    z 0.000000 0.000000 1.654240 
# 
# From -- ./inp_files/31207.got.cif
#   From: 2010.05.17/outbox.cif.g08.bks.cpg/sg68_16_cif.got.tgz:31207.got - 2010.06.03 18:57:09.
