data_PCOD9506725
_publ_section_title
;
Structure prediction by ZEFSAII (Michael W. Deem and Ramdas Pophale) SiO2 
 PCOD9506725
Probable space group: C C C A
;
_chemical_formula_sum "Si O2"
_cell_formula_units_Z 104
_cell_length_a 31.034526
_cell_length_b 8.614211
_cell_length_c 17.609253
_cell_angle_alpha 90.000000
_cell_angle_beta 90.000000
_cell_angle_gamma 90.000000
_cell_volume 4707.621690
_symmetry_space_group_name_H-M "C C C A"
_symmetry_group_IT_number 68
_space_group.IT_coordinate_system_code '2'
_symmetry_cell_setting 'orthorhombic'
loop_
_space_group_symop_operation_xyz
x,y,z
-x,1/2-y,z
x,1/2-y,1/2-z
-x,y,1/2-z
-x,-y,-z
x,1/2+y,-z
-x,1/2+y,1/2+z
x,-y,1/2+z
1/2+x,1/2+y,z
1/2-x,-y,z
1/2+x,-y,1/2-z
1/2-x,1/2+y,1/2-z
1/2-x,1/2-y,-z
1/2+x,y,-z
1/2-x,y,1/2+z
1/2+x,1/2-y,1/2+z
loop_
_atom_site_type_symbol
_atom_site_label
_atom_site_fract_x
_atom_site_fract_y
_atom_site_fract_z
Si Si1 0.250000 0.000000 0.820196
Si Si2 0.594324 0.563780 0.834296
Si Si3 0.167529 0.434949 0.429176
Si Si4 0.832657 0.162697 0.182380
Si Si5 0.502538 0.427955 0.842214
Si Si6 0.210540 0.766624 0.441504
Si Si7 0.912712 0.079260 0.850092
O O1 0.291160 0.077695 0.781117
O O2 0.227728 0.132024 0.871846
O O3 0.634465 0.456251 0.855160
O O4 0.548891 0.496840 0.862002
O O5 0.597244 0.739741 0.862187
O O6 0.593848 0.560876 0.741330
O O7 0.182243 0.292305 0.376374
O O8 0.194108 0.594931 0.421239
O O9 0.174813 0.366244 0.512843
O O10 0.119913 0.477137 0.399747
O O11 0.856966 0.250000 0.250000
O O12 0.500000 0.250000 0.867988
O O13 0.500000 0.427603 0.750000
O O14 0.461658 0.529422 0.867529
O O15 0.250000 0.750000 0.500000
#
# Coordination Sequence:
#
# PCOD9506725 Si02
#       7
#     8  16  16  16  16  16  16
#     4  12  26  44  62  88 120 158 226 268 324 378
#     4  10  20  37  57  93 142 170 209 244 318 414
#     4  12  23  41  68  90 128 161 222 273 330 379
#     4  12  25  41  61  94 132 172 204 261 341 407
#     4   9  17  30  57  91 132 176 209 246 300 387
#     4  12  23  43  67  89 111 168 230 285 311 370
#     4  10  20  35  61  96 130 174 208 260 317 386
#
# _framework density 22.091833999999999
#
# number of rings (size 3 to 8) (size 9 to 14) (size 15 to 20)
#    0.000    1.077    4.615    2.308    2.154    3.077 
#    2.769    0.000    0.000    0.000    0.000   32.308 
#    0.000    0.000    0.000    0.000    0.000    0.000 
#
# Total GULP energy -290612.643876 kJ/mol
# GULP energy per Si atom -5588.704690 kJ/mol
# Density = 2.204155 g / cm^3
# Si number density = 22.091834 Si / 1000 Ang^3
#
#
#
# Elastic Constant Matrix: (Units=GPa)
#
#
# Indices 1 2 3 4 5 6 
#
# 1 140.0121 66.4107 24.3333 0.0000 0.0000 0.0000
# 2 66.4107 160.0334 23.0697 0.0000 0.0000 0.0000
# 3 24.3333 23.0697 26.6945 0.0000 0.0000 0.0000
# 4 0.0000 0.0000 0.0000 32.8893 0.0000 0.0000
# 5 0.0000 0.0000 0.0000 0.0000 19.7853 0.0000
# 6 0.0000 0.0000 0.0000 0.0000 0.0000 46.9369
#
#
#
# Elastic Compliance Matrix: (Units=1/GPa)
#
#
# Indices 1 2 3 4 5 6 
#
# 1 0.009696 -0.003141 -0.006124 0.000000 0.000000 0.000000
# 2 -0.003141 0.008155 -0.004185 0.000000 0.000000 0.000000
# 3 -0.006124 -0.004185 0.046660 0.000000 0.000000 0.000000
# 4 0.000000 0.000000 0.000000 0.030405 0.000000 0.000000
# 5 0.000000 0.000000 0.000000 0.000000 0.050543 0.000000
# 6 0.000000 0.000000 0.000000 0.000000 0.000000 0.021305
#
#
# Mechanical properties :
#
#
# Convention : Reuss Voigt Hill
#
# Bulk Modulus (GPa) = 26.58751 61.59639 44.09195
# Shear Modulus (GPa) = 24.24804 34.11736 29.18270
#
# Velocity S-wave (km/s) = 3.31660 3.93408 3.63846
# Velocity P-wave (km/s) = 5.16987 6.96982 6.13620
#
# Compressibility (1/GPa) = 0.03761165
#
# Stress axis : x y z
#
# Youngs Moduli (GPa) = 103.13055 122.61798 21.43162
#
# Poissons Ratio (x) = 0.38514 0.13125
# Poissons Ratio (y) = 0.32393 0.08969
# Poissons Ratio (z) = 0.63160 0.51313
#
# Static dielectric constant tensor:
#      x y z
#    x 1.818360 0.000000 0.000000 
#    y 0.000000 1.818080 0.000000 
#    z 0.000000 0.000000 1.821660 
# 
# From -- ./inp_files/41353.got.cif
#   From: 2010.05.17/outbox.cif.g08.bks.cpg/sg68_21_cif.got.tgz:41353.got - 2010.06.03 18:57:09.
