data_PCOD9506871
_publ_section_title
;
Structure prediction by ZEFSAII (Michael W. Deem and Ramdas Pophale) SiO2 
 PCOD9506871
Probable space group: C C C A
;
_chemical_formula_sum "Si O2"
_cell_formula_units_Z 64
_cell_length_a 30.790074
_cell_length_b 5.581215
_cell_length_c 16.979176
_cell_angle_alpha 90.000000
_cell_angle_beta 90.000000
_cell_angle_gamma 90.000000
_cell_volume 2917.803867
_symmetry_space_group_name_H-M "C C C A"
_symmetry_group_IT_number 68
_space_group.IT_coordinate_system_code '2'
_symmetry_cell_setting 'orthorhombic'
loop_
_space_group_symop_operation_xyz
x,y,z
-x,1/2-y,z
x,1/2-y,1/2-z
-x,y,1/2-z
-x,-y,-z
x,1/2+y,-z
-x,1/2+y,1/2+z
x,-y,1/2+z
1/2+x,1/2+y,z
1/2-x,-y,z
1/2+x,-y,1/2-z
1/2-x,1/2+y,1/2-z
1/2-x,1/2-y,-z
1/2+x,y,-z
1/2-x,y,1/2+z
1/2+x,1/2-y,1/2+z
loop_
_atom_site_type_symbol
_atom_site_label
_atom_site_fract_x
_atom_site_fract_y
_atom_site_fract_z
Si Si1 0.750000 0.500000 0.850878
Si Si2 0.617415 0.101921 0.330906
Si Si3 0.315381 0.765458 0.952730
Si Si4 0.982742 0.500121 0.658362
Si Si5 0.178878 0.750000 0.750000
O O1 0.729450 0.711619 0.903149
O O2 0.789593 0.573862 0.796032
O O3 0.614821 0.250000 0.250000
O O4 0.641984 0.253667 0.397197
O O5 0.569084 0.011964 0.347179
O O6 0.648838 0.880717 0.312778
O O7 0.316159 0.517273 0.000566
O O8 0.000000 0.250000 0.623604
O O9 0.000000 0.500096 0.750000
O O10 0.000000 0.750000 0.623971
#
# Coordination Sequence:
#
# PCOD9506871 Si02
#       5
#     8  16  16  16   8
#     4  12  24  44  70  98 142 188 250 298 356 412
#     4  12  24  44  72 104 139 180 236 299 351 416
#     4  12  28  48  68  99 144 196 238 287 355 428
#     4  10  20  36  65 106 133 166 214 287 344 414
#     4  12  24  42  69 110 138 172 245 318 354 392
#
# _framework density 21.934307
#
# number of rings (size 3 to 8) (size 9 to 14) (size 15 to 20)
#    0.000    0.500    5.000    5.250    0.000    2.000 
#    0.000    0.000    0.000    4.500    0.000    0.000 
#    0.000    0.000    0.000    0.000    0.000    0.000 
#
# Total GULP energy -178978.980204 kJ/mol
# GULP energy per Si atom -5593.093131 kJ/mol
# Density = 2.188438 g / cm^3
# Si number density = 21.934307 Si / 1000 Ang^3
#
#
#
# Elastic Constant Matrix: (Units=GPa)
#
#
# Indices 1 2 3 4 5 6 
#
# 1 205.9944 70.0017 36.5548 0.0000 0.0000 0.0000
# 2 70.0017 166.4839 36.3061 0.0000 0.0000 0.0000
# 3 36.5548 36.3061 48.4086 0.0000 0.0000 0.0000
# 4 0.0000 0.0000 0.0000 22.0807 0.0000 0.0000
# 5 0.0000 0.0000 0.0000 0.0000 -39.8983 0.0000
# 6 0.0000 0.0000 0.0000 0.0000 0.0000 55.5891
#
#
#
# Elastic Compliance Matrix: (Units=1/GPa)
#
#
# Indices 1 2 3 4 5 6 
#
# 1 0.006047 -0.001849 -0.003179 0.000000 0.000000 0.000000
# 2 -0.001849 0.007747 -0.004413 0.000000 0.000000 0.000000
# 3 -0.003179 -0.004413 0.026368 0.000000 0.000000 0.000000
# 4 0.000000 0.000000 0.000000 0.045288 0.000000 0.000000
# 5 0.000000 0.000000 0.000000 0.000000 -0.025064 0.000000
# 6 0.000000 0.000000 0.000000 0.000000 0.000000 0.017989
#
#
# Mechanical properties :
#
#
# Convention : Reuss Voigt Hill
#
# Bulk Modulus (GPa) = 46.99719 78.51244 62.75481
# Shear Modulus (GPa) = 47.91429 26.08926 37.00178
#
# Velocity S-wave (km/s) = 4.67888 3.45255 4.11169
# Velocity P-wave (km/s) = 7.11773 7.19483 7.15638
#
# Compressibility (1/GPa) = 0.02127787
#
# Stress axis : x y z
#
# Youngs Moduli (GPa) = 165.36748 129.08845 37.92411
#
# Poissons Ratio (x) = 0.23872 0.12058
# Poissons Ratio (y) = 0.30581 0.16738
# Poissons Ratio (z) = 0.52577 0.56973
#
# Static dielectric constant tensor:
#      x y z
#    x 1.765530 0.000000 0.000000 
#    y 0.000000 1.849610 0.000000 
#    z 0.000000 0.000000 1.849400 
# 
# From -- ./inp_files/41479.got.cif
#   From: 2010.05.17/outbox.cif.g08.bks.cpg/sg68_21_cif.got.tgz:41479.got - 2010.06.03 18:57:09.
