data_PCOD9506625
_publ_section_title
;
Structure prediction by ZEFSAII (Michael W. Deem and Ramdas Pophale) SiO2 
 PCOD9506625
Probable space group: C C C A
;
_chemical_formula_sum "Si O2"
_cell_formula_units_Z 64
_cell_length_a 12.935382
_cell_length_b 8.902412
_cell_length_c 28.822921
_cell_angle_alpha 90.000000
_cell_angle_beta 90.000000
_cell_angle_gamma 90.000000
_cell_volume 3319.135171
_symmetry_space_group_name_H-M "C C C A"
_symmetry_group_IT_number 68
_space_group.IT_coordinate_system_code '2'
_symmetry_cell_setting 'orthorhombic'
loop_
_space_group_symop_operation_xyz
x,y,z
-x,1/2-y,z
x,1/2-y,1/2-z
-x,y,1/2-z
-x,-y,-z
x,1/2+y,-z
-x,1/2+y,1/2+z
x,-y,1/2+z
1/2+x,1/2+y,z
1/2-x,-y,z
1/2+x,-y,1/2-z
1/2-x,1/2+y,1/2-z
1/2-x,1/2-y,-z
1/2+x,y,-z
1/2-x,y,1/2+z
1/2+x,1/2-y,1/2+z
loop_
_atom_site_type_symbol
_atom_site_label
_atom_site_fract_x
_atom_site_fract_y
_atom_site_fract_z
Si Si1 0.257412 0.750000 0.250000
Si Si2 0.374374 0.741586 0.444432
Si Si3 0.250000 0.500000 0.004096
Si Si4 0.566777 0.595489 0.710849
Si Si5 0.114078 0.685718 0.839798
O O1 0.173491 0.623348 0.262427
O O2 0.323138 0.743730 0.203108
O O3 0.500000 0.750000 0.447762
O O4 0.325692 0.603054 0.472973
O O5 0.343526 0.721881 0.390487
O O6 0.321084 0.890155 0.465137
O O7 0.500000 0.750000 0.700853
O O8 0.500000 0.510412 0.750000
O O9 0.597214 0.492695 0.668098
O O10 0.000000 0.750000 0.837933
#
# Coordination Sequence:
#
# PCOD9506625 Si02
#       5
#     8  16   8  16  16
#     4  10  20  34  60  82 124 164 200 246 292 364
#     4  10  23  43  68  97 125 164 211 266 321 382
#     4  10  22  46  70  90 128 160 214 266 330 378
#     4   9  20  38  56  84 123 164 207 245 300 358
#     4  11  22  38  58  91 123 161 203 251 307 370
#
# _framework density 19.282132000000001
#
# number of rings (size 3 to 8) (size 9 to 14) (size 15 to 20)
#    0.000    2.250    0.000    3.375    3.500    2.000 
#   22.500    1.250    0.000    0.000    0.000    0.000 
#    0.000    0.000    0.000    0.000    0.000    0.000 
#
# Total GULP energy -178197.938544 kJ/mol
# GULP energy per Si atom -5568.685580 kJ/mol
# Density = 1.923824 g / cm^3
# Si number density = 19.282132 Si / 1000 Ang^3
#
#
#
# Elastic Constant Matrix: (Units=GPa)
#
#
# Indices 1 2 3 4 5 6 
#
# 1 104.6716 50.6942 77.5570 0.0000 0.0000 0.0000
# 2 50.6942 112.1777 75.3394 0.0000 0.0000 0.0000
# 3 77.5570 75.3394 185.3482 0.0000 0.0000 0.0000
# 4 0.0000 0.0000 0.0000 -26.0813 0.0000 0.0000
# 5 0.0000 0.0000 0.0000 0.0000 -42.8306 0.0000
# 6 0.0000 0.0000 0.0000 0.0000 0.0000 -6.3463
#
#
#
# Elastic Compliance Matrix: (Units=1/GPa)
#
#
# Indices 1 2 3 4 5 6 
#
# 1 0.014768 -0.003471 -0.004769 0.000000 0.000000 0.000000
# 2 -0.003471 0.013078 -0.003863 0.000000 0.000000 0.000000
# 3 -0.004769 -0.003863 0.008961 0.000000 0.000000 0.000000
# 4 0.000000 0.000000 0.000000 -0.038342 0.000000 0.000000
# 5 0.000000 0.000000 0.000000 0.000000 -0.023348 0.000000
# 6 0.000000 0.000000 0.000000 0.000000 0.000000 -0.157573
#
#
# Mechanical properties :
#
#
# Convention : Reuss Voigt Hill
#
# Bulk Modulus (GPa) = 79.36126 89.93096 84.64611
# Shear Modulus (GPa) = -32.45728 -1.81118 -17.13423
#
# Velocity S-wave (km/s) = -4.10723 -0.97023 -2.98418
# Velocity P-wave (km/s) = 4.33068 6.74431 5.66747
#
# Compressibility (1/GPa) = 0.01260061
#
# Stress axis : x y z
#
# Youngs Moduli (GPa) = 67.71297 76.46595 111.59531
#
# Poissons Ratio (x) = 0.26543 0.53216
# Poissons Ratio (y) = 0.23505 0.43112
# Poissons Ratio (z) = 0.32290 0.29541
#
# Static dielectric constant tensor:
#      x y z
#    x 2.225200 0.000000 0.000000 
#    y 0.000000 1.778320 0.000000 
#    z 0.000000 0.000000 1.677560 
# 
# From -- ./inp_files/54413.got.cif
#   From: 2010.05.17/outbox.cif.g08.bks.cpg/sg68_28_cif.got.tgz:54413.got - 2010.06.03 18:57:09.
