data_PCOD9506338
_publ_section_title
;
Structure prediction by ZEFSAII (Michael W. Deem and Ramdas Pophale) SiO2 
 PCOD9506338
Probable space group: C C C A
;
_chemical_formula_sum "Si O2"
_cell_formula_units_Z 96
_cell_length_a 15.300282
_cell_length_b 13.910818
_cell_length_c 18.666421
_cell_angle_alpha 90.000000
_cell_angle_beta 90.000000
_cell_angle_gamma 90.000000
_cell_volume 3972.950560
_symmetry_space_group_name_H-M "C C C A"
_symmetry_group_IT_number 68
_space_group.IT_coordinate_system_code '2'
_symmetry_cell_setting 'orthorhombic'
loop_
_space_group_symop_operation_xyz
x,y,z
-x,1/2-y,z
x,1/2-y,1/2-z
-x,y,1/2-z
-x,-y,-z
x,1/2+y,-z
-x,1/2+y,1/2+z
x,-y,1/2+z
1/2+x,1/2+y,z
1/2-x,-y,z
1/2+x,-y,1/2-z
1/2-x,1/2+y,1/2-z
1/2-x,1/2-y,-z
1/2+x,y,-z
1/2-x,y,1/2+z
1/2+x,1/2-y,1/2+z
loop_
_atom_site_type_symbol
_atom_site_label
_atom_site_fract_x
_atom_site_fract_y
_atom_site_fract_z
Si Si1 0.843129 0.522818 0.862362
Si Si2 0.841269 0.607398 0.091039
Si Si3 0.472740 0.608159 0.020130
Si Si4 0.598370 0.637464 0.238466
Si Si5 0.395020 0.139313 0.252416
Si Si6 0.347921 0.883880 0.076359
O O1 0.750000 0.500000 0.897694
O O2 0.908905 0.584418 0.912401
O O3 0.834029 0.590805 0.793087
O O4 0.873772 0.423476 0.823640
O O5 0.858072 0.600625 0.176200
O O6 0.749604 0.656899 0.070328
O O7 0.839433 0.497757 0.062362
O O8 0.921137 0.651859 0.046834
O O9 0.565735 0.657030 0.038169
O O10 0.500000 0.500000 0.000000
O O11 0.593712 0.750000 0.250000
O O12 0.500000 0.596334 0.250000
O O13 0.627419 0.621288 0.158923
O O14 0.364385 0.250000 0.250000
O O15 0.500000 0.139357 0.250000
#
# Coordination Sequence:
#
# PCOD9506338 Si02
#       6
#    16  16  16  16  16  16
#     4  12  24  39  66  99 130 166 220 275 326 394
#     4  10  21  37  65  96 126 171 216 264 337 389
#     4  10  22  38  62  90 131 172 216 265 323 399
#     4  11  22  39  65  96 129 168 215 272 326 389
#     4  11  23  42  70  98 132 174 222 278 327 387
#     4  10  19  37  64  91 128 168 210 270 328 393
#
# _framework density 24.163402999999999
#
# number of rings (size 3 to 8) (size 9 to 14) (size 15 to 20)
#    0.000    1.333    3.333    3.500    4.667    2.667 
#    0.000    0.000   18.333    2.000    0.000    0.000 
#    0.000    0.000    0.000    0.000    0.000    0.000 
#
# Total GULP energy -267952.803829 kJ/mol
# GULP energy per Si atom -5582.350080 kJ/mol
# Density = 2.410841 g / cm^3
# Si number density = 24.163403 Si / 1000 Ang^3
#
#
#
# Elastic Constant Matrix: (Units=GPa)
#
#
# Indices 1 2 3 4 5 6 
#
# 1 162.0213 -15.0277 31.7334 0.0000 0.0000 0.0000
# 2 -15.0277 58.0009 -14.1843 0.0000 0.0000 0.0000
# 3 31.7334 -14.1843 66.1832 0.0000 0.0000 0.0000
# 4 0.0000 0.0000 0.0000 4.7552 0.0000 0.0000
# 5 0.0000 0.0000 0.0000 0.0000 26.5525 0.0000
# 6 0.0000 0.0000 0.0000 0.0000 0.0000 24.4139
#
#
#
# Elastic Compliance Matrix: (Units=1/GPa)
#
#
# Indices 1 2 3 4 5 6 
#
# 1 0.006869 0.001028 -0.003073 0.000000 0.000000 0.000000
# 2 0.001028 0.018349 0.003439 0.000000 0.000000 0.000000
# 3 -0.003073 0.003439 0.017320 0.000000 0.000000 0.000000
# 4 0.000000 0.000000 0.000000 0.210294 0.000000 0.000000
# 5 0.000000 0.000000 0.000000 0.000000 0.037661 0.000000
# 6 0.000000 0.000000 0.000000 0.000000 0.000000 0.040960
#
#
# Mechanical properties :
#
#
# Convention : Reuss Voigt Hill
#
# Bulk Modulus (GPa) = 22.06192 32.36091 27.21142
# Shear Modulus (GPa) = 14.54441 30.05658 22.30050
#
# Velocity S-wave (km/s) = 2.45607 3.53071 3.04123
# Velocity P-wave (km/s) = 4.14646 5.48113 4.85983
#
# Compressibility (1/GPa) = 0.04532697
#
# Stress axis : x y z
#
# Youngs Moduli (GPa) = 145.57447 54.49990 57.73570
#
# Poissons Ratio (x) = -0.05604 0.17744
# Poissons Ratio (y) = -0.14968 -0.19858
# Poissons Ratio (z) = 0.44740 -0.18745
#
# Static dielectric constant tensor:
#      x y z
#    x 2.201480 0.000000 0.000000 
#    y 0.000000 1.926670 0.000000 
#    z 0.000000 0.000000 1.926630 
# 
# From -- ./inp_files/38553.got.cif
#   From: 2010.05.17/outbox.cif.g08.bks.cpg/sg68_20_cif.got.tgz:38553.got - 2010.06.03 18:57:09.
