data_PCOD9506993
_publ_section_title
;
Structure prediction by ZEFSAII (Michael W. Deem and Ramdas Pophale) SiO2 
 PCOD9506993
Probable space group: C C C A
;
_chemical_formula_sum "Si O2"
_cell_formula_units_Z 96
_cell_length_a 20.695812
_cell_length_b 26.116701
_cell_length_c 8.954013
_cell_angle_alpha 90.000000
_cell_angle_beta 90.000000
_cell_angle_gamma 90.000000
_cell_volume 4839.700741
_symmetry_space_group_name_H-M "C C C A"
_symmetry_group_IT_number 68
_space_group.IT_coordinate_system_code '2'
_symmetry_cell_setting 'orthorhombic'
loop_
_space_group_symop_operation_xyz
x,y,z
-x,1/2-y,z
x,1/2-y,1/2-z
-x,y,1/2-z
-x,-y,-z
x,1/2+y,-z
-x,1/2+y,1/2+z
x,-y,1/2+z
1/2+x,1/2+y,z
1/2-x,-y,z
1/2+x,-y,1/2-z
1/2-x,1/2+y,1/2-z
1/2-x,1/2-y,-z
1/2+x,y,-z
1/2-x,y,1/2+z
1/2+x,1/2-y,1/2+z
loop_
_atom_site_type_symbol
_atom_site_label
_atom_site_fract_x
_atom_site_fract_y
_atom_site_fract_z
Si Si1 0.531140 0.426521 0.993920
Si Si2 0.000000 0.997676 0.750000
Si Si3 0.100071 0.633523 0.921990
Si Si4 0.923959 0.258146 0.925032
Si Si5 0.260375 0.250000 0.250000
Si Si6 0.224401 0.828736 0.496835
Si Si7 0.872847 0.657771 0.924601
O O1 0.545562 0.460644 0.847314
O O2 0.458217 0.404646 0.964829
O O3 0.581057 0.380675 0.015873
O O4 0.533205 0.465066 0.131740
O O5 0.106028 0.645693 0.745640
O O6 0.085593 0.685935 0.008404
O O7 0.174028 0.625404 0.976819
O O8 0.909271 0.250000 0.750000
O O9 0.000000 0.250000 0.939834
O O10 0.889139 0.215196 0.024957
O O11 0.224596 0.290219 0.360127
O O12 0.293670 0.209943 0.362117
O O13 0.296836 0.847928 0.460593
#
# Coordination Sequence:
#
# PCOD9506993 Si02
#       7
#    16   8  16  16   8  16  16
#     4  11  24  45  74  96 123 151 213 262 334 375
#     4  10  24  46  72 102 116 156 196 276 330 400
#     4  12  24  41  61  93 129 175 210 258 307 374
#     4  11  25  36  56  94 137 171 211 257 305 363
#     4  10  20  38  50  80 122 190 216 244 274 362
#     4  11  24  36  56  83 130 172 222 249 298 363
#     4  12  24  41  61  93 129 175 210 258 307 374
#
# _framework density 19.835937000000001
#
# number of rings (size 3 to 8) (size 9 to 14) (size 15 to 20)
#    0.000    0.833    5.000    2.500    7.000    0.667 
#    0.000    0.000    0.000    6.000    0.000    0.000 
#    0.000    0.000    0.000    0.000    0.000    0.000 
#
# Total GULP energy -267742.025804 kJ/mol
# GULP energy per Si atom -5577.958871 kJ/mol
# Density = 1.979079 g / cm^3
# Si number density = 19.835937 Si / 1000 Ang^3
#
#
#
# Elastic Constant Matrix: (Units=GPa)
#
#
# Indices 1 2 3 4 5 6 
#
# 1 123.3791 30.2762 23.8097 0.0000 0.0000 0.0000
# 2 30.2762 81.5199 26.1788 0.0000 0.0000 0.0000
# 3 23.8097 26.1788 82.5521 0.0000 0.0000 0.0000
# 4 0.0000 0.0000 0.0000 34.2301 0.0000 0.0000
# 5 0.0000 0.0000 0.0000 0.0000 7.3104 0.0000
# 6 0.0000 0.0000 0.0000 0.0000 0.0000 11.8435
#
#
#
# Elastic Compliance Matrix: (Units=1/GPa)
#
#
# Indices 1 2 3 4 5 6 
#
# 1 0.009136 -0.002836 -0.001736 0.000000 0.000000 0.000000
# 2 -0.002836 0.014538 -0.003792 0.000000 0.000000 0.000000
# 3 -0.001736 -0.003792 0.013817 0.000000 0.000000 0.000000
# 4 0.000000 0.000000 0.000000 0.029214 0.000000 0.000000
# 5 0.000000 0.000000 0.000000 0.000000 0.136791 0.000000
# 6 0.000000 0.000000 0.000000 0.000000 0.000000 0.084434
#
#
# Mechanical properties :
#
#
# Convention : Reuss Voigt Hill
#
# Bulk Modulus (GPa) = 48.16231 49.77562 48.96897
# Shear Modulus (GPa) = 16.04731 24.48923 20.26827
#
# Velocity S-wave (km/s) = 2.84738 3.51748 3.20002
# Velocity P-wave (km/s) = 5.92817 6.45330 6.19630
#
# Compressibility (1/GPa) = 0.02076312
#
# Stress axis : x y z
#
# Youngs Moduli (GPa) = 109.45814 68.78546 72.37548
#
# Poissons Ratio (x) = 0.19505 0.12563
# Poissons Ratio (y) = 0.31038 0.27448
# Poissons Ratio (z) = 0.18999 0.26086
#
# Static dielectric constant tensor:
#      x y z
#    x 1.833460 0.000000 0.000000 
#    y 0.000000 1.678230 0.000000 
#    z 0.000000 0.000000 1.752190 
# 
# From -- ./inp_files/8191.got.cif
#   From: 2010.05.17/outbox.cif.g08.bks.cpg/sg68_5_cif.got.tgz:8191.got - 2010.06.03 18:57:09.
