data_PCOD9506426
_publ_section_title
;
Structure prediction by ZEFSAII (Michael W. Deem and Ramdas Pophale) SiO2 
 PCOD9506426
Probable space group: C C C A
;
_chemical_formula_sum "Si O2"
_cell_formula_units_Z 48
_cell_length_a 9.237849
_cell_length_b 14.359329
_cell_length_c 14.300970
_cell_angle_alpha 90.000000
_cell_angle_beta 90.000000
_cell_angle_gamma 90.000000
_cell_volume 1897.013846
_symmetry_space_group_name_H-M "C C C A"
_symmetry_group_IT_number 68
_space_group.IT_coordinate_system_code '2'
_symmetry_cell_setting 'orthorhombic'
loop_
_space_group_symop_operation_xyz
x,y,z
-x,1/2-y,z
x,1/2-y,1/2-z
-x,y,1/2-z
-x,-y,-z
x,1/2+y,-z
-x,1/2+y,1/2+z
x,-y,1/2+z
1/2+x,1/2+y,z
1/2-x,-y,z
1/2+x,-y,1/2-z
1/2-x,1/2+y,1/2-z
1/2-x,1/2-y,-z
1/2+x,y,-z
1/2-x,y,1/2+z
1/2+x,1/2-y,1/2+z
loop_
_atom_site_type_symbol
_atom_site_label
_atom_site_fract_x
_atom_site_fract_y
_atom_site_fract_z
Si Si1 0.283197 0.776007 0.653315
Si Si2 0.593890 0.843129 0.032454
Si Si3 0.401703 0.946467 0.165472
O O1 0.355888 0.750000 0.750000
O O2 0.365348 0.839571 0.576588
O O3 0.233773 0.684253 0.595158
O O4 0.150633 0.840973 0.687705
O O5 0.500000 0.750000 0.041555
O O6 0.505219 0.928293 0.075966
O O7 0.500000 0.983642 0.250000
O O8 0.250000 0.000000 0.155235
#
# Coordination Sequence:
#
# PCOD9506426 Si02
#       3
#    16  16  16
#     4  10  19  39  72 100 135 186 244 305 362 440
#     4   9  20  38  67 105 134 181 246 304 370 433
#     4  11  23  43  67 101 149 195 242 300 375 444
#
# _framework density 25.302925999999999
#
# number of rings (size 3 to 8) (size 9 to 14) (size 15 to 20)
#    0.000    2.000    3.333    0.000    0.000    2.000 
#    6.000    1.667    0.000    0.000    0.000    0.000 
#    0.000    0.000    0.000    0.000    0.000    0.000 
#
# Total GULP energy -133844.410396 kJ/mol
# GULP energy per Si atom -5576.850433 kJ/mol
# Density = 2.524534 g / cm^3
# Si number density = 25.302926 Si / 1000 Ang^3
#
#
#
# Elastic Constant Matrix: (Units=GPa)
#
#
# Indices 1 2 3 4 5 6 
#
# 1 141.4106 50.0315 97.3488 0.0000 0.0000 0.0000
# 2 50.0315 73.4244 56.9211 0.0000 0.0000 0.0000
# 3 97.3488 56.9211 262.5794 0.0000 0.0000 0.0000
# 4 0.0000 0.0000 0.0000 17.6646 0.0000 0.0000
# 5 0.0000 0.0000 0.0000 0.0000 44.6739 0.0000
# 6 0.0000 0.0000 0.0000 0.0000 0.0000 -59.9987
#
#
#
# Elastic Compliance Matrix: (Units=1/GPa)
#
#
# Indices 1 2 3 4 5 6 
#
# 1 0.010915 -0.005169 -0.002926 0.000000 0.000000 0.000000
# 2 -0.005169 0.018818 -0.002163 0.000000 0.000000 0.000000
# 3 -0.002926 -0.002163 0.005362 0.000000 0.000000 0.000000
# 4 0.000000 0.000000 0.000000 0.056610 0.000000 0.000000
# 5 0.000000 0.000000 0.000000 0.000000 0.022384 0.000000
# 6 0.000000 0.000000 0.000000 0.000000 0.000000 -0.016667
#
#
# Mechanical properties :
#
#
# Convention : Reuss Voigt Hill
#
# Bulk Modulus (GPa) = 68.59100 98.44634 83.51867
# Shear Modulus (GPa) = 40.71699 18.67548 29.69624
#
# Velocity S-wave (km/s) = 4.01581 2.71970 3.42954
# Velocity P-wave (km/s) = 6.97632 6.98956 6.98295
#
# Compressibility (1/GPa) = 0.01457917
#
# Stress axis : x y z
#
# Youngs Moduli (GPa) = 91.61952 53.13927 186.49535
#
# Poissons Ratio (x) = 0.27467 0.54569
# Poissons Ratio (y) = 0.47358 0.40340
# Poissons Ratio (z) = 0.26808 0.11494
#
# Static dielectric constant tensor:
#      x y z
#    x 2.144140 0.000000 0.000000 
#    y 0.000000 2.497110 0.000000 
#    z 0.000000 0.000000 2.110610 
# 
# From -- ./inp_files/11262.got.cif
#   From: 2010.05.17/outbox.cif.g08.bks.cpg/sg68_6_cif.got.tgz:11262.got - 2010.06.03 18:57:09.
