data_PCOD9506422
_publ_section_title
;
Structure prediction by ZEFSAII (Michael W. Deem and Ramdas Pophale) SiO2 
 PCOD9506422
Probable space group: C C C A
;
_chemical_formula_sum "Si O2"
_cell_formula_units_Z 116
_cell_length_a 11.567739
_cell_length_b 19.553346
_cell_length_c 23.587704
_cell_angle_alpha 90.000000
_cell_angle_beta 90.000000
_cell_angle_gamma 90.000000
_cell_volume 5335.255666
_symmetry_space_group_name_H-M "C C C A"
_symmetry_group_IT_number 68
_space_group.IT_coordinate_system_code '2'
_symmetry_cell_setting 'orthorhombic'
loop_
_space_group_symop_operation_xyz
x,y,z
-x,1/2-y,z
x,1/2-y,1/2-z
-x,y,1/2-z
-x,-y,-z
x,1/2+y,-z
-x,1/2+y,1/2+z
x,-y,1/2+z
1/2+x,1/2+y,z
1/2-x,-y,z
1/2+x,-y,1/2-z
1/2-x,1/2+y,1/2-z
1/2-x,1/2-y,-z
1/2+x,y,-z
1/2-x,y,1/2+z
1/2+x,1/2-y,1/2+z
loop_
_atom_site_type_symbol
_atom_site_label
_atom_site_fract_x
_atom_site_fract_y
_atom_site_fract_z
Si Si1 0.820943 0.788728 0.659820
Si Si2 0.822165 0.931385 0.467341
Si Si3 0.285152 0.071552 0.206678
Si Si4 0.103382 0.419212 0.095929
Si Si5 0.000000 0.250000 0.250000
Si Si6 0.149148 0.855040 0.606515
Si Si7 0.104652 0.829182 0.293708
Si Si8 0.505342 0.939697 0.626808
O O1 0.824613 0.861605 0.629035
O O2 0.857055 0.725096 0.620570
O O3 0.692420 0.771915 0.683643
O O4 0.915072 0.792403 0.709847
O O5 0.843523 0.928125 0.533801
O O6 0.743178 0.871106 0.441908
O O7 0.944113 0.932485 0.434241
O O8 0.750000 0.000000 0.453042
O O9 0.196268 0.106279 0.162934
O O10 0.314380 0.122404 0.256435
O O11 0.398075 0.051853 0.169856
O O12 0.250000 0.000000 0.232609
O O13 0.086719 0.493718 0.124579
O O14 0.974197 0.387184 0.091380
O O15 0.061049 0.870930 0.348405
O O16 0.000000 0.816016 0.250000
#
# Coordination Sequence:
#
# PCOD9506422 Si02
#       8
#    16  16  16  16   4  16  16  16
#     4  12  27  44  69 102 142 185 229 285 349 431
#     4  11  24  42  74  98 133 189 232 300 359 406
#     4  10  19  39  67  95 133 181 222 288 354 406
#     4  12  24  40  68 103 137 175 235 295 346 425
#     4  12  24  48  70 100 132 188 232 274 352 408
#     4  11  22  47  65  97 141 180 236 284 354 425
#     4  10  25  43  67 104 141 182 235 285 355 423
#     4  10  21  42  65 104 135 173 232 291 351 411
#
# _framework density 21.742163999999999
#
# number of rings (size 3 to 8) (size 9 to 14) (size 15 to 20)
#    0.000    1.103    4.138    2.069    3.862    0.552 
#    1.241   15.517    0.000    0.000    0.000    0.000 
#    0.000    0.000    0.000    0.000    0.000    0.000 
#
# Total GULP energy -324273.277945 kJ/mol
# GULP energy per Si atom -5590.918585 kJ/mol
# Density = 2.169268 g / cm^3
# Si number density = 21.742164 Si / 1000 Ang^3
#
#
#
# Elastic Constant Matrix: (Units=GPa)
#
#
# Indices 1 2 3 4 5 6 
#
# 1 91.9327 22.4238 19.7349 0.0000 0.0000 0.0000
# 2 22.4238 81.3701 27.6138 0.0000 0.0000 0.0000
# 3 19.7349 27.6138 90.2864 0.0000 0.0000 0.0000
# 4 0.0000 0.0000 0.0000 -8.0809 0.0000 0.0000
# 5 0.0000 0.0000 0.0000 0.0000 23.3427 0.0000
# 6 0.0000 0.0000 0.0000 0.0000 0.0000 37.7261
#
#
#
# Elastic Compliance Matrix: (Units=1/GPa)
#
#
# Indices 1 2 3 4 5 6 
#
# 1 0.011914 -0.002677 -0.001785 0.000000 0.000000 0.000000
# 2 -0.002677 0.014314 -0.003793 0.000000 0.000000 0.000000
# 3 -0.001785 -0.003793 0.012626 0.000000 0.000000 0.000000
# 4 0.000000 0.000000 0.000000 -0.123748 0.000000 0.000000
# 5 0.000000 0.000000 0.000000 0.000000 0.042840 0.000000
# 6 0.000000 0.000000 0.000000 0.000000 0.000000 0.026507
#
#
# Mechanical properties :
#
#
# Convention : Reuss Voigt Hill
#
# Bulk Modulus (GPa) = 44.75565 44.79266 44.77416
# Shear Modulus (GPa) = 594.41662 23.51869 308.96765
#
# Velocity S-wave (km/s) = 16.55255 3.29250 11.93372
# Velocity P-wave (km/s) = 19.64549 5.92457 14.50941
#
# Compressibility (1/GPa) = 0.02234355
#
# Stress axis : x y z
#
# Youngs Moduli (GPa) = 83.93623 69.85931 79.20087
#
# Poissons Ratio (x) = 0.18704 0.14140
# Poissons Ratio (y) = 0.22472 0.30040
# Poissons Ratio (z) = 0.14985 0.26496
#
# Static dielectric constant tensor:
#      x y z
#    x 1.908750 0.000000 0.000000 
#    y 0.000000 1.804990 0.000000 
#    z 0.000000 0.000000 1.770610 
# 
# From -- ./inp_files/50354.got.cif
#   From: 2010.05.17/outbox.cif.g08.bks.cpg/sg68_26_cif.got.tgz:50354.got - 2010.06.03 18:57:09.
