data_PCOD9506033
_publ_section_title
;
Structure prediction by ZEFSAII (Michael W. Deem and Ramdas Pophale) SiO2 
 PCOD9506033
Probable space group: C C C A
;
_chemical_formula_sum "Si O2"
_cell_formula_units_Z 64
_cell_length_a 12.452345
_cell_length_b 9.181858
_cell_length_c 23.700551
_cell_angle_alpha 90.000000
_cell_angle_beta 90.000000
_cell_angle_gamma 90.000000
_cell_volume 2709.818225
_symmetry_space_group_name_H-M "C C C A"
_symmetry_group_IT_number 68
_space_group.IT_coordinate_system_code '2'
_symmetry_cell_setting 'orthorhombic'
loop_
_space_group_symop_operation_xyz
x,y,z
-x,1/2-y,z
x,1/2-y,1/2-z
-x,y,1/2-z
-x,-y,-z
x,1/2+y,-z
-x,1/2+y,1/2+z
x,-y,1/2+z
1/2+x,1/2+y,z
1/2-x,-y,z
1/2+x,-y,1/2-z
1/2-x,1/2+y,1/2-z
1/2-x,1/2-y,-z
1/2+x,y,-z
1/2-x,y,1/2+z
1/2+x,1/2-y,1/2+z
loop_
_atom_site_type_symbol
_atom_site_label
_atom_site_fract_x
_atom_site_fract_y
_atom_site_fract_z
Si Si1 0.380704 0.179396 0.305369
Si Si2 0.548519 0.589467 0.360019
Si Si3 0.082794 0.120778 0.479224
Si Si4 0.344887 0.391788 0.399743
O O1 0.500000 0.250000 0.304448
O O2 0.326555 0.250000 0.250000
O O3 0.334533 0.247851 0.362438
O O4 0.394040 0.005314 0.311089
O O5 0.500000 0.750000 0.345800
O O6 0.623812 0.597428 0.415974
O O7 0.451506 0.482574 0.381336
O O8 0.157084 0.143486 0.533468
O O9 0.000000 0.250000 0.471531
O O10 0.000000 0.000000 0.500000
O O11 0.250000 0.500000 0.386469
#
# Coordination Sequence:
#
# PCOD9506033 Si02
#       4
#    16  16  16  16
#     4   9  18  36  58  76 103 149 193 224 271 338
#     4   9  18  35  56  80 106 140 183 227 274 333
#     4   9  16  30  51  74 105 142 176 215 270 335
#     4  10  19  33  53  79 110 146 184 228 277 325
#
# _framework density 23.617819999999998
#
# number of rings (size 3 to 8) (size 9 to 14) (size 15 to 20)
#    0.000    2.750    0.000    3.750    0.000    0.000 
#    0.000   33.750    0.000    0.000    0.000    0.000 
#    0.000    0.000    0.000    0.000    0.000    0.000 
#
# Total GULP energy -178296.529463 kJ/mol
# GULP energy per Si atom -5571.766546 kJ/mol
# Density = 2.356407 g / cm^3
# Si number density = 23.617820 Si / 1000 Ang^3
#
#
#
# Elastic Constant Matrix: (Units=GPa)
#
#
# Indices 1 2 3 4 5 6 
#
# 1 32.5173 -2.9476 16.8603 0.0000 0.0000 0.0000
# 2 -2.9476 154.4574 79.5841 0.0000 0.0000 0.0000
# 3 16.8603 79.5841 119.5151 0.0000 0.0000 0.0000
# 4 0.0000 0.0000 0.0000 15.0819 0.0000 0.0000
# 5 0.0000 0.0000 0.0000 0.0000 -44.1898 0.0000
# 6 0.0000 0.0000 0.0000 0.0000 0.0000 21.2718
#
#
#
# Elastic Compliance Matrix: (Units=1/GPa)
#
#
# Indices 1 2 3 4 5 6 
#
# 1 0.035513 0.004961 -0.008314 0.000000 0.000000 0.000000
# 2 0.004961 0.010549 -0.007724 0.000000 0.000000 0.000000
# 3 -0.008314 -0.007724 0.014684 0.000000 0.000000 0.000000
# 4 0.000000 0.000000 0.000000 0.066305 0.000000 0.000000
# 5 0.000000 0.000000 0.000000 0.000000 -0.022630 0.000000
# 6 0.000000 0.000000 0.000000 0.000000 0.000000 0.047011
#
#
# Mechanical properties :
#
#
# Convention : Reuss Voigt Hill
#
# Bulk Modulus (GPa) = 25.91187 54.83151 40.37169
# Shear Modulus (GPa) = 26.81704 12.63232 19.72468
#
# Velocity S-wave (km/s) = 3.37331 2.31522 2.89305
# Velocity P-wave (km/s) = 5.11541 5.51485 5.31888
#
# Compressibility (1/GPa) = 0.03859236
#
# Stress axis : x y z
#
# Youngs Moduli (GPa) = 28.15852 94.79640 68.10342
#
# Poissons Ratio (x) = -0.47032 0.56619
# Poissons Ratio (y) = -0.13970 0.52605
# Poissons Ratio (z) = 0.23410 0.73224
#
# Static dielectric constant tensor:
#      x y z
#    x 1.933400 0.000000 0.000000 
#    y 0.000000 1.921420 0.000000 
#    z 0.000000 0.000000 2.152510 
# 
# From -- ./inp_files/42755.got.cif
#   From: 2010.05.17/outbox.cif.g08.bks.cpg/sg68_22_cif.got.tgz:42755.got - 2010.06.03 18:57:09.
