data_PCOD9506065
_publ_section_title
;
Structure prediction by ZEFSAII (Michael W. Deem and Ramdas Pophale) SiO2 
 PCOD9506065
Probable space group: C C C A
;
_chemical_formula_sum "Si O2"
_cell_formula_units_Z 112
_cell_length_a 24.488612
_cell_length_b 10.498727
_cell_length_c 20.400271
_cell_angle_alpha 90.000000
_cell_angle_beta 90.000000
_cell_angle_gamma 90.000000
_cell_volume 5244.894415
_symmetry_space_group_name_H-M "C C C A"
_symmetry_group_IT_number 68
_space_group.IT_coordinate_system_code '2'
_symmetry_cell_setting 'orthorhombic'
loop_
_space_group_symop_operation_xyz
x,y,z
-x,1/2-y,z
x,1/2-y,1/2-z
-x,y,1/2-z
-x,-y,-z
x,1/2+y,-z
-x,1/2+y,1/2+z
x,-y,1/2+z
1/2+x,1/2+y,z
1/2-x,-y,z
1/2+x,-y,1/2-z
1/2-x,1/2+y,1/2-z
1/2-x,1/2-y,-z
1/2+x,y,-z
1/2-x,y,1/2+z
1/2+x,1/2-y,1/2+z
loop_
_atom_site_type_symbol
_atom_site_label
_atom_site_fract_x
_atom_site_fract_y
_atom_site_fract_z
Si Si1 0.909141 0.193909 0.862451
Si Si2 0.377506 0.634171 0.293767
Si Si3 0.876555 0.475134 0.470891
Si Si4 0.983400 0.044149 0.324974
Si Si5 0.938748 0.222170 0.493432
Si Si6 0.599012 0.533034 0.831764
Si Si7 0.686026 0.015046 0.399370
O O1 0.946973 0.076447 0.843579
O O2 0.934671 0.243190 0.930100
O O3 0.910577 0.318421 0.818257
O O4 0.848046 0.139167 0.873978
O O5 0.358044 0.750000 0.250000
O O6 0.438742 0.657254 0.324003
O O7 0.381457 0.527965 0.236080
O O8 0.341272 0.595148 0.354963
O O9 0.897408 0.329281 0.465740
O O10 0.920576 0.573380 0.505895
O O11 0.864085 0.521289 0.397067
O O12 0.828020 0.487028 0.523426
O O13 0.000000 0.032734 0.250000
O O14 0.042420 0.033017 0.357150
O O15 0.000000 0.250000 0.469200
O O16 0.750000 0.000000 0.389315
#
# Coordination Sequence:
#
# PCOD9506065 Si02
#       7
#    16  16  16  16  16  16  16
#     4   9  18  35  57  85 119 153 210 255 300 371
#     4  10  23  40  60  90 132 166 211 255 309 389
#     4  10  22  38  61  91 124 168 212 261 307 385
#     4   9  18  31  56  88 126 168 196 241 310 375
#     4  10  19  33  56  87 128 160 202 244 310 376
#     4  10  20  36  59  93 130 160 203 252 303 384
#     4  10  23  45  66  85 117 167 212 274 336 366
#
# _framework density 21.354101
#
# number of rings (size 3 to 8) (size 9 to 14) (size 15 to 20)
#    0.000    2.286    0.000    2.571    2.000   11.714 
#    2.571    7.143    0.000    0.000    0.000    0.000 
#    0.000    0.000    0.000    0.000    0.000    0.000 
#
# Total GULP energy -311964.463037 kJ/mol
# GULP energy per Si atom -5570.793983 kJ/mol
# Density = 2.130550 g / cm^3
# Si number density = 21.354101 Si / 1000 Ang^3
#
#
#
# Elastic Constant Matrix: (Units=GPa)
#
#
# Indices 1 2 3 4 5 6 
#
# 1 109.2587 1.1533 30.6313 0.0000 0.0000 0.0000
# 2 1.1533 60.2611 17.2776 0.0000 0.0000 0.0000
# 3 30.6313 17.2776 75.3769 0.0000 0.0000 0.0000
# 4 0.0000 0.0000 0.0000 30.9921 0.0000 0.0000
# 5 0.0000 0.0000 0.0000 0.0000 10.4341 0.0000
# 6 0.0000 0.0000 0.0000 0.0000 0.0000 7.5999
#
#
#
# Elastic Compliance Matrix: (Units=1/GPa)
#
#
# Indices 1 2 3 4 5 6 
#
# 1 0.010395 0.001083 -0.004473 0.000000 0.000000 0.000000
# 2 0.001083 0.017875 -0.004537 0.000000 0.000000 0.000000
# 3 -0.004473 -0.004537 0.016124 0.000000 0.000000 0.000000
# 4 0.000000 0.000000 0.000000 0.032266 0.000000 0.000000
# 5 0.000000 0.000000 0.000000 0.000000 0.095840 0.000000
# 6 0.000000 0.000000 0.000000 0.000000 0.000000 0.131581
#
#
# Mechanical properties :
#
#
# Convention : Reuss Voigt Hill
#
# Bulk Modulus (GPa) = 35.03767 38.11345 36.57556
# Shear Modulus (GPa) = 15.17689 22.86084 19.01887
#
# Velocity S-wave (km/s) = 2.66883 3.27549 2.98760
# Velocity P-wave (km/s) = 5.09318 5.67381 5.39132
#
# Compressibility (1/GPa) = 0.02854071
#
# Stress axis : x y z
#
# Youngs Moduli (GPa) = 96.19936 55.94515 62.01822
#
# Poissons Ratio (x) = -0.06061 0.27738
# Poissons Ratio (y) = -0.10422 0.28140
# Poissons Ratio (z) = 0.43026 0.25385
#
# Static dielectric constant tensor:
#      x y z
#    x 1.794590 0.000000 0.000000 
#    y 0.000000 1.894130 0.000000 
#    z 0.000000 0.000000 1.819600 
# 
# From -- ./inp_files/40885.got.cif
#   From: 2010.05.17/outbox.cif.g08.bks.cpg/sg68_21_cif.got.tgz:40885.got - 2010.06.03 18:57:09.
