data_PCOD9506607
_publ_section_title
;
Structure prediction by ZEFSAII (Michael W. Deem and Ramdas Pophale) SiO2 
 PCOD9506607
Probable space group: C C C A
;
_chemical_formula_sum "Si O2"
_cell_formula_units_Z 80
_cell_length_a 10.587008
_cell_length_b 24.158323
_cell_length_c 13.715713
_cell_angle_alpha 90.000000
_cell_angle_beta 90.000000
_cell_angle_gamma 90.000000
_cell_volume 3507.990542
_symmetry_space_group_name_H-M "C C C A"
_symmetry_group_IT_number 68
_space_group.IT_coordinate_system_code '2'
_symmetry_cell_setting 'orthorhombic'
loop_
_space_group_symop_operation_xyz
x,y,z
-x,1/2-y,z
x,1/2-y,1/2-z
-x,y,1/2-z
-x,-y,-z
x,1/2+y,-z
-x,1/2+y,1/2+z
x,-y,1/2+z
1/2+x,1/2+y,z
1/2-x,-y,z
1/2+x,-y,1/2-z
1/2-x,1/2+y,1/2-z
1/2-x,1/2-y,-z
1/2+x,y,-z
1/2-x,y,1/2+z
1/2+x,1/2-y,1/2+z
loop_
_atom_site_type_symbol
_atom_site_label
_atom_site_fract_x
_atom_site_fract_y
_atom_site_fract_z
Si Si1 0.371928 0.413998 0.591236
Si Si2 0.375152 0.734175 0.587782
Si Si3 0.901847 0.892826 0.045061
Si Si4 0.250000 0.000000 0.260501
Si Si5 0.000000 0.437749 0.750000
Si Si6 0.615107 0.211508 0.617703
O O1 0.242200 0.411917 0.528631
O O2 0.497299 0.420930 0.526858
O O3 0.333126 0.458461 0.671752
O O4 0.393211 0.353191 0.638380
O O5 0.500000 0.750000 0.643730
O O6 0.393533 0.673693 0.538630
O O7 0.369242 0.778527 0.499623
O O8 0.250374 0.732874 0.650104
O O9 0.945901 0.905578 0.155807
O O10 0.370194 0.031362 0.211892
O O11 0.500000 0.250000 0.647141
#
# Coordination Sequence:
#
# PCOD9506607 Si02
#       6
#    16  16  16   8   8  16
#     4  10  20  34  57  85 113 146 201 244 287 345
#     4   9  15  26  48  79 111 144 176 222 289 341
#     4  10  20  35  57  86 116 147 191 243 292 353
#     4  10  24  42  58  82 112 160 204 250 298 356
#     4  10  24  42  57  78 121 158 190 240 306 358
#     4   9  15  26  48  79 115 138 176 236 291 332
#
# _framework density 22.805078999999999
#
# number of rings (size 3 to 8) (size 9 to 14) (size 15 to 20)
#    0.000    2.400    4.000    0.000    0.000    5.600 
#    0.000    0.500    0.000    0.000    0.000    3.500 
#    0.000    0.000    0.000    0.000    0.000    0.000 
#
# Total GULP energy -222743.111064 kJ/mol
# GULP energy per Si atom -5568.577777 kJ/mol
# Density = 2.275317 g / cm^3
# Si number density = 22.805079 Si / 1000 Ang^3
#
#
#
# Elastic Constant Matrix: (Units=GPa)
#
#
# Indices 1 2 3 4 5 6 
#
# 1 153.0158 20.7142 -4.4101 0.0000 0.0000 0.0000
# 2 20.7142 82.2987 15.8638 0.0000 0.0000 0.0000
# 3 -4.4101 15.8638 47.4245 0.0000 0.0000 0.0000
# 4 0.0000 0.0000 0.0000 14.9665 0.0000 0.0000
# 5 0.0000 0.0000 0.0000 0.0000 -6.0531 0.0000
# 6 0.0000 0.0000 0.0000 0.0000 0.0000 41.7645
#
#
#
# Elastic Compliance Matrix: (Units=1/GPa)
#
#
# Indices 1 2 3 4 5 6 
#
# 1 0.006839 -0.001971 0.001295 0.000000 0.000000 0.000000
# 2 -0.001971 0.013556 -0.004718 0.000000 0.000000 0.000000
# 3 0.001295 -0.004718 0.022785 0.000000 0.000000 0.000000
# 4 0.000000 0.000000 0.000000 0.066816 0.000000 0.000000
# 5 0.000000 0.000000 0.000000 0.000000 -0.165205 0.000000
# 6 0.000000 0.000000 0.000000 0.000000 0.000000 0.023944
#
#
# Mechanical properties :
#
#
# Convention : Reuss Voigt Hill
#
# Bulk Modulus (GPa) = 30.87077 38.56387 34.71732
# Shear Modulus (GPa) = -516.56291 26.84033 -244.86129
#
# Velocity S-wave (km/s) = -15.06665 3.43439 -10.37326
# Velocity P-wave (km/s) = 17.00311 5.71608 11.32325
#
# Compressibility (1/GPa) = 0.03239310
#
# Stress axis : x y z
#
# Youngs Moduli (GPa) = 146.21061 73.76574 43.88892
#
# Poissons Ratio (x) = 0.14540 -0.05685
# Poissons Ratio (y) = 0.28820 0.20707
# Poissons Ratio (z) = -0.18940 0.34803
#
# Static dielectric constant tensor:
#      x y z
#    x 1.959720 0.000000 0.000000 
#    y 0.000000 1.869110 0.000000 
#    z 0.000000 0.000000 1.829880 
# 
# From -- ./inp_files/20903.got.cif
#   From: 2010.05.17/outbox.cif.g08.bks.cpg/sg68_11_cif.got.tgz:20903.got - 2010.06.03 18:57:09.
