data_PCOD9506160
_publ_section_title
;
Structure prediction by ZEFSAII (Michael W. Deem and Ramdas Pophale) SiO2 
 PCOD9506160
Probable space group: C C C A
;
_chemical_formula_sum "Si O2"
_cell_formula_units_Z 72
_cell_length_a 8.423540
_cell_length_b 15.578849
_cell_length_c 21.562338
_cell_angle_alpha 90.000000
_cell_angle_beta 90.000000
_cell_angle_gamma 90.000000
_cell_volume 2829.605298
_symmetry_space_group_name_H-M "C C C A"
_symmetry_group_IT_number 68
_space_group.IT_coordinate_system_code '2'
_symmetry_cell_setting 'orthorhombic'
loop_
_space_group_symop_operation_xyz
x,y,z
-x,1/2-y,z
x,1/2-y,1/2-z
-x,y,1/2-z
-x,-y,-z
x,1/2+y,-z
-x,1/2+y,1/2+z
x,-y,1/2+z
1/2+x,1/2+y,z
1/2-x,-y,z
1/2+x,-y,1/2-z
1/2-x,1/2+y,1/2-z
1/2-x,1/2-y,-z
1/2+x,y,-z
1/2-x,y,1/2+z
1/2+x,1/2-y,1/2+z
loop_
_atom_site_type_symbol
_atom_site_label
_atom_site_fract_x
_atom_site_fract_y
_atom_site_fract_z
Si Si1 0.689869 0.846971 0.988129
Si Si2 0.269153 0.711557 0.316524
Si Si3 0.028999 0.406292 0.406016
Si Si4 0.421606 0.957938 0.686076
Si Si5 0.500000 0.250000 0.106112
O O1 0.821352 0.903784 0.953478
O O2 0.551289 0.828809 0.938068
O O3 0.750000 0.750000 0.000000
O O4 0.616704 0.881051 0.051076
O O5 0.312546 0.750000 0.250000
O O6 0.411474 0.664706 0.354339
O O7 0.127129 0.641010 0.309167
O O8 0.162914 0.775573 0.357846
O O9 0.994744 0.495053 0.371023
O O10 0.500000 0.984731 0.750000
O O11 0.250000 0.000000 0.681933
#
# Coordination Sequence:
#
# PCOD9506160 Si02
#       5
#    16  16  16  16   8
#     4  11  20  42  66  96 139 180 237 296 342 416
#     4  10  21  41  71 100 134 179 235 290 355 425
#     4  10  23  42  67 102 141 179 237 292 352 429
#     4  10  22  46  65  98 145 178 230 293 358 432
#     4  10  19  34  66  96 125 172 230 276 338 410
#
# _framework density 25.445243999999999
#
# number of rings (size 3 to 8) (size 9 to 14) (size 15 to 20)
#    0.000    1.778    2.222    1.667    0.000    0.000 
#   28.000   17.778    0.000    0.000    0.000    0.000 
#    0.000    0.000    0.000    0.000    0.000    0.000 
#
# Total GULP energy -201191.957670 kJ/mol
# GULP energy per Si atom -5588.665491 kJ/mol
# Density = 2.538733 g / cm^3
# Si number density = 25.445244 Si / 1000 Ang^3
#
#
#
# Elastic Constant Matrix: (Units=GPa)
#
#
# Indices 1 2 3 4 5 6 
#
# 1 29.4801 28.2375 55.1828 0.0000 0.0000 0.0000
# 2 28.2375 93.6953 66.6211 0.0000 0.0000 0.0000
# 3 55.1828 66.6211 207.3414 0.0000 0.0000 0.0000
# 4 0.0000 0.0000 0.0000 -3.1196 0.0000 0.0000
# 5 0.0000 0.0000 0.0000 0.0000 59.2110 0.0000
# 6 0.0000 0.0000 0.0000 0.0000 0.0000 131.0105
#
#
#
# Elastic Compliance Matrix: (Units=1/GPa)
#
#
# Indices 1 2 3 4 5 6 
#
# 1 0.075378 -0.010956 -0.016541 0.000000 0.000000 0.000000
# 2 -0.010956 0.015426 -0.002041 0.000000 0.000000 0.000000
# 3 -0.016541 -0.002041 0.009881 0.000000 0.000000 0.000000
# 4 0.000000 0.000000 0.000000 -0.320551 0.000000 0.000000
# 5 0.000000 0.000000 0.000000 0.000000 0.016889 0.000000
# 6 0.000000 0.000000 0.000000 0.000000 0.000000 0.007633
#
#
# Mechanical properties :
#
#
# Convention : Reuss Voigt Hill
#
# Bulk Modulus (GPa) = 24.03294 70.06660 47.04977
# Shear Modulus (GPa) = -40.84998 49.45206 4.30104
#
# Velocity S-wave (km/s) = -4.01110 4.41326 1.30153
# Velocity P-wave (km/s) = 3.46214 7.31882 4.55954
#
# Compressibility (1/GPa) = 0.04160956
#
# Stress axis : x y z
#
# Youngs Moduli (GPa) = 13.26646 64.82706 101.20417
#
# Poissons Ratio (x) = 0.71022 1.67405
# Poissons Ratio (y) = 0.14534 0.20652
# Poissons Ratio (z) = 0.21944 0.13229
#
# Static dielectric constant tensor:
#      x y z
#    x 2.082940 0.000000 0.000000 
#    y 0.000000 2.221190 0.000000 
#    z 0.000000 0.000000 2.061590 
# 
# From -- ./inp_files/42939.got.cif
#   From: 2010.05.17/outbox.cif.g08.bks.cpg/sg68_22_cif.got.tgz:42939.got - 2010.06.03 18:57:09.
