data_PCOD9506633
_publ_section_title
;
Structure prediction by ZEFSAII (Michael W. Deem and Ramdas Pophale) SiO2 
 PCOD9506633
Probable space group: C C C A
;
_chemical_formula_sum "Si O2"
_cell_formula_units_Z 96
_cell_length_a 11.090525
_cell_length_b 24.180388
_cell_length_c 17.474606
_cell_angle_alpha 90.000000
_cell_angle_beta 90.000000
_cell_angle_gamma 90.000000
_cell_volume 4686.220968
_symmetry_space_group_name_H-M "C C C A"
_symmetry_group_IT_number 68
_space_group.IT_coordinate_system_code '2'
_symmetry_cell_setting 'orthorhombic'
loop_
_space_group_symop_operation_xyz
x,y,z
-x,1/2-y,z
x,1/2-y,1/2-z
-x,y,1/2-z
-x,-y,-z
x,1/2+y,-z
-x,1/2+y,1/2+z
x,-y,1/2+z
1/2+x,1/2+y,z
1/2-x,-y,z
1/2+x,-y,1/2-z
1/2-x,1/2+y,1/2-z
1/2-x,1/2-y,-z
1/2+x,y,-z
1/2-x,y,1/2+z
1/2+x,1/2-y,1/2+z
loop_
_atom_site_type_symbol
_atom_site_label
_atom_site_fract_x
_atom_site_fract_y
_atom_site_fract_z
Si Si1 0.506353 0.529083 0.417963
Si Si2 0.338473 0.887500 0.487785
Si Si3 0.555926 0.695549 0.612080
Si Si4 0.750000 0.500000 0.070406
Si Si5 0.801030 0.650010 0.342522
Si Si6 0.209089 0.750000 0.250000
Si Si7 0.635543 0.967630 0.714699
O O1 0.500000 0.500000 0.500000
O O2 0.546956 0.591006 0.437820
O O3 0.372659 0.517905 0.387046
O O4 0.603564 0.499393 0.364680
O O5 0.376474 0.846178 0.555427
O O6 0.280695 0.944107 0.521887
O O7 0.251519 0.859070 0.426830
O O8 0.500000 0.750000 0.570952
O O9 0.440684 0.665857 0.647818
O O10 0.634100 0.718633 0.682986
O O11 0.733351 0.698906 0.296591
O O12 0.808431 0.592611 0.298508
O O13 0.500000 0.963301 0.750000
O O14 0.750000 0.000000 0.748699
#
# Coordination Sequence:
#
# PCOD9506633 Si02
#       7
#    16  16  16   8  16   8  16
#     4  10  21  37  61  94 132 168 219 276 347 408
#     4  11  20  36  63  95 130 171 218 291 348 411
#     4  10  21  38  62  93 124 169 226 278 339 403
#     4  10  20  34  60  98 132 168 216 268 356 408
#     4  11  20  39  65  90 128 168 219 288 334 396
#     4  10  23  40  60  90 123 172 231 278 329 402
#     4  12  25  43  66  96 138 182 230 282 346 421
#
# _framework density 20.485589999999998
#
# number of rings (size 3 to 8) (size 9 to 14) (size 15 to 20)
#    0.000    1.333    1.667    8.250    2.333    2.667 
#    0.000    0.000    0.000    0.000    0.000    4.667 
#    0.000    0.000    0.000    0.000    0.000    0.000 
#
# Total GULP energy -267407.286283 kJ/mol
# GULP energy per Si atom -5570.985131 kJ/mol
# Density = 2.043896 g / cm^3
# Si number density = 20.485590 Si / 1000 Ang^3
#
#
#
# Elastic Constant Matrix: (Units=GPa)
#
#
# Indices 1 2 3 4 5 6 
#
# 1 61.8955 22.5768 20.4142 0.0000 0.0000 0.0000
# 2 22.5768 147.0609 51.6601 0.0000 0.0000 0.0000
# 3 20.4142 51.6601 86.3210 0.0000 0.0000 0.0000
# 4 0.0000 0.0000 0.0000 2.8164 0.0000 0.0000
# 5 0.0000 0.0000 0.0000 0.0000 -1.0764 0.0000
# 6 0.0000 0.0000 0.0000 0.0000 0.0000 26.7767
#
#
#
# Elastic Compliance Matrix: (Units=1/GPa)
#
#
# Indices 1 2 3 4 5 6 
#
# 1 0.017811 -0.001589 -0.003261 0.000000 0.000000 0.000000
# 2 -0.001589 0.008752 -0.004862 0.000000 0.000000 0.000000
# 3 -0.003261 -0.004862 0.015266 0.000000 0.000000 0.000000
# 4 0.000000 0.000000 0.000000 0.355066 0.000000 0.000000
# 5 0.000000 0.000000 0.000000 0.000000 -0.929064 0.000000
# 6 0.000000 0.000000 0.000000 0.000000 0.000000 0.037346
#
#
# Mechanical properties :
#
#
# Convention : Reuss Voigt Hill
#
# Bulk Modulus (GPa) = 44.63352 53.84216 49.23784
# Shear Modulus (GPa) = -10.68534 19.07843 4.19654
#
# Velocity S-wave (km/s) = -2.28634 3.05505 1.43282
# Velocity P-wave (km/s) = 3.85555 6.22771 5.17927
#
# Compressibility (1/GPa) = 0.02240469
#
# Stress axis : x y z
#
# Youngs Moduli (GPa) = 56.14369 114.26344 65.50655
#
# Poissons Ratio (x) = 0.18153 0.21365
# Poissons Ratio (y) = 0.08920 0.31848
# Poissons Ratio (z) = 0.18311 0.55553
#
# Static dielectric constant tensor:
#      x y z
#    x 1.814290 0.000000 0.000000 
#    y 0.000000 1.776830 0.000000 
#    z 0.000000 0.000000 1.766170 
# 
# From -- ./inp_files/29847.got.cif
#   From: 2010.05.17/outbox.cif.g08.bks.cpg/sg68_15_cif.got.tgz:29847.got - 2010.06.03 18:57:09.
