data_PCOD9506855
_publ_section_title
;
Structure prediction by ZEFSAII (Michael W. Deem and Ramdas Pophale) SiO2 
 PCOD9506855
Probable space group: C C C A
;
_chemical_formula_sum "Si O2"
_cell_formula_units_Z 64
_cell_length_a 15.159539
_cell_length_b 19.244730
_cell_length_c 8.401068
_cell_angle_alpha 90.000000
_cell_angle_beta 90.000000
_cell_angle_gamma 90.000000
_cell_volume 2450.937953
_symmetry_space_group_name_H-M "C C C A"
_symmetry_group_IT_number 68
_space_group.IT_coordinate_system_code '2'
_symmetry_cell_setting 'orthorhombic'
loop_
_space_group_symop_operation_xyz
x,y,z
-x,1/2-y,z
x,1/2-y,1/2-z
-x,y,1/2-z
-x,-y,-z
x,1/2+y,-z
-x,1/2+y,1/2+z
x,-y,1/2+z
1/2+x,1/2+y,z
1/2-x,-y,z
1/2+x,-y,1/2-z
1/2-x,1/2+y,1/2-z
1/2-x,1/2-y,-z
1/2+x,y,-z
1/2-x,y,1/2+z
1/2+x,1/2-y,1/2+z
loop_
_atom_site_type_symbol
_atom_site_label
_atom_site_fract_x
_atom_site_fract_y
_atom_site_fract_z
Si Si1 0.323721 0.645554 0.832000
Si Si2 0.904379 0.273290 0.965537
Si Si3 0.881583 0.106988 0.332612
Si Si4 0.355366 0.981423 0.467827
O O1 0.345060 0.703701 0.966879
O O2 0.359568 0.678235 0.669375
O O3 0.221067 0.628980 0.822205
O O4 0.362474 0.571892 0.884382
O O5 0.000000 0.250000 0.912660
O O6 0.921885 0.319570 0.120909
O O7 0.897316 0.061857 0.175777
O O8 0.896830 0.053368 0.477443
O O9 0.250000 0.000000 0.437987
#
# Coordination Sequence:
#
# PCOD9506855 Si02
#       4
#    16  16  16  16
#     4  10  20  38  64  95 128 175 226 277 337 402
#     4  11  24  42  63  95 139 181 221 275 337 403
#     4  11  21  38  66  98 131 171 224 279 334 401
#     4  10  20  36  64 100 130 163 222 287 336 390
#
# _framework density 26.112451
#
# number of rings (size 3 to 8) (size 9 to 14) (size 15 to 20)
#    0.000    1.500    0.000    9.000    0.000    3.000 
#    0.000    5.000    0.000    9.000    0.000    0.000 
#    0.000    0.000    0.000    0.000    0.000    0.000 
#
# Total GULP energy -179097.099151 kJ/mol
# GULP energy per Si atom -5596.784348 kJ/mol
# Density = 2.605302 g / cm^3
# Si number density = 26.112451 Si / 1000 Ang^3
#
#
#
# Elastic Constant Matrix: (Units=GPa)
#
#
# Indices 1 2 3 4 5 6 
#
# 1 64.8859 33.4724 35.8373 0.0000 0.0000 0.0000
# 2 33.4724 174.1298 42.8977 0.0000 0.0000 0.0000
# 3 35.8373 42.8977 78.8836 0.0000 0.0000 0.0000
# 4 0.0000 0.0000 0.0000 65.0249 0.0000 0.0000
# 5 0.0000 0.0000 0.0000 0.0000 21.6066 0.0000
# 6 0.0000 0.0000 0.0000 0.0000 0.0000 -22.8575
#
#
#
# Elastic Compliance Matrix: (Units=1/GPa)
#
#
# Indices 1 2 3 4 5 6 
#
# 1 0.021138 -0.001960 -0.008537 0.000000 0.000000 0.000000
# 2 -0.001960 0.006813 -0.002814 0.000000 0.000000 0.000000
# 3 -0.008537 -0.002814 0.018086 0.000000 0.000000 0.000000
# 4 0.000000 0.000000 0.000000 0.015379 0.000000 0.000000
# 5 0.000000 0.000000 0.000000 0.000000 0.046282 0.000000
# 6 0.000000 0.000000 0.000000 0.000000 0.000000 -0.043749
#
#
# Mechanical properties :
#
#
# Convention : Reuss Voigt Hill
#
# Bulk Modulus (GPa) = 51.51089 60.25712 55.88400
# Shear Modulus (GPa) = 51.52331 26.46758 38.99544
#
# Velocity S-wave (km/s) = 4.44681 3.18716 3.86860
# Velocity P-wave (km/s) = 6.79227 6.05559 6.43448
#
# Compressibility (1/GPa) = 0.01941337
#
# Stress axis : x y z
#
# Youngs Moduli (GPa) = 47.30803 146.77851 55.29144
#
# Poissons Ratio (x) = 0.28770 0.47204
# Poissons Ratio (y) = 0.09273 0.15562
# Poissons Ratio (z) = 0.40388 0.41310
#
# Static dielectric constant tensor:
#      x y z
#    x 2.004550 0.000000 0.000000 
#    y 0.000000 1.984370 0.000000 
#    z 0.000000 0.000000 2.147570 
# 
# From -- ./inp_files/5816.got.cif
#   From: 2010.05.17/outbox.cif.g08.bks.cpg/sg68_3_cif.got.tgz:5816.got - 2010.06.03 18:57:09.
