data_PCOD9506747
_publ_section_title
;
Structure prediction by ZEFSAII (Michael W. Deem and Ramdas Pophale) SiO2 
 PCOD9506747
Probable space group: C C C A
;
_chemical_formula_sum "Si O2"
_cell_formula_units_Z 96
_cell_length_a 28.844659
_cell_length_b 8.530284
_cell_length_c 21.269650
_cell_angle_alpha 90.000000
_cell_angle_beta 90.000000
_cell_angle_gamma 90.000000
_cell_volume 5233.464024
_symmetry_space_group_name_H-M "C C C A"
_symmetry_group_IT_number 68
_space_group.IT_coordinate_system_code '2'
_symmetry_cell_setting 'orthorhombic'
loop_
_space_group_symop_operation_xyz
x,y,z
-x,1/2-y,z
x,1/2-y,1/2-z
-x,y,1/2-z
-x,-y,-z
x,1/2+y,-z
-x,1/2+y,1/2+z
x,-y,1/2+z
1/2+x,1/2+y,z
1/2-x,-y,z
1/2+x,-y,1/2-z
1/2-x,1/2+y,1/2-z
1/2-x,1/2-y,-z
1/2+x,y,-z
1/2-x,y,1/2+z
1/2+x,1/2-y,1/2+z
loop_
_atom_site_type_symbol
_atom_site_label
_atom_site_fract_x
_atom_site_fract_y
_atom_site_fract_z
Si Si1 0.196581 0.483756 0.590637
Si Si2 0.608381 0.928695 0.921824
Si Si3 0.972306 0.085852 0.691113
Si Si4 0.632021 0.313292 0.313712
Si Si5 0.343598 0.278691 0.982807
Si Si6 0.992641 0.434524 0.069560
O O1 0.250000 0.500000 0.608390
O O2 0.163690 0.434471 0.648158
O O3 0.179442 0.644511 0.558753
O O4 0.189354 0.349016 0.537323
O O5 0.622756 0.831983 0.860670
O O6 0.640602 0.074109 0.941442
O O7 0.558175 0.002730 0.912675
O O8 0.613558 0.803856 0.979549
O O9 0.918298 0.115563 0.704232
O O10 0.000000 0.250000 0.682694
O O11 0.000000 0.008721 0.750000
O O12 0.974717 0.999845 0.624536
O O13 0.654399 0.250000 0.250000
O O14 0.000000 0.250000 0.067830
O O15 0.000000 0.500000 0.000000
#
# Coordination Sequence:
#
# PCOD9506747 Si02
#       6
#    16  16  16  16  16  16
#     4  10  21  38  64  90 117 152 198 250 309 360
#     4  10  20  36  54  85 117 155 191 239 297 357
#     4  11  21  41  62  82 116 166 209 237 295 371
#     4  11  22  40  62  83 117 162 204 244 291 360
#     4   9  20  36  61  85 120 149 191 242 309 368
#     4  12  25  33  55  87 126 153 197 252 302 349
#
# _framework density 18.343492000000001
#
# number of rings (size 3 to 8) (size 9 to 14) (size 15 to 20)
#    0.000    1.500    3.333    2.000    9.333    0.333 
#    0.000    2.500    0.000    0.000    0.000    0.000 
#    0.000    0.000    0.000    0.000    0.000    0.000 
#
# Total GULP energy -267873.551012 kJ/mol
# GULP energy per Si atom -5580.698979 kJ/mol
# Density = 1.830174 g / cm^3
# Si number density = 18.343492 Si / 1000 Ang^3
#
#
#
# Elastic Constant Matrix: (Units=GPa)
#
#
# Indices 1 2 3 4 5 6 
#
# 1 85.4584 15.8956 19.2901 0.0000 0.0000 0.0000
# 2 15.8956 76.3830 31.7461 0.0000 0.0000 0.0000
# 3 19.2901 31.7461 110.0672 0.0000 0.0000 0.0000
# 4 0.0000 0.0000 0.0000 21.2380 0.0000 0.0000
# 5 0.0000 0.0000 0.0000 0.0000 18.4066 0.0000
# 6 0.0000 0.0000 0.0000 0.0000 0.0000 18.0179
#
#
#
# Elastic Compliance Matrix: (Units=1/GPa)
#
#
# Indices 1 2 3 4 5 6 
#
# 1 0.012424 -0.001909 -0.001627 0.000000 0.000000 0.000000
# 2 -0.001909 0.015169 -0.004040 0.000000 0.000000 0.000000
# 3 -0.001627 -0.004040 0.010536 0.000000 0.000000 0.000000
# 4 0.000000 0.000000 0.000000 0.047085 0.000000 0.000000
# 5 0.000000 0.000000 0.000000 0.000000 0.054328 0.000000
# 6 0.000000 0.000000 0.000000 0.000000 0.000000 0.055500
#
#
# Mechanical properties :
#
#
# Convention : Reuss Voigt Hill
#
# Bulk Modulus (GPa) = 43.52481 45.08582 44.30532
# Shear Modulus (GPa) = 22.95118 25.19761 24.07439
#
# Velocity S-wave (km/s) = 3.54105 3.71030 3.62667
# Velocity P-wave (km/s) = 6.36380 6.55646 6.46085
#
# Compressibility (1/GPa) = 0.02297540
#
# Stress axis : x y z
#
# Youngs Moduli (GPa) = 80.48980 65.92601 94.91467
#
# Poissons Ratio (x) = 0.12588 0.15440
# Poissons Ratio (y) = 0.15369 0.38349
# Poissons Ratio (z) = 0.13093 0.26636
#
# Static dielectric constant tensor:
#      x y z
#    x 1.635970 0.000000 0.000000 
#    y 0.000000 1.633510 0.000000 
#    z 0.000000 0.000000 1.753470 
# 
# From -- ./inp_files/36466.got.cif
#   From: 2010.05.17/outbox.cif.g08.bks.cpg/sg68_19_cif.got.tgz:36466.got - 2010.06.03 18:57:09.
