data_PCOD9506645
_publ_section_title
;
Structure prediction by ZEFSAII (Michael W. Deem and Ramdas Pophale) SiO2 
 PCOD9506645
Probable space group: C C C A
;
_chemical_formula_sum "Si O2"
_cell_formula_units_Z 80
_cell_length_a 9.236278
_cell_length_b 18.429685
_cell_length_c 24.241814
_cell_angle_alpha 90.000000
_cell_angle_beta 90.000000
_cell_angle_gamma 90.000000
_cell_volume 4126.482647
_symmetry_space_group_name_H-M "C C C A"
_symmetry_group_IT_number 68
_space_group.IT_coordinate_system_code '2'
_symmetry_cell_setting 'orthorhombic'
loop_
_space_group_symop_operation_xyz
x,y,z
-x,1/2-y,z
x,1/2-y,1/2-z
-x,y,1/2-z
-x,-y,-z
x,1/2+y,-z
-x,1/2+y,1/2+z
x,-y,1/2+z
1/2+x,1/2+y,z
1/2-x,-y,z
1/2+x,-y,1/2-z
1/2-x,1/2+y,1/2-z
1/2-x,1/2-y,-z
1/2+x,y,-z
1/2-x,y,1/2+z
1/2+x,1/2-y,1/2+z
loop_
_atom_site_type_symbol
_atom_site_label
_atom_site_fract_x
_atom_site_fract_y
_atom_site_fract_z
Si Si1 0.197612 0.583238 0.106159
Si Si2 0.873678 0.446824 0.018088
Si Si3 0.106987 0.399161 0.302924
Si Si4 0.013615 0.330257 0.099437
Si Si5 0.941214 0.564311 0.187969
O O1 0.250000 0.500000 0.118462
O O2 0.175297 0.586583 0.040202
O O3 0.327559 0.639641 0.114939
O O4 0.054508 0.596774 0.143346
O O5 0.750000 0.500000 0.042022
O O6 0.935546 0.387236 0.058966
O O7 0.000000 0.500000 0.000000
O O8 0.070698 0.334045 0.343298
O O9 0.069054 0.478947 0.327537
O O10 0.281197 0.403194 0.302704
O O11 0.000000 0.393343 0.250000
O O12 0.000000 0.250000 0.075712
O O13 0.000000 0.566622 0.250000
#
# Coordination Sequence:
#
# PCOD9506645 Si02
#       5
#    16  16  16  16  16
#     4  11  21  40  63  92 131 169 218 269 319 392
#     4  11  22  41  69  93 122 173 220 265 320 390
#     4  10  21  37  62  94 128 169 214 267 327 388
#     4  12  26  41  63  96 132 168 214 271 334 391
#     4  10  20  34  66  97 122 163 224 274 307 379
#
# _framework density 19.386970999999999
#
# number of rings (size 3 to 8) (size 9 to 14) (size 15 to 20)
#    0.000    1.200    6.000    1.200    8.400    1.200 
#    0.000    1.000    0.000    1.200    0.000    0.000 
#    0.000    0.000    0.000    0.000    0.000    0.000 
#
# Total GULP energy -222872.234590 kJ/mol
# GULP energy per Si atom -5571.805865 kJ/mol
# Density = 1.934285 g / cm^3
# Si number density = 19.386971 Si / 1000 Ang^3
#
#
#
# Elastic Constant Matrix: (Units=GPa)
#
#
# Indices 1 2 3 4 5 6 
#
# 1 145.1002 49.2249 39.2764 0.0000 0.0000 0.0000
# 2 49.2249 92.1499 31.5577 0.0000 0.0000 0.0000
# 3 39.2764 31.5577 71.5564 0.0000 0.0000 0.0000
# 4 0.0000 0.0000 0.0000 3.3375 0.0000 0.0000
# 5 0.0000 0.0000 0.0000 0.0000 36.5376 0.0000
# 6 0.0000 0.0000 0.0000 0.0000 0.0000 16.2670
#
#
#
# Elastic Compliance Matrix: (Units=1/GPa)
#
#
# Indices 1 2 3 4 5 6 
#
# 1 0.009047 -0.003689 -0.003339 0.000000 0.000000 0.000000
# 2 -0.003689 0.014287 -0.004276 0.000000 0.000000 0.000000
# 3 -0.003339 -0.004276 0.017693 0.000000 0.000000 0.000000
# 4 0.000000 0.000000 0.000000 0.299628 0.000000 0.000000
# 5 0.000000 0.000000 0.000000 0.000000 0.027369 0.000000
# 6 0.000000 0.000000 0.000000 0.000000 0.000000 0.061474
#
#
# Mechanical properties :
#
#
# Convention : Reuss Voigt Hill
#
# Bulk Modulus (GPa) = 54.29017 60.99161 57.64089
# Shear Modulus (GPa) = 10.91117 23.81159 17.36138
#
# Velocity S-wave (km/s) = 2.37493 3.50841 2.99577
# Velocity P-wave (km/s) = 5.96529 6.92389 6.46239
#
# Compressibility (1/GPa) = 0.01841954
#
# Stress axis : x y z
#
# Youngs Moduli (GPa) = 110.53172 69.99370 56.51862
#
# Poissons Ratio (x) = 0.25824 0.18870
# Poissons Ratio (y) = 0.40780 0.24166
# Poissons Ratio (z) = 0.36904 0.29928
#
# Static dielectric constant tensor:
#      x y z
#    x 1.608970 0.000000 0.000000 
#    y 0.000000 1.678580 0.000000 
#    z 0.000000 0.000000 1.613900 
# 
# From -- ./inp_files/49122.got.cif
#   From: 2010.05.17/outbox.cif.g08.bks.cpg/sg68_25_cif.got.tgz:49122.got - 2010.06.03 18:57:09.
