data_PCOD9506441
_publ_section_title
;
Structure prediction by ZEFSAII (Michael W. Deem and Ramdas Pophale) SiO2 
 PCOD9506441
Probable space group: C C C A
;
_chemical_formula_sum "Si O2"
_cell_formula_units_Z 112
_cell_length_a 14.114508
_cell_length_b 27.360559
_cell_length_c 13.448457
_cell_angle_alpha 90.000000
_cell_angle_beta 90.000000
_cell_angle_gamma 90.000000
_cell_volume 5193.536272
_symmetry_space_group_name_H-M "C C C A"
_symmetry_group_IT_number 68
_space_group.IT_coordinate_system_code '2'
_symmetry_cell_setting 'orthorhombic'
loop_
_space_group_symop_operation_xyz
x,y,z
-x,1/2-y,z
x,1/2-y,1/2-z
-x,y,1/2-z
-x,-y,-z
x,1/2+y,-z
-x,1/2+y,1/2+z
x,-y,1/2+z
1/2+x,1/2+y,z
1/2-x,-y,z
1/2+x,-y,1/2-z
1/2-x,1/2+y,1/2-z
1/2-x,1/2-y,-z
1/2+x,y,-z
1/2-x,y,1/2+z
1/2+x,1/2-y,1/2+z
loop_
_atom_site_type_symbol
_atom_site_label
_atom_site_fract_x
_atom_site_fract_y
_atom_site_fract_z
Si Si1 0.237983 0.094836 0.951665
Si Si2 0.500000 0.524261 0.250000
Si Si3 0.827443 0.460159 0.758725
Si Si4 0.289882 0.297033 0.558995
Si Si5 0.576258 0.792988 0.889750
Si Si6 0.921970 0.101020 0.916452
Si Si7 0.736125 0.750000 0.750000
Si Si8 0.936872 0.453344 0.038200
O O1 0.219903 0.075221 0.840270
O O2 0.225250 0.154367 0.956056
O O3 0.344532 0.094084 0.994810
O O4 0.173975 0.057114 0.016597
O O5 0.416838 0.491299 0.201770
O O6 0.544414 0.551854 0.155817
O O7 0.750000 0.500000 0.728164
O O8 0.875426 0.432434 0.667677
O O9 0.250000 0.250000 0.500000
O O10 0.390554 0.301177 0.504051
O O11 0.294006 0.284216 0.675091
O O12 0.500000 0.750000 0.880021
O O13 0.553831 0.848121 0.862428
O O14 0.665757 0.779720 0.821480
O O15 0.018838 0.087848 0.968904
O O16 0.000000 0.500000 0.000000
#
# Coordination Sequence:
#
# PCOD9506441 Si02
#       8
#    16   8  16  16  16  16   8  16
#     4  11  24  41  64  94 133 178 222 277 342 406
#     4  12  24  42  58 100 128 174 228 276 324 406
#     4  12  23  38  66  93 133 177 227 274 334 405
#     4   9  21  40  65  95 131 170 217 282 353 408
#     4  10  22  41  65  99 131 169 225 283 348 410
#     4  11  25  41  64  96 131 175 222 274 341 409
#     4  10  19  40  69  96 128 164 220 282 339 412
#     4  12  24  42  65  91 134 175 222 276 335 393
#
# _framework density 21.565268
#
# number of rings (size 3 to 8) (size 9 to 14) (size 15 to 20)
#    0.000    1.143    2.857    2.786    4.000    0.000 
#    5.143    3.214    0.000    0.000    0.000    0.000 
#    0.000    0.000    0.000    0.000    0.000    0.000 
#
# Total GULP energy -311767.488501 kJ/mol
# GULP energy per Si atom -5567.276580 kJ/mol
# Density = 2.151618 g / cm^3
# Si number density = 21.565268 Si / 1000 Ang^3
#
#
#
# Elastic Constant Matrix: (Units=GPa)
#
#
# Indices 1 2 3 4 5 6 
#
# 1 53.9899 14.6904 4.5256 0.0000 0.0000 0.0000
# 2 14.6904 94.9303 19.7741 0.0000 0.0000 0.0000
# 3 4.5256 19.7741 124.4144 0.0000 0.0000 0.0000
# 4 0.0000 0.0000 0.0000 20.5786 0.0000 0.0000
# 5 0.0000 0.0000 0.0000 0.0000 21.7581 0.0000
# 6 0.0000 0.0000 0.0000 0.0000 0.0000 21.4429
#
#
#
# Elastic Compliance Matrix: (Units=1/GPa)
#
#
# Indices 1 2 3 4 5 6 
#
# 1 0.019343 -0.002944 -0.000236 0.000000 0.000000 0.000000
# 2 -0.002944 0.011343 -0.001696 0.000000 0.000000 0.000000
# 3 -0.000236 -0.001696 0.008316 0.000000 0.000000 0.000000
# 4 0.000000 0.000000 0.000000 0.048594 0.000000 0.000000
# 5 0.000000 0.000000 0.000000 0.000000 0.045960 0.000000
# 6 0.000000 0.000000 0.000000 0.000000 0.000000 0.046636
#
#
# Mechanical properties :
#
#
# Convention : Reuss Voigt Hill
#
# Bulk Modulus (GPa) = 34.18769 39.03500 36.61134
# Shear Modulus (GPa) = 25.03854 28.37889 26.70871
#
# Velocity S-wave (km/s) = 3.41113 3.63154 3.52306
# Velocity P-wave (km/s) = 5.60374 5.97698 5.79337
#
# Compressibility (1/GPa) = 0.02925030
#
# Stress axis : x y z
#
# Youngs Moduli (GPa) = 51.69874 88.16107 120.25390
#
# Poissons Ratio (x) = 0.25956 0.02834
# Poissons Ratio (y) = 0.15221 0.20392
# Poissons Ratio (z) = 0.01218 0.14950
#
# Static dielectric constant tensor:
#      x y z
#    x 1.825310 0.000000 0.000000 
#    y 0.000000 0.761050 0.000000 
#    z 0.000000 0.000000 1.920780 
# 
# From -- ./inp_files/22786.got.cif
#   From: 2010.05.17/outbox.cif.g08.bks.cpg/sg68_12_cif.got.tgz:22786.got - 2010.06.03 18:57:09.
