data_PCOD9506176
_publ_section_title
;
Structure prediction by ZEFSAII (Michael W. Deem and Ramdas Pophale) SiO2 
 PCOD9506176
Probable space group: C C C A
;
_chemical_formula_sum "Si O2"
_cell_formula_units_Z 52
_cell_length_a 17.132910
_cell_length_b 7.341381
_cell_length_c 21.637645
_cell_angle_alpha 90.000000
_cell_angle_beta 90.000000
_cell_angle_gamma 90.000000
_cell_volume 2721.566110
_symmetry_space_group_name_H-M "C C C A"
_symmetry_group_IT_number 68
_space_group.IT_coordinate_system_code '2'
_symmetry_cell_setting 'orthorhombic'
loop_
_space_group_symop_operation_xyz
x,y,z
-x,1/2-y,z
x,1/2-y,1/2-z
-x,y,1/2-z
-x,-y,-z
x,1/2+y,-z
-x,1/2+y,1/2+z
x,-y,1/2+z
1/2+x,1/2+y,z
1/2-x,-y,z
1/2+x,-y,1/2-z
1/2-x,1/2+y,1/2-z
1/2-x,1/2-y,-z
1/2+x,y,-z
1/2-x,y,1/2+z
1/2+x,1/2-y,1/2+z
loop_
_atom_site_type_symbol
_atom_site_label
_atom_site_fract_x
_atom_site_fract_y
_atom_site_fract_z
Si Si1 0.032991 0.060539 0.656257
Si Si2 0.928123 0.125747 0.051888
Si Si3 0.158215 0.525048 0.932450
Si Si4 0.000000 0.750000 0.750000
O O1 0.000000 0.250000 0.681358
O O2 0.970493 0.993051 0.604177
O O3 0.113968 0.089879 0.619955
O O4 0.042384 0.894710 0.704591
O O5 0.866862 0.267386 0.080571
O O6 0.000000 0.250000 0.025990
O O7 0.882006 0.025325 0.997792
O O8 0.250000 0.500000 0.934842
#
# Coordination Sequence:
#
# PCOD9506176 Si02
#       4
#    16  16  16   4
#     4  11  22  40  65  88 116 159 208 249 293 355
#     4  10  19  35  56  90 124 156 198 243 290 367
#     4  11  20  34  59  93 130 155 188 248 314 360
#     4  12  22  44  68  82 112 156 228 242 284 354
#
# _framework density 19.106646999999999
#
# number of rings (size 3 to 8) (size 9 to 14) (size 15 to 20)
#    0.000    1.231    4.615    7.846    0.000    0.000 
#    0.000    0.000    6.769    0.000    0.000    0.000 
#    0.000    0.000    0.000    0.000    0.000    0.000 
#
# Total GULP energy -144934.269159 kJ/mol
# GULP energy per Si atom -5574.394968 kJ/mol
# Density = 1.906316 g / cm^3
# Si number density = 19.106647 Si / 1000 Ang^3
#
#
#
# Elastic Constant Matrix: (Units=GPa)
#
#
# Indices 1 2 3 4 5 6 
#
# 1 155.9394 44.3620 47.7468 0.0000 0.0000 0.0000
# 2 44.3620 91.3592 28.7698 0.0000 0.0000 0.0000
# 3 47.7468 28.7698 97.6853 0.0000 0.0000 0.0000
# 4 0.0000 0.0000 0.0000 -0.0690 0.0000 0.0000
# 5 0.0000 0.0000 0.0000 0.0000 -0.4198 0.0000
# 6 0.0000 0.0000 0.0000 0.0000 0.0000 15.7271
#
#
#
# Elastic Compliance Matrix: (Units=1/GPa)
#
#
# Indices 1 2 3 4 5 6 
#
# 1 0.008229 -0.003008 -0.003136 0.000000 0.000000 0.000000
# 2 -0.003008 0.013164 -0.002407 0.000000 0.000000 0.000000
# 3 -0.003136 -0.002407 0.012479 0.000000 0.000000 0.000000
# 4 0.000000 0.000000 0.000000-14.498963 0.000000 0.000000
# 5 0.000000 0.000000 0.000000 0.000000 -2.382060 0.000000
# 6 0.000000 0.000000 0.000000 0.000000 0.000000 0.063584
#
#
# Mechanical properties :
#
#
# Convention : Reuss Voigt Hill
#
# Bulk Modulus (GPa) = 59.63121 65.19344 62.41232
# Shear Modulus (GPa) = -0.29831 17.98802 8.84485
#
# Velocity S-wave (km/s) = -0.39556 3.07164 2.15389
# Velocity P-wave (km/s) = 5.57394 6.83921 6.23874
#
# Compressibility (1/GPa) = 0.01676974
#
# Stress axis : x y z
#
# Youngs Moduli (GPa) = 121.52524 75.96242 80.13668
#
# Poissons Ratio (x) = 0.22850 0.25132
# Poissons Ratio (y) = 0.36556 0.19287
# Poissons Ratio (z) = 0.38112 0.18283
#
# Static dielectric constant tensor:
#      x y z
#    x 1.633850 0.000000 0.000000 
#    y 0.000000 1.765370 0.000000 
#    z 0.000000 0.000000 1.711700 
# 
# From -- ./inp_files/35474.got.cif
#   From: 2010.05.17/outbox.cif.g08.bks.cpg/sg68_18_cif.got.tgz:35474.got - 2010.06.03 18:57:09.
