data_PCOD9506679
_publ_section_title
;
Structure prediction by ZEFSAII (Michael W. Deem and Ramdas Pophale) SiO2 
 PCOD9506679
Probable space group: C C C A
;
_chemical_formula_sum "Si O2"
_cell_formula_units_Z 116
_cell_length_a 23.743310
_cell_length_b 8.838147
_cell_length_c 30.173609
_cell_angle_alpha 90.000000
_cell_angle_beta 90.000000
_cell_angle_gamma 90.000000
_cell_volume 6331.837226
_symmetry_space_group_name_H-M "C C C A"
_symmetry_group_IT_number 68
_space_group.IT_coordinate_system_code '2'
_symmetry_cell_setting 'orthorhombic'
loop_
_space_group_symop_operation_xyz
x,y,z
-x,1/2-y,z
x,1/2-y,1/2-z
-x,y,1/2-z
-x,-y,-z
x,1/2+y,-z
-x,1/2+y,1/2+z
x,-y,1/2+z
1/2+x,1/2+y,z
1/2-x,-y,z
1/2+x,-y,1/2-z
1/2-x,1/2+y,1/2-z
1/2-x,1/2-y,-z
1/2+x,y,-z
1/2-x,y,1/2+z
1/2+x,1/2-y,1/2+z
loop_
_atom_site_type_symbol
_atom_site_label
_atom_site_fract_x
_atom_site_fract_y
_atom_site_fract_z
Si Si1 0.152396 0.905280 0.944321
Si Si2 0.377087 0.424081 0.655409
Si Si3 0.001839 0.571982 0.135795
Si Si4 0.000000 0.750000 0.750000
Si Si5 0.591364 0.094713 0.812173
Si Si6 0.479045 0.920698 0.456295
Si Si7 0.187677 0.932501 0.754144
Si Si8 0.209779 0.620753 0.980915
O O1 0.154057 0.947429 0.891944
O O2 0.087759 0.917389 0.957005
O O3 0.169291 0.728525 0.952140
O O4 0.183367 0.023145 0.978131
O O5 0.439223 0.502290 0.654977
O O6 0.388281 0.244720 0.662026
O O7 0.340253 0.471251 0.698138
O O8 0.001980 0.518370 0.085355
O O9 0.000000 0.750000 0.140391
O O10 0.943949 0.512391 0.156444
O O11 0.042896 0.650644 0.778385
O O12 0.643026 0.024768 0.784461
O O13 0.500000 0.750000 0.451553
O O14 0.500000 0.000000 0.500000
O O15 0.191089 0.750000 0.750000
O O16 0.250000 0.000000 0.749542
O O17 0.250000 0.500000 0.956016
O O18 0.250000 0.750000 0.000000
#
# Coordination Sequence:
#
# PCOD9506679 Si02
#       8
#    16  16  16   4  16  16  16  16
#     4  10  20  35  57  83 112 149 196 244 293 354
#     4  10  20  38  59  84 112 156 200 244 305 372
#     4  11  22  35  57  93 123 152 200 259 306 357
#     4  12  16  36  74  84 108 156 214 246 300 360
#     4  11  19  38  64  86 114 157 204 245 302 376
#     4  11  22  37  58  86 125 164 196 239 308 374
#     4  10  22  39  60  84 117 157 197 246 311 377
#     4   9  19  36  56  78 106 144 194 243 287 334
#
# _framework density 18.320115999999999
#
# number of rings (size 3 to 8) (size 9 to 14) (size 15 to 20)
#    0.000    1.655    3.448    2.897    0.000    3.862 
#    0.000    7.931    0.000    3.310    0.000    0.000 
#    0.000    0.000    0.000    0.000    0.000    0.000 
#
# Total GULP energy -323195.243510 kJ/mol
# GULP energy per Si atom -5572.331785 kJ/mol
# Density = 1.827842 g / cm^3
# Si number density = 18.320116 Si / 1000 Ang^3
#
#
#
# Elastic Constant Matrix: (Units=GPa)
#
#
# Indices 1 2 3 4 5 6 
#
# 1 125.1624 44.5674 81.4079 0.0000 0.0000 0.0000
# 2 44.5674 77.4897 27.3214 0.0000 0.0000 0.0000
# 3 81.4079 27.3214 77.4260 0.0000 0.0000 0.0000
# 4 0.0000 0.0000 0.0000 19.0294 0.0000 0.0000
# 5 0.0000 0.0000 0.0000 0.0000 39.3621 0.0000
# 6 0.0000 0.0000 0.0000 0.0000 0.0000 39.0878
#
#
#
# Elastic Compliance Matrix: (Units=1/GPa)
#
#
# Indices 1 2 3 4 5 6 
#
# 1 0.027879 -0.006509 -0.027016 0.000000 0.000000 0.000000
# 2 -0.006509 0.016258 0.001107 0.000000 0.000000 0.000000
# 3 -0.027016 0.001107 0.040930 0.000000 0.000000 0.000000
# 4 0.000000 0.000000 0.000000 0.052550 0.000000 0.000000
# 5 0.000000 0.000000 0.000000 0.000000 0.025405 0.000000
# 6 0.000000 0.000000 0.000000 0.000000 0.000000 0.025583
#
#
# Mechanical properties :
#
#
# Convention : Reuss Voigt Hill
#
# Bulk Modulus (GPa) = 49.42876 65.18573 57.30724
# Shear Modulus (GPa) = 19.21698 27.94794 23.58246
#
# Velocity S-wave (km/s) = 3.24227 3.91004 3.59171
# Velocity P-wave (km/s) = 6.40746 7.48621 6.96775
#
# Compressibility (1/GPa) = 0.02023114
#
# Stress axis : x y z
#
# Youngs Moduli (GPa) = 35.86939 61.50683 24.43180
#
# Poissons Ratio (x) = 0.40035 0.66005
# Poissons Ratio (y) = 0.23347 -0.02704
# Poissons Ratio (z) = 0.96904 -0.06807
#
# Static dielectric constant tensor:
#      x y z
#    x 1.642090 0.000000 0.000000 
#    y 0.000000 1.635360 0.000000 
#    z 0.000000 0.000000 1.887590 
# 
# From -- ./inp_files/56080.got.cif
#   From: 2010.05.17/outbox.cif.g08.bks.cpg/sg68_29_cif.got.tgz:56080.got - 2010.06.03 18:57:09.
