data_PCOD9506971
_publ_section_title
;
Structure prediction by ZEFSAII (Michael W. Deem and Ramdas Pophale) SiO2 
 PCOD9506971
Probable space group: C C C A
;
_chemical_formula_sum "Si O2"
_cell_formula_units_Z 64
_cell_length_a 15.876781
_cell_length_b 12.279553
_cell_length_c 12.147606
_cell_angle_alpha 90.000000
_cell_angle_beta 90.000000
_cell_angle_gamma 90.000000
_cell_volume 2368.294517
_symmetry_space_group_name_H-M "C C C A"
_symmetry_group_IT_number 68
_space_group.IT_coordinate_system_code '2'
_symmetry_cell_setting 'orthorhombic'
loop_
_space_group_symop_operation_xyz
x,y,z
-x,1/2-y,z
x,1/2-y,1/2-z
-x,y,1/2-z
-x,-y,-z
x,1/2+y,-z
-x,1/2+y,1/2+z
x,-y,1/2+z
1/2+x,1/2+y,z
1/2-x,-y,z
1/2+x,-y,1/2-z
1/2-x,1/2+y,1/2-z
1/2-x,1/2-y,-z
1/2+x,y,-z
1/2-x,y,1/2+z
1/2+x,1/2-y,1/2+z
loop_
_atom_site_type_symbol
_atom_site_label
_atom_site_fract_x
_atom_site_fract_y
_atom_site_fract_z
Si Si1 0.520781 0.866199 0.408669
Si Si2 0.958607 0.903841 0.142421
Si Si3 0.267360 0.368845 0.179566
Si Si4 0.275118 0.873034 0.067048
O O1 0.500000 0.750000 0.361287
O O2 0.491482 0.868828 0.535210
O O3 0.622065 0.876835 0.418435
O O4 0.468628 0.964748 0.356971
O O5 0.864915 0.863421 0.149635
O O6 0.000000 0.862733 0.250000
O O7 0.250000 0.500000 0.186849
O O8 0.253445 0.332121 0.309352
O O9 0.232882 0.335772 0.053967
O O10 0.250000 0.000000 0.065489
#
# Coordination Sequence:
#
# PCOD9506971 Si02
#       4
#    16  16  16  16
#     4  10  22  39  63  96 133 174 230 294 348 408
#     4  10  20  37  64  90 124 177 229 282 349 417
#     4   9  17  31  58  87 118 166 219 269 332 406
#     4   9  17  33  60  91 127 173 222 273 339 409
#
# _framework density 27.023665999999999
#
# number of rings (size 3 to 8) (size 9 to 14) (size 15 to 20)
#    0.000    2.500    0.000    3.000    0.000    3.000 
#    0.000    0.000    0.000   78.000    0.000    7.000 
#    0.000    0.000    0.000    0.000    0.000    0.000 
#
# Total GULP energy -178365.961994 kJ/mol
# GULP energy per Si atom -5573.936312 kJ/mol
# Density = 2.696216 g / cm^3
# Si number density = 27.023666 Si / 1000 Ang^3
#
#
#
# Elastic Constant Matrix: (Units=GPa)
#
#
# Indices 1 2 3 4 5 6 
#
# 1 75.4540 -13.6519 2.9608 0.0000 0.0000 0.0000
# 2 -13.6519 68.0320 55.3982 0.0000 0.0000 0.0000
# 3 2.9608 55.3982 286.3569 0.0000 0.0000 0.0000
# 4 0.0000 0.0000 0.0000 380.4416 0.0000 0.0000
# 5 0.0000 0.0000 0.0000 0.0000 34.6218 0.0000
# 6 0.0000 0.0000 0.0000 0.0000 0.0000 31.7007
#
#
#
# Elastic Compliance Matrix: (Units=1/GPa)
#
#
# Indices 1 2 3 4 5 6 
#
# 1 0.013910 0.003452 -0.000812 0.000000 0.000000 0.000000
# 2 0.003452 0.018304 -0.003577 0.000000 0.000000 0.000000
# 3 -0.000812 -0.003577 0.004193 0.000000 0.000000 0.000000
# 4 0.000000 0.000000 0.000000 0.002629 0.000000 0.000000
# 5 0.000000 0.000000 0.000000 0.000000 0.028884 0.000000
# 6 0.000000 0.000000 0.000000 0.000000 0.000000 0.031545
#
#
# Mechanical properties :
#
#
# Convention : Reuss Voigt Hill
#
# Bulk Modulus (GPa) = 28.95724 57.69525 43.32624
# Shear Modulus (GPa) = 44.30765 115.02855 79.66810
#
# Velocity S-wave (km/s) = 4.05357 6.53133 5.43552
# Velocity P-wave (km/s) = 5.71379 8.84726 7.44719
#
# Compressibility (1/GPa) = 0.03453368
#
# Stress axis : x y z
#
# Youngs Moduli (GPa) = 71.89302 54.63201 238.52086
#
# Poissons Ratio (x) = -0.18860 0.19360
# Poissons Ratio (y) = -0.24819 0.85315
# Poissons Ratio (z) = 0.05835 0.19541
#
# Static dielectric constant tensor:
#      x y z
#    x 1.996460 0.000000 0.000000 
#    y 0.000000 2.333560 0.000000 
#    z 0.000000 0.000000 2.463630 
# 
# From -- ./inp_files/14020.got.cif
#   From: 2010.05.17/outbox.cif.g08.bks.cpg/sg68_8_cif.got.tgz:14020.got - 2010.06.03 18:57:09.
