data_PCOD9506423
_publ_section_title
;
Structure prediction by ZEFSAII (Michael W. Deem and Ramdas Pophale) SiO2 
 PCOD9506423
Probable space group: C C C A
;
_chemical_formula_sum "Si O2"
_cell_formula_units_Z 84
_cell_length_a 18.305165
_cell_length_b 15.301887
_cell_length_c 12.396056
_cell_angle_alpha 90.000000
_cell_angle_beta 90.000000
_cell_angle_gamma 90.000000
_cell_volume 3472.179494
_symmetry_space_group_name_H-M "C C C A"
_symmetry_group_IT_number 68
_space_group.IT_coordinate_system_code '2'
_symmetry_cell_setting 'orthorhombic'
loop_
_space_group_symop_operation_xyz
x,y,z
-x,1/2-y,z
x,1/2-y,1/2-z
-x,y,1/2-z
-x,-y,-z
x,1/2+y,-z
-x,1/2+y,1/2+z
x,-y,1/2+z
1/2+x,1/2+y,z
1/2-x,-y,z
1/2+x,-y,1/2-z
1/2-x,1/2+y,1/2-z
1/2-x,1/2-y,-z
1/2+x,y,-z
1/2-x,y,1/2+z
1/2+x,1/2-y,1/2+z
loop_
_atom_site_type_symbol
_atom_site_label
_atom_site_fract_x
_atom_site_fract_y
_atom_site_fract_z
Si Si1 0.636231 0.355687 0.240377
Si Si2 0.795257 0.627586 0.668470
Si Si3 0.554274 0.387944 0.040392
Si Si4 0.395701 0.924228 0.973708
Si Si5 0.000000 0.750000 0.750000
Si Si6 0.862643 0.816225 0.630555
O O1 0.634231 0.250000 0.250000
O O2 0.709754 0.385468 0.178900
O O3 0.568764 0.389414 0.167803
O O4 0.636878 0.395940 0.359812
O O5 0.839386 0.582021 0.572737
O O6 0.814590 0.729330 0.643584
O O7 0.826183 0.613236 0.790075
O O8 0.470124 0.366684 0.014805
O O9 0.573989 0.477505 0.978704
O O10 0.618075 0.326810 0.993395
O O11 0.943654 0.805534 0.680522
#
# Coordination Sequence:
#
# PCOD9506423 Si02
#       6
#    16  16  16  16   4  16
#     4  12  26  47  73 103 143 184 235 289 351 415
#     4  10  23  43  68 102 134 182 226 290 340 410
#     4  11  26  45  71 103 140 188 226 292 351 414
#     4  11  27  47  68 102 146 181 235 285 349 422
#     4   8  16  32  64 100 118 176 224 280 328 394
#     4  10  19  39  68  98 131 173 231 282 332 418
#
# _framework density 24.192298000000001
#
# number of rings (size 3 to 8) (size 9 to 14) (size 15 to 20)
#    0.000    1.524    1.905    4.000    5.333    5.333 
#    0.000    0.000    0.000    0.000    0.000    0.000 
#    0.000    0.000    0.000    0.000    0.000    0.000 
#
# Total GULP energy -234550.109744 kJ/mol
# GULP energy per Si atom -5584.526422 kJ/mol
# Density = 2.413724 g / cm^3
# Si number density = 24.192298 Si / 1000 Ang^3
#
#
#
# Elastic Constant Matrix: (Units=GPa)
#
#
# Indices 1 2 3 4 5 6 
#
# 1 128.0352 17.6236 59.3304 0.0000 0.0000 0.0000
# 2 17.6236 41.5962 14.9606 0.0000 0.0000 0.0000
# 3 59.3304 14.9606 114.5974 0.0000 0.0000 0.0000
# 4 0.0000 0.0000 0.0000 30.5490 0.0000 0.0000
# 5 0.0000 0.0000 0.0000 0.0000 22.9078 0.0000
# 6 0.0000 0.0000 0.0000 0.0000 0.0000 19.8385
#
#
#
# Elastic Compliance Matrix: (Units=1/GPa)
#
#
# Indices 1 2 3 4 5 6 
#
# 1 0.010542 -0.002627 -0.005115 0.000000 0.000000 0.000000
# 2 -0.002627 0.025880 -0.002019 0.000000 0.000000 0.000000
# 3 -0.005115 -0.002019 0.011638 0.000000 0.000000 0.000000
# 4 0.000000 0.000000 0.000000 0.032734 0.000000 0.000000
# 5 0.000000 0.000000 0.000000 0.000000 0.043653 0.000000
# 6 0.000000 0.000000 0.000000 0.000000 0.000000 0.050407
#
#
# Mechanical properties :
#
#
# Convention : Reuss Voigt Hill
#
# Bulk Modulus (GPa) = 35.04005 52.00646 43.52325
# Shear Modulus (GPa) = 24.52323 27.48000 26.00161
#
# Velocity S-wave (km/s) = 3.18729 3.37397 3.28195
# Velocity P-wave (km/s) = 5.29721 6.05987 5.69133
#
# Compressibility (1/GPa) = 0.02853877
#
# Stress axis : x y z
#
# Youngs Moduli (GPa) = 94.85671 38.64047 85.92583
#
# Poissons Ratio (x) = 0.10150 0.43952
# Poissons Ratio (y) = 0.24918 0.17345
# Poissons Ratio (z) = 0.48520 0.07800
#
# Static dielectric constant tensor:
#      x y z
#    x 1.904840 0.000000 0.000000 
#    y 0.000000 2.051460 0.000000 
#    z 0.000000 0.000000 2.091350 
# 
# From -- ./inp_files/14385.got.cif
#   From: 2010.05.17/outbox.cif.g08.bks.cpg/sg68_8_cif.got.tgz:14385.got - 2010.06.03 18:57:09.
