data_PCOD9506074
_publ_section_title
;
Structure prediction by ZEFSAII (Michael W. Deem and Ramdas Pophale) SiO2 
 PCOD9506074
Probable space group: C C C A
;
_chemical_formula_sum "Si O2"
_cell_formula_units_Z 96
_cell_length_a 8.954124
_cell_length_b 19.811506
_cell_length_c 26.432393
_cell_angle_alpha 90.000000
_cell_angle_beta 90.000000
_cell_angle_gamma 90.000000
_cell_volume 4688.965934
_symmetry_space_group_name_H-M "C C C A"
_symmetry_group_IT_number 68
_space_group.IT_coordinate_system_code '2'
_symmetry_cell_setting 'orthorhombic'
loop_
_space_group_symop_operation_xyz
x,y,z
-x,1/2-y,z
x,1/2-y,1/2-z
-x,y,1/2-z
-x,-y,-z
x,1/2+y,-z
-x,1/2+y,1/2+z
x,-y,1/2+z
1/2+x,1/2+y,z
1/2-x,-y,z
1/2+x,-y,1/2-z
1/2-x,1/2+y,1/2-z
1/2-x,1/2-y,-z
1/2+x,y,-z
1/2-x,y,1/2+z
1/2+x,1/2-y,1/2+z
loop_
_atom_site_type_symbol
_atom_site_label
_atom_site_fract_x
_atom_site_fract_y
_atom_site_fract_z
Si Si1 0.451920 0.589858 0.930787
Si Si2 0.898767 0.043084 0.291946
Si Si3 0.491687 0.325009 0.166626
Si Si4 0.092584 0.539764 0.609647
Si Si5 0.246731 0.326025 0.747737
Si Si6 0.251964 0.917602 0.481558
O O1 0.464970 0.623307 0.876456
O O2 0.481072 0.511081 0.919763
O O3 0.592174 0.609470 0.965785
O O4 0.309631 0.605585 0.964432
O O5 0.846818 0.112002 0.265056
O O6 0.000000 0.004556 0.250000
O O7 0.002678 0.058216 0.340178
O O8 0.750000 0.000000 0.304477
O O9 0.500000 0.250000 0.144275
O O10 0.613301 0.324846 0.211119
O O11 0.332354 0.337955 0.193408
O O12 0.250000 0.500000 0.622580
O O13 0.142387 0.594192 0.567697
O O14 0.312188 0.250000 0.750000
O O15 0.250000 0.000000 0.484625
#
# Coordination Sequence:
#
# PCOD9506074 Si02
#       6
#    16  16  16  16  16  16
#     4  10  19  33  58  78 117 148 190 236 290 343
#     4  12  26  35  58  90 125 151 190 246 299 346
#     4   9  19  37  61  82 105 152 203 238 284 352
#     4   9  20  37  55  84 120 155 185 234 293 347
#     4   9  21  40  61  83 113 159 207 238 282 362
#     4   9  19  33  54  84 114 150 187 230 282 360
#
# _framework density 20.473597000000002
#
# number of rings (size 3 to 8) (size 9 to 14) (size 15 to 20)
#    0.000    2.667    0.000    4.500    9.333    5.000 
#    0.000    0.833    0.000    0.000    0.000    0.000 
#    0.000    0.000    0.000    0.000    0.000    0.000 
#
# Total GULP energy -267683.480817 kJ/mol
# GULP energy per Si atom -5576.739184 kJ/mol
# Density = 2.042700 g / cm^3
# Si number density = 20.473597 Si / 1000 Ang^3
#
#
#
# Elastic Constant Matrix: (Units=GPa)
#
#
# Indices 1 2 3 4 5 6 
#
# 1 52.8359 13.5702 22.6886 0.0000 0.0000 0.0000
# 2 13.5702 39.2064 9.3679 0.0000 0.0000 0.0000
# 3 22.6886 9.3679 96.4022 0.0000 0.0000 0.0000
# 4 0.0000 0.0000 0.0000 1.9423 0.0000 0.0000
# 5 0.0000 0.0000 0.0000 0.0000 31.3334 0.0000
# 6 0.0000 0.0000 0.0000 0.0000 0.0000 16.5457
#
#
#
# Elastic Compliance Matrix: (Units=1/GPa)
#
#
# Indices 1 2 3 4 5 6 
#
# 1 0.022664 -0.006726 -0.004680 0.000000 0.000000 0.000000
# 2 -0.006726 0.028109 -0.001148 0.000000 0.000000 0.000000
# 3 -0.004680 -0.001148 0.011586 0.000000 0.000000 0.000000
# 4 0.000000 0.000000 0.000000 0.514841 0.000000 0.000000
# 5 0.000000 0.000000 0.000000 0.000000 0.031915 0.000000
# 6 0.000000 0.000000 0.000000 0.000000 0.000000 0.060439
#
#
# Mechanical properties :
#
#
# Convention : Reuss Voigt Hill
#
# Bulk Modulus (GPa) = 26.84648 31.07752 28.96200
# Shear Modulus (GPa) = 7.07134 19.48548 13.27841
#
# Velocity S-wave (km/s) = 1.86048 3.08837 2.54945
# Velocity P-wave (km/s) = 4.21383 5.28485 4.77944
#
# Compressibility (1/GPa) = 0.03724883
#
# Stress axis : x y z
#
# Youngs Moduli (GPa) = 44.12305 35.57642 86.30837
#
# Poissons Ratio (x) = 0.23929 0.40396
# Poissons Ratio (y) = 0.29678 0.09912
# Poissons Ratio (z) = 0.20651 0.04086
#
# Static dielectric constant tensor:
#      x y z
#    x 1.817950 0.000000 0.000000 
#    y 0.000000 1.767030 0.000000 
#    z 0.000000 0.000000 1.752990 
# 
# From -- ./inp_files/49331.got.cif
#   From: 2010.05.17/outbox.cif.g08.bks.cpg/sg68_25_cif.got.tgz:49331.got - 2010.06.03 18:57:09.
