data_PCOD9506113
_publ_section_title
;
Structure prediction by ZEFSAII (Michael W. Deem and Ramdas Pophale) SiO2 
 PCOD9506113
Probable space group: C C C A
;
_chemical_formula_sum "Si O2"
_cell_formula_units_Z 104
_cell_length_a 16.872093
_cell_length_b 14.933585
_cell_length_c 19.473100
_cell_angle_alpha 90.000000
_cell_angle_beta 90.000000
_cell_angle_gamma 90.000000
_cell_volume 4906.458535
_symmetry_space_group_name_H-M "C C C A"
_symmetry_group_IT_number 68
_space_group.IT_coordinate_system_code '2'
_symmetry_cell_setting 'orthorhombic'
loop_
_space_group_symop_operation_xyz
x,y,z
-x,1/2-y,z
x,1/2-y,1/2-z
-x,y,1/2-z
-x,-y,-z
x,1/2+y,-z
-x,1/2+y,1/2+z
x,-y,1/2+z
1/2+x,1/2+y,z
1/2-x,-y,z
1/2+x,-y,1/2-z
1/2-x,1/2+y,1/2-z
1/2-x,1/2-y,-z
1/2+x,y,-z
1/2-x,y,1/2+z
1/2+x,1/2-y,1/2+z
loop_
_atom_site_type_symbol
_atom_site_label
_atom_site_fract_x
_atom_site_fract_y
_atom_site_fract_z
Si Si1 0.640710 0.133681 0.321710
Si Si2 0.500000 0.250000 0.367685
Si Si3 0.157284 0.533057 0.461159
Si Si4 0.687502 0.921501 0.679754
Si Si5 0.837415 0.225189 0.026633
Si Si6 0.415586 0.887053 0.950302
Si Si7 0.796757 0.752640 0.824575
O O1 0.580665 0.218936 0.328602
O O2 0.637540 0.063018 0.383750
O O3 0.632769 0.089867 0.246769
O O4 0.732046 0.168248 0.326135
O O5 0.511886 0.343557 0.409001
O O6 0.250000 0.500000 0.465444
O O7 0.149590 0.622091 0.507989
O O8 0.095545 0.459094 0.489336
O O9 0.639017 0.928540 0.609622
O O10 0.740855 0.833783 0.671481
O O11 0.750000 0.000000 0.689725
O O12 0.847115 0.248855 0.106489
O O13 0.750000 0.250000 0.000000
O O14 0.887978 0.293158 0.982527
O O15 0.837465 0.750000 0.750000
#
# Coordination Sequence:
#
# PCOD9506113 Si02
#       7
#    16   8  16  16  16  16  16
#     4  11  23  38  58  88 128 165 208 259 318 382
#     4  12  24  45  60  88 131 178 226 252 305 412
#     4  12  21  36  63  89 120 156 208 281 331 371
#     4  11  21  36  57  93 121 155 203 262 326 382
#     4  12  18  36  57  91 125 158 209 261 330 391
#     4  12  24  37  63  90 125 174 215 261 322 382
#     4  10  19  34  56  86 121 155 198 256 327 374
#
# _framework density 21.196550999999999
#
# number of rings (size 3 to 8) (size 9 to 14) (size 15 to 20)
#    0.000    0.615    7.692    1.846    0.000    3.077 
#    0.000    0.000    0.000    0.000    0.000    0.538 
#    0.000    0.000    0.000    0.000    0.000    0.000 
#
# Total GULP energy -290013.886859 kJ/mol
# GULP energy per Si atom -5577.190132 kJ/mol
# Density = 2.114831 g / cm^3
# Si number density = 21.196551 Si / 1000 Ang^3
#
#
#
# Elastic Constant Matrix: (Units=GPa)
#
#
# Indices 1 2 3 4 5 6 
#
# 1 40.8194 15.9674 19.6204 0.0000 0.0000 0.0000
# 2 15.9674 101.6876 24.9570 0.0000 0.0000 0.0000
# 3 19.6204 24.9570 150.9746 0.0000 0.0000 0.0000
# 4 0.0000 0.0000 0.0000 49.2855 0.0000 0.0000
# 5 0.0000 0.0000 0.0000 0.0000 -0.1726 0.0000
# 6 0.0000 0.0000 0.0000 0.0000 0.0000 26.4997
#
#
#
# Elastic Compliance Matrix: (Units=1/GPa)
#
#
# Indices 1 2 3 4 5 6 
#
# 1 0.027315 -0.003562 -0.002961 0.000000 0.000000 0.000000
# 2 -0.003562 0.010714 -0.001308 0.000000 0.000000 0.000000
# 3 -0.002961 -0.001308 0.007225 0.000000 0.000000 0.000000
# 4 0.000000 0.000000 0.000000 0.020290 0.000000 0.000000
# 5 0.000000 0.000000 0.000000 0.000000 -5.793423 0.000000
# 6 0.000000 0.000000 0.000000 0.000000 0.000000 0.037736
#
#
# Mechanical properties :
#
#
# Convention : Reuss Voigt Hill
#
# Bulk Modulus (GPa) = 33.79405 46.06345 39.92875
# Shear Modulus (GPa) = -0.88267 30.65163 14.88448
#
# Velocity S-wave (km/s) = -0.64601 3.80684 2.65280
# Velocity P-wave (km/s) = 3.92700 6.41105 5.31615
#
# Compressibility (1/GPa) = 0.02959101
#
# Stress axis : x y z
#
# Youngs Moduli (GPa) = 36.61011 93.33149 138.41446
#
# Poissons Ratio (x) = 0.33248 0.40983
# Poissons Ratio (y) = 0.13042 0.18107
# Poissons Ratio (z) = 0.10840 0.12210
#
# Static dielectric constant tensor:
#      x y z
#    x 1.754510 0.000000 0.000000 
#    y 0.000000 1.786810 0.000000 
#    z 0.000000 0.000000 1.817930 
# 
# From -- ./inp_files/40339.got.cif
#   From: 2010.05.17/outbox.cif.g08.bks.cpg/sg68_21_cif.got.tgz:40339.got - 2010.06.03 18:57:09.
