data_PCOD9506450
_publ_section_title
;
Structure prediction by ZEFSAII (Michael W. Deem and Ramdas Pophale) SiO2 
 PCOD9506450
Probable space group: C C C A
;
_chemical_formula_sum "Si O2"
_cell_formula_units_Z 68
_cell_length_a 18.333540
_cell_length_b 13.253710
_cell_length_c 15.880631
_cell_angle_alpha 90.000000
_cell_angle_beta 90.000000
_cell_angle_gamma 90.000000
_cell_volume 3858.793593
_symmetry_space_group_name_H-M "C C C A"
_symmetry_group_IT_number 68
_space_group.IT_coordinate_system_code '2'
_symmetry_cell_setting 'orthorhombic'
loop_
_space_group_symop_operation_xyz
x,y,z
-x,1/2-y,z
x,1/2-y,1/2-z
-x,y,1/2-z
-x,-y,-z
x,1/2+y,-z
-x,1/2+y,1/2+z
x,-y,1/2+z
1/2+x,1/2+y,z
1/2-x,-y,z
1/2+x,-y,1/2-z
1/2-x,1/2+y,1/2-z
1/2-x,1/2-y,-z
1/2+x,y,-z
1/2-x,y,1/2+z
1/2+x,1/2-y,1/2+z
loop_
_atom_site_type_symbol
_atom_site_label
_atom_site_fract_x
_atom_site_fract_y
_atom_site_fract_z
Si Si1 0.105903 0.105877 0.868051
Si Si2 0.000000 0.250000 0.527594
Si Si3 0.000000 0.250000 0.250000
Si Si4 0.171953 0.250000 0.750000
Si Si5 0.914781 0.875149 0.612604
Si Si6 0.749780 0.806992 0.588321
O O1 0.055145 0.185712 0.915709
O O2 0.122903 0.153401 0.775654
O O3 0.185790 0.109473 0.911881
O O4 0.075209 0.994380 0.874954
O O5 0.044776 0.172509 0.468422
O O6 0.949572 0.318388 0.308487
O O7 0.222067 0.237612 0.666985
O O8 0.829190 0.850202 0.606439
O O9 0.750000 0.750000 0.500000
#
# Coordination Sequence:
#
# PCOD9506450 Si02
#       6
#    16   8   4   8  16  16
#     4  10  22  39  64  87 122 163 204 258 305 368
#     4  11  22  38  62  93 122 160 208 252 318 380
#     4  10  26  36  60  86 124 164 192 266 302 380
#     4   8  21  35  60  92 114 160 200 264 293 355
#     4  11  21  41  61  87 125 162 205 253 318 367
#     4  10  19  41  65  86 123 161 206 260 307 360
#
# _framework density 17.622088000000002
#
# number of rings (size 3 to 8) (size 9 to 14) (size 15 to 20)
#    1.412    0.471    2.353    2.118    0.000    2.353 
#    0.000    2.353   10.353    0.000    0.000    0.000 
#    0.000    0.000    0.000    0.000    0.000    0.000 
#
# Total GULP energy -189279.166012 kJ/mol
# GULP energy per Si atom -5567.034294 kJ/mol
# Density = 1.758198 g / cm^3
# Si number density = 17.622088 Si / 1000 Ang^3
#
#
#
# Elastic Constant Matrix: (Units=GPa)
#
#
# Indices 1 2 3 4 5 6 
#
# 1 105.8536 37.7240 30.4913 0.0000 0.0000 0.0000
# 2 37.7240 120.5107 52.3963 0.0000 0.0000 0.0000
# 3 30.4913 52.3963 114.3175 0.0000 0.0000 0.0000
# 4 0.0000 0.0000 0.0000 7.5941 0.0000 0.0000
# 5 0.0000 0.0000 0.0000 0.0000 0.5840 0.0000
# 6 0.0000 0.0000 0.0000 0.0000 0.0000 13.1323
#
#
#
# Elastic Compliance Matrix: (Units=1/GPa)
#
#
# Indices 1 2 3 4 5 6 
#
# 1 0.010884 -0.002679 -0.001675 0.000000 0.000000 0.000000
# 2 -0.002679 0.011022 -0.004338 0.000000 0.000000 0.000000
# 3 -0.001675 -0.004338 0.011182 0.000000 0.000000 0.000000
# 4 0.000000 0.000000 0.000000 0.131681 0.000000 0.000000
# 5 0.000000 0.000000 0.000000 0.000000 1.712348 0.000000
# 6 0.000000 0.000000 0.000000 0.000000 0.000000 0.076148
#
#
# Mechanical properties :
#
#
# Convention : Reuss Voigt Hill
#
# Bulk Modulus (GPa) = 63.67009 64.65613 64.16311
# Shear Modulus (GPa) = 2.53051 18.93341 10.73196
#
# Velocity S-wave (km/s) = 1.19963 3.28138 2.47048
# Velocity P-wave (km/s) = 6.17479 7.15029 6.68037
#
# Compressibility (1/GPa) = 0.01570596
#
# Stress axis : x y z
#
# Youngs Moduli (GPa) = 91.87599 90.72380 89.42552
#
# Poissons Ratio (x) = 0.24303 0.14982
# Poissons Ratio (y) = 0.24611 0.38789
# Poissons Ratio (z) = 0.15392 0.39352
#
# Static dielectric constant tensor:
#      x y z
#    x 1.610350 0.000000 0.000000 
#    y 0.000000 1.594200 0.000000 
#    z 0.000000 0.000000 1.593860 
# 
# From -- ./inp_files/31732.got.cif
#   From: 2010.05.17/outbox.cif.g08.bks.cpg/sg68_16_cif.got.tgz:31732.got - 2010.06.03 18:57:09.
