data_PCOD9506235
_publ_section_title
;
Structure prediction by ZEFSAII (Michael W. Deem and Ramdas Pophale) SiO2 
 PCOD9506235
Probable space group: C C C A
;
_chemical_formula_sum "Si O2"
_cell_formula_units_Z 80
_cell_length_a 22.694688
_cell_length_b 16.490695
_cell_length_c 9.912671
_cell_angle_alpha 90.000000
_cell_angle_beta 90.000000
_cell_angle_gamma 90.000000
_cell_volume 3709.828798
_symmetry_space_group_name_H-M "C C C A"
_symmetry_group_IT_number 68
_space_group.IT_coordinate_system_code '2'
_symmetry_cell_setting 'orthorhombic'
loop_
_space_group_symop_operation_xyz
x,y,z
-x,1/2-y,z
x,1/2-y,1/2-z
-x,y,1/2-z
-x,-y,-z
x,1/2+y,-z
-x,1/2+y,1/2+z
x,-y,1/2+z
1/2+x,1/2+y,z
1/2-x,-y,z
1/2+x,-y,1/2-z
1/2-x,1/2+y,1/2-z
1/2-x,1/2-y,-z
1/2+x,y,-z
1/2-x,y,1/2+z
1/2+x,1/2-y,1/2+z
loop_
_atom_site_type_symbol
_atom_site_label
_atom_site_fract_x
_atom_site_fract_y
_atom_site_fract_z
Si Si1 0.705278 0.836423 0.321246
Si Si2 0.873637 0.526257 0.766631
Si Si3 0.339843 0.858148 0.653942
Si Si4 0.883400 0.702826 0.442191
Si Si5 0.442439 0.945341 0.011910
O O1 0.705769 0.750000 0.250000
O O2 0.678860 0.907879 0.226914
O O3 0.770918 0.850095 0.375695
O O4 0.659850 0.829020 0.442999
O O5 0.853044 0.451836 0.672443
O O6 0.896761 0.490309 0.907722
O O7 0.925456 0.559941 0.670151
O O8 0.380608 0.800791 0.559750
O O9 0.353262 0.824108 0.803268
O O10 0.942108 0.648413 0.458788
O O11 0.500000 0.000000 0.000000
#
# Coordination Sequence:
#
# PCOD9506235 Si02
#       5
#    16  16  16  16  16
#     4  11  21  33  56  87 124 160 185 239 309 361
#     4  10  23  36  60  89 116 154 204 247 301 364
#     4  10  19  36  57  84 122 156 195 241 289 372
#     4   9  20  35  55  86 114 153 200 240 296 358
#     4  10  21  41  61  82 115 155 202 258 307 344
#
# _framework density 21.564336999999998
#
# number of rings (size 3 to 8) (size 9 to 14) (size 15 to 20)
#    0.000    2.000    2.000    1.800    2.800    0.000 
#    0.000    7.000    0.000    6.000    0.000    0.000 
#    0.000    0.000    0.000    0.000    0.000    0.000 
#
# Total GULP energy -222785.548543 kJ/mol
# GULP energy per Si atom -5569.638714 kJ/mol
# Density = 2.151526 g / cm^3
# Si number density = 21.564337 Si / 1000 Ang^3
#
#
#
# Elastic Constant Matrix: (Units=GPa)
#
#
# Indices 1 2 3 4 5 6 
#
# 1 63.0100 45.2340 -1.7403 0.0000 0.0000 0.0000
# 2 45.2340 134.9687 -2.8020 0.0000 0.0000 0.0000
# 3 -1.7403 -2.8020 58.6067 0.0000 0.0000 0.0000
# 4 0.0000 0.0000 0.0000 27.8120 0.0000 0.0000
# 5 0.0000 0.0000 0.0000 0.0000 18.3568 0.0000
# 6 0.0000 0.0000 0.0000 0.0000 0.0000 20.7940
#
#
#
# Elastic Compliance Matrix: (Units=1/GPa)
#
#
# Indices 1 2 3 4 5 6 
#
# 1 0.020903 -0.007000 0.000286 0.000000 0.000000 0.000000
# 2 -0.007000 0.009760 0.000259 0.000000 0.000000 0.000000
# 3 0.000286 0.000259 0.017084 0.000000 0.000000 0.000000
# 4 0.000000 0.000000 0.000000 0.035956 0.000000 0.000000
# 5 0.000000 0.000000 0.000000 0.000000 0.054476 0.000000
# 6 0.000000 0.000000 0.000000 0.000000 0.000000 0.048091
#
#
# Mechanical properties :
#
#
# Convention : Reuss Voigt Hill
#
# Bulk Modulus (GPa) = 28.70443 37.55210 33.12826
# Shear Modulus (GPa) = 23.72006 27.78548 25.75277
#
# Velocity S-wave (km/s) = 3.32017 3.59345 3.45951
# Velocity P-wave (km/s) = 5.29509 5.88804 5.59942
#
# Compressibility (1/GPa) = 0.03483783
#
# Stress axis : x y z
#
# Youngs Moduli (GPa) = 47.83916 102.45468 58.53514
#
# Poissons Ratio (x) = 0.71715 -0.01674
# Poissons Ratio (y) = 0.33486 -0.01515
# Poissons Ratio (z) = -0.01369 -0.02651
#
# Static dielectric constant tensor:
#      x y z
#    x 1.991620 0.000000 0.000000 
#    y 0.000000 1.913930 0.000000 
#    z 0.000000 0.000000 1.813090 
# 
# From -- ./inp_files/16213.got.cif
#   From: 2010.05.17/outbox.cif.g08.bks.cpg/sg68_9_cif.got.tgz:16213.got - 2010.06.03 18:57:09.
