data_PCOD9506345
_publ_section_title
;
Structure prediction by ZEFSAII (Michael W. Deem and Ramdas Pophale) SiO2 
 PCOD9506345
Probable space group: C C C A
;
_chemical_formula_sum "Si O2"
_cell_formula_units_Z 80
_cell_length_a 19.397336
_cell_length_b 9.132724
_cell_length_c 19.035585
_cell_angle_alpha 90.000000
_cell_angle_beta 90.000000
_cell_angle_gamma 90.000000
_cell_volume 3372.163706
_symmetry_space_group_name_H-M "C C C A"
_symmetry_group_IT_number 68
_space_group.IT_coordinate_system_code '2'
_symmetry_cell_setting 'orthorhombic'
loop_
_space_group_symop_operation_xyz
x,y,z
-x,1/2-y,z
x,1/2-y,1/2-z
-x,y,1/2-z
-x,-y,-z
x,1/2+y,-z
-x,1/2+y,1/2+z
x,-y,1/2+z
1/2+x,1/2+y,z
1/2-x,-y,z
1/2+x,-y,1/2-z
1/2-x,1/2+y,1/2-z
1/2-x,1/2-y,-z
1/2+x,y,-z
1/2-x,y,1/2+z
1/2+x,1/2-y,1/2+z
loop_
_atom_site_type_symbol
_atom_site_label
_atom_site_fract_x
_atom_site_fract_y
_atom_site_fract_z
Si Si1 0.008652 0.424097 0.669026
Si Si2 0.456536 0.895759 0.051205
Si Si3 0.284646 0.289737 0.604853
Si Si4 0.250000 0.500000 0.344859
Si Si5 0.640244 0.435166 0.429660
Si Si6 0.248301 0.750000 0.250000
O O1 0.083030 0.447009 0.631864
O O2 0.000000 0.250000 0.663562
O O3 0.000000 0.466739 0.750000
O O4 0.952783 0.512905 0.622790
O O5 0.500000 0.750000 0.065288
O O6 0.392880 0.870428 0.999851
O O7 0.500000 0.000000 0.000000
O O8 0.290360 0.114157 0.606238
O O9 0.293953 0.163294 0.410555
O O10 0.331553 0.399519 0.561651
O O11 0.293557 0.322582 0.688417
O O12 0.212225 0.616876 0.292342
#
# Coordination Sequence:
#
# PCOD9506345 Si02
#       6
#    16  16  16   8  16   8
#     4  10  23  46  71 105 134 175 232 291 350 416
#     4  10  21  42  72  92 131 182 224 273 347 407
#     4   9  19  34  59  94 136 185 230 289 352 422
#     4   8  16  30  52  84 132 186 236 276 350 430
#     4  10  19  37  65  97 139 182 227 282 343 423
#     4   8  16  32  52  84 138 194 234 276 356 426
#
# _framework density 23.72364
#
# number of rings (size 3 to 8) (size 9 to 14) (size 15 to 20)
#    1.200    1.400    0.000    3.600    0.000    2.000 
#    0.000   14.000    0.000   48.000    0.000    0.000 
#    0.000    1.600    0.000    0.000    0.000    0.000 
#
# Total GULP energy -222803.507402 kJ/mol
# GULP energy per Si atom -5570.087685 kJ/mol
# Density = 2.366964 g / cm^3
# Si number density = 23.723640 Si / 1000 Ang^3
#
#
#
# Elastic Constant Matrix: (Units=GPa)
#
#
# Indices 1 2 3 4 5 6 
#
# 1 89.2201 18.6357 47.6382 0.0000 0.0000 0.0000
# 2 18.6357 148.1986 54.7966 0.0000 0.0000 0.0000
# 3 47.6382 54.7966 147.0371 0.0000 0.0000 0.0000
# 4 0.0000 0.0000 0.0000 28.0229 0.0000 0.0000
# 5 0.0000 0.0000 0.0000 0.0000 19.8325 0.0000
# 6 0.0000 0.0000 0.0000 0.0000 0.0000 16.4020
#
#
#
# Elastic Compliance Matrix: (Units=1/GPa)
#
#
# Indices 1 2 3 4 5 6 
#
# 1 0.013554 -0.000094 -0.004356 0.000000 0.000000 0.000000
# 2 -0.000094 0.007827 -0.002886 0.000000 0.000000 0.000000
# 3 -0.004356 -0.002886 0.009288 0.000000 0.000000 0.000000
# 4 0.000000 0.000000 0.000000 0.035685 0.000000 0.000000
# 5 0.000000 0.000000 0.000000 0.000000 0.050422 0.000000
# 6 0.000000 0.000000 0.000000 0.000000 0.000000 0.060968
#
#
# Mechanical properties :
#
#
# Convention : Reuss Voigt Hill
#
# Bulk Modulus (GPa) = 62.51649 69.62185 66.06917
# Shear Modulus (GPa) = 25.28459 30.41051 27.84755
#
# Velocity S-wave (km/s) = 3.26820 3.58420 3.42984
# Velocity P-wave (km/s) = 6.37579 6.82198 6.60265
#
# Compressibility (1/GPa) = 0.01599578
#
# Stress axis : x y z
#
# Youngs Moduli (GPa) = 73.77986 127.76688 107.66427
#
# Poissons Ratio (x) = 0.01196 0.46903
# Poissons Ratio (y) = 0.00690 0.31077
# Poissons Ratio (z) = 0.32141 0.36880
#
# Static dielectric constant tensor:
#      x y z
#    x 1.946740 0.000000 0.000000 
#    y 0.000000 1.913880 0.000000 
#    z 0.000000 0.000000 1.932150 
# 
# From -- ./inp_files/34001.got.cif
#   From: 2010.05.17/outbox.cif.g08.bks.cpg/sg68_18_cif.got.tgz:34001.got - 2010.06.03 18:57:09.
