data_PCOD9506194
_publ_section_title
;
Structure prediction by ZEFSAII (Michael W. Deem and Ramdas Pophale) SiO2 
 PCOD9506194
Probable space group: C C C A
;
_chemical_formula_sum "Si O2"
_cell_formula_units_Z 96
_cell_length_a 14.207022
_cell_length_b 29.470191
_cell_length_c 10.752669
_cell_angle_alpha 90.000000
_cell_angle_beta 90.000000
_cell_angle_gamma 90.000000
_cell_volume 4501.966724
_symmetry_space_group_name_H-M "C C C A"
_symmetry_group_IT_number 68
_space_group.IT_coordinate_system_code '2'
_symmetry_cell_setting 'orthorhombic'
loop_
_space_group_symop_operation_xyz
x,y,z
-x,1/2-y,z
x,1/2-y,1/2-z
-x,y,1/2-z
-x,-y,-z
x,1/2+y,-z
-x,1/2+y,1/2+z
x,-y,1/2+z
1/2+x,1/2+y,z
1/2-x,-y,z
1/2+x,-y,1/2-z
1/2-x,1/2+y,1/2-z
1/2-x,1/2-y,-z
1/2+x,y,-z
1/2-x,y,1/2+z
1/2+x,1/2-y,1/2+z
loop_
_atom_site_type_symbol
_atom_site_label
_atom_site_fract_x
_atom_site_fract_y
_atom_site_fract_z
Si Si1 0.864345 0.941498 0.545759
Si Si2 0.135268 0.953664 0.457671
Si Si3 0.399367 0.709108 0.321256
Si Si4 0.500000 0.323135 0.250000
Si Si5 0.854703 0.396229 0.195686
Si Si6 0.000000 0.250000 0.546013
Si Si7 0.630648 0.096857 0.284724
O O1 0.749401 0.945922 0.544784
O O2 0.892456 0.916758 0.674089
O O3 0.899818 0.914140 0.425316
O O4 0.891519 0.993937 0.529267
O O5 0.105951 0.923310 0.576085
O O6 0.102046 0.938447 0.321585
O O7 0.345415 0.750000 0.250000
O O8 0.500000 0.705060 0.250000
O O9 0.364086 0.657908 0.320062
O O10 0.420158 0.729513 0.456633
O O11 0.473912 0.291267 0.364992
O O12 0.411381 0.356214 0.234748
O O13 0.742856 0.403887 0.205527
#
# Coordination Sequence:
#
# PCOD9506194 Si02
#       7
#    16  16  16   8  16   8  16
#     4   9  18  31  58  83 112 147 189 231 278 336
#     4   9  17  34  54  83 114 151 185 225 284 343
#     4   9  20  37  60  81 105 139 184 230 285 331
#     4  11  22  38  56  74 114 152 182 228 285 348
#     4  10  19  35  59  87 111 144 192 238 279 325
#     4   9  21  40  58  74 103 155 188 214 292 355
#     4  10  21  34  56  82 115 148 188 228 282 332
#
# _framework density 21.324013000000001
#
# number of rings (size 3 to 8) (size 9 to 14) (size 15 to 20)
#    0.000    2.667    0.000    2.000    4.667    4.000 
#    3.000    1.667    3.667    0.000    0.000    0.000 
#    0.000    0.000    0.000    0.000    0.000    0.000 
#
# Total GULP energy -267644.345201 kJ/mol
# GULP energy per Si atom -5575.923858 kJ/mol
# Density = 2.127548 g / cm^3
# Si number density = 21.324013 Si / 1000 Ang^3
#
#
#
# Elastic Constant Matrix: (Units=GPa)
#
#
# Indices 1 2 3 4 5 6 
#
# 1 34.9604 -7.3713 22.1090 0.0000 0.0000 0.0000
# 2 -7.3713 154.6673 79.0878 0.0000 0.0000 0.0000
# 3 22.1090 79.0878 160.4115 0.0000 0.0000 0.0000
# 4 0.0000 0.0000 0.0000 116.6456 0.0000 0.0000
# 5 0.0000 0.0000 0.0000 0.0000 3.3709 0.0000
# 6 0.0000 0.0000 0.0000 0.0000 0.0000 3.6377
#
#
#
# Elastic Compliance Matrix: (Units=1/GPa)
#
#
# Indices 1 2 3 4 5 6 
#
# 1 0.034451 0.005442 -0.007431 0.000000 0.000000 0.000000
# 2 0.005442 0.009505 -0.005436 0.000000 0.000000 0.000000
# 3 -0.007431 -0.005436 0.009938 0.000000 0.000000 0.000000
# 4 0.000000 0.000000 0.000000 0.008573 0.000000 0.000000
# 5 0.000000 0.000000 0.000000 0.000000 0.296653 0.000000
# 6 0.000000 0.000000 0.000000 0.000000 0.000000 0.274897
#
#
# Mechanical properties :
#
#
# Convention : Reuss Voigt Hill
#
# Bulk Modulus (GPa) = 25.61307 59.74336 42.67822
# Shear Modulus (GPa) = 7.55422 41.81176 24.68299
#
# Velocity S-wave (km/s) = 1.88422 4.43288 3.40593
# Velocity P-wave (km/s) = 4.09526 7.36738 5.96026
#
# Compressibility (1/GPa) = 0.03904256
#
# Stress axis : x y z
#
# Youngs Moduli (GPa) = 29.02704 105.21321 100.62071
#
# Poissons Ratio (x) = -0.57254 0.74773
# Poissons Ratio (y) = -0.15796 0.54698
# Poissons Ratio (z) = 0.21570 0.57194
#
# Static dielectric constant tensor:
#      x y z
#    x 1.814050 0.000000 0.000000 
#    y 0.000000 1.778670 0.000000 
#    z 0.000000 0.000000 1.794580 
# 
# From -- ./inp_files/14652.got.cif
#   From: 2010.05.17/outbox.cif.g08.bks.cpg/sg68_8_cif.got.tgz:14652.got - 2010.06.03 18:57:09.
