data_PCOD9506572
_publ_section_title
;
Structure prediction by ZEFSAII (Michael W. Deem and Ramdas Pophale) SiO2 
 PCOD9506572
Probable space group: C C C A
;
_chemical_formula_sum "Si O2"
_cell_formula_units_Z 64
_cell_length_a 5.205628
_cell_length_b 21.408206
_cell_length_c 29.133227
_cell_angle_alpha 90.000000
_cell_angle_beta 90.000000
_cell_angle_gamma 90.000000
_cell_volume 3246.698778
_symmetry_space_group_name_H-M "C C C A"
_symmetry_group_IT_number 68
_space_group.IT_coordinate_system_code '2'
_symmetry_cell_setting 'orthorhombic'
loop_
_space_group_symop_operation_xyz
x,y,z
-x,1/2-y,z
x,1/2-y,1/2-z
-x,y,1/2-z
-x,-y,-z
x,1/2+y,-z
-x,1/2+y,1/2+z
x,-y,1/2+z
1/2+x,1/2+y,z
1/2-x,-y,z
1/2+x,-y,1/2-z
1/2-x,1/2+y,1/2-z
1/2-x,1/2-y,-z
1/2+x,y,-z
1/2-x,y,1/2+z
1/2+x,1/2-y,1/2+z
loop_
_atom_site_type_symbol
_atom_site_label
_atom_site_fract_x
_atom_site_fract_y
_atom_site_fract_z
Si Si1 0.231627 0.819789 0.020424
Si Si2 0.267409 0.425289 0.655820
Si Si3 0.750000 0.000000 0.467705
Si Si4 0.730632 0.886937 0.895001
Si Si5 0.000000 0.040403 0.250000
O O1 0.193265 0.824828 0.074517
O O2 0.250000 0.750000 0.000000
O O3 0.498078 0.850619 0.006350
O O4 0.250000 0.500000 0.645868
O O5 0.488167 0.392778 0.626253
O O6 0.369608 0.422674 0.708153
O O7 0.991757 0.397281 0.642464
O O8 0.783929 0.941693 0.432978
O O9 0.500000 0.000000 0.500000
O O10 0.750000 0.000000 0.267657
#
# Coordination Sequence:
#
# PCOD9506572 Si02
#       5
#    16  16   8  16   8
#     4  10  21  38  56  75 105 145 191 243 284 327
#     4  11  20  35  51  79 112 149 189 230 277 345
#     4  12  22  32  46  70 108 148 184 226 278 314
#     4  12  21  34  53  77 110 147 195 236 271 337
#     4  10  20  34  54  76 110 157 192 227 286 342
#
# _framework density 19.712330999999999
#
# number of rings (size 3 to 8) (size 9 to 14) (size 15 to 20)
#    0.000    1.000    2.500    7.500    0.000    0.000 
#    0.000    0.000    0.000    0.000    0.000    0.000 
#    0.000   60.000    0.000    0.500    0.000    0.000 
#
# Total GULP energy -178487.875231 kJ/mol
# GULP energy per Si atom -5577.746101 kJ/mol
# Density = 1.966746 g / cm^3
# Si number density = 19.712331 Si / 1000 Ang^3
#
#
#
# Elastic Constant Matrix: (Units=GPa)
#
#
# Indices 1 2 3 4 5 6 
#
# 1 147.8477 -0.7348 23.8582 0.0000 0.0000 0.0000
# 2 -0.7348 53.6067 23.0149 0.0000 0.0000 0.0000
# 3 23.8582 23.0149 94.7989 0.0000 0.0000 0.0000
# 4 0.0000 0.0000 0.0000 24.4694 0.0000 0.0000
# 5 0.0000 0.0000 0.0000 0.0000 50.8230 0.0000
# 6 0.0000 0.0000 0.0000 0.0000 0.0000 -3.3772
#
#
#
# Elastic Compliance Matrix: (Units=1/GPa)
#
#
# Indices 1 2 3 4 5 6 
#
# 1 0.007094 0.000964 -0.002020 0.000000 0.000000 0.000000
# 2 0.000964 0.020956 -0.005330 0.000000 0.000000 0.000000
# 3 -0.002020 -0.005330 0.012351 0.000000 0.000000 0.000000
# 4 0.000000 0.000000 0.000000 0.040867 0.000000 0.000000
# 5 0.000000 0.000000 0.000000 0.000000 0.019676 0.000000
# 6 0.000000 0.000000 0.000000 0.000000 0.000000 -0.296099
#
#
# Mechanical properties :
#
#
# Convention : Reuss Voigt Hill
#
# Bulk Modulus (GPa) = 36.19217 43.17000 39.68109
# Shear Modulus (GPa) = -28.87290 31.05735 1.09223
#
# Velocity S-wave (km/s) = -3.83131 3.97360 0.74517
# Velocity P-wave (km/s) = 1.08253 6.55745 4.57320
#
# Compressibility (1/GPa) = 0.02763028
#
# Stress axis : x y z
#
# Youngs Moduli (GPa) = 140.95606 47.71886 80.96521
#
# Poissons Ratio (x) = -0.04602 0.16351
# Poissons Ratio (y) = -0.13592 0.43157
# Poissons Ratio (z) = 0.28467 0.25436
#
# Static dielectric constant tensor:
#      x y z
#    x 1.760500 0.000000 0.000000 
#    y 0.000000 1.416220 0.000000 
#    z 0.000000 0.000000 1.722470 
# 
# From -- ./inp_files/42171.got.cif
#   From: 2010.05.17/outbox.cif.g08.bks.cpg/sg68_22_cif.got.tgz:42171.got - 2010.06.03 18:57:09.
