data_PCOD9506618
_publ_section_title
;
Structure prediction by ZEFSAII (Michael W. Deem and Ramdas Pophale) SiO2 
 PCOD9506618
Probable space group: C C C A
;
_chemical_formula_sum "Si O2"
_cell_formula_units_Z 68
_cell_length_a 8.887490
_cell_length_b 23.033149
_cell_length_c 15.478477
_cell_angle_alpha 90.000000
_cell_angle_beta 90.000000
_cell_angle_gamma 90.000000
_cell_volume 3168.550756
_symmetry_space_group_name_H-M "C C C A"
_symmetry_group_IT_number 68
_space_group.IT_coordinate_system_code '2'
_symmetry_cell_setting 'orthorhombic'
loop_
_space_group_symop_operation_xyz
x,y,z
-x,1/2-y,z
x,1/2-y,1/2-z
-x,y,1/2-z
-x,-y,-z
x,1/2+y,-z
-x,1/2+y,1/2+z
x,-y,1/2+z
1/2+x,1/2+y,z
1/2-x,-y,z
1/2+x,-y,1/2-z
1/2-x,1/2+y,1/2-z
1/2-x,1/2-y,-z
1/2+x,y,-z
1/2-x,y,1/2+z
1/2+x,1/2-y,1/2+z
loop_
_atom_site_type_symbol
_atom_site_label
_atom_site_fract_x
_atom_site_fract_y
_atom_site_fract_z
Si Si1 0.163398 0.444850 0.215229
Si Si2 0.779992 0.931679 0.402654
Si Si3 0.950501 0.861302 0.024730
Si Si4 0.330568 0.171856 0.886064
Si Si5 0.500000 0.750000 0.250000
O O1 0.250000 0.500000 0.178683
O O2 0.250172 0.422831 0.300703
O O3 0.148613 0.394367 0.146395
O O4 0.000000 0.462833 0.250000
O O5 0.662207 0.894545 0.459158
O O6 0.945063 0.908621 0.427310
O O7 0.750000 0.000000 0.418890
O O8 0.843102 0.824567 0.087502
O O9 0.063016 0.821893 0.969109
O O10 0.393262 0.211684 0.810679
#
# Coordination Sequence:
#
# PCOD9506618 Si02
#       5
#    16  16  16  16   4
#     4  11  23  39  61  97 137 182 222 271 334 399
#     4  10  20  34  58  91 134 179 216 262 328 394
#     4  10  22  39  60  94 131 169 221 280 325 406
#     4  11  24  43  68  94 132 174 226 273 346 390
#     4  12  24  48  76  94 132 178 226 286 336 420
#
# _framework density 21.460915
#
# number of rings (size 3 to 8) (size 9 to 14) (size 15 to 20)
#    0.000    1.412    3.529    0.706    6.588    4.706 
#    0.000    0.000    0.000   12.706    0.000    0.000 
#    0.000    0.000    0.000    0.000    0.000    0.000 
#
# Total GULP energy -190187.451191 kJ/mol
# GULP energy per Si atom -5593.748564 kJ/mol
# Density = 2.141207 g / cm^3
# Si number density = 21.460915 Si / 1000 Ang^3
#
#
#
# Elastic Constant Matrix: (Units=GPa)
#
#
# Indices 1 2 3 4 5 6 
#
# 1 150.3440 44.8173 51.9629 0.0000 0.0000 0.0000
# 2 44.8173 61.7710 35.6100 0.0000 0.0000 0.0000
# 3 51.9629 35.6100 74.3121 0.0000 0.0000 0.0000
# 4 0.0000 0.0000 0.0000 48.4030 0.0000 0.0000
# 5 0.0000 0.0000 0.0000 0.0000 25.8680 0.0000
# 6 0.0000 0.0000 0.0000 0.0000 0.0000 12.9731
#
#
#
# Elastic Compliance Matrix: (Units=1/GPa)
#
#
# Indices 1 2 3 4 5 6 
#
# 1 0.009512 -0.004237 -0.004620 0.000000 0.000000 0.000000
# 2 -0.004237 0.024256 -0.008660 0.000000 0.000000 0.000000
# 3 -0.004620 -0.008660 0.020838 0.000000 0.000000 0.000000
# 4 0.000000 0.000000 0.000000 0.020660 0.000000 0.000000
# 5 0.000000 0.000000 0.000000 0.000000 0.038658 0.000000
# 6 0.000000 0.000000 0.000000 0.000000 0.000000 0.077083
#
#
# Mechanical properties :
#
#
# Convention : Reuss Voigt Hill
#
# Bulk Modulus (GPa) = 51.10199 61.24528 56.17363
# Shear Modulus (GPa) = 21.49945 27.71795 24.60870
#
# Velocity S-wave (km/s) = 3.16855 3.59772 3.38993
# Velocity P-wave (km/s) = 6.10325 6.77186 6.44623
#
# Compressibility (1/GPa) = 0.01956871
#
# Stress axis : x y z
#
# Youngs Moduli (GPa) = 105.13587 41.22744 47.99033
#
# Poissons Ratio (x) = 0.17470 0.22174
# Poissons Ratio (y) = 0.44550 0.41561
# Poissons Ratio (z) = 0.48577 0.35704
#
# Static dielectric constant tensor:
#      x y z
#    x 1.804680 0.000000 0.000000 
#    y 0.000000 1.760930 0.000000 
#    z 0.000000 0.000000 1.795750 
# 
# From -- ./inp_files/19368.got.cif
#   From: 2010.05.17/outbox.cif.g08.bks.cpg/sg68_10_cif.got.tgz:19368.got - 2010.06.03 18:57:09.
