data_PCOD9506063
_publ_section_title
;
Structure prediction by ZEFSAII (Michael W. Deem and Ramdas Pophale) SiO2 
 PCOD9506063
Probable space group: C C C A
;
_chemical_formula_sum "Si O2"
_cell_formula_units_Z 96
_cell_length_a 10.347132
_cell_length_b 21.480517
_cell_length_c 23.614846
_cell_angle_alpha 90.000000
_cell_angle_beta 90.000000
_cell_angle_gamma 90.000000
_cell_volume 5248.676876
_symmetry_space_group_name_H-M "C C C A"
_symmetry_group_IT_number 68
_space_group.IT_coordinate_system_code '2'
_symmetry_cell_setting 'orthorhombic'
loop_
_space_group_symop_operation_xyz
x,y,z
-x,1/2-y,z
x,1/2-y,1/2-z
-x,y,1/2-z
-x,-y,-z
x,1/2+y,-z
-x,1/2+y,1/2+z
x,-y,1/2+z
1/2+x,1/2+y,z
1/2-x,-y,z
1/2+x,-y,1/2-z
1/2-x,1/2+y,1/2-z
1/2-x,1/2-y,-z
1/2+x,y,-z
1/2-x,y,1/2+z
1/2+x,1/2-y,1/2+z
loop_
_atom_site_type_symbol
_atom_site_label
_atom_site_fract_x
_atom_site_fract_y
_atom_site_fract_z
Si Si1 0.006711 0.818425 0.070450
Si Si2 0.851990 0.325254 0.247132
Si Si3 0.710085 0.181260 0.879470
Si Si4 0.744629 0.825171 0.131148
Si Si5 0.682282 0.059108 0.552252
Si Si6 0.089992 0.906290 0.528575
O O1 0.896750 0.818530 0.118466
O O2 0.000000 0.750000 0.042996
O O3 0.146702 0.827603 0.096199
O O4 0.969883 0.867930 0.023600
O O5 0.850893 0.250000 0.250000
O O6 0.797243 0.340880 0.185494
O O7 0.781128 0.345086 0.304450
O O8 0.000000 0.346410 0.250000
O O9 0.684200 0.256214 0.879899
O O10 0.619071 0.140572 0.919786
O O11 0.694541 0.877221 0.087833
O O12 0.773862 0.067977 0.496263
O O13 0.529066 0.048548 0.544540
O O14 0.750000 0.000000 0.581745
#
# Coordination Sequence:
#
# PCOD9506063 Si02
#       6
#    16  16  16  16  16  16
#     4   9  19  31  49  83 115 142 175 218 282 342
#     4   9  17  31  50  80 110 138 174 217 274 335
#     4  10  19  33  56  85 113 140 177 230 288 339
#     4   9  20  34  54  81 112 144 180 226 279 336
#     4  11  23  37  54  77 108 151 188 224 270 328
#     4  11  21  35  56  80 110 142 182 233 275 327
#
# _framework density 18.290324999999999
#
# number of rings (size 3 to 8) (size 9 to 14) (size 15 to 20)
#    0.000    2.167    1.667    1.500    2.333    4.000 
#    0.000    3.333    0.000    1.000   17.333    0.000 
#    0.000    0.000    0.000    0.000    0.000    0.000 
#
# Total GULP energy -267489.569595 kJ/mol
# GULP energy per Si atom -5572.699367 kJ/mol
# Density = 1.824870 g / cm^3
# Si number density = 18.290325 Si / 1000 Ang^3
#
#
#
# Elastic Constant Matrix: (Units=GPa)
#
#
# Indices 1 2 3 4 5 6 
#
# 1 85.0806 20.7905 27.7023 0.0000 0.0000 0.0000
# 2 20.7905 50.6923 27.0830 0.0000 0.0000 0.0000
# 3 27.7023 27.0830 94.2728 0.0000 0.0000 0.0000
# 4 0.0000 0.0000 0.0000 6.8927 0.0000 0.0000
# 5 0.0000 0.0000 0.0000 0.0000 11.7536 0.0000
# 6 0.0000 0.0000 0.0000 0.0000 0.0000 20.8343
#
#
#
# Elastic Compliance Matrix: (Units=1/GPa)
#
#
# Indices 1 2 3 4 5 6 
#
# 1 0.013679 -0.004091 -0.002845 0.000000 0.000000 0.000000
# 2 -0.004091 0.024527 -0.005844 0.000000 0.000000 0.000000
# 3 -0.002845 -0.005844 0.013122 0.000000 0.000000 0.000000
# 4 0.000000 0.000000 0.000000 0.145082 0.000000 0.000000
# 5 0.000000 0.000000 0.000000 0.000000 0.085081 0.000000
# 6 0.000000 0.000000 0.000000 0.000000 0.000000 0.047998
#
#
# Mechanical properties :
#
#
# Convention : Reuss Voigt Hill
#
# Bulk Modulus (GPa) = 38.80487 42.35527 40.58007
# Shear Modulus (GPa) = 13.74997 18.19410 15.97204
#
# Velocity S-wave (km/s) = 2.74480 3.15737 2.95829
# Velocity P-wave (km/s) = 5.59530 6.04148 5.82266
#
# Compressibility (1/GPa) = 0.02576996
#
# Stress axis : x y z
#
# Youngs Moduli (GPa) = 73.10297 40.77168 76.20607
#
# Poissons Ratio (x) = 0.16678 0.21677
# Poissons Ratio (y) = 0.29903 0.44536
# Poissons Ratio (z) = 0.20795 0.23827
#
# Static dielectric constant tensor:
#      x y z
#    x 1.660480 0.000000 0.000000 
#    y 0.000000 1.664970 0.000000 
#    z 0.000000 0.000000 1.614160 
# 
# From -- ./inp_files/37765.got.cif
#   From: 2010.05.17/outbox.cif.g08.bks.cpg/sg68_19_cif.got.tgz:37765.got - 2010.06.03 18:57:09.
