data_PCOD9506965
_publ_section_title
;
Structure prediction by ZEFSAII (Michael W. Deem and Ramdas Pophale) SiO2 
 PCOD9506965
Probable space group: C C C A
;
_chemical_formula_sum "Si O2"
_cell_formula_units_Z 56
_cell_length_a 14.756646
_cell_length_b 17.158256
_cell_length_c 9.280079
_cell_angle_alpha 90.000000
_cell_angle_beta 90.000000
_cell_angle_gamma 90.000000
_cell_volume 2349.700317
_symmetry_space_group_name_H-M "C C C A"
_symmetry_group_IT_number 68
_space_group.IT_coordinate_system_code '2'
_symmetry_cell_setting 'orthorhombic'
loop_
_space_group_symop_operation_xyz
x,y,z
-x,1/2-y,z
x,1/2-y,1/2-z
-x,y,1/2-z
-x,-y,-z
x,1/2+y,-z
-x,1/2+y,1/2+z
x,-y,1/2+z
1/2+x,1/2+y,z
1/2-x,-y,z
1/2+x,-y,1/2-z
1/2-x,1/2+y,1/2-z
1/2-x,1/2-y,-z
1/2+x,y,-z
1/2-x,y,1/2+z
1/2+x,1/2-y,1/2+z
loop_
_atom_site_type_symbol
_atom_site_label
_atom_site_fract_x
_atom_site_fract_y
_atom_site_fract_z
Si Si1 0.611915 0.219273 0.905971
Si Si2 0.685680 0.158581 0.387348
Si Si3 0.916046 0.400583 0.860311
Si Si4 0.250000 0.000000 0.472400
O O1 0.584261 0.250000 0.750000
O O2 0.715095 0.193140 0.885955
O O3 0.620195 0.294598 0.007373
O O4 0.564978 0.145953 0.989749
O O5 0.641660 0.160728 0.231635
O O6 0.705637 0.070230 0.437303
O O7 0.839384 0.466596 0.889636
O O8 0.000000 0.421216 0.750000
#
# Coordination Sequence:
#
# PCOD9506965 Si02
#       4
#    16  16  16   8
#     4  10  20  38  65  95 130 179 232 287 350 416
#     4  10  20  37  63  93 131 179 231 283 345 417
#     4  11  24  42  67  98 138 185 237 293 355 419
#     4  10  22  40  66  96 136 186 234 288 350 422
#
# _framework density 23.832827000000002
#
# number of rings (size 3 to 8) (size 9 to 14) (size 15 to 20)
#    0.000    1.714    0.000    6.857    0.000    5.714 
#    0.000    2.857    0.000    0.000    0.000    0.000 
#    0.000    0.000    0.000    0.000    0.000    0.143 
#
# Total GULP energy -156104.446024 kJ/mol
# GULP energy per Si atom -5575.158787 kJ/mol
# Density = 2.377858 g / cm^3
# Si number density = 23.832827 Si / 1000 Ang^3
#
#
#
# Elastic Constant Matrix: (Units=GPa)
#
#
# Indices 1 2 3 4 5 6 
#
# 1 155.1120 24.6885 30.6459 0.0000 0.0000 0.0000
# 2 24.6885 109.7117 44.1098 0.0000 0.0000 0.0000
# 3 30.6459 44.1098 138.5064 0.0000 0.0000 0.0000
# 4 0.0000 0.0000 0.0000 33.1562 0.0000 0.0000
# 5 0.0000 0.0000 0.0000 0.0000 54.6291 0.0000
# 6 0.0000 0.0000 0.0000 0.0000 0.0000 -158.9719
#
#
#
# Elastic Compliance Matrix: (Units=1/GPa)
#
#
# Indices 1 2 3 4 5 6 
#
# 1 0.006849 -0.001069 -0.001175 0.000000 0.000000 0.000000
# 2 -0.001069 0.010620 -0.003146 0.000000 0.000000 0.000000
# 3 -0.001175 -0.003146 0.008482 0.000000 0.000000 0.000000
# 4 0.000000 0.000000 0.000000 0.030160 0.000000 0.000000
# 5 0.000000 0.000000 0.000000 0.000000 0.018305 0.000000
# 6 0.000000 0.000000 0.000000 0.000000 0.000000 -0.006290
#
#
# Mechanical properties :
#
#
# Convention : Reuss Voigt Hill
#
# Bulk Modulus (GPa) = 65.91168 66.91316 66.41242
# Shear Modulus (GPa) = 59.55045 6.02175 32.78610
#
# Velocity S-wave (km/s) = 5.00410 1.59127 3.71303
# Velocity P-wave (km/s) = 7.81690 5.61366 6.80504
#
# Compressibility (1/GPa) = 0.01517182
#
# Stress axis : x y z
#
# Youngs Moduli (GPa) = 146.00161 94.16168 117.90143
#
# Poissons Ratio (x) = 0.10064 0.13854
# Poissons Ratio (y) = 0.15605 0.37088
# Poissons Ratio (z) = 0.17156 0.29620
#
# Static dielectric constant tensor:
#      x y z
#    x 1.901820 0.000000 0.000000 
#    y 0.000000 -2.048370 0.000000 
#    z 0.000000 0.000000 1.973660 
# 
# From -- ./inp_files/12672.got.cif
#   From: 2010.05.17/outbox.cif.g08.bks.cpg/sg68_7_cif.got.tgz:12672.got - 2010.06.03 18:57:09.
