data_PCOD9506260
_publ_section_title
;
Structure prediction by ZEFSAII (Michael W. Deem and Ramdas Pophale) SiO2 
 PCOD9506260
Probable space group: C C C A
;
_chemical_formula_sum "Si O2"
_cell_formula_units_Z 88
_cell_length_a 15.990329
_cell_length_b 30.662141
_cell_length_c 8.721330
_cell_angle_alpha 90.000000
_cell_angle_beta 90.000000
_cell_angle_gamma 90.000000
_cell_volume 4276.048236
_symmetry_space_group_name_H-M "C C C A"
_symmetry_group_IT_number 68
_space_group.IT_coordinate_system_code '2'
_symmetry_cell_setting 'orthorhombic'
loop_
_space_group_symop_operation_xyz
x,y,z
-x,1/2-y,z
x,1/2-y,1/2-z
-x,y,1/2-z
-x,-y,-z
x,1/2+y,-z
-x,1/2+y,1/2+z
x,-y,1/2+z
1/2+x,1/2+y,z
1/2-x,-y,z
1/2+x,-y,1/2-z
1/2-x,1/2+y,1/2-z
1/2-x,1/2-y,-z
1/2+x,y,-z
1/2-x,y,1/2+z
1/2+x,1/2-y,1/2+z
loop_
_atom_site_type_symbol
_atom_site_label
_atom_site_fract_x
_atom_site_fract_y
_atom_site_fract_z
Si Si1 0.792579 0.360322 0.821334
Si Si2 0.423281 0.630343 0.407312
Si Si3 0.750000 0.000000 0.534772
Si Si4 0.638761 0.203013 0.677100
Si Si5 0.174826 0.559639 0.774510
Si Si6 0.440619 0.171019 0.111032
O O1 0.728127 0.320585 0.843131
O O2 0.739300 0.402647 0.777751
O O3 0.859330 0.350005 0.688535
O O4 0.845566 0.367237 0.974811
O O5 0.410968 0.670840 0.292192
O O6 0.409381 0.585867 0.313711
O O7 0.505061 0.636602 0.511332
O O8 0.818908 0.976582 0.642031
O O9 0.707407 0.964456 0.426027
O O10 0.647402 0.250000 0.750000
O O11 0.591494 0.205276 0.514324
O O12 0.500000 0.186925 0.250000
#
# Coordination Sequence:
#
# PCOD9506260 Si02
#       6
#    16  16   8  16  16  16
#     4  10  21  39  64  90 125 167 214 261 311 381
#     4  10  21  38  60  89 127 171 207 259 320 378
#     4  10  20  32  62  94 126 162 216 274 304 370
#     4  11  23  40  63  93 124 164 217 262 307 374
#     4  10  19  36  59  94 123 165 216 257 317 366
#     4  10  23  41  62  91 125 172 204 257 321 376
#
# _framework density 20.579750000000001
#
# number of rings (size 3 to 8) (size 9 to 14) (size 15 to 20)
#    0.000    1.818    1.818    2.727    2.545    4.364 
#    0.000    7.273    0.000    6.545    0.000    0.000 
#    0.000    0.000    0.000    0.000    0.000    0.000 
#
# Total GULP energy -245819.544294 kJ/mol
# GULP energy per Si atom -5586.807825 kJ/mol
# Density = 2.053291 g / cm^3
# Si number density = 20.579750 Si / 1000 Ang^3
#
#
#
# Elastic Constant Matrix: (Units=GPa)
#
#
# Indices 1 2 3 4 5 6 
#
# 1 108.2647 31.2318 46.8538 0.0000 0.0000 0.0000
# 2 31.2318 113.4830 53.3010 0.0000 0.0000 0.0000
# 3 46.8538 53.3010 136.6965 0.0000 0.0000 0.0000
# 4 0.0000 0.0000 0.0000 21.9202 0.0000 0.0000
# 5 0.0000 0.0000 0.0000 0.0000 36.2775 0.0000
# 6 0.0000 0.0000 0.0000 0.0000 0.0000 -5.2596
#
#
#
# Elastic Compliance Matrix: (Units=1/GPa)
#
#
# Indices 1 2 3 4 5 6 
#
# 1 0.011063 -0.001547 -0.003189 0.000000 0.000000 0.000000
# 2 -0.001547 0.011004 -0.003760 0.000000 0.000000 0.000000
# 3 -0.003189 -0.003760 0.009875 0.000000 0.000000 0.000000
# 4 0.000000 0.000000 0.000000 0.045620 0.000000 0.000000
# 5 0.000000 0.000000 0.000000 0.000000 0.027565 0.000000
# 6 0.000000 0.000000 0.000000 0.000000 0.000000 -0.190129
#
#
# Mechanical properties :
#
#
# Convention : Reuss Voigt Hill
#
# Bulk Modulus (GPa) = 66.89285 69.02415 67.95850
# Shear Modulus (GPa) = -79.33054 25.72481 -26.80287
#
# Velocity S-wave (km/s) = -6.21543 3.53938 -3.61278
# Velocity P-wave (km/s) = 4.35132 7.09335 3.96116
#
# Compressibility (1/GPa) = 0.01494928
#
# Stress axis : x y z
#
# Youngs Moduli (GPa) = 90.39259 90.87749 101.26897
#
# Poissons Ratio (x) = 0.14058 0.32292
# Poissons Ratio (y) = 0.13983 0.38081
# Poissons Ratio (z) = 0.28823 0.34174
#
# Static dielectric constant tensor:
#      x y z
#    x 1.757910 0.000000 0.000000 
#    y 0.000000 1.700340 0.000000 
#    z 0.000000 0.000000 1.764820 
# 
# From -- ./inp_files/6404.got.cif
#   From: 2010.05.17/outbox.cif.g08.bks.cpg/sg68_4_cif.got.tgz:6404.got - 2010.06.03 18:57:09.
