data_PCOD9506051
_publ_section_title
;
Structure prediction by ZEFSAII (Michael W. Deem and Ramdas Pophale) SiO2 
 PCOD9506051
Probable space group: C C C A
;
_chemical_formula_sum "Si O2"
_cell_formula_units_Z 104
_cell_length_a 20.330735
_cell_length_b 14.196253
_cell_length_c 18.596983
_cell_angle_alpha 90.000000
_cell_angle_beta 90.000000
_cell_angle_gamma 90.000000
_cell_volume 5367.466027
_symmetry_space_group_name_H-M "C C C A"
_symmetry_group_IT_number 68
_space_group.IT_coordinate_system_code '2'
_symmetry_cell_setting 'orthorhombic'
loop_
_space_group_symop_operation_xyz
x,y,z
-x,1/2-y,z
x,1/2-y,1/2-z
-x,y,1/2-z
-x,-y,-z
x,1/2+y,-z
-x,1/2+y,1/2+z
x,-y,1/2+z
1/2+x,1/2+y,z
1/2-x,-y,z
1/2+x,-y,1/2-z
1/2-x,1/2+y,1/2-z
1/2-x,1/2-y,-z
1/2+x,y,-z
1/2-x,y,1/2+z
1/2+x,1/2-y,1/2+z
loop_
_atom_site_type_symbol
_atom_site_label
_atom_site_fract_x
_atom_site_fract_y
_atom_site_fract_z
Si Si1 0.432462 0.806012 0.415556
Si Si2 0.618447 0.639951 0.271830
Si Si3 0.712489 0.353674 0.156964
Si Si4 0.637864 0.385590 0.615411
Si Si5 0.730749 0.867094 0.686202
Si Si6 0.750000 0.500000 0.433540
Si Si7 0.633207 0.067131 0.470148
O O1 0.500000 0.750000 0.421513
O O2 0.428949 0.864230 0.340431
O O3 0.378942 0.720942 0.409028
O O4 0.417451 0.874645 0.481677
O O5 0.620343 0.750000 0.250000
O O6 0.606110 0.594024 0.194118
O O7 0.691421 0.616959 0.300017
O O8 0.783287 0.391302 0.128794
O O9 0.698925 0.391886 0.237222
O O10 0.720554 0.241915 0.167820
O O11 0.656349 0.378390 0.101051
O O12 0.615549 0.462454 0.557435
O O13 0.711193 0.929435 0.618870
O O14 0.698444 0.556221 0.481141
#
# Coordination Sequence:
#
# PCOD9506051 Si02
#       7
#    16  16  16  16  16   8  16
#     4  11  24  41  60  82 119 161 210 256 297 356
#     4   9  16  35  56  82 110 151 199 245 293 346
#     4  10  19  36  55  84 121 157 189 238 310 370
#     4  10  20  36  59  86 121 152 195 254 296 366
#     4  10  19  33  54  82 120 155 190 239 292 378
#     4  12  22  28  54  92 126 152 190 238 308 386
#     4  12  24  34  57  94 121 162 190 242 329 369
#
# _framework density 19.375996000000001
#
# number of rings (size 3 to 8) (size 9 to 14) (size 15 to 20)
#    0.000    1.538    7.692    0.000    6.462    4.615 
#    0.000    0.000    0.000    0.000    0.000    0.000 
#    0.000    0.000    0.000    0.000    0.000    0.000 
#
# Total GULP energy -290133.458270 kJ/mol
# GULP energy per Si atom -5579.489582 kJ/mol
# Density = 1.933190 g / cm^3
# Si number density = 19.375996 Si / 1000 Ang^3
#
#
#
# Elastic Constant Matrix: (Units=GPa)
#
#
# Indices 1 2 3 4 5 6 
#
# 1 12.9069 -13.8091 13.4381 0.0000 0.0000 0.0000
# 2 -13.8091 59.3037 41.2739 0.0000 0.0000 0.0000
# 3 13.4381 41.2739 129.9940 0.0000 0.0000 0.0000
# 4 0.0000 0.0000 0.0000 43.7479 0.0000 0.0000
# 5 0.0000 0.0000 0.0000 0.0000 3.6224 0.0000
# 6 0.0000 0.0000 0.0000 0.0000 0.0000 15.6732
#
#
#
# Elastic Compliance Matrix: (Units=1/GPa)
#
#
# Indices 1 2 3 4 5 6 
#
# 1 0.224948 0.088013 -0.051198 0.000000 0.000000 0.000000
# 2 0.088013 0.056081 -0.026904 0.000000 0.000000 0.000000
# 3 -0.051198 -0.026904 0.021528 0.000000 0.000000 0.000000
# 4 0.000000 0.000000 0.000000 0.022858 0.000000 0.000000
# 5 0.000000 0.000000 0.000000 0.000000 0.276062 0.000000
# 6 0.000000 0.000000 0.000000 0.000000 0.000000 0.063803
#
#
# Mechanical properties :
#
#
# Convention : Reuss Voigt Hill
#
# Bulk Modulus (GPa) = 3.10196 31.55672 17.32934
# Shear Modulus (GPa) = 6.64082 23.36214 15.00148
#
# Velocity S-wave (km/s) = 1.85332 3.47612 2.78552
# Velocity P-wave (km/s) = 2.48679 5.69501 4.39416
#
# Compressibility (1/GPa) = 0.32237642
#
# Stress axis : x y z
#
# Youngs Moduli (GPa) = 4.44547 17.83129 46.45202
#
# Poissons Ratio (x) = -1.56938 2.37827
# Poissons Ratio (y) = -0.39126 1.24976
# Poissons Ratio (z) = 0.22760 0.47974
#
# Static dielectric constant tensor:
#      x y z
#    x 1.674760 0.000000 0.000000 
#    y 0.000000 1.712440 0.000000 
#    z 0.000000 0.000000 1.723210 
# 
# From -- ./inp_files/31128.got.cif
#   From: 2010.05.17/outbox.cif.g08.bks.cpg/sg68_16_cif.got.tgz:31128.got - 2010.06.03 18:57:09.
