data_PCOD9506090
_publ_section_title
;
Structure prediction by ZEFSAII (Michael W. Deem and Ramdas Pophale) SiO2 
 PCOD9506090
Probable space group: C C C A
;
_chemical_formula_sum "Si O2"
_cell_formula_units_Z 80
_cell_length_a 15.214464
_cell_length_b 22.329184
_cell_length_c 12.092859
_cell_angle_alpha 90.000000
_cell_angle_beta 90.000000
_cell_angle_gamma 90.000000
_cell_volume 4108.265463
_symmetry_space_group_name_H-M "C C C A"
_symmetry_group_IT_number 68
_space_group.IT_coordinate_system_code '2'
_symmetry_cell_setting 'orthorhombic'
loop_
_space_group_symop_operation_xyz
x,y,z
-x,1/2-y,z
x,1/2-y,1/2-z
-x,y,1/2-z
-x,-y,-z
x,1/2+y,-z
-x,1/2+y,1/2+z
x,-y,1/2+z
1/2+x,1/2+y,z
1/2-x,-y,z
1/2+x,-y,1/2-z
1/2-x,1/2+y,1/2-z
1/2-x,1/2-y,-z
1/2+x,y,-z
1/2-x,y,1/2+z
1/2+x,1/2-y,1/2+z
loop_
_atom_site_type_symbol
_atom_site_label
_atom_site_fract_x
_atom_site_fract_y
_atom_site_fract_z
Si Si1 0.102644 0.420210 0.252451
Si Si2 0.176786 0.109502 0.489776
Si Si3 0.186913 0.250000 0.750000
Si Si4 0.816949 0.179985 0.384039
Si Si5 0.750000 0.500000 0.627257
Si Si6 0.596133 0.771380 0.970762
O O1 0.141332 0.403727 0.132143
O O2 0.108880 0.361776 0.332108
O O3 0.174653 0.466171 0.302470
O O4 0.000000 0.439744 0.250000
O O5 0.267319 0.145857 0.515983
O O6 0.196710 0.048054 0.553422
O O7 0.107103 0.157457 0.538557
O O8 0.247903 0.194467 0.713481
O O9 0.127815 0.241054 0.857399
O O10 0.846003 0.243986 0.430411
O O11 0.500000 0.750000 0.995542
#
# Coordination Sequence:
#
# PCOD9506090 Si02
#       6
#    16  16   8  16   8  16
#     4  11  22  39  62  87 115 153 201 248 296 352
#     4  10  21  39  59  83 118 156 197 245 297 353
#     4  10  19  34  53  78 118 160 186 222 292 364
#     4  10  20  35  58  85 116 153 190 238 300 359
#     4  10  24  42  60  84 118 162 206 248 294 348
#     4  11  21  35  57  89 121 148 190 244 300 361
#
# _framework density 19.472939
#
# number of rings (size 3 to 8) (size 9 to 14) (size 15 to 20)
#    0.000    1.600    0.000    6.900    0.000    0.800 
#    0.000   10.000    0.000    0.000    0.000    0.000 
#    0.000    0.000    0.000    0.000    0.000    0.000 
#
# Total GULP energy -222833.099885 kJ/mol
# GULP energy per Si atom -5570.827497 kJ/mol
# Density = 1.942862 g / cm^3
# Si number density = 19.472939 Si / 1000 Ang^3
#
#
#
# Elastic Constant Matrix: (Units=GPa)
#
#
# Indices 1 2 3 4 5 6 
#
# 1 85.9625 32.8089 50.1094 0.0000 0.0000 0.0000
# 2 32.8089 98.0724 44.4192 0.0000 0.0000 0.0000
# 3 50.1094 44.4192 118.0853 0.0000 0.0000 0.0000
# 4 0.0000 0.0000 0.0000 25.6985 0.0000 0.0000
# 5 0.0000 0.0000 0.0000 0.0000 4.6720 0.0000
# 6 0.0000 0.0000 0.0000 0.0000 0.0000 14.1187
#
#
#
# Elastic Compliance Matrix: (Units=1/GPa)
#
#
# Indices 1 2 3 4 5 6 
#
# 1 0.016050 -0.002754 -0.005775 0.000000 0.000000 0.000000
# 2 -0.002754 0.012763 -0.003632 0.000000 0.000000 0.000000
# 3 -0.005775 -0.003632 0.012285 0.000000 0.000000 0.000000
# 4 0.000000 0.000000 0.000000 0.038913 0.000000 0.000000
# 5 0.000000 0.000000 0.000000 0.000000 0.214041 0.000000
# 6 0.000000 0.000000 0.000000 0.000000 0.000000 0.070828
#
#
# Mechanical properties :
#
#
# Convention : Reuss Voigt Hill
#
# Bulk Modulus (GPa) = 59.60782 61.86615 60.73699
# Shear Modulus (GPa) = 12.66478 20.55002 16.60740
#
# Velocity S-wave (km/s) = 2.55302 3.25208 2.92352
# Velocity P-wave (km/s) = 6.27436 6.77795 6.53101
#
# Compressibility (1/GPa) = 0.01677632
#
# Stress axis : x y z
#
# Youngs Moduli (GPa) = 62.30355 78.35158 81.39680
#
# Poissons Ratio (x) = 0.21576 0.47008
# Poissons Ratio (y) = 0.17157 0.29566
# Poissons Ratio (z) = 0.35981 0.28460
#
# Static dielectric constant tensor:
#      x y z
#    x 1.699380 0.000000 0.000000 
#    y 0.000000 1.692590 0.000000 
#    z 0.000000 0.000000 1.677360 
# 
# From -- ./inp_files/13261.got.cif
#   From: 2010.05.17/outbox.cif.g08.bks.cpg/sg68_7_cif.got.tgz:13261.got - 2010.06.03 18:57:09.
