data_PCOD9506034
_publ_section_title
;
Structure prediction by ZEFSAII (Michael W. Deem and Ramdas Pophale) SiO2 
 PCOD9506034
Probable space group: C C C A
;
_chemical_formula_sum "Si O2"
_cell_formula_units_Z 88
_cell_length_a 5.083071
_cell_length_b 25.352319
_cell_length_c 34.025496
_cell_angle_alpha 90.000000
_cell_angle_beta 90.000000
_cell_angle_gamma 90.000000
_cell_volume 4384.785284
_symmetry_space_group_name_H-M "C C C A"
_symmetry_group_IT_number 68
_space_group.IT_coordinate_system_code '2'
_symmetry_cell_setting 'orthorhombic'
loop_
_space_group_symop_operation_xyz
x,y,z
-x,1/2-y,z
x,1/2-y,1/2-z
-x,y,1/2-z
-x,-y,-z
x,1/2+y,-z
-x,1/2+y,1/2+z
x,-y,1/2+z
1/2+x,1/2+y,z
1/2-x,-y,z
1/2+x,-y,1/2-z
1/2-x,1/2+y,1/2-z
1/2-x,1/2-y,-z
1/2+x,y,-z
1/2-x,y,1/2+z
1/2+x,1/2-y,1/2+z
loop_
_atom_site_type_symbol
_atom_site_label
_atom_site_fract_x
_atom_site_fract_y
_atom_site_fract_z
Si Si1 0.891716 0.947203 0.655146
Si Si2 0.500000 0.750000 0.528288
Si Si3 0.102252 0.157545 0.294243
Si Si4 0.605419 0.805772 0.837052
Si Si5 0.558891 0.866432 0.971701
Si Si6 0.896959 0.590042 0.111055
O O1 0.904953 0.901786 0.688183
O O2 0.683438 0.930974 0.621835
O O3 0.173780 0.944071 0.633402
O O4 0.750000 0.000000 0.671482
O O5 0.250000 0.750000 0.500000
O O6 0.528930 0.692643 0.547494
O O7 0.395069 0.178171 0.303110
O O8 0.000000 0.158271 0.250000
O O9 0.895535 0.192613 0.318882
O O10 0.500000 0.750000 0.852533
O O11 0.611231 0.852083 0.869055
O O12 0.622075 0.904757 0.935605
O O13 0.290323 0.871947 0.996279
#
# Coordination Sequence:
#
# PCOD9506034 Si02
#       6
#    16   8  16  16  16  16
#     4  10  21  40  60  80 106 143 186 233 287 332
#     4   8  16  28  44  72 104 138 171 206 263 320
#     4  10  21  37  56  84 113 141 185 230 271 331
#     4  10  21  35  54  82 116 154 185 215 266 330
#     4  10  19  33  53  79 111 145 182 228 278 322
#     4  10  21  36  58  82 109 147 187 231 274 336
#
# _framework density 20.069399000000001
#
# number of rings (size 3 to 8) (size 9 to 14) (size 15 to 20)
#    0.000    2.182    0.000    2.727    1.273    2.182 
#    0.000    5.455    0.000   10.909    0.000    0.000 
#    0.000    0.000    0.000    0.000    0.000    0.000 
#
# Total GULP energy -245111.644109 kJ/mol
# GULP energy per Si atom -5570.719184 kJ/mol
# Density = 2.002372 g / cm^3
# Si number density = 20.069399 Si / 1000 Ang^3
#
#
#
# Elastic Constant Matrix: (Units=GPa)
#
#
# Indices 1 2 3 4 5 6 
#
# 1 105.6314 23.0921 16.1783 0.0000 0.0000 0.0000
# 2 23.0921 92.3072 -1.7999 0.0000 0.0000 0.0000
# 3 16.1783 -1.7999 32.0167 0.0000 0.0000 0.0000
# 4 0.0000 0.0000 0.0000 -2.1812 0.0000 0.0000
# 5 0.0000 0.0000 0.0000 0.0000 4.5567 0.0000
# 6 0.0000 0.0000 0.0000 0.0000 0.0000 33.6673
#
#
#
# Elastic Compliance Matrix: (Units=1/GPa)
#
#
# Indices 1 2 3 4 5 6 
#
# 1 0.010964 -0.002854 -0.005701 0.000000 0.000000 0.000000
# 2 -0.002854 0.011588 0.002094 0.000000 0.000000 0.000000
# 3 -0.005701 0.002094 0.034232 0.000000 0.000000 0.000000
# 4 0.000000 0.000000 0.000000 -0.458474 0.000000 0.000000
# 5 0.000000 0.000000 0.000000 0.000000 0.219458 0.000000
# 6 0.000000 0.000000 0.000000 0.000000 0.000000 0.029702
#
#
# Mechanical properties :
#
#
# Convention : Reuss Voigt Hill
#
# Bulk Modulus (GPa) = 22.79870 33.87734 28.33802
# Shear Modulus (GPa) = -40.00417 20.04089 -9.98164
#
# Velocity S-wave (km/s) = -4.46947 3.16346 -2.23257
# Velocity P-wave (km/s) = 3.90517 5.50091 2.73950
#
# Compressibility (1/GPa) = 0.04386216
#
# Stress axis : x y z
#
# Youngs Moduli (GPa) = 91.20869 86.29488 29.21247
#
# Poissons Ratio (x) = 0.24628 0.16653
# Poissons Ratio (y) = 0.26030 -0.06116
# Poissons Ratio (z) = 0.51994 -0.18067
#
# Static dielectric constant tensor:
#      x y z
#    x 1.670590 0.000000 0.000000 
#    y 0.000000 1.828800 0.000000 
#    z 0.000000 0.000000 1.659360 
# 
# From -- ./inp_files/53263.got.cif
#   From: 2010.05.17/outbox.cif.g08.bks.cpg/sg68_27_cif.got.tgz:53263.got - 2010.06.03 18:57:09.
