data_PCOD9506560
_publ_section_title
;
Structure prediction by ZEFSAII (Michael W. Deem and Ramdas Pophale) SiO2 
 PCOD9506560
Probable space group: C C C A
;
_chemical_formula_sum "Si O2"
_cell_formula_units_Z 64
_cell_length_a 40.407954
_cell_length_b 13.318701
_cell_length_c 4.876368
_cell_angle_alpha 90.000000
_cell_angle_beta 90.000000
_cell_angle_gamma 90.000000
_cell_volume 2624.370837
_symmetry_space_group_name_H-M "C C C A"
_symmetry_group_IT_number 68
_space_group.IT_coordinate_system_code '2'
_symmetry_cell_setting 'orthorhombic'
loop_
_space_group_symop_operation_xyz
x,y,z
-x,1/2-y,z
x,1/2-y,1/2-z
-x,y,1/2-z
-x,-y,-z
x,1/2+y,-z
-x,1/2+y,1/2+z
x,-y,1/2+z
1/2+x,1/2+y,z
1/2-x,-y,z
1/2+x,-y,1/2-z
1/2-x,1/2+y,1/2-z
1/2-x,1/2-y,-z
1/2+x,y,-z
1/2-x,y,1/2+z
1/2+x,1/2-y,1/2+z
loop_
_atom_site_type_symbol
_atom_site_label
_atom_site_fract_x
_atom_site_fract_y
_atom_site_fract_z
Si Si1 0.832338 0.317527 0.489805
Si Si2 0.892811 0.568907 0.723356
Si Si3 0.270181 0.372173 0.255231
Si Si4 0.965277 0.929202 0.814156
O O1 0.815694 0.250000 0.250000
O O2 0.863328 0.364300 0.333986
O O3 0.805764 0.396006 0.614028
O O4 0.842839 0.250000 0.750000
O O5 0.890475 0.531282 0.411903
O O6 0.929481 0.616523 0.752382
O O7 0.271542 0.250000 0.250000
O O8 0.239925 0.401880 0.452027
O O9 0.000000 0.875644 0.750000
O O10 0.965749 0.029567 0.622980
#
# Coordination Sequence:
#
# PCOD9506560 Si02
#       4
#    16  16  16  16
#     4  11  21  33  52  77 103 132 168 211 257 305
#     4  10  20  34  52  75 104 135 166 206 255 303
#     4   9  16  28  47  70  93 122 167 214 246 284
#     4   8  14  26  46  71  94 121 163 204 232 273
#
# _framework density 24.386797000000001
#
# number of rings (size 3 to 8) (size 9 to 14) (size 15 to 20)
#    0.000    2.500    0.000    5.250    0.000    0.000 
#    0.000    0.000    0.000    5.250    0.000    1.750 
#    0.000    0.000    0.000    0.000    0.000    0.000 
#
# Total GULP energy -178642.388432 kJ/mol
# GULP energy per Si atom -5582.574638 kJ/mol
# Density = 2.433129 g / cm^3
# Si number density = 24.386797 Si / 1000 Ang^3
#
#
#
# Elastic Constant Matrix: (Units=GPa)
#
#
# Indices 1 2 3 4 5 6 
#
# 1 181.6570 19.3529 11.4082 0.0000 0.0000 0.0000
# 2 19.3529 46.2201 -7.9457 0.0000 0.0000 0.0000
# 3 11.4082 -7.9457 103.7607 0.0000 0.0000 0.0000
# 4 0.0000 0.0000 0.0000 13.0012 0.0000 0.0000
# 5 0.0000 0.0000 0.0000 0.0000 42.4944 0.0000
# 6 0.0000 0.0000 0.0000 0.0000 0.0000 -5.4526
#
#
#
# Elastic Compliance Matrix: (Units=1/GPa)
#
#
# Indices 1 2 3 4 5 6 
#
# 1 0.005833 -0.002587 -0.000839 0.000000 0.000000 0.000000
# 2 -0.002587 0.023071 0.002051 0.000000 0.000000 0.000000
# 3 -0.000839 0.002051 0.009887 0.000000 0.000000 0.000000
# 4 0.000000 0.000000 0.000000 0.076916 0.000000 0.000000
# 5 0.000000 0.000000 0.000000 0.000000 0.023532 0.000000
# 6 0.000000 0.000000 0.000000 0.000000 0.000000 -0.183397
#
#
# Mechanical properties :
#
#
# Convention : Reuss Voigt Hill
#
# Bulk Modulus (GPa) = 27.74589 41.91875 34.83232
# Shear Modulus (GPa) = -170.10508 30.59676 -69.75416
#
# Velocity S-wave (km/s) = -8.36088 3.54594 -5.35400
# Velocity P-wave (km/s) = 9.04454 5.83021 4.88939
#
# Compressibility (1/GPa) = 0.03604138
#
# Stress axis : x y z
#
# Youngs Moduli (GPa) = 171.43320 43.34387 101.14373
#
# Poissons Ratio (x) = 0.11212 0.08490
# Poissons Ratio (y) = 0.44345 -0.20746
# Poissons Ratio (z) = 0.14391 -0.08890
#
# Static dielectric constant tensor:
#      x y z
#    x 2.041070 0.000000 0.000000 
#    y 0.000000 2.015180 0.000000 
#    z 0.000000 0.000000 1.891160 
# 
# From -- ./inp_files/2613.got.cif
#   From: 2010.05.17/outbox.cif.g08.bks.cpg/sg68_2_cif.got.tgz:2613.got - 2010.06.03 18:57:09.
