data_PCOD9506620
_publ_section_title
;
Structure prediction by ZEFSAII (Michael W. Deem and Ramdas Pophale) SiO2 
 PCOD9506620
Probable space group: C C C A
;
_chemical_formula_sum "Si O2"
_cell_formula_units_Z 120
_cell_length_a 20.207887
_cell_length_b 30.009530
_cell_length_c 8.739319
_cell_angle_alpha 90.000000
_cell_angle_beta 90.000000
_cell_angle_gamma 90.000000
_cell_volume 5299.778152
_symmetry_space_group_name_H-M "C C C A"
_symmetry_group_IT_number 68
_space_group.IT_coordinate_system_code '2'
_symmetry_cell_setting 'orthorhombic'
loop_
_space_group_symop_operation_xyz
x,y,z
-x,1/2-y,z
x,1/2-y,1/2-z
-x,y,1/2-z
-x,-y,-z
x,1/2+y,-z
-x,1/2+y,1/2+z
x,-y,1/2+z
1/2+x,1/2+y,z
1/2-x,-y,z
1/2+x,-y,1/2-z
1/2-x,1/2+y,1/2-z
1/2-x,1/2-y,-z
1/2+x,y,-z
1/2-x,y,1/2+z
1/2+x,1/2-y,1/2+z
loop_
_atom_site_type_symbol
_atom_site_label
_atom_site_fract_x
_atom_site_fract_y
_atom_site_fract_z
Si Si1 0.905217 0.445180 0.606849
Si Si2 0.421795 0.264117 0.415482
Si Si3 0.838317 0.379112 0.159281
Si Si4 0.250000 0.500000 0.173326
Si Si5 0.566539 0.693551 0.153036
Si Si6 0.385224 0.469909 0.740698
Si Si7 0.294258 0.906638 0.836745
Si Si8 0.523750 0.144852 0.420933
O O1 0.928542 0.489104 0.699138
O O2 0.884341 0.463944 0.441618
O O3 0.850685 0.419401 0.712096
O O4 0.956237 0.406125 0.564995
O O5 0.500000 0.250000 0.408558
O O6 0.393419 0.250000 0.250000
O O7 0.402104 0.235401 0.563315
O O8 0.420093 0.317021 0.440770
O O9 0.875327 0.335755 0.223257
O O10 0.887613 0.421317 0.185959
O O11 0.770218 0.387331 0.252004
O O12 0.820767 0.377889 0.978618
O O13 0.311908 0.512406 0.277800
O O14 0.270808 0.454304 0.092660
O O15 0.500000 0.703731 0.250000
O O16 0.535562 0.659276 0.029518
O O17 0.500000 0.151870 0.250000
#
# Coordination Sequence:
#
# PCOD9506620 Si02
#       8
#    16  16  16   8  16  16  16  16
#     4  11  22  36  59  90 123 172 213 265 313 370
#     4   9  17  37  64  91 118 151 208 264 315 368
#     4  11  22  38  60  93 130 168 214 259 317 372
#     4   8  16  30  52  76 104 152 212 268 290 314
#     4  11  23  39  64  98 129 160 200 268 325 379
#     4  10  20  36  54  85 125 160 215 259 309 369
#     4  10  20  34  59  88 125 168 216 268 314 363
#     4  11  21  39  63  90 124 161 210 259 321 382
#
# _framework density 22.642458000000001
#
# number of rings (size 3 to 8) (size 9 to 14) (size 15 to 20)
#    0.000    1.733    2.667    4.800    0.000    6.667 
#    0.000    3.333    0.000    0.800    0.000    0.000 
#    0.000    1.067    0.000    0.000    0.000    0.000 
#
# Total GULP energy -334679.162560 kJ/mol
# GULP energy per Si atom -5577.986043 kJ/mol
# Density = 2.259092 g / cm^3
# Si number density = 22.642458 Si / 1000 Ang^3
#
#
#
# Elastic Constant Matrix: (Units=GPa)
#
#
# Indices 1 2 3 4 5 6 
#
# 1 24.6980 8.5023 13.0456 0.0000 0.0000 0.0000
# 2 8.5023 105.4097 21.2493 0.0000 0.0000 0.0000
# 3 13.0456 21.2493 122.6627 0.0000 0.0000 0.0000
# 4 0.0000 0.0000 0.0000 16.5917 0.0000 0.0000
# 5 0.0000 0.0000 0.0000 0.0000 10.5307 0.0000
# 6 0.0000 0.0000 0.0000 0.0000 0.0000 22.6569
#
#
#
# Elastic Compliance Matrix: (Units=1/GPa)
#
#
# Indices 1 2 3 4 5 6 
#
# 1 0.043616 -0.002676 -0.004175 0.000000 0.000000 0.000000
# 2 -0.002676 0.009994 -0.001447 0.000000 0.000000 0.000000
# 3 -0.004175 -0.001447 0.008847 0.000000 0.000000 0.000000
# 4 0.000000 0.000000 0.000000 0.060271 0.000000 0.000000
# 5 0.000000 0.000000 0.000000 0.000000 0.094961 0.000000
# 6 0.000000 0.000000 0.000000 0.000000 0.000000 0.044137
#
#
# Mechanical properties :
#
#
# Convention : Reuss Voigt Hill
#
# Bulk Modulus (GPa) = 21.80510 37.59611 29.70060
# Shear Modulus (GPa) = 17.02366 23.95407 20.48887
#
# Velocity S-wave (km/s) = 2.74496 3.25611 3.01140
# Velocity P-wave (km/s) = 4.43818 5.54767 5.02365
#
# Compressibility (1/GPa) = 0.04586084
#
# Stress axis : x y z
#
# Youngs Moduli (GPa) = 22.92748 100.05698 113.03152
#
# Poissons Ratio (x) = 0.26779 0.47191
# Poissons Ratio (y) = 0.06136 0.16352
# Poissons Ratio (z) = 0.09572 0.14475
#
# Static dielectric constant tensor:
#      x y z
#    x 1.862780 0.000000 0.000000 
#    y 0.000000 1.960790 0.000000 
#    z 0.000000 0.000000 1.912280 
# 
# From -- ./inp_files/9224.got.cif
#   From: 2010.05.17/outbox.cif.g08.bks.cpg/sg68_5_cif.got.tgz:9224.got - 2010.06.03 18:57:09.
