data_PCOD9506014
_publ_section_title
;
Structure prediction by ZEFSAII (Michael W. Deem and Ramdas Pophale) SiO2 
 PCOD9506014
Probable space group: C C C A
;
_chemical_formula_sum "Si O2"
_cell_formula_units_Z 64
_cell_length_a 28.818107
_cell_length_b 18.791665
_cell_length_c 5.319219
_cell_angle_alpha 90.000000
_cell_angle_beta 90.000000
_cell_angle_gamma 90.000000
_cell_volume 2880.570989
_symmetry_space_group_name_H-M "C C C A"
_symmetry_group_IT_number 68
_space_group.IT_coordinate_system_code '2'
_symmetry_cell_setting 'orthorhombic'
loop_
_space_group_symop_operation_xyz
x,y,z
-x,1/2-y,z
x,1/2-y,1/2-z
-x,y,1/2-z
-x,-y,-z
x,1/2+y,-z
-x,1/2+y,1/2+z
x,-y,1/2+z
1/2+x,1/2+y,z
1/2-x,-y,z
1/2+x,-y,1/2-z
1/2-x,1/2+y,1/2-z
1/2-x,1/2-y,-z
1/2+x,y,-z
1/2-x,y,1/2+z
1/2+x,1/2-y,1/2+z
loop_
_atom_site_type_symbol
_atom_site_label
_atom_site_fract_x
_atom_site_fract_y
_atom_site_fract_z
Si Si1 0.719709 0.833654 0.260596
Si Si2 0.968846 0.431308 0.454689
Si Si3 0.878525 0.877948 0.701101
Si Si4 0.920193 0.326660 0.786435
O O1 0.703945 0.750000 0.250000
O O2 0.747888 0.843734 0.517827
O O3 0.675588 0.886147 0.250484
O O4 0.916815 0.441086 0.335428
O O5 0.954837 0.388579 0.703063
O O6 0.000000 0.388347 0.250000
O O7 0.000000 0.500000 0.500000
O O8 0.882380 0.834890 0.438252
O O9 0.898841 0.836694 0.941350
O O10 0.942125 0.250000 0.750000
#
# Coordination Sequence:
#
# PCOD9506014 Si02
#       4
#    16  16  16  16
#     4  10  19  32  58  94 137 180 221 269 338 417
#     4  10  26  42  69  94 133 179 240 289 339 416
#     4  10  22  38  64  97 136 184 223 285 336 407
#     4  10  21  39  66  93 136 177 222 281 342 403
#
# _framework density 22.217817
#
# number of rings (size 3 to 8) (size 9 to 14) (size 15 to 20)
#    1.500    0.500    0.000    3.750    3.500    2.000 
#    0.000    3.750    0.000    0.000    0.000    5.250 
#    0.000    0.000    0.000    0.000    0.000    1.250 
#
# Total GULP energy -178209.798719 kJ/mol
# GULP energy per Si atom -5569.056210 kJ/mol
# Density = 2.216725 g / cm^3
# Si number density = 22.217817 Si / 1000 Ang^3
#
#
#
# Elastic Constant Matrix: (Units=GPa)
#
#
# Indices 1 2 3 4 5 6 
#
# 1 151.1275 30.9667 9.2780 0.0000 0.0000 0.0000
# 2 30.9667 74.1009 7.0077 0.0000 0.0000 0.0000
# 3 9.2780 7.0077 96.7157 0.0000 0.0000 0.0000
# 4 0.0000 0.0000 0.0000 6.6733 0.0000 0.0000
# 5 0.0000 0.0000 0.0000 0.0000 30.6273 0.0000
# 6 0.0000 0.0000 0.0000 0.0000 0.0000 26.7740
#
#
#
# Elastic Compliance Matrix: (Units=1/GPa)
#
#
# Indices 1 2 3 4 5 6 
#
# 1 0.007259 -0.002988 -0.000480 0.000000 0.000000 0.000000
# 2 -0.002988 0.014818 -0.000787 0.000000 0.000000 0.000000
# 3 -0.000480 -0.000787 0.010443 0.000000 0.000000 0.000000
# 4 0.000000 0.000000 0.000000 0.149850 0.000000 0.000000
# 5 0.000000 0.000000 0.000000 0.000000 0.032651 0.000000
# 6 0.000000 0.000000 0.000000 0.000000 0.000000 0.037350
#
#
# Mechanical properties :
#
#
# Convention : Reuss Voigt Hill
#
# Bulk Modulus (GPa) = 41.64969 46.27209 43.96089
# Shear Modulus (GPa) = 18.59544 31.12770 24.86157
#
# Velocity S-wave (km/s) = 2.89617 3.74709 3.34876
# Velocity P-wave (km/s) = 5.47453 6.29227 5.89759
#
# Compressibility (1/GPa) = 0.02400978
#
# Stress axis : x y z
#
# Youngs Moduli (GPa) = 137.76674 67.48441 95.76125
#
# Poissons Ratio (x) = 0.20164 0.04595
# Poissons Ratio (y) = 0.41165 0.07537
# Poissons Ratio (z) = 0.06610 0.05311
#
# Static dielectric constant tensor:
#      x y z
#    x 1.869180 0.000000 0.000000 
#    y 0.000000 1.895740 0.000000 
#    z 0.000000 0.000000 1.974560 
# 
# From -- ./inp_files/2321.got.cif
#   From: 2010.05.17/outbox.cif.g08.bks.cpg/sg68_2_cif.got.tgz:2321.got - 2010.06.03 18:57:09.
