data_PCOD9506663
_publ_section_title
;
Structure prediction by ZEFSAII (Michael W. Deem and Ramdas Pophale) SiO2 
 PCOD9506663
Probable space group: C C C A
;
_chemical_formula_sum "Si O2"
_cell_formula_units_Z 80
_cell_length_a 26.673282
_cell_length_b 8.337490
_cell_length_c 17.638155
_cell_angle_alpha 90.000000
_cell_angle_beta 90.000000
_cell_angle_gamma 90.000000
_cell_volume 3922.517929
_symmetry_space_group_name_H-M "C C C A"
_symmetry_group_IT_number 68
_space_group.IT_coordinate_system_code '2'
_symmetry_cell_setting 'orthorhombic'
loop_
_space_group_symop_operation_xyz
x,y,z
-x,1/2-y,z
x,1/2-y,1/2-z
-x,y,1/2-z
-x,-y,-z
x,1/2+y,-z
-x,1/2+y,1/2+z
x,-y,1/2+z
1/2+x,1/2+y,z
1/2-x,-y,z
1/2+x,-y,1/2-z
1/2-x,1/2+y,1/2-z
1/2-x,1/2-y,-z
1/2+x,y,-z
1/2-x,y,1/2+z
1/2+x,1/2-y,1/2+z
loop_
_atom_site_type_symbol
_atom_site_label
_atom_site_fract_x
_atom_site_fract_y
_atom_site_fract_z
Si Si1 0.340108 0.681631 0.942323
Si Si2 0.551663 0.291254 0.610912
Si Si3 0.549513 0.658296 0.555082
Si Si4 0.162284 0.312012 0.391355
Si Si5 0.237737 0.314483 0.672738
O O1 0.397014 0.732567 0.921277
O O2 0.335825 0.495796 0.919337
O O3 0.298796 0.779540 0.896996
O O4 0.333438 0.706445 0.031991
O O5 0.500000 0.250000 0.653760
O O6 0.548625 0.474180 0.580405
O O7 0.550338 0.176983 0.536283
O O8 0.607501 0.277143 0.644469
O O9 0.500000 0.750000 0.582394
O O10 0.209918 0.277447 0.340096
O O11 0.213652 0.250000 0.750000
O O12 0.250000 0.500000 0.678686
#
# Coordination Sequence:
#
# PCOD9506663 Si02
#       5
#    16  16  16  16  16
#     4  10  20  35  55  81 110 141 177 217 260 309
#     4   9  16  26  45  73 106 138 169 208 254 302
#     4   9  16  26  45  73 106 138 169 208 254 302
#     4  10  20  35  55  81 110 141 177 217 260 309
#     4  12  25  40  57  76 102 138 176 220 269 318
#
# _framework density 20.395061999999999
#
# number of rings (size 3 to 8) (size 9 to 14) (size 15 to 20)
#    0.000    2.000    0.000    6.000    0.000    4.800 
#    0.000    0.000    0.000    1.200    0.000    8.400 
#    0.000    0.000    0.000    0.000    0.000    0.000 
#
# Total GULP energy -223243.388785 kJ/mol
# GULP energy per Si atom -5581.084720 kJ/mol
# Density = 2.034864 g / cm^3
# Si number density = 20.395062 Si / 1000 Ang^3
#
#
#
# Elastic Constant Matrix: (Units=GPa)
#
#
# Indices 1 2 3 4 5 6 
#
# 1 108.5384 3.3167 13.3783 0.0000 0.0000 0.0000
# 2 3.3167 48.5864 -1.3453 0.0000 0.0000 0.0000
# 3 13.3783 -1.3453 31.4522 0.0000 0.0000 0.0000
# 4 0.0000 0.0000 0.0000 15.5211 0.0000 0.0000
# 5 0.0000 0.0000 0.0000 0.0000 -40.3766 0.0000
# 6 0.0000 0.0000 0.0000 0.0000 0.0000 23.8566
#
#
#
# Elastic Compliance Matrix: (Units=1/GPa)
#
#
# Indices 1 2 3 4 5 6 
#
# 1 0.009753 -0.000782 -0.004182 0.000000 0.000000 0.000000
# 2 -0.000782 0.020669 0.001216 0.000000 0.000000 0.000000
# 3 -0.004182 0.001216 0.033625 0.000000 0.000000 0.000000
# 4 0.000000 0.000000 0.000000 0.064429 0.000000 0.000000
# 5 0.000000 0.000000 0.000000 0.000000 -0.024767 0.000000
# 6 0.000000 0.000000 0.000000 0.000000 0.000000 0.041917
#
#
# Mechanical properties :
#
#
# Convention : Reuss Voigt Hill
#
# Bulk Modulus (GPa) = 17.68254 24.36406 21.02330
# Shear Modulus (GPa) = 29.07482 11.34870 20.21176
#
# Velocity S-wave (km/s) = 3.77978 2.36146 3.15145
# Velocity P-wave (km/s) = 5.26667 4.40538 4.85516
#
# Compressibility (1/GPa) = 0.05655296
#
# Stress axis : x y z
#
# Youngs Moduli (GPa) = 102.53619 48.38185 29.73975
#
# Poissons Ratio (x) = 0.03781 0.12436
# Poissons Ratio (y) = 0.08014 -0.03618
# Poissons Ratio (z) = 0.42878 -0.05886
#
# Static dielectric constant tensor:
#      x y z
#    x 1.799020 0.000000 0.000000 
#    y 0.000000 1.703490 0.000000 
#    z 0.000000 0.000000 1.675720 
# 
# From -- ./inp_files/33954.got.cif
#   From: 2010.05.17/outbox.cif.g08.bks.cpg/sg68_17_cif.got.tgz:33954.got - 2010.06.03 18:57:09.
