data_PCOD9506698
_publ_section_title
;
Structure prediction by ZEFSAII (Michael W. Deem and Ramdas Pophale) SiO2 
 PCOD9506698
Probable space group: C C C A
;
_chemical_formula_sum "Si O2"
_cell_formula_units_Z 64
_cell_length_a 15.413894
_cell_length_b 8.872388
_cell_length_c 21.398550
_cell_angle_alpha 90.000000
_cell_angle_beta 90.000000
_cell_angle_gamma 90.000000
_cell_volume 2926.423931
_symmetry_space_group_name_H-M "C C C A"
_symmetry_group_IT_number 68
_space_group.IT_coordinate_system_code '2'
_symmetry_cell_setting 'orthorhombic'
loop_
_space_group_symop_operation_xyz
x,y,z
-x,1/2-y,z
x,1/2-y,1/2-z
-x,y,1/2-z
-x,-y,-z
x,1/2+y,-z
-x,1/2+y,1/2+z
x,-y,1/2+z
1/2+x,1/2+y,z
1/2-x,-y,z
1/2+x,-y,1/2-z
1/2-x,1/2+y,1/2-z
1/2-x,1/2-y,-z
1/2+x,y,-z
1/2-x,y,1/2+z
1/2+x,1/2-y,1/2+z
loop_
_atom_site_type_symbol
_atom_site_label
_atom_site_fract_x
_atom_site_fract_y
_atom_site_fract_z
Si Si1 0.668639 0.884048 0.443581
Si Si2 0.095606 0.322292 0.314576
Si Si3 0.403221 0.681760 0.811301
Si Si4 0.903312 0.311903 0.550773
O O1 0.653886 0.806483 0.376483
O O2 0.655772 0.764441 0.498330
O O3 0.750000 0.000000 0.444992
O O4 0.592438 0.007602 0.452914
O O5 0.128471 0.250000 0.250000
O O6 0.089639 0.502206 0.304947
O O7 0.000000 0.250000 0.325640
O O8 0.500000 0.750000 0.812993
O O9 0.358633 0.750000 0.750000
O O10 0.366662 0.721048 0.879497
O O11 0.000000 0.250000 0.545586
#
# Coordination Sequence:
#
# PCOD9506698 Si02
#       4
#    16  16  16  16
#     4  11  23  39  57  86 122 153 189 240 296 347
#     4  10  20  35  59  85 111 152 199 242 285 345
#     4   9  17  31  53  85 115 141 186 244 289 329
#     4  10  21  37  60  85 113 154 200 240 282 344
#
# _framework density 21.869695
#
# number of rings (size 3 to 8) (size 9 to 14) (size 15 to 20)
#    0.000    2.000    0.000    5.250    0.000    6.000 
#    0.000    5.000    0.000    3.000    0.000    0.000 
#    0.000    0.000    0.000    0.000    0.000    0.000 
#
# Total GULP energy -178545.750935 kJ/mol
# GULP energy per Si atom -5579.554717 kJ/mol
# Density = 2.181992 g / cm^3
# Si number density = 21.869695 Si / 1000 Ang^3
#
#
#
# Elastic Constant Matrix: (Units=GPa)
#
#
# Indices 1 2 3 4 5 6 
#
# 1 68.8416 16.3144 39.9792 0.0000 0.0000 0.0000
# 2 16.3144 88.8094 85.1036 0.0000 0.0000 0.0000
# 3 39.9792 85.1036 256.9230 0.0000 0.0000 0.0000
# 4 0.0000 0.0000 0.0000 49.7933 0.0000 0.0000
# 5 0.0000 0.0000 0.0000 0.0000 -6.1473 0.0000
# 6 0.0000 0.0000 0.0000 0.0000 0.0000 11.7877
#
#
#
# Elastic Compliance Matrix: (Units=1/GPa)
#
#
# Indices 1 2 3 4 5 6 
#
# 1 0.016009 -0.000811 -0.002222 0.000000 0.000000 0.000000
# 2 -0.000811 0.016537 -0.005352 0.000000 0.000000 0.000000
# 3 -0.002222 -0.005352 0.006011 0.000000 0.000000 0.000000
# 4 0.000000 0.000000 0.000000 0.020083 0.000000 0.000000
# 5 0.000000 0.000000 0.000000 0.000000 -0.162674 0.000000
# 6 0.000000 0.000000 0.000000 0.000000 0.000000 0.084834
#
#
# Mechanical properties :
#
#
# Convention : Reuss Voigt Hill
#
# Bulk Modulus (GPa) = 45.89971 77.48538 61.69255
# Shear Modulus (GPa) = 1034.54136 29.29854 531.91995
#
# Velocity S-wave (km/s) = 21.77326 3.66414 15.61251
# Velocity P-wave (km/s) = 25.55647 7.30812 18.79550
#
# Compressibility (1/GPa) = 0.02178663
#
# Stress axis : x y z
#
# Youngs Moduli (GPa) = 62.46489 60.46886 166.36899
#
# Poissons Ratio (x) = 0.04905 0.36974
# Poissons Ratio (y) = 0.05067 0.89035
# Poissons Ratio (z) = 0.13882 0.32361
#
# Static dielectric constant tensor:
#      x y z
#    x 1.869290 0.000000 0.000000 
#    y 0.000000 1.774770 0.000000 
#    z 0.000000 0.000000 1.875110 
# 
# From -- ./inp_files/39131.got.cif
#   From: 2010.05.17/outbox.cif.g08.bks.cpg/sg68_20_cif.got.tgz:39131.got - 2010.06.03 18:57:09.
