data_PCOD9506000
_publ_section_title
;
Structure prediction by ZEFSAII (Michael W. Deem and Ramdas Pophale) SiO2 
 PCOD9506000
Probable space group: C C C A
;
_chemical_formula_sum "Si O2"
_cell_formula_units_Z 56
_cell_length_a 5.099555
_cell_length_b 19.708185
_cell_length_c 28.182975
_cell_angle_alpha 90.000000
_cell_angle_beta 90.000000
_cell_angle_gamma 90.000000
_cell_volume 2832.472786
_symmetry_space_group_name_H-M "C C C A"
_symmetry_group_IT_number 68
_space_group.IT_coordinate_system_code '2'
_symmetry_cell_setting 'orthorhombic'
loop_
_space_group_symop_operation_xyz
x,y,z
-x,1/2-y,z
x,1/2-y,1/2-z
-x,y,1/2-z
-x,-y,-z
x,1/2+y,-z
-x,1/2+y,1/2+z
x,-y,1/2+z
1/2+x,1/2+y,z
1/2-x,-y,z
1/2+x,-y,1/2-z
1/2-x,1/2+y,1/2-z
1/2-x,1/2-y,-z
1/2+x,y,-z
1/2-x,y,1/2+z
1/2+x,1/2-y,1/2+z
loop_
_atom_site_type_symbol
_atom_site_label
_atom_site_fract_x
_atom_site_fract_y
_atom_site_fract_z
Si Si1 0.250000 0.500000 0.034557
Si Si2 0.750000 0.000000 0.193250
Si Si3 0.448977 0.671528 0.349957
Si Si4 0.455413 0.088980 0.380305
Si Si5 0.500000 0.882804 0.250000
O O1 0.339864 0.440056 0.070637
O O2 0.500000 0.500000 0.000000
O O3 0.527445 0.025426 0.156404
O O4 0.800863 0.063848 0.226531
O O5 0.500000 0.750000 0.360691
O O6 0.723228 0.635355 0.360300
O O7 0.389463 0.660685 0.293760
O O8 0.220793 0.632765 0.379099
#
# Coordination Sequence:
#
# PCOD9506000 Si02
#       5
#     8   8  16  16   8
#     4  11  22  40  69  96 114 136 185 254 316 375
#     4   9  18  32  55  82 116 148 191 250 302 341
#     4  11  22  37  56  81 121 165 202 233 273 344
#     4  10  22  38  59  86 116 152 188 241 311 354
#     4  10  19  32  54  84 115 158 208 246 280 326
#
# _framework density 19.770712
#
# number of rings (size 3 to 8) (size 9 to 14) (size 15 to 20)
#    0.000    1.714    0.000    4.714    0.000   11.429 
#    0.000    5.714    0.000   17.143    0.000    0.000 
#    0.000    0.000    0.000    0.000    0.000    0.000 
#
# Total GULP energy -155946.708617 kJ/mol
# GULP energy per Si atom -5569.525308 kJ/mol
# Density = 1.972571 g / cm^3
# Si number density = 19.770712 Si / 1000 Ang^3
#
#
#
# Elastic Constant Matrix: (Units=GPa)
#
#
# Indices 1 2 3 4 5 6 
#
# 1 114.4064 30.3806 4.3275 0.0000 0.0000 0.0000
# 2 30.3806 89.3289 11.9527 0.0000 0.0000 0.0000
# 3 4.3275 11.9527 73.6573 0.0000 0.0000 0.0000
# 4 0.0000 0.0000 0.0000 -208.2859 0.0000 0.0000
# 5 0.0000 0.0000 0.0000 0.0000 23.8197 0.0000
# 6 0.0000 0.0000 0.0000 0.0000 0.0000 31.6780
#
#
#
# Elastic Compliance Matrix: (Units=1/GPa)
#
#
# Indices 1 2 3 4 5 6 
#
# 1 0.009609 -0.003263 -0.000035 0.000000 0.000000 0.000000
# 2 -0.003263 0.012551 -0.001845 0.000000 0.000000 0.000000
# 3 -0.000035 -0.001845 0.013878 0.000000 0.000000 0.000000
# 4 0.000000 0.000000 0.000000 -0.004801 0.000000 0.000000
# 5 0.000000 0.000000 0.000000 0.000000 0.041982 0.000000
# 6 0.000000 0.000000 0.000000 0.000000 0.000000 0.031568
#
#
# Mechanical properties :
#
#
# Convention : Reuss Voigt Hill
#
# Bulk Modulus (GPa) = 38.83298 41.19047 40.01172
# Shear Modulus (GPa) = 40.43460 -15.17550 12.62955
#
# Velocity S-wave (km/s) = 4.52727 -2.77352 2.53019
# Velocity P-wave (km/s) = 6.85657 3.25926 5.36821
#
# Compressibility (1/GPa) = 0.02575131
#
# Stress axis : x y z
#
# Youngs Moduli (GPa) = 104.07312 79.67330 72.05729
#
# Poissons Ratio (x) = 0.25999 0.00252
# Poissons Ratio (y) = 0.33961 0.13295
# Poissons Ratio (z) = 0.00364 0.14700
#
# Static dielectric constant tensor:
#      x y z
#    x 1.664530 0.000000 0.000000 
#    y 0.000000 1.757590 0.000000 
#    z 0.000000 0.000000 1.769020 
# 
# From -- ./inp_files/42008.got.cif
#   From: 2010.05.17/outbox.cif.g08.bks.cpg/sg68_22_cif.got.tgz:42008.got - 2010.06.03 18:57:09.
