data_PCOD9506322
_publ_section_title
;
Structure prediction by ZEFSAII (Michael W. Deem and Ramdas Pophale) SiO2 
 PCOD9506322
Probable space group: C C C A
;
_chemical_formula_sum "Si O2"
_cell_formula_units_Z 72
_cell_length_a 13.938048
_cell_length_b 14.562404
_cell_length_c 16.166392
_cell_angle_alpha 90.000000
_cell_angle_beta 90.000000
_cell_angle_gamma 90.000000
_cell_volume 3281.316607
_symmetry_space_group_name_H-M "C C C A"
_symmetry_group_IT_number 68
_space_group.IT_coordinate_system_code '2'
_symmetry_cell_setting 'orthorhombic'
loop_
_space_group_symop_operation_xyz
x,y,z
-x,1/2-y,z
x,1/2-y,1/2-z
-x,y,1/2-z
-x,-y,-z
x,1/2+y,-z
-x,1/2+y,1/2+z
x,-y,1/2+z
1/2+x,1/2+y,z
1/2-x,-y,z
1/2+x,-y,1/2-z
1/2-x,1/2+y,1/2-z
1/2-x,1/2-y,-z
1/2+x,y,-z
1/2-x,y,1/2+z
1/2+x,1/2-y,1/2+z
loop_
_atom_site_type_symbol
_atom_site_label
_atom_site_fract_x
_atom_site_fract_y
_atom_site_fract_z
Si Si1 0.420855 0.075340 0.075332
Si Si2 0.750000 0.500000 0.795542
Si Si3 0.769335 0.826364 0.931176
Si Si4 0.623289 0.943318 0.559602
Si Si5 0.907251 0.395536 0.192266
O O1 0.332925 0.138567 0.103658
O O2 0.527396 0.115878 0.071547
O O3 0.430524 0.985299 0.134701
O O4 0.404371 0.041844 0.980249
O O5 0.678773 0.553723 0.855724
O O6 0.817401 0.567790 0.745092
O O7 0.856176 0.816786 0.864643
O O8 0.750000 0.750000 0.000000
O O9 0.808372 0.907444 0.988485
O O10 0.000000 0.374227 0.250000
#
# Coordination Sequence:
#
# PCOD9506322 Si02
#       5
#    16   8  16  16  16
#     4  10  19  37  60  92 121 164 227 273 325 402
#     4  12  18  34  64  94 126 152 216 304 340 366
#     4  11  23  40  59  91 140 181 212 265 354 441
#     4  10  20  34  62  88 117 168 225 274 320 397
#     4  11  21  36  66 102 125 164 230 295 338 391
#
# _framework density 21.942411
#
# number of rings (size 3 to 8) (size 9 to 14) (size 15 to 20)
#    0.000    1.333    6.667    1.333    0.000    0.889 
#    0.000    1.111    0.000    6.667    0.000    0.000 
#    0.000    0.000    0.000    0.000    0.000    0.000 
#
# Total GULP energy -200476.922941 kJ/mol
# GULP energy per Si atom -5568.803415 kJ/mol
# Density = 2.189247 g / cm^3
# Si number density = 21.942411 Si / 1000 Ang^3
#
#
#
# Elastic Constant Matrix: (Units=GPa)
#
#
# Indices 1 2 3 4 5 6 
#
# 1 183.0363 26.5001 48.5085 0.0000 0.0000 0.0000
# 2 26.5001 19.4643 8.0228 0.0000 0.0000 0.0000
# 3 48.5085 8.0228 94.2736 0.0000 0.0000 0.0000
# 4 0.0000 0.0000 0.0000 15.7295 0.0000 0.0000
# 5 0.0000 0.0000 0.0000 0.0000 66.4678 0.0000
# 6 0.0000 0.0000 0.0000 0.0000 0.0000 8.4919
#
#
#
# Elastic Compliance Matrix: (Units=1/GPa)
#
#
# Indices 1 2 3 4 5 6 
#
# 1 0.007609 -0.009063 -0.003144 0.000000 0.000000 0.000000
# 2 -0.009063 0.064040 -0.000786 0.000000 0.000000 0.000000
# 3 -0.003144 -0.000786 0.012292 0.000000 0.000000 0.000000
# 4 0.000000 0.000000 0.000000 0.063575 0.000000 0.000000
# 5 0.000000 0.000000 0.000000 0.000000 0.015045 0.000000
# 6 0.000000 0.000000 0.000000 0.000000 0.000000 0.117759
#
#
# Mechanical properties :
#
#
# Convention : Reuss Voigt Hill
#
# Bulk Modulus (GPa) = 17.25520 51.42634 34.34077
# Shear Modulus (GPa) = 15.35512 32.38735 23.87124
#
# Velocity S-wave (km/s) = 2.64823 3.84606 3.30192
# Velocity P-wave (km/s) = 4.15111 6.57349 5.49739
#
# Compressibility (1/GPa) = 0.05795354
#
# Stress axis : x y z
#
# Youngs Moduli (GPa) = 131.42739 15.61533 81.35382
#
# Poissons Ratio (x) = 0.14153 0.25576
# Poissons Ratio (y) = 1.19117 0.06397
# Poissons Ratio (z) = 0.41318 0.01228
#
# Static dielectric constant tensor:
#      x y z
#    x 2.005760 0.000000 0.000000 
#    y 0.000000 1.593860 0.000000 
#    z 0.000000 0.000000 1.872140 
# 
# From -- ./inp_files/29365.got.cif
#   From: 2010.05.17/outbox.cif.g08.bks.cpg/sg68_15_cif.got.tgz:29365.got - 2010.06.03 18:57:09.
