data_PCOD9506283
_publ_section_title
;
Structure prediction by ZEFSAII (Michael W. Deem and Ramdas Pophale) SiO2 
 PCOD9506283
Probable space group: C C C A
;
_chemical_formula_sum "Si O2"
_cell_formula_units_Z 88
_cell_length_a 28.180601
_cell_length_b 9.736247
_cell_length_c 14.022918
_cell_angle_alpha 90.000000
_cell_angle_beta 90.000000
_cell_angle_gamma 90.000000
_cell_volume 3847.514174
_symmetry_space_group_name_H-M "C C C A"
_symmetry_group_IT_number 68
_space_group.IT_coordinate_system_code '2'
_symmetry_cell_setting 'orthorhombic'
loop_
_space_group_symop_operation_xyz
x,y,z
-x,1/2-y,z
x,1/2-y,1/2-z
-x,y,1/2-z
-x,-y,-z
x,1/2+y,-z
-x,1/2+y,1/2+z
x,-y,1/2+z
1/2+x,1/2+y,z
1/2-x,-y,z
1/2+x,-y,1/2-z
1/2-x,1/2+y,1/2-z
1/2-x,1/2-y,-z
1/2+x,y,-z
1/2-x,y,1/2+z
1/2+x,1/2-y,1/2+z
loop_
_atom_site_type_symbol
_atom_site_label
_atom_site_fract_x
_atom_site_fract_y
_atom_site_fract_z
Si Si1 0.851294 0.904678 0.452686
Si Si2 0.892389 0.483963 0.742580
Si Si3 0.975947 0.114320 0.380713
Si Si4 0.671255 0.250000 0.750000
Si Si5 0.795621 0.823870 0.955369
Si Si6 0.432472 0.061443 0.434484
O O1 0.838031 0.757182 0.492363
O O2 0.863501 0.908501 0.340804
O O3 0.808232 0.015406 0.467699
O O4 0.896086 0.960596 0.511511
O O5 0.938808 0.544872 0.690168
O O6 0.861536 0.617758 0.772511
O O7 0.907559 0.398593 0.835418
O O8 0.948846 0.157830 0.478830
O O9 0.000000 0.250000 0.344270
O O10 0.018535 0.010498 0.403335
O O11 0.701251 0.210963 0.843199
O O12 0.750000 0.750000 0.000000
#
# Coordination Sequence:
#
# PCOD9506283 Si02
#       6
#    16  16  16   8  16  16
#     4  10  23  40  67  91 127 169 205 266 319 379
#     4  10  19  36  62  90 125 169 216 252 308 382
#     4  10  21  33  60  90 122 168 217 262 302 367
#     4  10  20  38  69  92 122 170 218 251 310 408
#     4  11  23  45  67  95 126 162 213 270 325 385
#     4  10  20  36  57  88 128 161 211 261 313 366
#
# _framework density 22.871911000000001
#
# number of rings (size 3 to 8) (size 9 to 14) (size 15 to 20)
#    0.000    1.818    1.818    2.182    5.091    0.727 
#    3.273    1.818    4.000    0.000    0.000    0.000 
#    0.000    0.000    0.000    0.000    0.000    0.000 
#
# Total GULP energy -245891.050427 kJ/mol
# GULP energy per Si atom -5588.432964 kJ/mol
# Density = 2.281985 g / cm^3
# Si number density = 22.871911 Si / 1000 Ang^3
#
#
#
# Elastic Constant Matrix: (Units=GPa)
#
#
# Indices 1 2 3 4 5 6 
#
# 1 84.7352 4.2775 19.6608 0.0000 0.0000 0.0000
# 2 4.2775 68.6001 21.5419 0.0000 0.0000 0.0000
# 3 19.6608 21.5419 160.1451 0.0000 0.0000 0.0000
# 4 0.0000 0.0000 0.0000 4.3527 0.0000 0.0000
# 5 0.0000 0.0000 0.0000 0.0000 52.0110 0.0000
# 6 0.0000 0.0000 0.0000 0.0000 0.0000 21.6636
#
#
#
# Elastic Compliance Matrix: (Units=1/GPa)
#
#
# Indices 1 2 3 4 5 6 
#
# 1 0.012153 -0.000302 -0.001451 0.000000 0.000000 0.000000
# 2 -0.000302 0.015228 -0.002011 0.000000 0.000000 0.000000
# 3 -0.001451 -0.002011 0.006693 0.000000 0.000000 0.000000
# 4 0.000000 0.000000 0.000000 0.229744 0.000000 0.000000
# 5 0.000000 0.000000 0.000000 0.000000 0.019227 0.000000
# 6 0.000000 0.000000 0.000000 0.000000 0.000000 0.046160
#
#
# Mechanical properties :
#
#
# Convention : Reuss Voigt Hill
#
# Bulk Modulus (GPa) = 37.67225 44.93786 41.30505
# Shear Modulus (GPa) = 14.46830 33.47214 23.97022
#
# Velocity S-wave (km/s) = 2.51784 3.82967 3.24083
# Velocity P-wave (km/s) = 4.99594 6.26462 5.66590
#
# Compressibility (1/GPa) = 0.02654474
#
# Stress axis : x y z
#
# Youngs Moduli (GPa) = 82.28094 65.67001 149.40823
#
# Poissons Ratio (x) = 0.01983 0.21686
# Poissons Ratio (y) = 0.02485 0.30050
# Poissons Ratio (z) = 0.11943 0.13208
#
# Static dielectric constant tensor:
#      x y z
#    x 1.891430 0.000000 0.000000 
#    y 0.000000 1.853550 0.000000 
#    z 0.000000 0.000000 1.865310 
# 
# From -- ./inp_files/25970.got.cif
#   From: 2010.05.17/outbox.cif.g08.bks.cpg/sg68_13_cif.got.tgz:25970.got - 2010.06.03 18:57:09.
