data_PCOD9506803
_publ_section_title
;
Structure prediction by ZEFSAII (Michael W. Deem and Ramdas Pophale) SiO2 
 PCOD9506803
Probable space group: C C C A
;
_chemical_formula_sum "Si O2"
_cell_formula_units_Z 80
_cell_length_a 24.875589
_cell_length_b 14.860194
_cell_length_c 8.791002
_cell_angle_alpha 90.000000
_cell_angle_beta 90.000000
_cell_angle_gamma 90.000000
_cell_volume 3249.647325
_symmetry_space_group_name_H-M "C C C A"
_symmetry_group_IT_number 68
_space_group.IT_coordinate_system_code '2'
_symmetry_cell_setting 'orthorhombic'
loop_
_space_group_symop_operation_xyz
x,y,z
-x,1/2-y,z
x,1/2-y,1/2-z
-x,y,1/2-z
-x,-y,-z
x,1/2+y,-z
-x,1/2+y,1/2+z
x,-y,1/2+z
1/2+x,1/2+y,z
1/2-x,-y,z
1/2+x,-y,1/2-z
1/2-x,1/2+y,1/2-z
1/2-x,1/2-y,-z
1/2+x,y,-z
1/2-x,y,1/2+z
1/2+x,1/2-y,1/2+z
loop_
_atom_site_type_symbol
_atom_site_label
_atom_site_fract_x
_atom_site_fract_y
_atom_site_fract_z
Si Si1 0.219303 0.164488 0.135244
Si Si2 0.386994 0.557770 0.385060
Si Si3 0.670192 0.782035 0.904086
Si Si4 0.915111 0.619753 0.939799
Si Si5 0.017000 0.597418 0.073345
O O1 0.213093 0.250000 0.250000
O O2 0.173709 0.088762 0.153898
O O3 0.283047 0.144485 0.130752
O O4 0.204468 0.198915 0.967058
O O5 0.392863 0.455259 0.440143
O O6 0.421654 0.608852 0.517955
O O7 0.417116 0.577156 0.226586
O O8 0.642474 0.750000 0.750000
O O9 0.629593 0.805493 0.037253
O O10 0.972495 0.657072 0.989191
O O11 0.000000 0.599994 0.250000
O O12 0.000000 0.500000 0.000000
#
# Coordination Sequence:
#
# PCOD9506803 Si02
#       5
#    16  16  16  16  16
#     4  10  21  43  61  88 118 167 201 248 307 371
#     4  11  22  38  64  88 124 156 207 252 307 368
#     4  10  23  39  65  86 124 161 207 248 308 367
#     4  11  22  39  61  93 118 162 202 255 305 367
#     4  10  20  36  59  87 118 156 195 244 307 361
#
# _framework density 24.618054999999998
#
# number of rings (size 3 to 8) (size 9 to 14) (size 15 to 20)
#    0.000    1.600    2.000    5.400    5.600    0.800 
#    0.000    3.000    0.000    0.000    0.000    0.000 
#    0.000    0.000    0.000    0.000    0.000    0.000 
#
# Total GULP energy -222889.374736 kJ/mol
# GULP energy per Si atom -5572.234368 kJ/mol
# Density = 2.456202 g / cm^3
# Si number density = 24.618055 Si / 1000 Ang^3
#
#
#
# Elastic Constant Matrix: (Units=GPa)
#
#
# Indices 1 2 3 4 5 6 
#
# 1 91.8186 16.2649 -20.8534 0.0000 0.0000 0.0000
# 2 16.2649 36.6550 -0.7743 0.0000 0.0000 0.0000
# 3 -20.8534 -0.7743 129.7180 0.0000 0.0000 0.0000
# 4 0.0000 0.0000 0.0000 22.3389 0.0000 0.0000
# 5 0.0000 0.0000 0.0000 0.0000 37.2812 0.0000
# 6 0.0000 0.0000 0.0000 0.0000 0.0000 27.0633
#
#
#
# Elastic Compliance Matrix: (Units=1/GPa)
#
#
# Indices 1 2 3 4 5 6 
#
# 1 0.012291 -0.005413 0.001944 0.000000 0.000000 0.000000
# 2 -0.005413 0.029669 -0.000693 0.000000 0.000000 0.000000
# 3 0.001944 -0.000693 0.008017 0.000000 0.000000 0.000000
# 4 0.000000 0.000000 0.000000 0.044765 0.000000 0.000000
# 5 0.000000 0.000000 0.000000 0.000000 0.026823 0.000000
# 6 0.000000 0.000000 0.000000 0.000000 0.000000 0.036950
#
#
# Mechanical properties :
#
#
# Convention : Reuss Voigt Hill
#
# Bulk Modulus (GPa) = 24.00818 27.49624 25.75221
# Shear Modulus (GPa) = 27.66634 34.90696 31.28665
#
# Velocity S-wave (km/s) = 3.35598 3.76964 3.56881
# Velocity P-wave (km/s) = 4.97898 5.49002 5.24073
#
# Compressibility (1/GPa) = 0.04165248
#
# Stress axis : x y z
#
# Youngs Moduli (GPa) = 81.35821 33.70560 124.72950
#
# Poissons Ratio (x) = 0.18245 -0.24243
# Poissons Ratio (y) = 0.44039 0.08645
# Poissons Ratio (z) = -0.15813 0.02336
#
# Static dielectric constant tensor:
#      x y z
#    x 2.240550 0.000000 0.000000 
#    y 0.000000 2.104710 0.000000 
#    z 0.000000 0.000000 1.937710 
# 
# From -- ./inp_files/8754.got.cif
#   From: 2010.05.17/outbox.cif.g08.bks.cpg/sg68_5_cif.got.tgz:8754.got - 2010.06.03 18:57:09.
