data_PCOD9506626
_publ_section_title
;
Structure prediction by ZEFSAII (Michael W. Deem and Ramdas Pophale) SiO2 
 PCOD9506626
Probable space group: C C C A
;
_chemical_formula_sum "Si O2"
_cell_formula_units_Z 96
_cell_length_a 15.340809
_cell_length_b 24.613604
_cell_length_c 11.231946
_cell_angle_alpha 90.000000
_cell_angle_beta 90.000000
_cell_angle_gamma 90.000000
_cell_volume 4241.099668
_symmetry_space_group_name_H-M "C C C A"
_symmetry_group_IT_number 68
_space_group.IT_coordinate_system_code '2'
_symmetry_cell_setting 'orthorhombic'
loop_
_space_group_symop_operation_xyz
x,y,z
-x,1/2-y,z
x,1/2-y,1/2-z
-x,y,1/2-z
-x,-y,-z
x,1/2+y,-z
-x,1/2+y,1/2+z
x,-y,1/2+z
1/2+x,1/2+y,z
1/2-x,-y,z
1/2+x,-y,1/2-z
1/2-x,1/2+y,1/2-z
1/2-x,1/2-y,-z
1/2+x,y,-z
1/2-x,y,1/2+z
1/2+x,1/2-y,1/2+z
loop_
_atom_site_type_symbol
_atom_site_label
_atom_site_fract_x
_atom_site_fract_y
_atom_site_fract_z
Si Si1 0.210801 0.324241 0.468725
Si Si2 0.028020 0.875327 0.111396
Si Si3 0.115134 0.072198 0.054343
Si Si4 0.376116 0.734153 0.884430
Si Si5 0.250000 0.000000 0.919334
Si Si6 0.000000 0.084881 0.250000
Si Si7 0.653205 0.895286 0.089571
O O1 0.169357 0.375401 0.402275
O O2 0.279732 0.292956 0.387792
O O3 0.139375 0.284186 0.525659
O O4 0.271955 0.350350 0.573045
O O5 0.053776 0.812388 0.084155
O O6 0.000000 0.879351 0.250000
O O7 0.946447 0.901428 0.044962
O O8 0.111824 0.903740 0.044503
O O9 0.053591 0.049733 0.156575
O O10 0.178735 0.029343 0.999514
O O11 0.395115 0.750000 0.750000
O O12 0.198637 0.949905 0.859694
O O13 0.930302 0.118024 0.171114
#
# Coordination Sequence:
#
# PCOD9506626 Si02
#       7
#    16  16  16  16   8   8  16
#     4   9  20  37  58  86 123 162 208 253 301 374
#     4  10  21  39  60  90 124 163 202 260 310 365
#     4  10  22  41  61  88 124 161 206 256 317 374
#     4  10  20  34  60  87 119 163 208 250 300 364
#     4  10  22  46  62  90 120 162 212 254 314 390
#     4  10  22  38  64  89 122 160 198 267 314 372
#     4   9  21  42  62  89 122 160 208 256 317 373
#
# _framework density 22.635639000000001
#
# number of rings (size 3 to 8) (size 9 to 14) (size 15 to 20)
#    0.000    2.333    0.000    1.000    2.333    5.667 
#   15.000    0.000    0.000    2.000    0.000    0.000 
#    0.000    0.000    0.000    0.000    0.000    0.000 
#
# Total GULP energy -267544.269704 kJ/mol
# GULP energy per Si atom -5573.838952 kJ/mol
# Density = 2.258412 g / cm^3
# Si number density = 22.635639 Si / 1000 Ang^3
#
#
#
# Elastic Constant Matrix: (Units=GPa)
#
#
# Indices 1 2 3 4 5 6 
#
# 1 123.5980 37.9429 45.6932 0.0000 0.0000 0.0000
# 2 37.9429 88.9556 17.7379 0.0000 0.0000 0.0000
# 3 45.6932 17.7379 75.4277 0.0000 0.0000 0.0000
# 4 0.0000 0.0000 0.0000 -0.4232 0.0000 0.0000
# 5 0.0000 0.0000 0.0000 0.0000 36.9635 0.0000
# 6 0.0000 0.0000 0.0000 0.0000 0.0000 34.4697
#
#
#
# Elastic Compliance Matrix: (Units=1/GPa)
#
#
# Indices 1 2 3 4 5 6 
#
# 1 0.011469 -0.003679 -0.006082 0.000000 0.000000 0.000000
# 2 -0.003679 0.012975 -0.000823 0.000000 0.000000 0.000000
# 3 -0.006082 -0.000823 0.017136 0.000000 0.000000 0.000000
# 4 0.000000 0.000000 0.000000 -2.362947 0.000000 0.000000
# 5 0.000000 0.000000 0.000000 0.000000 0.027054 0.000000
# 6 0.000000 0.000000 0.000000 0.000000 0.000000 0.029011
#
#
# Mechanical properties :
#
#
# Convention : Reuss Voigt Hill
#
# Bulk Modulus (GPa) = 48.99216 54.52548 51.75882
# Shear Modulus (GPa) = -2.23481 26.64249 12.20384
#
# Velocity S-wave (km/s) = -0.99471 3.43449 2.32446
# Velocity P-wave (km/s) = 4.51349 6.31413 5.48816
#
# Compressibility (1/GPa) = 0.02041143
#
# Stress axis : x y z
#
# Youngs Moduli (GPa) = 87.19307 77.07239 58.35719
#
# Poissons Ratio (x) = 0.28355 0.35496
# Poissons Ratio (y) = 0.32078 0.04800
# Poissons Ratio (z) = 0.53035 0.06339
#
# Static dielectric constant tensor:
#      x y z
#    x 1.891020 0.000000 0.000000 
#    y 0.000000 1.883840 0.000000 
#    z 0.000000 0.000000 1.844560 
# 
# From -- ./inp_files/14662.got.cif
#   From: 2010.05.17/outbox.cif.g08.bks.cpg/sg68_8_cif.got.tgz:14662.got - 2010.06.03 18:57:09.
