data_PCOD9506323
_publ_section_title
;
Structure prediction by ZEFSAII (Michael W. Deem and Ramdas Pophale) SiO2 
 PCOD9506323
Probable space group: C C C A
;
_chemical_formula_sum "Si O2"
_cell_formula_units_Z 96
_cell_length_a 9.910700
_cell_length_b 23.349522
_cell_length_c 20.833919
_cell_angle_alpha 90.000000
_cell_angle_beta 90.000000
_cell_angle_gamma 90.000000
_cell_volume 4821.179439
_symmetry_space_group_name_H-M "C C C A"
_symmetry_group_IT_number 68
_space_group.IT_coordinate_system_code '2'
_symmetry_cell_setting 'orthorhombic'
loop_
_space_group_symop_operation_xyz
x,y,z
-x,1/2-y,z
x,1/2-y,1/2-z
-x,y,1/2-z
-x,-y,-z
x,1/2+y,-z
-x,1/2+y,1/2+z
x,-y,1/2+z
1/2+x,1/2+y,z
1/2-x,-y,z
1/2+x,-y,1/2-z
1/2-x,1/2+y,1/2-z
1/2-x,1/2-y,-z
1/2+x,y,-z
1/2-x,y,1/2+z
1/2+x,1/2-y,1/2+z
loop_
_atom_site_type_symbol
_atom_site_label
_atom_site_fract_x
_atom_site_fract_y
_atom_site_fract_z
Si Si1 0.020585 0.643196 0.058720
Si Si2 0.500000 0.959149 0.250000
Si Si3 0.723358 0.119864 0.958553
Si Si4 0.223042 0.372329 0.305358
Si Si5 0.000000 0.250000 0.645634
Si Si6 0.474027 0.557322 0.840913
Si Si7 0.750000 0.500000 0.068275
Si Si8 0.774832 0.750000 0.250000
O O1 0.881330 0.624170 0.025833
O O2 0.976473 0.696928 0.100245
O O3 0.062638 0.595795 0.111633
O O4 0.133131 0.655823 0.006601
O O5 0.618956 0.918683 0.276474
O O6 0.544530 0.005690 0.196301
O O7 0.700937 0.132998 0.882771
O O8 0.687234 0.053055 0.969289
O O9 0.375845 0.399147 0.299922
O O10 0.206485 0.310368 0.271018
O O11 0.127116 0.263024 0.690318
O O12 0.363600 0.526386 0.886019
#
# Coordination Sequence:
#
# PCOD9506323 Si02
#       8
#    16   8  16  16   8  16   8   8
#     4  10  23  40  65  92 127 165 221 264 328 387
#     4  12  20  37  64  89 136 162 210 268 340 384
#     4  10  20  43  61  93 127 169 210 265 327 389
#     4  10  22  41  61  94 129 173 207 275 330 381
#     4  11  22  42  66  92 114 171 218 280 316 395
#     4  10  19  37  60  92 124 164 203 268 327 384
#     4   8  16  38  60  78 126 164 196 248 324 380
#     4  11  22  43  68  86 128 165 228 261 326 407
#
# _framework density 19.912139
#
# number of rings (size 3 to 8) (size 9 to 14) (size 15 to 20)
#    0.000    2.167    6.667    0.000    2.333    3.667 
#    3.000    0.000    0.000    0.000    0.000    0.000 
#    0.000    0.000    0.000    0.000    0.000    0.000 
#
# Total GULP energy -267272.057040 kJ/mol
# GULP energy per Si atom -5568.167855 kJ/mol
# Density = 1.986682 g / cm^3
# Si number density = 19.912139 Si / 1000 Ang^3
#
#
#
# Elastic Constant Matrix: (Units=GPa)
#
#
# Indices 1 2 3 4 5 6 
#
# 1 38.1041 14.5757 31.1926 0.0000 0.0000 0.0000
# 2 14.5757 97.7924 29.1898 0.0000 0.0000 0.0000
# 3 31.1926 29.1898 67.9269 0.0000 0.0000 0.0000
# 4 0.0000 0.0000 0.0000 9.6620 0.0000 0.0000
# 5 0.0000 0.0000 0.0000 0.0000 18.9089 0.0000
# 6 0.0000 0.0000 0.0000 0.0000 0.0000 22.5110
#
#
#
# Elastic Compliance Matrix: (Units=1/GPa)
#
#
# Indices 1 2 3 4 5 6 
#
# 1 0.042080 -0.000578 -0.019075 0.000000 0.000000 0.000000
# 2 -0.000578 0.011738 -0.004779 0.000000 0.000000 0.000000
# 3 -0.019075 -0.004779 0.025535 0.000000 0.000000 0.000000
# 4 0.000000 0.000000 0.000000 0.103498 0.000000 0.000000
# 5 0.000000 0.000000 0.000000 0.000000 0.052885 0.000000
# 6 0.000000 0.000000 0.000000 0.000000 0.000000 0.044423
#
#
# Mechanical properties :
#
#
# Convention : Reuss Voigt Hill
#
# Bulk Modulus (GPa) = 32.79858 39.30440 36.05149
# Shear Modulus (GPa) = 14.74117 18.80742 16.77430
#
# Velocity S-wave (km/s) = 2.72382 3.07664 2.90559
# Velocity P-wave (km/s) = 5.13806 5.69234 5.42229
#
# Compressibility (1/GPa) = 0.03048912
#
# Stress axis : x y z
#
# Youngs Moduli (GPa) = 23.76409 85.19118 39.16244
#
# Poissons Ratio (x) = 0.04926 0.74703
# Poissons Ratio (y) = 0.01374 0.18714
# Poissons Ratio (z) = 0.45330 0.40710
#
# Static dielectric constant tensor:
#      x y z
#    x 1.724830 0.000000 0.000000 
#    y 0.000000 1.785250 0.000000 
#    z 0.000000 0.000000 1.734620 
# 
# From -- ./inp_files/37797.got.cif
#   From: 2010.05.17/outbox.cif.g08.bks.cpg/sg68_19_cif.got.tgz:37797.got - 2010.06.03 18:57:09.
