data_PCOD9506673
_publ_section_title
;
Structure prediction by ZEFSAII (Michael W. Deem and Ramdas Pophale) SiO2 
 PCOD9506673
Probable space group: C C C A
;
_chemical_formula_sum "Si O2"
_cell_formula_units_Z 96
_cell_length_a 26.645107
_cell_length_b 10.945277
_cell_length_c 17.498423
_cell_angle_alpha 90.000000
_cell_angle_beta 90.000000
_cell_angle_gamma 90.000000
_cell_volume 5103.206431
_symmetry_space_group_name_H-M "C C C A"
_symmetry_group_IT_number 68
_space_group.IT_coordinate_system_code '2'
_symmetry_cell_setting 'orthorhombic'
loop_
_space_group_symop_operation_xyz
x,y,z
-x,1/2-y,z
x,1/2-y,1/2-z
-x,y,1/2-z
-x,-y,-z
x,1/2+y,-z
-x,1/2+y,1/2+z
x,-y,1/2+z
1/2+x,1/2+y,z
1/2-x,-y,z
1/2+x,-y,1/2-z
1/2-x,1/2+y,1/2-z
1/2-x,1/2-y,-z
1/2+x,y,-z
1/2-x,y,1/2+z
1/2+x,1/2-y,1/2+z
loop_
_atom_site_type_symbol
_atom_site_label
_atom_site_fract_x
_atom_site_fract_y
_atom_site_fract_z
Si Si1 0.555160 0.211132 0.160812
Si Si2 0.294254 0.168555 0.374397
Si Si3 0.813592 0.288221 0.336170
Si Si4 0.196726 0.428221 0.457084
Si Si5 0.359807 0.608023 0.868691
Si Si6 0.122841 0.494447 0.703113
O O1 0.500000 0.250000 0.134251
O O2 0.558191 0.250000 0.250000
O O3 0.596436 0.293573 0.118973
O O4 0.574151 0.070962 0.165622
O O5 0.235998 0.140851 0.363060
O O6 0.305629 0.139900 0.462555
O O7 0.310311 0.307862 0.353927
O O8 0.330201 0.087307 0.323216
O O9 0.802752 0.250000 0.250000
O O10 0.812991 0.172179 0.391601
O O11 0.863052 0.372254 0.328715
O O12 0.250000 0.500000 0.450946
O O13 0.153766 0.528016 0.441907
O O14 0.375568 0.524988 0.795328
#
# Coordination Sequence:
#
# PCOD9506673 Si02
#       6
#    16  16  16  16  16  16
#     4   8  16  34  62  87 105 133 182 245 291 331
#     4  11  23  34  55  76 115 155 194 228 270 326
#     4  12  22  34  53  77 115 159 183 231 276 326
#     4  12  24  36  50  78 120 160 191 222 269 337
#     4  10  20  37  55  82 111 142 192 236 276 338
#     4  10  20  35  56  86 106 142 193 233 285 334
#
# _framework density 18.811703000000001
#
# number of rings (size 3 to 8) (size 9 to 14) (size 15 to 20)
#    0.000    1.500    3.333    4.500    2.333    0.000 
#    0.000    0.000    0.000    5.000    0.000    0.000 
#    0.000    0.000    0.000    0.000    0.000    0.000 
#
# Total GULP energy -267465.833475 kJ/mol
# GULP energy per Si atom -5572.204864 kJ/mol
# Density = 1.876889 g / cm^3
# Si number density = 18.811703 Si / 1000 Ang^3
#
#
#
# Elastic Constant Matrix: (Units=GPa)
#
#
# Indices 1 2 3 4 5 6 
#
# 1 88.7777 25.3037 15.4395 0.0000 0.0000 0.0000
# 2 25.3037 56.5075 18.9424 0.0000 0.0000 0.0000
# 3 15.4395 18.9424 76.4096 0.0000 0.0000 0.0000
# 4 0.0000 0.0000 0.0000 20.1994 0.0000 0.0000
# 5 0.0000 0.0000 0.0000 0.0000 5.1192 0.0000
# 6 0.0000 0.0000 0.0000 0.0000 0.0000 23.9950
#
#
#
# Elastic Compliance Matrix: (Units=1/GPa)
#
#
# Indices 1 2 3 4 5 6 
#
# 1 0.013028 -0.005400 -0.001294 0.000000 0.000000 0.000000
# 2 -0.005400 0.021539 -0.004248 0.000000 0.000000 0.000000
# 3 -0.001294 -0.004248 0.014402 0.000000 0.000000 0.000000
# 4 0.000000 0.000000 0.000000 0.049506 0.000000 0.000000
# 5 0.000000 0.000000 0.000000 0.000000 0.195343 0.000000
# 6 0.000000 0.000000 0.000000 0.000000 0.000000 0.041675
#
#
# Mechanical properties :
#
#
# Convention : Reuss Voigt Hill
#
# Bulk Modulus (GPa) = 36.92167 37.89622 37.40895
# Shear Modulus (GPa) = 13.64600 20.66335 17.15467
#
# Velocity S-wave (km/s) = 2.69625 3.31785 3.02307
# Velocity P-wave (km/s) = 5.41872 5.90477 5.66696
#
# Compressibility (1/GPa) = 0.02708436
#
# Stress axis : x y z
#
# Youngs Moduli (GPa) = 76.75598 46.42708 69.43479
#
# Poissons Ratio (x) = 0.25072 0.08983
# Poissons Ratio (y) = 0.41451 0.29499
# Poissons Ratio (z) = 0.09930 0.19724
#
# Static dielectric constant tensor:
#      x y z
#    x 1.678950 0.000000 0.000000 
#    y 0.000000 1.776610 0.000000 
#    z 0.000000 0.000000 1.647520 
# 
# From -- ./inp_files/34058.got.cif
#   From: 2010.05.17/outbox.cif.g08.bks.cpg/sg68_18_cif.got.tgz:34058.got - 2010.06.03 18:57:09.
