data_PCOD9506161
_publ_section_title
;
Structure prediction by ZEFSAII (Michael W. Deem and Ramdas Pophale) SiO2 
 PCOD9506161
Probable space group: C C C A
;
_chemical_formula_sum "Si O2"
_cell_formula_units_Z 84
_cell_length_a 20.866604
_cell_length_b 18.210437
_cell_length_c 10.824001
_cell_angle_alpha 90.000000
_cell_angle_beta 90.000000
_cell_angle_gamma 90.000000
_cell_volume 4113.011897
_symmetry_space_group_name_H-M "C C C A"
_symmetry_group_IT_number 68
_space_group.IT_coordinate_system_code '2'
_symmetry_cell_setting 'orthorhombic'
loop_
_space_group_symop_operation_xyz
x,y,z
-x,1/2-y,z
x,1/2-y,1/2-z
-x,y,1/2-z
-x,-y,-z
x,1/2+y,-z
-x,1/2+y,1/2+z
x,-y,1/2+z
1/2+x,1/2+y,z
1/2-x,-y,z
1/2+x,-y,1/2-z
1/2-x,1/2+y,1/2-z
1/2-x,1/2-y,-z
1/2+x,y,-z
1/2-x,y,1/2+z
1/2+x,1/2-y,1/2+z
loop_
_atom_site_type_symbol
_atom_site_label
_atom_site_fract_x
_atom_site_fract_y
_atom_site_fract_z
Si Si1 0.250000 0.500000 0.523250
Si Si2 0.326059 0.888853 0.609072
Si Si3 0.432168 0.133171 0.912030
Si Si4 0.630723 0.750000 0.750000
Si Si5 0.038849 0.354570 0.621755
Si Si6 0.621996 0.487522 0.316725
Si Si7 0.500000 0.750000 0.250000
O O1 0.261312 0.427815 0.437969
O O2 0.311179 0.502726 0.612140
O O3 0.367383 0.862940 0.492041
O O4 0.327756 0.818527 0.699895
O O5 0.363548 0.954763 0.680851
O O6 0.451871 0.199565 0.826639
O O7 0.421126 0.059961 0.830125
O O8 0.489380 0.135955 0.011746
O O9 0.582849 0.782192 0.643507
O O10 0.085891 0.422703 0.613383
O O11 0.000000 0.360730 0.750000
#
# Coordination Sequence:
#
# PCOD9506161 Si02
#       7
#     8  16  16   8  16  16   4
#     4  10  22  40  62  92 128 166 220 290 314 364
#     4  10  21  41  66  89 127 170 219 266 317 388
#     4  11  23  39  59  93 137 166 207 272 330 387
#     4  10  19  34  66  99 121 172 220 253 320 398
#     4  11  20  36  67  95 128 169 217 266 321 401
#     4  10  22  38  65  94 119 174 226 265 324 387
#     4  12  28  36  58  98 142 166 196 266 338 396
#
# _framework density 20.422989999999999
#
# number of rings (size 3 to 8) (size 9 to 14) (size 15 to 20)
#    0.000    1.524    3.810    2.571    1.333    3.048 
#    0.000    3.810    0.000   27.429    0.000    0.000 
#    0.000    0.000    0.000    0.000    0.000    0.000 
#
# Total GULP energy -234238.882287 kJ/mol
# GULP energy per Si atom -5577.116245 kJ/mol
# Density = 2.037651 g / cm^3
# Si number density = 20.422990 Si / 1000 Ang^3
#
#
#
# Elastic Constant Matrix: (Units=GPa)
#
#
# Indices 1 2 3 4 5 6 
#
# 1 78.0174 54.1903 28.8198 0.0000 0.0000 0.0000
# 2 54.1903 146.5016 53.0534 0.0000 0.0000 0.0000
# 3 28.8198 53.0534 82.5927 0.0000 0.0000 0.0000
# 4 0.0000 0.0000 0.0000 91.1900 0.0000 0.0000
# 5 0.0000 0.0000 0.0000 0.0000 -24.1005 0.0000
# 6 0.0000 0.0000 0.0000 0.0000 0.0000 45.5669
#
#
#
# Elastic Compliance Matrix: (Units=1/GPa)
#
#
# Indices 1 2 3 4 5 6 
#
# 1 0.017656 -0.005603 -0.002562 0.000000 0.000000 0.000000
# 2 -0.005603 0.010673 -0.004901 0.000000 0.000000 0.000000
# 3 -0.002562 -0.004901 0.016149 0.000000 0.000000 0.000000
# 4 0.000000 0.000000 0.000000 0.010966 0.000000 0.000000
# 5 0.000000 0.000000 0.000000 0.000000 -0.041493 0.000000
# 6 0.000000 0.000000 0.000000 0.000000 0.000000 0.021946
#
#
# Mechanical properties :
#
#
# Convention : Reuss Voigt Hill
#
# Bulk Modulus (GPa) = 54.50362 64.35987 59.43174
# Shear Modulus (GPa) = 73.37364 33.93448 53.65406
#
# Velocity S-wave (km/s) = 6.00041 4.08067 5.13112
# Velocity P-wave (km/s) = 8.64592 7.33378 8.01674
#
# Compressibility (1/GPa) = 0.01834740
#
# Stress axis : x y z
#
# Youngs Moduli (GPa) = 56.63854 93.69267 61.92156
#
# Poissons Ratio (x) = 0.52498 0.15862
# Poissons Ratio (y) = 0.31736 0.30346
# Poissons Ratio (z) = 0.14509 0.45917
#
# Static dielectric constant tensor:
#      x y z
#    x 1.796280 0.000000 0.000000 
#    y 0.000000 1.756620 0.000000 
#    z 0.000000 0.000000 1.825020 
# 
# From -- ./inp_files/16404.got.cif
#   From: 2010.05.17/outbox.cif.g08.bks.cpg/sg68_9_cif.got.tgz:16404.got - 2010.06.03 18:57:09.
