data_PCOD9506182
_publ_section_title
;
Structure prediction by ZEFSAII (Michael W. Deem and Ramdas Pophale) SiO2 
 PCOD9506182
Probable space group: C C C A
;
_chemical_formula_sum "Si O2"
_cell_formula_units_Z 104
_cell_length_a 19.308992
_cell_length_b 15.200260
_cell_length_c 18.487505
_cell_angle_alpha 90.000000
_cell_angle_beta 90.000000
_cell_angle_gamma 90.000000
_cell_volume 5426.114123
_symmetry_space_group_name_H-M "C C C A"
_symmetry_group_IT_number 68
_space_group.IT_coordinate_system_code '2'
_symmetry_cell_setting 'orthorhombic'
loop_
_space_group_symop_operation_xyz
x,y,z
-x,1/2-y,z
x,1/2-y,1/2-z
-x,y,1/2-z
-x,-y,-z
x,1/2+y,-z
-x,1/2+y,1/2+z
x,-y,1/2+z
1/2+x,1/2+y,z
1/2-x,-y,z
1/2+x,-y,1/2-z
1/2-x,1/2+y,1/2-z
1/2-x,1/2-y,-z
1/2+x,y,-z
1/2-x,y,1/2+z
1/2+x,1/2-y,1/2+z
loop_
_atom_site_type_symbol
_atom_site_label
_atom_site_fract_x
_atom_site_fract_y
_atom_site_fract_z
Si Si1 0.826742 0.250000 0.663074
Si Si2 0.422500 0.892495 0.911547
Si Si3 0.377385 0.412742 0.926748
Si Si4 0.622615 0.587258 0.426748
Si Si5 0.922499 0.892495 0.411547
Si Si6 0.750000 0.000000 0.000000
Si Si7 0.162723 0.750000 0.835737
O O1 0.834032 0.250000 0.750000
O O2 0.865454 0.165711 0.628765
O O3 0.865454 0.334289 0.628765
O O4 0.744988 0.250000 0.645685
O O5 0.500000 0.866249 0.890354
O O6 0.411478 0.996808 0.899281
O O7 0.413193 0.882813 0.998349
O O8 0.411478 0.503192 0.899281
O O9 0.372440 0.335609 0.869955
O O10 0.300128 0.441087 0.951364
O O11 0.586807 0.617187 0.501651
O O12 0.699871 0.558913 0.451363
O O13 0.627559 0.664392 0.369955
O O14 0.156955 0.750000 0.750000
#
# Coordination Sequence:
#
# PCOD9506182 Si02
#       7
#    16  16  16  16  16   8  16
#     4  11  24  38  56  84 115 147 183 228 280 329
#     4  10  21  38  61  85 110 144 185 231 277 324
#     4  10  19  35  58  83 111 143 186 231 275 326
#     4  10  19  35  58  83 111 143 186 231 275 326
#     4  10  21  38  61  85 110 144 185 231 277 324
#     4   8  16  30  56  84 104 138 184 238 284 316
#     4  11  23  37  54  82 118 151 183 223 276 332
#
# _framework density 19.166571000000001
#
# number of rings (size 3 to 8) (size 9 to 14) (size 15 to 20)
#    0.000    2.154    0.000    6.923    0.000    4.308 
#    0.000    6.154    0.000    6.462    0.000    0.000 
#    0.000    0.000    0.000    0.000    0.000    0.000 
#
# Total GULP energy -290411.455875 kJ/mol
# GULP energy per Si atom -5584.835690 kJ/mol
# Density = 1.912295 g / cm^3
# Si number density = 19.166571 Si / 1000 Ang^3
#
#
#
# Elastic Constant Matrix: (Units=GPa)
#
#
# Indices 1 2 3 4 5 6 
#
# 1 63.1936 24.8632 20.8832 0.0000 0.0000 0.0000
# 2 24.8632 114.1252 70.9695 0.0000 0.0000 0.0000
# 3 20.8832 70.9695 68.3736 0.0000 0.0000 0.0000
# 4 0.0000 0.0000 0.0000 -177.9068 0.0000 0.0000
# 5 0.0000 0.0000 0.0000 0.0000 -18.7946 0.0000
# 6 0.0000 0.0000 0.0000 0.0000 0.0000 34.6220
#
#
#
# Elastic Compliance Matrix: (Units=1/GPa)
#
#
# Indices 1 2 3 4 5 6 
#
# 1 0.017679 -0.001393 -0.003954 0.000000 0.000000 0.000000
# 2 -0.001393 0.024825 -0.025342 0.000000 0.000000 0.000000
# 3 -0.003954 -0.025342 0.042137 0.000000 0.000000 0.000000
# 4 0.000000 0.000000 0.000000 -0.005621 0.000000 0.000000
# 5 0.000000 0.000000 0.000000 0.000000 -0.053207 0.000000
# 6 0.000000 0.000000 0.000000 0.000000 0.000000 0.028883
#
#
# Mechanical properties :
#
#
# Convention : Reuss Voigt Hill
#
# Bulk Modulus (GPa) = 42.98550 53.23600 48.11075
# Shear Modulus (GPa) = 40.37856 -23.81744 8.28056
#
# Velocity S-wave (km/s) = 4.59488 -3.52896 2.08079
# Velocity P-wave (km/s) = 7.11524 3.35127 5.56137
#
# Compressibility (1/GPa) = 0.02326366
#
# Stress axis : x y z
#
# Youngs Moduli (GPa) = 56.56422 40.28256 23.73202
#
# Poissons Ratio (x) = 0.05610 0.09384
# Poissons Ratio (y) = 0.07877 0.60141
# Poissons Ratio (z) = 0.22367 1.02083
#
# Static dielectric constant tensor:
#      x y z
#    x 1.671930 0.000000 0.000000 
#    y 0.000000 1.668750 0.000000 
#    z 0.000000 0.000000 1.632320 
# 
# From -- ./inp_files/33005.got.cif
#   From: 2010.05.17/outbox.cif.g08.bks.cpg/sg68_17_cif.got.tgz:33005.got - 2010.06.03 18:57:09.
