data_PCOD9506373
_publ_section_title
;
Structure prediction by ZEFSAII (Michael W. Deem and Ramdas Pophale) SiO2 
 PCOD9506373
Probable space group: C C C A
;
_chemical_formula_sum "Si O2"
_cell_formula_units_Z 88
_cell_length_a 13.825119
_cell_length_b 18.719479
_cell_length_c 18.743658
_cell_angle_alpha 90.000000
_cell_angle_beta 90.000000
_cell_angle_gamma 90.000000
_cell_volume 4850.840411
_symmetry_space_group_name_H-M "C C C A"
_symmetry_group_IT_number 68
_space_group.IT_coordinate_system_code '2'
_symmetry_cell_setting 'orthorhombic'
loop_
_space_group_symop_operation_xyz
x,y,z
-x,1/2-y,z
x,1/2-y,1/2-z
-x,y,1/2-z
-x,-y,-z
x,1/2+y,-z
-x,1/2+y,1/2+z
x,-y,1/2+z
1/2+x,1/2+y,z
1/2-x,-y,z
1/2+x,-y,1/2-z
1/2-x,1/2+y,1/2-z
1/2-x,1/2-y,-z
1/2+x,y,-z
1/2-x,y,1/2+z
1/2+x,1/2-y,1/2+z
loop_
_atom_site_type_symbol
_atom_site_label
_atom_site_fract_x
_atom_site_fract_y
_atom_site_fract_z
Si Si1 0.555947 0.991966 0.599110
Si Si2 0.847246 0.545823 0.607396
Si Si3 0.000000 0.750000 0.968190
Si Si4 0.650580 0.143997 0.024693
Si Si5 0.154712 0.049430 0.272489
Si Si6 0.353257 0.360667 0.595746
O O1 0.602355 0.919975 0.570372
O O2 0.442986 0.002043 0.584885
O O3 0.575439 0.003577 0.683639
O O4 0.613203 0.060845 0.567433
O O5 0.750000 0.500000 0.602020
O O6 0.837313 0.612448 0.554879
O O7 0.862743 0.565840 0.690210
O O8 0.076762 0.708631 0.017083
O O9 0.061074 0.805964 0.920789
O O10 0.753970 0.161787 0.058572
O O11 0.163736 0.120548 0.320953
O O12 0.250000 0.000000 0.277465
#
# Coordination Sequence:
#
# PCOD9506373 Si02
#       6
#    16  16   8  16  16  16
#     4  10  19  38  64  83 121 150 191 243 305 328
#     4  11  22  32  62  97 117 141 200 245 292 353
#     4  12  26  36  59  86 121 158 204 226 294 366
#     4  12  22  40  59  89 118 157 191 251 290 350
#     4   9  18  38  61  91 115 147 189 247 297 344
#     4  10  21  41  60  84 119 156 190 247 293 346
#
# _framework density 18.141186000000001
#
# number of rings (size 3 to 8) (size 9 to 14) (size 15 to 20)
#    1.091    0.364    3.636    3.273    2.545    0.000 
#    0.000    1.818    0.000    0.000    0.000    3.818 
#    0.000    0.000    0.000    0.000    0.000    0.000 
#
# Total GULP energy -245272.269186 kJ/mol
# GULP energy per Si atom -5574.369754 kJ/mol
# Density = 1.809990 g / cm^3
# Si number density = 18.141186 Si / 1000 Ang^3
#
#
#
# Elastic Constant Matrix: (Units=GPa)
#
#
# Indices 1 2 3 4 5 6 
#
# 1 109.7361 20.7625 22.6206 0.0000 0.0000 0.0000
# 2 20.7625 59.2692 21.3872 0.0000 0.0000 0.0000
# 3 22.6206 21.3872 98.7076 0.0000 0.0000 0.0000
# 4 0.0000 0.0000 0.0000 -0.5742 0.0000 0.0000
# 5 0.0000 0.0000 0.0000 0.0000 24.2530 0.0000
# 6 0.0000 0.0000 0.0000 0.0000 0.0000 30.1157
#
#
#
# Elastic Compliance Matrix: (Units=1/GPa)
#
#
# Indices 1 2 3 4 5 6 
#
# 1 0.010005 -0.002905 -0.001664 0.000000 0.000000 0.000000
# 2 -0.002905 0.019146 -0.003483 0.000000 0.000000 0.000000
# 3 -0.001664 -0.003483 0.011267 0.000000 0.000000 0.000000
# 4 0.000000 0.000000 0.000000 -1.741592 0.000000 0.000000
# 5 0.000000 0.000000 0.000000 0.000000 0.041232 0.000000
# 6 0.000000 0.000000 0.000000 0.000000 0.000000 0.033205
#
#
# Mechanical properties :
#
#
# Convention : Reuss Voigt Hill
#
# Bulk Modulus (GPa) = 41.12439 44.13926 42.63183
# Shear Modulus (GPa) = -3.12007 24.28841 10.58417
#
# Velocity S-wave (km/s) = -1.31287 3.66301 2.41806
# Velocity P-wave (km/s) = 4.51886 6.50184 5.59884
#
# Compressibility (1/GPa) = 0.02431647
#
# Stress axis : x y z
#
# Youngs Moduli (GPa) = 99.94744 52.22899 88.75640
#
# Poissons Ratio (x) = 0.15171 0.14765
# Poissons Ratio (y) = 0.29031 0.30913
# Poissons Ratio (z) = 0.16627 0.18191
#
# Static dielectric constant tensor:
#      x y z
#    x 1.644480 0.000000 0.000000 
#    y 0.000000 1.605350 0.000000 
#    z 0.000000 0.000000 1.648370 
# 
# From -- ./inp_files/31045.got.cif
#   From: 2010.05.17/outbox.cif.g08.bks.cpg/sg68_16_cif.got.tgz:31045.got - 2010.06.03 18:57:09.
