data_PCOD9506088
_publ_section_title
;
Structure prediction by ZEFSAII (Michael W. Deem and Ramdas Pophale) SiO2 
 PCOD9506088
Probable space group: C C C A
;
_chemical_formula_sum "Si O2"
_cell_formula_units_Z 88
_cell_length_a 8.372674
_cell_length_b 22.983116
_cell_length_c 23.199233
_cell_angle_alpha 90.000000
_cell_angle_beta 90.000000
_cell_angle_gamma 90.000000
_cell_volume 4464.231602
_symmetry_space_group_name_H-M "C C C A"
_symmetry_group_IT_number 68
_space_group.IT_coordinate_system_code '2'
_symmetry_cell_setting 'orthorhombic'
loop_
_space_group_symop_operation_xyz
x,y,z
-x,1/2-y,z
x,1/2-y,1/2-z
-x,y,1/2-z
-x,-y,-z
x,1/2+y,-z
-x,1/2+y,1/2+z
x,-y,1/2+z
1/2+x,1/2+y,z
1/2-x,-y,z
1/2+x,-y,1/2-z
1/2-x,1/2+y,1/2-z
1/2-x,1/2-y,-z
1/2+x,y,-z
1/2-x,y,1/2+z
1/2+x,1/2-y,1/2+z
loop_
_atom_site_type_symbol
_atom_site_label
_atom_site_fract_x
_atom_site_fract_y
_atom_site_fract_z
Si Si1 0.000000 0.250000 0.534840
Si Si2 0.327799 0.876895 0.770537
Si Si3 0.682725 0.936056 0.116732
Si Si4 0.190791 0.819284 0.938065
Si Si5 0.253570 0.250000 0.750000
Si Si6 0.389338 0.545736 0.303396
Si Si7 0.500000 0.250000 0.845141
O O1 0.102729 0.206056 0.494553
O O2 0.135644 0.288115 0.566868
O O3 0.500000 0.896081 0.750000
O O4 0.282008 0.907443 0.830319
O O5 0.331317 0.807031 0.774171
O O6 0.197874 0.898309 0.724022
O O7 0.697004 0.888809 0.065991
O O8 0.504281 0.942196 0.142854
O O9 0.750000 0.000000 0.103674
O O10 0.078914 0.798239 0.885506
O O11 0.363959 0.272028 0.802330
O O12 0.500000 0.524544 0.250000
O O13 0.250000 0.500000 0.316299
#
# Coordination Sequence:
#
# PCOD9506088 Si02
#       7
#     8  16  16  16   8  16   8
#     4   9  22  41  72  88 114 139 208 255 316 362
#     4  11  21  33  50  79 121 168 208 241 279 337
#     4  11  22  37  58  84 121 159 197 244 297 361
#     4  10  20  42  64  93 113 157 193 255 309 362
#     4  11  21  32  52  87 125 166 200 239 283 350
#     4  10  19  34  53  77 114 169 210 239 275 342
#     4  10  20  35  58  82 124 157 198 236 294 346
#
# _framework density 19.712240000000001
#
# number of rings (size 3 to 8) (size 9 to 14) (size 15 to 20)
#    0.000    1.636    1.818    5.182    5.091    1.455 
#    0.000    8.182    0.000    0.000    0.000    0.000 
#    0.000    0.000    0.000    0.000    0.000    0.000 
#
# Total GULP energy -245491.780307 kJ/mol
# GULP energy per Si atom -5579.358643 kJ/mol
# Density = 1.966737 g / cm^3
# Si number density = 19.712240 Si / 1000 Ang^3
#
#
#
# Elastic Constant Matrix: (Units=GPa)
#
#
# Indices 1 2 3 4 5 6 
#
# 1 116.0894 47.6648 18.0790 0.0000 0.0000 0.0000
# 2 47.6648 178.9315 30.1512 0.0000 0.0000 0.0000
# 3 18.0790 30.1512 35.7976 0.0000 0.0000 0.0000
# 4 0.0000 0.0000 0.0000 15.0029 0.0000 0.0000
# 5 0.0000 0.0000 0.0000 0.0000 8.4522 0.0000
# 6 0.0000 0.0000 0.0000 0.0000 0.0000 -70.2244
#
#
#
# Elastic Compliance Matrix: (Units=1/GPa)
#
#
# Indices 1 2 3 4 5 6 
#
# 1 0.009989 -0.002110 -0.003267 0.000000 0.000000 0.000000
# 2 -0.002110 0.006959 -0.004795 0.000000 0.000000 0.000000
# 3 -0.003267 -0.004795 0.033624 0.000000 0.000000 0.000000
# 4 0.000000 0.000000 0.000000 0.066654 0.000000 0.000000
# 5 0.000000 0.000000 0.000000 0.000000 0.118313 0.000000
# 6 0.000000 0.000000 0.000000 0.000000 0.000000 -0.014240
#
#
# Mechanical properties :
#
#
# Convention : Reuss Voigt Hill
#
# Bulk Modulus (GPa) = 33.08436 58.06760 45.57598
# Shear Modulus (GPa) = 19.86325 6.30769 13.08547
#
# Velocity S-wave (km/s) = 3.17781 1.79076 2.57927
# Velocity P-wave (km/s) = 5.50316 5.81355 5.66048
#
# Compressibility (1/GPa) = 0.03022576
#
# Stress axis : x y z
#
# Youngs Moduli (GPa) = 100.10590 143.69886 29.74058
#
# Poissons Ratio (x) = 0.30327 0.09718
# Poissons Ratio (y) = 0.21127 0.14262
# Poissons Ratio (z) = 0.32709 0.68911
#
# Static dielectric constant tensor:
#      x y z
#    x 1.729140 0.000000 0.000000 
#    y 0.000000 1.740940 0.000000 
#    z 0.000000 0.000000 1.693950 
# 
# From -- ./inp_files/43174.got.cif
#   From: 2010.05.17/outbox.cif.g08.bks.cpg/sg68_22_cif.got.tgz:43174.got - 2010.06.03 18:57:09.
