data_PCOD9506785
_publ_section_title
;
Structure prediction by ZEFSAII (Michael W. Deem and Ramdas Pophale) SiO2 
 PCOD9506785
Probable space group: C C C A
;
_chemical_formula_sum "Si O2"
_cell_formula_units_Z 48
_cell_length_a 15.563868
_cell_length_b 8.960367
_cell_length_c 18.938606
_cell_angle_alpha 90.000000
_cell_angle_beta 90.000000
_cell_angle_gamma 90.000000
_cell_volume 2641.139533
_symmetry_space_group_name_H-M "C C C A"
_symmetry_group_IT_number 68
_space_group.IT_coordinate_system_code '2'
_symmetry_cell_setting 'orthorhombic'
loop_
_space_group_symop_operation_xyz
x,y,z
-x,1/2-y,z
x,1/2-y,1/2-z
-x,y,1/2-z
-x,-y,-z
x,1/2+y,-z
-x,1/2+y,1/2+z
x,-y,1/2+z
1/2+x,1/2+y,z
1/2-x,-y,z
1/2+x,-y,1/2-z
1/2-x,1/2+y,1/2-z
1/2-x,1/2-y,-z
1/2+x,y,-z
1/2-x,y,1/2+z
1/2+x,1/2-y,1/2+z
loop_
_atom_site_type_symbol
_atom_site_label
_atom_site_fract_x
_atom_site_fract_y
_atom_site_fract_z
Si Si1 0.844053 0.433159 0.828975
Si Si2 0.914620 0.140364 0.825636
Si Si3 0.508749 0.572987 0.423236
O O1 0.750000 0.500000 0.824183
O O2 0.843124 0.258144 0.850686
O O3 0.887590 0.423479 0.750732
O O4 0.903708 0.524607 0.882949
O O5 0.000000 0.250000 0.826451
O O6 0.935184 0.004114 0.875904
O O7 0.500000 0.750000 0.427033
O O8 0.500000 0.500000 0.500000
#
# Coordination Sequence:
#
# PCOD9506785 Si02
#       3
#    16  16  16
#     4  10  20  36  58  86 114 143 182 233 279 322
#     4   9  19  38  59  79 114 153 184 224 278 338
#     4  11  22  38  59  80 109 151 191 225 276 344
#
# _framework density 18.173973
#
# number of rings (size 3 to 8) (size 9 to 14) (size 15 to 20)
#    0.000    2.000    0.000   10.000    0.000    8.000 
#    0.000    8.333    0.000    0.000    0.000    0.000 
#    0.000    0.000    0.000    0.000    0.000    0.000 
#
# Total GULP energy -133645.278976 kJ/mol
# GULP energy per Si atom -5568.553291 kJ/mol
# Density = 1.813261 g / cm^3
# Si number density = 18.173973 Si / 1000 Ang^3
#
#
#
# Elastic Constant Matrix: (Units=GPa)
#
#
# Indices 1 2 3 4 5 6 
#
# 1 91.9433 64.1997 57.2761 0.0000 0.0000 0.0000
# 2 64.1997 192.6257 99.1995 0.0000 0.0000 0.0000
# 3 57.2761 99.1995 119.8952 0.0000 0.0000 0.0000
# 4 0.0000 0.0000 0.0000 32.7805 0.0000 0.0000
# 5 0.0000 0.0000 0.0000 0.0000 9.2063 0.0000
# 6 0.0000 0.0000 0.0000 0.0000 0.0000 35.7609
#
#
#
# Elastic Compliance Matrix: (Units=1/GPa)
#
#
# Indices 1 2 3 4 5 6 
#
# 1 0.016122 -0.002452 -0.005674 0.000000 0.000000 0.000000
# 2 -0.002452 0.009419 -0.006622 0.000000 0.000000 0.000000
# 3 -0.005674 -0.006622 0.016530 0.000000 0.000000 0.000000
# 4 0.000000 0.000000 0.000000 0.030506 0.000000 0.000000
# 5 0.000000 0.000000 0.000000 0.000000 0.108621 0.000000
# 6 0.000000 0.000000 0.000000 0.000000 0.000000 0.027964
#
#
# Mechanical properties :
#
#
# Convention : Reuss Voigt Hill
#
# Bulk Modulus (GPa) = 79.50980 93.97942 86.74461
# Shear Modulus (GPa) = 20.58911 27.80215 24.19563
#
# Velocity S-wave (km/s) = 3.36949 3.91548 3.65270
# Velocity P-wave (km/s) = 7.67999 8.50086 8.10083
#
# Compressibility (1/GPa) = 0.01257707
#
# Stress axis : x y z
#
# Youngs Moduli (GPa) = 62.02525 106.17401 60.49771
#
# Poissons Ratio (x) = 0.26030 0.34324
# Poissons Ratio (y) = 0.15206 0.40059
# Poissons Ratio (z) = 0.35191 0.70304
#
# Static dielectric constant tensor:
#      x y z
#    x 1.675920 0.000000 0.000000 
#    y 0.000000 1.652930 0.000000 
#    z 0.000000 0.000000 1.640520 
# 
# From -- ./inp_files/27393.got.cif
#   From: 2010.05.17/outbox.cif.g08.bks.cpg/sg68_14_cif.got.tgz:27393.got - 2010.06.03 18:57:09.
