data_PCOD9506825
_publ_section_title
;
Structure prediction by ZEFSAII (Michael W. Deem and Ramdas Pophale) SiO2 
 PCOD9506825
Probable space group: C C C A
;
_chemical_formula_sum "Si O2"
_cell_formula_units_Z 68
_cell_length_a 29.627057
_cell_length_b 7.777222
_cell_length_c 15.359061
_cell_angle_alpha 90.000000
_cell_angle_beta 90.000000
_cell_angle_gamma 90.000000
_cell_volume 3538.976463
_symmetry_space_group_name_H-M "C C C A"
_symmetry_group_IT_number 68
_space_group.IT_coordinate_system_code '2'
_symmetry_cell_setting 'orthorhombic'
loop_
_space_group_symop_operation_xyz
x,y,z
-x,1/2-y,z
x,1/2-y,1/2-z
-x,y,1/2-z
-x,-y,-z
x,1/2+y,-z
-x,1/2+y,1/2+z
x,-y,1/2+z
1/2+x,1/2+y,z
1/2-x,-y,z
1/2+x,-y,1/2-z
1/2-x,1/2+y,1/2-z
1/2-x,1/2-y,-z
1/2+x,y,-z
1/2-x,y,1/2+z
1/2+x,1/2-y,1/2+z
loop_
_atom_site_type_symbol
_atom_site_label
_atom_site_fract_x
_atom_site_fract_y
_atom_site_fract_z
Si Si1 0.500000 0.250000 0.541810
Si Si2 0.259447 0.201425 0.400469
Si Si3 0.000000 0.750000 0.250000
Si Si4 0.307420 0.750000 0.250000
Si Si5 0.553983 0.451349 0.394070
Si Si6 0.148381 0.106960 0.819608
O O1 0.532854 0.359204 0.478825
O O2 0.466126 0.359498 0.599619
O O3 0.250000 0.250000 0.500000
O O4 0.225620 0.291193 0.331962
O O5 0.311067 0.206705 0.369222
O O6 0.250000 0.000000 0.392282
O O7 0.968588 0.637316 0.311436
O O8 0.334741 0.575108 0.223675
O O9 0.607414 0.438057 0.384036
O O10 0.132707 0.250000 0.750000
#
# Coordination Sequence:
#
# PCOD9506825 Si02
#       6
#     8  16   4   8  16  16
#     4   9  22  42  64  85 142 156 214 279 334 398
#     4  10  23  39  63  93 128 177 217 268 334 387
#     4  10  20  36  60  90 124 152 224 244 340 402
#     4  10  24  43  58  97 134 173 220 267 340 382
#     4  10  21  41  62  96 119 176 207 271 333 395
#     4  11  23  41  67  91 131 169 220 280 314 397
#
# _framework density 19.214594999999999
#
# number of rings (size 3 to 8) (size 9 to 14) (size 15 to 20)
#    0.000    1.882    2.353    0.000    3.294    6.118 
#    4.235    0.000    0.000    0.000    0.000    0.000 
#    0.000    0.000    0.000    0.000    0.000    0.000 
#
# Total GULP energy -189515.171413 kJ/mol
# GULP energy per Si atom -5573.975630 kJ/mol
# Density = 1.917086 g / cm^3
# Si number density = 19.214595 Si / 1000 Ang^3
#
#
#
# Elastic Constant Matrix: (Units=GPa)
#
#
# Indices 1 2 3 4 5 6 
#
# 1 128.0057 40.5526 34.3275 0.0000 0.0000 0.0000
# 2 40.5526 71.8611 21.1377 0.0000 0.0000 0.0000
# 3 34.3275 21.1377 86.7745 0.0000 0.0000 0.0000
# 4 0.0000 0.0000 0.0000 49.5017 0.0000 0.0000
# 5 0.0000 0.0000 0.0000 0.0000 41.0653 0.0000
# 6 0.0000 0.0000 0.0000 0.0000 0.0000 22.8471
#
#
#
# Elastic Compliance Matrix: (Units=1/GPa)
#
#
# Indices 1 2 3 4 5 6 
#
# 1 0.010112 -0.004879 -0.002812 0.000000 0.000000 0.000000
# 2 -0.004879 0.017344 -0.002295 0.000000 0.000000 0.000000
# 3 -0.002812 -0.002295 0.013195 0.000000 0.000000 0.000000
# 4 0.000000 0.000000 0.000000 0.020201 0.000000 0.000000
# 5 0.000000 0.000000 0.000000 0.000000 0.024351 0.000000
# 6 0.000000 0.000000 0.000000 0.000000 0.000000 0.043769
#
#
# Mechanical properties :
#
#
# Convention : Reuss Voigt Hill
#
# Bulk Modulus (GPa) = 48.35552 53.18632 50.77092
# Shear Modulus (GPa) = 32.08453 35.39105 33.73779
#
# Velocity S-wave (km/s) = 4.09075 4.29637 4.19482
# Velocity P-wave (km/s) = 6.89442 7.23547 7.06700
#
# Compressibility (1/GPa) = 0.02068016
#
# Stress axis : x y z
#
# Youngs Moduli (GPa) = 98.89294 57.65615 75.78409
#
# Poissons Ratio (x) = 0.28132 0.21308
# Poissons Ratio (y) = 0.48253 0.17390
# Poissons Ratio (z) = 0.27805 0.13230
#
# Static dielectric constant tensor:
#      x y z
#    x 1.683630 0.000000 0.000000 
#    y 0.000000 1.688880 0.000000 
#    z 0.000000 0.000000 1.721570 
# 
# From -- ./inp_files/25795.got.cif
#   From: 2010.05.17/outbox.cif.g08.bks.cpg/sg68_13_cif.got.tgz:25795.got - 2010.06.03 18:57:09.
