data_PCOD9506763
_publ_section_title
;
Structure prediction by ZEFSAII (Michael W. Deem and Ramdas Pophale) SiO2 
 PCOD9506763
Probable space group: C C C A
;
_chemical_formula_sum "Si O2"
_cell_formula_units_Z 96
_cell_length_a 21.050810
_cell_length_b 8.916577
_cell_length_c 24.731576
_cell_angle_alpha 90.000000
_cell_angle_beta 90.000000
_cell_angle_gamma 90.000000
_cell_volume 4642.145709
_symmetry_space_group_name_H-M "C C C A"
_symmetry_group_IT_number 68
_space_group.IT_coordinate_system_code '2'
_symmetry_cell_setting 'orthorhombic'
loop_
_space_group_symop_operation_xyz
x,y,z
-x,1/2-y,z
x,1/2-y,1/2-z
-x,y,1/2-z
-x,-y,-z
x,1/2+y,-z
-x,1/2+y,1/2+z
x,-y,1/2+z
1/2+x,1/2+y,z
1/2-x,-y,z
1/2+x,-y,1/2-z
1/2-x,1/2+y,1/2-z
1/2-x,1/2-y,-z
1/2+x,y,-z
1/2-x,y,1/2+z
1/2+x,1/2-y,1/2+z
loop_
_atom_site_type_symbol
_atom_site_label
_atom_site_fract_x
_atom_site_fract_y
_atom_site_fract_z
Si Si1 0.093792 0.428253 0.646319
Si Si2 0.104953 0.277377 0.957649
Si Si3 0.464061 0.471571 0.801949
Si Si4 0.393395 0.250000 0.250000
Si Si5 0.613838 0.732430 0.121926
Si Si6 0.817126 0.429295 0.040656
Si Si7 0.000000 0.750000 0.962021
O O1 0.090300 0.316748 0.595694
O O2 0.129436 0.350319 0.697772
O O3 0.121945 0.591005 0.631507
O O4 0.021136 0.475087 0.659702
O O5 0.141208 0.427458 0.944156
O O6 0.150417 0.169435 0.993737
O O7 0.045027 0.332827 0.994022
O O8 0.500000 0.406713 0.750000
O O9 0.431817 0.623512 0.781902
O O10 0.412729 0.358903 0.826915
O O11 0.677927 0.671640 0.094413
O O12 0.555794 0.701514 0.079115
O O13 0.750000 0.500000 0.025179
#
# Coordination Sequence:
#
# PCOD9506763 Si02
#       7
#    16  16  16   8  16  16   8
#     4  11  21  36  55  93 126 166 203 249 325 389
#     4  11  24  37  65  86 127 167 207 268 316 387
#     4  10  20  36  56  92 131 166 199 253 315 396
#     4  10  23  34  54  86 132 170 202 240 308 395
#     4  11  22  37  61  90 132 167 207 258 321 386
#     4  11  25  43  61  90 126 173 225 262 312 380
#     4  10  22  36  53  95 122 162 196 246 328 380
#
# _framework density 20.680092999999999
#
# number of rings (size 3 to 8) (size 9 to 14) (size 15 to 20)
#    0.000    1.333    1.667    5.750    4.667    6.667 
#    0.000    0.000    0.000    0.000    0.000   52.500 
#    0.000    0.000    0.000    0.000    0.000    0.000 
#
# Total GULP energy -267221.722195 kJ/mol
# GULP energy per Si atom -5567.119212 kJ/mol
# Density = 2.063302 g / cm^3
# Si number density = 20.680093 Si / 1000 Ang^3
#
#
#
# Elastic Constant Matrix: (Units=GPa)
#
#
# Indices 1 2 3 4 5 6 
#
# 1 21.1824 2.9143 2.0248 0.0000 0.0000 0.0000
# 2 2.9143 138.1115 44.9617 0.0000 0.0000 0.0000
# 3 2.0248 44.9617 93.3002 0.0000 0.0000 0.0000
# 4 0.0000 0.0000 0.0000 34.2209 0.0000 0.0000
# 5 0.0000 0.0000 0.0000 0.0000 14.5210 0.0000
# 6 0.0000 0.0000 0.0000 0.0000 0.0000 16.9013
#
#
#
# Elastic Compliance Matrix: (Units=1/GPa)
#
#
# Indices 1 2 3 4 5 6 
#
# 1 0.047379 -0.000789 -0.000648 0.000000 0.000000 0.000000
# 2 -0.000789 0.008601 -0.004128 0.000000 0.000000 0.000000
# 3 -0.000648 -0.004128 0.012721 0.000000 0.000000 0.000000
# 4 0.000000 0.000000 0.000000 0.029222 0.000000 0.000000
# 5 0.000000 0.000000 0.000000 0.000000 0.068866 0.000000
# 6 0.000000 0.000000 0.000000 0.000000 0.000000 0.059167
#
#
# Mechanical properties :
#
#
# Convention : Reuss Voigt Hill
#
# Bulk Modulus (GPa) = 17.36940 39.15508 28.26224
# Shear Modulus (GPa) = 19.51016 26.64151 23.07584
#
# Velocity S-wave (km/s) = 3.07486 3.59314 3.34405
# Velocity P-wave (km/s) = 4.58516 6.01573 5.34849
#
# Compressibility (1/GPa) = 0.05757251
#
# Stress axis : x y z
#
# Youngs Moduli (GPa) = 21.10619 116.26651 78.60830
#
# Poissons Ratio (x) = 0.09171 0.05095
# Poissons Ratio (y) = 0.01665 0.32447
# Poissons Ratio (z) = 0.01368 0.47991
#
# Static dielectric constant tensor:
#      x y z
#    x 1.750130 0.000000 0.000000 
#    y 0.000000 1.761450 0.000000 
#    z 0.000000 0.000000 1.813070 
# 
# From -- ./inp_files/46955.got.cif
#   From: 2010.05.17/outbox.cif.g08.bks.cpg/sg68_24_cif.got.tgz:46955.got - 2010.06.03 18:57:09.
