data_PCOD9506208
_publ_section_title
;
Structure prediction by ZEFSAII (Michael W. Deem and Ramdas Pophale) SiO2 
 PCOD9506208
Probable space group: C C C A
;
_chemical_formula_sum "Si O2"
_cell_formula_units_Z 64
_cell_length_a 15.192911
_cell_length_b 8.432009
_cell_length_c 21.195841
_cell_angle_alpha 90.000000
_cell_angle_beta 90.000000
_cell_angle_gamma 90.000000
_cell_volume 2715.330564
_symmetry_space_group_name_H-M "C C C A"
_symmetry_group_IT_number 68
_space_group.IT_coordinate_system_code '2'
_symmetry_cell_setting 'orthorhombic'
loop_
_space_group_symop_operation_xyz
x,y,z
-x,1/2-y,z
x,1/2-y,1/2-z
-x,y,1/2-z
-x,-y,-z
x,1/2+y,-z
-x,1/2+y,1/2+z
x,-y,1/2+z
1/2+x,1/2+y,z
1/2-x,-y,z
1/2+x,-y,1/2-z
1/2-x,1/2+y,1/2-z
1/2-x,1/2-y,-z
1/2+x,y,-z
1/2-x,y,1/2+z
1/2+x,1/2-y,1/2+z
loop_
_atom_site_type_symbol
_atom_site_label
_atom_site_fract_x
_atom_site_fract_y
_atom_site_fract_z
Si Si1 0.398898 0.192769 0.180786
Si Si2 0.898985 0.686582 0.684180
Si Si3 0.097634 0.315750 0.052150
Si Si4 0.829518 0.870700 0.062502
O O1 0.500000 0.250000 0.171855
O O2 0.371170 0.250000 0.250000
O O3 0.341136 0.273377 0.126571
O O4 0.396424 0.002628 0.180514
O O5 0.859255 0.750000 0.750000
O O6 0.863083 0.754936 0.618729
O O7 0.000000 0.750000 0.684704
O O8 0.090463 0.504301 0.056075
O O9 0.000000 0.250000 0.045101
O O10 0.156358 0.249156 0.995281
O O11 0.750000 0.000000 0.060575
#
# Coordination Sequence:
#
# PCOD9506208 Si02
#       4
#    16  16  16  16
#     4  11  21  39  67  96 127 171 223 275 326 393
#     4  10  19  35  61  96 127 160 213 278 329 375
#     4  11  22  40  65  92 126 173 223 270 318 389
#     4  12  25  42  63  97 136 172 213 269 335 394
#
# _framework density 23.569873000000001
#
# number of rings (size 3 to 8) (size 9 to 14) (size 15 to 20)
#    0.000    1.000    0.000   11.250    0.000    0.000 
#    0.000    3.750    0.000    1.500    0.000    0.000 
#    0.000    0.000    0.000    0.000    0.000    0.000 
#
# Total GULP energy -179031.474463 kJ/mol
# GULP energy per Si atom -5594.733577 kJ/mol
# Density = 2.351623 g / cm^3
# Si number density = 23.569873 Si / 1000 Ang^3
#
#
#
# Elastic Constant Matrix: (Units=GPa)
#
#
# Indices 1 2 3 4 5 6 
#
# 1 83.3840 10.7742 37.8887 0.0000 0.0000 0.0000
# 2 10.7742 211.9541 87.2382 0.0000 0.0000 0.0000
# 3 37.8887 87.2382 260.9085 0.0000 0.0000 0.0000
# 4 0.0000 0.0000 0.0000 51.9338 0.0000 0.0000
# 5 0.0000 0.0000 0.0000 0.0000 -24.9785 0.0000
# 6 0.0000 0.0000 0.0000 0.0000 0.0000 30.1265
#
#
#
# Elastic Compliance Matrix: (Units=1/GPa)
#
#
# Indices 1 2 3 4 5 6 
#
# 1 0.012843 0.000133 -0.001910 0.000000 0.000000 0.000000
# 2 0.000133 0.005472 -0.001849 0.000000 0.000000 0.000000
# 3 -0.001910 -0.001849 0.004728 0.000000 0.000000 0.000000
# 4 0.000000 0.000000 0.000000 0.019255 0.000000 0.000000
# 5 0.000000 0.000000 0.000000 0.000000 -0.040034 0.000000
# 6 0.000000 0.000000 0.000000 0.000000 0.000000 0.033193
#
#
# Mechanical properties :
#
#
# Convention : Reuss Voigt Hill
#
# Bulk Modulus (GPa) = 63.32018 92.00544 77.66281
# Shear Modulus (GPa) = 104.22454 39.43939 71.83196
#
# Velocity S-wave (km/s) = 6.65698 4.09503 5.52651
# Velocity P-wave (km/s) = 9.27418 7.84085 8.58747
#
# Compressibility (1/GPa) = 0.01579275
#
# Stress axis : x y z
#
# Youngs Moduli (GPa) = 77.86222 182.73874 211.49142
#
# Poissons Ratio (x) = -0.02432 0.40386
# Poissons Ratio (y) = -0.01036 0.39106
# Poissons Ratio (z) = 0.14868 0.33790
#
# Static dielectric constant tensor:
#      x y z
#    x 2.021580 0.000000 0.000000 
#    y 0.000000 1.869670 0.000000 
#    z 0.000000 0.000000 1.899360 
# 
# From -- ./inp_files/39116.got.cif
#   From: 2010.05.17/outbox.cif.g08.bks.cpg/sg68_20_cif.got.tgz:39116.got - 2010.06.03 18:57:09.
