data_PCOD9506912
_publ_section_title
;
Structure prediction by ZEFSAII (Michael W. Deem and Ramdas Pophale) SiO2 
 PCOD9506912
Probable space group: C C C A
;
_chemical_formula_sum "Si O2"
_cell_formula_units_Z 104
_cell_length_a 8.559648
_cell_length_b 20.895683
_cell_length_c 29.991417
_cell_angle_alpha 90.000000
_cell_angle_beta 90.000000
_cell_angle_gamma 90.000000
_cell_volume 5364.255583
_symmetry_space_group_name_H-M "C C C A"
_symmetry_group_IT_number 68
_space_group.IT_coordinate_system_code '2'
_symmetry_cell_setting 'orthorhombic'
loop_
_space_group_symop_operation_xyz
x,y,z
-x,1/2-y,z
x,1/2-y,1/2-z
-x,y,1/2-z
-x,-y,-z
x,1/2+y,-z
-x,1/2+y,1/2+z
x,-y,1/2+z
1/2+x,1/2+y,z
1/2-x,-y,z
1/2+x,-y,1/2-z
1/2-x,1/2+y,1/2-z
1/2-x,1/2-y,-z
1/2+x,y,-z
1/2-x,y,1/2+z
1/2+x,1/2-y,1/2+z
loop_
_atom_site_type_symbol
_atom_site_label
_atom_site_fract_x
_atom_site_fract_y
_atom_site_fract_z
Si Si1 0.000000 0.250000 0.319333
Si Si2 0.500000 0.650456 0.250000
Si Si3 0.565376 0.986870 0.891050
Si Si4 0.984922 0.901386 0.546226
Si Si5 0.351262 0.555626 0.180703
Si Si6 0.500000 0.250000 0.419729
Si Si7 0.646036 0.874684 0.950835
Si Si8 0.224396 0.333484 0.118409
O O1 0.079618 0.301740 0.285993
O O2 0.117176 0.211306 0.350403
O O3 0.402102 0.603921 0.218868
O O4 0.569215 0.914195 0.909519
O O5 0.750000 0.000000 0.887381
O O6 0.487208 0.029564 0.930067
O O7 0.484554 0.017270 0.847153
O O8 0.166301 0.880075 0.549041
O O9 0.922275 0.903635 0.496282
O O10 0.873746 0.853982 0.574619
O O11 0.250000 0.500000 0.201482
O O12 0.257399 0.599587 0.145139
O O13 0.403426 0.301140 0.448158
O O14 0.377122 0.207278 0.392282
#
# Coordination Sequence:
#
# PCOD9506912 Si02
#       8
#     8   8  16  16  16   8  16  16
#     4   9  18  39  64  79 106 142 188 225 274 340
#     4   9  20  36  60  88 108 141 178 226 280 337
#     4   9  20  38  59  81 108 148 191 231 278 330
#     4  10  21  37  57  80 109 147 195 237 277 320
#     4  10  20  37  59  84 113 141 181 227 279 336
#     4  12  24  35  52  80 114 146 186 226 278 333
#     4  11  22  35  53  81 115 150 187 234 277 324
#     4  10  21  37  57  80 107 149 187 228 275 332
#
# _framework density 19.387592000000001
#
# number of rings (size 3 to 8) (size 9 to 14) (size 15 to 20)
#    0.000    2.000    0.000    3.231    0.000    6.154 
#    0.000    2.308    0.000    6.462    0.000    0.000 
#    0.000    0.000    0.000    0.000    0.000    0.000 
#
# Total GULP energy -289724.201990 kJ/mol
# GULP energy per Si atom -5571.619269 kJ/mol
# Density = 1.934346 g / cm^3
# Si number density = 19.387592 Si / 1000 Ang^3
#
#
#
# Elastic Constant Matrix: (Units=GPa)
#
#
# Indices 1 2 3 4 5 6 
#
# 1 63.0783 30.2234 18.0152 0.0000 0.0000 0.0000
# 2 30.2234 96.9371 13.5325 0.0000 0.0000 0.0000
# 3 18.0152 13.5325 60.9037 0.0000 0.0000 0.0000
# 4 0.0000 0.0000 0.0000 25.8876 0.0000 0.0000
# 5 0.0000 0.0000 0.0000 0.0000 -12.8644 0.0000
# 6 0.0000 0.0000 0.0000 0.0000 0.0000 34.8140
#
#
#
# Elastic Compliance Matrix: (Units=1/GPa)
#
#
# Indices 1 2 3 4 5 6 
#
# 1 0.019829 -0.005535 -0.004636 0.000000 0.000000 0.000000
# 2 -0.005535 0.012191 -0.001072 0.000000 0.000000 0.000000
# 3 -0.004636 -0.001072 0.018029 0.000000 0.000000 0.000000
# 4 0.000000 0.000000 0.000000 0.038629 0.000000 0.000000
# 5 0.000000 0.000000 0.000000 0.000000 -0.077734 0.000000
# 6 0.000000 0.000000 0.000000 0.000000 0.000000 0.028724
#
#
# Mechanical properties :
#
#
# Convention : Reuss Voigt Hill
#
# Bulk Modulus (GPa) = 36.27849 38.27349 37.27599
# Shear Modulus (GPa) = 70.08567 20.17730 45.13148
#
# Velocity S-wave (km/s) = 6.01899 3.22954 4.83002
# Velocity P-wave (km/s) = 8.18884 5.80436 7.09746
#
# Compressibility (1/GPa) = 0.02756455
#
# Stress axis : x y z
#
# Youngs Moduli (GPa) = 50.43007 82.02513 55.46730
#
# Poissons Ratio (x) = 0.45404 0.25712
# Poissons Ratio (y) = 0.27915 0.05943
# Poissons Ratio (z) = 0.23377 0.08789
#
# Static dielectric constant tensor:
#      x y z
#    x 1.672170 0.000000 0.000000 
#    y 0.000000 1.699360 0.000000 
#    z 0.000000 0.000000 1.682800 
# 
# From -- ./inp_files/49464.got.cif
#   From: 2010.05.17/outbox.cif.g08.bks.cpg/sg68_25_cif.got.tgz:49464.got - 2010.06.03 18:57:09.
