data_PCOD9506015
_publ_section_title
;
Structure prediction by ZEFSAII (Michael W. Deem and Ramdas Pophale) SiO2 
 PCOD9506015
Probable space group: C C C A
;
_chemical_formula_sum "Si O2"
_cell_formula_units_Z 112
_cell_length_a 15.120965
_cell_length_b 25.172450
_cell_length_c 13.811890
_cell_angle_alpha 90.000000
_cell_angle_beta 90.000000
_cell_angle_gamma 90.000000
_cell_volume 5257.243660
_symmetry_space_group_name_H-M "C C C A"
_symmetry_group_IT_number 68
_space_group.IT_coordinate_system_code '2'
_symmetry_cell_setting 'orthorhombic'
loop_
_space_group_symop_operation_xyz
x,y,z
-x,1/2-y,z
x,1/2-y,1/2-z
-x,y,1/2-z
-x,-y,-z
x,1/2+y,-z
-x,1/2+y,1/2+z
x,-y,1/2+z
1/2+x,1/2+y,z
1/2-x,-y,z
1/2+x,-y,1/2-z
1/2-x,1/2+y,1/2-z
1/2-x,1/2-y,-z
1/2+x,y,-z
1/2-x,y,1/2+z
1/2+x,1/2-y,1/2+z
loop_
_atom_site_type_symbol
_atom_site_label
_atom_site_fract_x
_atom_site_fract_y
_atom_site_fract_z
Si Si1 0.744692 0.894174 0.084734
Si Si2 0.658511 0.795220 0.183746
Si Si3 0.876047 0.372326 0.599128
Si Si4 0.934631 0.357191 0.963964
Si Si5 0.644933 0.257454 0.019803
Si Si6 0.930257 0.378487 0.181456
Si Si7 0.754944 0.439687 0.216733
O O1 0.724452 0.839186 0.141898
O O2 0.845269 0.890490 0.050509
O O3 0.733049 0.937675 0.167375
O O4 0.675244 0.895076 0.996470
O O5 0.701764 0.750000 0.250000
O O6 0.595365 0.826606 0.256526
O O7 0.611703 0.772039 0.088486
O O8 0.862188 0.308473 0.589329
O O9 0.828270 0.403154 0.685895
O O10 0.981712 0.377220 0.596483
O O11 0.905355 0.295700 0.947656
O O12 0.963279 0.363733 0.075883
O O13 0.750000 0.250000 0.000000
O O14 0.840802 0.411620 0.172385
O O15 0.000000 0.408072 0.250000
O O16 0.750000 0.500000 0.182561
#
# Coordination Sequence:
#
# PCOD9506015 Si02
#       7
#    16  16  16  16  16  16  16
#     4  10  23  41  63  93 129 172 216 277 329 403
#     4  10  19  32  59  95 134 176 219 261 318 385
#     4  11  24  42  65  99 132 174 219 277 343 406
#     4  12  21  39  65  97 143 171 212 274 340 411
#     4  11  19  36  59  96 140 184 219 266 330 410
#     4  11  22  40  65  98 129 167 225 280 321 394
#     4  11  25  48  70  88 127 175 224 290 350 401
#
# _framework density 21.303939
#
# number of rings (size 3 to 8) (size 9 to 14) (size 15 to 20)
#    0.000    1.143    5.714    3.000    2.000    1.429 
#    2.571    0.714    0.000    1.714    0.000    0.000 
#    0.000    0.000    0.000    0.000    0.000    0.000 
#
# Total GULP energy -312643.380708 kJ/mol
# GULP energy per Si atom -5582.917513 kJ/mol
# Density = 2.125545 g / cm^3
# Si number density = 21.303939 Si / 1000 Ang^3
#
#
#
# Elastic Constant Matrix: (Units=GPa)
#
#
# Indices 1 2 3 4 5 6 
#
# 1 113.1684 5.0096 -6.9933 0.0000 0.0000 0.0000
# 2 5.0096 56.7456 1.6869 0.0000 0.0000 0.0000
# 3 -6.9933 1.6869 29.6480 0.0000 0.0000 0.0000
# 4 0.0000 0.0000 0.0000 9.1432 0.0000 0.0000
# 5 0.0000 0.0000 0.0000 0.0000 31.8530 0.0000
# 6 0.0000 0.0000 0.0000 0.0000 0.0000 5.7424
#
#
#
# Elastic Compliance Matrix: (Units=1/GPa)
#
#
# Indices 1 2 3 4 5 6 
#
# 1 0.009009 -0.000860 0.002174 0.000000 0.000000 0.000000
# 2 -0.000860 0.017734 -0.001212 0.000000 0.000000 0.000000
# 3 0.002174 -0.001212 0.034311 0.000000 0.000000 0.000000
# 4 0.000000 0.000000 0.000000 0.109371 0.000000 0.000000
# 5 0.000000 0.000000 0.000000 0.000000 0.031394 0.000000
# 6 0.000000 0.000000 0.000000 0.000000 0.000000 0.174143
#
#
# Mechanical properties :
#
#
# Convention : Reuss Voigt Hill
#
# Bulk Modulus (GPa) = 16.32437 22.10761 19.21599
# Shear Modulus (GPa) = 12.62060 22.67164 17.64612
#
# Velocity S-wave (km/s) = 2.43658 3.26575 2.88115
# Velocity P-wave (km/s) = 3.94907 4.96184 4.48414
#
# Compressibility (1/GPa) = 0.06125812
#
# Stress axis : x y z
#
# Youngs Moduli (GPa) = 111.00271 56.38738 29.14537
#
# Poissons Ratio (x) = 0.04849 -0.06336
# Poissons Ratio (y) = 0.09545 0.03532
# Poissons Ratio (z) = -0.24131 0.06834
#
# Static dielectric constant tensor:
#      x y z
#    x 1.813650 0.000000 0.000000 
#    y 0.000000 1.779460 0.000000 
#    z 0.000000 0.000000 1.806860 
# 
# From -- ./inp_files/22593.got.cif
#   From: 2010.05.17/outbox.cif.g08.bks.cpg/sg68_12_cif.got.tgz:22593.got - 2010.06.03 18:57:09.
