data_PCOD9506952
_publ_section_title
;
Structure prediction by ZEFSAII (Michael W. Deem and Ramdas Pophale) SiO2 
 PCOD9506952
Probable space group: C C C A
;
_chemical_formula_sum "Si O2"
_cell_formula_units_Z 96
_cell_length_a 28.413529
_cell_length_b 5.415418
_cell_length_c 34.037075
_cell_angle_alpha 90.000000
_cell_angle_beta 90.000000
_cell_angle_gamma 90.000000
_cell_volume 5237.323410
_symmetry_space_group_name_H-M "C C C A"
_symmetry_group_IT_number 68
_space_group.IT_coordinate_system_code '2'
_symmetry_cell_setting 'orthorhombic'
loop_
_space_group_symop_operation_xyz
x,y,z
-x,1/2-y,z
x,1/2-y,1/2-z
-x,y,1/2-z
-x,-y,-z
x,1/2+y,-z
-x,1/2+y,1/2+z
x,-y,1/2+z
1/2+x,1/2+y,z
1/2-x,-y,z
1/2+x,-y,1/2-z
1/2-x,1/2+y,1/2-z
1/2-x,1/2-y,-z
1/2+x,y,-z
1/2-x,y,1/2+z
1/2+x,1/2-y,1/2+z
loop_
_atom_site_type_symbol
_atom_site_label
_atom_site_fract_x
_atom_site_fract_y
_atom_site_fract_z
Si Si1 0.371480 0.750000 0.750000
Si Si2 0.443793 0.111742 0.709592
Si Si3 0.443723 0.749911 0.524381
Si Si4 0.629016 0.755203 0.351942
Si Si5 0.000000 0.750000 0.338934
Si Si6 0.701016 0.111082 0.709056
Si Si7 0.096266 0.735781 0.111049
O O1 0.405615 0.595830 0.777988
O O2 0.337641 0.588752 0.722568
O O3 0.451904 0.250000 0.750000
O O4 0.415357 0.267477 0.677735
O O5 0.487915 0.978552 0.689676
O O6 0.500000 0.750000 0.532746
O O7 0.433740 0.502907 0.499204
O O8 0.416050 0.742325 0.565186
O O9 0.675226 0.766647 0.324628
O O10 0.626350 0.506364 0.377610
O O11 0.620535 0.008408 0.375484
O O12 0.046125 0.778308 0.365822
O O13 0.711390 0.250000 0.750000
O O14 0.750000 0.000000 0.694902
#
# Coordination Sequence:
#
# PCOD9506952 Si02
#       7
#     8  16  16  16   8  16  16
#     4  12  20  41  52  74 108 142 210 261 312 334
#     4  11  23  39  53  69 108 155 213 262 288 338
#     4  10  20  37  62  89 118 150 191 234 277 346
#     4  11  23  40  58  78 118 151 189 252 304 337
#     4  10  24  39  48  76 106 156 202 244 286 328
#     4  12  23  36  60  84 109 155 207 255 310 367
#     4  11  23  41  58  84 119 153 190 233 295 353
#
# _framework density 18.329975000000001
#
# number of rings (size 3 to 8) (size 9 to 14) (size 15 to 20)
#    0.000    1.000    5.000    3.000    0.000    3.000 
#    3.000    0.000    0.000    0.000    0.000    0.000 
#    0.000   13.333    0.000    0.000    0.000    0.000 
#
# Total GULP energy -268387.995134 kJ/mol
# GULP energy per Si atom -5591.416565 kJ/mol
# Density = 1.828826 g / cm^3
# Si number density = 18.329975 Si / 1000 Ang^3
#
#
#
# Elastic Constant Matrix: (Units=GPa)
#
#
# Indices 1 2 3 4 5 6 
#
# 1 71.1549 32.4996 26.9240 0.0000 0.0000 0.0000
# 2 32.4996 115.5043 58.0028 0.0000 0.0000 0.0000
# 3 26.9240 58.0028 129.1143 0.0000 0.0000 0.0000
# 4 0.0000 0.0000 0.0000 26.6157 0.0000 0.0000
# 5 0.0000 0.0000 0.0000 0.0000 11.6211 0.0000
# 6 0.0000 0.0000 0.0000 0.0000 0.0000 26.2367
#
#
#
# Elastic Compliance Matrix: (Units=1/GPa)
#
#
# Indices 1 2 3 4 5 6 
#
# 1 0.016424 -0.003747 -0.001742 0.000000 0.000000 0.000000
# 2 -0.003747 0.012034 -0.004625 0.000000 0.000000 0.000000
# 3 -0.001742 -0.004625 0.010186 0.000000 0.000000 0.000000
# 4 0.000000 0.000000 0.000000 0.037572 0.000000 0.000000
# 5 0.000000 0.000000 0.000000 0.000000 0.086050 0.000000
# 6 0.000000 0.000000 0.000000 0.000000 0.000000 0.038114
#
#
# Mechanical properties :
#
#
# Convention : Reuss Voigt Hill
#
# Bulk Modulus (GPa) = 54.29546 61.18069 57.73807
# Shear Modulus (GPa) = 22.05097 26.11785 24.08441
#
# Velocity S-wave (km/s) = 3.47219 3.77884 3.62876
# Velocity P-wave (km/s) = 6.76463 7.24496 7.00891
#
# Compressibility (1/GPa) = 0.01841775
#
# Stress axis : x y z
#
# Youngs Moduli (GPa) = 60.88597 83.09494 98.17384
#
# Poissons Ratio (x) = 0.31132 0.17100
# Poissons Ratio (y) = 0.22812 0.45406
# Poissons Ratio (z) = 0.10605 0.38432
#
# Static dielectric constant tensor:
#      x y z
#    x 1.625610 0.000000 0.000000 
#    y 0.000000 1.691200 0.000000 
#    z 0.000000 0.000000 1.617550 
# 
# From -- ./inp_files/56258.got.cif
#   From: 2010.05.17/outbox.cif.g08.bks.cpg/sg68_29_cif.got.tgz:56258.got - 2010.06.03 18:57:09.
