data_PCOD9506916
_publ_section_title
;
Structure prediction by ZEFSAII (Michael W. Deem and Ramdas Pophale) SiO2 
 PCOD9506916
Probable space group: C C C A
;
_chemical_formula_sum "Si O2"
_cell_formula_units_Z 100
_cell_length_a 12.496488
_cell_length_b 26.926595
_cell_length_c 13.048299
_cell_angle_alpha 90.000000
_cell_angle_beta 90.000000
_cell_angle_gamma 90.000000
_cell_volume 4390.594355
_symmetry_space_group_name_H-M "C C C A"
_symmetry_group_IT_number 68
_space_group.IT_coordinate_system_code '2'
_symmetry_cell_setting 'orthorhombic'
loop_
_space_group_symop_operation_xyz
x,y,z
-x,1/2-y,z
x,1/2-y,1/2-z
-x,y,1/2-z
-x,-y,-z
x,1/2+y,-z
-x,1/2+y,1/2+z
x,-y,1/2+z
1/2+x,1/2+y,z
1/2-x,-y,z
1/2+x,-y,1/2-z
1/2-x,1/2+y,1/2-z
1/2-x,1/2-y,-z
1/2+x,y,-z
1/2-x,y,1/2+z
1/2+x,1/2-y,1/2+z
loop_
_atom_site_type_symbol
_atom_site_label
_atom_site_fract_x
_atom_site_fract_y
_atom_site_fract_z
Si Si1 0.648420 0.973092 0.905641
Si Si2 0.338814 0.721472 0.850672
Si Si3 0.356439 0.711296 0.072624
Si Si4 0.773525 0.110498 0.797055
Si Si5 0.824844 0.600957 0.920987
Si Si6 0.548943 0.572430 0.136580
Si Si7 0.000000 0.250000 0.250000
O O1 0.630759 0.924776 0.836550
O O2 0.750000 0.000000 0.853652
O O3 0.565034 0.017478 0.910134
O O4 0.691588 0.947232 0.008857
O O5 0.379904 0.750000 0.750000
O O6 0.230422 0.748900 0.888607
O O7 0.309017 0.666653 0.811226
O O8 0.402095 0.720869 0.958602
O O9 0.299031 0.658071 0.054178
O O10 0.437161 0.714050 0.169666
O O11 0.737067 0.094457 0.684689
O O12 0.662239 0.100717 0.860008
O O13 0.954703 0.601972 0.918092
O O14 0.500000 0.565563 0.250000
#
# Coordination Sequence:
#
# PCOD9506916 Si02
#       7
#    16  16  16  16  16  16   4
#     4  10  21  38  57  84 118 161 211 257 312 377
#     4  11  21  41  63  96 130 169 212 266 326 387
#     4  11  24  36  67  96 131 165 214 269 320 387
#     4  10  20  37  59  89 122 162 208 260 313 382
#     4  11  20  35  59  91 120 160 205 263 315 369
#     4   9  21  35  59  84 124 161 209 261 318 375
#     4  12  24  44  66 104 124 166 216 262 324 388
#
# _framework density 22.775959
#
# number of rings (size 3 to 8) (size 9 to 14) (size 15 to 20)
#    0.000    1.600    4.000    0.480    5.600    3.200 
#    0.000    0.400    3.520    0.000    0.000    0.000 
#    0.000    0.000    0.000    0.000    0.000    0.000 
#
# Total GULP energy -278341.204631 kJ/mol
# GULP energy per Si atom -5566.824093 kJ/mol
# Density = 2.272412 g / cm^3
# Si number density = 22.775959 Si / 1000 Ang^3
#
#
#
# Elastic Constant Matrix: (Units=GPa)
#
#
# Indices 1 2 3 4 5 6 
#
# 1 20.8256 12.3578 13.5626 0.0000 0.0000 0.0000
# 2 12.3578 156.3533 25.6190 0.0000 0.0000 0.0000
# 3 13.5626 25.6190 138.9309 0.0000 0.0000 0.0000
# 4 0.0000 0.0000 0.0000 38.6122 0.0000 0.0000
# 5 0.0000 0.0000 0.0000 0.0000 12.9985 0.0000
# 6 0.0000 0.0000 0.0000 0.0000 0.0000 11.1277
#
#
#
# Elastic Compliance Matrix: (Units=1/GPa)
#
#
# Indices 1 2 3 4 5 6 
#
# 1 0.053020 -0.003447 -0.004540 0.000000 0.000000 0.000000
# 2 -0.003447 0.006819 -0.000921 0.000000 0.000000 0.000000
# 3 -0.004540 -0.000921 0.007811 0.000000 0.000000 0.000000
# 4 0.000000 0.000000 0.000000 0.025899 0.000000 0.000000
# 5 0.000000 0.000000 0.000000 0.000000 0.076932 0.000000
# 6 0.000000 0.000000 0.000000 0.000000 0.000000 0.089866
#
#
# Mechanical properties :
#
#
# Convention : Reuss Voigt Hill
#
# Bulk Modulus (GPa) = 20.06665 46.57654 33.32159
# Shear Modulus (GPa) = 16.96220 30.18570 23.57395
#
# Velocity S-wave (km/s) = 2.73196 3.64446 3.22069
# Velocity P-wave (km/s) = 4.33371 6.18092 5.33782
#
# Compressibility (1/GPa) = 0.04983394
#
# Stress axis : x y z
#
# Youngs Moduli (GPa) = 18.86088 146.64709 128.02641
#
# Poissons Ratio (x) = 0.50544 0.58128
# Poissons Ratio (y) = 0.06501 0.11791
# Poissons Ratio (z) = 0.08563 0.13506
#
# Static dielectric constant tensor:
#      x y z
#    x 1.898690 0.000000 0.000000 
#    y 0.000000 1.868880 0.000000 
#    z 0.000000 0.000000 1.962930 
# 
# From -- ./inp_files/13545.got.cif
#   From: 2010.05.17/outbox.cif.g08.bks.cpg/sg68_7_cif.got.tgz:13545.got - 2010.06.03 18:57:09.
