data_PCOD9506218
_publ_section_title
;
Structure prediction by ZEFSAII (Michael W. Deem and Ramdas Pophale) SiO2 
 PCOD9506218
Probable space group: C C C A
;
_chemical_formula_sum "Si O2"
_cell_formula_units_Z 56
_cell_length_a 5.257943
_cell_length_b 30.820729
_cell_length_c 13.335702
_cell_angle_alpha 90.000000
_cell_angle_beta 90.000000
_cell_angle_gamma 90.000000
_cell_volume 2161.099002
_symmetry_space_group_name_H-M "C C C A"
_symmetry_group_IT_number 68
_space_group.IT_coordinate_system_code '2'
_symmetry_cell_setting 'orthorhombic'
loop_
_space_group_symop_operation_xyz
x,y,z
-x,1/2-y,z
x,1/2-y,1/2-z
-x,y,1/2-z
-x,-y,-z
x,1/2+y,-z
-x,1/2+y,1/2+z
x,-y,1/2+z
1/2+x,1/2+y,z
1/2-x,-y,z
1/2+x,-y,1/2-z
1/2-x,1/2+y,1/2-z
1/2-x,1/2-y,-z
1/2+x,y,-z
1/2-x,y,1/2+z
1/2+x,1/2-y,1/2+z
loop_
_atom_site_type_symbol
_atom_site_label
_atom_site_fract_x
_atom_site_fract_y
_atom_site_fract_z
Si Si1 0.500000 0.250000 0.429192
Si Si2 0.634449 0.547708 0.878873
Si Si3 0.131146 0.582552 0.894362
Si Si4 0.266817 0.830994 0.688420
O O1 0.250000 0.250000 0.500000
O O2 0.586219 0.210216 0.358447
O O3 0.750000 0.500000 0.872161
O O4 0.349350 0.554071 0.841219
O O5 0.856846 0.579413 0.844124
O O6 0.594662 0.561858 0.995819
O O7 0.202303 0.633007 0.895394
O O8 0.500000 0.851781 0.750000
O O9 0.000000 0.821712 0.750000
#
# Coordination Sequence:
#
# PCOD9506218 Si02
#       4
#     8  16  16  16
#     4  12  29  48  81 110 140 178 256 314 355 434
#     4  10  19  35  64  99 138 182 240 306 355 399
#     4  10  20  34  64  94 134 176 243 279 348 422
#     4  12  27  48  72 103 151 194 226 290 390 459
#
# _framework density 25.912742000000001
#
# number of rings (size 3 to 8) (size 9 to 14) (size 15 to 20)
#    0.000    1.143    0.000    8.143    8.000    1.143 
#    0.000    0.000    0.000   29.143    0.000    0.000 
#    0.000    0.000    0.000    0.000    0.000    0.000 
#
# Total GULP energy -156375.398437 kJ/mol
# GULP energy per Si atom -5584.835658 kJ/mol
# Density = 2.585376 g / cm^3
# Si number density = 25.912742 Si / 1000 Ang^3
#
#
#
# Elastic Constant Matrix: (Units=GPa)
#
#
# Indices 1 2 3 4 5 6 
#
# 1 252.2501 41.3445 40.2294 0.0000 0.0000 0.0000
# 2 41.3445 163.9050 11.0837 0.0000 0.0000 0.0000
# 3 40.2294 11.0837 63.5000 0.0000 0.0000 0.0000
# 4 0.0000 0.0000 0.0000 38.3094 0.0000 0.0000
# 5 0.0000 0.0000 0.0000 0.0000 49.1026 0.0000
# 6 0.0000 0.0000 0.0000 0.0000 0.0000 52.7641
#
#
#
# Elastic Compliance Matrix: (Units=1/GPa)
#
#
# Indices 1 2 3 4 5 6 
#
# 1 0.004556 -0.000965 -0.002718 0.000000 0.000000 0.000000
# 2 -0.000965 0.006379 -0.000502 0.000000 0.000000 0.000000
# 3 -0.002718 -0.000502 0.017557 0.000000 0.000000 0.000000
# 4 0.000000 0.000000 0.000000 0.026103 0.000000 0.000000
# 5 0.000000 0.000000 0.000000 0.000000 0.020366 0.000000
# 6 0.000000 0.000000 0.000000 0.000000 0.000000 0.018952
#
#
# Mechanical properties :
#
#
# Convention : Reuss Voigt Hill
#
# Bulk Modulus (GPa) = 49.69693 73.88558 61.79125
# Shear Modulus (GPa) = 45.87556 53.83504 49.85530
#
# Velocity S-wave (km/s) = 4.21216 4.56296 4.39107
# Velocity P-wave (km/s) = 6.54802 7.50573 7.04317
#
# Compressibility (1/GPa) = 0.02012197
#
# Stress axis : x y z
#
# Youngs Moduli (GPa) = 219.49017 156.77536 56.95587
#
# Poissons Ratio (x) = 0.15136 0.15480
# Poissons Ratio (y) = 0.21191 0.02857
# Poissons Ratio (z) = 0.59655 0.07865
#
# Static dielectric constant tensor:
#      x y z
#    x 2.130540 0.000000 0.000000 
#    y 0.000000 2.007370 0.000000 
#    z 0.000000 0.000000 1.925860 
# 
# From -- ./inp_files/27000.got.cif
#   From: 2010.05.17/outbox.cif.g08.bks.cpg/sg68_14_cif.got.tgz:27000.got - 2010.06.03 18:57:09.
