data_PCOD9506388
_publ_section_title
;
Structure prediction by ZEFSAII (Michael W. Deem and Ramdas Pophale) SiO2 
 PCOD9506388
Probable space group: C C C A
;
_chemical_formula_sum "Si O2"
_cell_formula_units_Z 92
_cell_length_a 15.709070
_cell_length_b 15.311011
_cell_length_c 18.569368
_cell_angle_alpha 90.000000
_cell_angle_beta 90.000000
_cell_angle_gamma 90.000000
_cell_volume 4466.336768
_symmetry_space_group_name_H-M "C C C A"
_symmetry_group_IT_number 68
_space_group.IT_coordinate_system_code '2'
_symmetry_cell_setting 'orthorhombic'
loop_
_space_group_symop_operation_xyz
x,y,z
-x,1/2-y,z
x,1/2-y,1/2-z
-x,y,1/2-z
-x,-y,-z
x,1/2+y,-z
-x,1/2+y,1/2+z
x,-y,1/2+z
1/2+x,1/2+y,z
1/2-x,-y,z
1/2+x,-y,1/2-z
1/2-x,1/2+y,1/2-z
1/2-x,1/2-y,-z
1/2+x,y,-z
1/2-x,y,1/2+z
1/2+x,1/2-y,1/2+z
loop_
_atom_site_type_symbol
_atom_site_label
_atom_site_fract_x
_atom_site_fract_y
_atom_site_fract_z
Si Si1 0.840695 0.032695 0.684681
Si Si2 0.250000 0.500000 0.822460
Si Si3 0.500000 0.250000 0.750000
Si Si4 0.894202 0.159727 0.568660
Si Si5 0.971018 0.888293 0.632075
Si Si6 0.090998 0.844826 0.018749
Si Si7 0.366437 0.037008 0.558705
O O1 0.872457 0.119272 0.645600
O O2 0.750000 0.000000 0.653025
O O3 0.816931 0.045208 0.768522
O O4 0.907592 0.954656 0.672427
O O5 0.303753 0.440890 0.876178
O O6 0.517929 0.324376 0.687848
O O7 0.867825 0.258640 0.552524
O O8 0.851568 0.095989 0.510378
O O9 0.995381 0.152801 0.552347
O O10 0.920852 0.837716 0.567938
O O11 0.039374 0.944625 0.588359
O O12 0.136432 0.935529 0.037005
#
# Coordination Sequence:
#
# PCOD9506388 Si02
#       7
#    16   8   4  16  16  16  16
#     4  10  22  41  59  90 129 174 206 260 332 390
#     4  10  26  36  60  88 124 176 220 248 324 396
#     4  12  24  32  68 100 130 164 216 252 344 396
#     4  10  19  38  67  94 127 157 210 277 319 383
#     4  11  20  41  63  96 127 166 205 277 323 386
#     4  10  20  36  70 103 115 157 232 260 323 388
#     4  11  20  41  65  93 126 168 214 269 320 381
#
# _framework density 20.598535999999999
#
# number of rings (size 3 to 8) (size 9 to 14) (size 15 to 20)
#    0.522    1.043    3.478    4.174    1.217    0.000 
#    0.000    7.826    0.000    2.087    0.000    0.000 
#    0.000    0.000    0.000    0.000    0.000    0.000 
#
# Total GULP energy -256135.732567 kJ/mol
# GULP energy per Si atom -5568.168099 kJ/mol
# Density = 2.055165 g / cm^3
# Si number density = 20.598536 Si / 1000 Ang^3
#
#
#
# Elastic Constant Matrix: (Units=GPa)
#
#
# Indices 1 2 3 4 5 6 
#
# 1 31.8099 -8.1577 -0.9101 0.0000 0.0000 0.0000
# 2 -8.1577 98.7702 6.8524 0.0000 0.0000 0.0000
# 3 -0.9101 6.8524 81.0380 0.0000 0.0000 0.0000
# 4 0.0000 0.0000 0.0000 15.5645 0.0000 0.0000
# 5 0.0000 0.0000 0.0000 0.0000 30.5874 0.0000
# 6 0.0000 0.0000 0.0000 0.0000 0.0000 -0.7461
#
#
#
# Elastic Compliance Matrix: (Units=1/GPa)
#
#
# Indices 1 2 3 4 5 6 
#
# 1 0.032119 0.002643 0.000137 0.000000 0.000000 0.000000
# 2 0.002643 0.010402 -0.000850 0.000000 0.000000 0.000000
# 3 0.000137 -0.000850 0.012413 0.000000 0.000000 0.000000
# 4 0.000000 0.000000 0.000000 0.064249 0.000000 0.000000
# 5 0.000000 0.000000 0.000000 0.000000 0.032693 0.000000
# 6 0.000000 0.000000 0.000000 0.000000 0.000000 -1.340335
#
#
# Mechanical properties :
#
#
# Convention : Reuss Voigt Hill
#
# Bulk Modulus (GPa) = 17.00832 23.02081 20.01457
# Shear Modulus (GPa) = -4.26358 23.33674 9.53658
#
# Velocity S-wave (km/s) = -1.44026 3.36956 2.15402
# Velocity P-wave (km/s) = 2.34717 5.13213 3.99049
#
# Compressibility (1/GPa) = 0.05879474
#
# Stress axis : x y z
#
# Youngs Moduli (GPa) = 31.13469 96.13740 80.55883
#
# Poissons Ratio (x) = -0.25411 -0.01105
# Poissons Ratio (y) = -0.08230 0.06846
# Poissons Ratio (z) = -0.00427 0.08170
#
# Static dielectric constant tensor:
#      x y z
#    x 1.784150 0.000000 0.000000 
#    y 0.000000 1.730530 0.000000 
#    z 0.000000 0.000000 1.732340 
# 
# From -- ./inp_files/39596.got.cif
#   From: 2010.05.17/outbox.cif.g08.bks.cpg/sg68_20_cif.got.tgz:39596.got - 2010.06.03 18:57:09.
