data_PCOD9506737
_publ_section_title
;
Structure prediction by ZEFSAII (Michael W. Deem and Ramdas Pophale) SiO2 
 PCOD9506737
Probable space group: C C C A
;
_chemical_formula_sum "Si O2"
_cell_formula_units_Z 72
_cell_length_a 10.369642
_cell_length_b 10.453409
_cell_length_c 26.989638
_cell_angle_alpha 90.000000
_cell_angle_beta 90.000000
_cell_angle_gamma 90.000000
_cell_volume 2925.625722
_symmetry_space_group_name_H-M "C C C A"
_symmetry_group_IT_number 68
_space_group.IT_coordinate_system_code '2'
_symmetry_cell_setting 'orthorhombic'
loop_
_space_group_symop_operation_xyz
x,y,z
-x,1/2-y,z
x,1/2-y,1/2-z
-x,y,1/2-z
-x,-y,-z
x,1/2+y,-z
-x,1/2+y,1/2+z
x,-y,1/2+z
1/2+x,1/2+y,z
1/2-x,-y,z
1/2+x,-y,1/2-z
1/2-x,1/2+y,1/2-z
1/2-x,1/2-y,-z
1/2+x,y,-z
1/2-x,y,1/2+z
1/2+x,1/2-y,1/2+z
loop_
_atom_site_type_symbol
_atom_site_label
_atom_site_fract_x
_atom_site_fract_y
_atom_site_fract_z
Si Si1 0.368265 0.169100 0.612226
Si Si2 0.500000 0.750000 0.672583
Si Si3 0.124962 0.159306 0.005925
Si Si4 0.339870 0.108765 0.399179
Si Si5 0.762308 0.361890 0.216826
O O1 0.500000 0.250000 0.614941
O O2 0.373818 0.093355 0.559961
O O3 0.248262 0.265017 0.603424
O O4 0.340297 0.111743 0.665906
O O5 0.541320 0.864182 0.635863
O O6 0.377166 0.802271 0.702196
O O7 0.000000 0.250000 0.004186
O O8 0.250000 0.250000 0.000000
O O9 0.124123 0.076847 0.955849
O O10 0.250000 0.000000 0.378084
O O11 0.824534 0.250000 0.250000
O O12 0.750000 0.500000 0.242588
#
# Coordination Sequence:
#
# PCOD9506737 Si02
#       5
#    16   8  16  16  16
#     4   9  21  40  61  96 137 174 225 289 344 421
#     4  10  23  46  68 100 144 174 227 298 350 430
#     4   9  17  35  58  90 142 184 230 283 343 419
#     4  10  20  35  66  98 133 185 226 274 345 417
#     4  11  26  48  73 101 136 183 237 303 369 427
#
# _framework density 24.610119000000001
#
# number of rings (size 3 to 8) (size 9 to 14) (size 15 to 20)
#    0.000    2.222    1.111    0.333    3.111    4.889 
#    4.000   10.000    0.000    0.000    0.000    0.000 
#    0.000    0.000    0.000    0.000    0.000    0.000 
#
# Total GULP energy -201142.879563 kJ/mol
# GULP energy per Si atom -5587.302210 kJ/mol
# Density = 2.455411 g / cm^3
# Si number density = 24.610119 Si / 1000 Ang^3
#
#
#
# Elastic Constant Matrix: (Units=GPa)
#
#
# Indices 1 2 3 4 5 6 
#
# 1 115.4044 0.9581 35.2596 0.0000 0.0000 0.0000
# 2 0.9581 72.9179 42.6124 0.0000 0.0000 0.0000
# 3 35.2596 42.6124 138.1675 0.0000 0.0000 0.0000
# 4 0.0000 0.0000 0.0000-1505.5177 0.0000 0.0000
# 5 0.0000 0.0000 0.0000 0.0000 89.6529 0.0000
# 6 0.0000 0.0000 0.0000 0.0000 0.0000 47.9799
#
#
#
# Elastic Compliance Matrix: (Units=1/GPa)
#
#
# Indices 1 2 3 4 5 6 
#
# 1 0.009546 0.001584 -0.002924 0.000000 0.000000 0.000000
# 2 0.001584 0.016992 -0.005645 0.000000 0.000000 0.000000
# 3 -0.002924 -0.005645 0.009725 0.000000 0.000000 0.000000
# 4 0.000000 0.000000 0.000000 -0.000664 0.000000 0.000000
# 5 0.000000 0.000000 0.000000 0.000000 0.011154 0.000000
# 6 0.000000 0.000000 0.000000 0.000000 0.000000 0.020842
#
#
# Mechanical properties :
#
#
# Convention : Reuss Voigt Hill
#
# Bulk Modulus (GPa) = 44.86054 53.79445 49.32749
# Shear Modulus (GPa) = 56.18271 -257.06634 -100.44181
#
# Velocity S-wave (km/s) = 4.78317 -10.23144 -6.39545
# Velocity P-wave (km/s) = 6.98376 10.84759 5.86930
#
# Compressibility (1/GPa) = 0.02229131
#
# Stress axis : x y z
#
# Youngs Moduli (GPa) = 104.76130 58.85160 102.83061
#
# Poissons Ratio (x) = -0.09319 0.30071
# Poissons Ratio (y) = -0.16589 0.58044
# Poissons Ratio (z) = 0.30636 0.33219
#
# Static dielectric constant tensor:
#      x y z
#    x 1.872080 0.000000 0.000000 
#    y 0.000000 1.968110 0.000000 
#    z 0.000000 0.000000 2.040560 
# 
# From -- ./inp_files/50020.got.cif
#   From: 2010.05.17/outbox.cif.g08.bks.cpg/sg68_26_cif.got.tgz:50020.got - 2010.06.03 18:57:09.
