data_PCOD9506555
_publ_section_title
;
Structure prediction by ZEFSAII (Michael W. Deem and Ramdas Pophale) SiO2 
 PCOD9506555
Probable space group: C C C A
;
_chemical_formula_sum "Si O2"
_cell_formula_units_Z 64
_cell_length_a 7.508502
_cell_length_b 20.570061
_cell_length_c 15.119172
_cell_angle_alpha 90.000000
_cell_angle_beta 90.000000
_cell_angle_gamma 90.000000
_cell_volume 2335.161319
_symmetry_space_group_name_H-M "C C C A"
_symmetry_group_IT_number 68
_space_group.IT_coordinate_system_code '2'
_symmetry_cell_setting 'orthorhombic'
loop_
_space_group_symop_operation_xyz
x,y,z
-x,1/2-y,z
x,1/2-y,1/2-z
-x,y,1/2-z
-x,-y,-z
x,1/2+y,-z
-x,1/2+y,1/2+z
x,-y,1/2+z
1/2+x,1/2+y,z
1/2-x,-y,z
1/2+x,-y,1/2-z
1/2-x,1/2+y,1/2-z
1/2-x,1/2-y,-z
1/2+x,y,-z
1/2-x,y,1/2+z
1/2+x,1/2-y,1/2+z
loop_
_atom_site_type_symbol
_atom_site_label
_atom_site_fract_x
_atom_site_fract_y
_atom_site_fract_z
Si Si1 0.244259 0.775831 0.897429
Si Si2 0.131565 0.646881 0.880889
Si Si3 0.143207 0.904425 0.420938
Si Si4 0.989149 0.479848 0.344288
O O1 0.246180 0.707540 0.846879
O O2 0.384159 0.833058 0.879356
O O3 0.059184 0.815541 0.886926
O O4 0.250000 0.750000 0.000000
O O5 0.123540 0.580181 0.827858
O O6 0.170753 0.617195 0.978005
O O7 0.314161 0.940482 0.378039
O O8 0.993730 0.960001 0.411792
O O9 0.000000 0.514396 0.250000
#
# Coordination Sequence:
#
# PCOD9506555 Si02
#       4
#    16  16  16  16
#     4   8  15  29  52  80 104 131 175 232 276 323
#     4   9  16  31  56  78 101 138 182 225 270 333
#     4   9  18  34  52  75 103 137 181 224 273 336
#     4  10  20  34  51  77 111 142 174 225 281 334
#
# _framework density 27.4071
#
# number of rings (size 3 to 8) (size 9 to 14) (size 15 to 20)
#    0.000    3.000    0.000    0.750    0.000    0.000 
#    0.000   30.000    0.000    9.000    0.000    0.000 
#    0.000    0.000    0.000    0.000    0.000    0.000 
#
# Total GULP energy -178159.583827 kJ/mol
# GULP energy per Si atom -5567.486995 kJ/mol
# Density = 2.734472 g / cm^3
# Si number density = 27.407100 Si / 1000 Ang^3
#
#
#
# Elastic Constant Matrix: (Units=GPa)
#
#
# Indices 1 2 3 4 5 6 
#
# 1 95.9730 26.7508 -0.0725 0.0000 0.0000 0.0000
# 2 26.7508 325.1817 33.1238 0.0000 0.0000 0.0000
# 3 -0.0725 33.1238 64.9359 0.0000 0.0000 0.0000
# 4 0.0000 0.0000 0.0000 23.4843 0.0000 0.0000
# 5 0.0000 0.0000 0.0000 0.0000 20.5376 0.0000
# 6 0.0000 0.0000 0.0000 0.0000 0.0000 20.9838
#
#
#
# Elastic Compliance Matrix: (Units=1/GPa)
#
#
# Indices 1 2 3 4 5 6 
#
# 1 0.010679 -0.000928 0.000485 0.000000 0.000000 0.000000
# 2 -0.000928 0.003324 -0.001697 0.000000 0.000000 0.000000
# 3 0.000485 -0.001697 0.016266 0.000000 0.000000 0.000000
# 4 0.000000 0.000000 0.000000 0.042582 0.000000 0.000000
# 5 0.000000 0.000000 0.000000 0.000000 0.048691 0.000000
# 6 0.000000 0.000000 0.000000 0.000000 0.000000 0.047656
#
#
# Mechanical properties :
#
#
# Convention : Reuss Voigt Hill
#
# Bulk Modulus (GPa) = 38.47638 67.29940 52.88789
# Shear Modulus (GPa) = 27.45144 41.42036 34.43590
#
# Velocity S-wave (km/s) = 3.16827 3.89176 3.54850
# Velocity P-wave (km/s) = 5.23958 6.69352 6.01067
#
# Compressibility (1/GPa) = 0.02598997
#
# Stress axis : x y z
#
# Youngs Moduli (GPa) = 93.64520 300.80828 61.47835
#
# Poissons Ratio (x) = 0.27912 -0.02983
# Poissons Ratio (y) = 0.08689 0.10432
# Poissons Ratio (z) = -0.04544 0.51041
#
# Static dielectric constant tensor:
#      x y z
#    x 2.543370 0.000000 0.000000 
#    y 0.000000 2.195620 0.000000 
#    z 0.000000 0.000000 2.184620 
# 
# From -- ./inp_files/11507.got.cif
#   From: 2010.05.17/outbox.cif.g08.bks.cpg/sg68_6_cif.got.tgz:11507.got - 2010.06.03 18:57:09.
