data_PCOD9506259
_publ_section_title
;
Structure prediction by ZEFSAII (Michael W. Deem and Ramdas Pophale) SiO2 
 PCOD9506259
Probable space group: C C C A
;
_chemical_formula_sum "Si O2"
_cell_formula_units_Z 88
_cell_length_a 25.857825
_cell_length_b 9.374354
_cell_length_c 18.622655
_cell_angle_alpha 90.000000
_cell_angle_beta 90.000000
_cell_angle_gamma 90.000000
_cell_volume 4514.139118
_symmetry_space_group_name_H-M "C C C A"
_symmetry_group_IT_number 68
_space_group.IT_coordinate_system_code '2'
_symmetry_cell_setting 'orthorhombic'
loop_
_space_group_symop_operation_xyz
x,y,z
-x,1/2-y,z
x,1/2-y,1/2-z
-x,y,1/2-z
-x,-y,-z
x,1/2+y,-z
-x,1/2+y,1/2+z
x,-y,1/2+z
1/2+x,1/2+y,z
1/2-x,-y,z
1/2+x,-y,1/2-z
1/2-x,1/2+y,1/2-z
1/2-x,1/2-y,-z
1/2+x,y,-z
1/2-x,y,1/2+z
1/2+x,1/2-y,1/2+z
loop_
_atom_site_type_symbol
_atom_site_label
_atom_site_fract_x
_atom_site_fract_y
_atom_site_fract_z
Si Si1 0.131824 0.750000 0.250000
Si Si2 0.960936 0.870953 0.997795
Si Si3 0.621801 0.433703 0.380383
Si Si4 0.877291 0.259410 0.105247
Si Si5 0.193399 0.741016 0.465428
Si Si6 0.189530 0.516893 0.342260
O O1 0.104272 0.831137 0.315341
O O2 0.165597 0.624945 0.285232
O O3 0.916733 0.909377 0.053992
O O4 0.000000 0.750000 0.022482
O O5 0.931932 0.824165 0.923633
O O6 0.000000 0.000000 0.000000
O O7 0.620675 0.601006 0.361092
O O8 0.676371 0.370171 0.411632
O O9 0.844300 0.373485 0.150955
O O10 0.845416 0.236213 0.031768
O O11 0.250000 0.750000 0.500000
O O12 0.187286 0.597421 0.419108
O O13 0.250000 0.500000 0.326094
#
# Coordination Sequence:
#
# PCOD9506259 Si02
#       6
#     8  16  16  16  16  16
#     4  10  26  44  57  82 132 174 225 244 300 376
#     4  11  22  40  70 101 127 152 201 266 335 378
#     4  10  23  40  61  92 126 169 204 260 308 376
#     4  11  22  36  64  98 127 156 206 268 321 366
#     4  10  19  36  59  92 127 157 200 258 324 369
#     4  11  23  40  61  88 127 176 213 254 305 375
#
# _framework density 19.494305000000001
#
# number of rings (size 3 to 8) (size 9 to 14) (size 15 to 20)
#    0.000    1.455    3.636    2.182    5.091    2.182 
#    0.000    0.455    0.000    0.000    0.000    0.000 
#    0.000    0.000    0.000    0.000    0.000    0.000 
#
# Total GULP energy -245303.296058 kJ/mol
# GULP energy per Si atom -5575.074910 kJ/mol
# Density = 1.944993 g / cm^3
# Si number density = 19.494305 Si / 1000 Ang^3
#
#
#
# Elastic Constant Matrix: (Units=GPa)
#
#
# Indices 1 2 3 4 5 6 
#
# 1 82.0939 39.4238 0.8263 0.0000 0.0000 0.0000
# 2 39.4238 169.0587 18.9960 0.0000 0.0000 0.0000
# 3 0.8263 18.9960 33.3133 0.0000 0.0000 0.0000
# 4 0.0000 0.0000 0.0000 18.2958 0.0000 0.0000
# 5 0.0000 0.0000 0.0000 0.0000 -12.3643 0.0000
# 6 0.0000 0.0000 0.0000 0.0000 0.0000 22.3861
#
#
#
# Elastic Compliance Matrix: (Units=1/GPa)
#
#
# Indices 1 2 3 4 5 6 
#
# 1 0.013796 -0.003396 0.001594 0.000000 0.000000 0.000000
# 2 -0.003396 0.007156 -0.003996 0.000000 0.000000 0.000000
# 3 0.001594 -0.003996 0.032257 0.000000 0.000000 0.000000
# 4 0.000000 0.000000 0.000000 0.054657 0.000000 0.000000
# 5 0.000000 0.000000 0.000000 0.000000 -0.080878 0.000000
# 6 0.000000 0.000000 0.000000 0.000000 0.000000 0.044671
#
#
# Mechanical properties :
#
#
# Convention : Reuss Voigt Hill
#
# Bulk Modulus (GPa) = 24.03085 44.77311 34.40198
# Shear Modulus (GPa) = 51.47877 20.67816 36.07847
#
# Velocity S-wave (km/s) = 5.14436 3.26042 4.30666
# Velocity P-wave (km/s) = 6.90216 6.09843 6.51270
#
# Compressibility (1/GPa) = 0.04161318
#
# Stress axis : x y z
#
# Youngs Moduli (GPa) = 72.48394 139.73958 31.00069
#
# Poissons Ratio (x) = 0.47461 -0.04943
# Poissons Ratio (y) = 0.24618 0.12389
# Poissons Ratio (z) = -0.11558 0.55845
#
# Static dielectric constant tensor:
#      x y z
#    x 1.694340 0.000000 0.000000 
#    y 0.000000 1.690930 0.000000 
#    z 0.000000 0.000000 1.686960 
# 
# From -- ./inp_files/40728.got.cif
#   From: 2010.05.17/outbox.cif.g08.bks.cpg/sg68_21_cif.got.tgz:40728.got - 2010.06.03 18:57:09.
