data_PCOD9506887
_publ_section_title
;
Structure prediction by ZEFSAII (Michael W. Deem and Ramdas Pophale) SiO2 
 PCOD9506887
Probable space group: C C C A
;
_chemical_formula_sum "Si O2"
_cell_formula_units_Z 104
_cell_length_a 13.029864
_cell_length_b 13.708915
_cell_length_c 26.477899
_cell_angle_alpha 90.000000
_cell_angle_beta 90.000000
_cell_angle_gamma 90.000000
_cell_volume 4729.622600
_symmetry_space_group_name_H-M "C C C A"
_symmetry_group_IT_number 68
_space_group.IT_coordinate_system_code '2'
_symmetry_cell_setting 'orthorhombic'
loop_
_space_group_symop_operation_xyz
x,y,z
-x,1/2-y,z
x,1/2-y,1/2-z
-x,y,1/2-z
-x,-y,-z
x,1/2+y,-z
-x,1/2+y,1/2+z
x,-y,1/2+z
1/2+x,1/2+y,z
1/2-x,-y,z
1/2+x,-y,1/2-z
1/2-x,1/2+y,1/2-z
1/2-x,1/2-y,-z
1/2+x,y,-z
1/2-x,y,1/2+z
1/2+x,1/2-y,1/2+z
loop_
_atom_site_type_symbol
_atom_site_label
_atom_site_fract_x
_atom_site_fract_y
_atom_site_fract_z
Si Si1 0.432223 0.409678 0.479151
Si Si2 0.690619 0.401875 0.670539
Si Si3 0.638321 0.704269 0.955895
Si Si4 0.462696 0.855135 0.332296
Si Si5 0.169771 0.750000 0.750000
Si Si6 0.684748 0.596305 0.418227
Si Si7 0.236509 0.400915 0.446940
O O1 0.500000 0.500000 0.500000
O O2 0.528414 0.347528 0.452307
O O3 0.389308 0.375855 0.535784
O O4 0.332984 0.484410 0.454661
O O5 0.750000 0.500000 0.683352
O O6 0.567813 0.411817 0.676848
O O7 0.725043 0.314786 0.707680
O O8 0.708340 0.382795 0.611185
O O9 0.721365 0.671094 0.914613
O O10 0.652573 0.822452 0.952347
O O11 0.678300 0.660789 0.009628
O O12 0.500000 0.750000 0.355040
O O13 0.401390 0.822992 0.282542
O O14 0.384973 0.908919 0.369277
O O15 0.750000 0.500000 0.431284
#
# Coordination Sequence:
#
# PCOD9506887 Si02
#       7
#    16  16  16  16   8  16  16
#     4   9  21  38  57  82 124 164 204 257 301 352
#     4  10  20  36  66  95 122 161 205 259 316 379
#     4   9  20  39  57  78 119 169 202 254 301 358
#     4  10  22  39  64  90 123 159 202 259 309 379
#     4  10  21  44  64  90 123 160 205 250 318 378
#     4  12  25  37  58  92 124 163 209 253 308 370
#     4   9  18  34  59  88 111 154 205 252 301 359
#
# _framework density 21.989070000000002
#
# number of rings (size 3 to 8) (size 9 to 14) (size 15 to 20)
#    0.923    1.231    0.000    4.846    2.154    4.923 
#    0.000    0.000    0.000    8.308    0.000    2.154 
#    0.000    0.000    0.000    0.000    0.000    0.000 
#
# Total GULP energy -289731.904503 kJ/mol
# GULP energy per Si atom -5571.767394 kJ/mol
# Density = 2.193902 g / cm^3
# Si number density = 21.989070 Si / 1000 Ang^3
#
#
#
# Elastic Constant Matrix: (Units=GPa)
#
#
# Indices 1 2 3 4 5 6 
#
# 1 148.5249 39.3477 24.1048 0.0000 0.0000 0.0000
# 2 39.3477 165.2345 25.0374 0.0000 0.0000 0.0000
# 3 24.1048 25.0374 120.2721 0.0000 0.0000 0.0000
# 4 0.0000 0.0000 0.0000 31.8129 0.0000 0.0000
# 5 0.0000 0.0000 0.0000 0.0000 27.3892 0.0000
# 6 0.0000 0.0000 0.0000 0.0000 0.0000 44.1673
#
#
#
# Elastic Compliance Matrix: (Units=1/GPa)
#
#
# Indices 1 2 3 4 5 6 
#
# 1 0.007335 -0.001574 -0.001143 0.000000 0.000000 0.000000
# 2 -0.001574 0.006587 -0.001056 0.000000 0.000000 0.000000
# 3 -0.001143 -0.001056 0.008763 0.000000 0.000000 0.000000
# 4 0.000000 0.000000 0.000000 0.031434 0.000000 0.000000
# 5 0.000000 0.000000 0.000000 0.000000 0.036511 0.000000
# 6 0.000000 0.000000 0.000000 0.000000 0.000000 0.022641
#
#
# Mechanical properties :
#
#
# Convention : Reuss Voigt Hill
#
# Bulk Modulus (GPa) = 66.04461 67.89013 66.96737
# Shear Modulus (GPa) = 39.72608 43.70998 41.71803
#
# Velocity S-wave (km/s) = 4.25506 4.46332 4.36043
# Velocity P-wave (km/s) = 7.36485 7.58308 7.47476
#
# Compressibility (1/GPa) = 0.01514128
#
# Stress axis : x y z
#
# Youngs Moduli (GPa) = 136.32901 151.82071 114.11289
#
# Poissons Ratio (x) = 0.23891 0.13038
# Poissons Ratio (y) = 0.21453 0.12048
# Poissons Ratio (z) = 0.15576 0.16029
#
# Static dielectric constant tensor:
#      x y z
#    x 1.952170 0.000000 0.000000 
#    y 0.000000 2.067930 0.000000 
#    z 0.000000 0.000000 1.738170 
# 
# From -- ./inp_files/50310.got.cif
#   From: 2010.05.17/outbox.cif.g08.bks.cpg/sg68_26_cif.got.tgz:50310.got - 2010.06.03 18:57:09.
