data_PCOD9506670
_publ_section_title
;
Structure prediction by ZEFSAII (Michael W. Deem and Ramdas Pophale) SiO2 
 PCOD9506670
Probable space group: C C C A
;
_chemical_formula_sum "Si O2"
_cell_formula_units_Z 60
_cell_length_a 5.105478
_cell_length_b 27.117110
_cell_length_c 23.965837
_cell_angle_alpha 90.000000
_cell_angle_beta 90.000000
_cell_angle_gamma 90.000000
_cell_volume 3317.969681
_symmetry_space_group_name_H-M "C C C A"
_symmetry_group_IT_number 68
_space_group.IT_coordinate_system_code '2'
_symmetry_cell_setting 'orthorhombic'
loop_
_space_group_symop_operation_xyz
x,y,z
-x,1/2-y,z
x,1/2-y,1/2-z
-x,y,1/2-z
-x,-y,-z
x,1/2+y,-z
-x,1/2+y,1/2+z
x,-y,1/2+z
1/2+x,1/2+y,z
1/2-x,-y,z
1/2+x,-y,1/2-z
1/2-x,1/2+y,1/2-z
1/2-x,1/2-y,-z
1/2+x,y,-z
1/2-x,y,1/2+z
1/2+x,1/2-y,1/2+z
loop_
_atom_site_type_symbol
_atom_site_label
_atom_site_fract_x
_atom_site_fract_y
_atom_site_fract_z
Si Si1 0.750248 0.940869 0.034411
Si Si2 0.938530 0.891277 0.647950
Si Si3 0.500000 0.966172 0.250000
Si Si4 0.948056 0.656213 0.189593
Si Si5 0.500000 0.250000 0.250000
O O1 0.648618 0.915387 0.090267
O O2 0.750000 0.000000 0.042657
O O3 0.542092 0.928222 0.985694
O O4 0.931118 0.932249 0.696817
O O5 0.729606 0.848112 0.661204
O O6 0.229659 0.869659 0.652875
O O7 0.250000 0.000000 0.236537
O O8 0.859233 0.710823 0.209278
O O9 0.000000 0.630501 0.250000
#
# Coordination Sequence:
#
# PCOD9506670 Si02
#       5
#    16  16   8  16   4
#     4  10  22  39  57  78 108 152 203 239 267 314
#     4  12  21  37  54  83 112 148 180 238 276 330
#     4  12  22  31  48  75 112 145 172 211 280 340
#     4  10  20  35  56  81 119 137 179 221 278 352
#     4   8  20  36  56  86 120 146 176 216 284 368
#
# _framework density 18.083345999999999
#
# number of rings (size 3 to 8) (size 9 to 14) (size 15 to 20)
#    0.800    0.533    2.667    4.000    0.000    5.333 
#    0.000    0.000    0.000    0.000    0.000   18.667 
#    0.000    0.000    0.000    0.000    0.000    0.000 
#
# Total GULP energy -167088.680003 kJ/mol
# GULP energy per Si atom -5569.622667 kJ/mol
# Density = 1.804219 g / cm^3
# Si number density = 18.083346 Si / 1000 Ang^3
#
#
#
# Elastic Constant Matrix: (Units=GPa)
#
#
# Indices 1 2 3 4 5 6 
#
# 1 92.7349 20.0886 6.7558 0.0000 0.0000 0.0000
# 2 20.0886 67.7555 28.6306 0.0000 0.0000 0.0000
# 3 6.7558 28.6306 83.7738 0.0000 0.0000 0.0000
# 4 0.0000 0.0000 0.0000 17.1241 0.0000 0.0000
# 5 0.0000 0.0000 0.0000 0.0000 21.6735 0.0000
# 6 0.0000 0.0000 0.0000 0.0000 0.0000 -28.6159
#
#
#
# Elastic Compliance Matrix: (Units=1/GPa)
#
#
# Indices 1 2 3 4 5 6 
#
# 1 0.011529 -0.003536 0.000279 0.000000 0.000000 0.000000
# 2 -0.003536 0.018335 -0.005981 0.000000 0.000000 0.000000
# 3 0.000279 -0.005981 0.013958 0.000000 0.000000 0.000000
# 4 0.000000 0.000000 0.000000 0.058397 0.000000 0.000000
# 5 0.000000 0.000000 0.000000 0.000000 0.046139 0.000000
# 6 0.000000 0.000000 0.000000 0.000000 0.000000 -0.034946
#
#
# Mechanical properties :
#
#
# Convention : Reuss Voigt Hill
#
# Bulk Modulus (GPa) = 39.45424 39.46825 39.46125
# Shear Modulus (GPa) = 35.62826 14.62230 25.12528
#
# Velocity S-wave (km/s) = 4.44354 2.84668 3.73153
# Velocity P-wave (km/s) = 6.94205 5.71646 6.35885
#
# Compressibility (1/GPa) = 0.02534582
#
# Stress axis : x y z
#
# Youngs Moduli (GPa) = 86.73701 54.54166 71.64113
#
# Poissons Ratio (x) = 0.19286 -0.01997
# Poissons Ratio (y) = 0.30670 0.42848
# Poissons Ratio (z) = -0.02418 0.32621
#
# Static dielectric constant tensor:
#      x y z
#    x 1.638710 0.000000 0.000000 
#    y 0.000000 1.633380 0.000000 
#    z 0.000000 0.000000 1.612140 
# 
# From -- ./inp_files/34959.got.cif
#   From: 2010.05.17/outbox.cif.g08.bks.cpg/sg68_18_cif.got.tgz:34959.got - 2010.06.03 18:57:09.
