data_PCOD9506412
_publ_section_title
;
Structure prediction by ZEFSAII (Michael W. Deem and Ramdas Pophale) SiO2 
 PCOD9506412
Probable space group: C C C A
;
_chemical_formula_sum "Si O2"
_cell_formula_units_Z 96
_cell_length_a 11.042652
_cell_length_b 15.201047
_cell_length_c 23.946271
_cell_angle_alpha 90.000000
_cell_angle_beta 90.000000
_cell_angle_gamma 90.000000
_cell_volume 4019.617986
_symmetry_space_group_name_H-M "C C C A"
_symmetry_group_IT_number 68
_space_group.IT_coordinate_system_code '2'
_symmetry_cell_setting 'orthorhombic'
loop_
_space_group_symop_operation_xyz
x,y,z
-x,1/2-y,z
x,1/2-y,1/2-z
-x,y,1/2-z
-x,-y,-z
x,1/2+y,-z
-x,1/2+y,1/2+z
x,-y,1/2+z
1/2+x,1/2+y,z
1/2-x,-y,z
1/2+x,-y,1/2-z
1/2-x,1/2+y,1/2-z
1/2-x,1/2-y,-z
1/2+x,y,-z
1/2-x,y,1/2+z
1/2+x,1/2-y,1/2+z
loop_
_atom_site_type_symbol
_atom_site_label
_atom_site_fract_x
_atom_site_fract_y
_atom_site_fract_z
Si Si1 0.672541 0.178497 0.677329
Si Si2 0.031354 0.106463 0.628436
Si Si3 0.777555 0.367054 0.715401
Si Si4 0.762173 0.106852 0.444731
Si Si5 0.279867 0.105587 0.426519
Si Si6 0.937535 0.906982 0.850831
O O1 0.715419 0.275105 0.694448
O O2 0.760826 0.122880 0.718461
O O3 0.686561 0.155834 0.612654
O O4 0.533458 0.149659 0.684088
O O5 0.089295 0.131722 0.688544
O O6 0.139239 0.134414 0.586349
O O7 0.905706 0.135763 0.602186
O O8 0.011482 0.001403 0.631726
O O9 0.678271 0.429468 0.687199
O O10 0.774277 0.131880 0.508926
O O11 0.877931 0.132549 0.407182
O O12 0.750000 0.000000 0.443429
O O13 0.250000 0.000000 0.423637
#
# Coordination Sequence:
#
# PCOD9506412 Si02
#       6
#    16  16  16  16  16  16
#     4  11  23  39  63  89 121 165 211 246 308 378
#     4  10  21  40  61  89 126 156 202 258 313 364
#     4  10  23  42  60  86 125 168 200 252 316 368
#     4   8  19  34  61  90 123 162 194 253 320 361
#     4  11  22  36  61  96 121 159 208 255 302 372
#     4  10  19  39  64  91 117 159 206 258 302 363
#
# _framework density 23.882867999999998
#
# number of rings (size 3 to 8) (size 9 to 14) (size 15 to 20)
#    0.000    2.000    1.667    2.500    2.333    6.000 
#    3.000    5.000    7.333    0.000    0.000    0.000 
#    0.000    0.000    0.000    0.000    0.000    0.000 
#
# Total GULP energy -267685.451339 kJ/mol
# GULP energy per Si atom -5576.780236 kJ/mol
# Density = 2.382851 g / cm^3
# Si number density = 23.882868 Si / 1000 Ang^3
#
#
#
# Elastic Constant Matrix: (Units=GPa)
#
#
# Indices 1 2 3 4 5 6 
#
# 1 111.7220 17.5987 33.5115 0.0000 0.0000 0.0000
# 2 17.5987 50.0869 3.1529 0.0000 0.0000 0.0000
# 3 33.5115 3.1529 154.3849 0.0000 0.0000 0.0000
# 4 0.0000 0.0000 0.0000 22.2879 0.0000 0.0000
# 5 0.0000 0.0000 0.0000 0.0000 20.3931 0.0000
# 6 0.0000 0.0000 0.0000 0.0000 0.0000 16.2622
#
#
#
# Elastic Compliance Matrix: (Units=1/GPa)
#
#
# Indices 1 2 3 4 5 6 
#
# 1 0.010129 -0.003425 -0.002129 0.000000 0.000000 0.000000
# 2 -0.003425 0.021149 0.000312 0.000000 0.000000 0.000000
# 3 -0.002129 0.000312 0.006933 0.000000 0.000000 0.000000
# 4 0.000000 0.000000 0.000000 0.044867 0.000000 0.000000
# 5 0.000000 0.000000 0.000000 0.000000 0.049036 0.000000
# 6 0.000000 0.000000 0.000000 0.000000 0.000000 0.061492
#
#
# Mechanical properties :
#
#
# Convention : Reuss Voigt Hill
#
# Bulk Modulus (GPa) = 36.06621 47.19111 41.62866
# Shear Modulus (GPa) = 23.43754 29.25070 26.34412
#
# Velocity S-wave (km/s) = 3.13606 3.50345 3.32483
# Velocity P-wave (km/s) = 5.31481 6.01397 5.67517
#
# Compressibility (1/GPa) = 0.02772678
#
# Stress axis : x y z
#
# Youngs Moduli (GPa) = 98.72853 47.28344 144.23743
#
# Poissons Ratio (x) = 0.16194 0.30703
# Poissons Ratio (y) = 0.33813 -0.04493
# Poissons Ratio (z) = 0.21016 -0.01473
#
# Static dielectric constant tensor:
#      x y z
#    x 1.931800 0.000000 0.000000 
#    y 0.000000 2.070330 0.000000 
#    z 0.000000 0.000000 1.916620 
# 
# From -- ./inp_files/44397.got.cif
#   From: 2010.05.17/outbox.cif.g08.bks.cpg/sg68_23_cif.got.tgz:44397.got - 2010.06.03 18:57:09.
