data_PCOD9506885
_publ_section_title
;
Structure prediction by ZEFSAII (Michael W. Deem and Ramdas Pophale) SiO2 
 PCOD9506885
Probable space group: C C C A
;
_chemical_formula_sum "Si O2"
_cell_formula_units_Z 80
_cell_length_a 28.297397
_cell_length_b 15.759049
_cell_length_c 8.413045
_cell_angle_alpha 90.000000
_cell_angle_beta 90.000000
_cell_angle_gamma 90.000000
_cell_volume 3751.713842
_symmetry_space_group_name_H-M "C C C A"
_symmetry_group_IT_number 68
_space_group.IT_coordinate_system_code '2'
_symmetry_cell_setting 'orthorhombic'
loop_
_space_group_symop_operation_xyz
x,y,z
-x,1/2-y,z
x,1/2-y,1/2-z
-x,y,1/2-z
-x,-y,-z
x,1/2+y,-z
-x,1/2+y,1/2+z
x,-y,1/2+z
1/2+x,1/2+y,z
1/2-x,-y,z
1/2+x,-y,1/2-z
1/2-x,1/2+y,1/2-z
1/2-x,1/2-y,-z
1/2+x,y,-z
1/2-x,y,1/2+z
1/2+x,1/2-y,1/2+z
loop_
_atom_site_type_symbol
_atom_site_label
_atom_site_fract_x
_atom_site_fract_y
_atom_site_fract_z
Si Si1 0.314998 0.079687 0.854371
Si Si2 0.886931 0.930101 0.180174
Si Si3 0.750000 0.500000 0.118173
Si Si4 0.903763 0.808163 0.598559
Si Si5 0.446715 0.526222 0.974059
Si Si6 0.113476 0.250000 0.750000
O O1 0.274460 0.074375 0.721759
O O2 0.348841 0.160156 0.883923
O O3 0.349954 0.004421 0.801332
O O4 0.289056 0.045950 0.010858
O O5 0.930407 0.940571 0.302813
O O6 0.862832 0.840382 0.214775
O O7 0.911972 0.947315 0.012569
O O8 0.915144 0.750000 0.750000
O O9 0.933647 0.895277 0.590176
O O10 0.911010 0.765218 0.423840
O O11 0.500000 0.500000 0.000000
#
# Coordination Sequence:
#
# PCOD9506885 Si02
#       6
#    16  16   8  16  16   8
#     4  10  21  39  64  92 125 172 217 263 332 398
#     4  10  21  38  65  88 125 174 209 265 328 391
#     4  10  20  36  66  94 124 160 224 278 312 398
#     4  10  23  41  67  95 130 177 216 268 334 395
#     4  10  21  39  64  94 125 169 223 265 319 390
#     4  10  22  38  63  96 124 164 220 262 316 386
#
# _framework density 21.323588000000001
#
# number of rings (size 3 to 8) (size 9 to 14) (size 15 to 20)
#    0.000    2.000    0.000    4.200    8.400    0.000 
#    0.000    9.000   13.200    0.000    0.000    0.000 
#    0.000    0.000    0.000    0.000    0.000    0.000 
#
# Total GULP energy -222715.703720 kJ/mol
# GULP energy per Si atom -5567.892593 kJ/mol
# Density = 2.127505 g / cm^3
# Si number density = 21.323588 Si / 1000 Ang^3
#
#
#
# Elastic Constant Matrix: (Units=GPa)
#
#
# Indices 1 2 3 4 5 6 
#
# 1 91.3640 12.3962 35.3388 0.0000 0.0000 0.0000
# 2 12.3962 82.3642 38.3249 0.0000 0.0000 0.0000
# 3 35.3388 38.3249 118.6563 0.0000 0.0000 0.0000
# 4 0.0000 0.0000 0.0000 29.7234 0.0000 0.0000
# 5 0.0000 0.0000 0.0000 0.0000 27.0169 0.0000
# 6 0.0000 0.0000 0.0000 0.0000 0.0000 19.0502
#
#
#
# Elastic Compliance Matrix: (Units=1/GPa)
#
#
# Indices 1 2 3 4 5 6 
#
# 1 0.012372 -0.000174 -0.003629 0.000000 0.000000 0.000000
# 2 -0.000174 0.014291 -0.004564 0.000000 0.000000 0.000000
# 3 -0.003629 -0.004564 0.010983 0.000000 0.000000 0.000000
# 4 0.000000 0.000000 0.000000 0.033644 0.000000 0.000000
# 5 0.000000 0.000000 0.000000 0.000000 0.037014 0.000000
# 6 0.000000 0.000000 0.000000 0.000000 0.000000 0.052493
#
#
# Mechanical properties :
#
#
# Convention : Reuss Voigt Hill
#
# Bulk Modulus (GPa) = 47.81715 51.61161 49.71438
# Shear Modulus (GPa) = 27.10022 28.91307 28.00665
#
# Velocity S-wave (km/s) = 3.56884 3.68628 3.62803
# Velocity P-wave (km/s) = 6.28135 6.50959 6.39649
#
# Compressibility (1/GPa) = 0.02091300
#
# Stress axis : x y z
#
# Youngs Moduli (GPa) = 80.82545 69.97370 91.05301
#
# Poissons Ratio (x) = 0.01215 0.33041
# Poissons Ratio (y) = 0.01403 0.41558
# Poissons Ratio (z) = 0.29329 0.31937
#
# Static dielectric constant tensor:
#      x y z
#    x 1.790090 0.000000 0.000000 
#    y 0.000000 1.759780 0.000000 
#    z 0.000000 0.000000 1.858950 
# 
# From -- ./inp_files/9494.got.cif
#   From: 2010.05.17/outbox.cif.g08.bks.cpg/sg68_5_cif.got.tgz:9494.got - 2010.06.03 18:57:09.
