data_PCOD9506277
_publ_section_title
;
Structure prediction by ZEFSAII (Michael W. Deem and Ramdas Pophale) SiO2 
 PCOD9506277
Probable space group: C C C A
;
_chemical_formula_sum "Si O2"
_cell_formula_units_Z 96
_cell_length_a 14.302190
_cell_length_b 14.712347
_cell_length_c 20.228223
_cell_angle_alpha 90.000000
_cell_angle_beta 90.000000
_cell_angle_gamma 90.000000
_cell_volume 4256.398049
_symmetry_space_group_name_H-M "C C C A"
_symmetry_group_IT_number 68
_space_group.IT_coordinate_system_code '2'
_symmetry_cell_setting 'orthorhombic'
loop_
_space_group_symop_operation_xyz
x,y,z
-x,1/2-y,z
x,1/2-y,1/2-z
-x,y,1/2-z
-x,-y,-z
x,1/2+y,-z
-x,1/2+y,1/2+z
x,-y,1/2+z
1/2+x,1/2+y,z
1/2-x,-y,z
1/2+x,-y,1/2-z
1/2-x,1/2+y,1/2-z
1/2-x,1/2-y,-z
1/2+x,y,-z
1/2-x,y,1/2+z
1/2+x,1/2-y,1/2+z
loop_
_atom_site_type_symbol
_atom_site_label
_atom_site_fract_x
_atom_site_fract_y
_atom_site_fract_z
Si Si1 0.604944 0.066811 0.431663
Si Si2 0.158784 0.565067 0.664631
Si Si3 0.354104 0.042871 0.687890
Si Si4 0.888670 0.761454 0.876259
Si Si5 0.894736 0.948900 0.044758
Si Si6 0.889481 0.757033 0.035467
O O1 0.503153 0.076753 0.465641
O O2 0.653582 0.164144 0.436596
O O3 0.592091 0.027569 0.359083
O O4 0.648233 0.989814 0.478389
O O5 0.250000 0.500000 0.665138
O O6 0.113866 0.549578 0.736452
O O7 0.163745 0.673415 0.653764
O O8 0.107177 0.524751 0.600806
O O9 0.358068 0.142853 0.655407
O O10 0.250000 0.000000 0.687115
O O11 0.000000 0.750000 0.862417
O O12 0.879813 0.760371 0.956119
O O13 0.849859 0.852018 0.062759
O O14 0.000000 0.750000 0.054013
#
# Coordination Sequence:
#
# PCOD9506277 Si02
#       6
#    16  16  16  16  16  16
#     4  10  19  36  61  88 121 159 206 262 316 374
#     4  11  25  41  58  89 131 167 204 260 324 375
#     4  11  25  41  58  89 131 167 204 260 324 375
#     4  11  21  41  71  96 120 161 223 277 309 362
#     4  10  19  36  61  88 121 159 206 262 316 374
#     4   9  18  34  59  92 120 148 199 265 314 359
#
# _framework density 22.554282000000001
#
# number of rings (size 3 to 8) (size 9 to 14) (size 15 to 20)
#    0.000    1.667    3.333    1.500    0.000    5.333 
#    0.000    4.167    0.000    3.000    0.000    0.000 
#    0.000    0.000    0.000    0.000    0.000    0.000 
#
# Total GULP energy -267832.416503 kJ/mol
# GULP energy per Si atom -5579.842010 kJ/mol
# Density = 2.250295 g / cm^3
# Si number density = 22.554282 Si / 1000 Ang^3
#
#
#
# Elastic Constant Matrix: (Units=GPa)
#
#
# Indices 1 2 3 4 5 6 
#
# 1 57.2812 -11.1494 -17.1999 0.0000 0.0000 0.0000
# 2 -11.1494 185.2959 28.1043 0.0000 0.0000 0.0000
# 3 -17.1999 28.1043 88.8762 0.0000 0.0000 0.0000
# 4 0.0000 0.0000 0.0000 31.8879 0.0000 0.0000
# 5 0.0000 0.0000 0.0000 0.0000 17.2258 0.0000
# 6 0.0000 0.0000 0.0000 0.0000 0.0000 21.3430
#
#
#
# Elastic Compliance Matrix: (Units=1/GPa)
#
#
# Indices 1 2 3 4 5 6 
#
# 1 0.018599 0.000602 0.003409 0.000000 0.000000 0.000000
# 2 0.000602 0.005688 -0.001682 0.000000 0.000000 0.000000
# 3 0.003409 -0.001682 0.012443 0.000000 0.000000 0.000000
# 4 0.000000 0.000000 0.000000 0.031360 0.000000 0.000000
# 5 0.000000 0.000000 0.000000 0.000000 0.058053 0.000000
# 6 0.000000 0.000000 0.000000 0.000000 0.000000 0.046854
#
#
# Mechanical properties :
#
#
# Convention : Reuss Voigt Hill
#
# Bulk Modulus (GPa) = 24.16185 36.77368 30.46776
# Shear Modulus (GPa) = 27.45226 36.20455 31.82841
#
# Velocity S-wave (km/s) = 3.49257 4.01086 3.76066
# Velocity P-wave (km/s) = 5.19616 6.14730 5.69163
#
# Compressibility (1/GPa) = 0.04138757
#
# Stress axis : x y z
#
# Youngs Moduli (GPa) = 53.76765 175.80439 80.36476
#
# Poissons Ratio (x) = -0.10584 -0.27396
# Poissons Ratio (y) = -0.03237 0.13519
# Poissons Ratio (z) = -0.18329 0.29573
#
# Static dielectric constant tensor:
#      x y z
#    x 1.940540 0.000000 0.000000 
#    y 0.000000 1.937490 0.000000 
#    z 0.000000 0.000000 1.793120 
# 
# From -- ./inp_files/24436.got.cif
#   From: 2010.05.17/outbox.cif.g08.bks.cpg/sg68_13_cif.got.tgz:24436.got - 2010.06.03 18:57:09.
