data_PCOD9506726
_publ_section_title
;
Structure prediction by ZEFSAII (Michael W. Deem and Ramdas Pophale) SiO2 
 PCOD9506726
Probable space group: C C C A
;
_chemical_formula_sum "Si O2"
_cell_formula_units_Z 96
_cell_length_a 25.728523
_cell_length_b 16.651576
_cell_length_c 10.407477
_cell_angle_alpha 90.000000
_cell_angle_beta 90.000000
_cell_angle_gamma 90.000000
_cell_volume 4458.776043
_symmetry_space_group_name_H-M "C C C A"
_symmetry_group_IT_number 68
_space_group.IT_coordinate_system_code '2'
_symmetry_cell_setting 'orthorhombic'
loop_
_space_group_symop_operation_xyz
x,y,z
-x,1/2-y,z
x,1/2-y,1/2-z
-x,y,1/2-z
-x,-y,-z
x,1/2+y,-z
-x,1/2+y,1/2+z
x,-y,1/2+z
1/2+x,1/2+y,z
1/2-x,-y,z
1/2+x,-y,1/2-z
1/2-x,1/2+y,1/2-z
1/2-x,1/2-y,-z
1/2+x,y,-z
1/2-x,y,1/2+z
1/2+x,1/2-y,1/2+z
loop_
_atom_site_type_symbol
_atom_site_label
_atom_site_fract_x
_atom_site_fract_y
_atom_site_fract_z
Si Si1 0.297246 0.342914 0.512234
Si Si2 0.355300 0.932417 0.709426
Si Si3 0.179057 0.660382 0.035707
Si Si4 0.024909 0.579259 0.364259
Si Si5 0.148864 0.610356 0.758513
Si Si6 0.034825 0.593231 0.641309
O O1 0.329752 0.400588 0.420664
O O2 0.237609 0.370612 0.510833
O O3 0.309432 0.255243 0.453698
O O4 0.315301 0.340809 0.660444
O O5 0.416292 0.942981 0.674369
O O6 0.331501 0.019098 0.738588
O O7 0.345748 0.877205 0.835413
O O8 0.147295 0.642049 0.904614
O O9 0.027140 0.624000 0.498494
O O10 0.000000 0.629529 0.250000
O O11 0.987313 0.499472 0.371810
O O12 0.092994 0.603316 0.689754
O O13 0.000000 0.632575 0.750000
#
# Coordination Sequence:
#
# PCOD9506726 Si02
#       6
#    16  16  16  16  16  16
#     4  11  25  49  61  92 138 184 223 257 337 411
#     4  12  23  39  70 106 126 165 228 284 318 382
#     4  11  27  43  69  88 136 192 211 263 343 403
#     4  10  20  35  61  97 129 167 203 265 330 402
#     4  12  23  39  70 106 126 165 228 284 318 382
#     4  10  20  35  61  97 129 167 203 265 330 402
#
# _framework density 21.530571999999999
#
# number of rings (size 3 to 8) (size 9 to 14) (size 15 to 20)
#    0.000    1.000    5.000    3.000    2.333    6.667 
#    0.000    0.000    0.000    6.000    0.000    0.000 
#    0.000    0.000    0.000    0.000    0.000    0.000 
#
# Total GULP energy -267730.409318 kJ/mol
# GULP energy per Si atom -5577.716861 kJ/mol
# Density = 2.148157 g / cm^3
# Si number density = 21.530572 Si / 1000 Ang^3
#
#
#
# Elastic Constant Matrix: (Units=GPa)
#
#
# Indices 1 2 3 4 5 6 
#
# 1 87.5784 -3.8185 19.2101 0.0000 0.0000 0.0000
# 2 -3.8185 14.1231 -12.7047 0.0000 0.0000 0.0000
# 3 19.2101 -12.7047 140.6185 0.0000 0.0000 0.0000
# 4 0.0000 0.0000 0.0000 15.7905 0.0000 0.0000
# 5 0.0000 0.0000 0.0000 0.0000 34.2768 0.0000
# 6 0.0000 0.0000 0.0000 0.0000 0.0000 13.0783
#
#
#
# Elastic Compliance Matrix: (Units=1/GPa)
#
#
# Indices 1 2 3 4 5 6 
#
# 1 0.011818 0.001897 -0.001443 0.000000 0.000000 0.000000
# 2 0.001897 0.077374 0.006732 0.000000 0.000000 0.000000
# 3 -0.001443 0.006732 0.007917 0.000000 0.000000 0.000000
# 4 0.000000 0.000000 0.000000 0.063329 0.000000 0.000000
# 5 0.000000 0.000000 0.000000 0.000000 0.029174 0.000000
# 6 0.000000 0.000000 0.000000 0.000000 0.000000 0.076463
#
#
# Mechanical properties :
#
#
# Convention : Reuss Voigt Hill
#
# Bulk Modulus (GPa) = 8.97022 27.52152 18.24587
# Shear Modulus (GPa) = 17.30921 28.60466 22.95694
#
# Velocity S-wave (km/s) = 2.83845 3.64890 3.26889
# Velocity P-wave (km/s) = 3.86235 5.52837 4.76868
#
# Compressibility (1/GPa) = 0.11147995
#
# Stress axis : x y z
#
# Youngs Moduli (GPa) = 84.61970 12.92416 126.31427
#
# Poissons Ratio (x) = -0.02452 0.18227
# Poissons Ratio (y) = -0.16053 -0.85029
# Poissons Ratio (z) = 0.12211 -0.08700
#
# Static dielectric constant tensor:
#      x y z
#    x 1.820260 0.000000 0.000000 
#    y 0.000000 1.814420 0.000000 
#    z 0.000000 0.000000 1.846430 
# 
# From -- ./inp_files/16422.got.cif
#   From: 2010.05.17/outbox.cif.g08.bks.cpg/sg68_9_cif.got.tgz:16422.got - 2010.06.03 18:57:09.
