data_PCOD9506561
_publ_section_title
;
Structure prediction by ZEFSAII (Michael W. Deem and Ramdas Pophale) SiO2 
 PCOD9506561
Probable space group: C C C A
;
_chemical_formula_sum "Si O2"
_cell_formula_units_Z 64
_cell_length_a 11.313419
_cell_length_b 8.918230
_cell_length_c 34.162893
_cell_angle_alpha 90.000000
_cell_angle_beta 90.000000
_cell_angle_gamma 90.000000
_cell_volume 3446.888072
_symmetry_space_group_name_H-M "C C C A"
_symmetry_group_IT_number 68
_space_group.IT_coordinate_system_code '2'
_symmetry_cell_setting 'orthorhombic'
loop_
_space_group_symop_operation_xyz
x,y,z
-x,1/2-y,z
x,1/2-y,1/2-z
-x,y,1/2-z
-x,-y,-z
x,1/2+y,-z
-x,1/2+y,1/2+z
x,-y,1/2+z
1/2+x,1/2+y,z
1/2-x,-y,z
1/2+x,-y,1/2-z
1/2-x,1/2+y,1/2-z
1/2-x,1/2-y,-z
1/2+x,y,-z
1/2-x,y,1/2+z
1/2+x,1/2-y,1/2+z
loop_
_atom_site_type_symbol
_atom_site_label
_atom_site_fract_x
_atom_site_fract_y
_atom_site_fract_z
Si Si1 0.848893 0.129699 0.316416
Si Si2 0.500000 0.750000 0.511479
Si Si3 0.000000 0.503539 0.250000
Si Si4 0.886066 0.460381 0.449118
Si Si5 0.500000 0.750000 0.385252
Si Si6 0.301722 0.250000 0.250000
O O1 0.896514 0.191373 0.356936
O O2 0.779847 0.241571 0.287890
O O3 0.750000 0.000000 0.322660
O O4 0.961286 0.080311 0.289590
O O5 0.405592 0.835471 0.483387
O O6 0.445662 0.615576 0.536881
O O7 0.113632 0.608530 0.244274
O O8 0.750000 0.500000 0.441864
O O9 0.950718 0.384153 0.412250
#
# Coordination Sequence:
#
# PCOD9506561 Si02
#       6
#    16   8   8  16   8   8
#     4  10  20  34  52  75 108 144 182 231 273 318
#     4   9  20  40  64  87 106 138 188 225 260 322
#     4   9  18  33  54  76  96 136 194 232 268 318
#     4  10  21  38  61  85 112 144 179 223 270 320
#     4  11  24  35  50  85 118 146 180 213 274 341
#     4   9  18  33  54  74  96 139 190 233 272 310
#
# _framework density 18.567473
#
# number of rings (size 3 to 8) (size 9 to 14) (size 15 to 20)
#    0.000    2.250    0.000    2.250    0.000    4.000 
#    0.000    5.000    0.000    0.000    0.000    0.000 
#    0.000    0.000    0.000    0.000    0.000    0.000 
#
# Total GULP energy -178425.992164 kJ/mol
# GULP energy per Si atom -5575.812255 kJ/mol
# Density = 1.852521 g / cm^3
# Si number density = 18.567473 Si / 1000 Ang^3
#
#
#
# Elastic Constant Matrix: (Units=GPa)
#
#
# Indices 1 2 3 4 5 6 
#
# 1 120.2591 53.5703 69.3209 0.0000 0.0000 0.0000
# 2 53.5703 117.3641 73.8986 0.0000 0.0000 0.0000
# 3 69.3209 73.8986 141.8429 0.0000 0.0000 0.0000
# 4 0.0000 0.0000 0.0000 5.0839 0.0000 0.0000
# 5 0.0000 0.0000 0.0000 0.0000 85.9077 0.0000
# 6 0.0000 0.0000 0.0000 0.0000 0.0000 33.0200
#
#
#
# Elastic Compliance Matrix: (Units=1/GPa)
#
#
# Indices 1 2 3 4 5 6 
#
# 1 0.012119 -0.002682 -0.004525 0.000000 0.000000 0.000000
# 2 -0.002682 0.013274 -0.005605 0.000000 0.000000 0.000000
# 3 -0.004525 -0.005605 0.012182 0.000000 0.000000 0.000000
# 4 0.000000 0.000000 0.000000 0.196701 0.000000 0.000000
# 5 0.000000 0.000000 0.000000 0.000000 0.011640 0.000000
# 6 0.000000 0.000000 0.000000 0.000000 0.000000 0.030285
#
#
# Mechanical properties :
#
#
# Convention : Reuss Voigt Hill
#
# Bulk Modulus (GPa) = 83.68287 85.89398 84.78843
# Shear Modulus (GPa) = 16.35018 36.98073 26.66545
#
# Velocity S-wave (km/s) = 2.97068 4.46768 3.79375
# Velocity P-wave (km/s) = 7.54546 8.54251 8.05942
#
# Compressibility (1/GPa) = 0.01194988
#
# Stress axis : x y z
#
# Youngs Moduli (GPa) = 82.51753 75.33659 82.09139
#
# Poissons Ratio (x) = 0.20207 0.37148
# Poissons Ratio (y) = 0.22133 0.46009
# Poissons Ratio (z) = 0.37341 0.42224
#
# Static dielectric constant tensor:
#      x y z
#    x 1.639220 0.000000 0.000000 
#    y 0.000000 1.671930 0.000000 
#    z 0.000000 0.000000 1.611470 
# 
# From -- ./inp_files/53855.got.cif
#   From: 2010.05.17/outbox.cif.g08.bks.cpg/sg68_27_cif.got.tgz:53855.got - 2010.06.03 18:57:09.
