data_PCOD9506862
_publ_section_title
;
Structure prediction by ZEFSAII (Michael W. Deem and Ramdas Pophale) SiO2 
 PCOD9506862
Probable space group: C C C A
;
_chemical_formula_sum "Si O2"
_cell_formula_units_Z 80
_cell_length_a 7.907028
_cell_length_b 25.148822
_cell_length_c 16.971456
_cell_angle_alpha 90.000000
_cell_angle_beta 90.000000
_cell_angle_gamma 90.000000
_cell_volume 3374.815431
_symmetry_space_group_name_H-M "C C C A"
_symmetry_group_IT_number 68
_space_group.IT_coordinate_system_code '2'
_symmetry_cell_setting 'orthorhombic'
loop_
_space_group_symop_operation_xyz
x,y,z
-x,1/2-y,z
x,1/2-y,1/2-z
-x,y,1/2-z
-x,-y,-z
x,1/2+y,-z
-x,1/2+y,1/2+z
x,-y,1/2+z
1/2+x,1/2+y,z
1/2-x,-y,z
1/2+x,-y,1/2-z
1/2-x,1/2+y,1/2-z
1/2-x,1/2-y,-z
1/2+x,y,-z
1/2-x,y,1/2+z
1/2+x,1/2-y,1/2+z
loop_
_atom_site_type_symbol
_atom_site_label
_atom_site_fract_x
_atom_site_fract_y
_atom_site_fract_z
Si Si1 0.059586 0.303718 0.879760
Si Si2 0.774051 0.943740 0.056399
Si Si3 0.645453 0.338237 0.530664
Si Si4 0.583823 0.923656 0.831727
Si Si5 0.528874 0.089314 0.840377
O O1 0.235759 0.297155 0.925165
O O2 0.077030 0.358558 0.832082
O O3 0.000000 0.250000 0.839285
O O4 0.935200 0.315435 0.952717
O O5 0.628248 0.942947 0.123407
O O6 0.956920 0.939943 0.098201
O O7 0.750000 0.000000 0.014085
O O8 0.761562 0.892590 0.999662
O O9 0.529747 0.360346 0.600921
O O10 0.500000 0.943041 0.750000
O O11 0.782881 0.936507 0.840733
O O12 0.500000 0.103700 0.750000
#
# Coordination Sequence:
#
# PCOD9506862 Si02
#       5
#    16  16  16  16  16
#     4  10  20  36  64  93 121 165 214 263 322 384
#     4  11  24  42  64  93 129 173 219 268 322 388
#     4  10  21  41  61  92 126 165 214 266 324 381
#     4  10  22  41  62  92 131 171 216 268 326 386
#     4  11  22  42  64  89 130 173 208 268 324 384
#
# _framework density 23.705000999999999
#
# number of rings (size 3 to 8) (size 9 to 14) (size 15 to 20)
#    0.000    1.600    4.000    0.600    0.000    2.800 
#    0.000    0.000    0.000    0.600    0.000    0.000 
#    0.000    0.000    0.000    0.000    0.000    0.000 
#
# Total GULP energy -223374.092673 kJ/mol
# GULP energy per Si atom -5584.352317 kJ/mol
# Density = 2.365105 g / cm^3
# Si number density = 23.705001 Si / 1000 Ang^3
#
#
#
# Elastic Constant Matrix: (Units=GPa)
#
#
# Indices 1 2 3 4 5 6 
#
# 1 135.9225 5.1934 28.1739 0.0000 0.0000 0.0000
# 2 5.1934 76.0204 6.0685 0.0000 0.0000 0.0000
# 3 28.1739 6.0685 114.5868 0.0000 0.0000 0.0000
# 4 0.0000 0.0000 0.0000 6.3473 0.0000 0.0000
# 5 0.0000 0.0000 0.0000 0.0000 29.4475 0.0000
# 6 0.0000 0.0000 0.0000 0.0000 0.0000 5.3862
#
#
#
# Elastic Compliance Matrix: (Units=1/GPa)
#
#
# Indices 1 2 3 4 5 6 
#
# 1 0.007763 -0.000380 -0.001889 0.000000 0.000000 0.000000
# 2 -0.000380 0.013229 -0.000607 0.000000 0.000000 0.000000
# 3 -0.001889 -0.000607 0.009224 0.000000 0.000000 0.000000
# 4 0.000000 0.000000 0.000000 0.157548 0.000000 0.000000
# 5 0.000000 0.000000 0.000000 0.000000 0.033959 0.000000
# 6 0.000000 0.000000 0.000000 0.000000 0.000000 0.185661
#
#
# Mechanical properties :
#
#
# Convention : Reuss Voigt Hill
#
# Bulk Modulus (GPa) = 40.87567 45.04460 42.96013
# Shear Modulus (GPa) = 11.86836 27.37577 19.62207
#
# Velocity S-wave (km/s) = 2.23999 3.40200 2.88020
# Velocity P-wave (km/s) = 4.89602 5.87153 5.40582
#
# Compressibility (1/GPa) = 0.02446443
#
# Stress axis : x y z
#
# Youngs Moduli (GPa) = 128.81428 75.59285 108.41823
#
# Poissons Ratio (x) = 0.02869 0.20476
# Poissons Ratio (y) = 0.04889 0.06584
# Poissons Ratio (z) = 0.24328 0.04591
#
# Static dielectric constant tensor:
#      x y z
#    x 1.974600 0.000000 0.000000 
#    y 0.000000 1.927660 0.000000 
#    z 0.000000 0.000000 1.865080 
# 
# From -- ./inp_files/28317.got.cif
#   From: 2010.05.17/outbox.cif.g08.bks.cpg/sg68_15_cif.got.tgz:28317.got - 2010.06.03 18:57:09.
