data_PCOD9506247
_publ_section_title
;
Structure prediction by ZEFSAII (Michael W. Deem and Ramdas Pophale) SiO2 
 PCOD9506247
Probable space group: C C C A
;
_chemical_formula_sum "Si O2"
_cell_formula_units_Z 96
_cell_length_a 16.352196
_cell_length_b 23.849000
_cell_length_c 10.618508
_cell_angle_alpha 90.000000
_cell_angle_beta 90.000000
_cell_angle_gamma 90.000000
_cell_volume 4141.043153
_symmetry_space_group_name_H-M "C C C A"
_symmetry_group_IT_number 68
_space_group.IT_coordinate_system_code '2'
_symmetry_cell_setting 'orthorhombic'
loop_
_space_group_symop_operation_xyz
x,y,z
-x,1/2-y,z
x,1/2-y,1/2-z
-x,y,1/2-z
-x,-y,-z
x,1/2+y,-z
-x,1/2+y,1/2+z
x,-y,1/2+z
1/2+x,1/2+y,z
1/2-x,-y,z
1/2+x,-y,1/2-z
1/2-x,1/2+y,1/2-z
1/2-x,1/2-y,-z
1/2+x,y,-z
1/2-x,y,1/2+z
1/2+x,1/2-y,1/2+z
loop_
_atom_site_type_symbol
_atom_site_label
_atom_site_fract_x
_atom_site_fract_y
_atom_site_fract_z
Si Si1 0.353451 0.688633 0.244261
Si Si2 0.721676 0.887591 0.852678
Si Si3 0.432161 0.676236 0.509124
Si Si4 0.889370 0.705683 0.039287
Si Si5 0.152142 0.510991 0.236413
Si Si6 0.135263 0.554617 0.978908
O O1 0.311362 0.750000 0.250000
O O2 0.292354 0.636606 0.261903
O O3 0.418916 0.685895 0.357966
O O4 0.391463 0.689368 0.107853
O O5 0.653236 0.925562 0.788427
O O6 0.770323 0.924963 0.956220
O O7 0.680439 0.832246 0.904756
O O8 0.518634 0.688322 0.573924
O O9 0.376350 0.727821 0.559703
O O10 0.408388 0.611796 0.519952
O O11 0.250000 0.500000 0.233611
O O12 0.112466 0.471762 0.343081
O O13 0.123576 0.511021 0.092655
#
# Coordination Sequence:
#
# PCOD9506247 Si02
#       6
#    16  16  16  16  16  16
#     4   9  18  31  53  84 115 150 196 245 291 352
#     4  10  20  32  57  88 114 154 200 250 302 357
#     4   9  20  36  58  85 120 159 196 241 302 363
#     4  10  19  36  58  87 123 156 191 243 305 365
#     4  10  20  36  58  84 117 157 204 255 304 350
#     4  10  21  38  60  87 118 158 205 252 300 358
#
# _framework density 23.182566000000001
#
# number of rings (size 3 to 8) (size 9 to 14) (size 15 to 20)
#    0.000    2.333    0.000    3.000    0.000   12.000 
#    0.000    1.667    0.000   12.000    0.000    0.000 
#    0.000    2.667    0.000    0.000    0.000    0.000 
#
# Total GULP energy -267542.385190 kJ/mol
# GULP energy per Si atom -5573.799691 kJ/mol
# Density = 2.312980 g / cm^3
# Si number density = 23.182566 Si / 1000 Ang^3
#
#
#
# Elastic Constant Matrix: (Units=GPa)
#
#
# Indices 1 2 3 4 5 6 
#
# 1 18.2703 15.0126 9.3376 0.0000 0.0000 0.0000
# 2 15.0126 112.7098 43.2966 0.0000 0.0000 0.0000
# 3 9.3376 43.2966 67.4441 0.0000 0.0000 0.0000
# 4 0.0000 0.0000 0.0000 33.6627 0.0000 0.0000
# 5 0.0000 0.0000 0.0000 0.0000 2.6512 0.0000
# 6 0.0000 0.0000 0.0000 0.0000 0.0000 13.3647
#
#
#
# Elastic Compliance Matrix: (Units=1/GPa)
#
#
# Indices 1 2 3 4 5 6 
#
# 1 0.062423 -0.006630 -0.004386 0.000000 0.000000 0.000000
# 2 -0.006630 0.012481 -0.007094 0.000000 0.000000 0.000000
# 3 -0.004386 -0.007094 0.019989 0.000000 0.000000 0.000000
# 4 0.000000 0.000000 0.000000 0.029706 0.000000 0.000000
# 5 0.000000 0.000000 0.000000 0.000000 0.377191 0.000000
# 6 0.000000 0.000000 0.000000 0.000000 0.000000 0.074824
#
#
# Mechanical properties :
#
#
# Convention : Reuss Voigt Hill
#
# Bulk Modulus (GPa) = 17.04396 37.07974 27.06185
# Shear Modulus (GPa) = 7.90650 18.65423 13.28036
#
# Velocity S-wave (km/s) = 1.84877 2.83974 2.39605
# Velocity P-wave (km/s) = 3.45330 5.17509 4.39925
#
# Compressibility (1/GPa) = 0.05867180
#
# Stress axis : x y z
#
# Youngs Moduli (GPa) = 16.01972 80.12465 50.02847
#
# Poissons Ratio (x) = 0.53119 0.21945
# Poissons Ratio (y) = 0.10620 0.35491
# Poissons Ratio (z) = 0.07027 0.56842
#
# Static dielectric constant tensor:
#      x y z
#    x 1.895060 0.000000 0.000000 
#    y 0.000000 1.928550 0.000000 
#    z 0.000000 0.000000 1.917030 
# 
# From -- ./inp_files/14615.got.cif
#   From: 2010.05.17/outbox.cif.g08.bks.cpg/sg68_8_cif.got.tgz:14615.got - 2010.06.03 18:57:09.
