data_PCOD9506608
_publ_section_title
;
Structure prediction by ZEFSAII (Michael W. Deem and Ramdas Pophale) SiO2 
 PCOD9506608
Probable space group: C C C A
;
_chemical_formula_sum "Si O2"
_cell_formula_units_Z 116
_cell_length_a 22.163775
_cell_length_b 25.692813
_cell_length_c 9.168421
_cell_angle_alpha 90.000000
_cell_angle_beta 90.000000
_cell_angle_gamma 90.000000
_cell_volume 5220.954830
_symmetry_space_group_name_H-M "C C C A"
_symmetry_group_IT_number 68
_space_group.IT_coordinate_system_code '2'
_symmetry_cell_setting 'orthorhombic'
loop_
_space_group_symop_operation_xyz
x,y,z
-x,1/2-y,z
x,1/2-y,1/2-z
-x,y,1/2-z
-x,-y,-z
x,1/2+y,-z
-x,1/2+y,1/2+z
x,-y,1/2+z
1/2+x,1/2+y,z
1/2-x,-y,z
1/2+x,-y,1/2-z
1/2-x,1/2+y,1/2-z
1/2-x,1/2-y,-z
1/2+x,y,-z
1/2-x,y,1/2+z
1/2+x,1/2-y,1/2+z
loop_
_atom_site_type_symbol
_atom_site_label
_atom_site_fract_x
_atom_site_fract_y
_atom_site_fract_z
Si Si1 0.696255 0.896030 0.255428
Si Si2 0.097108 0.838256 0.179949
Si Si3 0.500000 0.750000 0.750000
Si Si4 0.322242 0.287449 0.103238
Si Si5 0.603389 0.020380 0.660872
Si Si6 0.049126 0.546293 0.377119
Si Si7 0.707776 0.051045 0.059601
Si Si8 0.816836 0.694345 0.928284
O O1 0.700360 0.912696 0.420779
O O2 0.677349 0.837118 0.221123
O O3 0.759037 0.915415 0.183912
O O4 0.646476 0.930301 0.172583
O O5 0.046622 0.791270 0.170767
O O6 0.129547 0.828685 0.336809
O O7 0.069799 0.894756 0.153363
O O8 0.149619 0.835683 0.058201
O O9 0.315311 0.250000 0.250000
O O10 0.255575 0.304896 0.059230
O O11 0.341118 0.251768 0.965970
O O12 0.590725 0.001213 0.823556
O O13 0.643982 0.972371 0.605446
O O14 0.549234 0.036438 0.551148
O O15 0.000000 0.540673 0.250000
O O16 0.750000 0.000000 0.027466
#
# Coordination Sequence:
#
# PCOD9506608 Si02
#       8
#    16  16   4  16  16  16  16  16
#     4  11  22  34  59  87 123 165 205 248 312 389
#     4  11  22  39  66  93 121 163 215 260 324 368
#     4  12  20  44  68  92 122 152 220 286 288 380
#     4   9  20  36  54  89 126 152 199 263 326 384
#     4  11  23  41  59  85 128 158 214 258 313 372
#     4  12  25  42  63  91 119 170 213 270 316 370
#     4  10  22  35  54  87 122 164 201 253 305 373
#     4  10  20  34  57  86 125 158 197 262 321 383
#
# _framework density 22.218157999999999
#
# number of rings (size 3 to 8) (size 9 to 14) (size 15 to 20)
#    0.000    1.379    5.517    1.655    7.724    0.000 
#    0.000    0.000    0.000    0.000    0.000    0.483 
#    0.000    0.000    0.000    0.000    0.000    0.000 
#
# Total GULP energy -322935.541328 kJ/mol
# GULP energy per Si atom -5567.854161 kJ/mol
# Density = 2.216759 g / cm^3
# Si number density = 22.218158 Si / 1000 Ang^3
#
#
#
# Elastic Constant Matrix: (Units=GPa)
#
#
# Indices 1 2 3 4 5 6 
#
# 1 40.7065 0.3144 7.8708 0.0000 0.0000 0.0000
# 2 0.3144 91.3050 23.4105 0.0000 0.0000 0.0000
# 3 7.8708 23.4105 64.3190 0.0000 0.0000 0.0000
# 4 0.0000 0.0000 0.0000 29.2770 0.0000 0.0000
# 5 0.0000 0.0000 0.0000 0.0000 11.3903 0.0000
# 6 0.0000 0.0000 0.0000 0.0000 0.0000 8.3434
#
#
#
# Elastic Compliance Matrix: (Units=1/GPa)
#
#
# Indices 1 2 3 4 5 6 
#
# 1 0.025211 0.000777 -0.003368 0.000000 0.000000 0.000000
# 2 0.000777 0.012104 -0.004500 0.000000 0.000000 0.000000
# 3 -0.003368 -0.004500 0.017598 0.000000 0.000000 0.000000
# 4 0.000000 0.000000 0.000000 0.034157 0.000000 0.000000
# 5 0.000000 0.000000 0.000000 0.000000 0.087794 0.000000
# 6 0.000000 0.000000 0.000000 0.000000 0.000000 0.119855
#
#
# Mechanical properties :
#
#
# Convention : Reuss Voigt Hill
#
# Bulk Modulus (GPa) = 24.55231 28.83576 26.69404
# Shear Modulus (GPa) = 15.40937 20.78445 18.09691
#
# Velocity S-wave (km/s) = 2.63639 3.06187 2.85706
# Velocity P-wave (km/s) = 4.51020 5.05041 4.78793
#
# Compressibility (1/GPa) = 0.04072936
#
# Stress axis : x y z
#
# Youngs Moduli (GPa) = 39.66475 82.62050 56.82567
#
# Poissons Ratio (x) = -0.06417 0.19138
# Poissons Ratio (y) = -0.03081 0.25574
# Poissons Ratio (z) = 0.13358 0.37183
#
# Static dielectric constant tensor:
#      x y z
#    x 2.199800 0.000000 0.000000 
#    y 0.000000 1.894050 0.000000 
#    z 0.000000 0.000000 1.789510 
# 
# From -- ./inp_files/8363.got.cif
#   From: 2010.05.17/outbox.cif.g08.bks.cpg/sg68_5_cif.got.tgz:8363.got - 2010.06.03 18:57:09.
