data_PCOD9506744
_publ_section_title
;
Structure prediction by ZEFSAII (Michael W. Deem and Ramdas Pophale) SiO2 
 PCOD9506744
Probable space group: C C C A
;
_chemical_formula_sum "Si O2"
_cell_formula_units_Z 120
_cell_length_a 29.028698
_cell_length_b 8.022931
_cell_length_c 27.979247
_cell_angle_alpha 90.000000
_cell_angle_beta 90.000000
_cell_angle_gamma 90.000000
_cell_volume 6516.233475
_symmetry_space_group_name_H-M "C C C A"
_symmetry_group_IT_number 68
_space_group.IT_coordinate_system_code '2'
_symmetry_cell_setting 'orthorhombic'
loop_
_space_group_symop_operation_xyz
x,y,z
-x,1/2-y,z
x,1/2-y,1/2-z
-x,y,1/2-z
-x,-y,-z
x,1/2+y,-z
-x,1/2+y,1/2+z
x,-y,1/2+z
1/2+x,1/2+y,z
1/2-x,-y,z
1/2+x,-y,1/2-z
1/2-x,1/2+y,1/2-z
1/2-x,1/2-y,-z
1/2+x,y,-z
1/2-x,y,1/2+z
1/2+x,1/2-y,1/2+z
loop_
_atom_site_type_symbol
_atom_site_label
_atom_site_fract_x
_atom_site_fract_y
_atom_site_fract_z
Si Si1 0.642528 0.233096 0.644517
Si Si2 0.006869 0.054001 0.945627
Si Si3 0.611550 0.011921 0.569003
Si Si4 0.051673 0.563262 0.268043
Si Si5 0.200328 0.419127 0.434211
Si Si6 0.959472 0.382161 0.138297
Si Si7 0.155324 0.284268 0.990596
Si Si8 0.880798 0.750000 0.750000
O O1 0.638761 0.056346 0.617357
O O2 0.678048 0.343294 0.613770
O O3 0.590190 0.297610 0.637917
O O4 0.648677 0.236855 0.701374
O O5 0.000000 0.250000 0.941734
O O6 0.057641 0.014950 0.925604
O O7 0.971822 0.952000 0.913166
O O8 0.000000 0.000000 0.000000
O O9 0.618689 0.161321 0.530854
O O10 0.634875 0.856965 0.542857
O O11 0.064629 0.750000 0.250000
O O12 0.045839 0.535767 0.324833
O O13 0.086486 0.415446 0.252044
O O14 0.000000 0.530600 0.250000
O O15 0.250000 0.500000 0.426587
O O16 0.197661 0.279590 0.476280
O O17 0.168692 0.563139 0.457003
O O18 0.000000 0.250000 0.152662
#
# Coordination Sequence:
#
# PCOD9506744 Si02
#       8
#    16  16  16  16  16  16  16   8
#     4  10  22  38  61  80 114 155 197 245 300 352
#     4  12  26  33  51  77 119 163 201 238 281 350
#     4  10  20  36  53  81 115 155 193 234 282 353
#     4  10  21  35  59  84 113 148 205 252 296 345
#     4  10  20  37  62  90 115 148 189 242 300 362
#     4  11  22  39  56  81 116 159 201 241 297 344
#     4   9  20  35  59  85 117 150 187 234 293 356
#     4  10  21  42  58  82 116 160 192 252 308 349
#
# _framework density 18.415547
#
# number of rings (size 3 to 8) (size 9 to 14) (size 15 to 20)
#    0.000    1.733    1.333    3.400    9.333    0.000 
#    2.400    0.000    0.000    1.600    0.000    0.000 
#    0.000    0.000    0.000    0.000    0.000    0.000 
#
# Total GULP energy -334660.549782 kJ/mol
# GULP energy per Si atom -5577.675830 kJ/mol
# Density = 1.837363 g / cm^3
# Si number density = 18.415547 Si / 1000 Ang^3
#
#
#
# Elastic Constant Matrix: (Units=GPa)
#
#
# Indices 1 2 3 4 5 6 
#
# 1 24.4446 -7.8471 -7.4510 0.0000 0.0000 0.0000
# 2 -7.8471 76.3796 29.3631 0.0000 0.0000 0.0000
# 3 -7.4510 29.3631 114.7212 0.0000 0.0000 0.0000
# 4 0.0000 0.0000 0.0000 77.0776 0.0000 0.0000
# 5 0.0000 0.0000 0.0000 0.0000 19.6270 0.0000
# 6 0.0000 0.0000 0.0000 0.0000 0.0000 17.2031
#
#
#
# Elastic Compliance Matrix: (Units=1/GPa)
#
#
# Indices 1 2 3 4 5 6 
#
# 1 0.042647 0.003679 0.001828 0.000000 0.000000 0.000000
# 2 0.003679 0.014839 -0.003559 0.000000 0.000000 0.000000
# 3 0.001828 -0.003559 0.009746 0.000000 0.000000 0.000000
# 4 0.000000 0.000000 0.000000 0.012974 0.000000 0.000000
# 5 0.000000 0.000000 0.000000 0.000000 0.050950 0.000000
# 6 0.000000 0.000000 0.000000 0.000000 0.000000 0.058129
#
#
# Mechanical properties :
#
#
# Convention : Reuss Voigt Hill
#
# Bulk Modulus (GPa) = 14.05920 27.07505 20.56713
# Shear Modulus (GPa) = 23.91214 36.21358 30.06286
#
# Velocity S-wave (km/s) = 3.60735 4.43930 4.04477
# Velocity P-wave (km/s) = 5.00016 6.40396 5.74510
#
# Compressibility (1/GPa) = 0.07112781
#
# Stress axis : x y z
#
# Youngs Moduli (GPa) = 23.44834 67.39153 102.60113
#
# Poissons Ratio (x) = -0.24791 -0.18759
# Poissons Ratio (y) = -0.08626 0.36516
# Poissons Ratio (z) = -0.04287 0.23985
#
# Static dielectric constant tensor:
#      x y z
#    x 1.621510 0.000000 0.000000 
#    y 0.000000 1.681170 0.000000 
#    z 0.000000 0.000000 1.687390 
# 
# From -- ./inp_files/52393.got.cif
#   From: 2010.05.17/outbox.cif.g08.bks.cpg/sg68_27_cif.got.tgz:52393.got - 2010.06.03 18:57:09.
