data_PCOD9506600
_publ_section_title
;
Structure prediction by ZEFSAII (Michael W. Deem and Ramdas Pophale) SiO2 
 PCOD9506600
Probable space group: C C C A
;
_chemical_formula_sum "Si O2"
_cell_formula_units_Z 80
_cell_length_a 24.950753
_cell_length_b 22.151045
_cell_length_c 7.802074
_cell_angle_alpha 90.000000
_cell_angle_beta 90.000000
_cell_angle_gamma 90.000000
_cell_volume 4312.091239
_symmetry_space_group_name_H-M "C C C A"
_symmetry_group_IT_number 68
_space_group.IT_coordinate_system_code '2'
_symmetry_cell_setting 'orthorhombic'
loop_
_space_group_symop_operation_xyz
x,y,z
-x,1/2-y,z
x,1/2-y,1/2-z
-x,y,1/2-z
-x,-y,-z
x,1/2+y,-z
-x,1/2+y,1/2+z
x,-y,1/2+z
1/2+x,1/2+y,z
1/2-x,-y,z
1/2+x,-y,1/2-z
1/2-x,1/2+y,1/2-z
1/2-x,1/2-y,-z
1/2+x,y,-z
1/2-x,y,1/2+z
1/2+x,1/2-y,1/2+z
loop_
_atom_site_type_symbol
_atom_site_label
_atom_site_fract_x
_atom_site_fract_y
_atom_site_fract_z
Si Si1 0.124341 0.001738 0.024933
Si Si2 0.298513 0.389918 0.476794
Si Si3 0.939340 0.925182 0.695451
Si Si4 0.866609 0.821331 0.765077
Si Si5 0.322221 0.617644 0.595633
O O1 0.104233 0.039620 0.187558
O O2 0.142239 0.056757 0.901355
O O3 0.174140 0.955930 0.029316
O O4 0.074215 0.957989 0.981791
O O5 0.324231 0.350788 0.630655
O O6 0.235708 0.396224 0.512600
O O7 0.311718 0.361626 0.290303
O O8 0.921230 0.856008 0.712531
O O9 0.000000 0.933632 0.750000
O O10 0.869237 0.750000 0.750000
O O11 0.850463 0.838027 0.960156
#
# Coordination Sequence:
#
# PCOD9506600 Si02
#       5
#    16  16  16  16  16
#     4  10  20  34  56  86 118 140 178 230 286 340
#     4  11  21  36  57  86 116 152 185 225 278 334
#     4  10  20  36  59  83 108 143 185 235 284 331
#     4  10  24  40  55  81 113 152 195 231 276 327
#     4  11  21  36  57  86 116 152 185 225 278 334
#
# _framework density 18.552482999999999
#
# number of rings (size 3 to 8) (size 9 to 14) (size 15 to 20)
#    0.000    1.600    4.000    1.200    0.000    3.600 
#    0.000    0.000    0.000    0.000    0.000    5.600 
#    0.000    0.000    0.000    0.000    0.000    0.000 
#
# Total GULP energy -222792.211263 kJ/mol
# GULP energy per Si atom -5569.805282 kJ/mol
# Density = 1.851026 g / cm^3
# Si number density = 18.552483 Si / 1000 Ang^3
#
#
#
# Elastic Constant Matrix: (Units=GPa)
#
#
# Indices 1 2 3 4 5 6 
#
# 1 50.9127 19.3840 -1.9170 0.0000 0.0000 0.0000
# 2 19.3840 106.0129 9.8027 0.0000 0.0000 0.0000
# 3 -1.9170 9.8027 68.5487 0.0000 0.0000 0.0000
# 4 0.0000 0.0000 0.0000 18.1356 0.0000 0.0000
# 5 0.0000 0.0000 0.0000 0.0000 14.3029 0.0000
# 6 0.0000 0.0000 0.0000 0.0000 0.0000 7.6074
#
#
#
# Elastic Compliance Matrix: (Units=1/GPa)
#
#
# Indices 1 2 3 4 5 6 
#
# 1 0.021202 -0.003984 0.001163 0.000000 0.000000 0.000000
# 2 -0.003984 0.010308 -0.001585 0.000000 0.000000 0.000000
# 3 0.001163 -0.001585 0.014847 0.000000 0.000000 0.000000
# 4 0.000000 0.000000 0.000000 0.055140 0.000000 0.000000
# 5 0.000000 0.000000 0.000000 0.000000 0.069916 0.000000
# 6 0.000000 0.000000 0.000000 0.000000 0.000000 0.131452
#
#
# Mechanical properties :
#
#
# Convention : Reuss Voigt Hill
#
# Bulk Modulus (GPa) = 26.63582 31.11263 28.87423
# Shear Modulus (GPa) = 15.42290 21.22283 18.32286
#
# Velocity S-wave (km/s) = 2.88638 3.38588 3.14606
# Velocity P-wave (km/s) = 5.04940 5.66498 5.36602
#
# Compressibility (1/GPa) = 0.03754343
#
# Stress axis : x y z
#
# Youngs Moduli (GPa) = 47.16504 97.01277 67.35174
#
# Poissons Ratio (x) = 0.38652 -0.07831
# Poissons Ratio (y) = 0.18792 0.10679
# Poissons Ratio (z) = -0.05484 0.15381
#
# Static dielectric constant tensor:
#      x y z
#    x 1.615050 0.000000 0.000000 
#    y 0.000000 1.631810 0.000000 
#    z 0.000000 0.000000 1.758960 
# 
# From -- ./inp_files/6225.got.cif
#   From: 2010.05.17/outbox.cif.g08.bks.cpg/sg68_4_cif.got.tgz:6225.got - 2010.06.03 18:57:09.
