data_PCOD9506928
_publ_section_title
;
Structure prediction by ZEFSAII (Michael W. Deem and Ramdas Pophale) SiO2 
 PCOD9506928
Probable space group: C C C A
;
_chemical_formula_sum "Si O2"
_cell_formula_units_Z 88
_cell_length_a 18.488469
_cell_length_b 13.134814
_cell_length_c 19.338472
_cell_angle_alpha 90.000000
_cell_angle_beta 90.000000
_cell_angle_gamma 90.000000
_cell_volume 4696.204849
_symmetry_space_group_name_H-M "C C C A"
_symmetry_group_IT_number 68
_space_group.IT_coordinate_system_code '2'
_symmetry_cell_setting 'orthorhombic'
loop_
_space_group_symop_operation_xyz
x,y,z
-x,1/2-y,z
x,1/2-y,1/2-z
-x,y,1/2-z
-x,-y,-z
x,1/2+y,-z
-x,1/2+y,1/2+z
x,-y,1/2+z
1/2+x,1/2+y,z
1/2-x,-y,z
1/2+x,-y,1/2-z
1/2-x,1/2+y,1/2-z
1/2-x,1/2-y,-z
1/2+x,y,-z
1/2-x,y,1/2+z
1/2+x,1/2-y,1/2+z
loop_
_atom_site_type_symbol
_atom_site_label
_atom_site_fract_x
_atom_site_fract_y
_atom_site_fract_z
Si Si1 0.988285 0.492062 0.674893
Si Si2 0.250000 0.000000 0.581768
Si Si3 0.624181 0.525158 0.974486
Si Si4 0.658190 0.870300 0.822286
Si Si5 0.868587 0.865579 0.165196
Si Si6 0.488981 0.869272 0.457031
O O1 0.910718 0.442004 0.664605
O O2 0.999716 0.573842 0.615595
O O3 0.000000 0.540726 0.750000
O O4 0.048468 0.402545 0.674219
O O5 0.315352 0.034383 0.532473
O O6 0.223459 0.089790 0.631719
O O7 0.654291 0.566729 0.901077
O O8 0.590964 0.410449 0.976936
O O9 0.551797 0.590108 0.991825
O O10 0.637971 0.755397 0.843808
O O11 0.670468 0.881211 0.739430
O O12 0.500000 0.750000 0.452123
#
# Coordination Sequence:
#
# PCOD9506928 Si02
#       6
#    16   8  16  16  16  16
#     4   9  17  35  62  89 116 146 200 252 292 340
#     4  12  24  38  58  84 128 158 188 244 308 362
#     4  10  23  39  58  90 118 156 196 246 300 352
#     4  10  20  37  60  89 118 155 195 250 298 354
#     4   9  20  37  63  86 113 154 204 248 293 351
#     4  10  21  38  60  87 117 156 199 246 294 349
#
# _framework density 18.738534999999999
#
# number of rings (size 3 to 8) (size 9 to 14) (size 15 to 20)
#    0.000    2.182    1.818    0.545    2.545    4.000 
#    0.000    0.000    8.000    0.000    0.000    0.000 
#    0.000    0.000    0.000    0.000    0.000    0.000 
#
# Total GULP energy -245239.045393 kJ/mol
# GULP energy per Si atom -5573.614668 kJ/mol
# Density = 1.869589 g / cm^3
# Si number density = 18.738535 Si / 1000 Ang^3
#
#
#
# Elastic Constant Matrix: (Units=GPa)
#
#
# Indices 1 2 3 4 5 6 
#
# 1 60.9706 30.2770 49.3582 0.0000 0.0000 0.0000
# 2 30.2770 112.0601 44.3314 0.0000 0.0000 0.0000
# 3 49.3582 44.3314 120.2048 0.0000 0.0000 0.0000
# 4 0.0000 0.0000 0.0000 19.8263 0.0000 0.0000
# 5 0.0000 0.0000 0.0000 0.0000 33.6464 0.0000
# 6 0.0000 0.0000 0.0000 0.0000 0.0000 14.3677
#
#
#
# Elastic Compliance Matrix: (Units=1/GPa)
#
#
# Indices 1 2 3 4 5 6 
#
# 1 0.025523 -0.003220 -0.009293 0.000000 0.000000 0.000000
# 2 -0.003220 0.010854 -0.002681 0.000000 0.000000 0.000000
# 3 -0.009293 -0.002681 0.013124 0.000000 0.000000 0.000000
# 4 0.000000 0.000000 0.000000 0.050438 0.000000 0.000000
# 5 0.000000 0.000000 0.000000 0.000000 0.029721 0.000000
# 6 0.000000 0.000000 0.000000 0.000000 0.000000 0.069601
#
#
# Mechanical properties :
#
#
# Convention : Reuss Voigt Hill
#
# Bulk Modulus (GPa) = 52.31744 60.12985 56.22364
# Shear Modulus (GPa) = 21.18472 24.85267 23.01869
#
# Velocity S-wave (km/s) = 3.36600 3.64577 3.50868
# Velocity P-wave (km/s) = 6.56407 7.06263 6.81791
#
# Compressibility (1/GPa) = 0.01911409
#
# Stress axis : x y z
#
# Youngs Moduli (GPa) = 39.18016 92.12930 76.19810
#
# Poissons Ratio (x) = 0.29663 0.70810
# Poissons Ratio (y) = 0.12615 0.20429
# Poissons Ratio (z) = 0.36409 0.24700
#
# Static dielectric constant tensor:
#      x y z
#    x 1.652390 0.000000 0.000000 
#    y 0.000000 1.625230 0.000000 
#    z 0.000000 0.000000 1.713110 
# 
# From -- ./inp_files/39414.got.cif
#   From: 2010.05.17/outbox.cif.g08.bks.cpg/sg68_20_cif.got.tgz:39414.got - 2010.06.03 18:57:09.
