data_PCOD9506134
_publ_section_title
;
Structure prediction by ZEFSAII (Michael W. Deem and Ramdas Pophale) SiO2 
 PCOD9506134
Probable space group: C C C A
;
_chemical_formula_sum "Si O2"
_cell_formula_units_Z 96
_cell_length_a 5.061041
_cell_length_b 28.119120
_cell_length_c 31.793238
_cell_angle_alpha 90.000000
_cell_angle_beta 90.000000
_cell_angle_gamma 90.000000
_cell_volume 4524.559897
_symmetry_space_group_name_H-M "C C C A"
_symmetry_group_IT_number 68
_space_group.IT_coordinate_system_code '2'
_symmetry_cell_setting 'orthorhombic'
loop_
_space_group_symop_operation_xyz
x,y,z
-x,1/2-y,z
x,1/2-y,1/2-z
-x,y,1/2-z
-x,-y,-z
x,1/2+y,-z
-x,1/2+y,1/2+z
x,-y,1/2+z
1/2+x,1/2+y,z
1/2-x,-y,z
1/2+x,-y,1/2-z
1/2-x,1/2+y,1/2-z
1/2-x,1/2-y,-z
1/2+x,y,-z
1/2-x,y,1/2+z
1/2+x,1/2-y,1/2+z
loop_
_atom_site_type_symbol
_atom_site_label
_atom_site_fract_x
_atom_site_fract_y
_atom_site_fract_z
Si Si1 0.601820 0.552418 0.842512
Si Si2 0.447440 0.053225 0.973607
Si Si3 0.000000 0.250000 0.612880
Si Si4 0.142187 0.654596 0.944737
Si Si5 0.500000 0.250000 0.550712
Si Si6 0.654597 0.348742 0.387906
Si Si7 0.000000 0.466396 0.750000
Si Si8 0.750000 0.500000 0.597895
O O1 0.750000 0.500000 0.844539
O O2 0.692004 0.602053 0.862783
O O3 0.552474 0.560816 0.793263
O O4 0.350649 0.540726 0.871273
O O5 0.520278 0.107793 0.965143
O O6 0.537637 0.024733 0.932474
O O7 0.149360 0.044155 0.987807
O O8 0.246343 0.249205 0.581122
O O9 0.041615 0.301094 0.635267
O O10 0.064999 0.700773 0.972887
O O11 0.438572 0.646443 0.926592
O O12 0.946781 0.661694 0.905002
O O13 0.750000 0.500000 0.741349
#
# Coordination Sequence:
#
# PCOD9506134 Si02
#       8
#    16  16   8  16   8  16   8   8
#     4  11  23  37  63  88 120 153 191 237 285 355
#     4  12  26  40  54  78 114 150 192 244 286 334
#     4   8  16  30  52  84 112 138 189 244 271 330
#     4  10  19  37  56  81 109 145 194 238 289 339
#     4   8  16  30  56  79 104 137 185 244 285 333
#     4  10  19  34  59  85 111 150 195 233 285 342
#     4  10  22  40  56  89 124 149 184 236 288 336
#     4  12  24  40  60  80 110 154 200 226 288 348
#
# _framework density 21.217535000000002
#
# number of rings (size 3 to 8) (size 9 to 14) (size 15 to 20)
#    0.000    1.667    2.500    2.500    2.333    0.000 
#    0.000    0.833    0.000    0.500    0.000    0.000 
#    0.000    9.667    0.000    0.000    0.000    1.667 
#
# Total GULP energy -267453.937284 kJ/mol
# GULP energy per Si atom -5571.957027 kJ/mol
# Density = 2.116924 g / cm^3
# Si number density = 21.217535 Si / 1000 Ang^3
#
#
#
# Elastic Constant Matrix: (Units=GPa)
#
#
# Indices 1 2 3 4 5 6 
#
# 1 109.2026 0.7061 17.6870 0.0000 0.0000 0.0000
# 2 0.7061 128.6247 24.9248 0.0000 0.0000 0.0000
# 3 17.6870 24.9248 75.3031 0.0000 0.0000 0.0000
# 4 0.0000 0.0000 0.0000 30.8592 0.0000 0.0000
# 5 0.0000 0.0000 0.0000 0.0000 16.9225 0.0000
# 6 0.0000 0.0000 0.0000 0.0000 0.0000 29.6734
#
#
#
# Elastic Compliance Matrix: (Units=1/GPa)
#
#
# Indices 1 2 3 4 5 6 
#
# 1 0.009539 0.000408 -0.002376 0.000000 0.000000 0.000000
# 2 0.000408 0.008325 -0.002851 0.000000 0.000000 0.000000
# 3 -0.002376 -0.002851 0.014781 0.000000 0.000000 0.000000
# 4 0.000000 0.000000 0.000000 0.032405 0.000000 0.000000
# 5 0.000000 0.000000 0.000000 0.000000 0.059093 0.000000
# 6 0.000000 0.000000 0.000000 0.000000 0.000000 0.033700
#
#
# Mechanical properties :
#
#
# Convention : Reuss Voigt Hill
#
# Bulk Modulus (GPa) = 43.46355 44.41845 43.94100
# Shear Modulus (GPa) = 28.54674 33.47851 31.01262
#
# Velocity S-wave (km/s) = 3.67199 3.97655 3.82730
# Velocity P-wave (km/s) = 6.20542 6.48569 6.34710
#
# Compressibility (1/GPa) = 0.02300779
#
# Stress axis : x y z
#
# Youngs Moduli (GPa) = 104.82814 120.12242 67.65258
#
# Poissons Ratio (x) = -0.04901 0.16072
# Poissons Ratio (y) = -0.04277 0.19290
# Poissons Ratio (z) = 0.24903 0.34250
#
# Static dielectric constant tensor:
#      x y z
#    x 1.866040 0.000000 0.000000 
#    y 0.000000 2.356830 0.000000 
#    z 0.000000 0.000000 1.759280 
# 
# From -- ./inp_files/53484.got.cif
#   From: 2010.05.17/outbox.cif.g08.bks.cpg/sg68_27_cif.got.tgz:53484.got - 2010.06.03 18:57:09.
