data_PCOD9506333
_publ_section_title
;
Structure prediction by ZEFSAII (Michael W. Deem and Ramdas Pophale) SiO2 
 PCOD9506333
Probable space group: C C C A
;
_chemical_formula_sum "Si O2"
_cell_formula_units_Z 112
_cell_length_a 16.792815
_cell_length_b 10.008325
_cell_length_c 31.553460
_cell_angle_alpha 90.000000
_cell_angle_beta 90.000000
_cell_angle_gamma 90.000000
_cell_volume 5303.125343
_symmetry_space_group_name_H-M "C C C A"
_symmetry_group_IT_number 68
_space_group.IT_coordinate_system_code '2'
_symmetry_cell_setting 'orthorhombic'
loop_
_space_group_symop_operation_xyz
x,y,z
-x,1/2-y,z
x,1/2-y,1/2-z
-x,y,1/2-z
-x,-y,-z
x,1/2+y,-z
-x,1/2+y,1/2+z
x,-y,1/2+z
1/2+x,1/2+y,z
1/2-x,-y,z
1/2+x,-y,1/2-z
1/2-x,1/2+y,1/2-z
1/2-x,1/2-y,-z
1/2+x,y,-z
1/2-x,y,1/2+z
1/2+x,1/2-y,1/2+z
loop_
_atom_site_type_symbol
_atom_site_label
_atom_site_fract_x
_atom_site_fract_y
_atom_site_fract_z
Si Si1 0.469536 0.596906 0.461405
Si Si2 0.909708 0.747556 0.333874
Si Si3 0.093155 0.222972 0.298214
Si Si4 0.844135 0.987965 0.820007
Si Si5 0.939993 0.626657 0.422187
Si Si6 0.158305 0.958923 0.276709
Si Si7 0.691165 0.875807 0.503723
O O1 0.500000 0.750000 0.463751
O O2 0.500000 0.500000 0.500000
O O3 0.510903 0.512567 0.423969
O O4 0.373902 0.605752 0.465875
O O5 0.884320 0.896298 0.346939
O O6 0.908679 0.657247 0.375515
O O7 0.854085 0.683485 0.298145
O O8 0.000000 0.750000 0.317520
O O9 0.124094 0.250000 0.250000
O O10 0.132233 0.335181 0.327402
O O11 0.112145 0.068890 0.304799
O O12 0.000000 0.250000 0.298499
O O13 0.750000 0.000000 0.822601
O O14 0.870749 0.026960 0.771713
O O15 0.866861 0.630574 0.455258
O O16 0.000000 0.750000 0.432652
O O17 0.250000 0.000000 0.276687
O O18 0.750000 0.750000 0.500000
O O19 0.750000 0.000000 0.506254
#
# Coordination Sequence:
#
# PCOD9506333 Si02
#       7
#    16  16  16  16  16  16  16
#     4  10  19  37  63  88 120 160 195 236 291 354
#     4  11  23  38  57  82 115 157 199 243 292 354
#     4   9  17  30  50  76 104 134 177 236 289 339
#     4  10  20  36  57  82 109 146 195 245 302 360
#     4  10  22  41  56  80 124 164 194 234 295 356
#     4  10  20  35  57  82 110 145 191 248 306 359
#     4  11  20  34  62  95 115 142 194 247 287 336
#
# _framework density 21.119622
#
# number of rings (size 3 to 8) (size 9 to 14) (size 15 to 20)
#    0.000    1.857    0.000    6.429    0.000    5.143 
#    0.000    7.143    0.000    0.000    0.000    0.000 
#    0.000    0.000    0.000    0.000    0.000    0.000 
#
# Total GULP energy -312492.529416 kJ/mol
# GULP energy per Si atom -5580.223740 kJ/mol
# Density = 2.107155 g / cm^3
# Si number density = 21.119622 Si / 1000 Ang^3
#
#
#
# Elastic Constant Matrix: (Units=GPa)
#
#
# Indices 1 2 3 4 5 6 
#
# 1 103.1159 38.2833 13.8043 0.0000 0.0000 0.0000
# 2 38.2833 154.7380 14.4730 0.0000 0.0000 0.0000
# 3 13.8043 14.4730 45.3386 0.0000 0.0000 0.0000
# 4 0.0000 0.0000 0.0000 21.2136 0.0000 0.0000
# 5 0.0000 0.0000 0.0000 0.0000 8.4855 0.0000
# 6 0.0000 0.0000 0.0000 0.0000 0.0000 48.7785
#
#
#
# Elastic Compliance Matrix: (Units=1/GPa)
#
#
# Indices 1 2 3 4 5 6 
#
# 1 0.010957 -0.002473 -0.002547 0.000000 0.000000 0.000000
# 2 -0.002473 0.007219 -0.001552 0.000000 0.000000 0.000000
# 3 -0.002547 -0.001552 0.023327 0.000000 0.000000 0.000000
# 4 0.000000 0.000000 0.000000 0.047140 0.000000 0.000000
# 5 0.000000 0.000000 0.000000 0.000000 0.117848 0.000000
# 6 0.000000 0.000000 0.000000 0.000000 0.000000 0.020501
#
#
# Mechanical properties :
#
#
# Convention : Reuss Voigt Hill
#
# Bulk Modulus (GPa) = 35.25957 48.47928 41.86942
# Shear Modulus (GPa) = 20.03303 31.47097 25.75200
#
# Velocity S-wave (km/s) = 3.08320 3.86441 3.49569
# Velocity P-wave (km/s) = 5.42275 6.55103 6.01341
#
# Compressibility (1/GPa) = 0.02836110
#
# Stress axis : x y z
#
# Youngs Moduli (GPa) = 91.26801 138.51543 42.86873
#
# Poissons Ratio (x) = 0.34249 0.10917
# Poissons Ratio (y) = 0.22567 0.06652
# Poissons Ratio (z) = 0.23243 0.21494
#
# Static dielectric constant tensor:
#      x y z
#    x 1.741120 0.000000 0.000000 
#    y 0.000000 1.971140 0.000000 
#    z 0.000000 0.000000 1.827120 
# 
# From -- ./inp_files/55285.got.cif
#   From: 2010.05.17/outbox.cif.g08.bks.cpg/sg68_28_cif.got.tgz:55285.got - 2010.06.03 18:57:09.
