data_PCOD9506428
_publ_section_title
;
Structure prediction by ZEFSAII (Michael W. Deem and Ramdas Pophale) SiO2 
 PCOD9506428
Probable space group: C C C A
;
_chemical_formula_sum "Si O2"
_cell_formula_units_Z 72
_cell_length_a 14.121784
_cell_length_b 24.280685
_cell_length_c 10.713900
_cell_angle_alpha 90.000000
_cell_angle_beta 90.000000
_cell_angle_gamma 90.000000
_cell_volume 3673.652625
_symmetry_space_group_name_H-M "C C C A"
_symmetry_group_IT_number 68
_space_group.IT_coordinate_system_code '2'
_symmetry_cell_setting 'orthorhombic'
loop_
_space_group_symop_operation_xyz
x,y,z
-x,1/2-y,z
x,1/2-y,1/2-z
-x,y,1/2-z
-x,-y,-z
x,1/2+y,-z
-x,1/2+y,1/2+z
x,-y,1/2+z
1/2+x,1/2+y,z
1/2-x,-y,z
1/2+x,-y,1/2-z
1/2-x,1/2+y,1/2-z
1/2-x,1/2-y,-z
1/2+x,y,-z
1/2-x,y,1/2+z
1/2+x,1/2-y,1/2+z
loop_
_atom_site_type_symbol
_atom_site_label
_atom_site_fract_x
_atom_site_fract_y
_atom_site_fract_z
Si Si1 0.107710 0.948961 0.424257
Si Si2 0.455709 0.063407 0.873655
Si Si3 0.278741 0.127047 0.949946
Si Si4 0.200271 0.812451 0.205559
Si Si5 0.000000 0.861849 0.250000
O O1 0.209649 0.925565 0.459721
O O2 0.046998 0.954927 0.548890
O O3 0.051060 0.902520 0.347487
O O4 0.102906 0.006802 0.351653
O O5 0.500000 0.088798 0.750000
O O6 0.385768 0.104942 0.943229
O O7 0.250460 0.153071 0.816469
O O8 0.264306 0.167573 0.068590
O O9 0.215155 0.750000 0.250000
O O10 0.087592 0.825251 0.203073
#
# Coordination Sequence:
#
# PCOD9506428 Si02
#       5
#    16  16  16  16   8
#     4  10  21  36  59  90 128 161 202 247 314 389
#     4  11  21  37  60  92 131 166 201 253 317 388
#     4  11  23  39  64  91 125 164 215 260 319 377
#     4  11  23  41  63  89 120 167 217 271 317 369
#     4  10  19  40  60  86 118 164 211 248 320 384
#
# _framework density 19.599024
#
# number of rings (size 3 to 8) (size 9 to 14) (size 15 to 20)
#    0.000    1.333    3.333    3.000    0.000    0.000 
#    0.000    4.444    0.000    1.333    0.000    0.000 
#    0.000    0.000    0.000    0.000    0.000    0.000 
#
# Total GULP energy -200646.071027 kJ/mol
# GULP energy per Si atom -5573.501973 kJ/mol
# Density = 1.955442 g / cm^3
# Si number density = 19.599024 Si / 1000 Ang^3
#
#
#
# Elastic Constant Matrix: (Units=GPa)
#
#
# Indices 1 2 3 4 5 6 
#
# 1 68.2991 13.9387 23.3710 0.0000 0.0000 0.0000
# 2 13.9387 77.0846 16.0009 0.0000 0.0000 0.0000
# 3 23.3710 16.0009 94.9355 0.0000 0.0000 0.0000
# 4 0.0000 0.0000 0.0000 14.1888 0.0000 0.0000
# 5 0.0000 0.0000 0.0000 0.0000 25.2294 0.0000
# 6 0.0000 0.0000 0.0000 0.0000 0.0000 26.3679
#
#
#
# Elastic Compliance Matrix: (Units=1/GPa)
#
#
# Indices 1 2 3 4 5 6 
#
# 1 0.016339 -0.002196 -0.003652 0.000000 0.000000 0.000000
# 2 -0.002196 0.013738 -0.001775 0.000000 0.000000 0.000000
# 3 -0.003652 -0.001775 0.011732 0.000000 0.000000 0.000000
# 4 0.000000 0.000000 0.000000 0.070478 0.000000 0.000000
# 5 0.000000 0.000000 0.000000 0.000000 0.039636 0.000000
# 6 0.000000 0.000000 0.000000 0.000000 0.000000 0.037925
#
#
# Mechanical properties :
#
#
# Convention : Reuss Voigt Hill
#
# Bulk Modulus (GPa) = 37.64695 38.54892 38.09793
# Shear Modulus (GPa) = 23.36993 25.62446 24.49719
#
# Velocity S-wave (km/s) = 3.45686 3.61977 3.53925
# Velocity P-wave (km/s) = 5.93157 6.09769 6.01520
#
# Compressibility (1/GPa) = 0.02656258
#
# Stress axis : x y z
#
# Youngs Moduli (GPa) = 61.20144 72.78900 85.23912
#
# Poissons Ratio (x) = 0.15988 0.31131
# Poissons Ratio (y) = 0.13443 0.15128
# Poissons Ratio (z) = 0.22352 0.12919
#
# Static dielectric constant tensor:
#      x y z
#    x 1.689520 0.000000 0.000000 
#    y 0.000000 1.700170 0.000000 
#    z 0.000000 0.000000 1.727960 
# 
# From -- ./inp_files/5190.got.cif
#   From: 2010.05.17/outbox.cif.g08.bks.cpg/sg68_3_cif.got.tgz:5190.got - 2010.06.03 18:57:09.
