data_PCOD9506832
_publ_section_title
;
Structure prediction by ZEFSAII (Michael W. Deem and Ramdas Pophale) SiO2 
 PCOD9506832
Probable space group: C C C A
;
_chemical_formula_sum "Si O2"
_cell_formula_units_Z 104
_cell_length_a 18.727957
_cell_length_b 26.838809
_cell_length_c 9.361701
_cell_angle_alpha 90.000000
_cell_angle_beta 90.000000
_cell_angle_gamma 90.000000
_cell_volume 4705.528514
_symmetry_space_group_name_H-M "C C C A"
_symmetry_group_IT_number 68
_space_group.IT_coordinate_system_code '2'
_symmetry_cell_setting 'orthorhombic'
loop_
_space_group_symop_operation_xyz
x,y,z
-x,1/2-y,z
x,1/2-y,1/2-z
-x,y,1/2-z
-x,-y,-z
x,1/2+y,-z
-x,1/2+y,1/2+z
x,-y,1/2+z
1/2+x,1/2+y,z
1/2-x,-y,z
1/2+x,-y,1/2-z
1/2-x,1/2+y,1/2-z
1/2-x,1/2-y,-z
1/2+x,y,-z
1/2-x,y,1/2+z
1/2+x,1/2-y,1/2+z
loop_
_atom_site_type_symbol
_atom_site_label
_atom_site_fract_x
_atom_site_fract_y
_atom_site_fract_z
Si Si1 0.704662 0.054203 0.929945
Si Si2 0.810623 0.138628 0.976599
Si Si3 0.081463 0.604422 0.258808
Si Si4 0.415062 0.362059 0.953981
Si Si5 0.500000 0.070453 0.750000
Si Si6 0.191740 0.692364 0.782321
Si Si7 0.140031 0.503223 0.679986
O O1 0.773662 0.084359 0.978452
O O2 0.646680 0.097417 0.934838
O O3 0.697734 0.033761 0.770735
O O4 0.671861 0.010221 0.025885
O O5 0.885970 0.131170 0.896790
O O6 0.758070 0.171648 0.876208
O O7 0.813582 0.161559 0.134217
O O8 0.124755 0.552976 0.236720
O O9 0.000000 0.587581 0.250000
O O10 0.083216 0.642509 0.124253
O O11 0.479551 0.391725 0.878881
O O12 0.382484 0.315621 0.869275
O O13 0.566266 0.035303 0.697636
O O14 0.203005 0.750000 0.750000
#
# Coordination Sequence:
#
# PCOD9506832 Si02
#       7
#    16  16  16  16   8  16  16
#     4   9  21  38  59  92 132 171 228 278 324 384
#     4  11  24  44  67 100 135 174 219 296 352 400
#     4  11  24  40  65  94 138 185 228 264 330 405
#     4   9  22  39  62  95 130 166 221 275 338 403
#     4  10  20  36  63  90 140 176 225 274 322 396
#     4  11  23  45  76 101 124 164 222 286 363 429
#     4  10  20  36  61  92 127 184 231 266 320 393
#
# _framework density 22.101662000000001
#
# number of rings (size 3 to 8) (size 9 to 14) (size 15 to 20)
#    0.000    1.846    0.769    3.231    4.308    4.923 
#    0.000    8.077    0.000    3.231    0.000    0.000 
#    0.000    0.000    0.000    0.000    0.000    0.000 
#
# Total GULP energy -290122.556519 kJ/mol
# GULP energy per Si atom -5579.279933 kJ/mol
# Density = 2.205136 g / cm^3
# Si number density = 22.101662 Si / 1000 Ang^3
#
#
#
# Elastic Constant Matrix: (Units=GPa)
#
#
# Indices 1 2 3 4 5 6 
#
# 1 64.4171 21.3771 19.5498 0.0000 0.0000 0.0000
# 2 21.3771 89.6821 15.2811 0.0000 0.0000 0.0000
# 3 19.5498 15.2811 108.2897 0.0000 0.0000 0.0000
# 4 0.0000 0.0000 0.0000 24.3086 0.0000 0.0000
# 5 0.0000 0.0000 0.0000 0.0000 20.9123 0.0000
# 6 0.0000 0.0000 0.0000 0.0000 0.0000 22.7773
#
#
#
# Elastic Compliance Matrix: (Units=1/GPa)
#
#
# Indices 1 2 3 4 5 6 
#
# 1 0.017566 -0.003737 -0.002644 0.000000 0.000000 0.000000
# 2 -0.003737 0.012220 -0.001050 0.000000 0.000000 0.000000
# 3 -0.002644 -0.001050 0.009860 0.000000 0.000000 0.000000
# 4 0.000000 0.000000 0.000000 0.041138 0.000000 0.000000
# 5 0.000000 0.000000 0.000000 0.000000 0.047819 0.000000
# 6 0.000000 0.000000 0.000000 0.000000 0.000000 0.043903
#
#
# Mechanical properties :
#
#
# Convention : Reuss Voigt Hill
#
# Bulk Modulus (GPa) = 40.34645 41.64499 40.99572
# Shear Modulus (GPa) = 25.55860 27.34504 26.45182
#
# Velocity S-wave (km/s) = 3.40429 3.52126 3.46327
# Velocity P-wave (km/s) = 5.80920 5.95111 5.88058
#
# Compressibility (1/GPa) = 0.02478533
#
# Stress axis : x y z
#
# Youngs Moduli (GPa) = 56.92729 81.83255 101.42032
#
# Poissons Ratio (x) = 0.30578 0.26815
# Poissons Ratio (y) = 0.21272 0.10647
# Poissons Ratio (z) = 0.15051 0.08591
#
# Static dielectric constant tensor:
#      x y z
#    x 1.887890 0.000000 0.000000 
#    y 0.000000 1.795990 0.000000 
#    z 0.000000 0.000000 1.883030 
# 
# From -- ./inp_files/7399.got.cif
#   From: 2010.05.17/outbox.cif.g08.bks.cpg/sg68_4_cif.got.tgz:7399.got - 2010.06.03 18:57:09.
