data_PCOD9506758
_publ_section_title
;
Structure prediction by ZEFSAII (Michael W. Deem and Ramdas Pophale) SiO2 
 PCOD9506758
Probable space group: C C C A
;
_chemical_formula_sum "Si O2"
_cell_formula_units_Z 80
_cell_length_a 8.095537
_cell_length_b 22.847998
_cell_length_c 21.352565
_cell_angle_alpha 90.000000
_cell_angle_beta 90.000000
_cell_angle_gamma 90.000000
_cell_volume 3949.515901
_symmetry_space_group_name_H-M "C C C A"
_symmetry_group_IT_number 68
_space_group.IT_coordinate_system_code '2'
_symmetry_cell_setting 'orthorhombic'
loop_
_space_group_symop_operation_xyz
x,y,z
-x,1/2-y,z
x,1/2-y,1/2-z
-x,y,1/2-z
-x,-y,-z
x,1/2+y,-z
-x,1/2+y,1/2+z
x,-y,1/2+z
1/2+x,1/2+y,z
1/2-x,-y,z
1/2+x,-y,1/2-z
1/2-x,1/2+y,1/2-z
1/2-x,1/2-y,-z
1/2+x,y,-z
1/2-x,y,1/2+z
1/2+x,1/2-y,1/2+z
loop_
_atom_site_type_symbol
_atom_site_label
_atom_site_fract_x
_atom_site_fract_y
_atom_site_fract_z
Si Si1 0.441347 0.615060 0.680780
Si Si2 0.250000 0.000000 0.854487
Si Si3 0.790967 0.683937 0.424580
Si Si4 0.698589 0.436222 0.085534
Si Si5 0.000000 0.250000 0.019241
Si Si6 0.058783 0.925418 0.951857
O O1 0.500000 0.629086 0.750000
O O2 0.327658 0.555712 0.681615
O O3 0.352231 0.668704 0.644894
O O4 0.595802 0.599003 0.636180
O O5 0.113559 0.973460 0.901112
O O6 0.656787 0.734456 0.437895
O O7 0.689458 0.626398 0.442881
O O8 0.942124 0.698842 0.471260
O O9 0.750000 0.500000 0.110157
O O10 0.871930 0.407939 0.064019
O O11 0.588351 0.444957 0.023074
#
# Coordination Sequence:
#
# PCOD9506758 Si02
#       6
#    16   8  16  16   8  16
#     4  11  25  40  58  86 128 175 213 240 294 378
#     4  10  20  36  56  84 124 162 204 246 294 360
#     4  10  22  39  66  96 122 157 200 272 327 386
#     4  12  21  33  56  88 126 165 198 249 300 360
#     4  10  20  42  71  98 121 146 208 282 358 358
#     4  11  20  35  59  93 123 152 201 257 320 361
#
# _framework density 20.255647
#
# number of rings (size 3 to 8) (size 9 to 14) (size 15 to 20)
#    0.000    1.200    3.000    5.400    1.400    1.600 
#    0.000    3.500    0.000    2.400    0.000    0.000 
#    0.000    0.000    0.000    0.000    0.000    0.000 
#
# Total GULP energy -223373.147875 kJ/mol
# GULP energy per Si atom -5584.328697 kJ/mol
# Density = 2.020954 g / cm^3
# Si number density = 20.255647 Si / 1000 Ang^3
#
#
#
# Elastic Constant Matrix: (Units=GPa)
#
#
# Indices 1 2 3 4 5 6 
#
# 1 113.0980 10.5644 58.2473 0.0000 0.0000 0.0000
# 2 10.5644 49.5531 33.7897 0.0000 0.0000 0.0000
# 3 58.2473 33.7897 141.5126 0.0000 0.0000 0.0000
# 4 0.0000 0.0000 0.0000 22.3952 0.0000 0.0000
# 5 0.0000 0.0000 0.0000 0.0000 30.7827 0.0000
# 6 0.0000 0.0000 0.0000 0.0000 0.0000 33.2815
#
#
#
# Elastic Compliance Matrix: (Units=1/GPa)
#
#
# Indices 1 2 3 4 5 6 
#
# 1 0.011254 0.000907 -0.004849 0.000000 0.000000 0.000000
# 2 0.000907 0.024178 -0.006147 0.000000 0.000000 0.000000
# 3 -0.004849 -0.006147 0.010530 0.000000 0.000000 0.000000
# 4 0.000000 0.000000 0.000000 0.044652 0.000000 0.000000
# 5 0.000000 0.000000 0.000000 0.000000 0.032486 0.000000
# 6 0.000000 0.000000 0.000000 0.000000 0.000000 0.030047
#
#
# Mechanical properties :
#
#
# Convention : Reuss Voigt Hill
#
# Bulk Modulus (GPa) = 38.78095 56.59629 47.68862
# Shear Modulus (GPa) = 27.48465 30.72937 29.10701
#
# Velocity S-wave (km/s) = 3.68759 3.89919 3.79487
# Velocity P-wave (km/s) = 6.10888 6.94790 6.54185
#
# Compressibility (1/GPa) = 0.02578586
#
# Stress axis : x y z
#
# Youngs Moduli (GPa) = 88.85366 41.35951 94.96665
#
# Poissons Ratio (x) = -0.03752 0.46049
# Poissons Ratio (y) = -0.08060 0.58372
# Poissons Ratio (z) = 0.43085 0.25422
#
# Static dielectric constant tensor:
#      x y z
#    x 1.776770 0.000000 0.000000 
#    y 0.000000 1.801600 0.000000 
#    z 0.000000 0.000000 1.666530 
# 
# From -- ./inp_files/36203.got.cif
#   From: 2010.05.17/outbox.cif.g08.bks.cpg/sg68_19_cif.got.tgz:36203.got - 2010.06.03 18:57:09.
