data_PCOD9506770
_publ_section_title
;
Structure prediction by ZEFSAII (Michael W. Deem and Ramdas Pophale) SiO2 
 PCOD9506770
Probable space group: C C C A
;
_chemical_formula_sum "Si O2"
_cell_formula_units_Z 100
_cell_length_a 15.968055
_cell_length_b 15.804584
_cell_length_c 21.660048
_cell_angle_alpha 90.000000
_cell_angle_beta 90.000000
_cell_angle_gamma 90.000000
_cell_volume 5466.313099
_symmetry_space_group_name_H-M "C C C A"
_symmetry_group_IT_number 68
_space_group.IT_coordinate_system_code '2'
_symmetry_cell_setting 'orthorhombic'
loop_
_space_group_symop_operation_xyz
x,y,z
-x,1/2-y,z
x,1/2-y,1/2-z
-x,y,1/2-z
-x,-y,-z
x,1/2+y,-z
-x,1/2+y,1/2+z
x,-y,1/2+z
1/2+x,1/2+y,z
1/2-x,-y,z
1/2+x,-y,1/2-z
1/2-x,1/2+y,1/2-z
1/2-x,1/2-y,-z
1/2+x,y,-z
1/2-x,y,1/2+z
1/2+x,1/2-y,1/2+z
loop_
_atom_site_type_symbol
_atom_site_label
_atom_site_fract_x
_atom_site_fract_y
_atom_site_fract_z
Si Si1 0.933188 0.517872 0.194050
Si Si2 0.500000 0.750000 0.250000
Si Si3 0.164652 0.852883 0.538338
Si Si4 0.644509 0.704900 0.552238
Si Si5 0.066369 0.021867 0.551691
Si Si6 0.162449 0.694747 0.306885
Si Si7 0.855136 0.345843 0.179866
O O1 0.965218 0.509328 0.122688
O O2 0.884874 0.605990 0.196882
O O3 0.864498 0.443934 0.196971
O O4 0.000000 0.510902 0.250000
O O5 0.436009 0.804632 0.210277
O O6 0.263485 0.832617 0.535264
O O7 0.125206 0.787497 0.488936
O O8 0.140297 0.952639 0.537475
O O9 0.137921 0.828219 0.607281
O O10 0.588802 0.620838 0.545362
O O11 0.645490 0.730152 0.624491
O O12 0.000000 0.000000 0.500000
O O13 0.132027 0.750000 0.250000
O O14 0.262774 0.683583 0.301220
#
# Coordination Sequence:
#
# PCOD9506770 Si02
#       7
#    16   4  16  16  16  16  16
#     4  10  21  38  56  80 113 151 189 233 282 340
#     4  12  20  32  60  88 112 140 182 236 280 340
#     4   9  19  36  58  79 109 148 184 230 277 335
#     4   9  19  37  58  81 109 146 191 228 279 337
#     4  10  21  35  56  83 110 145 186 232 280 334
#     4  10  20  36  59  82 112 151 190 231 283 344
#     4  10  20  36  57  83 113 145 187 233 290 337
#
# _framework density 18.293865
#
# number of rings (size 3 to 8) (size 9 to 14) (size 15 to 20)
#    0.000    2.240    1.600    0.960    0.000    8.640 
#    0.000    3.200    0.000    3.840    0.000    0.000 
#    0.000    0.000    0.000    0.000    0.000    0.000 
#
# Total GULP energy -278365.098748 kJ/mol
# GULP energy per Si atom -5567.301975 kJ/mol
# Density = 1.825223 g / cm^3
# Si number density = 18.293865 Si / 1000 Ang^3
#
#
#
# Elastic Constant Matrix: (Units=GPa)
#
#
# Indices 1 2 3 4 5 6 
#
# 1 43.3518 9.0709 44.8690 0.0000 0.0000 0.0000
# 2 9.0709 81.6926 65.2302 0.0000 0.0000 0.0000
# 3 44.8690 65.2302 118.6962 0.0000 0.0000 0.0000
# 4 0.0000 0.0000 0.0000 40.1761 0.0000 0.0000
# 5 0.0000 0.0000 0.0000 0.0000 31.5956 0.0000
# 6 0.0000 0.0000 0.0000 0.0000 0.0000 23.4050
#
#
#
# Elastic Compliance Matrix: (Units=1/GPa)
#
#
# Indices 1 2 3 4 5 6 
#
# 1 0.047414 0.016120 -0.026782 0.000000 0.000000 0.000000
# 2 0.016120 0.027294 -0.021093 0.000000 0.000000 0.000000
# 3 -0.026782 -0.021093 0.030141 0.000000 0.000000 0.000000
# 4 0.000000 0.000000 0.000000 0.024890 0.000000 0.000000
# 5 0.000000 0.000000 0.000000 0.000000 0.031650 0.000000
# 6 0.000000 0.000000 0.000000 0.000000 0.000000 0.042726
#
#
# Mechanical properties :
#
#
# Convention : Reuss Voigt Hill
#
# Bulk Modulus (GPa) = 24.19066 53.56452 38.87759
# Shear Modulus (GPa) = 17.76810 27.34005 22.55407
#
# Velocity S-wave (km/s) = 3.11989 3.87006 3.51504
# Velocity P-wave (km/s) = 5.12156 7.02235 6.14588
#
# Compressibility (1/GPa) = 0.04133827
#
# Stress axis : x y z
#
# Youngs Moduli (GPa) = 21.09103 36.63868 33.17765
#
# Poissons Ratio (x) = -0.59063 0.88857
# Poissons Ratio (y) = -0.34000 0.69982
# Poissons Ratio (z) = 0.56486 0.77282
#
# Static dielectric constant tensor:
#      x y z
#    x 1.628050 0.000000 0.000000 
#    y 0.000000 1.582870 0.000000 
#    z 0.000000 0.000000 1.638600 
# 
# From -- ./inp_files/45471.got.cif
#   From: 2010.05.17/outbox.cif.g08.bks.cpg/sg68_23_cif.got.tgz:45471.got - 2010.06.03 18:57:09.
