data_PCOD9506416
_publ_section_title
;
Structure prediction by ZEFSAII (Michael W. Deem and Ramdas Pophale) SiO2 
 PCOD9506416
Probable space group: C C C A
;
_chemical_formula_sum "Si O2"
_cell_formula_units_Z 56
_cell_length_a 15.200447
_cell_length_b 13.845274
_cell_length_c 14.256356
_cell_angle_alpha 90.000000
_cell_angle_beta 90.000000
_cell_angle_gamma 90.000000
_cell_volume 3000.312187
_symmetry_space_group_name_H-M "C C C A"
_symmetry_group_IT_number 68
_space_group.IT_coordinate_system_code '2'
_symmetry_cell_setting 'orthorhombic'
loop_
_space_group_symop_operation_xyz
x,y,z
-x,1/2-y,z
x,1/2-y,1/2-z
-x,y,1/2-z
-x,-y,-z
x,1/2+y,-z
-x,1/2+y,1/2+z
x,-y,1/2+z
1/2+x,1/2+y,z
1/2-x,-y,z
1/2+x,-y,1/2-z
1/2-x,1/2+y,1/2-z
1/2-x,1/2-y,-z
1/2+x,y,-z
1/2-x,y,1/2+z
1/2+x,1/2-y,1/2+z
loop_
_atom_site_type_symbol
_atom_site_label
_atom_site_fract_x
_atom_site_fract_y
_atom_site_fract_z
Si Si1 0.064142 0.071977 0.445766
Si Si2 0.000000 0.504111 0.250000
Si Si3 0.500000 0.250000 0.056737
Si Si4 0.250000 0.000000 0.902782
Si Si5 0.863601 0.847945 0.201372
O O1 0.164054 0.036173 0.456720
O O2 0.051866 0.176439 0.490216
O O3 0.033356 0.059028 0.337498
O O4 0.000000 0.000000 0.500000
O O5 0.918930 0.578772 0.232141
O O6 0.433124 0.311088 0.122310
O O7 0.285630 0.910480 0.841671
O O8 0.833469 0.750000 0.250000
#
# Coordination Sequence:
#
# PCOD9506416 Si02
#       5
#    16   8   8   8  16
#     4  11  22  43  64  96 132 169 213 274 321 385
#     4  10  19  39  66  86 128 174 211 259 330 376
#     4  12  21  39  74  88 126 180 216 256 332 392
#     4  10  24  40  64  98 132 160 222 270 322 378
#     4  11  19  41  68  94 123 176 223 256 320 400
#
# _framework density 18.664725000000001
#
# number of rings (size 3 to 8) (size 9 to 14) (size 15 to 20)
#    0.000    1.143    8.571    0.000    0.000    1.714 
#   10.286    7.143    0.000    0.000    0.000    0.000 
#    0.000    0.000    0.000    0.000    0.000    0.000 
#
# Total GULP energy -156149.799491 kJ/mol
# GULP energy per Si atom -5576.778553 kJ/mol
# Density = 1.862224 g / cm^3
# Si number density = 18.664725 Si / 1000 Ang^3
#
#
#
# Elastic Constant Matrix: (Units=GPa)
#
#
# Indices 1 2 3 4 5 6 
#
# 1 144.9103 54.3216 35.2252 0.0000 0.0000 0.0000
# 2 54.3216 112.2372 41.8004 0.0000 0.0000 0.0000
# 3 35.2252 41.8004 63.8473 0.0000 0.0000 0.0000
# 4 0.0000 0.0000 0.0000 42.3533 0.0000 0.0000
# 5 0.0000 0.0000 0.0000 0.0000 30.0206 0.0000
# 6 0.0000 0.0000 0.0000 0.0000 0.0000 34.2104
#
#
#
# Elastic Compliance Matrix: (Units=1/GPa)
#
#
# Indices 1 2 3 4 5 6 
#
# 1 0.008775 -0.003232 -0.002725 0.000000 0.000000 0.000000
# 2 -0.003232 0.012973 -0.006710 0.000000 0.000000 0.000000
# 3 -0.002725 -0.006710 0.021559 0.000000 0.000000 0.000000
# 4 0.000000 0.000000 0.000000 0.023611 0.000000 0.000000
# 5 0.000000 0.000000 0.000000 0.000000 0.033310 0.000000
# 6 0.000000 0.000000 0.000000 0.000000 0.000000 0.029231
#
#
# Mechanical properties :
#
#
# Convention : Reuss Voigt Hill
#
# Bulk Modulus (GPa) = 55.64192 64.85433 60.24813
# Shear Modulus (GPa) = 31.09749 33.96003 32.52876
#
# Velocity S-wave (km/s) = 4.08623 4.27016 4.17921
# Velocity P-wave (km/s) = 7.22074 7.68992 7.45902
#
# Compressibility (1/GPa) = 0.01797206
#
# Stress axis : x y z
#
# Youngs Moduli (GPa) = 113.96248 77.08294 46.38422
#
# Poissons Ratio (x) = 0.24913 0.12641
# Poissons Ratio (y) = 0.36832 0.31125
# Poissons Ratio (z) = 0.31057 0.51725
#
# Static dielectric constant tensor:
#      x y z
#    x 1.631980 0.000000 0.000000 
#    y 0.000000 1.669230 0.000000 
#    z 0.000000 0.000000 1.684640 
# 
# From -- ./inp_files/12543.got.cif
#   From: 2010.05.17/outbox.cif.g08.bks.cpg/sg68_7_cif.got.tgz:12543.got - 2010.06.03 18:57:09.
