data_PCOD9506959
_publ_section_title
;
Structure prediction by ZEFSAII (Michael W. Deem and Ramdas Pophale) SiO2 
 PCOD9506959
Probable space group: C C C A
;
_chemical_formula_sum "Si O2"
_cell_formula_units_Z 64
_cell_length_a 18.006179
_cell_length_b 9.300992
_cell_length_c 16.374203
_cell_angle_alpha 90.000000
_cell_angle_beta 90.000000
_cell_angle_gamma 90.000000
_cell_volume 2742.274999
_symmetry_space_group_name_H-M "C C C A"
_symmetry_group_IT_number 68
_space_group.IT_coordinate_system_code '2'
_symmetry_cell_setting 'orthorhombic'
loop_
_space_group_symop_operation_xyz
x,y,z
-x,1/2-y,z
x,1/2-y,1/2-z
-x,y,1/2-z
-x,-y,-z
x,1/2+y,-z
-x,1/2+y,1/2+z
x,-y,1/2+z
1/2+x,1/2+y,z
1/2-x,-y,z
1/2+x,-y,1/2-z
1/2-x,1/2+y,1/2-z
1/2-x,1/2-y,-z
1/2+x,y,-z
1/2-x,y,1/2+z
1/2+x,1/2-y,1/2+z
loop_
_atom_site_type_symbol
_atom_site_label
_atom_site_fract_x
_atom_site_fract_y
_atom_site_fract_z
Si Si1 0.067399 0.327273 0.662805
Si Si2 0.221048 0.134236 0.903389
Si Si3 0.817278 0.407691 0.085624
Si Si4 0.487859 0.077648 0.588191
O O1 0.068587 0.250000 0.750000
O O2 0.148074 0.293489 0.630069
O O3 0.000000 0.250000 0.615742
O O4 0.043328 0.493880 0.650922
O O5 0.288747 0.243813 0.909908
O O6 0.250000 0.000000 0.851928
O O7 0.187896 0.068191 0.987780
O O8 0.750000 0.500000 0.123438
O O9 0.900659 0.438965 0.112747
O O10 0.500000 0.250000 0.584446
O O11 0.500000 0.000000 0.500000
#
# Coordination Sequence:
#
# PCOD9506959 Si02
#       4
#    16  16  16  16
#     4  11  24  44  66  93 139 191 231 279 352 428
#     4  10  20  37  62  96 133 175 222 287 350 414
#     4  10  21  34  63 101 140 167 219 294 356 407
#     4  12  24  40  70 108 141 179 233 301 359 411
#
# _framework density 23.338286
#
# number of rings (size 3 to 8) (size 9 to 14) (size 15 to 20)
#    0.000    1.250    2.500    3.750    7.000    0.000 
#    0.000    8.750    0.000    0.000    0.000    0.000 
#    0.000    0.000    0.000    0.000    0.000    0.000 
#
# Total GULP energy -178297.724319 kJ/mol
# GULP energy per Si atom -5571.803885 kJ/mol
# Density = 2.328517 g / cm^3
# Si number density = 23.338286 Si / 1000 Ang^3
#
#
#
# Elastic Constant Matrix: (Units=GPa)
#
#
# Indices 1 2 3 4 5 6 
#
# 1 143.1193 7.8048 6.7124 0.0000 0.0000 0.0000
# 2 7.8048 127.8014 12.3211 0.0000 0.0000 0.0000
# 3 6.7124 12.3211 49.7359 0.0000 0.0000 0.0000
# 4 0.0000 0.0000 0.0000 15.3422 0.0000 0.0000
# 5 0.0000 0.0000 0.0000 0.0000 27.5238 0.0000
# 6 0.0000 0.0000 0.0000 0.0000 0.0000 19.0612
#
#
#
# Elastic Compliance Matrix: (Units=1/GPa)
#
#
# Indices 1 2 3 4 5 6 
#
# 1 0.007047 -0.000347 -0.000865 0.000000 0.000000 0.000000
# 2 -0.000347 0.008033 -0.001943 0.000000 0.000000 0.000000
# 3 -0.000865 -0.001943 0.020704 0.000000 0.000000 0.000000
# 4 0.000000 0.000000 0.000000 0.065180 0.000000 0.000000
# 5 0.000000 0.000000 0.000000 0.000000 0.036332 0.000000
# 6 0.000000 0.000000 0.000000 0.000000 0.000000 0.052463
#
#
# Mechanical properties :
#
#
# Convention : Reuss Voigt Hill
#
# Bulk Modulus (GPa) = 33.92856 41.59257 37.76057
# Shear Modulus (GPa) = 24.28437 31.97333 28.12885
#
# Velocity S-wave (km/s) = 3.22924 3.70536 3.47546
# Velocity P-wave (km/s) = 5.33603 6.01386 5.68506
#
# Compressibility (1/GPa) = 0.02947369
#
# Stress axis : x y z
#
# Youngs Moduli (GPa) = 141.91099 124.48383 48.29900
#
# Poissons Ratio (x) = 0.04319 0.04178
# Poissons Ratio (y) = 0.04923 0.09386
# Poissons Ratio (z) = 0.12276 0.24190
#
# Static dielectric constant tensor:
#      x y z
#    x 2.009940 0.000000 0.000000 
#    y 0.000000 2.047530 0.000000 
#    z 0.000000 0.000000 2.084370 
# 
# From -- ./inp_files/32517.got.cif
#   From: 2010.05.17/outbox.cif.g08.bks.cpg/sg68_17_cif.got.tgz:32517.got - 2010.06.03 18:57:09.
