data_PCOD9506841
_publ_section_title
;
Structure prediction by ZEFSAII (Michael W. Deem and Ramdas Pophale) SiO2 
 PCOD9506841
Probable space group: C C C A
;
_chemical_formula_sum "Si O2"
_cell_formula_units_Z 104
_cell_length_a 17.288376
_cell_length_b 15.845195
_cell_length_c 17.428371
_cell_angle_alpha 90.000000
_cell_angle_beta 90.000000
_cell_angle_gamma 90.000000
_cell_volume 4774.287674
_symmetry_space_group_name_H-M "C C C A"
_symmetry_group_IT_number 68
_space_group.IT_coordinate_system_code '2'
_symmetry_cell_setting 'orthorhombic'
loop_
_space_group_symop_operation_xyz
x,y,z
-x,1/2-y,z
x,1/2-y,1/2-z
-x,y,1/2-z
-x,-y,-z
x,1/2+y,-z
-x,1/2+y,1/2+z
x,-y,1/2+z
1/2+x,1/2+y,z
1/2-x,-y,z
1/2+x,-y,1/2-z
1/2-x,1/2+y,1/2-z
1/2-x,1/2-y,-z
1/2+x,y,-z
1/2-x,y,1/2+z
1/2+x,1/2-y,1/2+z
loop_
_atom_site_type_symbol
_atom_site_label
_atom_site_fract_x
_atom_site_fract_y
_atom_site_fract_z
Si Si1 0.890383 0.427922 0.511624
Si Si2 0.000000 0.113094 0.750000
Si Si3 0.500000 0.250000 0.365235
Si Si4 0.750000 0.500000 0.103097
Si Si5 0.956129 0.674231 0.668417
Si Si6 0.150629 0.236819 0.954579
Si Si7 0.791828 0.317747 0.115799
Si Si8 0.979085 0.999909 0.116446
O O1 0.824370 0.481156 0.552011
O O2 0.866288 0.330642 0.512268
O O3 0.906360 0.464081 0.428184
O O4 0.968745 0.442093 0.560568
O O5 0.037781 0.178424 0.689960
O O6 0.956189 0.049688 0.693260
O O7 0.429367 0.212311 0.413964
O O8 0.762935 0.409821 0.143096
O O9 0.866773 0.700616 0.666883
O O10 0.000000 0.750000 0.624192
O O11 0.000000 0.668119 0.750000
O O12 0.968122 0.582061 0.633357
O O13 0.220722 0.252337 0.893993
O O14 0.176482 0.180461 0.026830
#
# Coordination Sequence:
#
# PCOD9506841 Si02
#       8
#    16   8   8   8  16  16  16  16
#     4  10  21  36  63  93 117 164 214 270 326 381
#     4  11  24  40  57  90 132 164 217 256 328 397
#     4  11  24  40  66  96 123 180 220 265 328 412
#     4  10  20  36  62  90 126 160 204 268 344 384
#     4  11  23  39  64  91 128 172 217 264 330 407
#     4  10  22  39  65  97 128 164 226 284 336 394
#     4  10  22  39  62  97 131 167 214 285 342 395
#     4  11  21  38  61  91 126 164 213 270 314 400
#
# _framework density 21.783355
#
# number of rings (size 3 to 8) (size 9 to 14) (size 15 to 20)
#    0.000    1.538    3.846    0.923    5.385    0.000 
#    0.000    3.077    3.385    0.923    0.000    0.000 
#    0.000    0.000    0.000    0.000    0.000    0.000 
#
# Total GULP energy -289851.322087 kJ/mol
# GULP energy per Si atom -5574.063886 kJ/mol
# Density = 2.173377 g / cm^3
# Si number density = 21.783355 Si / 1000 Ang^3
#
#
#
# Elastic Constant Matrix: (Units=GPa)
#
#
# Indices 1 2 3 4 5 6 
#
# 1 120.6672 5.8308 23.0223 0.0000 0.0000 0.0000
# 2 5.8308 90.8225 7.6376 0.0000 0.0000 0.0000
# 3 23.0223 7.6376 51.9399 0.0000 0.0000 0.0000
# 4 0.0000 0.0000 0.0000 12.8742 0.0000 0.0000
# 5 0.0000 0.0000 0.0000 0.0000 20.6094 0.0000
# 6 0.0000 0.0000 0.0000 0.0000 0.0000 21.4319
#
#
#
# Elastic Compliance Matrix: (Units=1/GPa)
#
#
# Indices 1 2 3 4 5 6 
#
# 1 0.009058 -0.000247 -0.003979 0.000000 0.000000 0.000000
# 2 -0.000247 0.011155 -0.001531 0.000000 0.000000 0.000000
# 3 -0.003979 -0.001531 0.021242 0.000000 0.000000 0.000000
# 4 0.000000 0.000000 0.000000 0.077674 0.000000 0.000000
# 5 0.000000 0.000000 0.000000 0.000000 0.048521 0.000000
# 6 0.000000 0.000000 0.000000 0.000000 0.000000 0.046659
#
#
# Mechanical properties :
#
#
# Convention : Reuss Voigt Hill
#
# Bulk Modulus (GPa) = 33.39800 37.37902 35.38851
# Shear Modulus (GPa) = 21.20403 26.11237 23.65820
#
# Velocity S-wave (km/s) = 3.12333 3.46602 3.29913
# Velocity P-wave (km/s) = 5.32655 5.76320 5.54917
#
# Compressibility (1/GPa) = 0.02994191
#
# Stress axis : x y z
#
# Youngs Moduli (GPa) = 110.39592 89.64525 47.07721
#
# Poissons Ratio (x) = 0.02214 0.18731
# Poissons Ratio (y) = 0.02726 0.07207
# Poissons Ratio (z) = 0.43924 0.13723
#
# Static dielectric constant tensor:
#      x y z
#    x 1.818350 0.000000 0.000000 
#    y 0.000000 1.891110 0.000000 
#    z 0.000000 0.000000 1.831920 
# 
# From -- ./inp_files/32128.got.cif
#   From: 2010.05.17/outbox.cif.g08.bks.cpg/sg68_17_cif.got.tgz:32128.got - 2010.06.03 18:57:09.
