data_PCOD9506784
_publ_section_title
;
Structure prediction by ZEFSAII (Michael W. Deem and Ramdas Pophale) SiO2 
 PCOD9506784
Probable space group: C C C A
;
_chemical_formula_sum "Si O2"
_cell_formula_units_Z 80
_cell_length_a 8.548043
_cell_length_b 28.397020
_cell_length_c 15.080162
_cell_angle_alpha 90.000000
_cell_angle_beta 90.000000
_cell_angle_gamma 90.000000
_cell_volume 3660.542660
_symmetry_space_group_name_H-M "C C C A"
_symmetry_group_IT_number 68
_space_group.IT_coordinate_system_code '2'
_symmetry_cell_setting 'orthorhombic'
loop_
_space_group_symop_operation_xyz
x,y,z
-x,1/2-y,z
x,1/2-y,1/2-z
-x,y,1/2-z
-x,-y,-z
x,1/2+y,-z
-x,1/2+y,1/2+z
x,-y,1/2+z
1/2+x,1/2+y,z
1/2-x,-y,z
1/2+x,-y,1/2-z
1/2-x,1/2+y,1/2-z
1/2-x,1/2-y,-z
1/2+x,y,-z
1/2-x,y,1/2+z
1/2+x,1/2-y,1/2+z
loop_
_atom_site_type_symbol
_atom_site_label
_atom_site_fract_x
_atom_site_fract_y
_atom_site_fract_z
Si Si1 0.641327 0.905834 0.979818
Si Si2 0.500000 0.750000 0.046709
Si Si3 0.160498 0.403572 0.634577
Si Si4 0.000000 0.824424 0.250000
Si Si5 0.790069 0.194273 0.905602
Si Si6 0.750000 0.500000 0.614091
Si Si7 0.000000 0.017709 0.750000
O O1 0.462594 0.905212 0.947167
O O2 0.715139 0.861081 0.928483
O O3 0.709008 0.954968 0.944316
O O4 0.675178 0.902102 0.084382
O O5 0.379577 0.782644 0.099127
O O6 0.390512 0.717537 0.984821
O O7 0.113364 0.358117 0.691536
O O8 0.120019 0.447885 0.696850
O O9 0.110102 0.797562 0.182437
O O10 0.601328 0.490608 0.677735
#
# Coordination Sequence:
#
# PCOD9506784 Si02
#       7
#    16   8  16   8  16   8   8
#     4  10  20  36  58  85 116 152 198 234 285 355
#     4  10  22  39  68  93 116 158 206 244 298 366
#     4   9  19  35  57  83 114 157 197 237 287 349
#     4   9  18  35  62  87 120 156 190 245 310 346
#     4  10  20  39  64  91 121 158 199 249 300 355
#     4  10  22  36  56  86 116 154 194 236 290 350
#     4   9  20  36  52  81 118 150 194 239 286 339
#
# _framework density 21.854682
#
# number of rings (size 3 to 8) (size 9 to 14) (size 15 to 20)
#    0.000    2.400    0.000    3.600    0.000    6.000 
#    0.000    0.000    0.000   43.200    0.000    0.000 
#    0.000    0.000    0.000    0.000    0.000    0.000 
#
# Total GULP energy -223521.771012 kJ/mol
# GULP energy per Si atom -5588.044275 kJ/mol
# Density = 2.180494 g / cm^3
# Si number density = 21.854682 Si / 1000 Ang^3
#
#
#
# Elastic Constant Matrix: (Units=GPa)
#
#
# Indices 1 2 3 4 5 6 
#
# 1 52.7447 31.1666 19.4558 0.0000 0.0000 0.0000
# 2 31.1666 77.1075 3.8494 0.0000 0.0000 0.0000
# 3 19.4558 3.8494 78.7372 0.0000 0.0000 0.0000
# 4 0.0000 0.0000 0.0000 -1.0322 0.0000 0.0000
# 5 0.0000 0.0000 0.0000 0.0000 44.7034 0.0000
# 6 0.0000 0.0000 0.0000 0.0000 0.0000 5.5212
#
#
#
# Elastic Compliance Matrix: (Units=1/GPa)
#
#
# Indices 1 2 3 4 5 6 
#
# 1 0.027725 -0.010891 -0.006318 0.000000 0.000000 0.000000
# 2 -0.010891 0.017279 0.001846 0.000000 0.000000 0.000000
# 3 -0.006318 0.001846 0.014171 0.000000 0.000000 0.000000
# 4 0.000000 0.000000 0.000000 -0.968776 0.000000 0.000000
# 5 0.000000 0.000000 0.000000 0.000000 0.022370 0.000000
# 6 0.000000 0.000000 0.000000 0.000000 0.000000 0.181121
#
#
# Mechanical properties :
#
#
# Convention : Reuss Voigt Hill
#
# Bulk Modulus (GPa) = 35.14994 35.28144 35.21569
# Shear Modulus (GPa) = -7.50863 20.11298 6.30217
#
# Velocity S-wave (km/s) = -1.85558 3.03694 1.69998
# Velocity P-wave (km/s) = 3.39522 5.33630 4.47234
#
# Compressibility (1/GPa) = 0.02844955
#
# Stress axis : x y z
#
# Youngs Moduli (GPa) = 36.06800 57.87418 70.56424
#
# Poissons Ratio (x) = 0.63031 0.44586
# Poissons Ratio (y) = 0.39282 -0.13029
# Poissons Ratio (z) = 0.22789 -0.10686
#
# Static dielectric constant tensor:
#      x y z
#    x 1.837210 0.000000 0.000000 
#    y 0.000000 1.817680 0.000000 
#    z 0.000000 0.000000 1.787210 
# 
# From -- ./inp_files/28499.got.cif
#   From: 2010.05.17/outbox.cif.g08.bks.cpg/sg68_15_cif.got.tgz:28499.got - 2010.06.03 18:57:09.
