data_PCOD9506532
_publ_section_title
;
Structure prediction by ZEFSAII (Michael W. Deem and Ramdas Pophale) SiO2 
 PCOD9506532
Probable space group: C C C A
;
_chemical_formula_sum "Si O2"
_cell_formula_units_Z 80
_cell_length_a 16.957546
_cell_length_b 12.776636
_cell_length_c 18.310221
_cell_angle_alpha 90.000000
_cell_angle_beta 90.000000
_cell_angle_gamma 90.000000
_cell_volume 3967.099672
_symmetry_space_group_name_H-M "C C C A"
_symmetry_group_IT_number 68
_space_group.IT_coordinate_system_code '2'
_symmetry_cell_setting 'orthorhombic'
loop_
_space_group_symop_operation_xyz
x,y,z
-x,1/2-y,z
x,1/2-y,1/2-z
-x,y,1/2-z
-x,-y,-z
x,1/2+y,-z
-x,1/2+y,1/2+z
x,-y,1/2+z
1/2+x,1/2+y,z
1/2-x,-y,z
1/2+x,-y,1/2-z
1/2-x,1/2+y,1/2-z
1/2-x,1/2-y,-z
1/2+x,y,-z
1/2-x,y,1/2+z
1/2+x,1/2-y,1/2+z
loop_
_atom_site_type_symbol
_atom_site_label
_atom_site_fract_x
_atom_site_fract_y
_atom_site_fract_z
Si Si1 0.146798 0.430766 0.123804
Si Si2 0.846742 0.371272 0.972891
Si Si3 0.654496 0.863999 0.280782
Si Si4 0.027789 0.630501 0.904613
Si Si5 0.749786 0.720234 0.600271
O O1 0.171232 0.530452 0.077308
O O2 0.160386 0.437539 0.210823
O O3 0.190029 0.321119 0.102554
O O4 0.053614 0.427879 0.107662
O O5 0.833920 0.268590 0.921930
O O6 0.927812 0.380878 0.017883
O O7 0.781476 0.353719 0.036107
O O8 0.627669 0.750000 0.250000
O O9 0.590795 0.896358 0.341370
O O10 0.735614 0.839483 0.324035
O O11 0.000000 0.750000 0.897184
#
# Coordination Sequence:
#
# PCOD9506532 Si02
#       5
#    16  16  16  16  16
#     4  11  19  31  58  89 114 151 202 247 291 354
#     4  10  20  33  52  85 119 154 187 242 297 354
#     4   9  17  30  56  84 111 149 198 242 294 345
#     4  11  18  32  54  88 120 155 192 241 298 355
#     4   9  19  35  54  79 118 152 191 237 304 351
#
# _framework density 20.165866000000001
#
# number of rings (size 3 to 8) (size 9 to 14) (size 15 to 20)
#    0.000    2.000    6.000    1.800    0.000    0.000 
#    0.000    0.000    0.000   74.400   20.800    0.000 
#    0.000    0.000    0.000    0.000    0.000    0.000 
#
# Total GULP energy -222932.209075 kJ/mol
# GULP energy per Si atom -5573.305227 kJ/mol
# Density = 2.011997 g / cm^3
# Si number density = 20.165866 Si / 1000 Ang^3
#
#
#
# Elastic Constant Matrix: (Units=GPa)
#
#
# Indices 1 2 3 4 5 6 
#
# 1 66.8058 8.3581 60.5124 0.0000 0.0000 0.0000
# 2 8.3581 61.2241 62.4834 0.0000 0.0000 0.0000
# 3 60.5124 62.4834 160.4081 0.0000 0.0000 0.0000
# 4 0.0000 0.0000 0.0000 28.6050 0.0000 0.0000
# 5 0.0000 0.0000 0.0000 0.0000 17.1547 0.0000
# 6 0.0000 0.0000 0.0000 0.0000 0.0000 12.5810
#
#
#
# Elastic Compliance Matrix: (Units=1/GPa)
#
#
# Indices 1 2 3 4 5 6 
#
# 1 0.026523 0.010939 -0.014267 0.000000 0.000000 0.000000
# 2 0.010939 0.031623 -0.016445 0.000000 0.000000 0.000000
# 3 -0.014267 -0.016445 0.018022 0.000000 0.000000 0.000000
# 4 0.000000 0.000000 0.000000 0.034959 0.000000 0.000000
# 5 0.000000 0.000000 0.000000 0.000000 0.058293 0.000000
# 6 0.000000 0.000000 0.000000 0.000000 0.000000 0.079485
#
#
# Mechanical properties :
#
#
# Convention : Reuss Voigt Hill
#
# Bulk Modulus (GPa) = 27.30499 61.23842 44.27171
# Shear Modulus (GPa) = 16.63026 22.14042 19.38534
#
# Velocity S-wave (km/s) = 2.87483 3.31708 3.10384
# Velocity P-wave (km/s) = 4.95874 6.71595 5.90310
#
# Compressibility (1/GPa) = 0.03662334
#
# Stress axis : x y z
#
# Youngs Moduli (GPa) = 37.70344 31.62244 55.48852
#
# Poissons Ratio (x) = -0.34593 0.79163
# Poissons Ratio (y) = -0.41245 0.91250
# Poissons Ratio (z) = 0.53790 0.52002
#
# Static dielectric constant tensor:
#      x y z
#    x 1.789270 0.000000 0.000000 
#    y 0.000000 1.804140 0.000000 
#    z 0.000000 0.000000 1.757660 
# 
# From -- ./inp_files/32887.got.cif
#   From: 2010.05.17/outbox.cif.g08.bks.cpg/sg68_17_cif.got.tgz:32887.got - 2010.06.03 18:57:09.
