data_PCOD9506105
_publ_section_title
;
Structure prediction by ZEFSAII (Michael W. Deem and Ramdas Pophale) SiO2 
 PCOD9506105
Probable space group: C C C A
;
_chemical_formula_sum "Si O2"
_cell_formula_units_Z 92
_cell_length_a 7.822922
_cell_length_b 21.050826
_cell_length_c 26.517594
_cell_angle_alpha 90.000000
_cell_angle_beta 90.000000
_cell_angle_gamma 90.000000
_cell_volume 4366.890062
_symmetry_space_group_name_H-M "C C C A"
_symmetry_group_IT_number 68
_space_group.IT_coordinate_system_code '2'
_symmetry_cell_setting 'orthorhombic'
loop_
_space_group_symop_operation_xyz
x,y,z
-x,1/2-y,z
x,1/2-y,1/2-z
-x,y,1/2-z
-x,-y,-z
x,1/2+y,-z
-x,1/2+y,1/2+z
x,-y,1/2+z
1/2+x,1/2+y,z
1/2-x,-y,z
1/2+x,-y,1/2-z
1/2-x,1/2+y,1/2-z
1/2-x,1/2-y,-z
1/2+x,y,-z
1/2-x,y,1/2+z
1/2+x,1/2-y,1/2+z
loop_
_atom_site_type_symbol
_atom_site_label
_atom_site_fract_x
_atom_site_fract_y
_atom_site_fract_z
Si Si1 0.469998 0.135328 0.550087
Si Si2 0.500000 0.250000 0.883423
Si Si3 0.000000 0.250000 0.750000
Si Si4 0.059511 0.635607 0.436723
Si Si5 0.394608 0.046530 0.201445
Si Si6 0.458132 0.998620 0.097525
Si Si7 0.675222 0.320088 0.160494
O O1 0.559139 0.190841 0.582079
O O2 0.266397 0.136170 0.559746
O O3 0.495152 0.152700 0.491794
O O4 0.523569 0.064911 0.569719
O O5 0.656180 0.219309 0.853075
O O6 0.892252 0.207963 0.787965
O O7 0.987440 0.564633 0.427998
O O8 0.038876 0.677591 0.386119
O O9 0.500000 0.067722 0.250000
O O10 0.304055 0.105082 0.172531
O O11 0.250000 0.000000 0.221211
O O12 0.495064 0.008226 0.157145
O O13 0.250000 0.000000 0.093612
#
# Coordination Sequence:
#
# PCOD9506105 Si02
#       7
#    16   8   4  16  16  16  16
#     4  10  19  34  55  86 119 158 198 247 299 364
#     4  10  22  38  58  84 120 156 210 242 304 386
#     4  12  24  44  64  80 124 156 208 262 314 358
#     4   9  19  34  58  82 117 155 200 250 303 355
#     4  10  19  39  62  87 119 154 203 259 313 358
#     4   8  16  33  55  80 117 156 193 246 305 359
#     4  10  23  42  59  86 120 165 204 255 309 366
#
# _framework density 21.067623000000001
#
# number of rings (size 3 to 8) (size 9 to 14) (size 15 to 20)
#    0.000    2.435    0.870    3.652    0.000    5.217 
#    6.261    3.478    0.000    0.000    0.000    0.000 
#    0.000    0.000    0.000    0.000    0.000    0.000 
#
# Total GULP energy -256252.444951 kJ/mol
# GULP energy per Si atom -5570.705325 kJ/mol
# Density = 2.101967 g / cm^3
# Si number density = 21.067623 Si / 1000 Ang^3
#
#
#
# Elastic Constant Matrix: (Units=GPa)
#
#
# Indices 1 2 3 4 5 6 
#
# 1 22.2855 26.6917 30.4519 0.0000 0.0000 0.0000
# 2 26.6917 131.1961 55.3429 0.0000 0.0000 0.0000
# 3 30.4519 55.3429 161.7645 0.0000 0.0000 0.0000
# 4 0.0000 0.0000 0.0000 24.1549 0.0000 0.0000
# 5 0.0000 0.0000 0.0000 0.0000 32.6350 0.0000
# 6 0.0000 0.0000 0.0000 0.0000 0.0000 21.8587
#
#
#
# Elastic Compliance Matrix: (Units=1/GPa)
#
#
# Indices 1 2 3 4 5 6 
#
# 1 0.070452 -0.010213 -0.009769 0.000000 0.000000 0.000000
# 2 -0.010213 0.010388 -0.001631 0.000000 0.000000 0.000000
# 3 -0.009769 -0.001631 0.008579 0.000000 0.000000 0.000000
# 4 0.000000 0.000000 0.000000 0.041400 0.000000 0.000000
# 5 0.000000 0.000000 0.000000 0.000000 0.030642 0.000000
# 6 0.000000 0.000000 0.000000 0.000000 0.000000 0.045748
#
#
# Mechanical properties :
#
#
# Convention : Reuss Voigt Hill
#
# Bulk Modulus (GPa) = 21.64794 60.02435 40.83615
# Shear Modulus (GPa) = 18.80884 29.24703 24.02793
#
# Velocity S-wave (km/s) = 2.99119 3.72996 3.38081
# Velocity P-wave (km/s) = 4.71459 6.86318 5.88773
#
# Compressibility (1/GPa) = 0.04619377
#
# Stress axis : x y z
#
# Youngs Moduli (GPa) = 14.19403 96.26344 116.56526
#
# Poissons Ratio (x) = 0.98311 1.13867
# Poissons Ratio (y) = 0.14496 0.19017
# Poissons Ratio (z) = 0.13865 0.15705
#
# Static dielectric constant tensor:
#      x y z
#    x 1.755260 0.000000 0.000000 
#    y 0.000000 0.906490 0.000000 
#    z 0.000000 0.000000 1.795460 
# 
# From -- ./inp_files/49362.got.cif
#   From: 2010.05.17/outbox.cif.g08.bks.cpg/sg68_25_cif.got.tgz:49362.got - 2010.06.03 18:57:09.
