data_PCOD9506446
_publ_section_title
;
Structure prediction by ZEFSAII (Michael W. Deem and Ramdas Pophale) SiO2 
 PCOD9506446
Probable space group: C C C A
;
_chemical_formula_sum "Si O2"
_cell_formula_units_Z 64
_cell_length_a 16.892819
_cell_length_b 13.972413
_cell_length_c 13.354646
_cell_angle_alpha 90.000000
_cell_angle_beta 90.000000
_cell_angle_gamma 90.000000
_cell_volume 3152.143086
_symmetry_space_group_name_H-M "C C C A"
_symmetry_group_IT_number 68
_space_group.IT_coordinate_system_code '2'
_symmetry_cell_setting 'orthorhombic'
loop_
_space_group_symop_operation_xyz
x,y,z
-x,1/2-y,z
x,1/2-y,1/2-z
-x,y,1/2-z
-x,-y,-z
x,1/2+y,-z
-x,1/2+y,1/2+z
x,-y,1/2+z
1/2+x,1/2+y,z
1/2-x,-y,z
1/2+x,-y,1/2-z
1/2-x,1/2+y,1/2-z
1/2-x,1/2-y,-z
1/2+x,y,-z
1/2-x,y,1/2+z
1/2+x,1/2-y,1/2+z
loop_
_atom_site_type_symbol
_atom_site_label
_atom_site_fract_x
_atom_site_fract_y
_atom_site_fract_z
Si Si1 0.884089 0.408685 0.690256
Si Si2 0.887336 0.953574 0.080889
Si Si3 0.750000 0.000000 0.934312
Si Si4 0.500000 0.250000 0.750000
Si Si5 0.979473 0.409925 0.101855
Si Si6 0.000000 0.250000 0.750000
O O1 0.870347 0.416566 0.809215
O O2 0.801082 0.425056 0.632513
O O3 0.936237 0.498441 0.651476
O O4 0.940751 0.316186 0.684162
O O5 0.812030 0.952865 0.009745
O O6 0.950167 0.897898 0.011217
O O7 0.928500 0.058438 0.095900
O O8 0.541590 0.177807 0.826946
#
# Coordination Sequence:
#
# PCOD9506446 Si02
#       6
#    16  16   8   4  16   4
#     4  11  21  44  65  95 135 181 224 298 343 426
#     4  10  19  41  60  92 128 178 221 279 351 423
#     4  10  24  38  68  90 134 186 220 280 376 408
#     4  12  18  38  62 106 126 168 226 312 328 402
#     4  10  21  36  67  96 130 172 235 288 351 405
#     4  12  22  38  74  98 124 180 246 270 352 418
#
# _framework density 20.303647000000002
#
# number of rings (size 3 to 8) (size 9 to 14) (size 15 to 20)
#    0.000    1.500    5.000    0.750    0.000    1.000 
#    0.000    6.250    0.000    0.000    0.000    0.000 
#    0.000    0.000    0.000    0.000    0.000    0.000 
#
# Total GULP energy -178163.608797 kJ/mol
# GULP energy per Si atom -5567.612775 kJ/mol
# Density = 2.025743 g / cm^3
# Si number density = 20.303647 Si / 1000 Ang^3
#
#
#
# Elastic Constant Matrix: (Units=GPa)
#
#
# Indices 1 2 3 4 5 6 
#
# 1 120.0936 40.1236 56.5389 0.0000 0.0000 0.0000
# 2 40.1236 97.6856 39.7965 0.0000 0.0000 0.0000
# 3 56.5389 39.7965 186.5559 0.0000 0.0000 0.0000
# 4 0.0000 0.0000 0.0000 30.2011 0.0000 0.0000
# 5 0.0000 0.0000 0.0000 0.0000 41.3700 0.0000
# 6 0.0000 0.0000 0.0000 0.0000 0.0000 16.1515
#
#
#
# Elastic Compliance Matrix: (Units=1/GPa)
#
#
# Indices 1 2 3 4 5 6 
#
# 1 0.010624 -0.003342 -0.002507 0.000000 0.000000 0.000000
# 2 -0.003342 0.012263 -0.001603 0.000000 0.000000 0.000000
# 3 -0.002507 -0.001603 0.006462 0.000000 0.000000 0.000000
# 4 0.000000 0.000000 0.000000 0.033111 0.000000 0.000000
# 5 0.000000 0.000000 0.000000 0.000000 0.024172 0.000000
# 6 0.000000 0.000000 0.000000 0.000000 0.000000 0.061914
#
#
# Mechanical properties :
#
#
# Convention : Reuss Voigt Hill
#
# Bulk Modulus (GPa) = 69.23101 75.25035 72.24068
# Shear Modulus (GPa) = 29.71514 35.40294 32.55904
#
# Velocity S-wave (km/s) = 3.82977 4.18026 4.00885
# Velocity P-wave (km/s) = 7.32994 7.77447 7.55548
#
# Compressibility (1/GPa) = 0.01444439
#
# Stress axis : x y z
#
# Youngs Moduli (GPa) = 94.12957 81.54731 154.75178
#
# Poissons Ratio (x) = 0.27256 0.38791
# Poissons Ratio (y) = 0.31462 0.24806
# Poissons Ratio (z) = 0.23595 0.13072
#
# Static dielectric constant tensor:
#      x y z
#    x 1.846020 0.000000 0.000000 
#    y 0.000000 1.756140 0.000000 
#    z 0.000000 0.000000 1.748330 
# 
# From -- ./inp_files/21975.got.cif
#   From: 2010.05.17/outbox.cif.g08.bks.cpg/sg68_11_cif.got.tgz:21975.got - 2010.06.03 18:57:09.
