data_PCOD9506779
_publ_section_title
;
Structure prediction by ZEFSAII (Michael W. Deem and Ramdas Pophale) SiO2 
 PCOD9506779
Probable space group: C C C A
;
_chemical_formula_sum "Si O2"
_cell_formula_units_Z 64
_cell_length_a 17.189961
_cell_length_b 29.392479
_cell_length_c 5.420580
_cell_angle_alpha 90.000000
_cell_angle_beta 90.000000
_cell_angle_gamma 90.000000
_cell_volume 2738.778225
_symmetry_space_group_name_H-M "C C C A"
_symmetry_group_IT_number 68
_space_group.IT_coordinate_system_code '2'
_symmetry_cell_setting 'orthorhombic'
loop_
_space_group_symop_operation_xyz
x,y,z
-x,1/2-y,z
x,1/2-y,1/2-z
-x,y,1/2-z
-x,-y,-z
x,1/2+y,-z
-x,1/2+y,1/2+z
x,-y,1/2+z
1/2+x,1/2+y,z
1/2-x,-y,z
1/2+x,-y,1/2-z
1/2-x,1/2+y,1/2-z
1/2-x,1/2-y,-z
1/2+x,y,-z
1/2-x,y,1/2+z
1/2+x,1/2-y,1/2+z
loop_
_atom_site_type_symbol
_atom_site_label
_atom_site_fract_x
_atom_site_fract_y
_atom_site_fract_z
Si Si1 0.210084 0.563784 0.385372
Si Si2 0.708117 0.326566 0.143777
Si Si3 0.938607 0.213849 0.079645
Si Si4 0.032296 0.051617 0.501837
O O1 0.268375 0.549230 0.606358
O O2 0.211109 0.618634 0.368652
O O3 0.124662 0.549989 0.474462
O O4 0.740713 0.311284 0.407640
O O5 0.619583 0.311719 0.094260
O O6 0.890508 0.250000 0.250000
O O7 0.000000 0.250000 0.977508
O O8 0.000000 0.185097 0.250000
O O9 0.000000 0.072750 0.250000
O O10 0.000000 0.000000 0.500000
O O11 0.000000 0.074544 0.750000
#
# Coordination Sequence:
#
# PCOD9506779 Si02
#       4
#    16  16  16  16
#     4  10  21  38  60  86 119 151 195 243 293 344
#     4  10  20  36  58  83 110 149 190 234 284 338
#     4   6  16  35  52  80 114 143 190 228 285 333
#     4  10  21  39  59  87 119 152 197 234 293 354
#
# _framework density 23.368086000000002
#
# number of rings (size 3 to 8) (size 9 to 14) (size 15 to 20)
#    1.500    1.500    0.000    1.500    0.000    2.000 
#    0.000   17.500    0.000    0.000    0.000    0.000 
#    0.000    0.000    0.000    0.000    0.000    0.000 
#
# Total GULP energy -178189.652587 kJ/mol
# GULP energy per Si atom -5568.426643 kJ/mol
# Density = 2.331490 g / cm^3
# Si number density = 23.368086 Si / 1000 Ang^3
#
#
#
# Elastic Constant Matrix: (Units=GPa)
#
#
# Indices 1 2 3 4 5 6 
#
# 1 99.6984 3.4195 27.1065 0.0000 0.0000 0.0000
# 2 3.4195 41.0659 18.7041 0.0000 0.0000 0.0000
# 3 27.1065 18.7041 144.9469 0.0000 0.0000 0.0000
# 4 0.0000 0.0000 0.0000 104.1150 0.0000 0.0000
# 5 0.0000 0.0000 0.0000 0.0000 86.8005 0.0000
# 6 0.0000 0.0000 0.0000 0.0000 0.0000 6.9391
#
#
#
# Elastic Compliance Matrix: (Units=1/GPa)
#
#
# Indices 1 2 3 4 5 6 
#
# 1 0.010568 0.000021 -0.001979 0.000000 0.000000 0.000000
# 2 0.000021 0.025872 -0.003343 0.000000 0.000000 0.000000
# 3 -0.001979 -0.003343 0.007700 0.000000 0.000000 0.000000
# 4 0.000000 0.000000 0.000000 0.009605 0.000000 0.000000
# 5 0.000000 0.000000 0.000000 0.000000 0.011521 0.000000
# 6 0.000000 0.000000 0.000000 0.000000 0.000000 0.144111
#
#
# Mechanical properties :
#
#
# Convention : Reuss Voigt Hill
#
# Bulk Modulus (GPa) = 29.81553 42.68573 36.25063
# Shear Modulus (GPa) = 21.63041 55.33634 38.48337
#
# Velocity S-wave (km/s) = 3.04573 4.87152 4.06252
# Velocity P-wave (km/s) = 5.01552 7.06743 6.12797
#
# Compressibility (1/GPa) = 0.03353956
#
# Stress axis : x y z
#
# Youngs Moduli (GPa) = 94.62911 38.65228 129.86183
#
# Poissons Ratio (x) = -0.00083 0.25700
# Poissons Ratio (y) = -0.00203 0.43407
# Poissons Ratio (z) = 0.18727 0.12920
#
# Static dielectric constant tensor:
#      x y z
#    x 1.812860 0.000000 0.000000 
#    y 0.000000 1.946020 0.000000 
#    z 0.000000 0.000000 1.993950 
# 
# From -- ./inp_files/1093.got.cif
#   From: 2010.05.17/outbox.cif.g08.bks.cpg/sg68_1_cif.got.tgz:1093.got - 2010.06.03 18:57:09.
