data_PCOD9506967
_publ_section_title
;
Structure prediction by ZEFSAII (Michael W. Deem and Ramdas Pophale) SiO2 
 PCOD9506967
Probable space group: C C C A
;
_chemical_formula_sum "Si O2"
_cell_formula_units_Z 92
_cell_length_a 23.744106
_cell_length_b 19.624552
_cell_length_c 9.119200
_cell_angle_alpha 90.000000
_cell_angle_beta 90.000000
_cell_angle_gamma 90.000000
_cell_volume 4249.250305
_symmetry_space_group_name_H-M "C C C A"
_symmetry_group_IT_number 68
_space_group.IT_coordinate_system_code '2'
_symmetry_cell_setting 'orthorhombic'
loop_
_space_group_symop_operation_xyz
x,y,z
-x,1/2-y,z
x,1/2-y,1/2-z
-x,y,1/2-z
-x,-y,-z
x,1/2+y,-z
-x,1/2+y,1/2+z
x,-y,1/2+z
1/2+x,1/2+y,z
1/2-x,-y,z
1/2+x,-y,1/2-z
1/2-x,1/2+y,1/2-z
1/2-x,1/2-y,-z
1/2+x,y,-z
1/2-x,y,1/2+z
1/2+x,1/2-y,1/2+z
loop_
_atom_site_type_symbol
_atom_site_label
_atom_site_fract_x
_atom_site_fract_y
_atom_site_fract_z
Si Si1 0.594192 0.157344 0.680642
Si Si2 0.500000 0.105652 0.250000
Si Si3 0.500000 0.250000 0.750000
Si Si4 0.190196 0.332075 0.729643
Si Si5 0.936861 0.529812 0.020026
Si Si6 0.909084 0.120126 0.521484
Si Si7 0.289966 0.684285 0.042798
O O1 0.540347 0.203901 0.651830
O O2 0.582932 0.086125 0.596601
O O3 0.650734 0.193881 0.623682
O O4 0.593936 0.148540 0.856456
O O5 0.447315 0.064371 0.178029
O O6 0.467244 0.137836 0.389517
O O7 0.185094 0.250000 0.750000
O O8 0.140537 0.353483 0.624083
O O9 0.248707 0.352581 0.654803
O O10 0.193368 0.356236 0.896725
O O11 0.901870 0.461131 0.004305
O O12 0.000000 0.500000 0.000000
O O13 0.250000 0.750000 0.000000
#
# Coordination Sequence:
#
# PCOD9506967 Si02
#       7
#    16   8   4  16  16  16  16
#     4  12  26  43  69 108 148 190 246 300 371 443
#     4  10  20  37  63  94 141 195 238 284 368 444
#     4  12  28  38  68 110 150 176 238 304 364 424
#     4  10  22  39  66  97 131 187 242 291 360 420
#     4  10  21  42  68  99 145 197 238 292 380 448
#     4  11  22  40  67 101 142 191 241 303 357 447
#     4  10  23  43  69  96 138 190 241 294 362 433
#
# _framework density 21.650879
#
# number of rings (size 3 to 8) (size 9 to 14) (size 15 to 20)
#    0.000    1.391    0.000    6.261    8.522    0.696 
#    0.000    0.870    0.000    4.174    0.000    0.000 
#    0.000    0.000    0.000    0.000    0.000    0.000 
#
# Total GULP energy -256369.456907 kJ/mol
# GULP energy per Si atom -5573.249063 kJ/mol
# Density = 2.160160 g / cm^3
# Si number density = 21.650879 Si / 1000 Ang^3
#
#
#
# Elastic Constant Matrix: (Units=GPa)
#
#
# Indices 1 2 3 4 5 6 
#
# 1 151.2129 44.9034 75.3320 0.0000 0.0000 0.0000
# 2 44.9034 76.4627 39.8560 0.0000 0.0000 0.0000
# 3 75.3320 39.8560 195.6415 0.0000 0.0000 0.0000
# 4 0.0000 0.0000 0.0000 34.3313 0.0000 0.0000
# 5 0.0000 0.0000 0.0000 0.0000 56.1708 0.0000
# 6 0.0000 0.0000 0.0000 0.0000 0.0000 -0.0774
#
#
#
# Elastic Compliance Matrix: (Units=1/GPa)
#
#
# Indices 1 2 3 4 5 6 
#
# 1 0.009139 -0.003952 -0.002714 0.000000 0.000000 0.000000
# 2 -0.003952 0.016341 -0.001807 0.000000 0.000000 0.000000
# 3 -0.002714 -0.001807 0.006524 0.000000 0.000000 0.000000
# 4 0.000000 0.000000 0.000000 0.029128 0.000000 0.000000
# 5 0.000000 0.000000 0.000000 0.000000 0.017803 0.000000
# 6 0.000000 0.000000 0.000000 0.000000 0.000000-12.914636
#
#
# Mechanical properties :
#
#
# Convention : Reuss Voigt Hill
#
# Bulk Modulus (GPa) = 66.40956 82.61111 74.51034
# Shear Modulus (GPa) = -0.39021 35.63330 17.62155
#
# Velocity S-wave (km/s) = -0.42499 4.06126 2.85598
# Velocity P-wave (km/s) = 5.52256 7.76084 6.73533
#
# Compressibility (1/GPa) = 0.01505807
#
# Stress axis : x y z
#
# Youngs Moduli (GPa) = 109.42363 61.19466 153.26887
#
# Poissons Ratio (x) = 0.24186 0.41593
# Poissons Ratio (y) = 0.43248 0.27699
# Poissons Ratio (z) = 0.29695 0.11059
#
# Static dielectric constant tensor:
#      x y z
#    x 1.872550 0.000000 0.000000 
#    y 0.000000 1.956210 0.000000 
#    z 0.000000 0.000000 2.065560 
# 
# From -- ./inp_files/8048.got.cif
#   From: 2010.05.17/outbox.cif.g08.bks.cpg/sg68_5_cif.got.tgz:8048.got - 2010.06.03 18:57:09.
