data_PCOD9506248
_publ_section_title
;
Structure prediction by ZEFSAII (Michael W. Deem and Ramdas Pophale) SiO2 
 PCOD9506248
Probable space group: C C C A
;
_chemical_formula_sum "Si O2"
_cell_formula_units_Z 104
_cell_length_a 19.816768
_cell_length_b 15.118137
_cell_length_c 18.553621
_cell_angle_alpha 90.000000
_cell_angle_beta 90.000000
_cell_angle_gamma 90.000000
_cell_volume 5558.527806
_symmetry_space_group_name_H-M "C C C A"
_symmetry_group_IT_number 68
_space_group.IT_coordinate_system_code '2'
_symmetry_cell_setting 'orthorhombic'
loop_
_space_group_symop_operation_xyz
x,y,z
-x,1/2-y,z
x,1/2-y,1/2-z
-x,y,1/2-z
-x,-y,-z
x,1/2+y,-z
-x,1/2+y,1/2+z
x,-y,1/2+z
1/2+x,1/2+y,z
1/2-x,-y,z
1/2+x,-y,1/2-z
1/2-x,1/2+y,1/2-z
1/2-x,1/2-y,-z
1/2+x,y,-z
1/2-x,y,1/2+z
1/2+x,1/2-y,1/2+z
loop_
_atom_site_type_symbol
_atom_site_label
_atom_site_fract_x
_atom_site_fract_y
_atom_site_fract_z
Si Si1 0.660560 0.902392 0.594485
Si Si2 0.442672 0.319794 0.529883
Si Si3 0.688715 0.302059 0.536185
Si Si4 0.728511 0.218690 0.672891
Si Si5 0.504895 0.147870 0.122549
Si Si6 0.000000 0.984572 0.250000
Si Si7 0.613746 0.422835 0.840032
O O1 0.676618 0.890980 0.509368
O O2 0.713156 0.838824 0.634980
O O3 0.583558 0.871269 0.606849
O O4 0.661078 0.999372 0.628542
O O5 0.500000 0.250000 0.551454
O O6 0.375332 0.261473 0.523847
O O7 0.464249 0.358840 0.452631
O O8 0.431084 0.391121 0.591935
O O9 0.750000 0.250000 0.500000
O O10 0.706400 0.299459 0.620503
O O11 0.752606 0.250000 0.750000
O O12 0.662317 0.157221 0.682122
O O13 0.500000 0.250000 0.146464
O O14 0.481107 0.079706 0.183332
O O15 0.063301 0.041902 0.278516
#
# Coordination Sequence:
#
# PCOD9506248 Si02
#       7
#    16  16  16  16  16   8  16
#     4  10  19  37  61  82 118 155 194 253 302 346
#     4  10  19  37  61  85 114 154 202 243 297 360
#     4   9  18  36  59  86 112 154 208 244 289 362
#     4  10  22  39  61  85 120 167 205 240 299 368
#     4  10  19  36  58  88 114 150 199 244 302 359
#     4  10  23  34  51  88 122 152 188 246 307 364
#     4  10  23  39  56  88 123 158 197 253 307 350
#
# _framework density 18.709990000000001
#
# number of rings (size 3 to 8) (size 9 to 14) (size 15 to 20)
#    0.000    2.154    3.077    0.692    0.000    7.385 
#    2.769    0.000    0.000    1.846    0.000    0.000 
#    0.000    0.000    0.000    0.000    0.000    0.000 
#
# Total GULP energy -289888.561185 kJ/mol
# GULP energy per Si atom -5574.780023 kJ/mol
# Density = 1.866740 g / cm^3
# Si number density = 18.709990 Si / 1000 Ang^3
#
#
#
# Elastic Constant Matrix: (Units=GPa)
#
#
# Indices 1 2 3 4 5 6 
#
# 1 84.8463 1.5555 27.7362 0.0000 0.0000 0.0000
# 2 1.5555 31.5196 27.5150 0.0000 0.0000 0.0000
# 3 27.7362 27.5150 115.3846 0.0000 0.0000 0.0000
# 4 0.0000 0.0000 0.0000 30.4080 0.0000 0.0000
# 5 0.0000 0.0000 0.0000 0.0000 26.7742 0.0000
# 6 0.0000 0.0000 0.0000 0.0000 0.0000 18.6400
#
#
#
# Elastic Compliance Matrix: (Units=1/GPa)
#
#
# Indices 1 2 3 4 5 6 
#
# 1 0.012961 0.002627 -0.003742 0.000000 0.000000 0.000000
# 2 0.002627 0.040599 -0.010313 0.000000 0.000000 0.000000
# 3 -0.003742 -0.010313 0.012025 0.000000 0.000000 0.000000
# 4 0.000000 0.000000 0.000000 0.032886 0.000000 0.000000
# 5 0.000000 0.000000 0.000000 0.000000 0.037349 0.000000
# 6 0.000000 0.000000 0.000000 0.000000 0.000000 0.053648
#
#
# Mechanical properties :
#
#
# Convention : Reuss Voigt Hill
#
# Bulk Modulus (GPa) = 23.40281 38.37375 30.88828
# Shear Modulus (GPa) = 22.06837 26.82736 24.44786
#
# Velocity S-wave (km/s) = 3.43811 3.79073 3.61872
# Velocity P-wave (km/s) = 5.31941 6.30189 5.83138
#
# Compressibility (1/GPa) = 0.04272991
#
# Stress axis : x y z
#
# Youngs Moduli (GPa) = 77.15376 24.63097 83.15704
#
# Poissons Ratio (x) = -0.06471 0.31118
# Poissons Ratio (y) = -0.20268 0.85759
# Poissons Ratio (z) = 0.28871 0.25402
#
# Static dielectric constant tensor:
#      x y z
#    x 1.627750 0.000000 0.000000 
#    y 0.000000 1.656790 0.000000 
#    z 0.000000 0.000000 1.670360 
# 
# From -- ./inp_files/33000.got.cif
#   From: 2010.05.17/outbox.cif.g08.bks.cpg/sg68_17_cif.got.tgz:33000.got - 2010.06.03 18:57:09.
