data_PCOD9506547
_publ_section_title
;
Structure prediction by ZEFSAII (Michael W. Deem and Ramdas Pophale) SiO2 
 PCOD9506547
Probable space group: C C C A
;
_chemical_formula_sum "Si O2"
_cell_formula_units_Z 96
_cell_length_a 23.243966
_cell_length_b 23.837532
_cell_length_c 9.000918
_cell_angle_alpha 90.000000
_cell_angle_beta 90.000000
_cell_angle_gamma 90.000000
_cell_volume 4987.217694
_symmetry_space_group_name_H-M "C C C A"
_symmetry_group_IT_number 68
_space_group.IT_coordinate_system_code '2'
_symmetry_cell_setting 'orthorhombic'
loop_
_space_group_symop_operation_xyz
x,y,z
-x,1/2-y,z
x,1/2-y,1/2-z
-x,y,1/2-z
-x,-y,-z
x,1/2+y,-z
-x,1/2+y,1/2+z
x,-y,1/2+z
1/2+x,1/2+y,z
1/2-x,-y,z
1/2+x,-y,1/2-z
1/2-x,1/2+y,1/2-z
1/2-x,1/2-y,-z
1/2+x,y,-z
1/2-x,y,1/2+z
1/2+x,1/2-y,1/2+z
loop_
_atom_site_type_symbol
_atom_site_label
_atom_site_fract_x
_atom_site_fract_y
_atom_site_fract_z
Si Si1 0.484429 0.059225 0.075464
Si Si2 0.096165 0.917695 0.534533
Si Si3 0.181117 0.814385 0.573512
Si Si4 0.347483 0.923958 0.540483
Si Si5 0.355209 0.001928 0.786280
Si Si6 0.194492 0.687965 0.574613
O O1 0.500000 0.059610 0.250000
O O2 0.417023 0.070086 0.051483
O O3 0.529808 0.098997 0.990193
O O4 0.500000 0.000000 0.000000
O O5 0.136725 0.863300 0.531434
O O6 0.107190 0.956146 0.681246
O O7 0.112588 0.959410 0.398491
O O8 0.165144 0.748810 0.553235
O O9 0.192808 0.822850 0.749079
O O10 0.239724 0.816078 0.479329
O O11 0.323530 0.955334 0.394714
O O12 0.335532 0.859272 0.523330
O O13 0.322716 0.959622 0.677083
#
# Coordination Sequence:
#
# PCOD9506547 Si02
#       6
#    16  16  16  16  16  16
#     4  12  20  32  57  86 123 157 190 226 282 347
#     4  11  20  37  57  89 120 153 192 232 284 345
#     4  10  23  43  64  83 109 151 198 242 288 341
#     4  11  20  37  57  89 120 153 192 232 284 345
#     4  10  20  33  59  84 124 154 185 233 288 338
#     4  10  23  43  64  83 109 151 198 242 288 341
#
# _framework density 19.249210999999999
#
# number of rings (size 3 to 8) (size 9 to 14) (size 15 to 20)
#    0.000    1.333    6.667    0.000    2.333    0.000 
#    0.000    5.833    0.000    3.000    0.000    0.000 
#    0.000    0.000    0.000    0.000    0.000    0.000 
#
# Total GULP energy -267382.356054 kJ/mol
# GULP energy per Si atom -5570.465751 kJ/mol
# Density = 1.920540 g / cm^3
# Si number density = 19.249211 Si / 1000 Ang^3
#
#
#
# Elastic Constant Matrix: (Units=GPa)
#
#
# Indices 1 2 3 4 5 6 
#
# 1 43.3489 51.9610 8.5810 0.0000 0.0000 0.0000
# 2 51.9610 125.0205 35.1174 0.0000 0.0000 0.0000
# 3 8.5810 35.1174 90.3886 0.0000 0.0000 0.0000
# 4 0.0000 0.0000 0.0000 20.0680 0.0000 0.0000
# 5 0.0000 0.0000 0.0000 0.0000 14.5626 0.0000
# 6 0.0000 0.0000 0.0000 0.0000 0.0000 39.1684
#
#
#
# Elastic Compliance Matrix: (Units=1/GPa)
#
#
# Indices 1 2 3 4 5 6 
#
# 1 0.046940 -0.020494 0.003506 0.000000 0.000000 0.000000
# 2 -0.020494 0.017926 -0.005019 0.000000 0.000000 0.000000
# 3 0.003506 -0.005019 0.012680 0.000000 0.000000 0.000000
# 4 0.000000 0.000000 0.000000 0.049831 0.000000 0.000000
# 5 0.000000 0.000000 0.000000 0.000000 0.068669 0.000000
# 6 0.000000 0.000000 0.000000 0.000000 0.000000 0.025531
#
#
# Mechanical properties :
#
#
# Convention : Reuss Voigt Hill
#
# Bulk Modulus (GPa) = 29.82158 50.00852 39.91505
# Shear Modulus (GPa) = 18.06559 25.63305 21.84932
#
# Velocity S-wave (km/s) = 3.06684 3.65313 3.37274
# Velocity P-wave (km/s) = 5.29780 6.62040 5.99568
#
# Compressibility (1/GPa) = 0.03353276
#
# Stress axis : x y z
#
# Youngs Moduli (GPa) = 21.30370 55.78412 78.86139
#
# Poissons Ratio (x) = 1.14325 -0.27649
# Poissons Ratio (y) = 0.43660 0.39581
# Poissons Ratio (z) = -0.07469 0.27998
#
# Static dielectric constant tensor:
#      x y z
#    x 1.735350 0.000000 0.000000 
#    y 0.000000 1.690650 0.000000 
#    z 0.000000 0.000000 1.718950 
# 
# From -- ./inp_files/8144.got.cif
#   From: 2010.05.17/outbox.cif.g08.bks.cpg/sg68_5_cif.got.tgz:8144.got - 2010.06.03 18:57:09.
