data_PCOD9506554
_publ_section_title
;
Structure prediction by ZEFSAII (Michael W. Deem and Ramdas Pophale) SiO2 
 PCOD9506554
Probable space group: C C C A
;
_chemical_formula_sum "Si O2"
_cell_formula_units_Z 80
_cell_length_a 9.721975
_cell_length_b 15.701861
_cell_length_c 28.179696
_cell_angle_alpha 90.000000
_cell_angle_beta 90.000000
_cell_angle_gamma 90.000000
_cell_volume 4301.717954
_symmetry_space_group_name_H-M "C C C A"
_symmetry_group_IT_number 68
_space_group.IT_coordinate_system_code '2'
_symmetry_cell_setting 'orthorhombic'
loop_
_space_group_symop_operation_xyz
x,y,z
-x,1/2-y,z
x,1/2-y,1/2-z
-x,y,1/2-z
-x,-y,-z
x,1/2+y,-z
-x,1/2+y,1/2+z
x,-y,1/2+z
1/2+x,1/2+y,z
1/2-x,-y,z
1/2+x,-y,1/2-z
1/2-x,1/2+y,1/2-z
1/2-x,1/2-y,-z
1/2+x,y,-z
1/2-x,y,1/2+z
1/2+x,1/2-y,1/2+z
loop_
_atom_site_type_symbol
_atom_site_label
_atom_site_fract_x
_atom_site_fract_y
_atom_site_fract_z
Si Si1 0.415664 0.837004 0.032122
Si Si2 0.665536 0.582243 0.358682
Si Si3 0.332764 0.753482 0.195359
Si Si4 0.342572 0.084885 0.633479
Si Si5 0.194085 0.908553 0.971751
O O1 0.500000 0.750000 0.041633
O O2 0.354306 0.873950 0.080922
O O3 0.537826 0.896524 0.012559
O O4 0.295108 0.838930 0.993900
O O5 0.750000 0.500000 0.342683
O O6 0.709388 0.668045 0.332072
O O7 0.501982 0.566380 0.352880
O O8 0.692265 0.595358 0.414768
O O9 0.500000 0.750000 0.194247
O O10 0.288722 0.750000 0.250000
O O11 0.291301 0.840202 0.168579
O O12 0.250000 0.000000 0.634025
O O13 0.250000 0.000000 0.986957
#
# Coordination Sequence:
#
# PCOD9506554 Si02
#       5
#    16  16  16  16  16
#     4  11  21  34  52  76 107 141 180 219 258 309
#     4   9  19  36  55  79 108 138 174 220 267 311
#     4   9  18  35  58  80 104 137 176 215 262 322
#     4  10  20  35  55  79 106 139 177 216 261 315
#     4  10  20  34  51  75 106 140 176 217 262 310
#
# _framework density 18.597221000000001
#
# number of rings (size 3 to 8) (size 9 to 14) (size 15 to 20)
#    0.000    2.200    0.000    4.800    0.000    4.000 
#    0.000    1.000    0.000    1.200    0.000    0.000 
#    0.000    0.000    0.000    0.000    0.000    0.000 
#
# Total GULP energy -223120.159581 kJ/mol
# GULP energy per Si atom -5578.003990 kJ/mol
# Density = 1.855489 g / cm^3
# Si number density = 18.597221 Si / 1000 Ang^3
#
#
#
# Elastic Constant Matrix: (Units=GPa)
#
#
# Indices 1 2 3 4 5 6 
#
# 1 65.5213 65.5096 51.6976 0.0000 0.0000 0.0000
# 2 65.5096 174.1721 56.7492 0.0000 0.0000 0.0000
# 3 51.6976 56.7492 56.8297 0.0000 0.0000 0.0000
# 4 0.0000 0.0000 0.0000 17.4798 0.0000 0.0000
# 5 0.0000 0.0000 0.0000 0.0000 14.3305 0.0000
# 6 0.0000 0.0000 0.0000 0.0000 0.0000 39.0039
#
#
#
# Elastic Compliance Matrix: (Units=1/GPa)
#
#
# Indices 1 2 3 4 5 6 
#
# 1 0.059342 -0.007012 -0.046980 0.000000 0.000000 0.000000
# 2 -0.007012 0.009339 -0.002947 0.000000 0.000000 0.000000
# 3 -0.046980 -0.002947 0.063277 0.000000 0.000000 0.000000
# 4 0.000000 0.000000 0.000000 0.057209 0.000000 0.000000
# 5 0.000000 0.000000 0.000000 0.000000 0.069781 0.000000
# 6 0.000000 0.000000 0.000000 0.000000 0.000000 0.025638
#
#
# Mechanical properties :
#
#
# Convention : Reuss Voigt Hill
#
# Bulk Modulus (GPa) = 55.31400 71.60398 63.45899
# Shear Modulus (GPa) = 12.36120 22.33396 17.34758
#
# Velocity S-wave (km/s) = 2.58094 3.46920 3.05750
# Velocity P-wave (km/s) = 6.22008 7.39143 6.83091
#
# Compressibility (1/GPa) = 0.01807860
#
# Stress axis : x y z
#
# Youngs Moduli (GPa) = 16.85151 107.07736 15.80358
#
# Poissons Ratio (x) = 0.75087 0.74246
# Poissons Ratio (y) = 0.11817 0.04657
# Poissons Ratio (z) = 0.79169 0.31552
#
# Static dielectric constant tensor:
#      x y z
#    x 1.639850 0.000000 0.000000 
#    y 0.000000 1.695380 0.000000 
#    z 0.000000 0.000000 1.625310 
# 
# From -- ./inp_files/44076.got.cif
#   From: 2010.05.17/outbox.cif.g08.bks.cpg/sg68_23_cif.got.tgz:44076.got - 2010.06.03 18:57:09.
