data_PCOD9506092
_publ_section_title
;
Structure prediction by ZEFSAII (Michael W. Deem and Ramdas Pophale) SiO2 
 PCOD9506092
Probable space group: C C C A
;
_chemical_formula_sum "Si O2"
_cell_formula_units_Z 96
_cell_length_a 4.968665
_cell_length_b 31.387151
_cell_length_c 33.192239
_cell_angle_alpha 90.000000
_cell_angle_beta 90.000000
_cell_angle_gamma 90.000000
_cell_volume 5176.403977
_symmetry_space_group_name_H-M "C C C A"
_symmetry_group_IT_number 68
_space_group.IT_coordinate_system_code '2'
_symmetry_cell_setting 'orthorhombic'
loop_
_space_group_symop_operation_xyz
x,y,z
-x,1/2-y,z
x,1/2-y,1/2-z
-x,y,1/2-z
-x,-y,-z
x,1/2+y,-z
-x,1/2+y,1/2+z
x,-y,1/2+z
1/2+x,1/2+y,z
1/2-x,-y,z
1/2+x,-y,1/2-z
1/2-x,1/2+y,1/2-z
1/2-x,1/2-y,-z
1/2+x,y,-z
1/2-x,y,1/2+z
1/2+x,1/2-y,1/2+z
loop_
_atom_site_type_symbol
_atom_site_label
_atom_site_fract_x
_atom_site_fract_y
_atom_site_fract_z
Si Si1 0.391874 0.331560 0.204936
Si Si2 0.603850 0.296897 0.661974
Si Si3 0.750000 0.500000 0.371978
Si Si4 0.067383 0.089149 0.851120
Si Si5 0.750000 0.000000 0.931402
Si Si6 0.564380 0.623669 0.106056
Si Si7 0.193395 0.090526 0.525955
O O1 0.500000 0.330662 0.250000
O O2 0.594131 0.302685 0.178140
O O3 0.397551 0.379190 0.186380
O O4 0.093471 0.314241 0.197244
O O5 0.500000 0.250000 0.652301
O O6 0.575148 0.329089 0.624502
O O7 0.839833 0.540782 0.346122
O O8 0.502622 0.508159 0.402295
O O9 0.263060 0.106941 0.886603
O O10 0.762615 0.094878 0.866056
O O11 0.788195 0.041810 0.958447
O O12 0.686657 0.618873 0.061954
O O13 0.389168 0.097408 0.487921
#
# Coordination Sequence:
#
# PCOD9506092 Si02
#       7
#    16  16   8  16   8  16  16
#     4  10  21  35  55  83 115 139 167 216 273 323
#     4  10  21  36  59  83 105 138 176 217 266 324
#     4  12  18  33  56  73 102 142 190 222 248 303
#     4  10  19  34  54  74 102 144 182 213 254 309
#     4  12  22  33  50  77 108 136 176 234 262 311
#     4  10  20  37  52  74 105 140 179 214 261 320
#     4  12  22  34  50  75 110 141 171 220 276 318
#
# _framework density 18.545694999999998
#
# number of rings (size 3 to 8) (size 9 to 14) (size 15 to 20)
#    0.000    1.333    3.333    3.500    0.000    2.000 
#    0.000    0.000    0.000    8.000    0.000    0.000 
#    0.000    0.000    0.000    0.000    0.000    0.000 
#
# Total GULP energy -268031.245656 kJ/mol
# GULP energy per Si atom -5583.984284 kJ/mol
# Density = 1.850348 g / cm^3
# Si number density = 18.545695 Si / 1000 Ang^3
#
#
#
# Elastic Constant Matrix: (Units=GPa)
#
#
# Indices 1 2 3 4 5 6 
#
# 1 70.0677 0.5212 -7.0138 0.0000 0.0000 0.0000
# 2 0.5212 115.9932 40.1846 0.0000 0.0000 0.0000
# 3 -7.0138 40.1846 51.4468 0.0000 0.0000 0.0000
# 4 0.0000 0.0000 0.0000 8.0062 0.0000 0.0000
# 5 0.0000 0.0000 0.0000 0.0000 18.9883 0.0000
# 6 0.0000 0.0000 0.0000 0.0000 0.0000 23.8975
#
#
#
# Elastic Compliance Matrix: (Units=1/GPa)
#
#
# Indices 1 2 3 4 5 6 
#
# 1 0.014559 -0.001032 0.002791 0.000000 0.000000 0.000000
# 2 -0.001032 0.011893 -0.009430 0.000000 0.000000 0.000000
# 3 0.002791 -0.009430 0.027184 0.000000 0.000000 0.000000
# 4 0.000000 0.000000 0.000000 0.124903 0.000000 0.000000
# 5 0.000000 0.000000 0.000000 0.000000 0.052664 0.000000
# 6 0.000000 0.000000 0.000000 0.000000 0.000000 0.041845
#
#
# Mechanical properties :
#
#
# Convention : Reuss Voigt Hill
#
# Bulk Modulus (GPa) = 26.11432 33.87685 29.99558
# Shear Modulus (GPa) = 16.60276 23.76612 20.18444
#
# Velocity S-wave (km/s) = 2.99529 3.58367 3.30261
# Velocity P-wave (km/s) = 5.10627 5.95231 5.54545
#
# Compressibility (1/GPa) = 0.03829317
#
# Stress axis : x y z
#
# Youngs Moduli (GPa) = 68.68603 84.08464 36.78653
#
# Poissons Ratio (x) = 0.08681 -0.10268
# Poissons Ratio (y) = 0.07091 0.34690
# Poissons Ratio (z) = -0.19172 0.79293
#
# Static dielectric constant tensor:
#      x y z
#    x 1.643620 0.000000 0.000000 
#    y 0.000000 1.650670 0.000000 
#    z 0.000000 0.000000 1.625380 
# 
# From -- ./inp_files/53468.got.cif
#   From: 2010.05.17/outbox.cif.g08.bks.cpg/sg68_27_cif.got.tgz:53468.got - 2010.06.03 18:57:09.
