data_PCOD9506082
_publ_section_title
;
Structure prediction by ZEFSAII (Michael W. Deem and Ramdas Pophale) SiO2 
 PCOD9506082
Probable space group: C C C A
;
_chemical_formula_sum "Si O2"
_cell_formula_units_Z 120
_cell_length_a 21.967278
_cell_length_b 20.280315
_cell_length_c 12.052968
_cell_angle_alpha 90.000000
_cell_angle_beta 90.000000
_cell_angle_gamma 90.000000
_cell_volume 5369.637230
_symmetry_space_group_name_H-M "C C C A"
_symmetry_group_IT_number 68
_space_group.IT_coordinate_system_code '2'
_symmetry_cell_setting 'orthorhombic'
loop_
_space_group_symop_operation_xyz
x,y,z
-x,1/2-y,z
x,1/2-y,1/2-z
-x,y,1/2-z
-x,-y,-z
x,1/2+y,-z
-x,1/2+y,1/2+z
x,-y,1/2+z
1/2+x,1/2+y,z
1/2-x,-y,z
1/2+x,-y,1/2-z
1/2-x,1/2+y,1/2-z
1/2-x,1/2-y,-z
1/2+x,y,-z
1/2-x,y,1/2+z
1/2+x,1/2-y,1/2+z
loop_
_atom_site_type_symbol
_atom_site_label
_atom_site_fract_x
_atom_site_fract_y
_atom_site_fract_z
Si Si1 0.197096 0.679161 0.575152
Si Si2 0.500000 0.084811 0.250000
Si Si3 0.171386 0.096838 0.227226
Si Si4 0.906240 0.997875 0.887633
Si Si5 0.404015 0.280445 0.863301
Si Si6 0.797799 0.094395 0.869458
Si Si7 0.572639 0.371177 0.459010
Si Si8 0.824269 0.810316 0.175314
O O1 0.187927 0.613295 0.648185
O O2 0.136831 0.723050 0.582231
O O3 0.208994 0.654947 0.452929
O O4 0.257248 0.709442 0.631387
O O5 0.461571 0.125817 0.341066
O O6 0.459652 0.040828 0.165540
O O7 0.118155 0.045184 0.215084
O O8 0.145345 0.164691 0.176905
O O9 0.229478 0.071504 0.158558
O O10 0.849262 0.045404 0.915315
O O11 0.921540 0.943805 0.983615
O O12 0.430439 0.250000 0.750000
O O13 0.449288 0.320054 0.945133
O O14 0.820261 0.126222 0.754836
O O15 0.636589 0.336909 0.426912
O O16 0.848962 0.750000 0.250000
#
# Coordination Sequence:
#
# PCOD9506082 Si02
#       8
#    16   8  16  16  16  16  16  16
#     4  10  19  33  63  99 133 176 210 255 343 425
#     4  12  26  48  69  92 127 186 242 294 348 404
#     4   9  20  35  58  95 134 166 208 279 339 414
#     4  11  24  43  66  93 127 175 237 286 344 405
#     4   9  18  37  64 100 134 168 217 266 338 422
#     4  11  21  35  59  99 138 174 216 275 349 420
#     4  11  24  44  69  96 131 177 236 294 340 402
#     4  11  22  38  64  99 143 179 214 270 343 430
#
# _framework density 22.347878999999999
#
# number of rings (size 3 to 8) (size 9 to 14) (size 15 to 20)
#    0.000    1.600    1.333    5.200    1.867    1.600 
#    0.000    1.667    0.000    0.000    0.000    0.000 
#    0.000    0.000    0.000    0.000    0.000    0.000 
#
# Total GULP energy -334670.478528 kJ/mol
# GULP energy per Si atom -5577.841309 kJ/mol
# Density = 2.229701 g / cm^3
# Si number density = 22.347879 Si / 1000 Ang^3
#
#
#
# Elastic Constant Matrix: (Units=GPa)
#
#
# Indices 1 2 3 4 5 6 
#
# 1 57.0631 20.0970 19.8950 0.0000 0.0000 0.0000
# 2 20.0970 70.0977 33.5349 0.0000 0.0000 0.0000
# 3 19.8950 33.5349 116.4730 0.0000 0.0000 0.0000
# 4 0.0000 0.0000 0.0000 34.4637 0.0000 0.0000
# 5 0.0000 0.0000 0.0000 0.0000 30.3860 0.0000
# 6 0.0000 0.0000 0.0000 0.0000 0.0000 13.6980
#
#
#
# Elastic Compliance Matrix: (Units=1/GPa)
#
#
# Indices 1 2 3 4 5 6 
#
# 1 0.019901 -0.004731 -0.002037 0.000000 0.000000 0.000000
# 2 -0.004731 0.017669 -0.004279 0.000000 0.000000 0.000000
# 3 -0.002037 -0.004279 0.010166 0.000000 0.000000 0.000000
# 4 0.000000 0.000000 0.000000 0.029016 0.000000 0.000000
# 5 0.000000 0.000000 0.000000 0.000000 0.032910 0.000000
# 6 0.000000 0.000000 0.000000 0.000000 0.000000 0.073003
#
#
# Mechanical properties :
#
#
# Convention : Reuss Voigt Hill
#
# Bulk Modulus (GPa) = 38.99974 43.40973 41.20474
# Shear Modulus (GPa) = 23.44038 27.05000 25.24519
#
# Velocity S-wave (km/s) = 3.24216 3.48286 3.36467
# Velocity P-wave (km/s) = 5.61290 5.96997 5.79418
#
# Compressibility (1/GPa) = 0.02564119
#
# Stress axis : x y z
#
# Youngs Moduli (GPa) = 50.24898 56.59506 98.36963
#
# Poissons Ratio (x) = 0.26775 0.20039
# Poissons Ratio (y) = 0.23773 0.42095
# Poissons Ratio (z) = 0.10237 0.24219
#
# Static dielectric constant tensor:
#      x y z
#    x 1.857890 0.000000 0.000000 
#    y 0.000000 1.937440 0.000000 
#    z 0.000000 0.000000 1.836940 
# 
# From -- ./inp_files/15796.got.cif
#   From: 2010.05.17/outbox.cif.g08.bks.cpg/sg68_8_cif.got.tgz:15796.got - 2010.06.03 18:57:09.
