data_PCOD9506036
_publ_section_title
;
Structure prediction by ZEFSAII (Michael W. Deem and Ramdas Pophale) SiO2 
 PCOD9506036
Probable space group: C C C A
;
_chemical_formula_sum "Si O2"
_cell_formula_units_Z 104
_cell_length_a 31.932891
_cell_length_b 32.506059
_cell_length_c 5.212416
_cell_angle_alpha 90.000000
_cell_angle_beta 90.000000
_cell_angle_gamma 90.000000
_cell_volume 5410.552645
_symmetry_space_group_name_H-M "C C C A"
_symmetry_group_IT_number 68
_space_group.IT_coordinate_system_code '2'
_symmetry_cell_setting 'orthorhombic'
loop_
_space_group_symop_operation_xyz
x,y,z
-x,1/2-y,z
x,1/2-y,1/2-z
-x,y,1/2-z
-x,-y,-z
x,1/2+y,-z
-x,1/2+y,1/2+z
x,-y,1/2+z
1/2+x,1/2+y,z
1/2-x,-y,z
1/2+x,-y,1/2-z
1/2-x,1/2+y,1/2-z
1/2-x,1/2-y,-z
1/2+x,y,-z
1/2-x,y,1/2+z
1/2+x,1/2-y,1/2+z
loop_
_atom_site_type_symbol
_atom_site_label
_atom_site_fract_x
_atom_site_fract_y
_atom_site_fract_z
Si Si1 0.547345 0.311937 0.324273
Si Si2 0.720823 0.157116 0.761669
Si Si3 0.220882 0.250000 0.250000
Si Si4 0.415680 0.902425 0.776679
Si Si5 0.452817 0.516065 0.932615
Si Si6 0.406023 0.292490 0.683026
Si Si7 0.634003 0.118187 0.728494
O O1 0.500000 0.303976 0.250000
O O2 0.557353 0.360748 0.307737
O O3 0.556816 0.295307 0.607105
O O4 0.577677 0.293061 0.107308
O O5 0.751836 0.153239 0.519402
O O6 0.701823 0.203908 0.751903
O O7 0.683751 0.123724 0.751067
O O8 0.250000 0.250000 0.500000
O O9 0.446341 0.939661 0.696712
O O10 0.383087 0.898241 0.541764
O O11 0.388602 0.905115 0.036746
O O12 0.433500 0.513790 0.216511
O O13 0.500000 0.500000 0.000000
O O14 0.383155 0.250000 0.750000
O O15 0.382115 0.334612 0.735254
#
# Coordination Sequence:
#
# PCOD9506036 Si02
#       7
#    16  16   8  16  16  16  16
#     4  10  21  34  51  72  96 142 180 232 283 305
#     4  10  19  33  53  80 108 141 193 234 281 336
#     4   8  16  28  44  72 106 136 173 238 287 318
#     4  10  21  38  53  79 117 141 184 214 276 350
#     4  10  21  36  57  88 111 144 178 218 265 330
#     4  10  21  35  49  71  98 138 194 233 274 323
#     4  10  21  36  55  76 111 156 174 232 286 319
#
# _framework density 19.221696999999999
#
# number of rings (size 3 to 8) (size 9 to 14) (size 15 to 20)
#    0.000    2.154    0.000    2.769    3.231    1.846 
#    5.538    0.000    0.000    0.000    0.000    0.000 
#    0.000   43.077    0.000    0.000    0.000    0.000 
#
# Total GULP energy -289699.455526 kJ/mol
# GULP energy per Si atom -5571.143376 kJ/mol
# Density = 1.917795 g / cm^3
# Si number density = 19.221697 Si / 1000 Ang^3
#
#
#
# Elastic Constant Matrix: (Units=GPa)
#
#
# Indices 1 2 3 4 5 6 
#
# 1 64.0590 16.9816 16.8567 0.0000 0.0000 0.0000
# 2 16.9816 88.7222 22.9055 0.0000 0.0000 0.0000
# 3 16.8567 22.9055 132.3383 0.0000 0.0000 0.0000
# 4 0.0000 0.0000 0.0000 26.9560 0.0000 0.0000
# 5 0.0000 0.0000 0.0000 0.0000 9.0941 0.0000
# 6 0.0000 0.0000 0.0000 0.0000 0.0000 26.9183
#
#
#
# Elastic Compliance Matrix: (Units=1/GPa)
#
#
# Indices 1 2 3 4 5 6 
#
# 1 0.016785 -0.002785 -0.001656 0.000000 0.000000 0.000000
# 2 -0.002785 0.012260 -0.001767 0.000000 0.000000 0.000000
# 3 -0.001656 -0.001767 0.008073 0.000000 0.000000 0.000000
# 4 0.000000 0.000000 0.000000 0.037098 0.000000 0.000000
# 5 0.000000 0.000000 0.000000 0.000000 0.109962 0.000000
# 6 0.000000 0.000000 0.000000 0.000000 0.000000 0.037149
#
#
# Mechanical properties :
#
#
# Convention : Reuss Voigt Hill
#
# Bulk Modulus (GPa) = 40.48307 44.28966 42.38637
# Shear Modulus (GPa) = 20.66306 27.81872 24.24089
#
# Velocity S-wave (km/s) = 3.28226 3.80841 3.55508
# Velocity P-wave (km/s) = 5.95576 6.51384 6.24104
#
# Compressibility (1/GPa) = 0.02470169
#
# Stress axis : x y z
#
# Youngs Moduli (GPa) = 59.57819 81.56287 123.86650
#
# Poissons Ratio (x) = 0.22716 0.20511
# Poissons Ratio (y) = 0.16593 0.21891
# Poissons Ratio (z) = 0.09866 0.14415
#
# Static dielectric constant tensor:
#      x y z
#    x 1.682230 0.000000 0.000000 
#    y 0.000000 1.721290 0.000000 
#    z 0.000000 0.000000 1.718990 
# 
# From -- ./inp_files/2951.got.cif
#   From: 2010.05.17/outbox.cif.g08.bks.cpg/sg68_2_cif.got.tgz:2951.got - 2010.06.03 18:57:09.
