data_PCOD9506897
_publ_section_title
;
Structure prediction by ZEFSAII (Michael W. Deem and Ramdas Pophale) SiO2 
 PCOD9506897
Probable space group: C C C A
;
_chemical_formula_sum "Si O2"
_cell_formula_units_Z 96
_cell_length_a 24.494495
_cell_length_b 10.582307
_cell_length_c 18.968884
_cell_angle_alpha 90.000000
_cell_angle_beta 90.000000
_cell_angle_gamma 90.000000
_cell_volume 4916.891528
_symmetry_space_group_name_H-M "C C C A"
_symmetry_group_IT_number 68
_space_group.IT_coordinate_system_code '2'
_symmetry_cell_setting 'orthorhombic'
loop_
_space_group_symop_operation_xyz
x,y,z
-x,1/2-y,z
x,1/2-y,1/2-z
-x,y,1/2-z
-x,-y,-z
x,1/2+y,-z
-x,1/2+y,1/2+z
x,-y,1/2+z
1/2+x,1/2+y,z
1/2-x,-y,z
1/2+x,-y,1/2-z
1/2-x,1/2+y,1/2-z
1/2-x,1/2-y,-z
1/2+x,y,-z
1/2-x,y,1/2+z
1/2+x,1/2-y,1/2+z
loop_
_atom_site_type_symbol
_atom_site_label
_atom_site_fract_x
_atom_site_fract_y
_atom_site_fract_z
Si Si1 0.739207 0.780397 0.643283
Si Si2 0.702336 0.902942 0.454588
Si Si3 0.358529 0.054378 0.405333
Si Si4 0.850129 0.366388 0.295300
Si Si5 0.935960 0.754997 0.335084
Si Si6 0.655110 0.058315 0.327858
O O1 0.767774 0.725030 0.571908
O O2 0.698050 0.893427 0.627658
O O3 0.787944 0.826850 0.691223
O O4 0.701110 0.668016 0.673864
O O5 0.655103 0.915847 0.513067
O O6 0.750000 0.000000 0.477039
O O7 0.677244 0.955625 0.382114
O O8 0.406449 0.141646 0.375538
O O9 0.369081 0.914731 0.372980
O O10 0.875623 0.250000 0.250000
O O11 0.853855 0.488460 0.245480
O O12 0.928955 0.750000 0.250000
O O13 0.900830 0.878671 0.354680
O O14 0.000000 0.750000 0.349960
#
# Coordination Sequence:
#
# PCOD9506897 Si02
#       6
#    16  16  16  16  16  16
#     4  10  22  32  57  82 128 157 195 226 275 342
#     4  10  20  37  54  86 128 164 181 229 286 357
#     4  11  23  36  57  87 114 156 201 227 288 344
#     4  12  23  32  52  86 123 155 189 230 282 345
#     4  10  21  42  68  83 101 139 200 261 296 330
#     4  10  22  38  55  86 118 151 196 239 288 335
#
# _framework density 19.524529999999999
#
# number of rings (size 3 to 8) (size 9 to 14) (size 15 to 20)
#    0.000    1.500    3.333    2.000    4.667    2.667 
#    0.000    0.833    0.000    2.000    0.000    0.000 
#    0.000    0.000    0.000    0.000    0.000    0.000 
#
# Total GULP energy -267643.287776 kJ/mol
# GULP energy per Si atom -5575.901829 kJ/mol
# Density = 1.948009 g / cm^3
# Si number density = 19.524530 Si / 1000 Ang^3
#
#
#
# Elastic Constant Matrix: (Units=GPa)
#
#
# Indices 1 2 3 4 5 6 
#
# 1 96.4843 18.4270 19.9763 0.0000 0.0000 0.0000
# 2 18.4270 57.5388 8.2434 0.0000 0.0000 0.0000
# 3 19.9763 8.2434 43.3774 0.0000 0.0000 0.0000
# 4 0.0000 0.0000 0.0000 16.2185 0.0000 0.0000
# 5 0.0000 0.0000 0.0000 0.0000 18.8029 0.0000
# 6 0.0000 0.0000 0.0000 0.0000 0.0000 10.9722
#
#
#
# Elastic Compliance Matrix: (Units=1/GPa)
#
#
# Indices 1 2 3 4 5 6 
#
# 1 0.011982 -0.003132 -0.004923 0.000000 0.000000 0.000000
# 2 -0.003132 0.018685 -0.002108 0.000000 0.000000 0.000000
# 3 -0.004923 -0.002108 0.025721 0.000000 0.000000 0.000000
# 4 0.000000 0.000000 0.000000 0.061658 0.000000 0.000000
# 5 0.000000 0.000000 0.000000 0.000000 0.053183 0.000000
# 6 0.000000 0.000000 0.000000 0.000000 0.000000 0.091139
#
#
# Mechanical properties :
#
#
# Convention : Reuss Voigt Hill
#
# Bulk Modulus (GPa) = 27.73051 32.29933 30.01492
# Shear Modulus (GPa) = 16.96555 19.24897 18.10726
#
# Velocity S-wave (km/s) = 2.95097 3.14329 3.04865
# Velocity P-wave (km/s) = 5.08377 5.45459 5.27244
#
# Compressibility (1/GPa) = 0.03606137
#
# Stress axis : x y z
#
# Youngs Moduli (GPa) = 83.46032 53.51981 38.87847
#
# Poissons Ratio (x) = 0.16762 0.19139
# Poissons Ratio (y) = 0.26139 0.08197
# Poissons Ratio (z) = 0.41085 0.11285
#
# Static dielectric constant tensor:
#      x y z
#    x 1.622270 0.000000 0.000000 
#    y 0.000000 1.736730 0.000000 
#    z 0.000000 0.000000 1.794350 
# 
# From -- ./inp_files/33564.got.cif
#   From: 2010.05.17/outbox.cif.g08.bks.cpg/sg68_17_cif.got.tgz:33564.got - 2010.06.03 18:57:09.
