data_PCOD9506531
_publ_section_title
;
Structure prediction by ZEFSAII (Michael W. Deem and Ramdas Pophale) SiO2 
 PCOD9506531
Probable space group: C C C A
;
_chemical_formula_sum "Si O2"
_cell_formula_units_Z 72
_cell_length_a 10.617738
_cell_length_b 10.617718
_cell_length_c 35.408106
_cell_angle_alpha 90.000000
_cell_angle_beta 90.000000
_cell_angle_gamma 90.000000
_cell_volume 3991.773474
_symmetry_space_group_name_H-M "C C C A"
_symmetry_group_IT_number 68
_space_group.IT_coordinate_system_code '2'
_symmetry_cell_setting 'orthorhombic'
loop_
_space_group_symop_operation_xyz
x,y,z
-x,1/2-y,z
x,1/2-y,1/2-z
-x,y,1/2-z
-x,-y,-z
x,1/2+y,-z
-x,1/2+y,1/2+z
x,-y,1/2+z
1/2+x,1/2+y,z
1/2-x,-y,z
1/2+x,-y,1/2-z
1/2-x,1/2+y,1/2-z
1/2-x,1/2-y,-z
1/2+x,y,-z
1/2-x,y,1/2+z
1/2+x,1/2-y,1/2+z
loop_
_atom_site_type_symbol
_atom_site_label
_atom_site_fract_x
_atom_site_fract_y
_atom_site_fract_z
Si Si1 0.954423 0.991272 0.043068
Si Si2 0.646344 0.603656 0.739148
Si Si3 0.250000 0.500000 0.334409
Si Si4 0.258728 0.295578 0.043068
Si Si5 0.608192 0.858192 0.399175
O O1 0.845262 0.095262 0.046169
O O2 0.052303 0.031180 0.074684
O O3 0.893500 0.856500 0.049506
O O4 0.000000 0.000000 0.000000
O O5 0.673072 0.750000 0.750000
O O6 0.500000 0.576927 0.750000
O O7 0.750000 0.500000 0.754753
O O8 0.666101 0.583899 0.694208
O O9 0.336819 0.586819 0.360756
O O10 0.218820 0.197698 0.074684
O O11 0.250000 0.250000 0.000000
O O12 0.500000 0.750000 0.393887
#
# Coordination Sequence:
#
# PCOD9506531 Si02
#       5
#    16  16   8  16  16
#     4  10  20  33  52  77 111 164 218 261 305 359
#     4   9  21  44  71 103 135 166 216 258 331 431
#     4  10  24  42  70 100 126 168 200 266 342 386
#     4  10  20  33  52  77 111 164 218 261 305 359
#     4  10  22  40  54  86 131 157 211 266 312 373
#
# _framework density 18.037095000000001
#
# number of rings (size 3 to 8) (size 9 to 14) (size 15 to 20)
#    0.667    1.556    2.222    0.000    3.111    2.222 
#    8.000    0.000    0.000    0.000    0.000    0.000 
#    0.000    0.000    0.000    0.000    0.000    0.000 
#
# Total GULP energy -200492.530909 kJ/mol
# GULP energy per Si atom -5569.236970 kJ/mol
# Density = 1.799604 g / cm^3
# Si number density = 18.037095 Si / 1000 Ang^3
#
#
#
# Elastic Constant Matrix: (Units=GPa)
#
#
# Indices 1 2 3 4 5 6 
#
# 1 112.8677 77.5824 63.3842 0.0000 0.0000 0.0000
# 2 77.5824 112.8664 63.3841 0.0000 0.0000 0.0000
# 3 63.3842 63.3841 149.1695 0.0000 0.0000 0.0000
# 4 0.0000 0.0000 0.0000 39.9137 0.0000 0.0000
# 5 0.0000 0.0000 0.0000 0.0000 39.9137 0.0000
# 6 0.0000 0.0000 0.0000 0.0000 0.0000 41.2952
#
#
#
# Elastic Compliance Matrix: (Units=1/GPa)
#
#
# Indices 1 2 3 4 5 6 
#
# 1 0.017831 -0.010510 -0.003111 0.000000 0.000000 0.000000
# 2 -0.010510 0.017831 -0.003111 0.000000 0.000000 0.000000
# 3 -0.003111 -0.003111 0.009348 0.000000 0.000000 0.000000
# 4 0.000000 0.000000 0.000000 0.025054 0.000000 0.000000
# 5 0.000000 0.000000 0.000000 0.000000 0.025054 0.000000
# 6 0.000000 0.000000 0.000000 0.000000 0.000000 0.024216
#
#
# Mechanical properties :
#
#
# Convention : Reuss Voigt Hill
#
# Bulk Modulus (GPa) = 86.60570 87.06723 86.83647
# Shear Modulus (GPa) = 31.91903 35.59471 33.75687
#
# Velocity S-wave (km/s) = 4.21126 4.44713 4.33081
# Velocity P-wave (km/s) = 8.47147 8.64554 8.55895
#
# Compressibility (1/GPa) = 0.01154658
#
# Stress axis : x y z
#
# Youngs Moduli (GPa) = 56.08180 56.08105 106.97928
#
# Poissons Ratio (x) = 0.58940 0.33281
# Poissons Ratio (y) = 0.58940 0.33282
# Poissons Ratio (z) = 0.17447 0.17447
#
# Static dielectric constant tensor:
#      x y z
#    x 1.665610 0.000000 0.000000 
#    y 0.000000 1.665610 0.000000 
#    z 0.000000 0.000000 1.575050 
# 
# From -- ./inp_files/54473.got.cif
#   From: 2010.05.17/outbox.cif.g08.bks.cpg/sg68_28_cif.got.tgz:54473.got - 2010.06.03 18:57:09.
