data_PCOD9506005
_publ_section_title
;
Structure prediction by ZEFSAII (Michael W. Deem and Ramdas Pophale) SiO2 
 PCOD9506005
Probable space group: C C C A
;
_chemical_formula_sum "Si O2"
_cell_formula_units_Z 72
_cell_length_a 16.908772
_cell_length_b 12.826497
_cell_length_c 16.982396
_cell_angle_alpha 90.000000
_cell_angle_beta 90.000000
_cell_angle_gamma 90.000000
_cell_volume 3683.147366
_symmetry_space_group_name_H-M "C C C A"
_symmetry_group_IT_number 68
_space_group.IT_coordinate_system_code '2'
_symmetry_cell_setting 'orthorhombic'
loop_
_space_group_symop_operation_xyz
x,y,z
-x,1/2-y,z
x,1/2-y,1/2-z
-x,y,1/2-z
-x,-y,-z
x,1/2+y,-z
-x,1/2+y,1/2+z
x,-y,1/2+z
1/2+x,1/2+y,z
1/2-x,-y,z
1/2+x,-y,1/2-z
1/2-x,1/2+y,1/2-z
1/2-x,1/2-y,-z
1/2+x,y,-z
1/2-x,y,1/2+z
1/2+x,1/2-y,1/2+z
loop_
_atom_site_type_symbol
_atom_site_label
_atom_site_fract_x
_atom_site_fract_y
_atom_site_fract_z
Si Si1 0.090407 0.907258 0.545748
Si Si2 0.658869 0.480931 0.903146
Si Si3 0.500000 0.750000 0.572380
Si Si4 0.596593 0.759437 0.157873
Si Si5 0.492411 0.554837 0.659069
O O1 0.133767 0.836987 0.610247
O O2 0.052278 0.821399 0.486360
O O3 0.139817 0.987852 0.493485
O O4 0.026257 0.971775 0.596259
O O5 0.750000 0.500000 0.886736
O O6 0.629880 0.365764 0.879081
O O7 0.601653 0.557849 0.854459
O O8 0.533098 0.662551 0.632365
O O9 0.500000 0.750000 0.150195
O O10 0.613718 0.750000 0.250000
O O11 0.500000 0.524990 0.750000
#
# Coordination Sequence:
#
# PCOD9506005 Si02
#       5
#    16  16   8  16  16
#     4  11  20  37  64  86 120 163 216 254 301 383
#     4  11  24  40  59  95 132 160 206 272 324 365
#     4  10  19  32  55  90 116 150 202 250 307 366
#     4  11  21  38  65  94 120 165 223 260 304 386
#     4  11  21  38  63  89 117 161 213 257 305 382
#
# _framework density 19.548497999999999
#
# number of rings (size 3 to 8) (size 9 to 14) (size 15 to 20)
#    0.000    1.111    3.333    5.667    0.000    0.889 
#    0.000    8.889    0.000    0.000    0.000    0.000 
#    0.000    0.000    0.000    0.000    0.000    0.000 
#
# Total GULP energy -200498.863739 kJ/mol
# GULP energy per Si atom -5569.412882 kJ/mol
# Density = 1.950400 g / cm^3
# Si number density = 19.548498 Si / 1000 Ang^3
#
#
#
# Elastic Constant Matrix: (Units=GPa)
#
#
# Indices 1 2 3 4 5 6 
#
# 1 89.5035 41.2901 52.8272 0.0000 0.0000 0.0000
# 2 41.2901 137.9262 44.7089 0.0000 0.0000 0.0000
# 3 52.8272 44.7089 131.2480 0.0000 0.0000 0.0000
# 4 0.0000 0.0000 0.0000 7.7415 0.0000 0.0000
# 5 0.0000 0.0000 0.0000 0.0000 10.7033 0.0000
# 6 0.0000 0.0000 0.0000 0.0000 0.0000 15.4258
#
#
#
# Elastic Compliance Matrix: (Units=1/GPa)
#
#
# Indices 1 2 3 4 5 6 
#
# 1 0.015670 -0.002975 -0.005294 0.000000 0.000000 0.000000
# 2 -0.002975 0.008715 -0.001771 0.000000 0.000000 0.000000
# 3 -0.005294 -0.001771 0.010353 0.000000 0.000000 0.000000
# 4 0.000000 0.000000 0.000000 0.129173 0.000000 0.000000
# 5 0.000000 0.000000 0.000000 0.000000 0.093429 0.000000
# 6 0.000000 0.000000 0.000000 0.000000 0.000000 0.064826
#
#
# Mechanical properties :
#
#
# Convention : Reuss Voigt Hill
#
# Bulk Modulus (GPa) = 68.22169 70.70333 69.46251
# Shear Modulus (GPa) = 14.40374 21.43091 17.91732
#
# Velocity S-wave (km/s) = 2.71739 3.31463 3.03075
# Velocity P-wave (km/s) = 6.69478 7.13412 6.91794
#
# Compressibility (1/GPa) = 0.01465810
#
# Stress axis : x y z
#
# Youngs Moduli (GPa) = 63.81794 114.74442 96.58845
#
# Poissons Ratio (x) = 0.34136 0.51130
# Poissons Ratio (y) = 0.18986 0.17109
# Poissons Ratio (z) = 0.33782 0.20325
#
# Static dielectric constant tensor:
#      x y z
#    x 1.732290 0.000000 0.000000 
#    y 0.000000 1.768080 0.000000 
#    z 0.000000 0.000000 1.753640 
# 
# From -- ./inp_files/31643.got.cif
#   From: 2010.05.17/outbox.cif.g08.bks.cpg/sg68_16_cif.got.tgz:31643.got - 2010.06.03 18:57:09.
