data_PCOD9506330
_publ_section_title
;
Structure prediction by ZEFSAII (Michael W. Deem and Ramdas Pophale) SiO2 
 PCOD9506330
Probable space group: C C C A
;
_chemical_formula_sum "Si O2"
_cell_formula_units_Z 96
_cell_length_a 19.367946
_cell_length_b 16.152484
_cell_length_c 15.360601
_cell_angle_alpha 90.000000
_cell_angle_beta 90.000000
_cell_angle_gamma 90.000000
_cell_volume 4805.417143
_symmetry_space_group_name_H-M "C C C A"
_symmetry_group_IT_number 68
_space_group.IT_coordinate_system_code '2'
_symmetry_cell_setting 'orthorhombic'
loop_
_space_group_symop_operation_xyz
x,y,z
-x,1/2-y,z
x,1/2-y,1/2-z
-x,y,1/2-z
-x,-y,-z
x,1/2+y,-z
-x,1/2+y,1/2+z
x,-y,1/2+z
1/2+x,1/2+y,z
1/2-x,-y,z
1/2+x,-y,1/2-z
1/2-x,1/2+y,1/2-z
1/2-x,1/2-y,-z
1/2+x,y,-z
1/2-x,y,1/2+z
1/2+x,1/2-y,1/2+z
loop_
_atom_site_type_symbol
_atom_site_label
_atom_site_fract_x
_atom_site_fract_y
_atom_site_fract_z
Si Si1 0.315651 0.834291 0.284501
Si Si2 0.250000 0.000000 0.360872
Si Si3 0.383493 0.454771 0.029412
Si Si4 0.918430 0.410292 0.160957
Si Si5 0.005926 0.838478 0.406160
Si Si6 0.500000 0.463088 0.250000
Si Si7 0.562579 0.868720 0.083802
O O1 0.278016 0.750000 0.250000
O O2 0.272443 0.918317 0.305458
O O3 0.363705 0.849877 0.201204
O O4 0.371261 0.831943 0.365646
O O5 0.189112 0.968305 0.424325
O O6 0.420548 0.369399 0.056813
O O7 0.426885 0.533726 0.063001
O O8 0.388141 0.453433 0.925048
O O9 0.935143 0.475955 0.237591
O O10 0.990520 0.365427 0.136667
O O11 0.000000 0.750000 0.362895
O O12 0.992708 0.907074 0.334094
O O13 0.953970 0.833201 0.488246
#
# Coordination Sequence:
#
# PCOD9506330 Si02
#       7
#    16   8  16  16  16   8  16
#     4  11  24  39  65  95 126 165 219 274 322 389
#     4  10  24  48  64  82 134 184 222 274 310 394
#     4  10  20  41  63  84 124 178 217 254 328 399
#     4  11  19  35  66  96 122 160 210 268 326 389
#     4  11  22  33  58  93 129 161 203 264 336 393
#     4  12  17  36  53  92 130 160 206 248 330 404
#     4  10  19  37  61  92 130 159 198 269 340 390
#
# _framework density 19.977454000000002
#
# number of rings (size 3 to 8) (size 9 to 14) (size 15 to 20)
#    0.000    1.333    5.000    2.250    4.667    1.333 
#    0.000    4.167    0.000    0.000    0.000    0.000 
#    0.000    0.000    0.000    0.000    0.000    0.000 
#
# Total GULP energy -267305.768171 kJ/mol
# GULP energy per Si atom -5568.870170 kJ/mol
# Density = 1.993198 g / cm^3
# Si number density = 19.977454 Si / 1000 Ang^3
#
#
#
# Elastic Constant Matrix: (Units=GPa)
#
#
# Indices 1 2 3 4 5 6 
#
# 1 47.5605 9.7581 -0.6738 0.0000 0.0000 0.0000
# 2 9.7581 78.6817 5.8679 0.0000 0.0000 0.0000
# 3 -0.6738 5.8679 84.5254 0.0000 0.0000 0.0000
# 4 0.0000 0.0000 0.0000 -19.1309 0.0000 0.0000
# 5 0.0000 0.0000 0.0000 0.0000 12.4034 0.0000
# 6 0.0000 0.0000 0.0000 0.0000 0.0000 15.8235
#
#
#
# Elastic Compliance Matrix: (Units=1/GPa)
#
#
# Indices 1 2 3 4 5 6 
#
# 1 0.021586 -0.002704 0.000360 0.000000 0.000000 0.000000
# 2 -0.002704 0.013114 -0.000932 0.000000 0.000000 0.000000
# 3 0.000360 -0.000932 0.011898 0.000000 0.000000 0.000000
# 4 0.000000 0.000000 0.000000 -0.052271 0.000000 0.000000
# 5 0.000000 0.000000 0.000000 0.000000 0.080623 0.000000
# 6 0.000000 0.000000 0.000000 0.000000 0.000000 0.063197
#
#
# Mechanical properties :
#
#
# Convention : Reuss Voigt Hill
#
# Bulk Modulus (GPa) = 24.97117 26.74132 25.85625
# Shear Modulus (GPa) = 31.63601 14.87357 23.25479
#
# Velocity S-wave (km/s) = 3.98375 2.73155 3.41552
# Velocity P-wave (km/s) = 5.80406 4.83356 5.34090
#
# Compressibility (1/GPa) = 0.04004618
#
# Stress axis : x y z
#
# Youngs Moduli (GPa) = 46.32691 76.25275 84.04545
#
# Poissons Ratio (x) = 0.20618 -0.03024
# Poissons Ratio (y) = 0.12526 0.07833
# Poissons Ratio (z) = -0.01667 0.07106
#
# Static dielectric constant tensor:
#      x y z
#    x 1.705540 0.000000 0.000000 
#    y 0.000000 1.751230 0.000000 
#    z 0.000000 0.000000 1.766010 
# 
# From -- ./inp_files/24485.got.cif
#   From: 2010.05.17/outbox.cif.g08.bks.cpg/sg68_13_cif.got.tgz:24485.got - 2010.06.03 18:57:09.
