data_PCOD9506070
_publ_section_title
;
Structure prediction by ZEFSAII (Michael W. Deem and Ramdas Pophale) SiO2 
 PCOD9506070
Probable space group: C C C A
;
_chemical_formula_sum "Si O2"
_cell_formula_units_Z 96
_cell_length_a 18.271702
_cell_length_b 31.075607
_cell_length_c 8.173212
_cell_angle_alpha 90.000000
_cell_angle_beta 90.000000
_cell_angle_gamma 90.000000
_cell_volume 4640.784351
_symmetry_space_group_name_H-M "C C C A"
_symmetry_group_IT_number 68
_space_group.IT_coordinate_system_code '2'
_symmetry_cell_setting 'orthorhombic'
loop_
_space_group_symop_operation_xyz
x,y,z
-x,1/2-y,z
x,1/2-y,1/2-z
-x,y,1/2-z
-x,-y,-z
x,1/2+y,-z
-x,1/2+y,1/2+z
x,-y,1/2+z
1/2+x,1/2+y,z
1/2-x,-y,z
1/2+x,-y,1/2-z
1/2-x,1/2+y,1/2-z
1/2-x,1/2-y,-z
1/2+x,y,-z
1/2-x,y,1/2+z
1/2+x,1/2-y,1/2+z
loop_
_atom_site_type_symbol
_atom_site_label
_atom_site_fract_x
_atom_site_fract_y
_atom_site_fract_z
Si Si1 0.820633 0.968989 0.980858
Si Si2 0.148825 0.214635 0.632782
Si Si3 0.085609 0.034777 0.697785
Si Si4 0.084309 0.372997 0.789698
Si Si5 0.707560 0.184696 0.672912
Si Si6 0.314678 0.371738 0.968052
O O1 0.853011 0.963408 0.161088
O O2 0.750000 0.000000 0.976130
O O3 0.803787 0.921243 0.914065
O O4 0.889048 0.992944 0.897577
O O5 0.111387 0.250000 0.750000
O O6 0.103725 0.170733 0.621580
O O7 0.222060 0.204336 0.736417
O O8 0.170849 0.220994 0.442817
O O9 0.096733 0.081844 0.616317
O O10 0.000000 0.031602 0.750000
O O11 0.127562 0.371896 0.616615
O O12 0.000000 0.372868 0.750000
O O13 0.665055 0.159013 0.815332
O O14 0.741843 0.148753 0.549540
#
# Coordination Sequence:
#
# PCOD9506070 Si02
#       6
#    16  16  16  16  16  16
#     4  11  23  32  56  85 109 144 201 253 287 338
#     4  10  19  33  57  83 106 139 178 230 283 345
#     4  10  22  39  53  74 113 156 190 233 295 355
#     4   9  20  38  54  74 108 149 186 228 280 344
#     4   9  19  34  54  80 114 141 177 224 293 352
#     4   9  20  34  54  79 113 149 184 232 292 344
#
# _framework density 20.686157999999999
#
# number of rings (size 3 to 8) (size 9 to 14) (size 15 to 20)
#    0.000    2.333    0.000    1.500   11.667    0.333 
#    0.000    0.833    0.000    0.000    0.000    7.000 
#    0.000    0.000    0.000    0.000    0.000    0.000 
#
# Total GULP energy -267220.034724 kJ/mol
# GULP energy per Si atom -5567.084057 kJ/mol
# Density = 2.063908 g / cm^3
# Si number density = 20.686158 Si / 1000 Ang^3
#
#
#
# Elastic Constant Matrix: (Units=GPa)
#
#
# Indices 1 2 3 4 5 6 
#
# 1 55.3100 2.1010 -16.9125 0.0000 0.0000 0.0000
# 2 2.1010 68.7876 -11.9056 0.0000 0.0000 0.0000
# 3 -16.9125 -11.9056 33.4885 0.0000 0.0000 0.0000
# 4 0.0000 0.0000 0.0000 22.5317 0.0000 0.0000
# 5 0.0000 0.0000 0.0000 0.0000 12.1317 0.0000
# 6 0.0000 0.0000 0.0000 0.0000 0.0000 22.1737
#
#
#
# Elastic Compliance Matrix: (Units=1/GPa)
#
#
# Indices 1 2 3 4 5 6 
#
# 1 0.021491 0.001302 0.011316 0.000000 0.000000 0.000000
# 2 0.001302 0.015570 0.006193 0.000000 0.000000 0.000000
# 3 0.011316 0.006193 0.037778 0.000000 0.000000 0.000000
# 4 0.000000 0.000000 0.000000 0.044382 0.000000 0.000000
# 5 0.000000 0.000000 0.000000 0.000000 0.082429 0.000000
# 6 0.000000 0.000000 0.000000 0.000000 0.000000 0.045098
#
#
# Mechanical properties :
#
#
# Convention : Reuss Voigt Hill
#
# Bulk Modulus (GPa) = 8.89200 11.57242 10.23221
# Shear Modulus (GPa) = 20.27484 23.65431 21.96457
#
# Velocity S-wave (km/s) = 3.13408 3.38521 3.26206
# Velocity P-wave (km/s) = 4.17186 4.57012 4.37552
#
# Compressibility (1/GPa) = 0.11246068
#
# Stress axis : x y z
#
# Youngs Moduli (GPa) = 46.53174 64.22785 26.47066
#
# Poissons Ratio (x) = -0.08364 -0.29955
# Poissons Ratio (y) = -0.06059 -0.16393
# Poissons Ratio (z) = -0.52657 -0.39775
#
# Static dielectric constant tensor:
#      x y z
#    x 1.725380 0.000000 0.000000 
#    y 0.000000 1.888580 0.000000 
#    z 0.000000 0.000000 1.878720 
# 
# From -- ./inp_files/7291.got.cif
#   From: 2010.05.17/outbox.cif.g08.bks.cpg/sg68_4_cif.got.tgz:7291.got - 2010.06.03 18:57:09.
