data_PCOD9506337
_publ_section_title
;
Structure prediction by ZEFSAII (Michael W. Deem and Ramdas Pophale) SiO2 
 PCOD9506337
Probable space group: C C C A
;
_chemical_formula_sum "Si O2"
_cell_formula_units_Z 88
_cell_length_a 25.840754
_cell_length_b 9.843702
_cell_length_c 15.319665
_cell_angle_alpha 90.000000
_cell_angle_beta 90.000000
_cell_angle_gamma 90.000000
_cell_volume 3896.842992
_symmetry_space_group_name_H-M "C C C A"
_symmetry_group_IT_number 68
_space_group.IT_coordinate_system_code '2'
_symmetry_cell_setting 'orthorhombic'
loop_
_space_group_symop_operation_xyz
x,y,z
-x,1/2-y,z
x,1/2-y,1/2-z
-x,y,1/2-z
-x,-y,-z
x,1/2+y,-z
-x,1/2+y,1/2+z
x,-y,1/2+z
1/2+x,1/2+y,z
1/2-x,-y,z
1/2+x,-y,1/2-z
1/2-x,1/2+y,1/2-z
1/2-x,1/2-y,-z
1/2+x,y,-z
1/2-x,y,1/2+z
1/2+x,1/2-y,1/2+z
loop_
_atom_site_type_symbol
_atom_site_label
_atom_site_fract_x
_atom_site_fract_y
_atom_site_fract_z
Si Si1 0.500000 0.250000 0.619002
Si Si2 0.085944 0.956913 0.827540
Si Si3 0.321199 0.275782 0.599566
Si Si4 0.625952 0.013382 0.356591
Si Si5 0.443148 0.940038 0.000616
Si Si6 0.779827 0.354916 0.592180
O O1 0.534699 0.139210 0.669370
O O2 0.545710 0.307568 0.557024
O O3 0.140034 0.882264 0.855121
O O4 0.092162 0.005271 0.729404
O O5 0.077340 0.068632 0.902934
O O6 0.348995 0.132780 0.619260
O O7 0.261915 0.250544 0.630009
O O8 0.307885 0.305988 0.497593
O O9 0.592154 0.040243 0.442351
O O10 0.673406 0.113631 0.343792
O O11 0.500000 0.000000 0.000000
O O12 0.750000 0.500000 0.574004
#
# Coordination Sequence:
#
# PCOD9506337 Si02
#       6
#     8  16  16  16  16  16
#     4  10  22  39  60  93 128 166 214 255 318 385
#     4  11  22  38  65  94 124 164 212 266 314 377
#     4  10  19  37  64  89 120 165 207 249 316 369
#     4  11  21  38  64  94 127 154 209 263 312 371
#     4  10  22  37  60  92 125 163 205 261 314 372
#     4   9  20  38  63  88 126 166 203 258 312 375
#
# _framework density 22.582381000000002
#
# number of rings (size 3 to 8) (size 9 to 14) (size 15 to 20)
#    0.000    1.818    3.636    0.545    0.000    3.636 
#    0.000    4.545    4.000   15.273    0.000    0.000 
#    0.000    0.000    0.000    0.000    0.000    0.000 
#
# Total GULP energy -245211.410178 kJ/mol
# GULP energy per Si atom -5572.986595 kJ/mol
# Density = 2.253098 g / cm^3
# Si number density = 22.582381 Si / 1000 Ang^3
#
#
#
# Elastic Constant Matrix: (Units=GPa)
#
#
# Indices 1 2 3 4 5 6 
#
# 1 90.9471 16.9107 36.5063 0.0000 0.0000 0.0000
# 2 16.9107 8.6443 11.6308 0.0000 0.0000 0.0000
# 3 36.5063 11.6308 107.6542 0.0000 0.0000 0.0000
# 4 0.0000 0.0000 0.0000 19.7098 0.0000 0.0000
# 5 0.0000 0.0000 0.0000 0.0000 42.7649 0.0000
# 6 0.0000 0.0000 0.0000 0.0000 0.0000 32.7484
#
#
#
# Elastic Compliance Matrix: (Units=1/GPa)
#
#
# Indices 1 2 3 4 5 6 
#
# 1 0.017918 -0.031449 -0.002678 0.000000 0.000000 0.000000
# 2 -0.031449 0.190556 -0.009923 0.000000 0.000000 0.000000
# 3 -0.002678 -0.009923 0.011269 0.000000 0.000000 0.000000
# 4 0.000000 0.000000 0.000000 0.050736 0.000000 0.000000
# 5 0.000000 0.000000 0.000000 0.000000 0.023384 0.000000
# 6 0.000000 0.000000 0.000000 0.000000 0.000000 0.030536
#
#
# Mechanical properties :
#
#
# Convention : Reuss Voigt Hill
#
# Bulk Modulus (GPa) = 7.59629 37.48236 22.53932
# Shear Modulus (GPa) = 10.95575 28.52448 19.74011
#
# Velocity S-wave (km/s) = 2.20499 3.55791 2.95979
# Velocity P-wave (km/s) = 3.13907 5.78899 4.65651
#
# Compressibility (1/GPa) = 0.13164327
#
# Stress axis : x y z
#
# Youngs Moduli (GPa) = 55.80917 5.24779 88.73640
#
# Poissons Ratio (x) = 0.16504 0.23768
# Poissons Ratio (y) = 1.75515 0.88051
# Poissons Ratio (z) = 0.14948 0.05207
#
# Static dielectric constant tensor:
#      x y z
#    x 1.893910 0.000000 0.000000 
#    y 0.000000 1.988010 0.000000 
#    z 0.000000 0.000000 1.904850 
# 
# From -- ./inp_files/20980.got.cif
#   From: 2010.05.17/outbox.cif.g08.bks.cpg/sg68_11_cif.got.tgz:20980.got - 2010.06.03 18:57:09.
