data_PCOD9506455
_publ_section_title
;
Structure prediction by ZEFSAII (Michael W. Deem and Ramdas Pophale) SiO2 
 PCOD9506455
Probable space group: C C C A
;
_chemical_formula_sum "Si O2"
_cell_formula_units_Z 112
_cell_length_a 14.661803
_cell_length_b 10.944726
_cell_length_c 32.077006
_cell_angle_alpha 90.000000
_cell_angle_beta 90.000000
_cell_angle_gamma 90.000000
_cell_volume 5147.378436
_symmetry_space_group_name_H-M "C C C A"
_symmetry_group_IT_number 68
_space_group.IT_coordinate_system_code '2'
_symmetry_cell_setting 'orthorhombic'
loop_
_space_group_symop_operation_xyz
x,y,z
-x,1/2-y,z
x,1/2-y,1/2-z
-x,y,1/2-z
-x,-y,-z
x,1/2+y,-z
-x,1/2+y,1/2+z
x,-y,1/2+z
1/2+x,1/2+y,z
1/2-x,-y,z
1/2+x,-y,1/2-z
1/2-x,1/2+y,1/2-z
1/2-x,1/2-y,-z
1/2+x,y,-z
1/2-x,y,1/2+z
1/2+x,1/2-y,1/2+z
loop_
_atom_site_type_symbol
_atom_site_label
_atom_site_fract_x
_atom_site_fract_y
_atom_site_fract_z
Si Si1 0.062526 0.856487 0.181633
Si Si2 0.993584 0.430009 0.542041
Si Si3 0.191504 0.316958 0.628888
Si Si4 0.851212 0.450931 0.237702
Si Si5 0.326917 0.748859 0.961732
Si Si6 0.364236 0.292177 0.683495
Si Si7 0.446197 0.965515 0.374478
O O1 0.122093 0.785972 0.146489
O O2 0.000000 0.750000 0.198390
O O3 0.009367 0.959954 0.156810
O O4 0.105333 0.927377 0.219825
O O5 0.891424 0.371423 0.542410
O O6 0.000000 0.500000 0.500000
O O7 0.084941 0.343003 0.539498
O O8 0.008639 0.520385 0.580720
O O9 0.222673 0.275946 0.582594
O O10 0.265028 0.319106 0.665241
O O11 0.144239 0.448882 0.624662
O O12 0.750000 0.500000 0.246263
O O13 0.888075 0.385396 0.279064
O O14 0.860531 0.343553 0.202685
O O15 0.250000 0.750000 0.000000
O O16 0.425229 0.334137 0.644573
#
# Coordination Sequence:
#
# PCOD9506455 Si02
#       7
#    16  16  16  16  16  16  16
#     4  10  21  42  70  95 125 175 223 277 330 402
#     4  10  22  42  64  97 143 176 223 297 342 405
#     4  10  19  41  68  94 132 181 232 274 334 416
#     4  11  23  43  64  97 139 171 224 283 339 399
#     4  10  22  41  67 101 135 180 235 283 343 414
#     4  11  24  40  65  97 136 178 219 285 345 402
#     4  10  21  40  65  95 131 179 230 274 344 406
#
# _framework density 21.758648000000001
#
# number of rings (size 3 to 8) (size 9 to 14) (size 15 to 20)
#    0.000    1.714    2.857    1.286    2.000    1.714 
#    2.571    6.429    0.000    0.000    0.000    0.000 
#    0.000    0.000    0.000    0.000    0.000    0.000 
#
# Total GULP energy -311946.328311 kJ/mol
# GULP energy per Si atom -5570.470148 kJ/mol
# Density = 2.170912 g / cm^3
# Si number density = 21.758648 Si / 1000 Ang^3
#
#
#
# Elastic Constant Matrix: (Units=GPa)
#
#
# Indices 1 2 3 4 5 6 
#
# 1 52.0698 1.5959 36.6686 0.0000 0.0000 0.0000
# 2 1.5959 47.4074 32.8275 0.0000 0.0000 0.0000
# 3 36.6686 32.8275 123.6329 0.0000 0.0000 0.0000
# 4 0.0000 0.0000 0.0000 56.7817 0.0000 0.0000
# 5 0.0000 0.0000 0.0000 0.0000 13.9024 0.0000
# 6 0.0000 0.0000 0.0000 0.0000 0.0000 22.2585
#
#
#
# Elastic Compliance Matrix: (Units=1/GPa)
#
#
# Indices 1 2 3 4 5 6 
#
# 1 0.025328 0.005329 -0.008927 0.000000 0.000000 0.000000
# 2 0.005329 0.026967 -0.008741 0.000000 0.000000 0.000000
# 3 -0.008927 -0.008741 0.013057 0.000000 0.000000 0.000000
# 4 0.000000 0.000000 0.000000 0.017611 0.000000 0.000000
# 5 0.000000 0.000000 0.000000 0.000000 0.071930 0.000000
# 6 0.000000 0.000000 0.000000 0.000000 0.000000 0.044927
#
#
# Mechanical properties :
#
#
# Convention : Reuss Voigt Hill
#
# Bulk Modulus (GPa) = 24.58548 40.58821 32.58684
# Shear Modulus (GPa) = 21.00339 28.72307 24.86323
#
# Velocity S-wave (km/s) = 3.11028 3.63723 3.38403
# Velocity P-wave (km/s) = 4.92160 6.02773 5.50253
#
# Compressibility (1/GPa) = 0.04067441
#
# Stress axis : x y z
#
# Youngs Moduli (GPa) = 39.48140 37.08222 76.58649
#
# Poissons Ratio (x) = -0.19761 0.68370
# Poissons Ratio (y) = -0.21040 0.66944
# Poissons Ratio (z) = 0.35246 0.32413
#
# Static dielectric constant tensor:
#      x y z
#    x 1.946630 0.000000 0.000000 
#    y 0.000000 1.827640 0.000000 
#    z 0.000000 0.000000 1.754970 
# 
# From -- ./inp_files/55289.got.cif
#   From: 2010.05.17/outbox.cif.g08.bks.cpg/sg68_28_cif.got.tgz:55289.got - 2010.06.03 18:57:09.
