data_PCOD9506040
_publ_section_title
;
Structure prediction by ZEFSAII (Michael W. Deem and Ramdas Pophale) SiO2 
 PCOD9506040
Probable space group: C C C A
;
_chemical_formula_sum "Si O2"
_cell_formula_units_Z 88
_cell_length_a 10.083414
_cell_length_b 23.446637
_cell_length_c 19.443358
_cell_angle_alpha 90.000000
_cell_angle_beta 90.000000
_cell_angle_gamma 90.000000
_cell_volume 4596.840458
_symmetry_space_group_name_H-M "C C C A"
_symmetry_group_IT_number 68
_space_group.IT_coordinate_system_code '2'
_symmetry_cell_setting 'orthorhombic'
loop_
_space_group_symop_operation_xyz
x,y,z
-x,1/2-y,z
x,1/2-y,1/2-z
-x,y,1/2-z
-x,-y,-z
x,1/2+y,-z
-x,1/2+y,1/2+z
x,-y,1/2+z
1/2+x,1/2+y,z
1/2-x,-y,z
1/2+x,-y,1/2-z
1/2-x,1/2+y,1/2-z
1/2-x,1/2-y,-z
1/2+x,y,-z
1/2-x,y,1/2+z
1/2+x,1/2-y,1/2+z
loop_
_atom_site_type_symbol
_atom_site_label
_atom_site_fract_x
_atom_site_fract_y
_atom_site_fract_z
Si Si1 0.118708 0.849316 0.164726
Si Si2 0.230332 0.065240 0.939635
Si Si3 0.295049 0.242857 0.827198
Si Si4 0.041906 0.628602 0.483808
Si Si5 0.500000 0.250000 0.553438
Si Si6 0.685816 0.377980 0.306246
O O1 0.167042 0.784144 0.171766
O O2 0.199292 0.883228 0.224019
O O3 0.964825 0.857852 0.181339
O O4 0.127034 0.870046 0.086838
O O5 0.363009 0.098210 0.961784
O O6 0.214327 0.070439 0.856960
O O7 0.250000 0.000000 0.961118
O O8 0.097627 0.095663 0.970567
O O9 0.352333 0.250000 0.750000
O O10 0.380201 0.260236 0.892991
O O11 0.268376 0.176049 0.832531
O O12 0.016555 0.693662 0.507402
#
# Coordination Sequence:
#
# PCOD9506040 Si02
#       6
#    16  16  16  16   8  16
#     4   9  19  33  57  85 116 150 194 250 306 365
#     4  11  23  42  63  86 120 165 211 253 302 362
#     4  10  19  33  53  82 123 160 193 244 303 373
#     4  11  24  38  62  91 127 159 204 259 311 371
#     4  12  23  34  56  89 132 158 198 244 322 371
#     4   9  18  36  57  82 113 152 206 245 297 359
#
# _framework density 19.143584000000001
#
# number of rings (size 3 to 8) (size 9 to 14) (size 15 to 20)
#    0.000    1.818    1.818    2.455    5.091    3.636 
#    0.000    0.909    0.000   17.455    0.000    0.000 
#    0.000    0.000    0.000    0.000    0.000    0.000 
#
# Total GULP energy -245136.809310 kJ/mol
# GULP energy per Si atom -5571.291121 kJ/mol
# Density = 1.910001 g / cm^3
# Si number density = 19.143584 Si / 1000 Ang^3
#
#
#
# Elastic Constant Matrix: (Units=GPa)
#
#
# Indices 1 2 3 4 5 6 
#
# 1 48.3443 38.5448 24.1564 0.0000 0.0000 0.0000
# 2 38.5448 107.0711 31.7370 0.0000 0.0000 0.0000
# 3 24.1564 31.7370 111.3167 0.0000 0.0000 0.0000
# 4 0.0000 0.0000 0.0000 14.6168 0.0000 0.0000
# 5 0.0000 0.0000 0.0000 0.0000 15.2241 0.0000
# 6 0.0000 0.0000 0.0000 0.0000 0.0000 3.5014
#
#
#
# Elastic Compliance Matrix: (Units=1/GPa)
#
#
# Indices 1 2 3 4 5 6 
#
# 1 0.030415 -0.009823 -0.003800 0.000000 0.000000 0.000000
# 2 -0.009823 0.013374 -0.001681 0.000000 0.000000 0.000000
# 3 -0.003800 -0.001681 0.010287 0.000000 0.000000 0.000000
# 4 0.000000 0.000000 0.000000 0.068414 0.000000 0.000000
# 5 0.000000 0.000000 0.000000 0.000000 0.065685 0.000000
# 6 0.000000 0.000000 0.000000 0.000000 0.000000 0.285602
#
#
# Mechanical properties :
#
#
# Convention : Reuss Voigt Hill
#
# Bulk Modulus (GPa) = 42.61009 50.62316 46.61662
# Shear Modulus (GPa) = 9.76162 18.15472 13.95817
#
# Velocity S-wave (km/s) = 2.26058 3.08286 2.70317
# Velocity P-wave (km/s) = 5.39631 6.25886 5.84352
#
# Compressibility (1/GPa) = 0.02346862
#
# Stress axis : x y z
#
# Youngs Moduli (GPa) = 32.87801 74.77083 97.20710
#
# Poissons Ratio (x) = 0.73448 0.36936
# Poissons Ratio (y) = 0.32296 0.16344
# Poissons Ratio (z) = 0.12493 0.12572
#
# Static dielectric constant tensor:
#      x y z
#    x 1.679370 0.000000 0.000000 
#    y 0.000000 1.649980 0.000000 
#    z 0.000000 0.000000 1.741650 
# 
# From -- ./inp_files/29637.got.cif
#   From: 2010.05.17/outbox.cif.g08.bks.cpg/sg68_15_cif.got.tgz:29637.got - 2010.06.03 18:57:09.
