data_PCOD9506313
_publ_section_title
;
Structure prediction by ZEFSAII (Michael W. Deem and Ramdas Pophale) SiO2 
 PCOD9506313
Probable space group: C C C A
;
_chemical_formula_sum "Si O2"
_cell_formula_units_Z 112
_cell_length_a 13.889776
_cell_length_b 25.291914
_cell_length_c 14.425630
_cell_angle_alpha 90.000000
_cell_angle_beta 90.000000
_cell_angle_gamma 90.000000
_cell_volume 5067.709683
_symmetry_space_group_name_H-M "C C C A"
_symmetry_group_IT_number 68
_space_group.IT_coordinate_system_code '2'
_symmetry_cell_setting 'orthorhombic'
loop_
_space_group_symop_operation_xyz
x,y,z
-x,1/2-y,z
x,1/2-y,1/2-z
-x,y,1/2-z
-x,-y,-z
x,1/2+y,-z
-x,1/2+y,1/2+z
x,-y,1/2+z
1/2+x,1/2+y,z
1/2-x,-y,z
1/2+x,-y,1/2-z
1/2-x,1/2+y,1/2-z
1/2-x,1/2-y,-z
1/2+x,y,-z
1/2-x,y,1/2+z
1/2+x,1/2-y,1/2+z
loop_
_atom_site_type_symbol
_atom_site_label
_atom_site_fract_x
_atom_site_fract_y
_atom_site_fract_z
Si Si1 0.597471 0.706662 0.811336
Si Si2 0.312287 0.619259 0.777564
Si Si3 0.098899 0.914548 0.758175
Si Si4 0.864183 0.986155 0.356353
Si Si5 0.178696 0.950677 0.952456
Si Si6 0.606006 0.259049 0.523794
Si Si7 0.272414 0.661820 0.967840
O O1 0.653874 0.750000 0.750000
O O2 0.500000 0.698788 0.750000
O O3 0.651205 0.651568 0.809183
O O4 0.589677 0.726701 0.914949
O O5 0.198236 0.612059 0.771757
O O6 0.366225 0.563880 0.788525
O O7 0.329920 0.651206 0.872437
O O8 0.121185 0.935633 0.860876
O O9 0.000000 0.882595 0.750000
O O10 0.085805 0.963746 0.687587
O O11 0.887398 0.968685 0.460681
O O12 0.750000 0.000000 0.361849
O O13 0.250000 0.000000 0.931922
O O14 0.232595 0.896754 0.987088
O O15 0.500000 0.250000 0.565192
O O16 0.667457 0.204652 0.527661
O O17 0.672890 0.307909 0.555682
#
# Coordination Sequence:
#
# PCOD9506313 Si02
#       7
#    16  16  16  16  16  16  16
#     4  11  19  34  59  87 111 142 190 255 300 334
#     4  10  19  37  58  81 119 155 192 241 294 345
#     4  11  23  37  57  87 123 158 195 234 288 359
#     4   8  18  36  57  82 112 150 196 245 288 341
#     4  10  20  40  64  85 113 155 203 247 301 354
#     4  11  21  37  57  87 122 152 198 245 295 349
#     4  10  22  37  60  86 116 161 196 240 298 350
#
# _framework density 22.100712999999999
#
# number of rings (size 3 to 8) (size 9 to 14) (size 15 to 20)
#    0.000    1.857    2.857    3.000    0.000    2.286 
#    0.000    2.857    0.000    0.000    0.000    0.000 
#    0.000    0.000    0.000    0.000    0.000    0.000 
#
# Total GULP energy -312347.991796 kJ/mol
# GULP energy per Si atom -5577.642711 kJ/mol
# Density = 2.205041 g / cm^3
# Si number density = 22.100713 Si / 1000 Ang^3
#
#
#
# Elastic Constant Matrix: (Units=GPa)
#
#
# Indices 1 2 3 4 5 6 
#
# 1 65.8500 22.8669 -17.4218 0.0000 0.0000 0.0000
# 2 22.8669 102.2191 8.7505 0.0000 0.0000 0.0000
# 3 -17.4218 8.7505 53.5770 0.0000 0.0000 0.0000
# 4 0.0000 0.0000 0.0000 14.2189 0.0000 0.0000
# 5 0.0000 0.0000 0.0000 0.0000 16.1310 0.0000
# 6 0.0000 0.0000 0.0000 0.0000 0.0000 13.0370
#
#
#
# Elastic Compliance Matrix: (Units=1/GPa)
#
#
# Indices 1 2 3 4 5 6 
#
# 1 0.018648 -0.004757 0.006841 0.000000 0.000000 0.000000
# 2 -0.004757 0.011135 -0.003366 0.000000 0.000000 0.000000
# 3 0.006841 -0.003366 0.021439 0.000000 0.000000 0.000000
# 4 0.000000 0.000000 0.000000 0.070329 0.000000 0.000000
# 5 0.000000 0.000000 0.000000 0.000000 0.061992 0.000000
# 6 0.000000 0.000000 0.000000 0.000000 0.000000 0.076705
#
#
# Mechanical properties :
#
#
# Convention : Reuss Voigt Hill
#
# Bulk Modulus (GPa) = 20.55170 27.78195 24.16682
# Shear Modulus (GPa) = 17.91916 22.50743 20.21329
#
# Velocity S-wave (km/s) = 2.85054 3.19470 3.02751
# Velocity P-wave (km/s) = 4.48925 5.11919 4.81453
#
# Compressibility (1/GPa) = 0.04865778
#
# Stress axis : x y z
#
# Youngs Moduli (GPa) = 53.62546 89.80506 46.64435
#
# Poissons Ratio (x) = 0.42722 -0.31908
# Poissons Ratio (y) = 0.25511 0.15699
# Poissons Ratio (z) = -0.36684 0.30225
#
# Static dielectric constant tensor:
#      x y z
#    x 1.854700 0.000000 0.000000 
#    y 0.000000 1.855020 0.000000 
#    z 0.000000 0.000000 1.867260 
# 
# From -- ./inp_files/22751.got.cif
#   From: 2010.05.17/outbox.cif.g08.bks.cpg/sg68_12_cif.got.tgz:22751.got - 2010.06.03 18:57:09.
