data_PCOD9506746
_publ_section_title
;
Structure prediction by ZEFSAII (Michael W. Deem and Ramdas Pophale) SiO2 
 PCOD9506746
Probable space group: C C C A
;
_chemical_formula_sum "Si O2"
_cell_formula_units_Z 104
_cell_length_a 23.238518
_cell_length_b 26.637055
_cell_length_c 8.684678
_cell_angle_alpha 90.000000
_cell_angle_beta 90.000000
_cell_angle_gamma 90.000000
_cell_volume 5375.865029
_symmetry_space_group_name_H-M "C C C A"
_symmetry_group_IT_number 68
_space_group.IT_coordinate_system_code '2'
_symmetry_cell_setting 'orthorhombic'
loop_
_space_group_symop_operation_xyz
x,y,z
-x,1/2-y,z
x,1/2-y,1/2-z
-x,y,1/2-z
-x,-y,-z
x,1/2+y,-z
-x,1/2+y,1/2+z
x,-y,1/2+z
1/2+x,1/2+y,z
1/2-x,-y,z
1/2+x,-y,1/2-z
1/2-x,1/2+y,1/2-z
1/2-x,1/2-y,-z
1/2+x,y,-z
1/2-x,y,1/2+z
1/2+x,1/2-y,1/2+z
loop_
_atom_site_type_symbol
_atom_site_label
_atom_site_fract_x
_atom_site_fract_y
_atom_site_fract_z
Si Si1 0.761842 0.413243 0.507006
Si Si2 0.328182 0.043455 0.298777
Si Si3 0.866309 0.430525 0.306481
Si Si4 0.014811 0.445133 0.068038
Si Si5 0.591015 0.613217 0.982260
Si Si6 0.811835 0.686293 0.482877
Si Si7 0.240009 0.750000 0.750000
O O1 0.716221 0.453155 0.440985
O O2 0.793862 0.432933 0.657112
O O3 0.811192 0.404597 0.380396
O O4 0.725390 0.362937 0.525226
O O5 0.381319 0.077527 0.352341
O O6 0.348621 0.987523 0.268729
O O7 0.917490 0.433721 0.431650
O O8 0.887398 0.404413 0.151505
O O9 0.000000 0.447491 0.250000
O O10 0.976309 0.401395 0.990344
O O11 0.000000 0.500000 0.000000
O O12 0.622534 0.666952 0.960779
O O13 0.800147 0.725281 0.619878
O O14 0.782230 0.709904 0.331890
#
# Coordination Sequence:
#
# PCOD9506746 Si02
#       7
#    16  16  16  16  16  16   8
#     4  11  22  33  51  79 111 147 182 232 274 342
#     4  11  21  33  49  73 114 153 194 222 267 319
#     4  11  21  33  50  75 110 156 194 223 263 311
#     4  10  21  35  53  75 110 153 198 230 259 302
#     4  10  20  36  54  77 110 149 185 235 266 332
#     4  10  20  36  55  82 110 134 179 226 301 347
#     4  10  20  36  60  82 106 136 170 242 302 370
#
# _framework density 19.345724000000001
#
# number of rings (size 3 to 8) (size 9 to 14) (size 15 to 20)
#    0.000    1.538    1.538    6.000    2.154    2.462 
#    0.000    0.000    0.000    0.000    0.000   24.231 
#    0.000    0.000    0.000    0.000    0.000    0.000 
#
# Total GULP energy -290413.171066 kJ/mol
# GULP energy per Si atom -5584.868674 kJ/mol
# Density = 1.930169 g / cm^3
# Si number density = 19.345724 Si / 1000 Ang^3
#
#
#
# Elastic Constant Matrix: (Units=GPa)
#
#
# Indices 1 2 3 4 5 6 
#
# 1 86.4687 19.0272 1.2048 0.0000 0.0000 0.0000
# 2 19.0272 50.4283 1.4086 0.0000 0.0000 0.0000
# 3 1.2048 1.4086 48.6542 0.0000 0.0000 0.0000
# 4 0.0000 0.0000 0.0000 24.5010 0.0000 0.0000
# 5 0.0000 0.0000 0.0000 0.0000 26.5822 0.0000
# 6 0.0000 0.0000 0.0000 0.0000 0.0000 191.9476
#
#
#
# Elastic Compliance Matrix: (Units=1/GPa)
#
#
# Indices 1 2 3 4 5 6 
#
# 1 0.012613 -0.004754 -0.000175 0.000000 0.000000 0.000000
# 2 -0.004754 0.021638 -0.000509 0.000000 0.000000 0.000000
# 3 -0.000175 -0.000509 0.020572 0.000000 0.000000 0.000000
# 4 0.000000 0.000000 0.000000 0.040815 0.000000 0.000000
# 5 0.000000 0.000000 0.000000 0.000000 0.037619 0.000000
# 6 0.000000 0.000000 0.000000 0.000000 0.000000 0.005210
#
#
# Mechanical properties :
#
#
# Convention : Reuss Voigt Hill
#
# Bulk Modulus (GPa) = 22.75393 25.42583 24.08988
# Shear Modulus (GPa) = 30.48918 59.53352 45.01135
#
# Velocity S-wave (km/s) = 3.97421 5.55340 4.82880
# Velocity P-wave (km/s) = 5.73118 7.36830 6.60069
#
# Compressibility (1/GPa) = 0.04394845
#
# Stress axis : x y z
#
# Youngs Moduli (GPa) = 79.28021 46.21457 48.60911
#
# Poissons Ratio (x) = 0.21972 0.00849
# Poissons Ratio (y) = 0.37692 0.02473
# Poissons Ratio (z) = 0.01385 0.02351
#
# Static dielectric constant tensor:
#      x y z
#    x 1.735610 0.000000 0.000000 
#    y 0.000000 1.671320 0.000000 
#    z 0.000000 0.000000 1.717890 
# 
# From -- ./inp_files/8314.got.cif
#   From: 2010.05.17/outbox.cif.g08.bks.cpg/sg68_5_cif.got.tgz:8314.got - 2010.06.03 18:57:09.
