data_PCOD9506643
_publ_section_title
;
Structure prediction by ZEFSAII (Michael W. Deem and Ramdas Pophale) SiO2 
 PCOD9506643
Probable space group: C C C A
;
_chemical_formula_sum "Si O2"
_cell_formula_units_Z 88
_cell_length_a 18.641412
_cell_length_b 21.574550
_cell_length_c 9.700523
_cell_angle_alpha 90.000000
_cell_angle_beta 90.000000
_cell_angle_gamma 90.000000
_cell_volume 3901.357070
_symmetry_space_group_name_H-M "C C C A"
_symmetry_group_IT_number 68
_space_group.IT_coordinate_system_code '2'
_symmetry_cell_setting 'orthorhombic'
loop_
_space_group_symop_operation_xyz
x,y,z
-x,1/2-y,z
x,1/2-y,1/2-z
-x,y,1/2-z
-x,-y,-z
x,1/2+y,-z
-x,1/2+y,1/2+z
x,-y,1/2+z
1/2+x,1/2+y,z
1/2-x,-y,z
1/2+x,-y,1/2-z
1/2-x,1/2+y,1/2-z
1/2-x,1/2-y,-z
1/2+x,y,-z
1/2-x,y,1/2+z
1/2+x,1/2-y,1/2+z
loop_
_atom_site_type_symbol
_atom_site_label
_atom_site_fract_x
_atom_site_fract_y
_atom_site_fract_z
Si Si1 0.167003 0.893645 0.841640
Si Si2 0.438217 0.354531 0.151838
Si Si3 0.250000 0.500000 0.768354
Si Si4 0.287160 0.791759 0.883620
Si Si5 0.942467 0.423296 0.126914
Si Si6 0.621281 0.940291 0.890179
O O1 0.235080 0.850300 0.860609
O O2 0.121731 0.884735 0.702116
O O3 0.193989 0.963958 0.824359
O O4 0.119658 0.895114 0.978880
O O5 0.500000 0.324918 0.250000
O O6 0.370106 0.313111 0.105941
O O7 0.408960 0.407906 0.254380
O O8 0.464411 0.388106 0.012139
O O9 0.294638 0.547152 0.860633
O O10 0.284608 0.750000 0.750000
O O11 0.250000 0.750000 0.000000
O O12 0.915508 0.492685 0.088706
O O13 0.000000 0.429414 0.250000
#
# Coordination Sequence:
#
# PCOD9506643 Si02
#       6
#    16  16   8  16  16  16
#     4  11  23  41  69 103 139 182 234 292 363 430
#     4  12  26  45  69 100 142 192 245 300 371 448
#     4  10  20  34  66 104 144 172 226 286 362 434
#     4  12  27  48  73 101 138 186 249 315 362 424
#     4  11  24  42  65 104 149 190 230 288 363 447
#     4  11  22  37  67 104 146 188 231 289 362 447
#
# _framework density 22.556253000000002
#
# number of rings (size 3 to 8) (size 9 to 14) (size 15 to 20)
#    0.000    0.727    1.818    6.545    5.091    2.545 
#    0.000    0.000    0.000    3.818    0.000    0.000 
#    0.000    0.000    0.000    0.000    0.000    0.000 
#
# Total GULP energy -245911.722958 kJ/mol
# GULP energy per Si atom -5588.902794 kJ/mol
# Density = 2.250491 g / cm^3
# Si number density = 22.556253 Si / 1000 Ang^3
#
#
#
# Elastic Constant Matrix: (Units=GPa)
#
#
# Indices 1 2 3 4 5 6 
#
# 1 128.9696 28.4583 39.6178 0.0000 0.0000 0.0000
# 2 28.4583 58.5791 28.3752 0.0000 0.0000 0.0000
# 3 39.6178 28.3752 135.4896 0.0000 0.0000 0.0000
# 4 0.0000 0.0000 0.0000 32.0045 0.0000 0.0000
# 5 0.0000 0.0000 0.0000 0.0000 38.2772 0.0000
# 6 0.0000 0.0000 0.0000 0.0000 0.0000 24.3925
#
#
#
# Elastic Compliance Matrix: (Units=1/GPa)
#
#
# Indices 1 2 3 4 5 6 
#
# 1 0.009119 -0.003493 -0.001935 0.000000 0.000000 0.000000
# 2 -0.003493 0.020336 -0.003238 0.000000 0.000000 0.000000
# 3 -0.001935 -0.003238 0.008624 0.000000 0.000000 0.000000
# 4 0.000000 0.000000 0.000000 0.031246 0.000000 0.000000
# 5 0.000000 0.000000 0.000000 0.000000 0.026125 0.000000
# 6 0.000000 0.000000 0.000000 0.000000 0.000000 0.040996
#
#
# Mechanical properties :
#
#
# Convention : Reuss Voigt Hill
#
# Bulk Modulus (GPa) = 48.19570 57.32677 52.76124
# Shear Modulus (GPa) = 31.11518 34.04063 32.57790
#
# Velocity S-wave (km/s) = 3.71812 3.88898 3.80451
# Velocity P-wave (km/s) = 6.31236 6.75543 6.53765
#
# Compressibility (1/GPa) = 0.02074874
#
# Stress axis : x y z
#
# Youngs Moduli (GPa) = 109.66281 49.17385 115.94926
#
# Poissons Ratio (x) = 0.17175 0.22435
# Poissons Ratio (y) = 0.38303 0.37540
# Poissons Ratio (z) = 0.21219 0.15921
#
# Static dielectric constant tensor:
#      x y z
#    x 1.885460 0.000000 0.000000 
#    y 0.000000 1.803060 0.000000 
#    z 0.000000 0.000000 1.913860 
# 
# From -- ./inp_files/7124.got.cif
#   From: 2010.05.17/outbox.cif.g08.bks.cpg/sg68_4_cif.got.tgz:7124.got - 2010.06.03 18:57:09.
