data_PCOD9506851
_publ_section_title
;
Structure prediction by ZEFSAII (Michael W. Deem and Ramdas Pophale) SiO2 
 PCOD9506851
Probable space group: C C C A
;
_chemical_formula_sum "Si O2"
_cell_formula_units_Z 96
_cell_length_a 13.074516
_cell_length_b 20.825649
_cell_length_c 16.968329
_cell_angle_alpha 90.000000
_cell_angle_beta 90.000000
_cell_angle_gamma 90.000000
_cell_volume 4620.226231
_symmetry_space_group_name_H-M "C C C A"
_symmetry_group_IT_number 68
_space_group.IT_coordinate_system_code '2'
_symmetry_cell_setting 'orthorhombic'
loop_
_space_group_symop_operation_xyz
x,y,z
-x,1/2-y,z
x,1/2-y,1/2-z
-x,y,1/2-z
-x,-y,-z
x,1/2+y,-z
-x,1/2+y,1/2+z
x,-y,1/2+z
1/2+x,1/2+y,z
1/2-x,-y,z
1/2+x,-y,1/2-z
1/2-x,1/2+y,1/2-z
1/2-x,1/2-y,-z
1/2+x,y,-z
1/2-x,y,1/2+z
1/2+x,1/2-y,1/2+z
loop_
_atom_site_type_symbol
_atom_site_label
_atom_site_fract_x
_atom_site_fract_y
_atom_site_fract_z
Si Si1 0.443449 0.593463 0.484771
Si Si2 0.620857 0.176914 0.232092
Si Si3 0.694355 0.317284 0.437839
Si Si4 0.961883 0.498132 0.873169
Si Si5 0.410016 0.704040 0.021034
Si Si6 0.656723 0.458101 0.219564
O O1 0.340953 0.636611 0.490337
O O2 0.425964 0.536622 0.547036
O O3 0.489653 0.565534 0.403598
O O4 0.531655 0.642867 0.512597
O O5 0.654805 0.250000 0.250000
O O6 0.500000 0.173495 0.250000
O O7 0.637869 0.161786 0.140554
O O8 0.678073 0.117631 0.273044
O O9 0.648777 0.247078 0.456684
O O10 0.815447 0.316312 0.424780
O O11 0.059627 0.462908 0.836816
O O12 0.878543 0.490802 0.803557
O O13 0.500000 0.750000 0.054777
O O14 0.750000 0.500000 0.188804
#
# Coordination Sequence:
#
# PCOD9506851 Si02
#       6
#    16  16  16  16  16  16
#     4  10  20  36  63  86 119 161 205 266 315 383
#     4  11  23  38  67  95 123 165 214 274 320 372
#     4  10  20  38  59  93 124 154 212 258 323 384
#     4  10  22  39  56  89 121 158 216 254 320 383
#     4   9  21  36  59  86 120 161 193 269 321 372
#     4  11  23  41  60  86 129 171 207 260 327 396
#
# _framework density 20.778203000000001
#
# number of rings (size 3 to 8) (size 9 to 14) (size 15 to 20)
#    0.000    1.833    3.333    0.000   11.667    1.333 
#    6.000    3.333    0.000    0.500    0.000    2.333 
#    0.000    0.000    0.000    0.000    0.000    0.000 
#
# Total GULP energy -267298.111483 kJ/mol
# GULP energy per Si atom -5568.710656 kJ/mol
# Density = 2.073091 g / cm^3
# Si number density = 20.778203 Si / 1000 Ang^3
#
#
#
# Elastic Constant Matrix: (Units=GPa)
#
#
# Indices 1 2 3 4 5 6 
#
# 1 92.7527 12.6680 1.1160 0.0000 0.0000 0.0000
# 2 12.6680 91.6286 -5.3190 0.0000 0.0000 0.0000
# 3 1.1160 -5.3190 20.7089 0.0000 0.0000 0.0000
# 4 0.0000 0.0000 0.0000 18.1478 0.0000 0.0000
# 5 0.0000 0.0000 0.0000 0.0000 6.9303 0.0000
# 6 0.0000 0.0000 0.0000 0.0000 0.0000 18.0685
#
#
#
# Elastic Compliance Matrix: (Units=1/GPa)
#
#
# Indices 1 2 3 4 5 6 
#
# 1 0.011009 -0.001580 -0.000999 0.000000 0.000000 0.000000
# 2 -0.001580 0.011306 0.002989 0.000000 0.000000 0.000000
# 3 -0.000999 0.002989 0.049110 0.000000 0.000000 0.000000
# 4 0.000000 0.000000 0.000000 0.055103 0.000000 0.000000
# 5 0.000000 0.000000 0.000000 0.000000 0.144294 0.000000
# 6 0.000000 0.000000 0.000000 0.000000 0.000000 0.055345
#
#
# Mechanical properties :
#
#
# Convention : Reuss Voigt Hill
#
# Bulk Modulus (GPa) = 13.84193 24.66891 19.25542
# Shear Modulus (GPa) = 14.30906 21.73766 18.02336
#
# Velocity S-wave (km/s) = 2.62708 3.23797 2.94839
# Velocity P-wave (km/s) = 3.98475 5.08700 4.56923
#
# Compressibility (1/GPa) = 0.07224424
#
# Stress axis : x y z
#
# Youngs Moduli (GPa) = 90.83326 88.45188 20.36247
#
# Poissons Ratio (x) = 0.13976 0.02034
# Poissons Ratio (y) = 0.14352 -0.06086
# Poissons Ratio (z) = 0.09075 -0.26438
#
# Static dielectric constant tensor:
#      x y z
#    x 1.777240 0.000000 0.000000 
#    y 0.000000 1.821690 0.000000 
#    z 0.000000 0.000000 1.787250 
# 
# From -- ./inp_files/29798.got.cif
#   From: 2010.05.17/outbox.cif.g08.bks.cpg/sg68_15_cif.got.tgz:29798.got - 2010.06.03 18:57:09.
