data_PCOD9506028
_publ_section_title
;
Structure prediction by ZEFSAII (Michael W. Deem and Ramdas Pophale) SiO2 
 PCOD9506028
Probable space group: C C C A
;
_chemical_formula_sum "Si O2"
_cell_formula_units_Z 88
_cell_length_a 31.197416
_cell_length_b 5.013646
_cell_length_c 28.622952
_cell_angle_alpha 90.000000
_cell_angle_beta 90.000000
_cell_angle_gamma 90.000000
_cell_volume 4476.996065
_symmetry_space_group_name_H-M "C C C A"
_symmetry_group_IT_number 68
_space_group.IT_coordinate_system_code '2'
_symmetry_cell_setting 'orthorhombic'
loop_
_space_group_symop_operation_xyz
x,y,z
-x,1/2-y,z
x,1/2-y,1/2-z
-x,y,1/2-z
-x,-y,-z
x,1/2+y,-z
-x,1/2+y,1/2+z
x,-y,1/2+z
1/2+x,1/2+y,z
1/2-x,-y,z
1/2+x,-y,1/2-z
1/2-x,1/2+y,1/2-z
1/2-x,1/2-y,-z
1/2+x,y,-z
1/2-x,y,1/2+z
1/2+x,1/2-y,1/2+z
loop_
_atom_site_type_symbol
_atom_site_label
_atom_site_fract_x
_atom_site_fract_y
_atom_site_fract_z
Si Si1 0.940430 0.348591 0.699192
Si Si2 0.140898 0.198884 0.387827
Si Si3 0.200742 0.522683 0.031309
Si Si4 0.655520 0.307207 0.171492
Si Si5 0.222503 0.250000 0.750000
Si Si6 0.044115 0.660740 0.638264
O O1 0.953687 0.250000 0.750000
O O2 0.889020 0.362382 0.697568
O O3 0.954745 0.638131 0.682518
O O4 0.954516 0.135161 0.659717
O O5 0.165734 0.079834 0.432010
O O6 0.156373 0.491255 0.372305
O O7 0.088750 0.200738 0.389867
O O8 0.152815 0.995462 0.346145
O O9 0.250000 0.500000 0.049309
O O10 0.196298 0.823614 0.012994
O O11 0.693628 0.347859 0.207137
O O12 0.250000 0.500000 0.733630
O O13 0.000000 0.750000 0.613234
#
# Coordination Sequence:
#
# PCOD9506028 Si02
#       6
#    16  16  16  16   8  16
#     4  10  19  33  52  70 103 147 186 235 275 311
#     4  10  21  37  60  79 109 150 178 222 284 333
#     4  10  21  38  61  88 111 133 172 229 283 338
#     4  10  21  37  52  76 108 149 192 223 266 329
#     4  12  24  36  52  76 109 148 191 238 272 306
#     4  10  21  33  50  79 108 141 185 227 273 325
#
# _framework density 19.656037000000001
#
# number of rings (size 3 to 8) (size 9 to 14) (size 15 to 20)
#    0.000    1.818    0.909    3.273    0.000    4.364 
#    0.000    0.000    0.000    1.091    0.000    0.000 
#    0.000    0.000    0.000    0.000    0.000    0.000 
#
# Total GULP energy -245605.606188 kJ/mol
# GULP energy per Si atom -5581.945595 kJ/mol
# Density = 1.961130 g / cm^3
# Si number density = 19.656037 Si / 1000 Ang^3
#
#
#
# Elastic Constant Matrix: (Units=GPa)
#
#
# Indices 1 2 3 4 5 6 
#
# 1 137.0663 15.3746 42.8151 0.0000 0.0000 0.0000
# 2 15.3746 80.3188 -8.2485 0.0000 0.0000 0.0000
# 3 42.8151 -8.2485 40.1566 0.0000 0.0000 0.0000
# 4 0.0000 0.0000 0.0000 15.0629 0.0000 0.0000
# 5 0.0000 0.0000 0.0000 0.0000 -105.4869 0.0000
# 6 0.0000 0.0000 0.0000 0.0000 0.0000 28.4212
#
#
#
# Elastic Compliance Matrix: (Units=1/GPa)
#
#
# Indices 1 2 3 4 5 6 
#
# 1 0.011907 -0.003660 -0.013447 0.000000 0.000000 0.000000
# 2 -0.003660 0.013844 0.006746 0.000000 0.000000 0.000000
# 3 -0.013447 0.006746 0.040625 0.000000 0.000000 0.000000
# 4 0.000000 0.000000 0.000000 0.066388 0.000000 0.000000
# 5 0.000000 0.000000 0.000000 0.000000 -0.009480 0.000000
# 6 0.000000 0.000000 0.000000 0.000000 0.000000 0.035185
#
#
# Mechanical properties :
#
#
# Convention : Reuss Voigt Hill
#
# Bulk Modulus (GPa) = 21.90387 39.71379 30.80883
# Shear Modulus (GPa) = 25.71908 1.43946 13.57927
#
# Velocity S-wave (km/s) = 3.62118 0.85669 2.63124
# Velocity P-wave (km/s) = 5.35273 4.60725 4.99392
#
# Compressibility (1/GPa) = 0.04565403
#
# Stress axis : x y z
#
# Youngs Moduli (GPa) = 83.98709 72.23451 24.61534
#
# Poissons Ratio (x) = 0.26438 0.33099
# Poissons Ratio (y) = 0.30740 -0.16606
# Poissons Ratio (z) = 1.12935 -0.48730
#
# Static dielectric constant tensor:
#      x y z
#    x 1.752170 0.000000 0.000000 
#    y 0.000000 1.660910 0.000000 
#    z 0.000000 0.000000 1.665310 
# 
# From -- ./inp_files/52467.got.cif
#   From: 2010.05.17/outbox.cif.g08.bks.cpg/sg68_27_cif.got.tgz:52467.got - 2010.06.03 18:57:09.
