data_PCOD9506155
_publ_section_title
;
Structure prediction by ZEFSAII (Michael W. Deem and Ramdas Pophale) SiO2 
 PCOD9506155
Probable space group: C C C A
;
_chemical_formula_sum "Si O2"
_cell_formula_units_Z 88
_cell_length_a 15.388570
_cell_length_b 12.986552
_cell_length_c 17.259864
_cell_angle_alpha 90.000000
_cell_angle_beta 90.000000
_cell_angle_gamma 90.000000
_cell_volume 3449.288279
_symmetry_space_group_name_H-M "C C C A"
_symmetry_group_IT_number 68
_space_group.IT_coordinate_system_code '2'
_symmetry_cell_setting 'orthorhombic'
loop_
_space_group_symop_operation_xyz
x,y,z
-x,1/2-y,z
x,1/2-y,1/2-z
-x,y,1/2-z
-x,-y,-z
x,1/2+y,-z
-x,1/2+y,1/2+z
x,-y,1/2+z
1/2+x,1/2+y,z
1/2-x,-y,z
1/2+x,-y,1/2-z
1/2-x,1/2+y,1/2-z
1/2-x,1/2-y,-z
1/2+x,y,-z
1/2-x,y,1/2+z
1/2+x,1/2-y,1/2+z
loop_
_atom_site_type_symbol
_atom_site_label
_atom_site_fract_x
_atom_site_fract_y
_atom_site_fract_z
Si Si1 0.570289 0.879805 0.688466
Si Si2 0.669226 0.145712 0.514492
Si Si3 0.411799 0.597212 0.277867
Si Si4 0.325821 0.061571 0.570042
Si Si5 0.738074 0.123312 0.679734
Si Si6 0.500000 0.750000 0.945462
O O1 0.500000 0.844506 0.750000
O O2 0.665740 0.831499 0.685079
O O3 0.527310 0.848386 0.607289
O O4 0.585372 0.994604 0.722888
O O5 0.765012 0.147548 0.471304
O O6 0.686208 0.158602 0.604617
O O7 0.587313 0.213793 0.488811
O O8 0.646912 0.024637 0.493252
O O9 0.500000 0.648277 0.250000
O O10 0.402628 0.583569 0.370231
O O11 0.320064 0.643795 0.254074
O O12 0.250000 0.000000 0.618244
O O13 0.750000 0.000000 0.668231
#
# Coordination Sequence:
#
# PCOD9506155 Si02
#       6
#    16  16  16  16  16   8
#     4  10  22  35  59  92 121 159 205 261 314 377
#     4   9  20  36  59  90 122 173 199 262 322 389
#     4  10  19  34  62  92 117 156 206 270 311 366
#     4   8  17  35  58  86 124 158 218 255 321 372
#     4  10  19  39  61  86 122 160 212 257 319 375
#     4  12  23  38  58  92 137 156 210 258 330 399
#
# _framework density 25.512508
#
# number of rings (size 3 to 8) (size 9 to 14) (size 15 to 20)
#    1.091    1.091    1.818    4.091    2.545    0.727 
#    3.273    2.727    0.000    0.000    0.000    0.000 
#    0.000    0.000    0.000    0.000    0.000    0.000 
#
# Total GULP energy -245178.721891 kJ/mol
# GULP energy per Si atom -5572.243679 kJ/mol
# Density = 2.545444 g / cm^3
# Si number density = 25.512508 Si / 1000 Ang^3
#
#
#
# Elastic Constant Matrix: (Units=GPa)
#
#
# Indices 1 2 3 4 5 6 
#
# 1 176.6380 -0.5482 52.2957 0.0000 0.0000 0.0000
# 2 -0.5482 97.2057 14.3205 0.0000 0.0000 0.0000
# 3 52.2957 14.3205 88.6421 0.0000 0.0000 0.0000
# 4 0.0000 0.0000 0.0000 7.1844 0.0000 0.0000
# 5 0.0000 0.0000 0.0000 0.0000 34.7026 0.0000
# 6 0.0000 0.0000 0.0000 0.0000 0.0000 73.2920
#
#
#
# Elastic Compliance Matrix: (Units=1/GPa)
#
#
# Indices 1 2 3 4 5 6 
#
# 1 0.006900 0.000654 -0.004176 0.000000 0.000000 0.000000
# 2 0.000654 0.010600 -0.002098 0.000000 0.000000 0.000000
# 3 -0.004176 -0.002098 0.014084 0.000000 0.000000 0.000000
# 4 0.000000 0.000000 0.000000 0.139190 0.000000 0.000000
# 5 0.000000 0.000000 0.000000 0.000000 0.028816 0.000000
# 6 0.000000 0.000000 0.000000 0.000000 0.000000 0.013644
#
#
# Mechanical properties :
#
#
# Convention : Reuss Voigt Hill
#
# Bulk Modulus (GPa) = 49.15675 54.95799 52.05737
# Shear Modulus (GPa) = 21.62100 42.79699 32.20899
#
# Velocity S-wave (km/s) = 2.91429 4.10016 3.55699
# Velocity P-wave (km/s) = 5.53476 6.63351 6.10889
#
# Compressibility (1/GPa) = 0.02034309
#
# Stress axis : x y z
#
# Youngs Moduli (GPa) = 144.93239 94.33698 71.00153
#
# Poissons Ratio (x) = -0.06171 0.29652
# Poissons Ratio (y) = -0.09481 0.14899
# Poissons Ratio (z) = 0.60528 0.19796
#
# Static dielectric constant tensor:
#      x y z
#    x 2.131390 0.000000 0.000000 
#    y 0.000000 1.523230 0.000000 
#    z 0.000000 0.000000 1.963120 
# 
# From -- ./inp_files/30940.got.cif
#   From: 2010.05.17/outbox.cif.g08.bks.cpg/sg68_16_cif.got.tgz:30940.got - 2010.06.03 18:57:09.
