data_PCOD9506268
_publ_section_title
;
Structure prediction by ZEFSAII (Michael W. Deem and Ramdas Pophale) SiO2 
 PCOD9506268
Probable space group: C C C A
;
_chemical_formula_sum "Si O2"
_cell_formula_units_Z 112
_cell_length_a 17.066639
_cell_length_b 14.676790
_cell_length_c 22.303947
_cell_angle_alpha 90.000000
_cell_angle_beta 90.000000
_cell_angle_gamma 90.000000
_cell_volume 5586.770187
_symmetry_space_group_name_H-M "C C C A"
_symmetry_group_IT_number 68
_space_group.IT_coordinate_system_code '2'
_symmetry_cell_setting 'orthorhombic'
loop_
_space_group_symop_operation_xyz
x,y,z
-x,1/2-y,z
x,1/2-y,1/2-z
-x,y,1/2-z
-x,-y,-z
x,1/2+y,-z
-x,1/2+y,1/2+z
x,-y,1/2+z
1/2+x,1/2+y,z
1/2-x,-y,z
1/2+x,-y,1/2-z
1/2-x,1/2+y,1/2-z
1/2-x,1/2-y,-z
1/2+x,y,-z
1/2-x,y,1/2+z
1/2+x,1/2-y,1/2+z
loop_
_atom_site_type_symbol
_atom_site_label
_atom_site_fract_x
_atom_site_fract_y
_atom_site_fract_z
Si Si1 0.802946 0.124406 0.445265
Si Si2 0.409690 0.023083 0.992109
Si Si3 0.410460 0.221876 0.364331
Si Si4 0.712795 0.873734 0.192952
Si Si5 0.640124 0.467821 0.359100
Si Si6 0.851805 0.714952 0.008374
Si Si7 0.761589 0.174694 0.821486
O O1 0.850929 0.036091 0.465639
O O2 0.857021 0.213897 0.454276
O O3 0.731248 0.159529 0.487797
O O4 0.764790 0.119591 0.379879
O O5 0.380178 0.000644 0.925352
O O6 0.500000 0.000000 0.000000
O O7 0.408588 0.130289 0.004191
O O8 0.500000 0.250000 0.366784
O O9 0.413431 0.117619 0.342246
O O10 0.371555 0.229939 0.430847
O O11 0.350200 0.285701 0.326808
O O12 0.776545 0.915077 0.146975
O O13 0.707980 0.766693 0.179967
O O14 0.747124 0.878155 0.260008
O O15 0.641859 0.943275 0.183066
#
# Coordination Sequence:
#
# PCOD9506268 Si02
#       7
#    16  16  16  16  16  16  16
#     4  10  21  37  59  87 122 155 205 257 312 368
#     4  12  24  36  58  91 127 159 204 252 326 386
#     4  10  19  36  60  88 132 163 200 252 320 379
#     4   9  19  36  64  84 114 154 213 252 288 364
#     4  10  20  36  60  84 118 163 204 246 303 384
#     4  10  21  35  58  90 122 167 196 254 308 383
#     4   9  19  38  59  92 116 155 211 260 306 349
#
# _framework density 20.047360000000001
#
# number of rings (size 3 to 8) (size 9 to 14) (size 15 to 20)
#    0.000    2.000    1.429    2.143    6.000    0.000 
#   10.286    5.714    3.143    0.000    0.000    2.000 
#    0.000    0.000    0.000    0.000    0.000    0.000 
#
# Total GULP energy -311936.437973 kJ/mol
# GULP energy per Si atom -5570.293535 kJ/mol
# Density = 2.000173 g / cm^3
# Si number density = 20.047360 Si / 1000 Ang^3
#
#
#
# Elastic Constant Matrix: (Units=GPa)
#
#
# Indices 1 2 3 4 5 6 
#
# 1 60.9057 29.8705 30.2529 0.0000 0.0000 0.0000
# 2 29.8705 86.1133 21.2974 0.0000 0.0000 0.0000
# 3 30.2529 21.2974 109.5114 0.0000 0.0000 0.0000
# 4 0.0000 0.0000 0.0000 5.8885 0.0000 0.0000
# 5 0.0000 0.0000 0.0000 0.0000 -0.0170 0.0000
# 6 0.0000 0.0000 0.0000 0.0000 0.0000 22.0240
#
#
#
# Elastic Compliance Matrix: (Units=1/GPa)
#
#
# Indices 1 2 3 4 5 6 
#
# 1 0.021964 -0.006427 -0.004818 0.000000 0.000000 0.000000
# 2 -0.006427 0.014080 -0.000963 0.000000 0.000000 0.000000
# 3 -0.004818 -0.000963 0.010650 0.000000 0.000000 0.000000
# 4 0.000000 0.000000 0.000000 0.169823 0.000000 0.000000
# 5 0.000000 0.000000 0.000000 0.000000-58.828398 0.000000
# 6 0.000000 0.000000 0.000000 0.000000 0.000000 0.045405
#
#
# Mechanical properties :
#
#
# Convention : Reuss Voigt Hill
#
# Bulk Modulus (GPa) = 44.88638 46.59689 45.74163
# Shear Modulus (GPa) = -0.08542 17.25308 8.58383
#
# Velocity S-wave (km/s) = -0.20664 2.93681 2.07149
# Velocity P-wave (km/s) = 4.73095 5.89861 5.34675
#
# Compressibility (1/GPa) = 0.02227847
#
# Stress axis : x y z
#
# Youngs Moduli (GPa) = 45.52901 71.02194 93.90031
#
# Poissons Ratio (x) = 0.45648 0.45238
# Poissons Ratio (y) = 0.29263 0.09040
# Poissons Ratio (z) = 0.21934 0.06837
#
# Static dielectric constant tensor:
#      x y z
#    x 1.796130 0.000000 0.000000 
#    y 0.000000 1.807190 0.000000 
#    z 0.000000 0.000000 1.732540 
# 
# From -- ./inp_files/45541.got.cif
#   From: 2010.05.17/outbox.cif.g08.bks.cpg/sg68_23_cif.got.tgz:45541.got - 2010.06.03 18:57:09.
