data_PCOD9506819
_publ_section_title
;
Structure prediction by ZEFSAII (Michael W. Deem and Ramdas Pophale) SiO2 
 PCOD9506819
Probable space group: C C C A
;
_chemical_formula_sum "Si O2"
_cell_formula_units_Z 88
_cell_length_a 8.104727
_cell_length_b 23.550384
_cell_length_c 18.313672
_cell_angle_alpha 90.000000
_cell_angle_beta 90.000000
_cell_angle_gamma 90.000000
_cell_volume 3495.520192
_symmetry_space_group_name_H-M "C C C A"
_symmetry_group_IT_number 68
_space_group.IT_coordinate_system_code '2'
_symmetry_cell_setting 'orthorhombic'
loop_
_space_group_symop_operation_xyz
x,y,z
-x,1/2-y,z
x,1/2-y,1/2-z
-x,y,1/2-z
-x,-y,-z
x,1/2+y,-z
-x,1/2+y,1/2+z
x,-y,1/2+z
1/2+x,1/2+y,z
1/2-x,-y,z
1/2+x,-y,1/2-z
1/2-x,1/2+y,1/2-z
1/2-x,1/2-y,-z
1/2+x,y,-z
1/2-x,y,1/2+z
1/2+x,1/2-y,1/2+z
loop_
_atom_site_type_symbol
_atom_site_label
_atom_site_fract_x
_atom_site_fract_y
_atom_site_fract_z
Si Si1 0.808191 0.403789 0.270354
Si Si2 0.678957 0.790438 0.935188
Si Si3 0.403340 0.466995 0.583572
Si Si4 0.837236 0.289016 0.335208
Si Si5 0.250000 0.000000 0.656755
Si Si6 0.482369 0.645628 0.466337
O O1 0.810360 0.437109 0.347149
O O2 0.766922 0.337192 0.281373
O O3 0.729374 0.444264 0.209250
O O4 0.000000 0.400258 0.250000
O O5 0.702005 0.755679 0.862073
O O6 0.801147 0.844349 0.936150
O O7 0.750000 0.750000 0.000000
O O8 0.509641 0.817936 0.960654
O O9 0.250000 0.500000 0.548868
O O10 0.574582 0.493585 0.614442
O O11 0.466089 0.418637 0.528628
O O12 0.902704 0.325447 0.404650
O O13 0.000000 0.250000 0.319443
#
# Coordination Sequence:
#
# PCOD9506819 Si02
#       6
#    16  16  16  16   8  16
#     4   9  17  30  54  86 118 158 204 256 320 380
#     4   9  16  32  57  83 116 155 201 253 313 377
#     4  10  20  37  58  84 126 164 210 263 313 373
#     4   8  15  28  51  84 120 150 199 258 307 385
#     4  10  20  36  60  88 122 164 220 262 310 398
#     4   9  18  33  55  85 116 158 207 250 315 381
#
# _framework density 25.175079
#
# number of rings (size 3 to 8) (size 9 to 14) (size 15 to 20)
#    0.000    2.909    0.909    1.636    0.000    0.364 
#    3.273    0.909    0.000    0.000   18.909    0.000 
#    0.000    0.000    0.000    0.000    0.000    0.000 
#
# Total GULP energy -245468.315514 kJ/mol
# GULP energy per Si atom -5578.825353 kJ/mol
# Density = 2.511778 g / cm^3
# Si number density = 25.175079 Si / 1000 Ang^3
#
#
#
# Elastic Constant Matrix: (Units=GPa)
#
#
# Indices 1 2 3 4 5 6 
#
# 1 121.7358 75.9126 22.5146 0.0000 0.0000 0.0000
# 2 75.9126 174.6535 58.6960 0.0000 0.0000 0.0000
# 3 22.5146 58.6960 60.3235 0.0000 0.0000 0.0000
# 4 0.0000 0.0000 0.0000 40.7497 0.0000 0.0000
# 5 0.0000 0.0000 0.0000 0.0000 -7.2142 0.0000
# 6 0.0000 0.0000 0.0000 0.0000 0.0000 37.4124
#
#
#
# Elastic Compliance Matrix: (Units=1/GPa)
#
#
# Indices 1 2 3 4 5 6 
#
# 1 0.011297 -0.005191 0.000834 0.000000 0.000000 0.000000
# 2 -0.005191 0.010892 -0.008661 0.000000 0.000000 0.000000
# 3 0.000834 -0.008661 0.024694 0.000000 0.000000 0.000000
# 4 0.000000 0.000000 0.000000 0.024540 0.000000 0.000000
# 5 0.000000 0.000000 0.000000 0.000000 -0.138615 0.000000
# 6 0.000000 0.000000 0.000000 0.000000 0.000000 0.026729
#
#
# Mechanical properties :
#
#
# Convention : Reuss Voigt Hill
#
# Bulk Modulus (GPa) = 47.96721 74.55100 61.25911
# Shear Modulus (GPa) = -668.66051 27.49554 -320.58248
#
# Velocity S-wave (km/s) = -16.31505 3.30839 -11.29680
# Velocity P-wave (km/s) = 18.32520 6.65366 12.07356
#
# Compressibility (1/GPa) = 0.02084757
#
# Stress axis : x y z
#
# Youngs Moduli (GPa) = 88.51934 91.80635 40.49624
#
# Poissons Ratio (x) = 0.47652 -0.03378
# Poissons Ratio (y) = 0.45946 0.35075
# Poissons Ratio (z) = -0.07383 0.79517
#
# Static dielectric constant tensor:
#      x y z
#    x 2.037190 0.000000 0.000000 
#    y 0.000000 1.954970 0.000000 
#    z 0.000000 0.000000 2.052210 
# 
# From -- ./inp_files/43153.got.cif
#   From: 2010.05.17/outbox.cif.g08.bks.cpg/sg68_22_cif.got.tgz:43153.got - 2010.06.03 18:57:09.
