data_PCOD9506336
_publ_section_title
;
Structure prediction by ZEFSAII (Michael W. Deem and Ramdas Pophale) SiO2 
 PCOD9506336
Probable space group: C C C A
;
_chemical_formula_sum "Si O2"
_cell_formula_units_Z 80
_cell_length_a 10.368925
_cell_length_b 14.875809
_cell_length_c 21.390785
_cell_angle_alpha 90.000000
_cell_angle_beta 90.000000
_cell_angle_gamma 90.000000
_cell_volume 3299.446185
_symmetry_space_group_name_H-M "C C C A"
_symmetry_group_IT_number 68
_space_group.IT_coordinate_system_code '2'
_symmetry_cell_setting 'orthorhombic'
loop_
_space_group_symop_operation_xyz
x,y,z
-x,1/2-y,z
x,1/2-y,1/2-z
-x,y,1/2-z
-x,-y,-z
x,1/2+y,-z
-x,1/2+y,1/2+z
x,-y,1/2+z
1/2+x,1/2+y,z
1/2-x,-y,z
1/2+x,-y,1/2-z
1/2-x,1/2+y,1/2-z
1/2-x,1/2-y,-z
1/2+x,y,-z
1/2-x,y,1/2+z
1/2+x,1/2-y,1/2+z
loop_
_atom_site_type_symbol
_atom_site_label
_atom_site_fract_x
_atom_site_fract_y
_atom_site_fract_z
Si Si1 0.064591 0.093561 0.479110
Si Si2 0.382738 0.692869 0.894132
Si Si3 0.012485 0.853522 0.844635
Si Si4 0.274155 0.621286 0.613834
Si Si5 0.469752 0.046314 0.180372
O O1 0.707711 0.085816 0.550542
O O2 0.073037 0.157194 0.538778
O O3 0.990568 0.137131 0.419909
O O4 0.000000 0.000000 0.500000
O O5 0.500000 0.750000 0.863941
O O6 0.281397 0.771708 0.898781
O O7 0.359829 0.606849 0.851503
O O8 0.162161 0.883057 0.834524
O O9 0.000000 0.750000 0.825044
O O10 0.939867 0.940415 0.818181
O O11 0.403178 0.571109 0.636787
O O12 0.500000 0.076983 0.250000
#
# Coordination Sequence:
#
# PCOD9506336 Si02
#       5
#    16  16  16  16  16
#     4  10  19  37  67  96 142 172 221 273 352 415
#     4  10  19  37  64 101 136 178 223 284 344 411
#     4  10  22  41  65  96 135 177 220 283 349 406
#     4   9  22  38  66 101 134 174 228 273 345 410
#     4  11  23  43  67  95 133 187 237 283 335 411
#
# _framework density 24.246492
#
# number of rings (size 3 to 8) (size 9 to 14) (size 15 to 20)
#    1.200    0.800    2.000    1.800    0.000    4.000 
#    0.000    7.000    0.000    0.000    0.000    0.000 
#    0.000    0.000    0.000    0.000    0.000    0.000 
#
# Total GULP energy -222835.313909 kJ/mol
# GULP energy per Si atom -5570.882848 kJ/mol
# Density = 2.419131 g / cm^3
# Si number density = 24.246492 Si / 1000 Ang^3
#
#
#
# Elastic Constant Matrix: (Units=GPa)
#
#
# Indices 1 2 3 4 5 6 
#
# 1 63.1699 33.9909 4.8059 0.0000 0.0000 0.0000
# 2 33.9909 224.1353 42.6163 0.0000 0.0000 0.0000
# 3 4.8059 42.6163 122.7972 0.0000 0.0000 0.0000
# 4 0.0000 0.0000 0.0000 -11.7138 0.0000 0.0000
# 5 0.0000 0.0000 0.0000 0.0000 9.7043 0.0000
# 6 0.0000 0.0000 0.0000 0.0000 0.0000 37.5405
#
#
#
# Elastic Compliance Matrix: (Units=1/GPa)
#
#
# Indices 1 2 3 4 5 6 
#
# 1 0.017244 -0.002662 0.000249 0.000000 0.000000 0.000000
# 2 -0.002662 0.005188 -0.001696 0.000000 0.000000 0.000000
# 3 0.000249 -0.001696 0.008722 0.000000 0.000000 0.000000
# 4 0.000000 0.000000 0.000000 -0.085370 0.000000 0.000000
# 5 0.000000 0.000000 0.000000 0.000000 0.103048 0.000000
# 6 0.000000 0.000000 0.000000 0.000000 0.000000 0.026638
#
#
# Mechanical properties :
#
#
# Convention : Reuss Voigt Hill
#
# Bulk Modulus (GPa) = 43.60117 63.65871 53.62994
# Shear Modulus (GPa) = 54.74386 29.01882 41.88134
#
# Velocity S-wave (km/s) = 4.75679 3.46327 4.16061
# Velocity P-wave (km/s) = 6.94197 6.50416 6.72663
#
# Compressibility (1/GPa) = 0.02293517
#
# Stress axis : x y z
#
# Youngs Moduli (GPa) = 57.99111 192.75685 114.64691
#
# Poissons Ratio (x) = 0.51321 -0.02856
# Poissons Ratio (y) = 0.15440 0.19447
# Poissons Ratio (z) = -0.01445 0.32696
#
# Static dielectric constant tensor:
#      x y z
#    x 2.263380 0.000000 0.000000 
#    y 0.000000 2.045590 0.000000 
#    z 0.000000 0.000000 1.883530 
# 
# From -- ./inp_files/38400.got.cif
#   From: 2010.05.17/outbox.cif.g08.bks.cpg/sg68_20_cif.got.tgz:38400.got - 2010.06.03 18:57:09.
