data_PCOD9506395
_publ_section_title
;
Structure prediction by ZEFSAII (Michael W. Deem and Ramdas Pophale) SiO2 
 PCOD9506395
Probable space group: C C C A
;
_chemical_formula_sum "Si O2"
_cell_formula_units_Z 88
_cell_length_a 16.783566
_cell_length_b 17.442882
_cell_length_c 12.105962
_cell_angle_alpha 90.000000
_cell_angle_beta 90.000000
_cell_angle_gamma 90.000000
_cell_volume 3544.065909
_symmetry_space_group_name_H-M "C C C A"
_symmetry_group_IT_number 68
_space_group.IT_coordinate_system_code '2'
_symmetry_cell_setting 'orthorhombic'
loop_
_space_group_symop_operation_xyz
x,y,z
-x,1/2-y,z
x,1/2-y,1/2-z
-x,y,1/2-z
-x,-y,-z
x,1/2+y,-z
-x,1/2+y,1/2+z
x,-y,1/2+z
1/2+x,1/2+y,z
1/2-x,-y,z
1/2+x,-y,1/2-z
1/2-x,1/2+y,1/2-z
1/2-x,1/2-y,-z
1/2+x,y,-z
1/2-x,y,1/2+z
1/2+x,1/2-y,1/2+z
loop_
_atom_site_type_symbol
_atom_site_label
_atom_site_fract_x
_atom_site_fract_y
_atom_site_fract_z
Si Si1 0.131419 0.004256 0.264133
Si Si2 0.806266 0.250000 0.750000
Si Si3 0.712346 0.878462 0.581295
Si Si4 0.451893 0.673879 0.477862
Si Si5 0.250000 0.500000 0.421299
Si Si6 0.500000 0.879977 0.250000
Si Si7 0.439905 0.141605 0.155745
O O1 0.176188 0.951893 0.353540
O O2 0.084852 0.940329 0.198492
O O3 0.187763 0.035127 0.166520
O O4 0.070221 0.068222 0.302364
O O5 0.761861 0.187339 0.670163
O O6 0.863401 0.197942 0.830039
O O7 0.637790 0.839322 0.517812
O O8 0.770044 0.924388 0.496332
O O9 0.500000 0.750000 0.514308
O O10 0.460033 0.666512 0.348136
O O11 0.510077 0.619581 0.546919
O O12 0.500000 0.170913 0.250000
#
# Coordination Sequence:
#
# PCOD9506395 Si02
#       7
#    16   8  16  16   8   8  16
#     4  11  24  41  65 102 134 184 249 294 364 440
#     4  10  19  38  70 108 130 176 244 295 362 435
#     4  11  23  42  72  98 142 192 241 304 360 445
#     4  12  22  39  69 104 142 178 237 307 379 440
#     4  12  26  46  64  98 148 200 232 300 374 448
#     4  12  25  40  64 103 144 186 240 308 376 427
#     4  11  18  35  68 100 130 170 235 302 353 425
#
# _framework density 24.830237
#
# number of rings (size 3 to 8) (size 9 to 14) (size 15 to 20)
#    0.000    0.727    8.182    1.091    2.545    1.455 
#    0.000    3.636    0.000    0.000    0.000    0.000 
#    0.000    0.000    0.000    0.000    0.000    0.000 
#
# Total GULP energy -245113.543951 kJ/mol
# GULP energy per Si atom -5570.762363 kJ/mol
# Density = 2.477372 g / cm^3
# Si number density = 24.830237 Si / 1000 Ang^3
#
#
#
# Elastic Constant Matrix: (Units=GPa)
#
#
# Indices 1 2 3 4 5 6 
#
# 1 24.1284 14.3295 11.2856 0.0000 0.0000 0.0000
# 2 14.3295 54.4424 16.4345 0.0000 0.0000 0.0000
# 3 11.2856 16.4345 101.3823 0.0000 0.0000 0.0000
# 4 0.0000 0.0000 0.0000 -78.8678 0.0000 0.0000
# 5 0.0000 0.0000 0.0000 0.0000 23.0201 0.0000
# 6 0.0000 0.0000 0.0000 0.0000 0.0000 31.0226
#
#
#
# Elastic Compliance Matrix: (Units=1/GPa)
#
#
# Indices 1 2 3 4 5 6 
#
# 1 0.050367 -0.012159 -0.003636 0.000000 0.000000 0.000000
# 2 -0.012159 0.022249 -0.002253 0.000000 0.000000 0.000000
# 3 -0.003636 -0.002253 0.010634 0.000000 0.000000 0.000000
# 4 0.000000 0.000000 0.000000 -0.012679 0.000000 0.000000
# 5 0.000000 0.000000 0.000000 0.000000 0.043440 0.000000
# 6 0.000000 0.000000 0.000000 0.000000 0.000000 0.032235
#
#
# Mechanical properties :
#
#
# Convention : Reuss Voigt Hill
#
# Bulk Modulus (GPa) = 21.20758 29.33916 25.27337
# Shear Modulus (GPa) = 25.24512 4.22854 14.73683
#
# Velocity S-wave (km/s) = 3.19205 1.30640 2.43884
# Velocity P-wave (km/s) = 4.70586 3.75728 4.25807
#
# Compressibility (1/GPa) = 0.04715295
#
# Stress axis : x y z
#
# Youngs Moduli (GPa) = 19.85434 44.94670 94.04162
#
# Poissons Ratio (x) = 0.54652 0.34190
# Poissons Ratio (y) = 0.24142 0.21188
# Poissons Ratio (z) = 0.07218 0.10127
#
# Static dielectric constant tensor:
#      x y z
#    x 2.410570 0.000000 0.000000 
#    y 0.000000 1.841270 0.000000 
#    z 0.000000 0.000000 1.679700 
# 
# From -- ./inp_files/15457.got.cif
#   From: 2010.05.17/outbox.cif.g08.bks.cpg/sg68_8_cif.got.tgz:15457.got - 2010.06.03 18:57:09.
