data_PCOD9506714
_publ_section_title
;
Structure prediction by ZEFSAII (Michael W. Deem and Ramdas Pophale) SiO2 
 PCOD9506714
Probable space group: C C C A
;
_chemical_formula_sum "Si O2"
_cell_formula_units_Z 100
_cell_length_a 18.220994
_cell_length_b 9.776532
_cell_length_c 25.760627
_cell_angle_alpha 90.000000
_cell_angle_beta 90.000000
_cell_angle_gamma 90.000000
_cell_volume 4588.949945
_symmetry_space_group_name_H-M "C C C A"
_symmetry_group_IT_number 68
_space_group.IT_coordinate_system_code '2'
_symmetry_cell_setting 'orthorhombic'
loop_
_space_group_symop_operation_xyz
x,y,z
-x,1/2-y,z
x,1/2-y,1/2-z
-x,y,1/2-z
-x,-y,-z
x,1/2+y,-z
-x,1/2+y,1/2+z
x,-y,1/2+z
1/2+x,1/2+y,z
1/2-x,-y,z
1/2+x,-y,1/2-z
1/2-x,1/2+y,1/2-z
1/2-x,1/2-y,-z
1/2+x,y,-z
1/2-x,y,1/2+z
1/2+x,1/2-y,1/2+z
loop_
_atom_site_type_symbol
_atom_site_label
_atom_site_fract_x
_atom_site_fract_y
_atom_site_fract_z
Si Si1 0.089201 0.535004 0.359976
Si Si2 0.000000 0.750000 0.750000
Si Si3 0.090879 0.411189 0.469888
Si Si4 0.414979 0.880632 0.448015
Si Si5 0.339996 0.787352 0.811286
Si Si6 0.573116 0.946659 0.166843
Si Si7 0.203006 0.862305 0.706013
O O1 0.110333 0.497994 0.418789
O O2 0.108014 0.688206 0.343819
O O3 0.134683 0.428697 0.323719
O O4 0.003297 0.517900 0.349462
O O5 0.048374 0.846698 0.787323
O O6 0.118875 0.257407 0.469995
O O7 0.113481 0.487348 0.522067
O O8 0.002280 0.391117 0.461956
O O9 0.404666 0.873749 0.386460
O O10 0.347044 0.750000 0.750000
O O11 0.259460 0.731698 0.827214
O O12 0.365688 0.942578 0.817872
O O13 0.185406 0.750000 0.750000
O O14 0.250000 0.000000 0.722533
#
# Coordination Sequence:
#
# PCOD9506714 Si02
#       7
#    16   4  16  16  16  16  16
#     4  10  20  35  60  90 120 158 211 263 326 373
#     4  12  24  36  54  88 140 176 190 276 336 400
#     4   9  18  34  55  81 115 154 203 258 311 383
#     4   9  19  34  53  82 118 156 202 251 319 387
#     4  10  21  38  58  88 124 167 210 254 314 399
#     4  11  22  35  57  89 129 165 205 260 332 386
#     4   9  20  40  61  87 121 173 219 257 309 399
#
# _framework density 21.791478999999999
#
# number of rings (size 3 to 8) (size 9 to 14) (size 15 to 20)
#    0.000    2.240    0.000    3.360    3.360    0.640 
#    8.640    0.000    0.000    0.960    0.000    0.000 
#    0.000    0.000    0.000    0.000    0.000    0.000 
#
# Total GULP energy -278954.538432 kJ/mol
# GULP energy per Si atom -5579.090769 kJ/mol
# Density = 2.174188 g / cm^3
# Si number density = 21.791479 Si / 1000 Ang^3
#
#
#
# Elastic Constant Matrix: (Units=GPa)
#
#
# Indices 1 2 3 4 5 6 
#
# 1 46.9293 15.4352 -6.4536 0.0000 0.0000 0.0000
# 2 15.4352 145.3188 52.5737 0.0000 0.0000 0.0000
# 3 -6.4536 52.5737 91.9377 0.0000 0.0000 0.0000
# 4 0.0000 0.0000 0.0000 35.6706 0.0000 0.0000
# 5 0.0000 0.0000 0.0000 0.0000 3.3032 0.0000
# 6 0.0000 0.0000 0.0000 0.0000 0.0000 62.9857
#
#
#
# Elastic Compliance Matrix: (Units=1/GPa)
#
#
# Indices 1 2 3 4 5 6 
#
# 1 0.023093 -0.003832 0.003812 0.000000 0.000000 0.000000
# 2 -0.003832 0.009312 -0.005594 0.000000 0.000000 0.000000
# 3 0.003812 -0.005594 0.014344 0.000000 0.000000 0.000000
# 4 0.000000 0.000000 0.000000 0.028034 0.000000 0.000000
# 5 0.000000 0.000000 0.000000 0.000000 0.302734 0.000000
# 6 0.000000 0.000000 0.000000 0.000000 0.000000 0.015877
#
#
# Mechanical properties :
#
#
# Convention : Reuss Voigt Hill
#
# Bulk Modulus (GPa) = 28.15203 45.25515 36.70359
# Shear Modulus (GPa) = 12.00589 35.23394 23.61992
#
# Velocity S-wave (km/s) = 2.34977 4.02539 3.29584
# Velocity P-wave (km/s) = 4.50652 6.51287 5.60028
#
# Compressibility (1/GPa) = 0.03552142
#
# Stress axis : x y z
#
# Youngs Moduli (GPa) = 43.30252 107.38452 69.71785
#
# Poissons Ratio (x) = 0.41151 -0.26579
# Poissons Ratio (y) = 0.16594 0.39001
# Poissons Ratio (z) = -0.16509 0.60073
#
# Static dielectric constant tensor:
#      x y z
#    x 1.873700 0.000000 0.000000 
#    y 0.000000 1.872770 0.000000 
#    z 0.000000 0.000000 1.813920 
# 
# From -- ./inp_files/51842.got.cif
#   From: 2010.05.17/outbox.cif.g08.bks.cpg/sg68_26_cif.got.tgz:51842.got - 2010.06.03 18:57:09.
