data_PCOD9506332
_publ_section_title
;
Structure prediction by ZEFSAII (Michael W. Deem and Ramdas Pophale) SiO2 
 PCOD9506332
Probable space group: C C C A
;
_chemical_formula_sum "Si O2"
_cell_formula_units_Z 88
_cell_length_a 13.558702
_cell_length_b 14.353130
_cell_length_c 23.021375
_cell_angle_alpha 90.000000
_cell_angle_beta 90.000000
_cell_angle_gamma 90.000000
_cell_volume 4480.185471
_symmetry_space_group_name_H-M "C C C A"
_symmetry_group_IT_number 68
_space_group.IT_coordinate_system_code '2'
_symmetry_cell_setting 'orthorhombic'
loop_
_space_group_symop_operation_xyz
x,y,z
-x,1/2-y,z
x,1/2-y,1/2-z
-x,y,1/2-z
-x,-y,-z
x,1/2+y,-z
-x,1/2+y,1/2+z
x,-y,1/2+z
1/2+x,1/2+y,z
1/2-x,-y,z
1/2+x,-y,1/2-z
1/2-x,1/2+y,1/2-z
1/2-x,1/2-y,-z
1/2+x,y,-z
1/2-x,y,1/2+z
1/2+x,1/2-y,1/2+z
loop_
_atom_site_type_symbol
_atom_site_label
_atom_site_fract_x
_atom_site_fract_y
_atom_site_fract_z
Si Si1 0.698227 0.750000 0.750000
Si Si2 0.120865 0.838517 0.709654
Si Si3 0.339473 0.317746 0.521525
Si Si4 0.500000 0.750000 0.113611
Si Si5 0.000000 0.500250 0.750000
Si Si6 0.500000 0.250000 0.066396
Si Si7 0.250000 0.500000 0.581047
Si Si8 0.403464 0.614597 0.657529
O O1 0.763358 0.683575 0.706516
O O2 0.642789 0.820036 0.707561
O O3 0.096281 0.750000 0.750000
O O4 0.050582 0.828638 0.654136
O O5 0.093980 0.932369 0.742539
O O6 0.250000 0.250000 0.500000
O O7 0.406388 0.284334 0.576336
O O8 0.422367 0.309515 0.471554
O O9 0.295416 0.417659 0.540685
O O10 0.987116 0.440893 0.807809
O O11 0.557565 0.180028 0.107239
O O12 0.329250 0.545547 0.624726
#
# Coordination Sequence:
#
# PCOD9506332 Si02
#       8
#     8  16  16   8   8   8   8  16
#     4  10  22  40  64  94 136 174 212 256 338 416
#     4  10  19  37  62  95 127 168 213 262 319 396
#     4  11  25  46  68  97 130 176 232 288 337 390
#     4  11  19  40  69  93 130 177 215 278 342 380
#     4  12  21  37  60 100 134 162 224 259 321 418
#     4  11  26  49  65  91 139 178 223 278 352 386
#     4  12  24  44  74  96 130 182 236 276 336 398
#     4  12  24  41  67  98 136 180 210 272 345 405
#
# _framework density 19.642043999999999
#
# number of rings (size 3 to 8) (size 9 to 14) (size 15 to 20)
#    0.545    0.364    3.636    4.364    0.000    0.727 
#    3.273    0.000    0.000    0.000    0.000    0.000 
#    0.000    0.000    0.000    0.000    0.000    0.000 
#
# Total GULP energy -245068.247095 kJ/mol
# GULP energy per Si atom -5569.732889 kJ/mol
# Density = 1.959734 g / cm^3
# Si number density = 19.642044 Si / 1000 Ang^3
#
#
#
# Elastic Constant Matrix: (Units=GPa)
#
#
# Indices 1 2 3 4 5 6 
#
# 1 79.6171 37.3271 39.8985 0.0000 0.0000 0.0000
# 2 37.3271 98.1818 48.6951 0.0000 0.0000 0.0000
# 3 39.8985 48.6951 108.5002 0.0000 0.0000 0.0000
# 4 0.0000 0.0000 0.0000 35.3704 0.0000 0.0000
# 5 0.0000 0.0000 0.0000 0.0000 37.5274 0.0000
# 6 0.0000 0.0000 0.0000 0.0000 0.0000 32.0590
#
#
#
# Elastic Compliance Matrix: (Units=1/GPa)
#
#
# Indices 1 2 3 4 5 6 
#
# 1 0.016666 -0.004240 -0.004225 0.000000 0.000000 0.000000
# 2 -0.004240 0.014180 -0.004805 0.000000 0.000000 0.000000
# 3 -0.004225 -0.004805 0.012927 0.000000 0.000000 0.000000
# 4 0.000000 0.000000 0.000000 0.028272 0.000000 0.000000
# 5 0.000000 0.000000 0.000000 0.000000 0.026647 0.000000
# 6 0.000000 0.000000 0.000000 0.000000 0.000000 0.031192
#
#
# Mechanical properties :
#
#
# Convention : Reuss Voigt Hill
#
# Bulk Modulus (GPa) = 58.03282 59.79336 58.91309
# Shear Modulus (GPa) = 30.83193 31.68326 31.25759
#
# Velocity S-wave (km/s) = 3.96623 4.02061 3.99352
# Velocity P-wave (km/s) = 7.11224 7.21536 7.16399
#
# Compressibility (1/GPa) = 0.01723163
#
# Stress axis : x y z
#
# Youngs Moduli (GPa) = 60.00404 70.52004 77.35881
#
# Poissons Ratio (x) = 0.29903 0.32686
# Poissons Ratio (y) = 0.25444 0.37170
# Poissons Ratio (z) = 0.25354 0.33884
#
# Static dielectric constant tensor:
#      x y z
#    x 1.769200 0.000000 0.000000 
#    y 0.000000 2.246480 0.000000 
#    z 0.000000 0.000000 1.690600 
# 
# From -- ./inp_files/38524.got.cif
#   From: 2010.05.17/outbox.cif.g08.bks.cpg/sg68_20_cif.got.tgz:38524.got - 2010.06.03 18:57:09.
