data_PCOD9506016
_publ_section_title
;
Structure prediction by ZEFSAII (Michael W. Deem and Ramdas Pophale) SiO2 
 PCOD9506016
Probable space group: C C C A
;
_chemical_formula_sum "Si O2"
_cell_formula_units_Z 56
_cell_length_a 5.448281
_cell_length_b 15.607393
_cell_length_c 27.534359
_cell_angle_alpha 90.000000
_cell_angle_beta 90.000000
_cell_angle_gamma 90.000000
_cell_volume 2341.341890
_symmetry_space_group_name_H-M "C C C A"
_symmetry_group_IT_number 68
_space_group.IT_coordinate_system_code '2'
_symmetry_cell_setting 'orthorhombic'
loop_
_space_group_symop_operation_xyz
x,y,z
-x,1/2-y,z
x,1/2-y,1/2-z
-x,y,1/2-z
-x,-y,-z
x,1/2+y,-z
-x,1/2+y,1/2+z
x,-y,1/2+z
1/2+x,1/2+y,z
1/2-x,-y,z
1/2+x,-y,1/2-z
1/2-x,1/2+y,1/2-z
1/2-x,1/2-y,-z
1/2+x,y,-z
1/2-x,y,1/2+z
1/2+x,1/2-y,1/2+z
loop_
_atom_site_type_symbol
_atom_site_label
_atom_site_fract_x
_atom_site_fract_y
_atom_site_fract_z
Si Si1 0.500000 0.250000 0.687663
Si Si2 0.367011 0.665482 0.613111
Si Si3 0.340521 0.096366 0.201399
Si Si4 0.459170 0.146391 0.976235
O O1 0.696379 0.204498 0.654043
O O2 0.350898 0.172522 0.710297
O O3 0.500000 0.750000 0.590281
O O4 0.548803 0.610744 0.646852
O O5 0.183915 0.624679 0.573743
O O6 0.500000 0.103485 0.250000
O O7 0.250000 0.000000 0.201381
O O8 0.500000 0.250000 0.976214
O O9 0.742218 0.117282 0.985685
#
# Coordination Sequence:
#
# PCOD9506016 Si02
#       4
#     8  16  16  16
#     4  10  24  45  72  96 138 180 236 300 361 440
#     4  10  21  39  65 101 137 186 237 294 365 436
#     4  11  28  48  69 102 140 188 242 302 373 445
#     4  10  19  32  61 103 147 186 240 304 363 436
#
# _framework density 23.917909999999999
#
# number of rings (size 3 to 8) (size 9 to 14) (size 15 to 20)
#    0.000    1.714    1.429    2.571    8.000    6.286 
#    0.000    0.000    0.000    1.714    0.000    0.000 
#    0.000    0.000    0.000    0.000    0.000    0.000 
#
# Total GULP energy -156072.601889 kJ/mol
# GULP energy per Si atom -5574.021496 kJ/mol
# Density = 2.386347 g / cm^3
# Si number density = 23.917910 Si / 1000 Ang^3
#
#
#
# Elastic Constant Matrix: (Units=GPa)
#
#
# Indices 1 2 3 4 5 6 
#
# 1 141.0283 61.5287 47.4574 0.0000 0.0000 0.0000
# 2 61.5287 124.4909 46.3481 0.0000 0.0000 0.0000
# 3 47.4574 46.3481 131.2508 0.0000 0.0000 0.0000
# 4 0.0000 0.0000 0.0000 12.9425 0.0000 0.0000
# 5 0.0000 0.0000 0.0000 0.0000 64.3810 0.0000
# 6 0.0000 0.0000 0.0000 0.0000 0.0000 29.5252
#
#
#
# Elastic Compliance Matrix: (Units=1/GPa)
#
#
# Indices 1 2 3 4 5 6 
#
# 1 0.009494 -0.003931 -0.002045 0.000000 0.000000 0.000000
# 2 -0.003931 0.010876 -0.002419 0.000000 0.000000 0.000000
# 3 -0.002045 -0.002419 0.009213 0.000000 0.000000 0.000000
# 4 0.000000 0.000000 0.000000 0.077265 0.000000 0.000000
# 5 0.000000 0.000000 0.000000 0.000000 0.015533 0.000000
# 6 0.000000 0.000000 0.000000 0.000000 0.000000 0.033869
#
#
# Mechanical properties :
#
#
# Convention : Reuss Voigt Hill
#
# Bulk Modulus (GPa) = 78.16891 78.60424 78.38658
# Shear Modulus (GPa) = 28.20022 37.46548 32.83285
#
# Velocity S-wave (km/s) = 3.43744 3.96210 3.70906
# Velocity P-wave (km/s) = 6.96475 7.33938 7.15452
#
# Compressibility (1/GPa) = 0.01279281
#
# Stress axis : x y z
#
# Youngs Moduli (GPa) = 105.33103 91.94273 108.54677
#
# Poissons Ratio (x) = 0.36143 0.22194
# Poissons Ratio (y) = 0.41406 0.26261
# Poissons Ratio (z) = 0.21536 0.22244
#
# Static dielectric constant tensor:
#      x y z
#    x 1.972370 0.000000 0.000000 
#    y 0.000000 1.889230 0.000000 
#    z 0.000000 0.000000 1.968620 
# 
# From -- ./inp_files/52740.got.cif
#   From: 2010.05.17/outbox.cif.g08.bks.cpg/sg68_27_cif.got.tgz:52740.got - 2010.06.03 18:57:09.
