data_PCOD9506563
_publ_section_title
;
Structure prediction by ZEFSAII (Michael W. Deem and Ramdas Pophale) SiO2 
 PCOD9506563
Probable space group: C C C A
;
_chemical_formula_sum "Si O2"
_cell_formula_units_Z 72
_cell_length_a 8.667754
_cell_length_b 20.087768
_cell_length_c 21.431551
_cell_angle_alpha 90.000000
_cell_angle_beta 90.000000
_cell_angle_gamma 90.000000
_cell_volume 3731.572321
_symmetry_space_group_name_H-M "C C C A"
_symmetry_group_IT_number 68
_space_group.IT_coordinate_system_code '2'
_symmetry_cell_setting 'orthorhombic'
loop_
_space_group_symop_operation_xyz
x,y,z
-x,1/2-y,z
x,1/2-y,1/2-z
-x,y,1/2-z
-x,-y,-z
x,1/2+y,-z
-x,1/2+y,1/2+z
x,-y,1/2+z
1/2+x,1/2+y,z
1/2-x,-y,z
1/2+x,-y,1/2-z
1/2-x,1/2+y,1/2-z
1/2-x,1/2-y,-z
1/2+x,y,-z
1/2-x,y,1/2+z
1/2+x,1/2-y,1/2+z
loop_
_atom_site_type_symbol
_atom_site_label
_atom_site_fract_x
_atom_site_fract_y
_atom_site_fract_z
Si Si1 0.482386 0.433847 0.584710
Si Si2 0.250000 0.500000 0.496688
Si Si3 0.426125 0.317629 0.318899
Si Si4 0.925219 0.532714 0.181993
Si Si5 0.560886 0.675989 0.183422
O O1 0.340171 0.446007 0.538797
O O2 0.631053 0.458752 0.545751
O O3 0.469459 0.486743 0.639932
O O4 0.511085 0.366216 0.622874
O O5 0.500000 0.250000 0.348211
O O6 0.500000 0.320375 0.250000
O O7 0.440464 0.392456 0.345965
O O8 0.243314 0.314179 0.312107
O O9 0.750000 0.500000 0.183050
O O10 0.000000 0.533960 0.250000
O O11 0.500000 0.750000 0.177955
O O12 0.500000 0.646788 0.250000
#
# Coordination Sequence:
#
# PCOD9506563 Si02
#       5
#    16   8  16  16  16
#     4  11  22  42  60  89 118 164 210 270 307 373
#     4  10  24  40  64  82 118 162 224 266 308 352
#     4  10  20  34  52  83 129 166 193 232 310 388
#     4  11  22  36  61  92 127 156 204 261 323 387
#     4  11  22  37  62  93 130 158 202 256 328 392
#
# _framework density 19.294815
#
# number of rings (size 3 to 8) (size 9 to 14) (size 15 to 20)
#    0.000    1.333    3.333    3.333    1.556    3.556 
#    0.000    1.111    0.000    5.333    0.000    0.000 
#    0.000    0.000    0.000    0.000    0.000    0.000 
#
# Total GULP energy -200552.288033 kJ/mol
# GULP energy per Si atom -5570.896890 kJ/mol
# Density = 1.925090 g / cm^3
# Si number density = 19.294815 Si / 1000 Ang^3
#
#
#
# Elastic Constant Matrix: (Units=GPa)
#
#
# Indices 1 2 3 4 5 6 
#
# 1 66.2577 15.8638 29.8516 0.0000 0.0000 0.0000
# 2 15.8638 122.2971 28.1634 0.0000 0.0000 0.0000
# 3 29.8516 28.1634 92.7810 0.0000 0.0000 0.0000
# 4 0.0000 0.0000 0.0000 18.4950 0.0000 0.0000
# 5 0.0000 0.0000 0.0000 0.0000 21.8408 0.0000
# 6 0.0000 0.0000 0.0000 0.0000 0.0000 8.9391
#
#
#
# Elastic Compliance Matrix: (Units=1/GPa)
#
#
# Indices 1 2 3 4 5 6 
#
# 1 0.017779 -0.001063 -0.005398 0.000000 0.000000 0.000000
# 2 -0.001063 0.008855 -0.002346 0.000000 0.000000 0.000000
# 3 -0.005398 -0.002346 0.013227 0.000000 0.000000 0.000000
# 4 0.000000 0.000000 0.000000 0.054069 0.000000 0.000000
# 5 0.000000 0.000000 0.000000 0.000000 0.045786 0.000000
# 6 0.000000 0.000000 0.000000 0.000000 0.000000 0.111868
#
#
# Mechanical properties :
#
#
# Convention : Reuss Voigt Hill
#
# Bulk Modulus (GPa) = 44.94879 47.67705 46.31292
# Shear Modulus (GPa) = 18.07587 23.68545 20.88066
#
# Velocity S-wave (km/s) = 3.06408 3.50745 3.29323
# Velocity P-wave (km/s) = 5.98870 6.41610 6.20608
#
# Compressibility (1/GPa) = 0.02224754
#
# Stress axis : x y z
#
# Youngs Moduli (GPa) = 56.24632 112.93139 75.60440
#
# Poissons Ratio (x) = 0.12007 0.40808
# Poissons Ratio (y) = 0.05980 0.17735
# Poissons Ratio (z) = 0.30359 0.26492
#
# Static dielectric constant tensor:
#      x y z
#    x 1.542310 0.000000 0.000000 
#    y 0.000000 1.969310 0.000000 
#    z 0.000000 0.000000 1.697590 
# 
# From -- ./inp_files/36029.got.cif
#   From: 2010.05.17/outbox.cif.g08.bks.cpg/sg68_19_cif.got.tgz:36029.got - 2010.06.03 18:57:09.
