data_PCOD9506123
_publ_section_title
;
Structure prediction by ZEFSAII (Michael W. Deem and Ramdas Pophale) SiO2 
 PCOD9506123
Probable space group: C C C A
;
_chemical_formula_sum "Si O2"
_cell_formula_units_Z 92
_cell_length_a 22.412848
_cell_length_b 20.313665
_cell_length_c 10.124342
_cell_angle_alpha 90.000000
_cell_angle_beta 90.000000
_cell_angle_gamma 90.000000
_cell_volume 4609.482167
_symmetry_space_group_name_H-M "C C C A"
_symmetry_group_IT_number 68
_space_group.IT_coordinate_system_code '2'
_symmetry_cell_setting 'orthorhombic'
loop_
_space_group_symop_operation_xyz
x,y,z
-x,1/2-y,z
x,1/2-y,1/2-z
-x,y,1/2-z
-x,-y,-z
x,1/2+y,-z
-x,1/2+y,1/2+z
x,-y,1/2+z
1/2+x,1/2+y,z
1/2-x,-y,z
1/2+x,-y,1/2-z
1/2-x,1/2+y,1/2-z
1/2-x,1/2-y,-z
1/2+x,y,-z
1/2-x,y,1/2+z
1/2+x,1/2-y,1/2+z
loop_
_atom_site_type_symbol
_atom_site_label
_atom_site_fract_x
_atom_site_fract_y
_atom_site_fract_z
Si Si1 0.000000 0.530897 0.750000
Si Si2 0.733680 0.075212 0.062038
Si Si3 0.622949 0.952876 0.740159
Si Si4 0.684727 0.411825 0.698647
Si Si5 0.070149 0.824437 0.280135
Si Si6 0.000000 0.750000 0.750000
Si Si7 0.936007 0.360103 0.088604
O O1 0.058815 0.488136 0.711854
O O2 0.021007 0.578195 0.871223
O O3 0.667512 0.070374 0.123948
O O4 0.782051 0.101734 0.164729
O O5 0.750000 0.000000 0.042032
O O6 0.730061 0.105731 0.918402
O O7 0.603474 0.882620 0.801587
O O8 0.663029 0.010827 0.806748
O O9 0.624839 0.373863 0.666841
O O10 0.091695 0.750000 0.250000
O O11 0.073094 0.845458 0.434415
O O12 0.000000 0.825818 0.250000
O O13 0.962967 0.796137 0.845542
#
# Coordination Sequence:
#
# PCOD9506123 Si02
#       7
#     8  16  16  16  16   4  16
#     4   9  20  35  61  96 119 158 196 270 327 382
#     4  10  19  35  57  90 120 158 200 255 318 375
#     4  10  19  34  57  92 124 157 203 261 323 383
#     4  10  21  37  64  91 122 159 207 266 319 373
#     4  11  22  36  57  89 129 171 207 252 319 391
#     4  10  20  40  66  88 122 168 214 252 310 388
#     4  10  21  40  62  89 126 164 214 258 319 390
#
# _framework density 19.958859
#
# number of rings (size 3 to 8) (size 9 to 14) (size 15 to 20)
#    0.000    1.913    2.609    2.609    0.000    2.087 
#    0.000    8.696    1.913    2.087    0.000    0.000 
#    0.000    0.000    0.000    0.000    0.000    0.000 
#
# Total GULP energy -256091.131996 kJ/mol
# GULP energy per Si atom -5567.198522 kJ/mol
# Density = 1.991343 g / cm^3
# Si number density = 19.958859 Si / 1000 Ang^3
#
#
#
# Elastic Constant Matrix: (Units=GPa)
#
#
# Indices 1 2 3 4 5 6 
#
# 1 89.4842 36.7328 40.0388 0.0000 0.0000 0.0000
# 2 36.7328 112.2770 28.4869 0.0000 0.0000 0.0000
# 3 40.0388 28.4869 78.3970 0.0000 0.0000 0.0000
# 4 0.0000 0.0000 0.0000 8.4622 0.0000 0.0000
# 5 0.0000 0.0000 0.0000 0.0000 7.6496 0.0000
# 6 0.0000 0.0000 0.0000 0.0000 0.0000 20.6661
#
#
#
# Elastic Compliance Matrix: (Units=1/GPa)
#
#
# Indices 1 2 3 4 5 6 
#
# 1 0.015575 -0.003390 -0.006722 0.000000 0.000000 0.000000
# 2 -0.003390 0.010549 -0.002102 0.000000 0.000000 0.000000
# 3 -0.006722 -0.002102 0.016953 0.000000 0.000000 0.000000
# 4 0.000000 0.000000 0.000000 0.118172 0.000000 0.000000
# 5 0.000000 0.000000 0.000000 0.000000 0.130726 0.000000
# 6 0.000000 0.000000 0.000000 0.000000 0.000000 0.048389
#
#
# Mechanical properties :
#
#
# Convention : Reuss Voigt Hill
#
# Bulk Modulus (GPa) = 53.62576 54.51947 54.07261
# Shear Modulus (GPa) = 13.47685 19.01555 16.24620
#
# Velocity S-wave (km/s) = 2.60134 3.08999 2.85614
# Velocity P-wave (km/s) = 5.99576 6.33293 6.16665
#
# Compressibility (1/GPa) = 0.01864776
#
# Stress axis : x y z
#
# Youngs Moduli (GPa) = 64.20731 94.79715 58.98785
#
# Poissons Ratio (x) = 0.32134 0.39654
# Poissons Ratio (y) = 0.21765 0.12399
# Poissons Ratio (z) = 0.43163 0.19925
#
# Static dielectric constant tensor:
#      x y z
#    x 1.772610 0.000000 0.000000 
#    y 0.000000 1.726430 0.000000 
#    z 0.000000 0.000000 1.835430 
# 
# From -- ./inp_files/8030.got.cif
#   From: 2010.05.17/outbox.cif.g08.bks.cpg/sg68_5_cif.got.tgz:8030.got - 2010.06.03 18:57:09.
