data_PCOD9506805
_publ_section_title
;
Structure prediction by ZEFSAII (Michael W. Deem and Ramdas Pophale) SiO2 
 PCOD9506805
Probable space group: C C C A
;
_chemical_formula_sum "Si O2"
_cell_formula_units_Z 88
_cell_length_a 20.808898
_cell_length_b 14.285415
_cell_length_c 11.474735
_cell_angle_alpha 90.000000
_cell_angle_beta 90.000000
_cell_angle_gamma 90.000000
_cell_volume 3411.022683
_symmetry_space_group_name_H-M "C C C A"
_symmetry_group_IT_number 68
_space_group.IT_coordinate_system_code '2'
_symmetry_cell_setting 'orthorhombic'
loop_
_space_group_symop_operation_xyz
x,y,z
-x,1/2-y,z
x,1/2-y,1/2-z
-x,y,1/2-z
-x,-y,-z
x,1/2+y,-z
-x,1/2+y,1/2+z
x,-y,1/2+z
1/2+x,1/2+y,z
1/2-x,-y,z
1/2+x,-y,1/2-z
1/2-x,1/2+y,1/2-z
1/2-x,1/2-y,-z
1/2+x,y,-z
1/2-x,y,1/2+z
1/2+x,1/2-y,1/2+z
loop_
_atom_site_type_symbol
_atom_site_label
_atom_site_fract_x
_atom_site_fract_y
_atom_site_fract_z
Si Si1 0.245011 0.604770 0.573690
Si Si2 0.393208 0.615377 0.512180
Si Si3 0.727879 0.750000 0.750000
Si Si4 0.573722 0.592389 0.237655
Si Si5 0.390233 0.381516 0.269813
Si Si6 0.602818 0.100351 0.511897
O O1 0.250000 0.500000 0.629956
O O2 0.314894 0.619863 0.515278
O O3 0.233168 0.696830 0.651681
O O4 0.180164 0.597821 0.500425
O O5 0.415518 0.646103 0.383965
O O6 0.413125 0.650820 0.641362
O O7 0.417197 0.508029 0.515905
O O8 0.678799 0.667085 0.718978
O O9 0.500000 0.563073 0.250000
O O10 0.613805 0.494866 0.233652
O O11 0.588291 0.640706 0.361168
O O12 0.425109 0.359464 0.392010
#
# Coordination Sequence:
#
# PCOD9506805 Si02
#       6
#    16  16   8  16  16  16
#     4   9  18  35  60  91 128 168 215 271 329 397
#     4   8  17  32  53  84 119 154 198 259 320 374
#     4  10  20  36  59  90 131 166 208 270 336 388
#     4  10  20  36  60  89 122 164 215 268 322 384
#     4   9  19  34  53  82 117 155 203 253 313 382
#     4   9  18  32  53  85 117 155 208 259 314 381
#
# _framework density 25.798715000000001
#
# number of rings (size 3 to 8) (size 9 to 14) (size 15 to 20)
#    0.000    2.909    0.000    1.091    0.000   10.182 
#    0.000   15.909    0.000    0.000    0.000   10.818 
#    0.000    0.000    0.000    0.000    0.000    0.000 
#
# Total GULP energy -245019.610206 kJ/mol
# GULP energy per Si atom -5568.627505 kJ/mol
# Density = 2.574000 g / cm^3
# Si number density = 25.798715 Si / 1000 Ang^3
#
#
#
# Elastic Constant Matrix: (Units=GPa)
#
#
# Indices 1 2 3 4 5 6 
#
# 1 91.7867 15.9704 17.1644 0.0000 0.0000 0.0000
# 2 15.9704 135.7885 47.2090 0.0000 0.0000 0.0000
# 3 17.1644 47.2090 302.9069 0.0000 0.0000 0.0000
# 4 0.0000 0.0000 0.0000 -0.3160 0.0000 0.0000
# 5 0.0000 0.0000 0.0000 0.0000 11.3130 0.0000
# 6 0.0000 0.0000 0.0000 0.0000 0.0000 -0.6564
#
#
#
# Elastic Compliance Matrix: (Units=1/GPa)
#
#
# Indices 1 2 3 4 5 6 
#
# 1 0.011181 -0.001157 -0.000453 0.000000 0.000000 0.000000
# 2 -0.001157 0.007906 -0.001167 0.000000 0.000000 0.000000
# 3 -0.000453 -0.001167 0.003509 0.000000 0.000000 0.000000
# 4 0.000000 0.000000 0.000000 -3.164552 0.000000 0.000000
# 5 0.000000 0.000000 0.000000 0.000000 0.088394 0.000000
# 6 0.000000 0.000000 0.000000 0.000000 0.000000 -1.523475
#
#
# Mechanical properties :
#
#
# Convention : Reuss Voigt Hill
#
# Bulk Modulus (GPa) = 58.68056 76.79665 67.73860
# Shear Modulus (GPa) = -1.09510 32.07733 15.49112
#
# Velocity S-wave (km/s) = -0.65223 3.52997 2.45309
# Velocity P-wave (km/s) = 4.71463 6.81517 5.85979
#
# Compressibility (1/GPa) = 0.01704142
#
# Stress axis : x y z
#
# Youngs Moduli (GPa) = 89.43767 126.48442 284.99421
#
# Poissons Ratio (x) = 0.14640 0.12915
# Poissons Ratio (y) = 0.10352 0.33248
# Poissons Ratio (z) = 0.04053 0.14756
#
# Static dielectric constant tensor:
#      x y z
#    x 1.961080 0.000000 0.000000 
#    y 0.000000 1.979250 0.000000 
#    z 0.000000 0.000000 2.259820 
# 
# From -- ./inp_files/16341.got.cif
#   From: 2010.05.17/outbox.cif.g08.bks.cpg/sg68_9_cif.got.tgz:16341.got - 2010.06.03 18:57:09.
