data_PCOD9506576
_publ_section_title
;
Structure prediction by ZEFSAII (Michael W. Deem and Ramdas Pophale) SiO2 
 PCOD9506576
Probable space group: C C C A
;
_chemical_formula_sum "Si O2"
_cell_formula_units_Z 56
_cell_length_a 28.289034
_cell_length_b 8.431341
_cell_length_c 12.642171
_cell_angle_alpha 90.000000
_cell_angle_beta 90.000000
_cell_angle_gamma 90.000000
_cell_volume 3015.340997
_symmetry_space_group_name_H-M "C C C A"
_symmetry_group_IT_number 68
_space_group.IT_coordinate_system_code '2'
_symmetry_cell_setting 'orthorhombic'
loop_
_space_group_symop_operation_xyz
x,y,z
-x,1/2-y,z
x,1/2-y,1/2-z
-x,y,1/2-z
-x,-y,-z
x,1/2+y,-z
-x,1/2+y,1/2+z
x,-y,1/2+z
1/2+x,1/2+y,z
1/2-x,-y,z
1/2+x,-y,1/2-z
1/2-x,1/2+y,1/2-z
1/2-x,1/2-y,-z
1/2+x,y,-z
1/2-x,y,1/2+z
1/2+x,1/2-y,1/2+z
loop_
_atom_site_type_symbol
_atom_site_label
_atom_site_fract_x
_atom_site_fract_y
_atom_site_fract_z
Si Si1 0.534821 0.877446 0.556860
Si Si2 0.416360 0.681140 0.134525
Si Si3 0.805178 0.252232 0.128973
Si Si4 0.250000 0.000000 0.509989
O O1 0.500000 0.750000 0.613194
O O2 0.561354 0.781094 0.463078
O O3 0.500000 0.000000 0.500000
O O4 0.568627 0.995612 0.623190
O O5 0.431206 0.750000 0.250000
O O6 0.360199 0.707074 0.124871
O O7 0.790183 0.250000 0.250000
O O8 0.774949 0.127741 0.063391
O O9 0.791006 0.421057 0.080303
#
# Coordination Sequence:
#
# PCOD9506576 Si02
#       4
#    16  16  16   8
#     4   9  19  35  54  78 105 135 178 223 267 326
#     4  10  20  36  56  78 108 143 178 223 274 322
#     4  10  20  34  54  79 107 142 180 218 265 320
#     4  10  20  34  54  78 110 142 176 222 266 310
#
# _framework density 18.571697
#
# number of rings (size 3 to 8) (size 9 to 14) (size 15 to 20)
#    0.000    2.286    0.000    2.571    0.000    5.143 
#    0.000   10.000    0.000   24.000    0.000    0.000 
#    0.000    0.000    0.000    0.000    0.000    0.000 
#
# Total GULP energy -155986.714076 kJ/mol
# GULP energy per Si atom -5570.954074 kJ/mol
# Density = 1.852943 g / cm^3
# Si number density = 18.571697 Si / 1000 Ang^3
#
#
#
# Elastic Constant Matrix: (Units=GPa)
#
#
# Indices 1 2 3 4 5 6 
#
# 1 73.9667 42.8058 39.0697 0.0000 0.0000 0.0000
# 2 42.8058 123.2847 56.9963 0.0000 0.0000 0.0000
# 3 39.0697 56.9963 120.5955 0.0000 0.0000 0.0000
# 4 0.0000 0.0000 0.0000 7.1453 0.0000 0.0000
# 5 0.0000 0.0000 0.0000 0.0000 164.6385 0.0000
# 6 0.0000 0.0000 0.0000 0.0000 0.0000 44.7841
#
#
#
# Elastic Compliance Matrix: (Units=1/GPa)
#
#
# Indices 1 2 3 4 5 6 
#
# 1 0.018129 -0.004580 -0.003709 0.000000 0.000000 0.000000
# 2 -0.004580 0.011536 -0.003968 0.000000 0.000000 0.000000
# 3 -0.003709 -0.003968 0.011369 0.000000 0.000000 0.000000
# 4 0.000000 0.000000 0.000000 0.139952 0.000000 0.000000
# 5 0.000000 0.000000 0.000000 0.000000 0.006074 0.000000
# 6 0.000000 0.000000 0.000000 0.000000 0.000000 0.022329
#
#
# Mechanical properties :
#
#
# Convention : Reuss Voigt Hill
#
# Bulk Modulus (GPa) = 60.53204 66.17672 63.35438
# Shear Modulus (GPa) = 20.88459 55.24526 38.06492
#
# Velocity S-wave (km/s) = 3.35705 5.46000 4.53218
# Velocity P-wave (km/s) = 6.90586 8.68673 7.84698
#
# Compressibility (1/GPa) = 0.01652018
#
# Stress axis : x y z
#
# Youngs Moduli (GPa) = 55.15995 86.68337 87.95619
#
# Poissons Ratio (x) = 0.39701 0.32620
# Poissons Ratio (y) = 0.25263 0.34905
# Poissons Ratio (z) = 0.20457 0.34400
#
# Static dielectric constant tensor:
#      x y z
#    x 1.643240 0.000000 0.000000 
#    y 0.000000 1.636760 0.000000 
#    z 0.000000 0.000000 1.708240 
# 
# From -- ./inp_files/10549.got.cif
#   From: 2010.05.17/outbox.cif.g08.bks.cpg/sg68_6_cif.got.tgz:10549.got - 2010.06.03 18:57:09.
