data_PCOD9506681
_publ_section_title
;
Structure prediction by ZEFSAII (Michael W. Deem and Ramdas Pophale) SiO2 
 PCOD9506681
Probable space group: C C C A
;
_chemical_formula_sum "Si O2"
_cell_formula_units_Z 116
_cell_length_a 17.808041
_cell_length_b 31.395005
_cell_length_c 9.980778
_cell_angle_alpha 90.000000
_cell_angle_beta 90.000000
_cell_angle_gamma 90.000000
_cell_volume 5580.088659
_symmetry_space_group_name_H-M "C C C A"
_symmetry_group_IT_number 68
_space_group.IT_coordinate_system_code '2'
_symmetry_cell_setting 'orthorhombic'
loop_
_space_group_symop_operation_xyz
x,y,z
-x,1/2-y,z
x,1/2-y,1/2-z
-x,y,1/2-z
-x,-y,-z
x,1/2+y,-z
-x,1/2+y,1/2+z
x,-y,1/2+z
1/2+x,1/2+y,z
1/2-x,-y,z
1/2+x,-y,1/2-z
1/2-x,1/2+y,1/2-z
1/2-x,1/2-y,-z
1/2+x,y,-z
1/2-x,y,1/2+z
1/2+x,1/2-y,1/2+z
loop_
_atom_site_type_symbol
_atom_site_label
_atom_site_fract_x
_atom_site_fract_y
_atom_site_fract_z
Si Si1 0.675040 0.901131 0.598672
Si Si2 0.582466 0.757151 0.407633
Si Si3 0.840027 0.006766 0.496672
Si Si4 0.308639 0.619159 0.293849
Si Si5 0.410821 0.457558 0.733510
Si Si6 0.615131 0.184098 0.107867
Si Si7 0.000000 0.750000 0.250000
Si Si8 0.786299 0.208583 0.157192
O O1 0.645834 0.948053 0.570287
O O2 0.706006 0.884666 0.453267
O O3 0.739344 0.901369 0.710830
O O4 0.613655 0.865668 0.639522
O O5 0.500000 0.750000 0.464866
O O6 0.577203 0.750000 0.250000
O O7 0.597108 0.804869 0.454053
O O8 0.649862 0.724760 0.448221
O O9 0.871749 0.012681 0.347042
O O10 0.750000 0.000000 0.492847
O O11 0.881133 0.971798 0.587636
O O12 0.380601 0.589980 0.263399
O O13 0.313737 0.666519 0.233874
O O14 0.500000 0.460305 0.750000
O O15 0.561227 0.215441 0.190215
O O16 0.702411 0.197320 0.116133
O O17 0.777615 0.250000 0.250000
#
# Coordination Sequence:
#
# PCOD9506681 Si02
#       8
#    16  16  16  16  16  16   4  16
#     4  10  22  40  68  97 127 164 224 270 319 391
#     4  10  20  35  57  85 116 158 205 256 313 368
#     4  11  22  42  73  98 128 178 220 277 330 413
#     4  10  22  41  64  95 129 167 213 272 318 393
#     4  11  24  43  66  98 137 171 217 274 348 399
#     4  11  22  42  62  88 130 165 220 263 317 390
#     4  12  24  44  66  88 126 188 212 270 328 388
#     4  10  20  38  62  88 120 166 212 257 316 374
#
# _framework density 20.788201000000001
#
# number of rings (size 3 to 8) (size 9 to 14) (size 15 to 20)
#    0.000    1.517    2.759    2.897    1.931    1.103 
#   11.172    0.000    0.000    0.000    0.000    0.000 
#    0.000    0.000    0.000    0.000    0.000    0.000 
#
# Total GULP energy -323044.716014 kJ/mol
# GULP energy per Si atom -5569.736483 kJ/mol
# Density = 2.074089 g / cm^3
# Si number density = 20.788201 Si / 1000 Ang^3
#
#
#
# Elastic Constant Matrix: (Units=GPa)
#
#
# Indices 1 2 3 4 5 6 
#
# 1 126.3697 21.9693 25.0886 0.0000 0.0000 0.0000
# 2 21.9693 75.8755 16.2367 0.0000 0.0000 0.0000
# 3 25.0886 16.2367 46.9557 0.0000 0.0000 0.0000
# 4 0.0000 0.0000 0.0000 35.9664 0.0000 0.0000
# 5 0.0000 0.0000 0.0000 0.0000 -14.2051 0.0000
# 6 0.0000 0.0000 0.0000 0.0000 0.0000 27.1330
#
#
#
# Elastic Compliance Matrix: (Units=1/GPa)
#
#
# Indices 1 2 3 4 5 6 
#
# 1 0.009054 -0.001713 -0.004245 0.000000 0.000000 0.000000
# 2 -0.001713 0.014557 -0.004118 0.000000 0.000000 0.000000
# 3 -0.004245 -0.004118 0.024989 0.000000 0.000000 0.000000
# 4 0.000000 0.000000 0.000000 0.027804 0.000000 0.000000
# 5 0.000000 0.000000 0.000000 0.000000 -0.070397 0.000000
# 6 0.000000 0.000000 0.000000 0.000000 0.000000 0.036855
#
#
# Mechanical properties :
#
#
# Convention : Reuss Voigt Hill
#
# Bulk Modulus (GPa) = 35.15360 41.75447 38.45404
# Shear Modulus (GPa) = 68.96882 22.17262 45.57072
#
# Velocity S-wave (km/s) = 5.76619 3.26942 4.68711
# Velocity P-wave (km/s) = 7.82809 5.86357 6.91594
#
# Compressibility (1/GPa) = 0.02844659
#
# Stress axis : x y z
#
# Youngs Moduli (GPa) = 110.44945 68.69653 40.01775
#
# Poissons Ratio (x) = 0.11768 0.16988
# Poissons Ratio (y) = 0.18921 0.16480
# Poissons Ratio (z) = 0.46888 0.28291
#
# Static dielectric constant tensor:
#      x y z
#    x 1.818050 0.000000 0.000000 
#    y 0.000000 1.793310 0.000000 
#    z 0.000000 0.000000 1.819270 
# 
# From -- ./inp_files/14906.got.cif
#   From: 2010.05.17/outbox.cif.g08.bks.cpg/sg68_8_cif.got.tgz:14906.got - 2010.06.03 18:57:09.
