data_PCOD9506811
_publ_section_title
;
Structure prediction by ZEFSAII (Michael W. Deem and Ramdas Pophale) SiO2 
 PCOD9506811
Probable space group: C C C A
;
_chemical_formula_sum "Si O2"
_cell_formula_units_Z 88
_cell_length_a 19.760462
_cell_length_b 7.662575
_cell_length_c 24.012661
_cell_angle_alpha 90.000000
_cell_angle_beta 90.000000
_cell_angle_gamma 90.000000
_cell_volume 3635.901609
_symmetry_space_group_name_H-M "C C C A"
_symmetry_group_IT_number 68
_space_group.IT_coordinate_system_code '2'
_symmetry_cell_setting 'orthorhombic'
loop_
_space_group_symop_operation_xyz
x,y,z
-x,1/2-y,z
x,1/2-y,1/2-z
-x,y,1/2-z
-x,-y,-z
x,1/2+y,-z
-x,1/2+y,1/2+z
x,-y,1/2+z
1/2+x,1/2+y,z
1/2-x,-y,z
1/2+x,-y,1/2-z
1/2-x,1/2+y,1/2-z
1/2-x,1/2-y,-z
1/2+x,y,-z
1/2-x,y,1/2+z
1/2+x,1/2-y,1/2+z
loop_
_atom_site_type_symbol
_atom_site_label
_atom_site_fract_x
_atom_site_fract_y
_atom_site_fract_z
Si Si1 0.000000 0.750000 0.904088
Si Si2 0.055555 0.886434 0.428273
Si Si3 0.601202 0.764646 0.810559
Si Si4 0.743144 0.197401 0.330294
Si Si5 0.711055 0.176392 0.053242
Si Si6 0.391807 0.683532 0.310737
O O1 0.979909 0.573474 0.935433
O O2 0.937232 0.762866 0.862135
O O3 0.067664 0.836161 0.362163
O O4 0.130864 0.862203 0.454022
O O5 0.000000 0.750000 0.448593
O O6 0.569647 0.750000 0.750000
O O7 0.679162 0.700146 0.806523
O O8 0.607058 0.973367 0.818040
O O9 0.723308 0.193439 0.395467
O O10 0.817642 0.266625 0.319432
O O11 0.750000 0.000000 0.308521
O O12 0.750000 0.000000 0.069623
O O13 0.750000 0.250000 0.000000
O O14 0.415631 0.750000 0.250000
#
# Coordination Sequence:
#
# PCOD9506811 Si02
#       6
#     8  16  16  16  16  16
#     4  12  23  40  64  96 138 182 230 266 356 421
#     4  11  24  46  71 101 141 187 229 292 357 428
#     4  10  20  36  59  92 135 183 230 281 335 402
#     4   9  20  38  63  89 128 176 224 287 347 402
#     4  11  24  46  75 103 132 175 235 295 365 431
#     4  11  21  34  56  94 135 180 233 277 330 414
#
# _framework density 24.203075999999999
#
# number of rings (size 3 to 8) (size 9 to 14) (size 15 to 20)
#    0.000    1.455    1.818    3.545    0.000    1.818 
#    3.273    1.818    2.000    0.000    0.000    0.000 
#    0.000    0.000    0.000    0.000    0.000    0.000 
#
# Total GULP energy -245817.285598 kJ/mol
# GULP energy per Si atom -5586.756491 kJ/mol
# Density = 2.414799 g / cm^3
# Si number density = 24.203076 Si / 1000 Ang^3
#
#
#
# Elastic Constant Matrix: (Units=GPa)
#
#
# Indices 1 2 3 4 5 6 
#
# 1 197.2691 59.0892 31.8336 0.0000 0.0000 0.0000
# 2 59.0892 147.0068 19.6375 0.0000 0.0000 0.0000
# 3 31.8336 19.6375 110.8854 0.0000 0.0000 0.0000
# 4 0.0000 0.0000 0.0000 18.4950 0.0000 0.0000
# 5 0.0000 0.0000 0.0000 0.0000 -44.5702 0.0000
# 6 0.0000 0.0000 0.0000 0.0000 0.0000 14.9964
#
#
#
# Elastic Compliance Matrix: (Units=1/GPa)
#
#
# Indices 1 2 3 4 5 6 
#
# 1 0.005944 -0.002214 -0.001315 0.000000 0.000000 0.000000
# 2 -0.002214 0.007792 -0.000744 0.000000 0.000000 0.000000
# 3 -0.001315 -0.000744 0.009528 0.000000 0.000000 0.000000
# 4 0.000000 0.000000 0.000000 0.054069 0.000000 0.000000
# 5 0.000000 0.000000 0.000000 0.000000 -0.022437 0.000000
# 6 0.000000 0.000000 0.000000 0.000000 0.000000 0.066683
#
#
# Mechanical properties :
#
#
# Convention : Reuss Voigt Hill
#
# Bulk Modulus (GPa) = 67.94225 75.14244 71.54235
# Shear Modulus (GPa) = 37.02879 20.75763 28.89321
#
# Velocity S-wave (km/s) = 3.91566 2.93173 3.45886
# Velocity P-wave (km/s) = 6.96964 6.52489 6.75093
#
# Compressibility (1/GPa) = 0.01471838
#
# Stress axis : x y z
#
# Youngs Moduli (GPa) = 168.22429 128.34237 104.95913
#
# Poissons Ratio (x) = 0.28412 0.13797
# Poissons Ratio (y) = 0.37241 0.07813
# Poissons Ratio (z) = 0.22113 0.09553
#
# Static dielectric constant tensor:
#      x y z
#    x 2.003740 0.000000 0.000000 
#    y 0.000000 1.933550 0.000000 
#    z 0.000000 0.000000 2.095810 
# 
# From -- ./inp_files/46475.got.cif
#   From: 2010.05.17/outbox.cif.g08.bks.cpg/sg68_24_cif.got.tgz:46475.got - 2010.06.03 18:57:09.
