data_PCOD9506211
_publ_section_title
;
Structure prediction by ZEFSAII (Michael W. Deem and Ramdas Pophale) SiO2 
 PCOD9506211
Probable space group: C C C A
;
_chemical_formula_sum "Si O2"
_cell_formula_units_Z 84
_cell_length_a 15.925110
_cell_length_b 18.150460
_cell_length_c 13.745666
_cell_angle_alpha 90.000000
_cell_angle_beta 90.000000
_cell_angle_gamma 90.000000
_cell_volume 3973.158256
_symmetry_space_group_name_H-M "C C C A"
_symmetry_group_IT_number 68
_space_group.IT_coordinate_system_code '2'
_symmetry_cell_setting 'orthorhombic'
loop_
_space_group_symop_operation_xyz
x,y,z
-x,1/2-y,z
x,1/2-y,1/2-z
-x,y,1/2-z
-x,-y,-z
x,1/2+y,-z
-x,1/2+y,1/2+z
x,-y,1/2+z
1/2+x,1/2+y,z
1/2-x,-y,z
1/2+x,-y,1/2-z
1/2-x,1/2+y,1/2-z
1/2-x,1/2-y,-z
1/2+x,y,-z
1/2-x,y,1/2+z
1/2+x,1/2-y,1/2+z
loop_
_atom_site_type_symbol
_atom_site_label
_atom_site_fract_x
_atom_site_fract_y
_atom_site_fract_z
Si Si1 0.500000 0.750000 0.250000
Si Si2 0.928898 0.830042 0.938716
Si Si3 0.173364 0.806197 0.980974
Si Si4 0.243375 0.414836 0.391036
Si Si5 0.767072 0.831249 0.202826
Si Si6 0.462864 0.667203 0.648422
O O1 0.539991 0.691530 0.170697
O O2 0.903697 0.747725 0.974132
O O3 0.845037 0.879539 0.925134
O O4 0.975168 0.862101 0.036457
O O5 0.196366 0.840371 0.878172
O O6 0.250000 0.750000 0.000000
O O7 0.181008 0.868286 0.060617
O O8 0.250000 0.500000 0.413908
O O9 0.254091 0.395706 0.278870
O O10 0.754127 0.750000 0.250000
O O11 0.861768 0.831565 0.162494
O O12 0.500000 0.750000 0.650875
O O13 0.500000 0.632368 0.750000
#
# Coordination Sequence:
#
# PCOD9506211 Si02
#       6
#     4  16  16  16  16  16
#     4  12  24  36  70  96 136 176 216 274 316 404
#     4  11  21  40  61  97 128 168 221 270 325 382
#     4  10  19  35  63  87 117 156 214 277 314 360
#     4  11  24  39  64  96 131 166 209 279 337 382
#     4  12  18  36  61  91 121 154 213 272 319 372
#     4  11  21  31  58  92 123 155 209 262 315 373
#
# _framework density 21.141870999999998
#
# number of rings (size 3 to 8) (size 9 to 14) (size 15 to 20)
#    0.000    0.952   10.476    1.143    0.000    0.762 
#    0.000    0.000    2.095    2.286    0.000    0.000 
#    0.000    0.000    0.000    0.000    0.000    0.000 
#
# Total GULP energy -233817.475722 kJ/mol
# GULP energy per Si atom -5567.082755 kJ/mol
# Density = 2.109375 g / cm^3
# Si number density = 21.141871 Si / 1000 Ang^3
#
#
#
# Elastic Constant Matrix: (Units=GPa)
#
#
# Indices 1 2 3 4 5 6 
#
# 1 61.9583 12.9742 36.1280 0.0000 0.0000 0.0000
# 2 12.9742 84.0923 25.1890 0.0000 0.0000 0.0000
# 3 36.1280 25.1890 164.4025 0.0000 0.0000 0.0000
# 4 0.0000 0.0000 0.0000 16.4238 0.0000 0.0000
# 5 0.0000 0.0000 0.0000 0.0000 10.4140 0.0000
# 6 0.0000 0.0000 0.0000 0.0000 0.0000 10.0690
#
#
#
# Elastic Compliance Matrix: (Units=1/GPa)
#
#
# Indices 1 2 3 4 5 6 
#
# 1 0.018751 -0.001739 -0.003854 0.000000 0.000000 0.000000
# 2 -0.001739 0.012625 -0.001552 0.000000 0.000000 0.000000
# 3 -0.003854 -0.001552 0.007167 0.000000 0.000000 0.000000
# 4 0.000000 0.000000 0.000000 0.060887 0.000000 0.000000
# 5 0.000000 0.000000 0.000000 0.000000 0.096025 0.000000
# 6 0.000000 0.000000 0.000000 0.000000 0.000000 0.099314
#
#
# Mechanical properties :
#
#
# Convention : Reuss Voigt Hill
#
# Bulk Modulus (GPa) = 41.23116 51.00393 46.11755
# Shear Modulus (GPa) = 15.76565 23.12548 19.44556
#
# Velocity S-wave (km/s) = 2.73373 3.31089 3.03605
# Velocity P-wave (km/s) = 5.43220 6.22840 5.84388
#
# Compressibility (1/GPa) = 0.02425350
#
# Stress axis : x y z
#
# Youngs Moduli (GPa) = 53.32937 79.20856 139.51933
#
# Poissons Ratio (x) = 0.13771 0.53775
# Poissons Ratio (y) = 0.09272 0.21657
# Poissons Ratio (z) = 0.20555 0.12295
#
# Static dielectric constant tensor:
#      x y z
#    x 1.868050 0.000000 0.000000 
#    y 0.000000 1.698240 0.000000 
#    z 0.000000 0.000000 1.973050 
# 
# From -- ./inp_files/15356.got.cif
#   From: 2010.05.17/outbox.cif.g08.bks.cpg/sg68_8_cif.got.tgz:15356.got - 2010.06.03 18:57:09.
