data_PCOD9506553
_publ_section_title
;
Structure prediction by ZEFSAII (Michael W. Deem and Ramdas Pophale) SiO2 
 PCOD9506553
Probable space group: C C C A
;
_chemical_formula_sum "Si O2"
_cell_formula_units_Z 88
_cell_length_a 28.349459
_cell_length_b 34.934314
_cell_length_c 5.233539
_cell_angle_alpha 90.000000
_cell_angle_beta 90.000000
_cell_angle_gamma 90.000000
_cell_volume 5183.134275
_symmetry_space_group_name_H-M "C C C A"
_symmetry_group_IT_number 68
_space_group.IT_coordinate_system_code '2'
_symmetry_cell_setting 'orthorhombic'
loop_
_space_group_symop_operation_xyz
x,y,z
-x,1/2-y,z
x,1/2-y,1/2-z
-x,y,1/2-z
-x,-y,-z
x,1/2+y,-z
-x,1/2+y,1/2+z
x,-y,1/2+z
1/2+x,1/2+y,z
1/2-x,-y,z
1/2+x,-y,1/2-z
1/2-x,1/2+y,1/2-z
1/2-x,1/2-y,-z
1/2+x,y,-z
1/2-x,y,1/2+z
1/2+x,1/2-y,1/2+z
loop_
_atom_site_type_symbol
_atom_site_label
_atom_site_fract_x
_atom_site_fract_y
_atom_site_fract_z
Si Si1 0.220431 0.704223 0.744323
Si Si2 0.068539 0.709018 0.356029
Si Si3 0.616834 0.680921 0.166139
Si Si4 0.557362 0.477867 0.747335
Si Si5 0.500000 0.352057 0.250000
Si Si6 0.053835 0.891089 0.641273
O O1 0.210267 0.750000 0.750000
O O2 0.240956 0.696153 0.463752
O O3 0.172922 0.681837 0.813111
O O4 0.052888 0.750000 0.250000
O O5 0.098927 0.709694 0.612492
O O6 0.026201 0.679660 0.423867
O O7 0.098493 0.692669 0.115290
O O8 0.592014 0.640125 0.225158
O O9 0.500000 0.478365 0.750000
O O10 0.573032 0.505500 0.518282
O O11 0.570065 0.433978 0.691885
O O12 0.540964 0.379724 0.350443
O O13 0.000000 0.886961 0.750000
#
# Coordination Sequence:
#
# PCOD9506553 Si02
#       6
#    16  16  16  16   8  16
#     4  10  20  35  54  73  96 125 164 215 261 298
#     4  11  21  33  48  67  97 132 174 210 240 292
#     4  11  22  35  53  75  97 133 169 210 260 299
#     4   9  19  30  48  71  95 131 169 200 236 289
#     4  10  21  32  44  68  98 142 172 204 244 286
#     4  10  20  34  51  70 108 135 167 203 250 296
#
# _framework density 16.978145000000001
#
# number of rings (size 3 to 8) (size 9 to 14) (size 15 to 20)
#    0.000    1.818    1.818    3.000    6.364    1.455 
#    0.000    1.818    0.000    0.000    0.000    0.000 
#    0.000    4.364    0.000    0.000    0.000    0.000 
#
# Total GULP energy -245001.172024 kJ/mol
# GULP energy per Si atom -5568.208455 kJ/mol
# Density = 1.693950 g / cm^3
# Si number density = 16.978145 Si / 1000 Ang^3
#
#
#
# Elastic Constant Matrix: (Units=GPa)
#
#
# Indices 1 2 3 4 5 6 
#
# 1 58.5794 29.8753 4.1900 0.0000 0.0000 0.0000
# 2 29.8753 120.1868 27.8935 0.0000 0.0000 0.0000
# 3 4.1900 27.8935 71.7364 0.0000 0.0000 0.0000
# 4 0.0000 0.0000 0.0000 17.9436 0.0000 0.0000
# 5 0.0000 0.0000 0.0000 0.0000 14.7308 0.0000
# 6 0.0000 0.0000 0.0000 0.0000 0.0000 12.7636
#
#
#
# Elastic Compliance Matrix: (Units=1/GPa)
#
#
# Indices 1 2 3 4 5 6 
#
# 1 0.019593 -0.005062 0.000824 0.000000 0.000000 0.000000
# 2 -0.005062 0.010453 -0.003769 0.000000 0.000000 0.000000
# 3 0.000824 -0.003769 0.015357 0.000000 0.000000 0.000000
# 4 0.000000 0.000000 0.000000 0.055730 0.000000 0.000000
# 5 0.000000 0.000000 0.000000 0.000000 0.067885 0.000000
# 6 0.000000 0.000000 0.000000 0.000000 0.000000 0.078348
#
#
# Mechanical properties :
#
#
# Convention : Reuss Voigt Hill
#
# Bulk Modulus (GPa) = 34.02487 41.60226 37.81356
# Shear Modulus (GPa) = 18.30313 21.65717 19.98015
#
# Velocity S-wave (km/s) = 3.28691 3.57542 3.43420
# Velocity P-wave (km/s) = 5.87273 6.44992 6.16808
#
# Compressibility (1/GPa) = 0.02939027
#
# Stress axis : x y z
#
# Youngs Moduli (GPa) = 51.03780 95.66384 65.11560
#
# Poissons Ratio (x) = 0.48421 -0.05364
# Poissons Ratio (y) = 0.25833 0.24542
# Poissons Ratio (z) = -0.04204 0.36055
#
# Static dielectric constant tensor:
#      x y z
#    x 1.579080 0.000000 0.000000 
#    y 0.000000 1.575090 0.000000 
#    z 0.000000 0.000000 1.737170 
# 
# From -- ./inp_files/2884.got.cif
#   From: 2010.05.17/outbox.cif.g08.bks.cpg/sg68_2_cif.got.tgz:2884.got - 2010.06.03 18:57:09.
