data_PCOD9506045
_publ_section_title
;
Structure prediction by ZEFSAII (Michael W. Deem and Ramdas Pophale) SiO2 
 PCOD9506045
Probable space group: C C C A
;
_chemical_formula_sum "Si O2"
_cell_formula_units_Z 68
_cell_length_a 23.076760
_cell_length_b 5.030951
_cell_length_c 29.248486
_cell_angle_alpha 90.000000
_cell_angle_beta 90.000000
_cell_angle_gamma 90.000000
_cell_volume 3395.692155
_symmetry_space_group_name_H-M "C C C A"
_symmetry_group_IT_number 68
_space_group.IT_coordinate_system_code '2'
_symmetry_cell_setting 'orthorhombic'
loop_
_space_group_symop_operation_xyz
x,y,z
-x,1/2-y,z
x,1/2-y,1/2-z
-x,y,1/2-z
-x,-y,-z
x,1/2+y,-z
-x,1/2+y,1/2+z
x,-y,1/2+z
1/2+x,1/2+y,z
1/2-x,-y,z
1/2+x,-y,1/2-z
1/2-x,1/2+y,1/2-z
1/2-x,1/2-y,-z
1/2+x,y,-z
1/2-x,y,1/2+z
1/2+x,1/2-y,1/2+z
loop_
_atom_site_type_symbol
_atom_site_label
_atom_site_fract_x
_atom_site_fract_y
_atom_site_fract_z
Si Si1 0.439364 0.128935 0.388620
Si Si2 0.418371 0.862058 0.171492
Si Si3 0.070145 0.708130 0.525203
Si Si4 0.500000 0.250000 0.750000
Si Si5 0.713625 0.249283 0.805178
O O1 0.500000 0.250000 0.406462
O O2 0.413922 0.382987 0.361912
O O3 0.447518 0.896851 0.351565
O O4 0.412201 0.956871 0.429879
O O5 0.456014 0.914955 0.217227
O O6 0.353141 0.769726 0.181822
O O7 0.089312 0.508876 0.484375
O O8 0.000000 0.750000 0.526936
O O9 0.714871 0.250000 0.750000
O O10 0.750000 0.500000 0.821668
O O11 0.750000 0.000000 0.821874
#
# Coordination Sequence:
#
# PCOD9506045 Si02
#       5
#    16  16  16   4  16
#     4  12  22  35  52  84 118 152 185 236 281 343
#     4  12  24  38  57  81 120 152 202 233 279 344
#     4  10  19  33  54  77 111 157 194 223 276 350
#     4  12  24  42  52  86 116 174 188 228 280 354
#     4  10  21  39  59  78 102 146 202 253 287 319
#
# _framework density 20.025373999999999
#
# number of rings (size 3 to 8) (size 9 to 14) (size 15 to 20)
#    0.000    0.941    3.529    6.353    0.000    1.882 
#    0.000    0.000    0.000    0.000    0.000    0.000 
#    0.000   65.882    0.000    0.000    0.000    0.000 
#
# Total GULP energy -189460.990396 kJ/mol
# GULP energy per Si atom -5572.382070 kJ/mol
# Density = 1.997980 g / cm^3
# Si number density = 20.025374 Si / 1000 Ang^3
#
#
#
# Elastic Constant Matrix: (Units=GPa)
#
#
# Indices 1 2 3 4 5 6 
#
# 1 88.5000 31.4205 20.8413 0.0000 0.0000 0.0000
# 2 31.4205 165.4193 38.0996 0.0000 0.0000 0.0000
# 3 20.8413 38.0996 73.5660 0.0000 0.0000 0.0000
# 4 0.0000 0.0000 0.0000 36.7421 0.0000 0.0000
# 5 0.0000 0.0000 0.0000 0.0000 2.2656 0.0000
# 6 0.0000 0.0000 0.0000 0.0000 0.0000 18.5091
#
#
#
# Elastic Compliance Matrix: (Units=1/GPa)
#
#
# Indices 1 2 3 4 5 6 
#
# 1 0.012551 -0.001777 -0.002635 0.000000 0.000000 0.000000
# 2 -0.001777 0.007116 -0.003182 0.000000 0.000000 0.000000
# 3 -0.002635 -0.003182 0.015988 0.000000 0.000000 0.000000
# 4 0.000000 0.000000 0.000000 0.027217 0.000000 0.000000
# 5 0.000000 0.000000 0.000000 0.000000 0.441375 0.000000
# 6 0.000000 0.000000 0.000000 0.000000 0.000000 0.054027
#
#
# Mechanical properties :
#
#
# Convention : Reuss Voigt Hill
#
# Bulk Modulus (GPa) = 48.86157 56.46755 52.66456
# Shear Modulus (GPa) = 8.61649 27.31165 17.96407
#
# Velocity S-wave (km/s) = 2.07657 3.69704 2.99835
# Velocity P-wave (km/s) = 5.49566 6.81787 6.19216
#
# Compressibility (1/GPa) = 0.02046598
#
# Stress axis : x y z
#
# Youngs Moduli (GPa) = 79.67526 140.53644 62.54830
#
# Poissons Ratio (x) = 0.24973 0.16484
# Poissons Ratio (y) = 0.14158 0.19901
# Poissons Ratio (z) = 0.20997 0.44715
#
# Static dielectric constant tensor:
#      x y z
#    x 1.760520 0.000000 0.000000 
#    y 0.000000 1.721980 0.000000 
#    z 0.000000 0.000000 1.818130 
# 
# From -- ./inp_files/55731.got.cif
#   From: 2010.05.17/outbox.cif.g08.bks.cpg/sg68_28_cif.got.tgz:55731.got - 2010.06.03 18:57:09.
