data_PCOD9506271
_publ_section_title
;
Structure prediction by ZEFSAII (Michael W. Deem and Ramdas Pophale) SiO2 
 PCOD9506271
Probable space group: C C C A
;
_chemical_formula_sum "Si O2"
_cell_formula_units_Z 64
_cell_length_a 5.252604
_cell_length_b 15.253117
_cell_length_c 33.460554
_cell_angle_alpha 90.000000
_cell_angle_beta 90.000000
_cell_angle_gamma 90.000000
_cell_volume 2680.812185
_symmetry_space_group_name_H-M "C C C A"
_symmetry_group_IT_number 68
_space_group.IT_coordinate_system_code '2'
_symmetry_cell_setting 'orthorhombic'
loop_
_space_group_symop_operation_xyz
x,y,z
-x,1/2-y,z
x,1/2-y,1/2-z
-x,y,1/2-z
-x,-y,-z
x,1/2+y,-z
-x,1/2+y,1/2+z
x,-y,1/2+z
1/2+x,1/2+y,z
1/2-x,-y,z
1/2+x,-y,1/2-z
1/2-x,1/2+y,1/2-z
1/2-x,1/2-y,-z
1/2+x,y,-z
1/2-x,y,1/2+z
1/2+x,1/2-y,1/2+z
loop_
_atom_site_type_symbol
_atom_site_label
_atom_site_fract_x
_atom_site_fract_y
_atom_site_fract_z
Si Si1 0.737002 0.651657 0.482629
Si Si2 0.748432 0.349416 0.232406
Si Si3 0.362580 0.590860 0.101286
Si Si4 0.611409 0.846522 0.859584
O O1 0.750000 0.750000 0.500000
O O2 0.500672 0.608391 0.505028
O O3 0.690400 0.655615 0.435587
O O4 0.748981 0.250000 0.250000
O O5 0.500000 0.393830 0.250000
O O6 0.723180 0.343377 0.184979
O O7 0.000000 0.391395 0.250000
O O8 0.250000 0.500000 0.083627
O O9 0.654455 0.610286 0.114931
O O10 0.154987 0.601696 0.136776
O O11 0.500000 0.750000 0.870383
#
# Coordination Sequence:
#
# PCOD9506271 Si02
#       4
#    16  16  16  16
#     4  10  23  42  67 100 133 174 238 294 341 417
#     4  10  19  36  61 104 136 163 229 302 349 381
#     4  12  28  46  68 102 150 187 226 291 376 437
#     4  12  25  42  75 106 134 187 246 295 349 426
#
# _framework density 23.873362
#
# number of rings (size 3 to 8) (size 9 to 14) (size 15 to 20)
#    0.000    1.000    2.500    4.500   14.000    1.000 
#    0.000    0.000    0.000   15.000    0.000    0.000 
#    0.000    0.000    0.000    0.000    0.000    0.000 
#
# Total GULP energy -178336.604370 kJ/mol
# GULP energy per Si atom -5573.018887 kJ/mol
# Density = 2.381902 g / cm^3
# Si number density = 23.873362 Si / 1000 Ang^3
#
#
#
# Elastic Constant Matrix: (Units=GPa)
#
#
# Indices 1 2 3 4 5 6 
#
# 1 241.0796 23.8474 22.9436 0.0000 0.0000 0.0000
# 2 23.8474 85.3884 16.4858 0.0000 0.0000 0.0000
# 3 22.9436 16.4858 102.9415 0.0000 0.0000 0.0000
# 4 0.0000 0.0000 0.0000 -11.3025 0.0000 0.0000
# 5 0.0000 0.0000 0.0000 0.0000 39.0800 0.0000
# 6 0.0000 0.0000 0.0000 0.0000 0.0000 12.5092
#
#
#
# Elastic Compliance Matrix: (Units=1/GPa)
#
#
# Indices 1 2 3 4 5 6 
#
# 1 0.004328 -0.001055 -0.000796 0.000000 0.000000 0.000000
# 2 -0.001055 0.012342 -0.001741 0.000000 0.000000 0.000000
# 3 -0.000796 -0.001741 0.010170 0.000000 0.000000 0.000000
# 4 0.000000 0.000000 0.000000 -0.088476 0.000000 0.000000
# 5 0.000000 0.000000 0.000000 0.000000 0.025589 0.000000
# 6 0.000000 0.000000 0.000000 0.000000 0.000000 0.079941
#
#
# Mechanical properties :
#
#
# Convention : Reuss Voigt Hill
#
# Bulk Modulus (GPa) = 50.87434 61.77369 56.32401
# Shear Modulus (GPa) = 86.75897 32.46618 59.61258
#
# Velocity S-wave (km/s) = 6.03492 3.69173 5.00245
# Velocity P-wave (km/s) = 8.36162 6.64105 7.55050
#
# Compressibility (1/GPa) = 0.01965627
#
# Stress axis : x y z
#
# Youngs Moduli (GPa) = 231.04798 81.02363 98.32387
#
# Poissons Ratio (x) = 0.08549 0.07823
# Poissons Ratio (y) = 0.24379 0.17122
# Poissons Ratio (z) = 0.18384 0.14109
#
# Static dielectric constant tensor:
#      x y z
#    x 1.818450 0.000000 0.000000 
#    y 0.000000 1.929650 0.000000 
#    z 0.000000 0.000000 1.894120 
# 
# From -- ./inp_files/52932.got.cif
#   From: 2010.05.17/outbox.cif.g08.bks.cpg/sg68_27_cif.got.tgz:52932.got - 2010.06.03 18:57:09.
