data_PCOD9506927
_publ_section_title
;
Structure prediction by ZEFSAII (Michael W. Deem and Ramdas Pophale) SiO2 
 PCOD9506927
Probable space group: C C C A
;
_chemical_formula_sum "Si O2"
_cell_formula_units_Z 88
_cell_length_a 16.719347
_cell_length_b 16.267224
_cell_length_c 16.612058
_cell_angle_alpha 90.000000
_cell_angle_beta 90.000000
_cell_angle_gamma 90.000000
_cell_volume 4518.103725
_symmetry_space_group_name_H-M "C C C A"
_symmetry_group_IT_number 68
_space_group.IT_coordinate_system_code '2'
_symmetry_cell_setting 'orthorhombic'
loop_
_space_group_symop_operation_xyz
x,y,z
-x,1/2-y,z
x,1/2-y,1/2-z
-x,y,1/2-z
-x,-y,-z
x,1/2+y,-z
-x,1/2+y,1/2+z
x,-y,1/2+z
1/2+x,1/2+y,z
1/2-x,-y,z
1/2+x,-y,1/2-z
1/2-x,1/2+y,1/2-z
1/2-x,1/2-y,-z
1/2+x,y,-z
1/2-x,y,1/2+z
1/2+x,1/2-y,1/2+z
loop_
_atom_site_type_symbol
_atom_site_label
_atom_site_fract_x
_atom_site_fract_y
_atom_site_fract_z
Si Si1 0.000000 0.750000 0.541615
Si Si2 0.689063 0.256457 0.158412
Si Si3 0.128235 0.800402 0.829167
Si Si4 0.606200 0.630603 0.959258
Si Si5 0.163057 0.534479 0.608866
Si Si6 0.237384 0.591422 0.441968
O O1 0.074713 0.729419 0.597641
O O2 0.024583 0.831889 0.493147
O O3 0.660528 0.250000 0.250000
O O4 0.779012 0.220896 0.157830
O O5 0.636836 0.199565 0.101809
O O6 0.697272 0.346587 0.119978
O O7 0.103034 0.750000 0.750000
O O8 0.126179 0.899647 0.830167
O O9 0.607774 0.542675 0.914723
O O10 0.675571 0.622337 0.027544
O O11 0.250000 0.500000 0.637270
O O12 0.186013 0.579876 0.524271
O O13 0.250000 0.500000 0.408022
#
# Coordination Sequence:
#
# PCOD9506927 Si02
#       6
#     8  16  16  16  16  16
#     4  12  23  36  63  86 122 170 202 238 303 374
#     4  11  20  36  58  86 118 154 201 255 305 349
#     4  11  22  37  58  92 126 159 192 251 316 366
#     4  10  20  37  60  89 114 161 204 244 295 352
#     4   9  18  37  63  89 118 151 206 262 288 344
#     4   9  17  34  56  86 117 146 205 251 288 345
#
# _framework density 19.477197
#
# number of rings (size 3 to 8) (size 9 to 14) (size 15 to 20)
#    0.000    2.182    5.455    1.909    0.000    0.727 
#    6.545    0.455    0.000    2.182    0.000    0.000 
#    0.000    0.000    0.000    0.000    0.000    0.000 
#
# Total GULP energy -245432.102137 kJ/mol
# GULP energy per Si atom -5578.002321 kJ/mol
# Density = 1.943287 g / cm^3
# Si number density = 19.477197 Si / 1000 Ang^3
#
#
#
# Elastic Constant Matrix: (Units=GPa)
#
#
# Indices 1 2 3 4 5 6 
#
# 1 27.8754 14.7433 19.7900 0.0000 0.0000 0.0000
# 2 14.7433 166.4784 71.2289 0.0000 0.0000 0.0000
# 3 19.7900 71.2289 65.8225 0.0000 0.0000 0.0000
# 4 0.0000 0.0000 0.0000 27.3058 0.0000 0.0000
# 5 0.0000 0.0000 0.0000 0.0000 -171.4849 0.0000
# 6 0.0000 0.0000 0.0000 0.0000 0.0000 23.4832
#
#
#
# Elastic Compliance Matrix: (Units=1/GPa)
#
#
# Indices 1 2 3 4 5 6 
#
# 1 0.046669 0.003483 -0.017801 0.000000 0.000000 0.000000
# 2 0.003483 0.011446 -0.013433 0.000000 0.000000 0.000000
# 3 -0.017801 -0.013433 0.035081 0.000000 0.000000 0.000000
# 4 0.000000 0.000000 0.000000 0.036622 0.000000 0.000000
# 5 0.000000 0.000000 0.000000 0.000000 -0.005831 0.000000
# 6 0.000000 0.000000 0.000000 0.000000 0.000000 0.042584
#
#
# Mechanical properties :
#
#
# Convention : Reuss Voigt Hill
#
# Bulk Modulus (GPa) = 26.52913 52.41119 39.47016
# Shear Modulus (GPa) = 21.30961 -13.84491 3.73235
#
# Velocity S-wave (km/s) = 3.31128 -2.66903 1.38579
# Velocity P-wave (km/s) = 5.31691 4.17961 4.78219
#
# Compressibility (1/GPa) = 0.03769442
#
# Stress axis : x y z
#
# Youngs Moduli (GPa) = 21.42745 87.36864 28.50576
#
# Poissons Ratio (x) = -0.30431 0.50742
# Poissons Ratio (y) = -0.07463 0.38292
# Poissons Ratio (z) = 0.38142 1.17363
#
# Static dielectric constant tensor:
#      x y z
#    x 1.676360 0.000000 0.000000 
#    y 0.000000 1.729080 0.000000 
#    z 0.000000 0.000000 1.714330 
# 
# From -- ./inp_files/23602.got.cif
#   From: 2010.05.17/outbox.cif.g08.bks.cpg/sg68_12_cif.got.tgz:23602.got - 2010.06.03 18:57:09.
