data_PCOD9506666
_publ_section_title
;
Structure prediction by ZEFSAII (Michael W. Deem and Ramdas Pophale) SiO2 
 PCOD9506666
Probable space group: C C C A
;
_chemical_formula_sum "Si O2"
_cell_formula_units_Z 68
_cell_length_a 5.129470
_cell_length_b 37.309970
_cell_length_c 19.751927
_cell_angle_alpha 90.000000
_cell_angle_beta 90.000000
_cell_angle_gamma 90.000000
_cell_volume 3780.131133
_symmetry_space_group_name_H-M "C C C A"
_symmetry_group_IT_number 68
_space_group.IT_coordinate_system_code '2'
_symmetry_cell_setting 'orthorhombic'
loop_
_space_group_symop_operation_xyz
x,y,z
-x,1/2-y,z
x,1/2-y,1/2-z
-x,y,1/2-z
-x,-y,-z
x,1/2+y,-z
-x,1/2+y,1/2+z
x,-y,1/2+z
1/2+x,1/2+y,z
1/2-x,-y,z
1/2+x,-y,1/2-z
1/2-x,1/2+y,1/2-z
1/2-x,1/2-y,-z
1/2+x,y,-z
1/2-x,y,1/2+z
1/2+x,1/2-y,1/2+z
loop_
_atom_site_type_symbol
_atom_site_label
_atom_site_fract_x
_atom_site_fract_y
_atom_site_fract_z
Si Si1 0.499096 0.025580 0.826521
Si Si2 0.912732 0.159193 0.040871
Si Si3 0.396631 0.574688 0.044953
Si Si4 0.257204 0.727112 0.619335
Si Si5 0.500000 0.250000 0.250000
O O1 0.500000 0.041399 0.750000
O O2 0.468492 0.053791 0.886920
O O3 0.750000 0.000000 0.834985
O O4 0.250000 0.000000 0.829812
O O5 0.891610 0.117384 0.059145
O O6 0.801510 0.187614 0.093560
O O7 0.214973 0.165182 0.022378
O O8 0.617067 0.566265 0.988500
O O9 0.500000 0.750000 0.588279
O O10 0.673739 0.773063 0.698940
O O11 0.000000 0.750000 0.607111
#
# Coordination Sequence:
#
# PCOD9506666 Si02
#       5
#    16  16  16  16   4
#     4  10  21  37  58  83 116 149 185 230 278 332
#     4  10  21  36  55  81 110 140 177 228 281 326
#     4  10  21  37  58  83 115 145 187 233 277 332
#     4  10  20  35  56  75 107 140 180 228 271 321
#     4   8  22  36  50  76 106 136 186 230 262 320
#
# _framework density 17.988793999999999
#
# number of rings (size 3 to 8) (size 9 to 14) (size 15 to 20)
#    0.706    1.412    0.000    3.176    0.000    5.647 
#    0.000    2.353    7.765    0.000    0.000    0.000 
#    0.000    0.000    0.000    0.000    0.000    0.000 
#
# Total GULP energy -189408.348902 kJ/mol
# GULP energy per Si atom -5570.833791 kJ/mol
# Density = 1.794785 g / cm^3
# Si number density = 17.988794 Si / 1000 Ang^3
#
#
#
# Elastic Constant Matrix: (Units=GPa)
#
#
# Indices 1 2 3 4 5 6 
#
# 1 125.1824 31.7368 19.1538 0.0000 0.0000 0.0000
# 2 31.7368 76.9495 74.3963 0.0000 0.0000 0.0000
# 3 19.1538 74.3963 104.8996 0.0000 0.0000 0.0000
# 4 0.0000 0.0000 0.0000 55.1779 0.0000 0.0000
# 5 0.0000 0.0000 0.0000 0.0000 18.0013 0.0000
# 6 0.0000 0.0000 0.0000 0.0000 0.0000 19.5333
#
#
#
# Elastic Compliance Matrix: (Units=1/GPa)
#
#
# Indices 1 2 3 4 5 6 
#
# 1 0.009254 -0.006945 0.003236 0.000000 0.000000 0.000000
# 2 -0.006945 0.046558 -0.031751 0.000000 0.000000 0.000000
# 3 0.003236 -0.031751 0.031461 0.000000 0.000000 0.000000
# 4 0.000000 0.000000 0.000000 0.018123 0.000000 0.000000
# 5 0.000000 0.000000 0.000000 0.000000 0.055551 0.000000
# 6 0.000000 0.000000 0.000000 0.000000 0.000000 0.051195
#
#
# Mechanical properties :
#
#
# Convention : Reuss Voigt Hill
#
# Bulk Modulus (GPa) = 61.15789 61.95615 61.55702
# Shear Modulus (GPa) = 17.33021 30.65882 23.99452
#
# Velocity S-wave (km/s) = 3.10722 4.13283 3.65617
# Velocity P-wave (km/s) = 6.85162 7.56902 7.21923
#
# Compressibility (1/GPa) = 0.01635112
#
# Stress axis : x y z
#
# Youngs Moduli (GPa) = 108.06114 21.47863 31.78580
#
# Poissons Ratio (x) = 0.14918 -0.10286
# Poissons Ratio (y) = 0.75052 1.00924
# Poissons Ratio (z) = -0.34969 0.68198
#
# Static dielectric constant tensor:
#      x y z
#    x 1.621290 0.000000 0.000000 
#    y 0.000000 1.586840 0.000000 
#    z 0.000000 0.000000 1.634180 
# 
# From -- ./inp_files/35203.got.cif
#   From: 2010.05.17/outbox.cif.g08.bks.cpg/sg68_18_cif.got.tgz:35203.got - 2010.06.03 18:57:09.
