data_PCOD9506790
_publ_section_title
;
Structure prediction by ZEFSAII (Michael W. Deem and Ramdas Pophale) SiO2 
 PCOD9506790
Probable space group: C C C A
;
_chemical_formula_sum "Si O2"
_cell_formula_units_Z 68
_cell_length_a 20.918082
_cell_length_b 27.345126
_cell_length_c 5.164784
_cell_angle_alpha 90.000000
_cell_angle_beta 90.000000
_cell_angle_gamma 90.000000
_cell_volume 2954.295638
_symmetry_space_group_name_H-M "C C C A"
_symmetry_group_IT_number 68
_space_group.IT_coordinate_system_code '2'
_symmetry_cell_setting 'orthorhombic'
loop_
_space_group_symop_operation_xyz
x,y,z
-x,1/2-y,z
x,1/2-y,1/2-z
-x,y,1/2-z
-x,-y,-z
x,1/2+y,-z
-x,1/2+y,1/2+z
x,-y,1/2+z
1/2+x,1/2+y,z
1/2-x,-y,z
1/2+x,-y,1/2-z
1/2-x,1/2+y,1/2-z
1/2-x,1/2-y,-z
1/2+x,y,-z
1/2-x,y,1/2+z
1/2+x,1/2-y,1/2+z
loop_
_atom_site_type_symbol
_atom_site_label
_atom_site_fract_x
_atom_site_fract_y
_atom_site_fract_z
Si Si1 0.323156 0.971059 0.416616
Si Si2 0.960379 0.437931 0.510530
Si Si3 0.000000 0.250000 0.750000
Si Si4 0.935911 0.332457 0.427127
Si Si5 0.792725 0.858098 0.698852
O O1 0.399073 0.967849 0.434193
O O2 0.302124 0.917316 0.322555
O O3 0.307296 0.013603 0.211009
O O4 0.937451 0.383056 0.589884
O O5 0.000000 0.432790 0.250000
O O6 0.000000 0.457751 0.750000
O O7 0.951997 0.284808 0.591553
O O8 0.864588 0.334707 0.302620
O O9 0.000000 0.334079 0.250000
O O10 0.750505 0.845320 0.949255
#
# Coordination Sequence:
#
# PCOD9506790 Si02
#       5
#    16  16   4  16  16
#     4  11  23  37  59  94 132 179 237 284 325 389
#     4  10  20  36  58  89 134 178 220 278 344 402
#     4  12  22  44  80 106 132 172 232 292 342 424
#     4  10  24  43  73 105 138 178 233 281 351 422
#     4  11  26  46  71 100 144 191 230 284 349 408
#
# _framework density 23.017332
#
# number of rings (size 3 to 8) (size 9 to 14) (size 15 to 20)
#    0.000    1.412    1.176    3.176    3.294    9.412 
#    0.000    1.176    0.000    0.000    0.000    0.000 
#    0.000    0.000    0.000    0.000    0.000    0.000 
#
# Total GULP energy -189851.525030 kJ/mol
# GULP energy per Si atom -5583.868383 kJ/mol
# Density = 2.296494 g / cm^3
# Si number density = 23.017332 Si / 1000 Ang^3
#
#
#
# Elastic Constant Matrix: (Units=GPa)
#
#
# Indices 1 2 3 4 5 6 
#
# 1 195.4895 25.7026 42.9082 0.0000 0.0000 0.0000
# 2 25.7026 96.8530 10.9660 0.0000 0.0000 0.0000
# 3 42.9082 10.9660 109.1148 0.0000 0.0000 0.0000
# 4 0.0000 0.0000 0.0000 6.8829 0.0000 0.0000
# 5 0.0000 0.0000 0.0000 0.0000 82.1714 0.0000
# 6 0.0000 0.0000 0.0000 0.0000 0.0000 22.3500
#
#
#
# Elastic Compliance Matrix: (Units=1/GPa)
#
#
# Indices 1 2 3 4 5 6 
#
# 1 0.005752 -0.001285 -0.002133 0.000000 0.000000 0.000000
# 2 -0.001285 0.010731 -0.000573 0.000000 0.000000 0.000000
# 3 -0.002133 -0.000573 0.010061 0.000000 0.000000 0.000000
# 4 0.000000 0.000000 0.000000 0.145288 0.000000 0.000000
# 5 0.000000 0.000000 0.000000 0.000000 0.012170 0.000000
# 6 0.000000 0.000000 0.000000 0.000000 0.000000 0.044743
#
#
# Mechanical properties :
#
#
# Convention : Reuss Voigt Hill
#
# Bulk Modulus (GPa) = 53.87326 62.29009 58.08168
# Shear Modulus (GPa) = 20.58342 43.73956 32.16149
#
# Velocity S-wave (km/s) = 2.99366 4.36396 3.74207
# Velocity P-wave (km/s) = 5.95026 7.24660 6.63019
#
# Compressibility (1/GPa) = 0.01856208
#
# Stress axis : x y z
#
# Youngs Moduli (GPa) = 173.83778 93.18930 99.39357
#
# Poissons Ratio (x) = 0.11976 0.21200
# Poissons Ratio (y) = 0.22340 0.05696
# Poissons Ratio (z) = 0.37079 0.05341
#
# Static dielectric constant tensor:
#      x y z
#    x 1.864960 0.000000 0.000000 
#    y 0.000000 1.901050 0.000000 
#    z 0.000000 0.000000 1.845740 
# 
# From -- ./inp_files/1621.got.cif
#   From: 2010.05.17/outbox.cif.g08.bks.cpg/sg68_1_cif.got.tgz:1621.got - 2010.06.03 18:57:09.
