data_PCOD9506206
_publ_section_title
;
Structure prediction by ZEFSAII (Michael W. Deem and Ramdas Pophale) SiO2 
 PCOD9506206
Probable space group: C C C A
;
_chemical_formula_sum "Si O2"
_cell_formula_units_Z 104
_cell_length_a 15.129938
_cell_length_b 17.658607
_cell_length_c 16.945989
_cell_angle_alpha 90.000000
_cell_angle_beta 90.000000
_cell_angle_gamma 90.000000
_cell_volume 4527.521379
_symmetry_space_group_name_H-M "C C C A"
_symmetry_group_IT_number 68
_space_group.IT_coordinate_system_code '2'
_symmetry_cell_setting 'orthorhombic'
loop_
_space_group_symop_operation_xyz
x,y,z
-x,1/2-y,z
x,1/2-y,1/2-z
-x,y,1/2-z
-x,-y,-z
x,1/2+y,-z
-x,1/2+y,1/2+z
x,-y,1/2+z
1/2+x,1/2+y,z
1/2-x,-y,z
1/2+x,-y,1/2-z
1/2-x,1/2+y,1/2-z
1/2-x,1/2-y,-z
1/2+x,y,-z
1/2-x,y,1/2+z
1/2+x,1/2-y,1/2+z
loop_
_atom_site_type_symbol
_atom_site_label
_atom_site_fract_x
_atom_site_fract_y
_atom_site_fract_z
Si Si1 0.704050 0.922461 0.764795
Si Si2 0.104933 0.414213 0.023783
Si Si3 0.303293 0.791342 0.165161
Si Si4 0.011046 0.659338 0.839347
Si Si5 0.547349 0.570338 0.919341
Si Si6 0.769874 0.358571 0.904507
Si Si7 0.000000 0.457363 0.750000
O O1 0.728452 0.851078 0.816553
O O2 0.744411 0.905552 0.677343
O O3 0.598884 0.924432 0.760916
O O4 0.750000 0.000000 0.791956
O O5 0.090816 0.504566 0.027577
O O6 0.207426 0.393823 0.028469
O O7 0.058851 0.374001 0.099791
O O8 0.040990 0.391636 0.952592
O O9 0.326241 0.750000 0.250000
O O10 0.386159 0.842191 0.137366
O O11 0.266717 0.725650 0.109703
O O12 0.000000 0.750000 0.836309
O O13 0.000000 0.627227 0.750000
O O14 0.625113 0.632249 0.913546
O O15 0.518290 0.522405 0.841849
#
# Coordination Sequence:
#
# PCOD9506206 Si02
#       7
#    16  16  16  16  16  16   8
#     4  10  21  37  63 100 132 178 224 279 337 403
#     4  11  22  39  65  94 133 172 222 273 340 404
#     4  10  19  35  60  97 130 166 219 275 334 407
#     4  11  19  34  61 101 132 164 210 277 349 402
#     4  10  24  41  63  96 127 183 221 274 332 409
#     4  10  19  40  65  88 136 175 222 273 348 402
#     4  10  22  44  63  90 133 170 228 266 334 394
#
# _framework density 22.970625999999999
#
# number of rings (size 3 to 8) (size 9 to 14) (size 15 to 20)
#    0.000    1.692    3.077    3.231    3.231    0.000 
#    2.769   11.923    0.000    0.000    0.000    0.000 
#    0.000    0.000    0.000    0.000    0.000    0.000 
#
# Total GULP energy -289661.417535 kJ/mol
# GULP energy per Si atom -5570.411876 kJ/mol
# Density = 2.291834 g / cm^3
# Si number density = 22.970626 Si / 1000 Ang^3
#
#
#
# Elastic Constant Matrix: (Units=GPa)
#
#
# Indices 1 2 3 4 5 6 
#
# 1 118.6667 34.4005 16.4399 0.0000 0.0000 0.0000
# 2 34.4005 52.9005 1.7764 0.0000 0.0000 0.0000
# 3 16.4399 1.7764 50.5783 0.0000 0.0000 0.0000
# 4 0.0000 0.0000 0.0000 15.2083 0.0000 0.0000
# 5 0.0000 0.0000 0.0000 0.0000 -295.3709 0.0000
# 6 0.0000 0.0000 0.0000 0.0000 0.0000 -6.5568
#
#
#
# Elastic Compliance Matrix: (Units=1/GPa)
#
#
# Indices 1 2 3 4 5 6 
#
# 1 0.010908 -0.006983 -0.003300 0.000000 0.000000 0.000000
# 2 -0.006983 0.023396 0.001448 0.000000 0.000000 0.000000
# 3 -0.003300 0.001448 0.020793 0.000000 0.000000 0.000000
# 4 0.000000 0.000000 0.000000 0.065754 0.000000 0.000000
# 5 0.000000 0.000000 0.000000 0.000000 -0.003386 0.000000
# 6 0.000000 0.000000 0.000000 0.000000 0.000000 -0.152512
#
#
# Mechanical properties :
#
#
# Convention : Reuss Voigt Hill
#
# Bulk Modulus (GPa) = 26.71880 36.37547 31.54713
# Shear Modulus (GPa) = -1020.22682 -46.04199 -533.13440
#
# Velocity S-wave (km/s) = -21.09759 -4.48189 -15.25116
# Velocity P-wave (km/s) = 24.12096 3.30350 17.21531
#
# Compressibility (1/GPa) = 0.03742683
#
# Stress axis : x y z
#
# Youngs Moduli (GPa) = 91.67193 42.74305 48.09254
#
# Poissons Ratio (x) = 0.29847 0.15873
# Poissons Ratio (y) = 0.64013 -0.06964
# Poissons Ratio (z) = 0.30256 -0.06189
#
# Static dielectric constant tensor:
#      x y z
#    x 1.921150 0.000000 0.000000 
#    y 0.000000 1.096270 0.000000 
#    z 0.000000 0.000000 1.965630 
# 
# From -- ./inp_files/31119.got.cif
#   From: 2010.05.17/outbox.cif.g08.bks.cpg/sg68_16_cif.got.tgz:31119.got - 2010.06.03 18:57:09.
