data_PCOD9506197
_publ_section_title
;
Structure prediction by ZEFSAII (Michael W. Deem and Ramdas Pophale) SiO2 
 PCOD9506197
Probable space group: C C C A
;
_chemical_formula_sum "Si O2"
_cell_formula_units_Z 88
_cell_length_a 13.451516
_cell_length_b 18.811384
_cell_length_c 19.253077
_cell_angle_alpha 90.000000
_cell_angle_beta 90.000000
_cell_angle_gamma 90.000000
_cell_volume 4871.830042
_symmetry_space_group_name_H-M "C C C A"
_symmetry_group_IT_number 68
_space_group.IT_coordinate_system_code '2'
_symmetry_cell_setting 'orthorhombic'
loop_
_space_group_symop_operation_xyz
x,y,z
-x,1/2-y,z
x,1/2-y,1/2-z
-x,y,1/2-z
-x,-y,-z
x,1/2+y,-z
-x,1/2+y,1/2+z
x,-y,1/2+z
1/2+x,1/2+y,z
1/2-x,-y,z
1/2+x,-y,1/2-z
1/2-x,1/2+y,1/2-z
1/2-x,1/2-y,-z
1/2+x,y,-z
1/2-x,y,1/2+z
1/2+x,1/2-y,1/2+z
loop_
_atom_site_type_symbol
_atom_site_label
_atom_site_fract_x
_atom_site_fract_y
_atom_site_fract_z
Si Si1 0.750000 0.500000 0.908884
Si Si2 0.097916 0.281445 0.029671
Si Si3 0.411443 0.443753 0.487147
Si Si4 0.802780 0.256211 0.890928
Si Si5 0.610209 0.107077 0.342145
Si Si6 0.373952 0.609415 0.683704
O O1 0.684053 0.553155 0.863322
O O2 0.675804 0.459887 0.959667
O O3 0.192717 0.272517 0.079765
O O4 0.000000 0.250000 0.063722
O O5 0.068963 0.360731 0.004223
O O6 0.127407 0.238357 0.959574
O O7 0.500000 0.500000 0.500000
O O8 0.377264 0.446229 0.406773
O O9 0.828217 0.177991 0.862038
O O10 0.829224 0.313599 0.833090
O O11 0.490295 0.116591 0.336596
O O12 0.638184 0.087139 0.263776
#
# Coordination Sequence:
#
# PCOD9506197 Si02
#       6
#     8  16  16  16  16  16
#     4  12  24  38  64  86 130 162 200 256 310 364
#     4  10  21  35  59  91 123 156 205 255 307 363
#     4  11  22  39  61  91 121 165 206 254 304 371
#     4  10  19  35  59  90 122 154 200 260 309 361
#     4  10  22  37  63  90 121 157 209 252 313 374
#     4  11  21  39  60  92 123 160 199 260 308 372
#
# _framework density 18.063027999999999
#
# number of rings (size 3 to 8) (size 9 to 14) (size 15 to 20)
#    0.000    1.455    3.636    3.273    0.000    2.182 
#    0.000    0.000    0.000    2.182    0.000    0.000 
#    0.000    0.000    0.000    0.000    0.000    0.000 
#
# Total GULP energy -245244.440582 kJ/mol
# GULP energy per Si atom -5573.737286 kJ/mol
# Density = 1.802192 g / cm^3
# Si number density = 18.063028 Si / 1000 Ang^3
#
#
#
# Elastic Constant Matrix: (Units=GPa)
#
#
# Indices 1 2 3 4 5 6 
#
# 1 93.5275 33.9202 43.0556 0.0000 0.0000 0.0000
# 2 33.9202 69.1775 36.0484 0.0000 0.0000 0.0000
# 3 43.0556 36.0484 139.1315 0.0000 0.0000 0.0000
# 4 0.0000 0.0000 0.0000 28.6796 0.0000 0.0000
# 5 0.0000 0.0000 0.0000 0.0000 26.4668 0.0000
# 6 0.0000 0.0000 0.0000 0.0000 0.0000 26.0863
#
#
#
# Elastic Compliance Matrix: (Units=1/GPa)
#
#
# Indices 1 2 3 4 5 6 
#
# 1 0.013978 -0.005318 -0.002948 0.000000 0.000000 0.000000
# 2 -0.005318 0.018735 -0.003209 0.000000 0.000000 0.000000
# 3 -0.002948 -0.003209 0.008931 0.000000 0.000000 0.000000
# 4 0.000000 0.000000 0.000000 0.034868 0.000000 0.000000
# 5 0.000000 0.000000 0.000000 0.000000 0.037783 0.000000
# 6 0.000000 0.000000 0.000000 0.000000 0.000000 0.038334
#
#
# Mechanical properties :
#
#
# Convention : Reuss Voigt Hill
#
# Bulk Modulus (GPa) = 53.48829 58.65390 56.07109
# Shear Modulus (GPa) = 27.50141 28.83403 28.16772
#
# Velocity S-wave (km/s) = 3.90619 3.99971 3.95322
# Velocity P-wave (km/s) = 7.07253 7.33979 7.20740
#
# Compressibility (1/GPa) = 0.01869568
#
# Stress axis : x y z
#
# Youngs Moduli (GPa) = 71.54288 53.37601 111.96994
#
# Poissons Ratio (x) = 0.28384 0.33006
# Poissons Ratio (y) = 0.38044 0.35926
# Poissons Ratio (z) = 0.21089 0.17126
#
# Static dielectric constant tensor:
#      x y z
#    x 1.620180 0.000000 0.000000 
#    y 0.000000 1.835970 0.000000 
#    z 0.000000 0.000000 1.612830 
# 
# From -- ./inp_files/38707.got.cif
#   From: 2010.05.17/outbox.cif.g08.bks.cpg/sg68_20_cif.got.tgz:38707.got - 2010.06.03 18:57:09.
