data_PCOD9506595
_publ_section_title
;
Structure prediction by ZEFSAII (Michael W. Deem and Ramdas Pophale) SiO2 
 PCOD9506595
Probable space group: C C C A
;
_chemical_formula_sum "Si O2"
_cell_formula_units_Z 68
_cell_length_a 32.205978
_cell_length_b 4.887109
_cell_length_c 22.298864
_cell_angle_alpha 90.000000
_cell_angle_beta 90.000000
_cell_angle_gamma 90.000000
_cell_volume 3509.710186
_symmetry_space_group_name_H-M "C C C A"
_symmetry_group_IT_number 68
_space_group.IT_coordinate_system_code '2'
_symmetry_cell_setting 'orthorhombic'
loop_
_space_group_symop_operation_xyz
x,y,z
-x,1/2-y,z
x,1/2-y,1/2-z
-x,y,1/2-z
-x,-y,-z
x,1/2+y,-z
-x,1/2+y,1/2+z
x,-y,1/2+z
1/2+x,1/2+y,z
1/2-x,-y,z
1/2+x,-y,1/2-z
1/2-x,1/2+y,1/2-z
1/2-x,1/2-y,-z
1/2+x,y,-z
1/2-x,y,1/2+z
1/2+x,1/2-y,1/2+z
loop_
_atom_site_type_symbol
_atom_site_label
_atom_site_fract_x
_atom_site_fract_y
_atom_site_fract_z
Si Si1 0.663741 0.707767 0.821911
Si Si2 0.453815 0.200110 0.959273
Si Si3 0.000000 0.750000 0.250000
Si Si4 0.250000 0.000000 0.293466
Si Si5 0.053982 0.250000 0.250000
Si Si6 0.111498 0.189619 0.142617
O O1 0.660816 0.750000 0.750000
O O2 0.711015 0.610223 0.830582
O O3 0.631857 0.477100 0.841443
O O4 0.649085 0.975572 0.856805
O O5 0.500000 0.250000 0.932934
O O6 0.417159 0.285121 0.915310
O O7 0.451297 0.388929 0.018653
O O8 0.029423 0.512549 0.220827
O O9 0.264152 0.750000 0.250000
O O10 0.081294 0.117802 0.197946
#
# Coordination Sequence:
#
# PCOD9506595 Si02
#       6
#    16  16   4   8   8  16
#     4  11  20  36  55  89 123 155 187 228 290 359
#     4  10  23  43  59  80 108 151 206 252 288 334
#     4  10  24  34  48  70 118 154 190 214 284 372
#     4  10  20  34  56  82 126 168 188 222 276 366
#     4  11  22  38  50  86 113 152 189 236 298 354
#     4  12  22  37  60  84 118 151 192 249 291 344
#
# _framework density 19.374821000000001
#
# number of rings (size 3 to 8) (size 9 to 14) (size 15 to 20)
#    0.000    1.176    2.353    5.647    3.294    0.000 
#    4.235    0.000    0.000    0.000    0.000   16.471 
#    0.000    0.000    0.000    0.000    0.000    0.000 
#
# Total GULP energy -189611.319627 kJ/mol
# GULP energy per Si atom -5576.803518 kJ/mol
# Density = 1.933072 g / cm^3
# Si number density = 19.374821 Si / 1000 Ang^3
#
#
#
# Elastic Constant Matrix: (Units=GPa)
#
#
# Indices 1 2 3 4 5 6 
#
# 1 90.2476 0.7098 38.7809 0.0000 0.0000 0.0000
# 2 0.7098 85.2441 2.8288 0.0000 0.0000 0.0000
# 3 38.7809 2.8288 37.0936 0.0000 0.0000 0.0000
# 4 0.0000 0.0000 0.0000 9.6325 0.0000 0.0000
# 5 0.0000 0.0000 0.0000 0.0000 44.8908 0.0000
# 6 0.0000 0.0000 0.0000 0.0000 0.0000 49.2629
#
#
#
# Elastic Compliance Matrix: (Units=1/GPa)
#
#
# Indices 1 2 3 4 5 6 
#
# 1 0.020144 0.000532 -0.021101 0.000000 0.000000 0.000000
# 2 0.000532 0.011775 -0.001455 0.000000 0.000000 0.000000
# 3 -0.021101 -0.001455 0.049130 0.000000 0.000000 0.000000
# 4 0.000000 0.000000 0.000000 0.103815 0.000000 0.000000
# 5 0.000000 0.000000 0.000000 0.000000 0.022276 0.000000
# 6 0.000000 0.000000 0.000000 0.000000 0.000000 0.020299
#
#
# Mechanical properties :
#
#
# Convention : Reuss Voigt Hill
#
# Bulk Modulus (GPa) = 27.02467 33.02491 30.02479
# Shear Modulus (GPa) = 17.61685 32.10828 24.86256
#
# Velocity S-wave (km/s) = 3.01867 4.07531 3.58612
# Velocity P-wave (km/s) = 5.11160 6.26310 5.71642
#
# Compressibility (1/GPa) = 0.03700323
#
# Stress axis : x y z
#
# Youngs Moduli (GPa) = 49.64330 84.92671 20.35407
#
# Poissons Ratio (x) = -0.04522 0.42948
# Poissons Ratio (y) = -0.02643 0.02961
# Poissons Ratio (z) = 1.04750 0.12354
#
# Static dielectric constant tensor:
#      x y z
#    x 1.750710 0.000000 0.000000 
#    y 0.000000 1.660160 0.000000 
#    z 0.000000 0.000000 1.476100 
# 
# From -- ./inp_files/41504.got.cif
#   From: 2010.05.17/outbox.cif.g08.bks.cpg/sg68_21_cif.got.tgz:41504.got - 2010.06.03 18:57:09.
