data_PCOD9506190
_publ_section_title
;
Structure prediction by ZEFSAII (Michael W. Deem and Ramdas Pophale) SiO2 
 PCOD9506190
Probable space group: C C C A
;
_chemical_formula_sum "Si O2"
_cell_formula_units_Z 88
_cell_length_a 23.030676
_cell_length_b 7.461953
_cell_length_c 23.790041
_cell_angle_alpha 90.000000
_cell_angle_beta 90.000000
_cell_angle_gamma 90.000000
_cell_volume 4088.409468
_symmetry_space_group_name_H-M "C C C A"
_symmetry_group_IT_number 68
_space_group.IT_coordinate_system_code '2'
_symmetry_cell_setting 'orthorhombic'
loop_
_space_group_symop_operation_xyz
x,y,z
-x,1/2-y,z
x,1/2-y,1/2-z
-x,y,1/2-z
-x,-y,-z
x,1/2+y,-z
-x,1/2+y,1/2+z
x,-y,1/2+z
1/2+x,1/2+y,z
1/2-x,-y,z
1/2+x,-y,1/2-z
1/2-x,1/2+y,1/2-z
1/2-x,1/2-y,-z
1/2+x,y,-z
1/2-x,y,1/2+z
1/2+x,1/2-y,1/2+z
loop_
_atom_site_type_symbol
_atom_site_label
_atom_site_fract_x
_atom_site_fract_y
_atom_site_fract_z
Si Si1 0.877236 0.463485 0.006700
Si Si2 0.239767 0.714594 0.668187
Si Si3 0.386170 0.623601 0.202411
Si Si4 0.662243 0.750000 0.750000
Si Si5 0.292986 0.750626 0.551757
Si Si6 0.562955 0.162869 0.578830
O O1 0.829928 0.429341 0.956885
O O2 0.933253 0.509687 0.969069
O O3 0.844413 0.606126 0.045598
O O4 0.893256 0.304206 0.048927
O O5 0.250000 0.500000 0.672354
O O6 0.174285 0.729540 0.688859
O O7 0.291027 0.809566 0.702872
O O8 0.253443 0.769196 0.605304
O O9 0.415499 0.750000 0.250000
O O10 0.372863 0.423064 0.226897
O O11 0.417548 0.610435 0.141835
O O12 0.250000 0.750000 0.500000
O O13 0.500000 0.250000 0.582353
#
# Coordination Sequence:
#
# PCOD9506190 Si02
#       6
#    16  16  16   8  16  16
#     4  10  22  39  63  98 129 174 221 275 345 420
#     4  10  19  35  58  90 129 171 210 255 327 413
#     4  11  24  41  66  98 137 179 230 277 343 410
#     4  10  22  40  62  95 129 180 212 272 332 420
#     4  11  20  34  59  94 139 171 205 262 338 420
#     4  11  24  45  69  94 128 178 235 301 348 398
#
# _framework density 21.524265
#
# number of rings (size 3 to 8) (size 9 to 14) (size 15 to 20)
#    0.000    1.455    0.909    6.545    2.545    0.364 
#    0.000    0.000    0.000    1.091    0.000    0.000 
#    0.000    0.000    0.000    0.000    0.000    0.000 
#
# Total GULP energy -245280.233740 kJ/mol
# GULP energy per Si atom -5574.550767 kJ/mol
# Density = 2.147527 g / cm^3
# Si number density = 21.524265 Si / 1000 Ang^3
#
#
#
# Elastic Constant Matrix: (Units=GPa)
#
#
# Indices 1 2 3 4 5 6 
#
# 1 66.4600 17.4487 31.1932 0.0000 0.0000 0.0000
# 2 17.4487 71.0900 36.9331 0.0000 0.0000 0.0000
# 3 31.1932 36.9331 158.9065 0.0000 0.0000 0.0000
# 4 0.0000 0.0000 0.0000 31.0650 0.0000 0.0000
# 5 0.0000 0.0000 0.0000 0.0000 28.0922 0.0000
# 6 0.0000 0.0000 0.0000 0.0000 0.0000 24.1137
#
#
#
# Elastic Compliance Matrix: (Units=1/GPa)
#
#
# Indices 1 2 3 4 5 6 
#
# 1 0.017044 -0.002781 -0.002699 0.000000 0.000000 0.000000
# 2 -0.002781 0.016452 -0.003278 0.000000 0.000000 0.000000
# 3 -0.002699 -0.003278 0.007585 0.000000 0.000000 0.000000
# 4 0.000000 0.000000 0.000000 0.032191 0.000000 0.000000
# 5 0.000000 0.000000 0.000000 0.000000 0.035597 0.000000
# 6 0.000000 0.000000 0.000000 0.000000 0.000000 0.041470
#
#
# Mechanical properties :
#
#
# Convention : Reuss Voigt Hill
#
# Bulk Modulus (GPa) = 42.43710 51.95629 47.19670
# Shear Modulus (GPa) = 28.45604 30.71294 29.58449
#
# Velocity S-wave (km/s) = 3.63994 3.78153 3.71141
# Velocity P-wave (km/s) = 6.11754 6.57704 6.35145
#
# Compressibility (1/GPa) = 0.02356428
#
# Stress axis : x y z
#
# Youngs Moduli (GPa) = 58.67278 60.78215 131.84363
#
# Poissons Ratio (x) = 0.16903 0.35589
# Poissons Ratio (y) = 0.16316 0.43218
# Poissons Ratio (z) = 0.15838 0.19924
#
# Static dielectric constant tensor:
#      x y z
#    x 1.871480 0.000000 0.000000 
#    y 0.000000 1.947780 0.000000 
#    z 0.000000 0.000000 1.874270 
# 
# From -- ./inp_files/36305.got.cif
#   From: 2010.05.17/outbox.cif.g08.bks.cpg/sg68_19_cif.got.tgz:36305.got - 2010.06.03 18:57:09.
