data_PCOD9506518
_publ_section_title
;
Structure prediction by ZEFSAII (Michael W. Deem and Ramdas Pophale) SiO2 
 PCOD9506518
Probable space group: C C C A
;
_chemical_formula_sum "Si O2"
_cell_formula_units_Z 84
_cell_length_a 19.197124
_cell_length_b 15.771572
_cell_length_c 12.525370
_cell_angle_alpha 90.000000
_cell_angle_beta 90.000000
_cell_angle_gamma 90.000000
_cell_volume 3792.291537
_symmetry_space_group_name_H-M "C C C A"
_symmetry_group_IT_number 68
_space_group.IT_coordinate_system_code '2'
_symmetry_cell_setting 'orthorhombic'
loop_
_space_group_symop_operation_xyz
x,y,z
-x,1/2-y,z
x,1/2-y,1/2-z
-x,y,1/2-z
-x,-y,-z
x,1/2+y,-z
-x,1/2+y,1/2+z
x,-y,1/2+z
1/2+x,1/2+y,z
1/2-x,-y,z
1/2+x,-y,1/2-z
1/2-x,1/2+y,1/2-z
1/2-x,1/2-y,-z
1/2+x,y,-z
1/2-x,y,1/2+z
1/2+x,1/2-y,1/2+z
loop_
_atom_site_type_symbol
_atom_site_label
_atom_site_fract_x
_atom_site_fract_y
_atom_site_fract_z
Si Si1 0.150372 0.102758 0.367113
Si Si2 0.500000 0.250000 0.750000
Si Si3 0.223563 0.750000 0.750000
Si Si4 0.485412 0.396064 0.907602
Si Si5 0.250000 0.500000 0.758107
Si Si6 0.534235 0.588297 0.635872
Si Si7 0.185935 0.148837 0.603839
O O1 0.173285 0.174522 0.284441
O O2 0.068027 0.093769 0.381665
O O3 0.185280 0.019524 0.319166
O O4 0.184756 0.129823 0.478748
O O5 0.463800 0.315984 0.834515
O O6 0.274498 0.769814 0.650104
O O7 0.450520 0.486776 0.881375
O O8 0.485480 0.384595 0.035572
O O9 0.226467 0.424908 0.834245
O O10 0.500000 0.597536 0.750000
O O11 0.604750 0.642009 0.633308
#
# Coordination Sequence:
#
# PCOD9506518 Si02
#       7
#    16   4   8  16   8  16  16
#     4  10  20  38  58  85 118 149 202 243 302 359
#     4  12  22  40  58  92 120 148 216 246 318 364
#     4  10  21  38  59  89 120 161 192 254 306 358
#     4  10  22  37  64  88 119 164 198 262 307 363
#     4  10  20  32  60  86 110 152 194 244 296 352
#     4  10  20  41  61  85 123 160 208 248 308 374
#     4  10  21  37  59  85 119 157 198 248 301 364
#
# _framework density 22.150196999999999
#
# number of rings (size 3 to 8) (size 9 to 14) (size 15 to 20)
#    0.000    1.905    0.952    2.857    0.000    0.000 
#    6.857    0.000    0.000    0.000    0.000    0.000 
#    0.000    0.000    0.000    0.000    0.000    0.000 
#
# Total GULP energy -234480.353530 kJ/mol
# GULP energy per Si atom -5582.865560 kJ/mol
# Density = 2.209978 g / cm^3
# Si number density = 22.150197 Si / 1000 Ang^3
#
#
#
# Elastic Constant Matrix: (Units=GPa)
#
#
# Indices 1 2 3 4 5 6 
#
# 1 72.0866 8.5701 27.9354 0.0000 0.0000 0.0000
# 2 8.5701 46.0851 9.7699 0.0000 0.0000 0.0000
# 3 27.9354 9.7699 133.8828 0.0000 0.0000 0.0000
# 4 0.0000 0.0000 0.0000 39.3029 0.0000 0.0000
# 5 0.0000 0.0000 0.0000 0.0000 29.2714 0.0000
# 6 0.0000 0.0000 0.0000 0.0000 0.0000 22.8443
#
#
#
# Elastic Compliance Matrix: (Units=1/GPa)
#
#
# Indices 1 2 3 4 5 6 
#
# 1 0.015310 -0.002204 -0.003034 0.000000 0.000000 0.000000
# 2 -0.002204 0.022357 -0.001172 0.000000 0.000000 0.000000
# 3 -0.003034 -0.001172 0.008188 0.000000 0.000000 0.000000
# 4 0.000000 0.000000 0.000000 0.025443 0.000000 0.000000
# 5 0.000000 0.000000 0.000000 0.000000 0.034163 0.000000
# 6 0.000000 0.000000 0.000000 0.000000 0.000000 0.043775
#
#
# Mechanical properties :
#
#
# Convention : Reuss Voigt Hill
#
# Bulk Modulus (GPa) = 30.26969 38.28947 34.27958
# Shear Modulus (GPa) = 28.89066 32.00234 30.44650
#
# Velocity S-wave (km/s) = 3.61544 3.80516 3.71151
# Velocity P-wave (km/s) = 5.57887 6.05223 5.82037
#
# Compressibility (1/GPa) = 0.03303634
#
# Stress axis : x y z
#
# Youngs Moduli (GPa) = 65.31749 44.72833 122.13436
#
# Poissons Ratio (x) = 0.09858 0.37051
# Poissons Ratio (y) = 0.14395 0.14309
# Poissons Ratio (z) = 0.19815 0.05240
#
# Static dielectric constant tensor:
#      x y z
#    x 1.812120 0.000000 0.000000 
#    y 0.000000 1.878110 0.000000 
#    z 0.000000 0.000000 1.822640 
# 
# From -- ./inp_files/16407.got.cif
#   From: 2010.05.17/outbox.cif.g08.bks.cpg/sg68_9_cif.got.tgz:16407.got - 2010.06.03 18:57:09.
