data_PCOD9506095
_publ_section_title
;
Structure prediction by ZEFSAII (Michael W. Deem and Ramdas Pophale) SiO2 
 PCOD9506095
Probable space group: C C C A
;
_chemical_formula_sum "Si O2"
_cell_formula_units_Z 88
_cell_length_a 25.746789
_cell_length_b 13.048722
_cell_length_c 13.427371
_cell_angle_alpha 90.000000
_cell_angle_beta 90.000000
_cell_angle_gamma 90.000000
_cell_volume 4511.095708
_symmetry_space_group_name_H-M "C C C A"
_symmetry_group_IT_number 68
_space_group.IT_coordinate_system_code '2'
_symmetry_cell_setting 'orthorhombic'
loop_
_space_group_symop_operation_xyz
x,y,z
-x,1/2-y,z
x,1/2-y,1/2-z
-x,y,1/2-z
-x,-y,-z
x,1/2+y,-z
-x,1/2+y,1/2+z
x,-y,1/2+z
1/2+x,1/2+y,z
1/2-x,-y,z
1/2+x,-y,1/2-z
1/2-x,1/2+y,1/2-z
1/2-x,1/2-y,-z
1/2+x,y,-z
1/2-x,y,1/2+z
1/2+x,1/2-y,1/2+z
loop_
_atom_site_type_symbol
_atom_site_label
_atom_site_fract_x
_atom_site_fract_y
_atom_site_fract_z
Si Si1 0.500000 0.250000 0.936633
Si Si2 0.406845 0.108433 0.596747
Si Si3 0.257377 0.883298 0.399309
Si Si4 0.643020 0.366822 0.789171
Si Si5 0.086461 0.607002 0.496701
Si Si6 0.831334 0.247587 0.540158
O O1 0.456431 0.318527 0.881637
O O2 0.533438 0.330280 0.999411
O O3 0.381970 0.071109 0.699579
O O4 0.363917 0.172764 0.533900
O O5 0.421303 0.009153 0.533812
O O6 0.296053 0.887334 0.305553
O O7 0.202884 0.824179 0.388325
O O8 0.290620 0.816899 0.478070
O O9 0.250000 0.000000 0.434097
O O10 0.637759 0.250000 0.750000
O O11 0.612674 0.386726 0.892461
O O12 0.126056 0.669955 0.425443
#
# Coordination Sequence:
#
# PCOD9506095 Si02
#       6
#     8  16  16  16  16  16
#     4  10  20  37  64  91 118 154 204 249 314 365
#     4  11  21  38  62  88 122 160 201 252 305 354
#     4  10  19  34  54  82 117 155 198 241 288 352
#     4  11  20  40  59  88 122 157 209 253 289 364
#     4  10  21  36  61  92 123 156 197 255 309 361
#     4   9  18  34  57  78 118 156 191 242 297 342
#
# _framework density 19.507456000000001
#
# number of rings (size 3 to 8) (size 9 to 14) (size 15 to 20)
#    0.000    1.818    5.455    2.727    0.000    1.455 
#    3.273    0.909    0.000    4.364    0.000    0.000 
#    0.000    0.000    0.000    0.000    0.000    0.000 
#
# Total GULP energy -245004.708870 kJ/mol
# GULP energy per Si atom -5568.288838 kJ/mol
# Density = 1.946306 g / cm^3
# Si number density = 19.507456 Si / 1000 Ang^3
#
#
#
# Elastic Constant Matrix: (Units=GPa)
#
#
# Indices 1 2 3 4 5 6 
#
# 1 128.7367 44.0367 32.1443 0.0000 0.0000 0.0000
# 2 44.0367 110.7907 27.7764 0.0000 0.0000 0.0000
# 3 32.1443 27.7764 44.9498 0.0000 0.0000 0.0000
# 4 0.0000 0.0000 0.0000 90.8936 0.0000 0.0000
# 5 0.0000 0.0000 0.0000 0.0000 22.7780 0.0000
# 6 0.0000 0.0000 0.0000 0.0000 0.0000 29.3874
#
#
#
# Elastic Compliance Matrix: (Units=1/GPa)
#
#
# Indices 1 2 3 4 5 6 
#
# 1 0.010049 -0.002595 -0.005583 0.000000 0.000000 0.000000
# 2 -0.002595 0.011351 -0.005159 0.000000 0.000000 0.000000
# 3 -0.005583 -0.005159 0.029427 0.000000 0.000000 0.000000
# 4 0.000000 0.000000 0.000000 0.011002 0.000000 0.000000
# 5 0.000000 0.000000 0.000000 0.000000 0.043902 0.000000
# 6 0.000000 0.000000 0.000000 0.000000 0.000000 0.034028
#
#
# Mechanical properties :
#
#
# Convention : Reuss Voigt Hill
#
# Bulk Modulus (GPa) = 41.39987 54.71022 48.05504
# Shear Modulus (GPa) = 28.65597 40.64645 34.65121
#
# Velocity S-wave (km/s) = 3.83688 4.56964 4.21920
# Velocity P-wave (km/s) = 6.39512 7.47989 6.95868
#
# Compressibility (1/GPa) = 0.02415467
#
# Stress axis : x y z
#
# Youngs Moduli (GPa) = 99.50843 88.10073 33.98200
#
# Poissons Ratio (x) = 0.22859 0.18973
# Poissons Ratio (y) = 0.25819 0.17530
# Poissons Ratio (z) = 0.55557 0.45447
#
# Static dielectric constant tensor:
#      x y z
#    x 1.739870 0.000000 0.000000 
#    y 0.000000 1.711280 0.000000 
#    z 0.000000 0.000000 1.700130 
# 
# From -- ./inp_files/25951.got.cif
#   From: 2010.05.17/outbox.cif.g08.bks.cpg/sg68_13_cif.got.tgz:25951.got - 2010.06.03 18:57:09.
