data_PCOD9506498
_publ_section_title
;
Structure prediction by ZEFSAII (Michael W. Deem and Ramdas Pophale) SiO2 
 PCOD9506498
Probable space group: C C C A
;
_chemical_formula_sum "Si O2"
_cell_formula_units_Z 72
_cell_length_a 19.089540
_cell_length_b 21.318173
_cell_length_c 8.338322
_cell_angle_alpha 90.000000
_cell_angle_beta 90.000000
_cell_angle_gamma 90.000000
_cell_volume 3393.314460
_symmetry_space_group_name_H-M "C C C A"
_symmetry_group_IT_number 68
_space_group.IT_coordinate_system_code '2'
_symmetry_cell_setting 'orthorhombic'
loop_
_space_group_symop_operation_xyz
x,y,z
-x,1/2-y,z
x,1/2-y,1/2-z
-x,y,1/2-z
-x,-y,-z
x,1/2+y,-z
-x,1/2+y,1/2+z
x,-y,1/2+z
1/2+x,1/2+y,z
1/2-x,-y,z
1/2+x,-y,1/2-z
1/2-x,1/2+y,1/2-z
1/2-x,1/2-y,-z
1/2+x,y,-z
1/2-x,y,1/2+z
1/2+x,1/2-y,1/2+z
loop_
_atom_site_type_symbol
_atom_site_label
_atom_site_fract_x
_atom_site_fract_y
_atom_site_fract_z
Si Si1 0.803915 0.160003 0.524971
Si Si2 0.900180 0.471409 0.160745
Si Si3 0.302334 0.051363 0.921730
Si Si4 0.284734 0.250000 0.750000
Si Si5 0.442820 0.090617 0.366049
O O1 0.744805 0.105588 0.499180
O O2 0.765313 0.206245 0.645637
O O3 0.823511 0.202871 0.371963
O O4 0.871549 0.129309 0.608099
O O5 0.854737 0.427777 0.279853
O O6 0.929268 0.526851 0.268807
O O7 0.847666 0.510352 0.045339
O O8 0.955095 0.433678 0.049352
O O9 0.250000 0.000000 0.846533
O O10 0.500000 0.123388 0.250000
#
# Coordination Sequence:
#
# PCOD9506498 Si02
#       5
#    16  16  16   8  16
#     4  11  21  37  58  83 123 149 212 255 316 369
#     4  10  20  32  52  90 125 153 198 241 311 383
#     4  11  19  31  60  90 118 156 194 257 321 368
#     4  10  24  38  57  88 111 158 202 280 316 340
#     4  11  22  35  54  82 123 168 199 242 305 384
#
# _framework density 21.218194
#
# number of rings (size 3 to 8) (size 9 to 14) (size 15 to 20)
#    0.000    1.333    4.444    4.000    0.000    0.000 
#    0.000    0.556    0.000    0.000    0.000   14.000 
#    0.000    0.000    0.000    0.000    0.000    0.000 
#
# Total GULP energy -200642.258917 kJ/mol
# GULP energy per Si atom -5573.396081 kJ/mol
# Density = 2.116990 g / cm^3
# Si number density = 21.218194 Si / 1000 Ang^3
#
#
#
# Elastic Constant Matrix: (Units=GPa)
#
#
# Indices 1 2 3 4 5 6 
#
# 1 86.2339 28.3699 35.2608 0.0000 0.0000 0.0000
# 2 28.3699 85.0220 12.9137 0.0000 0.0000 0.0000
# 3 35.2608 12.9137 84.3917 0.0000 0.0000 0.0000
# 4 0.0000 0.0000 0.0000 29.6832 0.0000 0.0000
# 5 0.0000 0.0000 0.0000 0.0000 27.9517 0.0000
# 6 0.0000 0.0000 0.0000 0.0000 0.0000 15.8765
#
#
#
# Elastic Compliance Matrix: (Units=1/GPa)
#
#
# Indices 1 2 3 4 5 6 
#
# 1 0.015350 -0.004247 -0.005764 0.000000 0.000000 0.000000
# 2 -0.004247 0.013216 -0.000248 0.000000 0.000000 0.000000
# 3 -0.005764 -0.000248 0.014296 0.000000 0.000000 0.000000
# 4 0.000000 0.000000 0.000000 0.033689 0.000000 0.000000
# 5 0.000000 0.000000 0.000000 0.000000 0.035776 0.000000
# 6 0.000000 0.000000 0.000000 0.000000 0.000000 0.062986
#
#
# Mechanical properties :
#
#
# Convention : Reuss Voigt Hill
#
# Bulk Modulus (GPa) = 44.75213 45.41517 45.08365
# Shear Modulus (GPa) = 24.59674 26.64250 25.61962
#
# Velocity S-wave (km/s) = 3.40844 3.54735 3.47859
# Velocity P-wave (km/s) = 6.05203 6.18293 6.11783
#
# Compressibility (1/GPa) = 0.02234530
#
# Stress axis : x y z
#
# Youngs Moduli (GPa) = 65.14541 75.66400 69.95090
#
# Poissons Ratio (x) = 0.32131 0.40319
# Poissons Ratio (y) = 0.27665 0.01735
# Poissons Ratio (z) = 0.37549 0.01877
#
# Static dielectric constant tensor:
#      x y z
#    x 1.869010 0.000000 0.000000 
#    y 0.000000 1.770880 0.000000 
#    z 0.000000 0.000000 1.879710 
# 
# From -- ./inp_files/6938.got.cif
#   From: 2010.05.17/outbox.cif.g08.bks.cpg/sg68_4_cif.got.tgz:6938.got - 2010.06.03 18:57:09.
