data_PCOD9506704
_publ_section_title
;
Structure prediction by ZEFSAII (Michael W. Deem and Ramdas Pophale) SiO2 
 PCOD9506704
Probable space group: C C C A
;
_chemical_formula_sum "Si O2"
_cell_formula_units_Z 96
_cell_length_a 14.720281
_cell_length_b 20.949937
_cell_length_c 13.959629
_cell_angle_alpha 90.000000
_cell_angle_beta 90.000000
_cell_angle_gamma 90.000000
_cell_volume 4304.995463
_symmetry_space_group_name_H-M "C C C A"
_symmetry_group_IT_number 68
_space_group.IT_coordinate_system_code '2'
_symmetry_cell_setting 'orthorhombic'
loop_
_space_group_symop_operation_xyz
x,y,z
-x,1/2-y,z
x,1/2-y,1/2-z
-x,y,1/2-z
-x,-y,-z
x,1/2+y,-z
-x,1/2+y,1/2+z
x,-y,1/2+z
1/2+x,1/2+y,z
1/2-x,-y,z
1/2+x,-y,1/2-z
1/2-x,1/2+y,1/2-z
1/2-x,1/2-y,-z
1/2+x,y,-z
1/2-x,y,1/2+z
1/2+x,1/2-y,1/2+z
loop_
_atom_site_type_symbol
_atom_site_label
_atom_site_fract_x
_atom_site_fract_y
_atom_site_fract_z
Si Si1 0.352838 0.254468 0.142558
Si Si2 0.723993 0.623748 0.579354
Si Si3 0.250000 0.500000 0.303612
Si Si4 0.416994 0.492388 0.684791
Si Si5 0.452249 0.880082 0.455186
Si Si6 0.500000 0.750000 0.027663
Si Si7 0.872037 0.886438 0.070643
O O1 0.392641 0.250000 0.250000
O O2 0.287108 0.193115 0.129915
O O3 0.327323 0.328988 0.131368
O O4 0.417137 0.250722 0.048726
O O5 0.706731 0.559705 0.639637
O O6 0.649398 0.622402 0.494923
O O7 0.821428 0.615190 0.530516
O O8 0.333768 0.532677 0.248053
O O9 0.500000 0.517118 0.750000
O O10 0.458799 0.439688 0.614408
O O11 0.366986 0.547517 0.625179
O O12 0.483044 0.812795 0.410694
O O13 0.520425 0.882187 0.546512
#
# Coordination Sequence:
#
# PCOD9506704 Si02
#       7
#    16  16   8  16  16   8  16
#     4  10  20  35  59  90 121 155 203 259 306 354
#     4  11  22  40  61  86 120 163 205 248 304 374
#     4  12  24  38  60  92 124 160 206 260 310 360
#     4  12  24  39  61  92 125 160 205 261 311 360
#     4  10  21  40  61  85 118 161 204 248 303 372
#     4   8  19  36  61  86 118 162 208 246 301 370
#     4  11  22  39  61  87 120 163 204 248 305 373
#
# _framework density 22.299675000000001
#
# number of rings (size 3 to 8) (size 9 to 14) (size 15 to 20)
#    0.000    1.333    0.000    6.250    0.000    2.667 
#    0.000    0.417    0.000    0.000    0.000    0.000 
#    0.000    0.000    0.000    0.000    0.000    0.000 
#
# Total GULP energy -267504.758894 kJ/mol
# GULP energy per Si atom -5573.015810 kJ/mol
# Density = 2.224892 g / cm^3
# Si number density = 22.299675 Si / 1000 Ang^3
#
#
#
# Elastic Constant Matrix: (Units=GPa)
#
#
# Indices 1 2 3 4 5 6 
#
# 1 66.6271 11.6444 6.5471 0.0000 0.0000 0.0000
# 2 11.6444 175.0557 52.0447 0.0000 0.0000 0.0000
# 3 6.5471 52.0447 50.3221 0.0000 0.0000 0.0000
# 4 0.0000 0.0000 0.0000 2.4009 0.0000 0.0000
# 5 0.0000 0.0000 0.0000 0.0000 2.1039 0.0000
# 6 0.0000 0.0000 0.0000 0.0000 0.0000 12.6572
#
#
#
# Elastic Compliance Matrix: (Units=1/GPa)
#
#
# Indices 1 2 3 4 5 6 
#
# 1 0.015249 -0.000613 -0.001350 0.000000 0.000000 0.000000
# 2 -0.000613 0.008273 -0.008477 0.000000 0.000000 0.000000
# 3 -0.001350 -0.008477 0.028815 0.000000 0.000000 0.000000
# 4 0.000000 0.000000 0.000000 0.416502 0.000000 0.000000
# 5 0.000000 0.000000 0.000000 0.000000 0.475318 0.000000
# 6 0.000000 0.000000 0.000000 0.000000 0.000000 0.079006
#
#
# Mechanical properties :
#
#
# Convention : Reuss Voigt Hill
#
# Bulk Modulus (GPa) = 31.78927 48.05303 39.92115
# Shear Modulus (GPa) = 4.74145 18.21699 11.47922
#
# Velocity S-wave (km/s) = 1.45975 2.86128 2.27132
# Velocity P-wave (km/s) = 4.13855 5.70188 4.98192
#
# Compressibility (1/GPa) = 0.03145716
#
# Stress axis : x y z
#
# Youngs Moduli (GPa) = 65.57945 120.86844 34.70448
#
# Poissons Ratio (x) = 0.07409 0.04685
# Poissons Ratio (y) = 0.04020 0.29419
# Poissons Ratio (z) = 0.08853 1.02459
#
# Static dielectric constant tensor:
#      x y z
#    x 1.816030 0.000000 0.000000 
#    y 0.000000 1.970780 0.000000 
#    z 0.000000 0.000000 1.826360 
# 
# From -- ./inp_files/22397.got.cif
#   From: 2010.05.17/outbox.cif.g08.bks.cpg/sg68_12_cif.got.tgz:22397.got - 2010.06.03 18:57:09.
