data_PCOD9506759
_publ_section_title
;
Structure prediction by ZEFSAII (Michael W. Deem and Ramdas Pophale) SiO2 
 PCOD9506759
Probable space group: C C C A
;
_chemical_formula_sum "Si O2"
_cell_formula_units_Z 96
_cell_length_a 16.687111
_cell_length_b 20.804117
_cell_length_c 14.214624
_cell_angle_alpha 90.000000
_cell_angle_beta 90.000000
_cell_angle_gamma 90.000000
_cell_volume 4934.757534
_symmetry_space_group_name_H-M "C C C A"
_symmetry_group_IT_number 68
_space_group.IT_coordinate_system_code '2'
_symmetry_cell_setting 'orthorhombic'
loop_
_space_group_symop_operation_xyz
x,y,z
-x,1/2-y,z
x,1/2-y,1/2-z
-x,y,1/2-z
-x,-y,-z
x,1/2+y,-z
-x,1/2+y,1/2+z
x,-y,1/2+z
1/2+x,1/2+y,z
1/2-x,-y,z
1/2+x,-y,1/2-z
1/2-x,1/2+y,1/2-z
1/2-x,1/2-y,-z
1/2+x,y,-z
1/2-x,y,1/2+z
1/2+x,1/2-y,1/2+z
loop_
_atom_site_type_symbol
_atom_site_label
_atom_site_fract_x
_atom_site_fract_y
_atom_site_fract_z
Si Si1 0.342638 0.804729 0.042289
Si Si2 0.313564 0.337480 0.567228
Si Si3 0.758762 0.674165 0.735553
Si Si4 0.093399 0.104779 0.753532
Si Si5 0.423876 0.922339 0.967094
Si Si6 0.609241 0.549611 0.553741
O O1 0.362975 0.729392 0.055135
O O2 0.302681 0.834232 0.136343
O O3 0.274902 0.813334 0.962399
O O4 0.411727 0.851719 0.008978
O O5 0.305879 0.356966 0.676365
O O6 0.340337 0.395362 0.499866
O O7 0.762652 0.750000 0.750000
O O8 0.665651 0.654605 0.738101
O O9 0.100957 0.076180 0.857715
O O10 0.108467 0.056711 0.666458
O O11 0.000000 0.128195 0.750000
O O12 0.517567 0.936623 0.974972
O O13 0.373705 0.977212 0.020815
#
# Coordination Sequence:
#
# PCOD9506759 Si02
#       6
#    16  16  16  16  16  16
#     4  10  20  36  57  82 116 150 183 230 282 335
#     4  10  20  36  57  82 116 150 183 230 282 335
#     4  10  20  36  56  85 117 147 189 236 280 334
#     4  10  20  36  57  82 111 147 191 238 285 332
#     4  10  22  39  58  83 115 150 189 234 283 334
#     4  10  22  39  58  83 115 150 189 234 283 334
#
# _framework density 19.453842999999999
#
# number of rings (size 3 to 8) (size 9 to 14) (size 15 to 20)
#    0.000    2.000    3.333    0.000    0.000    3.000 
#    0.000    7.500    0.000    3.000    0.000    0.000 
#    0.000    0.000    0.000    0.000    0.000    0.000 
#
# Total GULP energy -267372.364563 kJ/mol
# GULP energy per Si atom -5570.257595 kJ/mol
# Density = 1.940956 g / cm^3
# Si number density = 19.453843 Si / 1000 Ang^3
#
#
#
# Elastic Constant Matrix: (Units=GPa)
#
#
# Indices 1 2 3 4 5 6 
#
# 1 12.2195 2.8524 8.5212 0.0000 0.0000 0.0000
# 2 2.8524 42.1088 2.2880 0.0000 0.0000 0.0000
# 3 8.5212 2.2880 79.9283 0.0000 0.0000 0.0000
# 4 0.0000 0.0000 0.0000 19.6329 0.0000 0.0000
# 5 0.0000 0.0000 0.0000 0.0000 23.2952 0.0000
# 6 0.0000 0.0000 0.0000 0.0000 0.0000 23.2256
#
#
#
# Elastic Compliance Matrix: (Units=1/GPa)
#
#
# Indices 1 2 3 4 5 6 
#
# 1 0.089693 -0.005565 -0.009403 0.000000 0.000000 0.000000
# 2 -0.005565 0.024130 -0.000097 0.000000 0.000000 0.000000
# 3 -0.009403 -0.000097 0.013516 0.000000 0.000000 0.000000
# 4 0.000000 0.000000 0.000000 0.050935 0.000000 0.000000
# 5 0.000000 0.000000 0.000000 0.000000 0.042927 0.000000
# 6 0.000000 0.000000 0.000000 0.000000 0.000000 0.043056
#
#
# Mechanical properties :
#
#
# Convention : Reuss Voigt Hill
#
# Bulk Modulus (GPa) = 10.28712 17.95332 14.12022
# Shear Modulus (GPa) = 15.30030 21.27040 18.28535
#
# Velocity S-wave (km/s) = 2.80749 3.31021 3.06916
# Velocity P-wave (km/s) = 3.97602 4.88454 4.45351
#
# Compressibility (1/GPa) = 0.09720898
#
# Stress axis : x y z
#
# Youngs Moduli (GPa) = 11.14918 41.44176 73.98388
#
# Poissons Ratio (x) = 0.23062 0.69567
# Poissons Ratio (y) = 0.06204 0.00721
# Poissons Ratio (z) = 0.10484 0.00404
#
# Static dielectric constant tensor:
#      x y z
#    x 1.695440 0.000000 0.000000 
#    y 0.000000 1.705260 0.000000 
#    z 0.000000 0.000000 1.727000 
# 
# From -- ./inp_files/22354.got.cif
#   From: 2010.05.17/outbox.cif.g08.bks.cpg/sg68_12_cif.got.tgz:22354.got - 2010.06.03 18:57:09.
