data_PCOD9506193
_publ_section_title
;
Structure prediction by ZEFSAII (Michael W. Deem and Ramdas Pophale) SiO2 
 PCOD9506193
Probable space group: C C C A
;
_chemical_formula_sum "Si O2"
_cell_formula_units_Z 120
_cell_length_a 12.142506
_cell_length_b 23.484544
_cell_length_c 23.685153
_cell_angle_alpha 90.000000
_cell_angle_beta 90.000000
_cell_angle_gamma 90.000000
_cell_volume 6754.087041
_symmetry_space_group_name_H-M "C C C A"
_symmetry_group_IT_number 68
_space_group.IT_coordinate_system_code '2'
_symmetry_cell_setting 'orthorhombic'
loop_
_space_group_symop_operation_xyz
x,y,z
-x,1/2-y,z
x,1/2-y,1/2-z
-x,y,1/2-z
-x,-y,-z
x,1/2+y,-z
-x,1/2+y,1/2+z
x,-y,1/2+z
1/2+x,1/2+y,z
1/2-x,-y,z
1/2+x,-y,1/2-z
1/2-x,1/2+y,1/2-z
1/2-x,1/2-y,-z
1/2+x,y,-z
1/2-x,y,1/2+z
1/2+x,1/2-y,1/2+z
loop_
_atom_site_type_symbol
_atom_site_label
_atom_site_fract_x
_atom_site_fract_y
_atom_site_fract_z
Si Si1 0.360938 0.916309 0.809603
Si Si2 0.998486 0.814979 0.897406
Si Si3 0.750000 0.500000 0.894426
Si Si4 0.564327 0.572178 0.458069
Si Si5 0.374238 0.482973 0.430527
Si Si6 0.191167 0.685059 0.692794
Si Si7 0.287818 0.313018 0.822940
Si Si8 0.385178 0.412534 0.318434
O O1 0.331372 0.965170 0.853639
O O2 0.275760 0.865328 0.819370
O O3 0.353112 0.935082 0.743969
O O4 0.486227 0.896975 0.817430
O O5 0.039611 0.863478 0.939809
O O6 0.082491 0.817980 0.844717
O O7 0.000000 0.750000 0.919702
O O8 0.878241 0.825134 0.870694
O O9 0.672996 0.456593 0.929755
O O10 0.459088 0.535120 0.437615
O O11 0.580844 0.563474 0.524839
O O12 0.250000 0.500000 0.446241
O O13 0.370462 0.458259 0.367668
O O14 0.164160 0.680589 0.759326
O O15 0.243745 0.746347 0.677468
O O16 0.188753 0.357034 0.828806
#
# Coordination Sequence:
#
# PCOD9506193 Si02
#       8
#    16  16   8  16  16  16  16  16
#     4  10  21  35  56  82 117 148 185 238 285 353
#     4  10  19  35  59  84 114 143 190 241 286 333
#     4  12  20  40  58  86 114 150 190 234 286 360
#     4  11  23  39  62  84 108 157 194 233 289 343
#     4  11  23  39  59  82 113 147 195 240 279 347
#     4   9  17  32  55  82 114 151 188 225 282 352
#     4   9  18  32  54  83 115 150 185 232 286 339
#     4  10  21  37  53  83 117 148 189 235 291 338
#
# _framework density 17.767021
#
# number of rings (size 3 to 8) (size 9 to 14) (size 15 to 20)
#    0.000    1.867    3.333    1.200    0.933    2.133 
#    0.000    2.667    2.933    2.400    0.000    0.000 
#    0.000    0.000    0.000    0.000    0.000    0.000 
#
# Total GULP energy -334586.799905 kJ/mol
# GULP energy per Si atom -5576.446665 kJ/mol
# Density = 1.772658 g / cm^3
# Si number density = 17.767021 Si / 1000 Ang^3
#
#
#
# Elastic Constant Matrix: (Units=GPa)
#
#
# Indices 1 2 3 4 5 6 
#
# 1 79.6980 32.1824 23.0511 0.0000 0.0000 0.0000
# 2 32.1824 77.0213 38.6160 0.0000 0.0000 0.0000
# 3 23.0511 38.6160 59.2872 0.0000 0.0000 0.0000
# 4 0.0000 0.0000 0.0000 34.8055 0.0000 0.0000
# 5 0.0000 0.0000 0.0000 0.0000 -3.5438 0.0000
# 6 0.0000 0.0000 0.0000 0.0000 0.0000 26.2629
#
#
#
# Elastic Compliance Matrix: (Units=1/GPa)
#
#
# Indices 1 2 3 4 5 6 
#
# 1 0.015372 -0.005088 -0.002663 0.000000 0.000000 0.000000
# 2 -0.005088 0.020963 -0.011676 0.000000 0.000000 0.000000
# 3 -0.002663 -0.011676 0.025507 0.000000 0.000000 0.000000
# 4 0.000000 0.000000 0.000000 0.028731 0.000000 0.000000
# 5 0.000000 0.000000 0.000000 0.000000 -0.282181 0.000000
# 6 0.000000 0.000000 0.000000 0.000000 0.000000 0.038077
#
#
# Mechanical properties :
#
#
# Convention : Reuss Voigt Hill
#
# Bulk Modulus (GPa) = 43.49845 44.85617 44.17731
# Shear Modulus (GPa) = -46.72285 19.64872 -13.53707
#
# Velocity S-wave (km/s) = -5.13367 3.32913 -2.76329
# Velocity P-wave (km/s) = 3.25632 6.33081 3.83898
#
# Compressibility (1/GPa) = 0.02298932
#
# Stress axis : x y z
#
# Youngs Moduli (GPa) = 65.05311 47.70227 39.20439
#
# Poissons Ratio (x) = 0.24271 0.10439
# Poissons Ratio (y) = 0.33099 0.45775
# Poissons Ratio (z) = 0.17322 0.55697
#
# Static dielectric constant tensor:
#      x y z
#    x 1.593980 0.000000 0.000000 
#    y 0.000000 1.598240 0.000000 
#    z 0.000000 0.000000 1.611680 
# 
# From -- ./inp_files/37996.got.cif
#   From: 2010.05.17/outbox.cif.g08.bks.cpg/sg68_19_cif.got.tgz:37996.got - 2010.06.03 18:57:09.
