data_PCOD9506981
_publ_section_title
;
Structure prediction by ZEFSAII (Michael W. Deem and Ramdas Pophale) SiO2 
 PCOD9506981
Probable space group: C C C A
;
_chemical_formula_sum "Si O2"
_cell_formula_units_Z 60
_cell_length_a 13.776499
_cell_length_b 19.792168
_cell_length_c 8.996399
_cell_angle_alpha 90.000000
_cell_angle_beta 90.000000
_cell_angle_gamma 90.000000
_cell_volume 2453.019171
_symmetry_space_group_name_H-M "C C C A"
_symmetry_group_IT_number 68
_space_group.IT_coordinate_system_code '2'
_symmetry_cell_setting 'orthorhombic'
loop_
_space_group_symop_operation_xyz
x,y,z
-x,1/2-y,z
x,1/2-y,1/2-z
-x,y,1/2-z
-x,-y,-z
x,1/2+y,-z
-x,1/2+y,1/2+z
x,-y,1/2+z
1/2+x,1/2+y,z
1/2-x,-y,z
1/2+x,-y,1/2-z
1/2-x,1/2+y,1/2-z
1/2-x,1/2-y,-z
1/2+x,y,-z
1/2-x,y,1/2+z
1/2+x,1/2-y,1/2+z
loop_
_atom_site_type_symbol
_atom_site_label
_atom_site_fract_x
_atom_site_fract_y
_atom_site_fract_z
Si Si1 0.154445 0.151567 0.824341
Si Si2 0.500000 0.250000 0.250000
Si Si3 0.000000 0.399830 0.250000
Si Si4 0.110225 0.976747 0.519603
Si Si5 0.652837 0.871786 0.022282
O O1 0.153954 0.151158 0.646825
O O2 0.069421 0.204487 0.853466
O O3 0.129415 0.078982 0.894830
O O4 0.260237 0.164338 0.890663
O O5 0.093901 0.440338 0.320343
O O6 0.946555 0.362695 0.385477
O O7 0.168770 0.046387 0.501165
O O8 0.000000 0.000000 0.500000
#
# Coordination Sequence:
#
# PCOD9506981 Si02
#       5
#    16   4   8  16  16
#     4  12  26  44  70 101 144 190 236 290 350 428
#     4  12  28  50  68  92 140 202 252 284 336 418
#     4  10  20  37  66 103 144 176 212 276 364 436
#     4  10  20  38  65 102 139 176 221 284 354 412
#     4  11  23  41  68 105 138 177 231 296 363 419
#
# _framework density 24.459655000000001
#
# number of rings (size 3 to 8) (size 9 to 14) (size 15 to 20)
#    0.000    1.067    0.000    8.800    0.000    4.267 
#    0.000    0.000    0.000    8.800    0.000    0.000 
#    0.000    0.000    0.000    0.000    0.000    0.000 
#
# Total GULP energy -167504.021305 kJ/mol
# GULP energy per Si atom -5583.467377 kJ/mol
# Density = 2.440398 g / cm^3
# Si number density = 24.459655 Si / 1000 Ang^3
#
#
#
# Elastic Constant Matrix: (Units=GPa)
#
#
# Indices 1 2 3 4 5 6 
#
# 1 120.9918 52.9687 60.7717 0.0000 0.0000 0.0000
# 2 52.9687 74.9150 31.5605 0.0000 0.0000 0.0000
# 3 60.7717 31.5605 194.4069 0.0000 0.0000 0.0000
# 4 0.0000 0.0000 0.0000 17.3741 0.0000 0.0000
# 5 0.0000 0.0000 0.0000 0.0000 49.5645 0.0000
# 6 0.0000 0.0000 0.0000 0.0000 0.0000 39.7237
#
#
#
# Elastic Compliance Matrix: (Units=1/GPa)
#
#
# Indices 1 2 3 4 5 6 
#
# 1 0.013267 -0.008194 -0.002817 0.000000 0.000000 0.000000
# 2 -0.008194 0.019389 -0.000586 0.000000 0.000000 0.000000
# 3 -0.002817 -0.000586 0.006120 0.000000 0.000000 0.000000
# 4 0.000000 0.000000 0.000000 0.057557 0.000000 0.000000
# 5 0.000000 0.000000 0.000000 0.000000 0.020176 0.000000
# 6 0.000000 0.000000 0.000000 0.000000 0.000000 0.025174
#
#
# Mechanical properties :
#
#
# Convention : Reuss Voigt Hill
#
# Bulk Modulus (GPa) = 64.17914 75.65727 69.91821
# Shear Modulus (GPa) = 29.39966 37.66667 33.53317
#
# Velocity S-wave (km/s) = 3.47070 3.92848 3.70666
# Velocity P-wave (km/s) = 6.50821 7.18163 6.85320
#
# Compressibility (1/GPa) = 0.01558139
#
# Stress axis : x y z
#
# Youngs Moduli (GPa) = 75.37433 51.57609 163.40785
#
# Poissons Ratio (x) = 0.42260 0.46034
# Poissons Ratio (y) = 0.61760 0.09580
# Poissons Ratio (z) = 0.21234 0.03024
#
# Static dielectric constant tensor:
#      x y z
#    x 1.187080 0.000000 0.000000 
#    y 0.000000 2.077130 0.000000 
#    z 0.000000 0.000000 1.915280 
# 
# From -- ./inp_files/4926.got.cif
#   From: 2010.05.17/outbox.cif.g08.bks.cpg/sg68_3_cif.got.tgz:4926.got - 2010.06.03 18:57:09.
