data_PCOD9506167
_publ_section_title
;
Structure prediction by ZEFSAII (Michael W. Deem and Ramdas Pophale) SiO2 
 PCOD9506167
Probable space group: C C C A
;
_chemical_formula_sum "Si O2"
_cell_formula_units_Z 96
_cell_length_a 9.565999
_cell_length_b 26.096980
_cell_length_c 21.634076
_cell_angle_alpha 90.000000
_cell_angle_beta 90.000000
_cell_angle_gamma 90.000000
_cell_volume 5400.810445
_symmetry_space_group_name_H-M "C C C A"
_symmetry_group_IT_number 68
_space_group.IT_coordinate_system_code '2'
_symmetry_cell_setting 'orthorhombic'
loop_
_space_group_symop_operation_xyz
x,y,z
-x,1/2-y,z
x,1/2-y,1/2-z
-x,y,1/2-z
-x,-y,-z
x,1/2+y,-z
-x,1/2+y,1/2+z
x,-y,1/2+z
1/2+x,1/2+y,z
1/2-x,-y,z
1/2+x,-y,1/2-z
1/2-x,1/2+y,1/2-z
1/2-x,1/2-y,-z
1/2+x,y,-z
1/2-x,y,1/2+z
1/2+x,1/2-y,1/2+z
loop_
_atom_site_type_symbol
_atom_site_label
_atom_site_fract_x
_atom_site_fract_y
_atom_site_fract_z
Si Si1 0.738136 0.750000 0.750000
Si Si2 0.234115 0.862689 0.252881
Si Si3 0.380870 0.038066 0.708772
Si Si4 0.610280 0.566590 0.540266
Si Si5 0.500000 0.250000 0.146011
Si Si6 0.500644 0.361815 0.355470
Si Si7 0.578629 0.445761 0.568641
O O1 0.806307 0.806374 0.749171
O O2 0.634021 0.749385 0.808732
O O3 0.331686 0.911440 0.245031
O O4 0.140555 0.867425 0.314720
O O5 0.124814 0.864449 0.195089
O O6 0.500000 0.011533 0.750000
O O7 0.435544 0.056060 0.642137
O O8 0.250000 0.000000 0.699186
O O9 0.524297 0.596305 0.592595
O O10 0.592726 0.506166 0.553332
O O11 0.546630 0.576070 0.472606
O O12 0.773721 0.578928 0.548371
O O13 0.498643 0.194935 0.114150
#
# Coordination Sequence:
#
# PCOD9506167 Si02
#       7
#     8  16  16  16   8  16  16
#     4   7  12  26  47  78 110 140 176 218 260 324
#     4   9  17  30  53  83 113 141 179 222 272 325
#     4  12  25  38  54  83 116 142 176 223 281 332
#     4  10  19  35  55  72 105 142 181 225 256 318
#     4   7  12  22  44  86 108 128 181 220 254 324
#     4   9  15  28  56  81 109 141 177 224 272 309
#     4  10  21  37  52  77 102 140 188 213 265 321
#
# _framework density 17.775110000000002
#
# number of rings (size 3 to 8) (size 9 to 14) (size 15 to 20)
#    0.000    2.500    3.333    2.000    4.667    1.333 
#    3.000    0.417    0.000    1.000    4.333    0.000 
#    0.000    0.000    0.000    0.000    0.000    0.000 
#
# Total GULP energy -267315.118602 kJ/mol
# GULP energy per Si atom -5569.064971 kJ/mol
# Density = 1.773465 g / cm^3
# Si number density = 17.775110 Si / 1000 Ang^3
#
#
#
# Elastic Constant Matrix: (Units=GPa)
#
#
# Indices 1 2 3 4 5 6 
#
# 1 38.6409 4.7990 44.9615 0.0000 0.0000 0.0000
# 2 4.7990 57.7375 18.0267 0.0000 0.0000 0.0000
# 3 44.9615 18.0267 98.6000 0.0000 0.0000 0.0000
# 4 0.0000 0.0000 0.0000 6.5705 0.0000 0.0000
# 5 0.0000 0.0000 0.0000 0.0000 25.2110 0.0000
# 6 0.0000 0.0000 0.0000 0.0000 0.0000 15.3024
#
#
#
# Elastic Compliance Matrix: (Units=1/GPa)
#
#
# Indices 1 2 3 4 5 6 
#
# 1 0.055793 0.003506 -0.026082 0.000000 0.000000 0.000000
# 2 0.003506 0.018589 -0.004997 0.000000 0.000000 0.000000
# 3 -0.026082 -0.004997 0.022949 0.000000 0.000000 0.000000
# 4 0.000000 0.000000 0.000000 0.152196 0.000000 0.000000
# 5 0.000000 0.000000 0.000000 0.000000 0.039665 0.000000
# 6 0.000000 0.000000 0.000000 0.000000 0.000000 0.065349
#
#
# Mechanical properties :
#
#
# Convention : Reuss Voigt Hill
#
# Bulk Modulus (GPa) = 23.70611 36.72807 30.21709
# Shear Modulus (GPa) = 11.79943 17.89618 14.84781
#
# Velocity S-wave (km/s) = 2.57926 3.17647 2.89332
# Velocity P-wave (km/s) = 4.71548 5.84472 5.31020
#
# Compressibility (1/GPa) = 0.04218323
#
# Stress axis : x y z
#
# Youngs Moduli (GPa) = 17.92354 53.79644 43.57458
#
# Poissons Ratio (x) = -0.18861 1.13653
# Poissons Ratio (y) = -0.06284 0.21775
# Poissons Ratio (z) = 0.46749 0.26883
#
# Static dielectric constant tensor:
#      x y z
#    x 1.649150 0.000000 0.000000 
#    y 0.000000 1.647700 0.000000 
#    z 0.000000 0.000000 1.587740 
# 
# From -- ./inp_files/37929.got.cif
#   From: 2010.05.17/outbox.cif.g08.bks.cpg/sg68_19_cif.got.tgz:37929.got - 2010.06.03 18:57:09.
