data_PCOD9506102
_publ_section_title
;
Structure prediction by ZEFSAII (Michael W. Deem and Ramdas Pophale) SiO2 
 PCOD9506102
Probable space group: C C C A
;
_chemical_formula_sum "Si O2"
_cell_formula_units_Z 88
_cell_length_a 8.216687
_cell_length_b 14.485234
_cell_length_c 30.184117
_cell_angle_alpha 90.000000
_cell_angle_beta 90.000000
_cell_angle_gamma 90.000000
_cell_volume 3592.532739
_symmetry_space_group_name_H-M "C C C A"
_symmetry_group_IT_number 68
_space_group.IT_coordinate_system_code '2'
_symmetry_cell_setting 'orthorhombic'
loop_
_space_group_symop_operation_xyz
x,y,z
-x,1/2-y,z
x,1/2-y,1/2-z
-x,y,1/2-z
-x,-y,-z
x,1/2+y,-z
-x,1/2+y,1/2+z
x,-y,1/2+z
1/2+x,1/2+y,z
1/2-x,-y,z
1/2+x,-y,1/2-z
1/2-x,1/2+y,1/2-z
1/2-x,1/2-y,-z
1/2+x,y,-z
1/2-x,y,1/2+z
1/2+x,1/2-y,1/2+z
loop_
_atom_site_type_symbol
_atom_site_label
_atom_site_fract_x
_atom_site_fract_y
_atom_site_fract_z
Si Si1 0.232584 0.298669 0.792186
Si Si2 0.563776 0.455538 0.165445
Si Si3 0.500000 0.750000 0.989586
Si Si4 0.500000 0.064940 0.750000
Si Si5 0.896036 0.373516 0.063762
Si Si6 0.000000 0.750000 0.857720
Si Si7 0.025924 0.067926 0.568404
O O1 0.164139 0.250000 0.750000
O O2 0.100988 0.351896 0.820261
O O3 0.355257 0.371313 0.767914
O O4 0.345535 0.241004 0.825709
O O5 0.750000 0.500000 0.161514
O O6 0.470567 0.503334 0.206246
O O7 0.472022 0.450025 0.118826
O O8 0.476413 0.839606 0.957645
O O9 0.378064 0.790485 0.028482
O O10 0.993006 0.464902 0.047134
O O11 0.716730 0.408699 0.072889
O O12 0.971620 0.335237 0.109155
#
# Coordination Sequence:
#
# PCOD9506102 Si02
#       7
#    16  16   8   8  16   8  16
#     4  11  19  32  57  82 112 143 195 240 276 332
#     4  10  20  37  58  81 112 159 192 226 290 349
#     4  11  24  36  59  91 113 147 196 250 301 350
#     4  10  19  34  55  82 108 146 196 237 272 337
#     4  10  21  37  63  82 114 152 197 241 296 360
#     4  11  17  34  59  92 106 149 206 245 275 338
#     4  11  20  40  60  83 118 154 193 242 302 357
#
# _framework density 24.495253000000002
#
# number of rings (size 3 to 8) (size 9 to 14) (size 15 to 20)
#    0.000    1.455    5.455    2.182    0.000    0.000 
#    3.273    0.000    0.000    0.000    0.000    0.000 
#    0.000    0.000    0.000    0.000    0.000    0.000 
#
# Total GULP energy -245035.553619 kJ/mol
# GULP energy per Si atom -5568.989855 kJ/mol
# Density = 2.443950 g / cm^3
# Si number density = 24.495253 Si / 1000 Ang^3
#
#
#
# Elastic Constant Matrix: (Units=GPa)
#
#
# Indices 1 2 3 4 5 6 
#
# 1 19.8140 19.8832 24.6107 0.0000 0.0000 0.0000
# 2 19.8832 76.3718 26.4141 0.0000 0.0000 0.0000
# 3 24.6107 26.4141 155.3073 0.0000 0.0000 0.0000
# 4 0.0000 0.0000 0.0000 59.4457 0.0000 0.0000
# 5 0.0000 0.0000 0.0000 0.0000 7.0068 0.0000
# 6 0.0000 0.0000 0.0000 0.0000 0.0000 14.0777
#
#
#
# Elastic Compliance Matrix: (Units=1/GPa)
#
#
# Indices 1 2 3 4 5 6 
#
# 1 0.080090 -0.017491 -0.009717 0.000000 0.000000 0.000000
# 2 -0.017491 0.017732 -0.000244 0.000000 0.000000 0.000000
# 3 -0.009717 -0.000244 0.008020 0.000000 0.000000 0.000000
# 4 0.000000 0.000000 0.000000 0.016822 0.000000 0.000000
# 5 0.000000 0.000000 0.000000 0.000000 0.142719 0.000000
# 6 0.000000 0.000000 0.000000 0.000000 0.000000 0.071034
#
#
# Mechanical properties :
#
#
# Convention : Reuss Voigt Hill
#
# Bulk Modulus (GPa) = 19.63120 43.70099 31.66609
# Shear Modulus (GPa) = 12.24587 28.14503 20.19545
#
# Velocity S-wave (km/s) = 2.23833 3.39337 2.87446
# Velocity P-wave (km/s) = 3.83561 5.76477 4.89614
#
# Compressibility (1/GPa) = 0.05093933
#
# Stress axis : x y z
#
# Youngs Moduli (GPa) = 12.48592 56.39553 124.68638
#
# Poissons Ratio (x) = 0.98639 1.21154
# Poissons Ratio (y) = 0.21839 0.03044
# Poissons Ratio (z) = 0.12132 0.01377
#
# Static dielectric constant tensor:
#      x y z
#    x 2.005850 0.000000 0.000000 
#    y 0.000000 2.121160 0.000000 
#    z 0.000000 0.000000 1.940560 
# 
# From -- ./inp_files/54745.got.cif
#   From: 2010.05.17/outbox.cif.g08.bks.cpg/sg68_28_cif.got.tgz:54745.got - 2010.06.03 18:57:09.
