data_PCOD9506869
_publ_section_title
;
Structure prediction by ZEFSAII (Michael W. Deem and Ramdas Pophale) SiO2 
 PCOD9506869
Probable space group: C C C A
;
_chemical_formula_sum "Si O2"
_cell_formula_units_Z 64
_cell_length_a 17.159194
_cell_length_b 17.296130
_cell_length_c 10.159962
_cell_angle_alpha 90.000000
_cell_angle_beta 90.000000
_cell_angle_gamma 90.000000
_cell_volume 3015.351247
_symmetry_space_group_name_H-M "C C C A"
_symmetry_group_IT_number 68
_space_group.IT_coordinate_system_code '2'
_symmetry_cell_setting 'orthorhombic'
loop_
_space_group_symop_operation_xyz
x,y,z
-x,1/2-y,z
x,1/2-y,1/2-z
-x,y,1/2-z
-x,-y,-z
x,1/2+y,-z
-x,1/2+y,1/2+z
x,-y,1/2+z
1/2+x,1/2+y,z
1/2-x,-y,z
1/2+x,-y,1/2-z
1/2-x,1/2+y,1/2-z
1/2-x,1/2-y,-z
1/2+x,y,-z
1/2-x,y,1/2+z
1/2+x,1/2-y,1/2+z
loop_
_atom_site_type_symbol
_atom_site_label
_atom_site_fract_x
_atom_site_fract_y
_atom_site_fract_z
Si Si1 0.008982 0.568272 0.102095
Si Si2 0.802221 0.659677 0.767159
Si Si3 0.578266 0.201553 0.530975
Si Si4 0.670315 0.353277 0.471159
O O1 0.093673 0.603872 0.077412
O O2 0.000000 0.540604 0.250000
O O3 0.000000 0.500000 0.000000
O O4 0.946821 0.636634 0.072717
O O5 0.781277 0.750000 0.750000
O O6 0.885733 0.661392 0.840164
O O7 0.739315 0.629022 0.870193
O O8 0.807276 0.625270 0.621347
O O9 0.500000 0.250000 0.561963
O O10 0.643114 0.262516 0.479114
#
# Coordination Sequence:
#
# PCOD9506869 Si02
#       4
#    16  16  16  16
#     4  11  27  44  67  90 129 173 222 269 321 388
#     4  10  20  36  65 100 135 162 205 268 327 389
#     4   9  20  38  66  98 127 167 218 270 320 377
#     4  10  23  39  69  98 131 166 212 272 325 384
#
# _framework density 21.224724999999999
#
# number of rings (size 3 to 8) (size 9 to 14) (size 15 to 20)
#    0.000    2.000    0.000    3.000   10.500   14.000 
#    0.000    1.250    0.000    0.000    0.000    0.000 
#    0.000    0.000    0.000    0.000    0.000    0.000 
#
# Total GULP energy -178815.496152 kJ/mol
# GULP energy per Si atom -5587.984255 kJ/mol
# Density = 2.117642 g / cm^3
# Si number density = 21.224725 Si / 1000 Ang^3
#
#
#
# Elastic Constant Matrix: (Units=GPa)
#
#
# Indices 1 2 3 4 5 6 
#
# 1 77.4850 16.7441 64.0199 0.0000 0.0000 0.0000
# 2 16.7441 42.3408 37.1030 0.0000 0.0000 0.0000
# 3 64.0199 37.1030 196.4543 0.0000 0.0000 0.0000
# 4 0.0000 0.0000 0.0000 22.1128 0.0000 0.0000
# 5 0.0000 0.0000 0.0000 0.0000 32.5875 0.0000
# 6 0.0000 0.0000 0.0000 0.0000 0.0000 -3.4000
#
#
#
# Elastic Compliance Matrix: (Units=1/GPa)
#
#
# Indices 1 2 3 4 5 6 
#
# 1 0.017854 -0.002351 -0.005374 0.000000 0.000000 0.000000
# 2 -0.002351 0.028611 -0.004637 0.000000 0.000000 0.000000
# 3 -0.005374 -0.004637 0.007717 0.000000 0.000000 0.000000
# 4 0.000000 0.000000 0.000000 0.045223 0.000000 0.000000
# 5 0.000000 0.000000 0.000000 0.000000 0.030687 0.000000
# 6 0.000000 0.000000 0.000000 0.000000 0.000000 -0.294119
#
#
# Mechanical properties :
#
#
# Convention : Reuss Voigt Hill
#
# Bulk Modulus (GPa) = 33.94748 61.33490 47.64119
# Shear Modulus (GPa) = -38.61549 23.48761 -7.56394
#
# Velocity S-wave (km/s) = -4.27003 3.33019 -1.88984
# Velocity P-wave (km/s) = 2.87781 6.61419 4.21104
#
# Compressibility (1/GPa) = 0.02945727
#
# Stress axis : x y z
#
# Youngs Moduli (GPa) = 56.00959 34.95099 129.57730
#
# Poissons Ratio (x) = 0.08218 0.69637
# Poissons Ratio (y) = 0.13169 0.60091
# Poissons Ratio (z) = 0.30100 0.16208
#
# Static dielectric constant tensor:
#      x y z
#    x 1.781190 0.000000 0.000000 
#    y 0.000000 1.759850 0.000000 
#    z 0.000000 0.000000 1.770940 
# 
# From -- ./inp_files/5814.got.cif
#   From: 2010.05.17/outbox.cif.g08.bks.cpg/sg68_3_cif.got.tgz:5814.got - 2010.06.03 18:57:09.
