data_PCOD9506456
_publ_section_title
;
Structure prediction by ZEFSAII (Michael W. Deem and Ramdas Pophale) SiO2 
 PCOD9506456
Probable space group: C C C A
;
_chemical_formula_sum "Si O2"
_cell_formula_units_Z 108
_cell_length_a 12.629553
_cell_length_b 14.993798
_cell_length_c 28.945851
_cell_angle_alpha 90.000000
_cell_angle_beta 90.000000
_cell_angle_gamma 90.000000
_cell_volume 5481.330105
_symmetry_space_group_name_H-M "C C C A"
_symmetry_group_IT_number 68
_space_group.IT_coordinate_system_code '2'
_symmetry_cell_setting 'orthorhombic'
loop_
_space_group_symop_operation_xyz
x,y,z
-x,1/2-y,z
x,1/2-y,1/2-z
-x,y,1/2-z
-x,-y,-z
x,1/2+y,-z
-x,1/2+y,1/2+z
x,-y,1/2+z
1/2+x,1/2+y,z
1/2-x,-y,z
1/2+x,-y,1/2-z
1/2-x,1/2+y,1/2-z
1/2-x,1/2-y,-z
1/2+x,y,-z
1/2-x,y,1/2+z
1/2+x,1/2-y,1/2+z
loop_
_atom_site_type_symbol
_atom_site_label
_atom_site_fract_x
_atom_site_fract_y
_atom_site_fract_z
Si Si1 0.750000 0.500000 0.237161
Si Si2 0.624495 0.130077 0.323341
Si Si3 0.348680 0.752429 0.466984
Si Si4 0.500000 0.250000 0.250000
Si Si5 0.883567 0.660974 0.774548
Si Si6 0.948117 0.848886 0.109689
Si Si7 0.481947 0.894703 0.996151
Si Si8 0.273499 0.719262 0.136554
O O1 0.667250 0.453302 0.203772
O O2 0.811482 0.424539 0.265339
O O3 0.570865 0.192075 0.284467
O O4 0.533986 0.100415 0.359376
O O5 0.719400 0.187455 0.346699
O O6 0.250000 0.750000 0.500000
O O7 0.396484 0.652730 0.470899
O O8 0.419887 0.830956 0.489704
O O9 0.320743 0.772615 0.414427
O O10 0.838624 0.750000 0.750000
O O11 0.864088 0.685111 0.828354
O O12 0.000000 0.649441 0.750000
O O13 0.831471 0.843791 0.131948
O O14 0.000000 0.750000 0.110125
O O15 0.947117 0.877827 0.056732
O O16 0.500000 0.000000 0.000000
#
# Coordination Sequence:
#
# PCOD9506456 Si02
#       8
#     8  16  16   4  16  16  16  16
#     4  12  26  44  68 102 136 182 236 284 358 408
#     4  11  23  38  70 102 129 173 233 286 335 412
#     4  11  22  44  73  95 138 185 226 278 358 417
#     4  12  20  40  72  92 124 176 224 276 344 380
#     4  11  26  47  67  95 147 183 228 291 350 419
#     4  10  19  41  69  97 134 169 230 287 331 402
#     4  11  24  43  66 103 138 173 224 287 337 408
#     4  11  21  44  73  97 132 193 231 277 358 420
#
# _framework density 19.703246
#
# number of rings (size 3 to 8) (size 9 to 14) (size 15 to 20)
#    0.000    1.037    6.667    1.778    1.037    4.148 
#    5.333    0.000    0.000    0.000    0.000    0.000 
#    0.000    0.000    0.000    0.000    0.000    0.000 
#
# Total GULP energy -301077.056037 kJ/mol
# GULP energy per Si atom -5575.501038 kJ/mol
# Density = 1.965840 g / cm^3
# Si number density = 19.703246 Si / 1000 Ang^3
#
#
#
# Elastic Constant Matrix: (Units=GPa)
#
#
# Indices 1 2 3 4 5 6 
#
# 1 83.0178 31.5820 43.8481 0.0000 0.0000 0.0000
# 2 31.5820 103.5938 25.5783 0.0000 0.0000 0.0000
# 3 43.8481 25.5783 141.9969 0.0000 0.0000 0.0000
# 4 0.0000 0.0000 0.0000 18.5455 0.0000 0.0000
# 5 0.0000 0.0000 0.0000 0.0000 39.3930 0.0000
# 6 0.0000 0.0000 0.0000 0.0000 0.0000 13.5832
#
#
#
# Elastic Compliance Matrix: (Units=1/GPa)
#
#
# Indices 1 2 3 4 5 6 
#
# 1 0.015671 -0.003750 -0.004164 0.000000 0.000000 0.000000
# 2 -0.003750 0.011000 -0.000824 0.000000 0.000000 0.000000
# 3 -0.004164 -0.000824 0.008477 0.000000 0.000000 0.000000
# 4 0.000000 0.000000 0.000000 0.053921 0.000000 0.000000
# 5 0.000000 0.000000 0.000000 0.000000 0.025385 0.000000
# 6 0.000000 0.000000 0.000000 0.000000 0.000000 0.073620
#
#
# Mechanical properties :
#
#
# Convention : Reuss Voigt Hill
#
# Bulk Modulus (GPa) = 56.58167 58.95835 57.77001
# Shear Modulus (GPa) = 23.64748 29.47768 26.56258
#
# Velocity S-wave (km/s) = 3.46812 3.87212 3.67568
# Velocity P-wave (km/s) = 6.69451 7.06960 6.88461
#
# Compressibility (1/GPa) = 0.01767357
#
# Stress axis : x y z
#
# Youngs Moduli (GPa) = 63.81114 90.91305 117.97292
#
# Poissons Ratio (x) = 0.34088 0.49122
# Poissons Ratio (y) = 0.23926 0.09716
# Poissons Ratio (z) = 0.26570 0.07487
#
# Static dielectric constant tensor:
#      x y z
#    x 1.730780 0.000000 0.000000 
#    y 0.000000 1.680490 0.000000 
#    z 0.000000 0.000000 1.681820 
# 
# From -- ./inp_files/54858.got.cif
#   From: 2010.05.17/outbox.cif.g08.bks.cpg/sg68_28_cif.got.tgz:54858.got - 2010.06.03 18:57:09.
