data_PCOD9506459
_publ_section_title
;
Structure prediction by ZEFSAII (Michael W. Deem and Ramdas Pophale) SiO2 
 PCOD9506459
Probable space group: C C C A
;
_chemical_formula_sum "Si O2"
_cell_formula_units_Z 60
_cell_length_a 16.943228
_cell_length_b 16.928439
_cell_length_c 9.389671
_cell_angle_alpha 90.000000
_cell_angle_beta 90.000000
_cell_angle_gamma 90.000000
_cell_volume 2693.167987
_symmetry_space_group_name_H-M "C C C A"
_symmetry_group_IT_number 68
_space_group.IT_coordinate_system_code '2'
_symmetry_cell_setting 'orthorhombic'
loop_
_space_group_symop_operation_xyz
x,y,z
-x,1/2-y,z
x,1/2-y,1/2-z
-x,y,1/2-z
-x,-y,-z
x,1/2+y,-z
-x,1/2+y,1/2+z
x,-y,1/2+z
1/2+x,1/2+y,z
1/2-x,-y,z
1/2+x,-y,1/2-z
1/2-x,1/2+y,1/2-z
1/2-x,1/2-y,-z
1/2+x,y,-z
1/2-x,y,1/2+z
1/2+x,1/2-y,1/2+z
loop_
_atom_site_type_symbol
_atom_site_label
_atom_site_fract_x
_atom_site_fract_y
_atom_site_fract_z
Si Si1 0.100321 0.186910 0.493802
Si Si2 0.000000 0.386371 0.250000
Si Si3 0.500000 0.750000 0.750000
Si Si4 0.651204 0.639777 0.105416
Si Si5 0.740146 0.091711 0.630617
O O1 0.130153 0.269880 0.429117
O O2 0.169318 0.121627 0.474773
O O3 0.034066 0.160734 0.382783
O O4 0.057966 0.200417 0.645216
O O5 0.081920 0.415004 0.324281
O O6 0.719662 0.636881 0.224272
O O7 0.680719 0.610097 0.954428
O O8 0.750000 0.000000 0.664341
#
# Coordination Sequence:
#
# PCOD9506459 Si02
#       5
#    16   8   4  16  16
#     4  11  23  41  70 101 136 178 236 305 347 429
#     4  10  19  42  65  91 132 178 223 298 359 398
#     4  12  24  38  74 114 136 172 256 298 364 410
#     4  11  22  42  67  95 133 181 235 295 358 418
#     4  11  25  42  64  97 139 186 231 289 359 433
#
# _framework density 22.278596
#
# number of rings (size 3 to 8) (size 9 to 14) (size 15 to 20)
#    0.000    1.067    2.667    5.600    3.733    0.000 
#    0.000    6.667    0.000    0.000    0.000    0.000 
#    0.000    0.000    0.000    0.000    0.000    0.000 
#
# Total GULP energy -167021.901175 kJ/mol
# GULP energy per Si atom -5567.396706 kJ/mol
# Density = 2.222789 g / cm^3
# Si number density = 22.278596 Si / 1000 Ang^3
#
#
#
# Elastic Constant Matrix: (Units=GPa)
#
#
# Indices 1 2 3 4 5 6 
#
# 1 61.9077 24.8123 52.7069 0.0000 0.0000 0.0000
# 2 24.8123 40.0521 13.5140 0.0000 0.0000 0.0000
# 3 52.7069 13.5140 122.7353 0.0000 0.0000 0.0000
# 4 0.0000 0.0000 0.0000 -2.7543 0.0000 0.0000
# 5 0.0000 0.0000 0.0000 0.0000 53.9165 0.0000
# 6 0.0000 0.0000 0.0000 0.0000 0.0000 -24.6799
#
#
#
# Elastic Compliance Matrix: (Units=1/GPa)
#
#
# Indices 1 2 3 4 5 6 
#
# 1 0.033441 -0.016484 -0.012546 0.000000 0.000000 0.000000
# 2 -0.016484 0.034056 0.003329 0.000000 0.000000 0.000000
# 3 -0.012546 0.003329 0.013169 0.000000 0.000000 0.000000
# 4 0.000000 0.000000 0.000000 -0.363074 0.000000 0.000000
# 5 0.000000 0.000000 0.000000 0.000000 0.018547 0.000000
# 6 0.000000 0.000000 0.000000 0.000000 0.000000 -0.040519
#
#
# Mechanical properties :
#
#
# Convention : Reuss Voigt Hill
#
# Bulk Modulus (GPa) = 34.17113 45.19574 39.68343
# Shear Modulus (GPa) = -20.55716 14.20726 -3.17495
#
# Velocity S-wave (km/s) = -3.04094 2.52803 -1.19508
# Velocity P-wave (km/s) = 1.74402 5.37140 3.99334
#
# Compressibility (1/GPa) = 0.02926447
#
# Stress axis : x y z
#
# Youngs Moduli (GPa) = 29.90364 29.36350 75.93791
#
# Poissons Ratio (x) = 0.48401 0.95269
# Poissons Ratio (y) = 0.49292 -0.25279
# Poissons Ratio (z) = 0.37516 -0.09775
#
# Static dielectric constant tensor:
#      x y z
#    x 2.033290 0.000000 0.000000 
#    y 0.000000 1.847640 0.000000 
#    z 0.000000 0.000000 1.806690 
# 
# From -- ./inp_files/5657.got.cif
#   From: 2010.05.17/outbox.cif.g08.bks.cpg/sg68_3_cif.got.tgz:5657.got - 2010.06.03 18:57:09.
