data_PCOD9506957
_publ_section_title
;
Structure prediction by ZEFSAII (Michael W. Deem and Ramdas Pophale) SiO2 
 PCOD9506957
Probable space group: C C C A
;
_chemical_formula_sum "Si O2"
_cell_formula_units_Z 104
_cell_length_a 19.963714
_cell_length_b 15.436110
_cell_length_c 15.483249
_cell_angle_alpha 90.000000
_cell_angle_beta 90.000000
_cell_angle_gamma 90.000000
_cell_volume 4771.350299
_symmetry_space_group_name_H-M "C C C A"
_symmetry_group_IT_number 68
_space_group.IT_coordinate_system_code '2'
_symmetry_cell_setting 'orthorhombic'
loop_
_space_group_symop_operation_xyz
x,y,z
-x,1/2-y,z
x,1/2-y,1/2-z
-x,y,1/2-z
-x,-y,-z
x,1/2+y,-z
-x,1/2+y,1/2+z
x,-y,1/2+z
1/2+x,1/2+y,z
1/2-x,-y,z
1/2+x,-y,1/2-z
1/2-x,1/2+y,1/2-z
1/2-x,1/2-y,-z
1/2+x,y,-z
1/2-x,y,1/2+z
1/2+x,1/2-y,1/2+z
loop_
_atom_site_type_symbol
_atom_site_label
_atom_site_fract_x
_atom_site_fract_y
_atom_site_fract_z
Si Si1 0.348880 0.290004 0.432063
Si Si2 0.675739 0.511380 0.521887
Si Si3 0.000000 0.750000 0.448679
Si Si4 0.992870 0.581829 0.932552
Si Si5 0.151767 0.939447 0.847555
Si Si6 0.382657 0.596568 0.333257
Si Si7 0.704352 0.752689 0.121042
O O1 0.349354 0.393029 0.452406
O O2 0.424619 0.260176 0.405838
O O3 0.324950 0.247133 0.522834
O O4 0.282727 0.273177 0.373642
O O5 0.750000 0.500000 0.555972
O O6 0.677237 0.493897 0.419444
O O7 0.634685 0.442502 0.573786
O O8 0.995992 0.665682 0.508603
O O9 0.919880 0.581492 0.889903
O O10 0.038595 0.593528 0.847001
O O11 0.000000 0.500000 0.000000
O O12 0.141984 0.960549 0.747553
O O13 0.195793 0.852716 0.854192
O O14 0.344594 0.687845 0.327769
#
# Coordination Sequence:
#
# PCOD9506957 Si02
#       7
#    16  16   8  16  16  16  16
#     4  10  20  37  63  92 131 176 220 269 331 410
#     4  11  22  41  64  94 132 174 225 272 336 404
#     4  12  20  38  67  98 131 180 228 268 341 412
#     4  12  22  40  64  98 136 181 222 275 339 406
#     4  11  24  40  61 102 129 170 231 272 335 410
#     4  12  22  38  68  93 137 171 213 286 338 393
#     4  10  20  37  62  93 129 170 214 271 347 391
#
# _framework density 21.796764
#
# number of rings (size 3 to 8) (size 9 to 14) (size 15 to 20)
#    0.000    0.923    7.692    0.923    0.000    0.615 
#    0.000    2.308    0.000    0.000    0.000   14.000 
#    0.000    0.000    0.000    0.000    0.000    0.000 
#
# Total GULP energy -289576.749343 kJ/mol
# GULP energy per Si atom -5568.783641 kJ/mol
# Density = 2.174715 g / cm^3
# Si number density = 21.796764 Si / 1000 Ang^3
#
#
#
# Elastic Constant Matrix: (Units=GPa)
#
#
# Indices 1 2 3 4 5 6 
#
# 1 137.7207 3.8554 2.6904 0.0000 0.0000 0.0000
# 2 3.8554 78.6781 27.9867 0.0000 0.0000 0.0000
# 3 2.6904 27.9867 78.5074 0.0000 0.0000 0.0000
# 4 0.0000 0.0000 0.0000 26.2510 0.0000 0.0000
# 5 0.0000 0.0000 0.0000 0.0000 0.1129 0.0000
# 6 0.0000 0.0000 0.0000 0.0000 0.0000 30.1529
#
#
#
# Elastic Compliance Matrix: (Units=1/GPa)
#
#
# Indices 1 2 3 4 5 6 
#
# 1 0.007272 -0.000307 -0.000140 0.000000 0.000000 0.000000
# 2 -0.000307 0.014569 -0.005183 0.000000 0.000000 0.000000
# 3 -0.000140 -0.005183 0.014590 0.000000 0.000000 0.000000
# 4 0.000000 0.000000 0.000000 0.038094 0.000000 0.000000
# 5 0.000000 0.000000 0.000000 0.000000 8.853836 0.000000
# 6 0.000000 0.000000 0.000000 0.000000 0.000000 0.033164
#
#
# Mechanical properties :
#
#
# Convention : Reuss Voigt Hill
#
# Bulk Modulus (GPa) = 39.72648 40.44126 40.08387
# Shear Modulus (GPa) = 0.55672 28.66162 14.60917
#
# Velocity S-wave (km/s) = 0.50593 3.63016 2.59172
# Velocity P-wave (km/s) = 4.31355 6.01372 5.23314
#
# Compressibility (1/GPa) = 0.02517213
#
# Stress axis : x y z
#
# Youngs Moduli (GPa) = 137.50635 68.64035 68.53959
#
# Poissons Ratio (x) = 0.02104 0.00959
# Poissons Ratio (y) = 0.04216 0.35524
# Poissons Ratio (z) = 0.01924 0.35576
#
# Static dielectric constant tensor:
#      x y z
#    x 2.080630 0.000000 0.000000 
#    y 0.000000 1.862320 0.000000 
#    z 0.000000 0.000000 1.869780 
# 
# From -- ./inp_files/24642.got.cif
#   From: 2010.05.17/outbox.cif.g08.bks.cpg/sg68_13_cif.got.tgz:24642.got - 2010.06.03 18:57:09.
