data_PCOD9506843
_publ_section_title
;
Structure prediction by ZEFSAII (Michael W. Deem and Ramdas Pophale) SiO2 
 PCOD9506843
Probable space group: C C C A
;
_chemical_formula_sum "Si O2"
_cell_formula_units_Z 80
_cell_length_a 11.708093
_cell_length_b 11.332866
_cell_length_c 26.660570
_cell_angle_alpha 90.000000
_cell_angle_beta 90.000000
_cell_angle_gamma 90.000000
_cell_volume 3537.491032
_symmetry_space_group_name_H-M "C C C A"
_symmetry_group_IT_number 68
_space_group.IT_coordinate_system_code '2'
_symmetry_cell_setting 'orthorhombic'
loop_
_space_group_symop_operation_xyz
x,y,z
-x,1/2-y,z
x,1/2-y,1/2-z
-x,y,1/2-z
-x,-y,-z
x,1/2+y,-z
-x,1/2+y,1/2+z
x,-y,1/2+z
1/2+x,1/2+y,z
1/2-x,-y,z
1/2+x,-y,1/2-z
1/2-x,1/2+y,1/2-z
1/2-x,1/2-y,-z
1/2+x,y,-z
1/2-x,y,1/2+z
1/2+x,1/2-y,1/2+z
loop_
_atom_site_type_symbol
_atom_site_label
_atom_site_fract_x
_atom_site_fract_y
_atom_site_fract_z
Si Si1 0.601120 0.822300 0.197883
Si Si2 0.252268 0.303883 0.054613
Si Si3 0.559942 0.998675 0.338563
Si Si4 0.270051 0.180363 0.153858
Si Si5 0.942036 0.493606 0.444982
O O1 0.500000 0.750000 0.168793
O O2 0.609488 0.750000 0.250000
O O3 0.546609 0.951467 0.194359
O O4 0.724541 0.805597 0.174217
O O5 0.269962 0.200353 0.094612
O O6 0.134774 0.376159 0.061139
O O7 0.355556 0.396386 0.059282
O O8 0.250000 0.250000 0.000000
O O9 0.668529 0.910827 0.332128
O O10 0.612221 0.126815 0.327120
O O11 0.524896 0.997040 0.397075
O O12 0.000000 0.500000 0.500000
#
# Coordination Sequence:
#
# PCOD9506843 Si02
#       5
#    16  16  16  16  16
#     4   9  18  36  65  87 121 162 202 256 327 382
#     4  11  23  37  56  87 127 171 217 260 319 385
#     4  10  20  36  62  91 121 158 210 256 313 389
#     4  10  20  36  62  91 121 160 207 261 315 380
#     4  11  23  37  56  87 127 171 218 260 315 392
#
# _framework density 22.614899000000001
#
# number of rings (size 3 to 8) (size 9 to 14) (size 15 to 20)
#    0.000    1.800    2.000    2.400    0.000    8.000 
#    0.000    0.000   35.200    0.000    0.000    0.000 
#    0.000    0.000    0.000    0.000    0.000    0.000 
#
# Total GULP energy -223014.125664 kJ/mol
# GULP energy per Si atom -5575.353142 kJ/mol
# Density = 2.256343 g / cm^3
# Si number density = 22.614899 Si / 1000 Ang^3
#
#
#
# Elastic Constant Matrix: (Units=GPa)
#
#
# Indices 1 2 3 4 5 6 
#
# 1 92.5778 49.4523 29.3279 0.0000 0.0000 0.0000
# 2 49.4523 74.0684 19.2571 0.0000 0.0000 0.0000
# 3 29.3279 19.2571 93.4207 0.0000 0.0000 0.0000
# 4 0.0000 0.0000 0.0000 27.1254 0.0000 0.0000
# 5 0.0000 0.0000 0.0000 0.0000 18.5526 0.0000
# 6 0.0000 0.0000 0.0000 0.0000 0.0000 40.3443
#
#
#
# Elastic Compliance Matrix: (Units=1/GPa)
#
#
# Indices 1 2 3 4 5 6 
#
# 1 0.017702 -0.010961 -0.003298 0.000000 0.000000 0.000000
# 2 -0.010961 0.021053 -0.000899 0.000000 0.000000 0.000000
# 3 -0.003298 -0.000899 0.011925 0.000000 0.000000 0.000000
# 4 0.000000 0.000000 0.000000 0.036866 0.000000 0.000000
# 5 0.000000 0.000000 0.000000 0.000000 0.053901 0.000000
# 6 0.000000 0.000000 0.000000 0.000000 0.000000 0.024787
#
#
# Mechanical properties :
#
#
# Convention : Reuss Voigt Hill
#
# Bulk Modulus (GPa) = 49.10549 50.68241 49.89395
# Shear Modulus (GPa) = 24.58987 28.00643 26.29815
#
# Velocity S-wave (km/s) = 3.30105 3.52292 3.41379
# Velocity P-wave (km/s) = 6.02413 6.24561 6.13587
#
# Compressibility (1/GPa) = 0.02036432
#
# Stress axis : x y z
#
# Youngs Moduli (GPa) = 56.49223 47.49918 83.85924
#
# Poissons Ratio (x) = 0.52065 0.27654
# Poissons Ratio (y) = 0.61922 0.07536
# Poissons Ratio (z) = 0.18629 0.04268
#
# Static dielectric constant tensor:
#      x y z
#    x 1.878170 0.000000 0.000000 
#    y 0.000000 1.905770 0.000000 
#    z 0.000000 0.000000 1.866960 
# 
# From -- ./inp_files/54509.got.cif
#   From: 2010.05.17/outbox.cif.g08.bks.cpg/sg68_28_cif.got.tgz:54509.got - 2010.06.03 18:57:09.
