data_PCOD9506466
_publ_section_title
;
Structure prediction by ZEFSAII (Michael W. Deem and Ramdas Pophale) SiO2 
 PCOD9506466
Probable space group: C C C A
;
_chemical_formula_sum "Si O2"
_cell_formula_units_Z 52
_cell_length_a 13.391591
_cell_length_b 5.866090
_cell_length_c 31.205005
_cell_angle_alpha 90.000000
_cell_angle_beta 90.000000
_cell_angle_gamma 90.000000
_cell_volume 2451.349049
_symmetry_space_group_name_H-M "C C C A"
_symmetry_group_IT_number 68
_space_group.IT_coordinate_system_code '2'
_symmetry_cell_setting 'orthorhombic'
loop_
_space_group_symop_operation_xyz
x,y,z
-x,1/2-y,z
x,1/2-y,1/2-z
-x,y,1/2-z
-x,-y,-z
x,1/2+y,-z
-x,1/2+y,1/2+z
x,-y,1/2+z
1/2+x,1/2+y,z
1/2-x,-y,z
1/2+x,-y,1/2-z
1/2-x,1/2+y,1/2-z
1/2-x,1/2-y,-z
1/2+x,y,-z
1/2-x,y,1/2+z
1/2+x,1/2-y,1/2+z
loop_
_atom_site_type_symbol
_atom_site_label
_atom_site_fract_x
_atom_site_fract_y
_atom_site_fract_z
Si Si1 0.250000 0.500000 0.365613
Si Si2 0.857277 0.884031 0.178405
Si Si3 0.000000 0.750000 0.250000
Si Si4 0.750000 0.500000 0.476649
Si Si5 0.895206 0.639431 0.907445
O O1 0.171068 0.628311 0.335424
O O2 0.188716 0.325762 0.394823
O O3 0.929095 0.893459 0.218670
O O4 0.750000 0.000000 0.186646
O O5 0.905353 0.995224 0.136181
O O6 0.750000 0.250000 0.500000
O O7 0.847404 0.500885 0.446029
O O8 0.000000 0.750000 0.918867
#
# Coordination Sequence:
#
# PCOD9506466 Si02
#       5
#     8  16   4   8  16
#     4  10  19  44  69  94 138 190 234 285 358 443
#     4  10  23  42  66  99 137 188 232 296 361 439
#     4  12  24  40  66 110 132 178 248 292 358 430
#     4  12  27  48  73 114 152 190 252 321 366 455
#     4  11  23  45  73 100 137 193 235 292 383 437
#
# _framework density 21.212807999999999
#
# number of rings (size 3 to 8) (size 9 to 14) (size 15 to 20)
#    0.000    1.231    4.615    2.769    2.154    1.231 
#    0.000    6.154    0.000    0.000    0.000    0.000 
#    0.000    0.000    0.000    0.000    0.000    0.000 
#
# Total GULP energy -145267.066914 kJ/mol
# GULP energy per Si atom -5587.194881 kJ/mol
# Density = 2.116453 g / cm^3
# Si number density = 21.212808 Si / 1000 Ang^3
#
#
#
# Elastic Constant Matrix: (Units=GPa)
#
#
# Indices 1 2 3 4 5 6 
#
# 1 123.6218 27.6432 74.6288 0.0000 0.0000 0.0000
# 2 27.6432 96.6091 63.3877 0.0000 0.0000 0.0000
# 3 74.6288 63.3877 148.6652 0.0000 0.0000 0.0000
# 4 0.0000 0.0000 0.0000 43.2303 0.0000 0.0000
# 5 0.0000 0.0000 0.0000 0.0000 -17.1951 0.0000
# 6 0.0000 0.0000 0.0000 0.0000 0.0000 27.4358
#
#
#
# Elastic Compliance Matrix: (Units=1/GPa)
#
#
# Indices 1 2 3 4 5 6 
#
# 1 0.011640 0.000699 -0.006141 0.000000 0.000000 0.000000
# 2 0.000699 0.014413 -0.006496 0.000000 0.000000 0.000000
# 3 -0.006141 -0.006496 0.012579 0.000000 0.000000 0.000000
# 4 0.000000 0.000000 0.000000 0.023132 0.000000 0.000000
# 5 0.000000 0.000000 0.000000 0.000000 -0.058156 0.000000
# 6 0.000000 0.000000 0.000000 0.000000 0.000000 0.036449
#
#
# Mechanical properties :
#
#
# Convention : Reuss Voigt Hill
#
# Bulk Modulus (GPa) = 67.77214 77.80172 72.78693
# Shear Modulus (GPa) = 72.61737 24.24328 48.43033
#
# Velocity S-wave (km/s) = 5.85723 3.38429 4.78333
# Velocity P-wave (km/s) = 8.81821 7.21302 8.05570
#
# Compressibility (1/GPa) = 0.01475533
#
# Stress axis : x y z
#
# Youngs Moduli (GPa) = 85.90792 69.37948 79.49546
#
# Poissons Ratio (x) = -0.04848 0.48821
# Poissons Ratio (y) = -0.06003 0.51643
# Poissons Ratio (z) = 0.52759 0.45072
#
# Static dielectric constant tensor:
#      x y z
#    x 1.740550 0.000000 0.000000 
#    y 0.000000 1.829520 0.000000 
#    z 0.000000 0.000000 1.776360 
# 
# From -- ./inp_files/55068.got.cif
#   From: 2010.05.17/outbox.cif.g08.bks.cpg/sg68_28_cif.got.tgz:55068.got - 2010.06.03 18:57:09.
