data_PCOD9506258
_publ_section_title
;
Structure prediction by ZEFSAII (Michael W. Deem and Ramdas Pophale) SiO2 
 PCOD9506258
Probable space group: C C C A
;
_chemical_formula_sum "Si O2"
_cell_formula_units_Z 104
_cell_length_a 9.858523
_cell_length_b 16.489853
_cell_length_c 28.897768
_cell_angle_alpha 90.000000
_cell_angle_beta 90.000000
_cell_angle_gamma 90.000000
_cell_volume 4697.782851
_symmetry_space_group_name_H-M "C C C A"
_symmetry_group_IT_number 68
_space_group.IT_coordinate_system_code '2'
_symmetry_cell_setting 'orthorhombic'
loop_
_space_group_symop_operation_xyz
x,y,z
-x,1/2-y,z
x,1/2-y,1/2-z
-x,y,1/2-z
-x,-y,-z
x,1/2+y,-z
-x,1/2+y,1/2+z
x,-y,1/2+z
1/2+x,1/2+y,z
1/2-x,-y,z
1/2+x,-y,1/2-z
1/2-x,1/2+y,1/2-z
1/2-x,1/2-y,-z
1/2+x,y,-z
1/2-x,y,1/2+z
1/2+x,1/2-y,1/2+z
loop_
_atom_site_type_symbol
_atom_site_label
_atom_site_fract_x
_atom_site_fract_y
_atom_site_fract_z
Si Si1 0.723489 0.819948 0.149061
Si Si2 0.436636 0.589902 0.502505
Si Si3 0.243256 0.875623 0.154338
Si Si4 0.987465 0.154935 0.597463
Si Si5 0.250000 0.500000 0.060001
Si Si6 0.658136 0.151453 0.246682
Si Si7 0.996884 0.091643 0.400412
O O1 0.731789 0.722241 0.149860
O O2 0.764910 0.859183 0.198260
O O3 0.578326 0.844654 0.130369
O O4 0.834202 0.858198 0.114225
O O5 0.500000 0.500000 0.500000
O O6 0.509348 0.638299 0.543445
O O7 0.288169 0.572982 0.524192
O O8 0.447381 0.622911 0.450849
O O9 0.099451 0.888221 0.128832
O O10 0.231381 0.887610 0.209224
O O11 0.361268 0.924640 0.128704
O O12 0.000000 0.250000 0.606532
O O13 0.386923 0.523873 0.088133
O O14 0.655847 0.250000 0.250000
O O15 0.500000 0.126425 0.250000
#
# Coordination Sequence:
#
# PCOD9506258 Si02
#       7
#    16  16  16  16   8  16  16
#     4  10  19  36  59  89 132 162 192 248 321 364
#     4  10  23  40  63  84 115 163 214 247 303 375
#     4  10  21  33  58  98 126 157 204 249 302 377
#     4  10  20  36  61  93 126 161 201 253 314 371
#     4  10  22  44  60  82 112 172 212 252 306 368
#     4   9  16  32  58  89 125 166 200 234 297 386
#     4  11  23  37  59  87 119 156 209 257 304 355
#
# _framework density 22.138103999999998
#
# number of rings (size 3 to 8) (size 9 to 14) (size 15 to 20)
#    0.000    2.000    3.077    0.462    4.308    1.846 
#    0.000    5.385    0.000    0.000   20.000    0.000 
#    0.000    0.000    0.000    0.000    0.000    0.000 
#
# Total GULP energy -289929.734849 kJ/mol
# GULP energy per Si atom -5575.571824 kJ/mol
# Density = 2.208772 g / cm^3
# Si number density = 22.138104 Si / 1000 Ang^3
#
#
#
# Elastic Constant Matrix: (Units=GPa)
#
#
# Indices 1 2 3 4 5 6 
#
# 1 120.7686 18.9377 56.6128 0.0000 0.0000 0.0000
# 2 18.9377 36.0247 12.4614 0.0000 0.0000 0.0000
# 3 56.6128 12.4614 174.6317 0.0000 0.0000 0.0000
# 4 0.0000 0.0000 0.0000 -11.1835 0.0000 0.0000
# 5 0.0000 0.0000 0.0000 0.0000 -85.9870 0.0000
# 6 0.0000 0.0000 0.0000 0.0000 0.0000 26.9574
#
#
#
# Elastic Compliance Matrix: (Units=1/GPa)
#
#
# Indices 1 2 3 4 5 6 
#
# 1 0.010406 -0.004412 -0.003059 0.000000 0.000000 0.000000
# 2 -0.004412 0.030332 -0.000734 0.000000 0.000000 0.000000
# 3 -0.003059 -0.000734 0.006770 0.000000 0.000000 0.000000
# 4 0.000000 0.000000 0.000000 -0.089417 0.000000 0.000000
# 5 0.000000 0.000000 0.000000 0.000000 -0.011630 0.000000
# 6 0.000000 0.000000 0.000000 0.000000 0.000000 0.037096
#
#
# Mechanical properties :
#
#
# Convention : Reuss Voigt Hill
#
# Bulk Modulus (GPa) = 32.15592 56.38321 44.26956
# Shear Modulus (GPa) = 483.90026 2.18493 243.04259
#
# Velocity S-wave (km/s) = 14.80058 0.99453 10.48919
# Velocity P-wave (km/s) = 17.51093 5.18102 12.91270
#
# Compressibility (1/GPa) = 0.03109848
#
# Stress axis : x y z
#
# Youngs Moduli (GPa) = 96.09870 32.96839 147.70470
#
# Poissons Ratio (x) = 0.14547 0.45177
# Poissons Ratio (y) = 0.42401 0.10842
# Poissons Ratio (z) = 0.29393 0.02420
#
# Static dielectric constant tensor:
#      x y z
#    x 1.836890 0.000000 0.000000 
#    y 0.000000 1.876720 0.000000 
#    z 0.000000 0.000000 1.815700 
# 
# From -- ./inp_files/49429.got.cif
#   From: 2010.05.17/outbox.cif.g08.bks.cpg/sg68_25_cif.got.tgz:49429.got - 2010.06.03 18:57:09.
