data_PCOD9506867
_publ_section_title
;
Structure prediction by ZEFSAII (Michael W. Deem and Ramdas Pophale) SiO2 
 PCOD9506867
Probable space group: C C C A
;
_chemical_formula_sum "Si O2"
_cell_formula_units_Z 64
_cell_length_a 16.847635
_cell_length_b 10.076082
_cell_length_c 16.781522
_cell_angle_alpha 90.000000
_cell_angle_beta 90.000000
_cell_angle_gamma 90.000000
_cell_volume 2848.800159
_symmetry_space_group_name_H-M "C C C A"
_symmetry_group_IT_number 68
_space_group.IT_coordinate_system_code '2'
_symmetry_cell_setting 'orthorhombic'
loop_
_space_group_symop_operation_xyz
x,y,z
-x,1/2-y,z
x,1/2-y,1/2-z
-x,y,1/2-z
-x,-y,-z
x,1/2+y,-z
-x,1/2+y,1/2+z
x,-y,1/2+z
1/2+x,1/2+y,z
1/2-x,-y,z
1/2+x,-y,1/2-z
1/2-x,1/2+y,1/2-z
1/2-x,1/2-y,-z
1/2+x,y,-z
1/2-x,y,1/2+z
1/2+x,1/2-y,1/2+z
loop_
_atom_site_type_symbol
_atom_site_label
_atom_site_fract_x
_atom_site_fract_y
_atom_site_fract_z
Si Si1 0.685183 0.400223 0.756006
Si Si2 0.044089 0.469971 0.668658
Si Si3 0.382056 0.478713 0.914218
Si Si4 0.593337 0.269230 0.456883
O O1 0.712706 0.250000 0.750000
O O2 0.750000 0.500000 0.789780
O O3 0.605595 0.415108 0.808367
O O4 0.662821 0.450695 0.667714
O O5 0.088581 0.347796 0.627038
O O6 0.000000 0.428243 0.750000
O O7 0.975727 0.518977 0.609250
O O8 0.366967 0.626171 0.947370
O O9 0.367807 0.365453 0.978695
O O10 0.500000 0.250000 0.478564
#
# Coordination Sequence:
#
# PCOD9506867 Si02
#       4
#    16  16  16  16
#     4  11  27  44  65  90 128 171 219 267 319 383
#     4   9  20  38  66  96 127 164 215 271 319 371
#     4  10  23  39  67 100 128 165 212 260 326 383
#     4  10  20  36  64  99 135 161 201 268 319 384
#
# _framework density 22.465598
#
# number of rings (size 3 to 8) (size 9 to 14) (size 15 to 20)
#    0.000    2.000    0.000    3.000   10.500   14.000 
#    0.000    2.500    0.000    0.000    0.000    0.000 
#    0.000    0.000    0.000    0.000    0.000    0.000 
#
# Total GULP energy -178994.599723 kJ/mol
# GULP energy per Si atom -5593.581241 kJ/mol
# Density = 2.241447 g / cm^3
# Si number density = 22.465598 Si / 1000 Ang^3
#
#
#
# Elastic Constant Matrix: (Units=GPa)
#
#
# Indices 1 2 3 4 5 6 
#
# 1 44.2503 21.3282 1.1386 0.0000 0.0000 0.0000
# 2 21.3282 138.2616 25.8627 0.0000 0.0000 0.0000
# 3 1.1386 25.8627 65.1060 0.0000 0.0000 0.0000
# 4 0.0000 0.0000 0.0000 30.0865 0.0000 0.0000
# 5 0.0000 0.0000 0.0000 0.0000 1.0852 0.0000
# 6 0.0000 0.0000 0.0000 0.0000 0.0000 19.2180
#
#
#
# Elastic Compliance Matrix: (Units=1/GPa)
#
#
# Indices 1 2 3 4 5 6 
#
# 1 0.024495 -0.003995 0.001159 0.000000 0.000000 0.000000
# 2 -0.003995 0.008465 -0.003293 0.000000 0.000000 0.000000
# 3 0.001159 -0.003293 0.016647 0.000000 0.000000 0.000000
# 4 0.000000 0.000000 0.000000 0.033238 0.000000 0.000000
# 5 0.000000 0.000000 0.000000 0.000000 0.921500 0.000000
# 6 0.000000 0.000000 0.000000 0.000000 0.000000 0.052034
#
#
# Mechanical properties :
#
#
# Convention : Reuss Voigt Hill
#
# Bulk Modulus (GPa) = 26.77503 38.25300 32.51401
# Shear Modulus (GPa) = 4.62497 23.36383 13.99440
#
# Velocity S-wave (km/s) = 1.43637 3.22837 2.49856
# Velocity P-wave (km/s) = 3.83340 5.56425 4.77786
#
# Compressibility (1/GPa) = 0.03734823
#
# Stress axis : x y z
#
# Youngs Moduli (GPa) = 40.82532 118.13481 60.06980
#
# Poissons Ratio (x) = 0.47198 -0.06960
# Poissons Ratio (y) = 0.16311 0.19779
# Poissons Ratio (z) = -0.04731 0.38899
#
# Static dielectric constant tensor:
#      x y z
#    x 1.838220 0.000000 0.000000 
#    y 0.000000 1.810560 0.000000 
#    z 0.000000 0.000000 1.818430 
# 
# From -- ./inp_files/27876.got.cif
#   From: 2010.05.17/outbox.cif.g08.bks.cpg/sg68_14_cif.got.tgz:27876.got - 2010.06.03 18:57:09.
