data_PCOD9506667
_publ_section_title
;
Structure prediction by ZEFSAII (Michael W. Deem and Ramdas Pophale) SiO2 
 PCOD9506667
Probable space group: C C C A
;
_chemical_formula_sum "Si O2"
_cell_formula_units_Z 68
_cell_length_a 14.740546
_cell_length_b 8.323489
_cell_length_c 28.540637
_cell_angle_alpha 90.000000
_cell_angle_beta 90.000000
_cell_angle_gamma 90.000000
_cell_volume 3501.729882
_symmetry_space_group_name_H-M "C C C A"
_symmetry_group_IT_number 68
_space_group.IT_coordinate_system_code '2'
_symmetry_cell_setting 'orthorhombic'
loop_
_space_group_symop_operation_xyz
x,y,z
-x,1/2-y,z
x,1/2-y,1/2-z
-x,y,1/2-z
-x,-y,-z
x,1/2+y,-z
-x,1/2+y,1/2+z
x,-y,1/2+z
1/2+x,1/2+y,z
1/2-x,-y,z
1/2+x,-y,1/2-z
1/2-x,1/2+y,1/2-z
1/2-x,1/2-y,-z
1/2+x,y,-z
1/2-x,y,1/2+z
1/2+x,1/2-y,1/2+z
loop_
_atom_site_type_symbol
_atom_site_label
_atom_site_fract_x
_atom_site_fract_y
_atom_site_fract_z
Si Si1 0.843712 0.397336 0.522130
Si Si2 0.321904 0.145615 0.293415
Si Si3 0.728149 0.810894 0.604840
Si Si4 0.594600 0.699760 0.068186
Si Si5 0.000000 0.750000 0.250000
O O1 0.750000 0.500000 0.515823
O O2 0.824688 0.257675 0.559903
O O3 0.879096 0.319907 0.474537
O O4 0.910805 0.524529 0.545443
O O5 0.285373 0.250000 0.250000
O O6 0.319622 0.217738 0.345682
O O7 0.429166 0.138307 0.279332
O O8 0.250000 0.000000 0.296188
O O9 0.822864 0.714407 0.603880
O O10 0.750000 0.000000 0.599633
O O11 0.500000 0.750000 0.089432
#
# Coordination Sequence:
#
# PCOD9506667 Si02
#       5
#    16  16  16  16   4
#     4  10  20  35  56  75 111 161 195 248 303 348
#     4   9  20  41  65  90 122 157 198 255 304 369
#     4  10  20  38  57  80 116 155 190 242 304 353
#     4  11  21  35  51  84 114 152 204 248 298 360
#     4   8  20  44  66  94 120 160 206 236 324 374
#
# _framework density 19.418973999999999
#
# number of rings (size 3 to 8) (size 9 to 14) (size 15 to 20)
#    0.706    1.412    0.000    5.647    0.000    2.824 
#   10.588    0.588    0.000    0.000    0.000    0.000 
#    0.000    0.000    0.000    0.000    0.000    0.000 
#
# Total GULP energy -189317.357002 kJ/mol
# GULP energy per Si atom -5568.157559 kJ/mol
# Density = 1.937478 g / cm^3
# Si number density = 19.418974 Si / 1000 Ang^3
#
#
#
# Elastic Constant Matrix: (Units=GPa)
#
#
# Indices 1 2 3 4 5 6 
#
# 1 101.9361 1.4407 31.3677 0.0000 0.0000 0.0000
# 2 1.4407 60.4968 11.5103 0.0000 0.0000 0.0000
# 3 31.3677 11.5103 90.7520 0.0000 0.0000 0.0000
# 4 0.0000 0.0000 0.0000 17.3007 0.0000 0.0000
# 5 0.0000 0.0000 0.0000 0.0000 13.5876 0.0000
# 6 0.0000 0.0000 0.0000 0.0000 0.0000 15.1438
#
#
#
# Elastic Compliance Matrix: (Units=1/GPa)
#
#
# Indices 1 2 3 4 5 6 
#
# 1 0.010991 0.000472 -0.003859 0.000000 0.000000 0.000000
# 2 0.000472 0.016959 -0.002314 0.000000 0.000000 0.000000
# 3 -0.003859 -0.002314 0.012646 0.000000 0.000000 0.000000
# 4 0.000000 0.000000 0.000000 0.057801 0.000000 0.000000
# 5 0.000000 0.000000 0.000000 0.000000 0.073596 0.000000
# 6 0.000000 0.000000 0.000000 0.000000 0.000000 0.066034
#
#
# Mechanical properties :
#
#
# Convention : Reuss Voigt Hill
#
# Bulk Modulus (GPa) = 34.25265 37.98026 36.11645
# Shear Modulus (GPa) = 19.29309 23.13083 21.21196
#
# Velocity S-wave (km/s) = 3.15543 3.45504 3.30863
# Velocity P-wave (km/s) = 5.56352 5.95963 5.76498
#
# Compressibility (1/GPa) = 0.02919482
#
# Stress axis : x y z
#
# Youngs Moduli (GPa) = 90.98497 58.96620 79.07434
#
# Poissons Ratio (x) = -0.02786 0.30513
# Poissons Ratio (y) = -0.04299 0.18300
# Poissons Ratio (z) = 0.35109 0.13646
#
# Static dielectric constant tensor:
#      x y z
#    x 1.733900 0.000000 0.000000 
#    y 0.000000 1.731750 0.000000 
#    z 0.000000 0.000000 1.678090 
# 
# From -- ./inp_files/51231.got.cif
#   From: 2010.05.17/outbox.cif.g08.bks.cpg/sg68_26_cif.got.tgz:51231.got - 2010.06.03 18:57:09.
