data_PCOD9506156
_publ_section_title
;
Structure prediction by ZEFSAII (Michael W. Deem and Ramdas Pophale) SiO2 
 PCOD9506156
Probable space group: C C C A
;
_chemical_formula_sum "Si O2"
_cell_formula_units_Z 112
_cell_length_a 11.288203
_cell_length_b 13.914041
_cell_length_c 31.810189
_cell_angle_alpha 90.000000
_cell_angle_beta 90.000000
_cell_angle_gamma 90.000000
_cell_volume 4996.252046
_symmetry_space_group_name_H-M "C C C A"
_symmetry_group_IT_number 68
_space_group.IT_coordinate_system_code '2'
_symmetry_cell_setting 'orthorhombic'
loop_
_space_group_symop_operation_xyz
x,y,z
-x,1/2-y,z
x,1/2-y,1/2-z
-x,y,1/2-z
-x,-y,-z
x,1/2+y,-z
-x,1/2+y,1/2+z
x,-y,1/2+z
1/2+x,1/2+y,z
1/2-x,-y,z
1/2+x,-y,1/2-z
1/2-x,1/2+y,1/2-z
1/2-x,1/2-y,-z
1/2+x,y,-z
1/2-x,y,1/2+z
1/2+x,1/2-y,1/2+z
loop_
_atom_site_type_symbol
_atom_site_label
_atom_site_fract_x
_atom_site_fract_y
_atom_site_fract_z
Si Si1 0.781608 0.283290 0.058012
Si Si2 0.522118 0.045451 0.701551
Si Si3 0.323057 0.598256 0.521340
Si Si4 0.805370 0.895165 0.637952
Si Si5 0.940295 0.658919 0.338852
Si Si6 0.928860 0.103484 0.381990
Si Si7 0.557394 0.091085 0.424578
O O1 0.755077 0.171590 0.049857
O O2 0.852800 0.310091 0.099956
O O3 0.655804 0.338228 0.057587
O O4 0.848457 0.335706 0.019460
O O5 0.500000 0.061121 0.750000
O O6 0.640132 0.097731 0.685078
O O7 0.421952 0.081525 0.668002
O O8 0.546880 0.934480 0.690062
O O9 0.071076 0.615253 0.612946
O O10 0.446558 0.577440 0.544485
O O11 0.692716 0.827785 0.643950
O O12 0.750000 0.000000 0.625801
O O13 0.000000 0.750000 0.318046
O O14 0.011926 0.636695 0.381328
O O15 0.750000 0.000000 0.513053
O O16 0.893105 0.011613 0.409809
#
# Coordination Sequence:
#
# PCOD9506156 Si02
#       7
#    16  16  16  16  16  16  16
#     4  11  24  46  64 101 138 176 243 298 336 421
#     4   8  17  34  61  98 135 177 226 275 352 412
#     4  11  26  42  69  92 137 191 231 286 363 413
#     4   8  16  35  60  96 129 180 222 271 343 428
#     4  10  19  34  62  94 135 183 234 275 336 420
#     4   9  20  37  72  93 135 175 235 280 344 412
#     4  11  22  42  67  91 136 180 224 282 352 406
#
# _framework density 22.416803000000002
#
# number of rings (size 3 to 8) (size 9 to 14) (size 15 to 20)
#    0.857    1.429    1.429    2.571    2.000    2.571 
#    0.000   10.714    6.286    3.429    0.000    0.000 
#    0.000    4.000    0.000    0.286    0.000    0.000 
#
# Total GULP energy -312623.181751 kJ/mol
# GULP energy per Si atom -5582.556817 kJ/mol
# Density = 2.236578 g / cm^3
# Si number density = 22.416803 Si / 1000 Ang^3
#
#
#
# Elastic Constant Matrix: (Units=GPa)
#
#
# Indices 1 2 3 4 5 6 
#
# 1 79.6489 33.4223 23.3579 0.0000 0.0000 0.0000
# 2 33.4223 94.8171 12.1612 0.0000 0.0000 0.0000
# 3 23.3579 12.1612 80.8669 0.0000 0.0000 0.0000
# 4 0.0000 0.0000 0.0000 5.2643 0.0000 0.0000
# 5 0.0000 0.0000 0.0000 0.0000 22.8715 0.0000
# 6 0.0000 0.0000 0.0000 0.0000 0.0000 32.5485
#
#
#
# Elastic Compliance Matrix: (Units=1/GPa)
#
#
# Indices 1 2 3 4 5 6 
#
# 1 0.015802 -0.005083 -0.003800 0.000000 0.000000 0.000000
# 2 -0.005083 0.012389 -0.000395 0.000000 0.000000 0.000000
# 3 -0.003800 -0.000395 0.013523 0.000000 0.000000 0.000000
# 4 0.000000 0.000000 0.000000 0.189959 0.000000 0.000000
# 5 0.000000 0.000000 0.000000 0.000000 0.043722 0.000000
# 6 0.000000 0.000000 0.000000 0.000000 0.000000 0.030723
#
#
# Mechanical properties :
#
#
# Convention : Reuss Voigt Hill
#
# Bulk Modulus (GPa) = 43.18038 43.69062 43.43550
# Shear Modulus (GPa) = 15.04237 24.56298 19.80267
#
# Velocity S-wave (km/s) = 2.59324 3.31379 2.97540
# Velocity P-wave (km/s) = 5.31703 5.84585 5.58770
#
# Compressibility (1/GPa) = 0.02315866
#
# Stress axis : x y z
#
# Youngs Moduli (GPa) = 63.28176 80.71718 73.94806
#
# Poissons Ratio (x) = 0.41027 0.28100
# Poissons Ratio (y) = 0.32165 0.02921
# Poissons Ratio (z) = 0.24047 0.03188
#
# Static dielectric constant tensor:
#      x y z
#    x 1.815890 0.000000 0.000000 
#    y 0.000000 1.962360 0.000000 
#    z 0.000000 0.000000 1.867420 
# 
# From -- ./inp_files/54802.got.cif
#   From: 2010.05.17/outbox.cif.g08.bks.cpg/sg68_28_cif.got.tgz:54802.got - 2010.06.03 18:57:09.
