data_PCOD9506533
_publ_section_title
;
Structure prediction by ZEFSAII (Michael W. Deem and Ramdas Pophale) SiO2 
 PCOD9506533
Probable space group: C C C A
;
_chemical_formula_sum "Si O2"
_cell_formula_units_Z 80
_cell_length_a 26.344610
_cell_length_b 9.666010
_cell_length_c 15.867426
_cell_angle_alpha 90.000000
_cell_angle_beta 90.000000
_cell_angle_gamma 90.000000
_cell_volume 4040.596613
_symmetry_space_group_name_H-M "C C C A"
_symmetry_group_IT_number 68
_space_group.IT_coordinate_system_code '2'
_symmetry_cell_setting 'orthorhombic'
loop_
_space_group_symop_operation_xyz
x,y,z
-x,1/2-y,z
x,1/2-y,1/2-z
-x,y,1/2-z
-x,-y,-z
x,1/2+y,-z
-x,1/2+y,1/2+z
x,-y,1/2+z
1/2+x,1/2+y,z
1/2-x,-y,z
1/2+x,-y,1/2-z
1/2-x,1/2+y,1/2-z
1/2-x,1/2-y,-z
1/2+x,y,-z
1/2-x,y,1/2+z
1/2+x,1/2-y,1/2+z
loop_
_atom_site_type_symbol
_atom_site_label
_atom_site_fract_x
_atom_site_fract_y
_atom_site_fract_z
Si Si1 0.942010 0.245416 0.852715
Si Si2 0.289931 0.268230 0.380429
Si Si3 0.322436 0.257849 0.574550
Si Si4 0.632280 0.500195 0.153321
Si Si5 0.362385 0.470145 0.154957
O O1 0.941265 0.250000 0.750000
O O2 0.911607 0.106113 0.875851
O O3 0.909237 0.378794 0.878809
O O4 0.000000 0.250000 0.881016
O O5 0.305676 0.244660 0.478031
O O6 0.229671 0.262235 0.372769
O O7 0.315752 0.412487 0.356653
O O8 0.317511 0.142501 0.333147
O O9 0.344575 0.408333 0.594342
O O10 0.361504 0.139456 0.601265
O O11 0.624868 0.529085 0.252572
#
# Coordination Sequence:
#
# PCOD9506533 Si02
#       5
#    16  16  16  16  16
#     4   8  16  34  56  75 100 135 171 209 264 325
#     4  10  21  35  50  70 106 150 171 189 250 323
#     4  11  21  33  50  76 108 137 169 210 252 298
#     4  10  20  33  53  78 100 131 175 217 253 294
#     4  10  20  33  53  78 100 131 175 217 253 294
#
# _framework density 19.799057000000001
#
# number of rings (size 3 to 8) (size 9 to 14) (size 15 to 20)
#    0.000    2.200    0.000    4.800    0.000    8.000 
#    0.000    1.000    0.000   24.000    0.000    0.000 
#    0.000    0.000    0.000    0.000    0.000    0.000 
#
# Total GULP energy -223392.756531 kJ/mol
# GULP energy per Si atom -5584.818913 kJ/mol
# Density = 1.975399 g / cm^3
# Si number density = 19.799057 Si / 1000 Ang^3
#
#
#
# Elastic Constant Matrix: (Units=GPa)
#
#
# Indices 1 2 3 4 5 6 
#
# 1 122.1898 32.2982 -3.2175 0.0000 0.0000 0.0000
# 2 32.2982 98.2218 -0.4121 0.0000 0.0000 0.0000
# 3 -3.2175 -0.4121 30.2210 0.0000 0.0000 0.0000
# 4 0.0000 0.0000 0.0000 47.9152 0.0000 0.0000
# 5 0.0000 0.0000 0.0000 0.0000 15.4600 0.0000
# 6 0.0000 0.0000 0.0000 0.0000 0.0000 8.0580
#
#
#
# Elastic Compliance Matrix: (Units=1/GPa)
#
#
# Indices 1 2 3 4 5 6 
#
# 1 0.008988 -0.002952 0.000917 0.000000 0.000000 0.000000
# 2 -0.002952 0.011151 -0.000162 0.000000 0.000000 0.000000
# 3 0.000917 -0.000162 0.033185 0.000000 0.000000 0.000000
# 4 0.000000 0.000000 0.000000 0.020870 0.000000 0.000000
# 5 0.000000 0.000000 0.000000 0.000000 0.064683 0.000000
# 6 0.000000 0.000000 0.000000 0.000000 0.000000 0.124101
#
#
# Mechanical properties :
#
#
# Convention : Reuss Voigt Hill
#
# Bulk Modulus (GPa) = 20.43749 34.21888 27.32818
# Shear Modulus (GPa) = 17.62531 29.08425 23.35478
#
# Velocity S-wave (km/s) = 2.98688 3.83687 3.43824
# Velocity P-wave (km/s) = 4.71594 6.07860 5.44011
#
# Compressibility (1/GPa) = 0.04892970
#
# Stress axis : x y z
#
# Youngs Moduli (GPa) = 111.25490 89.67810 30.13417
#
# Poissons Ratio (x) = 0.26471 -0.02762
# Poissons Ratio (y) = 0.32840 0.00489
# Poissons Ratio (z) = -0.10199 0.01455
#
# Static dielectric constant tensor:
#      x y z
#    x 1.692350 0.000000 0.000000 
#    y 0.000000 1.662790 0.000000 
#    z 0.000000 0.000000 1.749830 
# 
# From -- ./inp_files/6226.got.cif
#   From: 2010.05.17/outbox.cif.g08.bks.cpg/sg68_4_cif.got.tgz:6226.got - 2010.06.03 18:57:09.
