data_PCOD9506349
_publ_section_title
;
Structure prediction by ZEFSAII (Michael W. Deem and Ramdas Pophale) SiO2 
 PCOD9506349
Probable space group: C C C A
;
_chemical_formula_sum "Si O2"
_cell_formula_units_Z 80
_cell_length_a 24.490937
_cell_length_b 16.031403
_cell_length_c 8.642456
_cell_angle_alpha 90.000000
_cell_angle_beta 90.000000
_cell_angle_gamma 90.000000
_cell_volume 3393.236344
_symmetry_space_group_name_H-M "C C C A"
_symmetry_group_IT_number 68
_space_group.IT_coordinate_system_code '2'
_symmetry_cell_setting 'orthorhombic'
loop_
_space_group_symop_operation_xyz
x,y,z
-x,1/2-y,z
x,1/2-y,1/2-z
-x,y,1/2-z
-x,-y,-z
x,1/2+y,-z
-x,1/2+y,1/2+z
x,-y,1/2+z
1/2+x,1/2+y,z
1/2-x,-y,z
1/2+x,-y,1/2-z
1/2-x,1/2+y,1/2-z
1/2-x,1/2-y,-z
1/2+x,y,-z
1/2-x,y,1/2+z
1/2+x,1/2-y,1/2+z
loop_
_atom_site_type_symbol
_atom_site_label
_atom_site_fract_x
_atom_site_fract_y
_atom_site_fract_z
Si Si1 0.000000 0.867908 0.750000
Si Si2 0.750000 0.000000 0.183473
Si Si3 0.420418 0.840703 0.987570
Si Si4 0.924348 0.960398 0.500167
Si Si5 0.692391 0.596114 0.568704
Si Si6 0.837274 0.250000 0.750000
Si Si7 0.000000 0.886447 0.250000
O O1 0.966155 0.923699 0.626172
O O2 0.049194 0.823120 0.651824
O O3 0.798559 0.974065 0.298506
O O4 0.733448 0.925132 0.069605
O O5 0.372760 0.793263 0.891048
O O6 0.470251 0.830922 0.872473
O O7 0.410368 0.941454 0.990592
O O8 0.867969 0.910826 0.499742
O O9 0.954449 0.939418 0.339821
O O10 0.697945 0.681572 0.660058
#
# Coordination Sequence:
#
# PCOD9506349 Si02
#       7
#     8   8  16  16  16   8   8
#     4  10  23  38  70 106 140 197 242 277 310 427
#     4  10  26  52  82  98 124 178 252 296 352 428
#     4  11  21  38  63  99 146 189 232 277 330 414
#     4  11  20  40  70 105 140 184 246 274 334 412
#     4  11  25  48  76 106 132 181 232 304 355 423
#     4  12  26  43  70 104 144 184 218 297 382 408
#     4  10  19  37  67 103 141 191 228 267 322 421
#
# _framework density 23.576312000000001
#
# number of rings (size 3 to 8) (size 9 to 14) (size 15 to 20)
#    0.000    1.200    2.000    6.000    2.800    1.200 
#    0.000    2.000    0.000    0.000    0.000    0.000 
#    0.000    0.000    0.000    0.000    0.000    0.000 
#
# Total GULP energy -223153.662058 kJ/mol
# GULP energy per Si atom -5578.841551 kJ/mol
# Density = 2.352265 g / cm^3
# Si number density = 23.576312 Si / 1000 Ang^3
#
#
#
# Elastic Constant Matrix: (Units=GPa)
#
#
# Indices 1 2 3 4 5 6 
#
# 1 54.5628 1.4139 17.8133 0.0000 0.0000 0.0000
# 2 1.4139 78.0921 33.7463 0.0000 0.0000 0.0000
# 3 17.8133 33.7463 130.7699 0.0000 0.0000 0.0000
# 4 0.0000 0.0000 0.0000 25.9681 0.0000 0.0000
# 5 0.0000 0.0000 0.0000 0.0000 20.7785 0.0000
# 6 0.0000 0.0000 0.0000 0.0000 0.0000 19.5427
#
#
#
# Elastic Compliance Matrix: (Units=1/GPa)
#
#
# Indices 1 2 3 4 5 6 
#
# 1 0.019234 0.000882 -0.002848 0.000000 0.000000 0.000000
# 2 0.000882 0.014453 -0.003850 0.000000 0.000000 0.000000
# 3 -0.002848 -0.003850 0.009028 0.000000 0.000000 0.000000
# 4 0.000000 0.000000 0.000000 0.038509 0.000000 0.000000
# 5 0.000000 0.000000 0.000000 0.000000 0.048127 0.000000
# 6 0.000000 0.000000 0.000000 0.000000 0.000000 0.051170
#
#
# Mechanical properties :
#
#
# Convention : Reuss Voigt Hill
#
# Bulk Modulus (GPa) = 32.16965 41.04131 36.60548
# Shear Modulus (GPa) = 24.68966 27.28794 25.98880
#
# Velocity S-wave (km/s) = 3.23959 3.40579 3.32373
# Velocity P-wave (km/s) = 5.26002 5.73686 5.50361
#
# Compressibility (1/GPa) = 0.03108520
#
# Stress axis : x y z
#
# Youngs Moduli (GPa) = 51.99032 69.18930 110.76099
#
# Poissons Ratio (x) = -0.06105 0.31542
# Poissons Ratio (y) = -0.04587 0.42642
# Poissons Ratio (z) = 0.14806 0.26637
#
# Static dielectric constant tensor:
#      x y z
#    x 1.893850 0.000000 0.000000 
#    y 0.000000 1.991950 0.000000 
#    z 0.000000 0.000000 1.966520 
# 
# From -- ./inp_files/8828.got.cif
#   From: 2010.05.17/outbox.cif.g08.bks.cpg/sg68_5_cif.got.tgz:8828.got - 2010.06.03 18:57:09.
