data_PCOD9506917
_publ_section_title
;
Structure prediction by ZEFSAII (Michael W. Deem and Ramdas Pophale) SiO2 
 PCOD9506917
Probable space group: C C C A
;
_chemical_formula_sum "Si O2"
_cell_formula_units_Z 104
_cell_length_a 23.341150
_cell_length_b 27.639167
_cell_length_c 8.567452
_cell_angle_alpha 90.000000
_cell_angle_beta 90.000000
_cell_angle_gamma 90.000000
_cell_volume 5527.119819
_symmetry_space_group_name_H-M "C C C A"
_symmetry_group_IT_number 68
_space_group.IT_coordinate_system_code '2'
_symmetry_cell_setting 'orthorhombic'
loop_
_space_group_symop_operation_xyz
x,y,z
-x,1/2-y,z
x,1/2-y,1/2-z
-x,y,1/2-z
-x,-y,-z
x,1/2+y,-z
-x,1/2+y,1/2+z
x,-y,1/2+z
1/2+x,1/2+y,z
1/2-x,-y,z
1/2+x,-y,1/2-z
1/2-x,1/2+y,1/2-z
1/2-x,1/2-y,-z
1/2+x,y,-z
1/2-x,y,1/2+z
1/2+x,1/2-y,1/2+z
loop_
_atom_site_type_symbol
_atom_site_label
_atom_site_fract_x
_atom_site_fract_y
_atom_site_fract_z
Si Si1 0.902742 0.250000 0.750000
Si Si2 0.814596 0.546195 0.737953
Si Si3 0.627914 0.145698 0.730788
Si Si4 0.781380 0.787801 0.614190
Si Si5 0.000000 0.828356 0.750000
Si Si6 0.685515 0.445663 0.365736
Si Si7 0.835051 0.660654 0.404217
Si Si8 0.000000 0.750000 0.492716
O O1 0.866254 0.204689 0.685745
O O2 0.945989 0.264198 0.611928
O O3 0.850195 0.591787 0.795958
O O4 0.750300 0.554113 0.801053
O O5 0.812057 0.547585 0.551352
O O6 0.839371 0.494622 0.791974
O O7 0.659330 0.182368 0.609615
O O8 0.559637 0.145632 0.717355
O O9 0.648490 0.160077 0.909945
O O10 0.792650 0.750000 0.750000
O O11 0.750000 0.750000 0.500000
O O12 0.732244 0.828513 0.625654
O O13 0.014951 0.794253 0.603904
O O14 0.655373 0.393726 0.339886
#
# Coordination Sequence:
#
# PCOD9506917 Si02
#       8
#     8  16  16  16   8  16  16   8
#     4  11  22  42  60  92 120 167 206 250 314 357
#     4  10  20  38  61  87 124 157 205 251 315 376
#     4  11  24  41  62  90 125 170 209 257 311 373
#     4  12  24  35  55  87 129 158 195 248 317 374
#     4  11  24  42  64  88 122 168 220 247 302 364
#     4  10  20  37  59  90 122 158 196 253 316 378
#     4  11  22  38  61  91 130 158 199 258 315 382
#     4  10  24  40  62  84 122 164 220 256 280 370
#
# _framework density 18.816310000000001
#
# number of rings (size 3 to 8) (size 9 to 14) (size 15 to 20)
#    0.000    1.231    5.385    1.846    4.308    0.000 
#    8.308    0.000    0.000    5.538    0.000    0.000 
#    0.000    0.000    0.000    0.000    0.000    0.000 
#
# Total GULP energy -289752.891830 kJ/mol
# GULP energy per Si atom -5572.170997 kJ/mol
# Density = 1.877348 g / cm^3
# Si number density = 18.816310 Si / 1000 Ang^3
#
#
#
# Elastic Constant Matrix: (Units=GPa)
#
#
# Indices 1 2 3 4 5 6 
#
# 1 100.0021 38.3610 7.8613 0.0000 0.0000 0.0000
# 2 38.3610 152.1471 35.8773 0.0000 0.0000 0.0000
# 3 7.8613 35.8773 31.2997 0.0000 0.0000 0.0000
# 4 0.0000 0.0000 0.0000 31.1529 0.0000 0.0000
# 5 0.0000 0.0000 0.0000 0.0000 17.5224 0.0000
# 6 0.0000 0.0000 0.0000 0.0000 0.0000 22.3185
#
#
#
# Elastic Compliance Matrix: (Units=1/GPa)
#
#
# Indices 1 2 3 4 5 6 
#
# 1 0.011078 -0.002929 0.000575 0.000000 0.000000 0.000000
# 2 -0.002929 0.009781 -0.010476 0.000000 0.000000 0.000000
# 3 0.000575 -0.010476 0.043813 0.000000 0.000000 0.000000
# 4 0.000000 0.000000 0.000000 0.032100 0.000000 0.000000
# 5 0.000000 0.000000 0.000000 0.000000 0.057070 0.000000
# 6 0.000000 0.000000 0.000000 0.000000 0.000000 0.044806
#
#
# Mechanical properties :
#
#
# Convention : Reuss Voigt Hill
#
# Bulk Modulus (GPa) = 25.63317 49.73866 37.68592
# Shear Modulus (GPa) = 21.06925 27.62208 24.34566
#
# Velocity S-wave (km/s) = 3.34987 3.83559 3.60093
# Velocity P-wave (km/s) = 5.34926 6.79020 6.11234
#
# Compressibility (1/GPa) = 0.03901195
#
# Stress axis : x y z
#
# Youngs Moduli (GPa) = 90.26870 102.23536 22.82410
#
# Poissons Ratio (x) = 0.29941 -0.01311
# Poissons Ratio (y) = 0.26436 0.23911
# Poissons Ratio (z) = -0.05186 1.07105
#
# Static dielectric constant tensor:
#      x y z
#    x 1.520880 0.000000 0.000000 
#    y 0.000000 1.696710 0.000000 
#    z 0.000000 0.000000 1.654700 
# 
# From -- ./inp_files/8322.got.cif
#   From: 2010.05.17/outbox.cif.g08.bks.cpg/sg68_5_cif.got.tgz:8322.got - 2010.06.03 18:57:09.
