data_PCOD9506921
_publ_section_title
;
Structure prediction by ZEFSAII (Michael W. Deem and Ramdas Pophale) SiO2 
 PCOD9506921
Probable space group: C C C A
;
_chemical_formula_sum "Si O2"
_cell_formula_units_Z 100
_cell_length_a 31.719962
_cell_length_b 13.798266
_cell_length_c 10.737819
_cell_angle_alpha 90.000000
_cell_angle_beta 90.000000
_cell_angle_gamma 90.000000
_cell_volume 4699.733701
_symmetry_space_group_name_H-M "C C C A"
_symmetry_group_IT_number 68
_space_group.IT_coordinate_system_code '2'
_symmetry_cell_setting 'orthorhombic'
loop_
_space_group_symop_operation_xyz
x,y,z
-x,1/2-y,z
x,1/2-y,1/2-z
-x,y,1/2-z
-x,-y,-z
x,1/2+y,-z
-x,1/2+y,1/2+z
x,-y,1/2+z
1/2+x,1/2+y,z
1/2-x,-y,z
1/2+x,-y,1/2-z
1/2-x,1/2+y,1/2-z
1/2-x,1/2-y,-z
1/2+x,y,-z
1/2-x,y,1/2+z
1/2+x,1/2-y,1/2+z
loop_
_atom_site_type_symbol
_atom_site_label
_atom_site_fract_x
_atom_site_fract_y
_atom_site_fract_z
Si Si1 0.070251 0.394437 0.331752
Si Si2 0.666574 0.156107 0.089151
Si Si3 0.402783 0.506475 0.578309
Si Si4 0.360101 0.750000 0.250000
Si Si5 0.771097 0.250000 0.750000
Si Si6 0.760201 0.598019 0.577507
Si Si7 0.327533 0.362659 0.536217
Si Si8 0.000000 0.250000 0.250000
O O1 0.070582 0.459419 0.456922
O O2 0.075929 0.454835 0.200146
O O3 0.109449 0.318055 0.333700
O O4 0.030082 0.323456 0.325329
O O5 0.623906 0.101117 0.120218
O O6 0.698702 0.164038 0.203529
O O7 0.694090 0.101458 0.984362
O O8 0.663190 0.267867 0.047350
O O9 0.366582 0.435479 0.524176
O O10 0.332358 0.825203 0.324217
O O11 0.744307 0.299494 0.644177
O O12 0.750000 0.500000 0.652779
O O13 0.719508 0.599256 0.485726
#
# Coordination Sequence:
#
# PCOD9506921 Si02
#       8
#    16  16  16   8   8  16  16   4
#     4  10  23  43  74 106 135 173 215 271 337 421
#     4  11  23  39  57  87 132 174 236 295 344 387
#     4  11  23  41  71 105 132 181 227 275 342 407
#     4   9  18  38  64  90 123 178 216 271 336 405
#     4  10  24  39  53  82 125 185 228 310 342 393
#     4  11  23  40  55  84 122 179 242 292 347 385
#     4  10  20  37  60  85 130 171 234 282 331 383
#     4  10  24  52  78 106 146 172 216 258 332 446
#
# _framework density 21.277801
#
# number of rings (size 3 to 8) (size 9 to 14) (size 15 to 20)
#    0.000    1.600    3.200    1.920    4.480    3.840 
#    2.880    0.000    0.000    0.960    0.000    0.000 
#    0.000    0.000    0.000    0.000    0.000    0.000 
#
# Total GULP energy -278809.295456 kJ/mol
# GULP energy per Si atom -5576.185909 kJ/mol
# Density = 2.122937 g / cm^3
# Si number density = 21.277801 Si / 1000 Ang^3
#
#
#
# Elastic Constant Matrix: (Units=GPa)
#
#
# Indices 1 2 3 4 5 6 
#
# 1 84.7471 29.0511 36.4362 0.0000 0.0000 0.0000
# 2 29.0511 89.3548 29.3669 0.0000 0.0000 0.0000
# 3 36.4362 29.3669 74.8688 0.0000 0.0000 0.0000
# 4 0.0000 0.0000 0.0000 25.1346 0.0000 0.0000
# 5 0.0000 0.0000 0.0000 0.0000 12.6947 0.0000
# 6 0.0000 0.0000 0.0000 0.0000 0.0000 46.6275
#
#
#
# Elastic Compliance Matrix: (Units=1/GPa)
#
#
# Indices 1 2 3 4 5 6 
#
# 1 0.015572 -0.002953 -0.006420 0.000000 0.000000 0.000000
# 2 -0.002953 0.013407 -0.003822 0.000000 0.000000 0.000000
# 3 -0.006420 -0.003822 0.017980 0.000000 0.000000 0.000000
# 4 0.000000 0.000000 0.000000 0.039786 0.000000 0.000000
# 5 0.000000 0.000000 0.000000 0.000000 0.078773 0.000000
# 6 0.000000 0.000000 0.000000 0.000000 0.000000 0.021447
#
#
# Mechanical properties :
#
#
# Convention : Reuss Voigt Hill
#
# Bulk Modulus (GPa) = 48.61446 48.74211 48.67828
# Shear Modulus (GPa) = 22.70537 27.16583 24.93560
#
# Velocity S-wave (km/s) = 3.27018 3.57700 3.42703
# Velocity P-wave (km/s) = 6.09556 6.32591 6.21180
#
# Compressibility (1/GPa) = 0.02057001
#
# Stress axis : x y z
#
# Youngs Moduli (GPa) = 64.21623 74.58531 55.61614
#
# Poissons Ratio (x) = 0.22024 0.35707
# Poissons Ratio (y) = 0.18962 0.21256
# Poissons Ratio (z) = 0.41229 0.28506
#
# Static dielectric constant tensor:
#      x y z
#    x 1.782440 0.000000 0.000000 
#    y 0.000000 1.825720 0.000000 
#    z 0.000000 0.000000 1.905850 
# 
# From -- ./inp_files/17760.got.cif
#   From: 2010.05.17/outbox.cif.g08.bks.cpg/sg68_9_cif.got.tgz:17760.got - 2010.06.03 18:57:09.
