data_PCOD9506702
_publ_section_title
;
Structure prediction by ZEFSAII (Michael W. Deem and Ramdas Pophale) SiO2 
 PCOD9506702
Probable space group: C C C A
;
_chemical_formula_sum "Si O2"
_cell_formula_units_Z 64
_cell_length_a 11.592725
_cell_length_b 8.844544
_cell_length_c 28.074569
_cell_angle_alpha 90.000000
_cell_angle_beta 90.000000
_cell_angle_gamma 90.000000
_cell_volume 2878.551994
_symmetry_space_group_name_H-M "C C C A"
_symmetry_group_IT_number 68
_space_group.IT_coordinate_system_code '2'
_symmetry_cell_setting 'orthorhombic'
loop_
_space_group_symop_operation_xyz
x,y,z
-x,1/2-y,z
x,1/2-y,1/2-z
-x,y,1/2-z
-x,-y,-z
x,1/2+y,-z
-x,1/2+y,1/2+z
x,-y,1/2+z
1/2+x,1/2+y,z
1/2-x,-y,z
1/2+x,-y,1/2-z
1/2-x,1/2+y,1/2-z
1/2-x,1/2-y,-z
1/2+x,y,-z
1/2-x,y,1/2+z
1/2+x,1/2-y,1/2+z
loop_
_atom_site_type_symbol
_atom_site_label
_atom_site_fract_x
_atom_site_fract_y
_atom_site_fract_z
Si Si1 0.804967 0.358654 0.433625
Si Si2 0.876255 0.080049 0.382470
Si Si3 0.398728 0.864387 0.533482
Si Si4 0.878390 0.921330 0.770938
O O1 0.750000 0.500000 0.407098
O O2 0.877726 0.253247 0.399402
O O3 0.708168 0.238236 0.449730
O O4 0.862205 0.425221 0.481748
O O5 0.906620 0.075670 0.327351
O O6 0.750000 0.000000 0.382610
O O7 0.932632 0.981692 0.425154
O O8 0.500000 0.750000 0.524119
O O9 0.867961 0.750000 0.750000
O O10 0.000000 0.987187 0.750000
O O11 0.750000 0.000000 0.763607
#
# Coordination Sequence:
#
# PCOD9506702 Si02
#       4
#    16  16  16  16
#     4  10  20  35  59  88 124 171 212 255 318 391
#     4   9  20  41  62  88 130 167 213 276 332 410
#     4  10  20  37  56  85 129 169 207 256 319 393
#     4  10  23  48  73 101 137 176 231 297 355 413
#
# _framework density 22.233401000000001
#
# number of rings (size 3 to 8) (size 9 to 14) (size 15 to 20)
#    0.000    2.250    0.000    3.750    0.000    5.500 
#   27.000    0.000    0.000    0.000    0.000    0.000 
#    0.000    0.000    0.000    0.000    0.000    0.000 
#
# Total GULP energy -178370.539789 kJ/mol
# GULP energy per Si atom -5574.079368 kJ/mol
# Density = 2.218280 g / cm^3
# Si number density = 22.233401 Si / 1000 Ang^3
#
#
#
# Elastic Constant Matrix: (Units=GPa)
#
#
# Indices 1 2 3 4 5 6 
#
# 1 124.6022 24.3551 63.6969 0.0000 0.0000 0.0000
# 2 24.3551 118.3121 68.1182 0.0000 0.0000 0.0000
# 3 63.6969 68.1182 114.9129 0.0000 0.0000 0.0000
# 4 0.0000 0.0000 0.0000 25.2421 0.0000 0.0000
# 5 0.0000 0.0000 0.0000 0.0000 31.3783 0.0000
# 6 0.0000 0.0000 0.0000 0.0000 0.0000 34.1904
#
#
#
# Elastic Compliance Matrix: (Units=1/GPa)
#
#
# Indices 1 2 3 4 5 6 
#
# 1 0.011496 0.001977 -0.007544 0.000000 0.000000 0.000000
# 2 0.001977 0.013172 -0.008904 0.000000 0.000000 0.000000
# 3 -0.007544 -0.008904 0.018162 0.000000 0.000000 0.000000
# 4 0.000000 0.000000 0.000000 0.039616 0.000000 0.000000
# 5 0.000000 0.000000 0.000000 0.000000 0.031869 0.000000
# 6 0.000000 0.000000 0.000000 0.000000 0.000000 0.029248
#
#
# Mechanical properties :
#
#
# Convention : Reuss Voigt Hill
#
# Bulk Modulus (GPa) = 72.00648 74.46306 73.23477
# Shear Modulus (GPa) = 28.22729 31.60595 29.91662
#
# Velocity S-wave (km/s) = 3.56700 3.77444 3.67218
# Velocity P-wave (km/s) = 7.03005 7.24979 7.14076
#
# Compressibility (1/GPa) = 0.01388764
#
# Stress axis : x y z
#
# Youngs Moduli (GPa) = 86.98942 75.92102 55.06011
#
# Poissons Ratio (x) = -0.15010 0.41538
# Poissons Ratio (y) = -0.17198 0.49024
# Poissons Ratio (z) = 0.65626 0.67598
#
# Static dielectric constant tensor:
#      x y z
#    x 1.951130 0.000000 0.000000 
#    y 0.000000 1.779760 0.000000 
#    z 0.000000 0.000000 1.863660 
# 
# From -- ./inp_files/54383.got.cif
#   From: 2010.05.17/outbox.cif.g08.bks.cpg/sg68_28_cif.got.tgz:54383.got - 2010.06.03 18:57:09.
