data_PCOD9506215
_publ_section_title
;
Structure prediction by ZEFSAII (Michael W. Deem and Ramdas Pophale) SiO2 
 PCOD9506215
Probable space group: C C C A
;
_chemical_formula_sum "Si O2"
_cell_formula_units_Z 72
_cell_length_a 12.062379
_cell_length_b 14.913168
_cell_length_c 16.595872
_cell_angle_alpha 90.000000
_cell_angle_beta 90.000000
_cell_angle_gamma 90.000000
_cell_volume 2985.402944
_symmetry_space_group_name_H-M "C C C A"
_symmetry_group_IT_number 68
_space_group.IT_coordinate_system_code '2'
_symmetry_cell_setting 'orthorhombic'
loop_
_space_group_symop_operation_xyz
x,y,z
-x,1/2-y,z
x,1/2-y,1/2-z
-x,y,1/2-z
-x,-y,-z
x,1/2+y,-z
-x,1/2+y,1/2+z
x,-y,1/2+z
1/2+x,1/2+y,z
1/2-x,-y,z
1/2+x,-y,1/2-z
1/2-x,1/2+y,1/2-z
1/2-x,1/2-y,-z
1/2+x,y,-z
1/2-x,y,1/2+z
1/2+x,1/2-y,1/2+z
loop_
_atom_site_type_symbol
_atom_site_label
_atom_site_fract_x
_atom_site_fract_y
_atom_site_fract_z
Si Si1 0.665670 0.422227 0.158390
Si Si2 0.846101 0.665236 0.543259
Si Si3 0.811840 0.250000 0.750000
Si Si4 0.781869 0.849478 0.598899
Si Si5 0.512955 0.437585 0.846805
O O1 0.750000 0.500000 0.194029
O O2 0.739722 0.381339 0.087031
O O3 0.632069 0.337866 0.213053
O O4 0.553918 0.472117 0.135254
O O5 0.842305 0.772801 0.545268
O O6 0.830083 0.633156 0.451333
O O7 0.946374 0.633779 0.598947
O O8 0.739610 0.205762 0.679986
O O9 0.861527 0.930009 0.623262
O O10 0.500000 0.421293 0.750000
#
# Coordination Sequence:
#
# PCOD9506215 Si02
#       5
#    16  16   8  16  16
#     4   9  19  37  58  90 135 177 223 284 352 420
#     4   9  20  36  57  94 137 171 221 287 347 410
#     4  10  20  40  68  94 136 186 224 284 362 424
#     4  10  19  35  63  95 130 177 223 279 349 413
#     4  11  21  37  64  96 128 172 235 286 340 421
#
# _framework density 24.117349000000001
#
# number of rings (size 3 to 8) (size 9 to 14) (size 15 to 20)
#    0.000    2.222    0.000    4.667    0.000    1.778 
#    0.000   13.889    0.000    5.333    0.000    9.333 
#    0.000    0.000    0.000    0.000    0.000    0.000 
#
# Total GULP energy -200747.837063 kJ/mol
# GULP energy per Si atom -5576.328807 kJ/mol
# Density = 2.406246 g / cm^3
# Si number density = 24.117349 Si / 1000 Ang^3
#
#
#
# Elastic Constant Matrix: (Units=GPa)
#
#
# Indices 1 2 3 4 5 6 
#
# 1 75.7496 28.6439 37.1785 0.0000 0.0000 0.0000
# 2 28.6439 119.5872 0.4405 0.0000 0.0000 0.0000
# 3 37.1785 0.4405 84.6148 0.0000 0.0000 0.0000
# 4 0.0000 0.0000 0.0000 31.5845 0.0000 0.0000
# 5 0.0000 0.0000 0.0000 0.0000 32.2134 0.0000
# 6 0.0000 0.0000 0.0000 0.0000 0.0000 40.2543
#
#
#
# Elastic Compliance Matrix: (Units=1/GPa)
#
#
# Indices 1 2 3 4 5 6 
#
# 1 0.018995 -0.004519 -0.008323 0.000000 0.000000 0.000000
# 2 -0.004519 0.009437 0.001936 0.000000 0.000000 0.000000
# 3 -0.008323 0.001936 0.015465 0.000000 0.000000 0.000000
# 4 0.000000 0.000000 0.000000 0.031661 0.000000 0.000000
# 5 0.000000 0.000000 0.000000 0.000000 0.031043 0.000000
# 6 0.000000 0.000000 0.000000 0.000000 0.000000 0.024842
#
#
# Mechanical properties :
#
#
# Convention : Reuss Voigt Hill
#
# Bulk Modulus (GPa) = 45.27547 45.83082 45.55315
# Shear Modulus (GPa) = 31.13007 35.05634 33.09321
#
# Velocity S-wave (km/s) = 3.59663 3.81671 3.70831
# Velocity P-wave (km/s) = 6.00512 6.20222 6.10447
#
# Compressibility (1/GPa) = 0.02208702
#
# Stress axis : x y z
#
# Youngs Moduli (GPa) = 52.64534 105.96148 64.66215
#
# Poissons Ratio (x) = 0.47885 0.53816
# Poissons Ratio (y) = 0.23791 -0.12522
# Poissons Ratio (z) = 0.43815 -0.20519
#
# Static dielectric constant tensor:
#      x y z
#    x 2.000340 0.000000 0.000000 
#    y 0.000000 1.109970 0.000000 
#    z 0.000000 0.000000 2.067660 
# 
# From -- ./inp_files/29384.got.cif
#   From: 2010.05.17/outbox.cif.g08.bks.cpg/sg68_15_cif.got.tgz:29384.got - 2010.06.03 18:57:09.
