data_PCOD9506808
_publ_section_title
;
Structure prediction by ZEFSAII (Michael W. Deem and Ramdas Pophale) SiO2 
 PCOD9506808
Probable space group: C C C A
;
_chemical_formula_sum "Si O2"
_cell_formula_units_Z 96
_cell_length_a 12.534430
_cell_length_b 20.004808
_cell_length_c 19.392061
_cell_angle_alpha 90.000000
_cell_angle_beta 90.000000
_cell_angle_gamma 90.000000
_cell_volume 4862.537296
_symmetry_space_group_name_H-M "C C C A"
_symmetry_group_IT_number 68
_space_group.IT_coordinate_system_code '2'
_symmetry_cell_setting 'orthorhombic'
loop_
_space_group_symop_operation_xyz
x,y,z
-x,1/2-y,z
x,1/2-y,1/2-z
-x,y,1/2-z
-x,-y,-z
x,1/2+y,-z
-x,1/2+y,1/2+z
x,-y,1/2+z
1/2+x,1/2+y,z
1/2-x,-y,z
1/2+x,-y,1/2-z
1/2-x,1/2+y,1/2-z
1/2-x,1/2-y,-z
1/2+x,y,-z
1/2-x,y,1/2+z
1/2+x,1/2-y,1/2+z
loop_
_atom_site_type_symbol
_atom_site_label
_atom_site_fract_x
_atom_site_fract_y
_atom_site_fract_z
Si Si1 0.378218 0.255064 0.166242
Si Si2 0.989344 0.325907 0.077985
Si Si3 0.750000 0.000000 0.872714
Si Si4 0.404073 0.450477 0.992893
Si Si5 0.299628 0.639286 0.163428
Si Si6 0.289279 0.144219 0.676840
Si Si7 0.250000 0.000000 0.889539
O O1 0.500000 0.250000 0.140689
O O2 0.384170 0.250000 0.250000
O O3 0.310308 0.321038 0.145978
O O4 0.303180 0.192449 0.147709
O O5 0.952608 0.377321 0.019077
O O6 0.895886 0.338218 0.134372
O O7 0.000000 0.250000 0.054125
O O8 0.102772 0.341116 0.113922
O O9 0.843012 0.977722 0.925236
O O10 0.743663 0.931597 0.829250
O O11 0.500000 0.500000 0.000000
O O12 0.329908 0.461549 0.058803
O O13 0.316453 0.657835 0.243364
O O14 0.295094 0.559412 0.156440
#
# Coordination Sequence:
#
# PCOD9506808 Si02
#       7
#    16  16   8  16  16  16   8
#     4   9  19  35  54  82 123 161 189 233 295 360
#     4  11  21  38  65  95 120 155 200 257 311 358
#     4   9  21  36  58  86 115 159 200 244 306 351
#     4  10  21  41  60  81 118 161 205 256 299 342
#     4  11  21  36  62  90 123 159 197 246 309 370
#     4  10  20  36  59  91 126 155 195 249 306 377
#     4  11  23  40  60  88 117 163 210 250 296 359
#
# _framework density 19.742778000000001
#
# number of rings (size 3 to 8) (size 9 to 14) (size 15 to 20)
#    0.000    1.833    3.333    1.000    0.000    2.000 
#    0.000    3.333    0.000    0.000    0.000    0.000 
#    0.000    0.000    0.000    0.000    0.000    0.000 
#
# Total GULP energy -267443.001758 kJ/mol
# GULP energy per Si atom -5571.729203 kJ/mol
# Density = 1.969784 g / cm^3
# Si number density = 19.742778 Si / 1000 Ang^3
#
#
#
# Elastic Constant Matrix: (Units=GPa)
#
#
# Indices 1 2 3 4 5 6 
#
# 1 114.6972 47.5139 11.5352 0.0000 0.0000 0.0000
# 2 47.5139 166.5473 14.8211 0.0000 0.0000 0.0000
# 3 11.5352 14.8211 32.3417 0.0000 0.0000 0.0000
# 4 0.0000 0.0000 0.0000 25.0774 0.0000 0.0000
# 5 0.0000 0.0000 0.0000 0.0000 -107.8362 0.0000
# 6 0.0000 0.0000 0.0000 0.0000 0.0000 33.1390
#
#
#
# Elastic Compliance Matrix: (Units=1/GPa)
#
#
# Indices 1 2 3 4 5 6 
#
# 1 0.010058 -0.002659 -0.002369 0.000000 0.000000 0.000000
# 2 -0.002659 0.006962 -0.002242 0.000000 0.000000 0.000000
# 3 -0.002369 -0.002242 0.032792 0.000000 0.000000 0.000000
# 4 0.000000 0.000000 0.000000 0.039876 0.000000 0.000000
# 5 0.000000 0.000000 0.000000 0.000000 -0.009273 0.000000
# 6 0.000000 0.000000 0.000000 0.000000 0.000000 0.030176
#
#
# Mechanical properties :
#
#
# Convention : Reuss Voigt Hill
#
# Bulk Modulus (GPa) = 28.35041 51.25850 39.80446
# Shear Modulus (GPa) = 36.52573 6.05713 21.29143
#
# Velocity S-wave (km/s) = 4.30592 1.75348 3.28753
# Velocity P-wave (km/s) = 6.25399 5.48809 5.88351
#
# Compressibility (1/GPa) = 0.03527286
#
# Stress axis : x y z
#
# Youngs Moduli (GPa) = 99.42108 143.62999 30.49485
#
# Poissons Ratio (x) = 0.38186 0.07224
# Poissons Ratio (y) = 0.26433 0.06838
# Poissons Ratio (z) = 0.23553 0.32207
#
# Static dielectric constant tensor:
#      x y z
#    x 1.676170 0.000000 0.000000 
#    y 0.000000 1.644570 0.000000 
#    z 0.000000 0.000000 1.419860 
# 
# From -- ./inp_files/37698.got.cif
#   From: 2010.05.17/outbox.cif.g08.bks.cpg/sg68_19_cif.got.tgz:37698.got - 2010.06.03 18:57:09.
