data_PCOD9506700
_publ_section_title
;
Structure prediction by ZEFSAII (Michael W. Deem and Ramdas Pophale) SiO2 
 PCOD9506700
Probable space group: C C C A
;
_chemical_formula_sum "Si O2"
_cell_formula_units_Z 72
_cell_length_a 5.178262
_cell_length_b 25.375753
_cell_length_c 27.692248
_cell_angle_alpha 90.000000
_cell_angle_beta 90.000000
_cell_angle_gamma 90.000000
_cell_volume 3638.825010
_symmetry_space_group_name_H-M "C C C A"
_symmetry_group_IT_number 68
_space_group.IT_coordinate_system_code '2'
_symmetry_cell_setting 'orthorhombic'
loop_
_space_group_symop_operation_xyz
x,y,z
-x,1/2-y,z
x,1/2-y,1/2-z
-x,y,1/2-z
-x,-y,-z
x,1/2+y,-z
-x,1/2+y,1/2+z
x,-y,1/2+z
1/2+x,1/2+y,z
1/2-x,-y,z
1/2+x,-y,1/2-z
1/2-x,1/2+y,1/2-z
1/2-x,1/2-y,-z
1/2+x,y,-z
1/2-x,y,1/2+z
1/2+x,1/2-y,1/2+z
loop_
_atom_site_type_symbol
_atom_site_label
_atom_site_fract_x
_atom_site_fract_y
_atom_site_fract_z
Si Si1 0.891032 0.194810 0.305262
Si Si2 0.140432 0.410493 0.362754
Si Si3 0.500000 0.645906 0.750000
Si Si4 0.334213 0.445548 0.189130
Si Si5 0.231094 0.063042 0.530757
O O1 0.930501 0.146980 0.341854
O O2 0.590620 0.184609 0.292385
O O3 0.000000 0.250000 0.323370
O O4 0.000000 0.190364 0.250000
O O5 0.379029 0.436514 0.332619
O O6 0.220065 0.409804 0.418144
O O7 0.877902 0.442442 0.353301
O O8 0.694345 0.603112 0.773715
O O9 0.250000 0.500000 0.214239
O O10 0.456029 0.075637 0.492586
O O11 0.250000 0.000000 0.539698
#
# Coordination Sequence:
#
# PCOD9506700 Si02
#       5
#    16  16   8  16  16
#     4  10  21  39  59  82 114 156 204 255 296 349
#     4  11  22  39  58  87 119 155 200 245 298 357
#     4  10  22  37  54  84 120 154 209 246 296 356
#     4  11  22  35  55  81 120 159 192 236 291 358
#     4  10  20  35  59  87 115 151 193 239 297 362
#
# _framework density 19.786607
#
# number of rings (size 3 to 8) (size 9 to 14) (size 15 to 20)
#    0.000    1.556    2.222    3.333    0.000    7.111 
#    0.000    0.000    0.000    1.333    0.000    0.000 
#    0.000    0.000    0.000    0.000    0.000    0.000 
#
# Total GULP energy -200571.472183 kJ/mol
# GULP energy per Si atom -5571.429783 kJ/mol
# Density = 1.974157 g / cm^3
# Si number density = 19.786607 Si / 1000 Ang^3
#
#
#
# Elastic Constant Matrix: (Units=GPa)
#
#
# Indices 1 2 3 4 5 6 
#
# 1 75.1607 48.9627 13.5406 0.0000 0.0000 0.0000
# 2 48.9627 141.4124 33.9147 0.0000 0.0000 0.0000
# 3 13.5406 33.9147 89.7194 0.0000 0.0000 0.0000
# 4 0.0000 0.0000 0.0000 19.5346 0.0000 0.0000
# 5 0.0000 0.0000 0.0000 0.0000 25.5505 0.0000
# 6 0.0000 0.0000 0.0000 0.0000 0.0000 23.2594
#
#
#
# Elastic Compliance Matrix: (Units=1/GPa)
#
#
# Indices 1 2 3 4 5 6 
#
# 1 0.017192 -0.005862 -0.000379 0.000000 0.000000 0.000000
# 2 -0.005862 0.009775 -0.002810 0.000000 0.000000 0.000000
# 3 -0.000379 -0.002810 0.012265 0.000000 0.000000 0.000000
# 4 0.000000 0.000000 0.000000 0.051191 0.000000 0.000000
# 5 0.000000 0.000000 0.000000 0.000000 0.039138 0.000000
# 6 0.000000 0.000000 0.000000 0.000000 0.000000 0.042993
#
#
# Mechanical properties :
#
#
# Convention : Reuss Voigt Hill
#
# Bulk Modulus (GPa) = 47.32531 55.45871 51.39201
# Shear Modulus (GPa) = 25.29089 27.66055 26.47572
#
# Velocity S-wave (km/s) = 3.57905 3.74296 3.66192
# Velocity P-wave (km/s) = 6.40697 6.83878 6.62639
#
# Compressibility (1/GPa) = 0.02113034
#
# Stress axis : x y z
#
# Youngs Moduli (GPa) = 58.16818 102.30138 81.53015
#
# Poissons Ratio (x) = 0.59964 0.03089
# Poissons Ratio (y) = 0.34096 0.22913
# Poissons Ratio (z) = 0.02204 0.28751
#
# Static dielectric constant tensor:
#      x y z
#    x 1.956840 0.000000 0.000000 
#    y 0.000000 1.726640 0.000000 
#    z 0.000000 0.000000 1.697680 
# 
# From -- ./inp_files/48303.got.cif
#   From: 2010.05.17/outbox.cif.g08.bks.cpg/sg68_25_cif.got.tgz:48303.got - 2010.06.03 18:57:09.
