data_PCOD9506982
_publ_section_title
;
Structure prediction by ZEFSAII (Michael W. Deem and Ramdas Pophale) SiO2 
 PCOD9506982
Probable space group: C C C A
;
_chemical_formula_sum "Si O2"
_cell_formula_units_Z 72
_cell_length_a 13.930868
_cell_length_b 25.422536
_cell_length_c 8.408785
_cell_angle_alpha 90.000000
_cell_angle_beta 90.000000
_cell_angle_gamma 90.000000
_cell_volume 2978.038421
_symmetry_space_group_name_H-M "C C C A"
_symmetry_group_IT_number 68
_space_group.IT_coordinate_system_code '2'
_symmetry_cell_setting 'orthorhombic'
loop_
_space_group_symop_operation_xyz
x,y,z
-x,1/2-y,z
x,1/2-y,1/2-z
-x,y,1/2-z
-x,-y,-z
x,1/2+y,-z
-x,1/2+y,1/2+z
x,-y,1/2+z
1/2+x,1/2+y,z
1/2-x,-y,z
1/2+x,-y,1/2-z
1/2-x,1/2+y,1/2-z
1/2-x,1/2-y,-z
1/2+x,y,-z
1/2-x,y,1/2+z
1/2+x,1/2-y,1/2+z
loop_
_atom_site_type_symbol
_atom_site_label
_atom_site_fract_x
_atom_site_fract_y
_atom_site_fract_z
Si Si1 0.750000 0.500000 0.726793
Si Si2 0.345780 0.826339 0.954824
Si Si3 0.131507 0.328131 0.173077
Si Si4 0.000000 0.574665 0.750000
Si Si5 0.000000 0.750000 0.033403
Si Si6 0.368862 0.446156 0.015400
O O1 0.719803 0.452937 0.609626
O O2 0.662255 0.517279 0.839195
O O3 0.353490 0.814051 0.142545
O O4 0.377716 0.886420 0.928279
O O5 0.235877 0.824010 0.903847
O O6 0.420646 0.785949 0.879173
O O7 0.082731 0.385942 0.182802
O O8 0.059414 0.291150 0.076350
O O9 0.958299 0.543575 0.600113
#
# Coordination Sequence:
#
# PCOD9506982 Si02
#       6
#     8  16  16   8   8  16
#     4  10  22  38  66  88 122 162 222 262 330 368
#     4  11  22  38  66  90 129 169 211 257 324 379
#     4  11  21  39  63  92 127 170 211 255 313 390
#     4  10  20  37  66  86 128 172 210 251 332 388
#     4  12  21  40  65  96 127 174 213 252 323 404
#     4  10  20  39  60  91 120 163 206 268 312 385
#
# _framework density 24.17699
#
# number of rings (size 3 to 8) (size 9 to 14) (size 15 to 20)
#    0.000    1.333    4.444    4.667    0.000    0.889 
#    0.000    2.222    0.000    0.000    0.000    0.000 
#    0.000    0.000    0.000    0.000    0.000    0.000 
#
# Total GULP energy -201316.596056 kJ/mol
# GULP energy per Si atom -5592.127668 kJ/mol
# Density = 2.412196 g / cm^3
# Si number density = 24.176990 Si / 1000 Ang^3
#
#
#
# Elastic Constant Matrix: (Units=GPa)
#
#
# Indices 1 2 3 4 5 6 
#
# 1 147.4042 34.0825 37.0246 0.0000 0.0000 0.0000
# 2 34.0825 110.1592 41.9218 0.0000 0.0000 0.0000
# 3 37.0246 41.9218 65.1057 0.0000 0.0000 0.0000
# 4 0.0000 0.0000 0.0000 24.9464 0.0000 0.0000
# 5 0.0000 0.0000 0.0000 0.0000 35.5279 0.0000
# 6 0.0000 0.0000 0.0000 0.0000 0.0000 43.9428
#
#
#
# Elastic Compliance Matrix: (Units=1/GPa)
#
#
# Indices 1 2 3 4 5 6 
#
# 1 0.007994 -0.000985 -0.003912 0.000000 0.000000 0.000000
# 2 -0.000985 0.012145 -0.007261 0.000000 0.000000 0.000000
# 3 -0.003912 -0.007261 0.022260 0.000000 0.000000 0.000000
# 4 0.000000 0.000000 0.000000 0.040086 0.000000 0.000000
# 5 0.000000 0.000000 0.000000 0.000000 0.028147 0.000000
# 6 0.000000 0.000000 0.000000 0.000000 0.000000 0.022757
#
#
# Mechanical properties :
#
#
# Convention : Reuss Voigt Hill
#
# Bulk Modulus (GPa) = 55.29589 60.96964 58.13276
# Shear Modulus (GPa) = 30.53764 34.85943 32.69853
#
# Velocity S-wave (km/s) = 3.55785 3.80128 3.68158
# Velocity P-wave (km/s) = 6.30862 6.67376 6.49376
#
# Compressibility (1/GPa) = 0.01808453
#
# Stress axis : x y z
#
# Youngs Moduli (GPa) = 125.08751 82.33536 44.92436
#
# Poissons Ratio (x) = 0.08106 0.17576
# Poissons Ratio (y) = 0.12315 0.32618
# Poissons Ratio (z) = 0.48938 0.59780
#
# Static dielectric constant tensor:
#      x y z
#    x 1.964630 0.000000 0.000000 
#    y 0.000000 1.932150 0.000000 
#    z 0.000000 0.000000 1.916420 
# 
# From -- ./inp_files/5260.got.cif
#   From: 2010.05.17/outbox.cif.g08.bks.cpg/sg68_3_cif.got.tgz:5260.got - 2010.06.03 18:57:09.
