data_PCOD9506055
_publ_section_title
;
Structure prediction by ZEFSAII (Michael W. Deem and Ramdas Pophale) SiO2 
 PCOD9506055
Probable space group: C C C A
;
_chemical_formula_sum "Si O2"
_cell_formula_units_Z 104
_cell_length_a 9.072583
_cell_length_b 23.260877
_cell_length_c 25.595713
_cell_angle_alpha 90.000000
_cell_angle_beta 90.000000
_cell_angle_gamma 90.000000
_cell_volume 5401.622961
_symmetry_space_group_name_H-M "C C C A"
_symmetry_group_IT_number 68
_space_group.IT_coordinate_system_code '2'
_symmetry_cell_setting 'orthorhombic'
loop_
_space_group_symop_operation_xyz
x,y,z
-x,1/2-y,z
x,1/2-y,1/2-z
-x,y,1/2-z
-x,-y,-z
x,1/2+y,-z
-x,1/2+y,1/2+z
x,-y,1/2+z
1/2+x,1/2+y,z
1/2-x,-y,z
1/2+x,-y,1/2-z
1/2-x,1/2+y,1/2-z
1/2-x,1/2-y,-z
1/2+x,y,-z
1/2-x,y,1/2+z
1/2+x,1/2-y,1/2+z
loop_
_atom_site_type_symbol
_atom_site_label
_atom_site_fract_x
_atom_site_fract_y
_atom_site_fract_z
Si Si1 0.162663 0.727455 0.549039
Si Si2 0.716580 0.061786 0.622558
Si Si3 0.534390 0.589944 0.582580
Si Si4 0.786370 0.668613 0.611840
Si Si5 0.952776 0.598058 0.690177
Si Si6 0.464672 0.892819 0.459430
Si Si7 0.750000 0.500000 0.638417
O O1 0.250000 0.750000 0.500000
O O2 0.208733 0.763906 0.599475
O O3 0.152113 0.659282 0.549185
O O4 0.000000 0.750000 0.538985
O O5 0.607303 0.097144 0.659023
O O6 0.613790 0.054850 0.570722
O O7 0.874940 0.086510 0.608549
O O8 0.750000 0.000000 0.646986
O O9 0.623307 0.645769 0.602041
O O10 0.516217 0.593625 0.519996
O O11 0.640417 0.538175 0.602615
O O12 0.856348 0.650596 0.666987
O O13 0.888871 0.631796 0.569754
O O14 0.853550 0.542477 0.672999
O O15 0.000000 0.598973 0.750000
#
# Coordination Sequence:
#
# PCOD9506055 Si02
#       7
#    16  16  16  16  16  16   8
#     4  10  19  33  55  82 118 152 194 231 290 345
#     4  11  23  37  53  84 115 153 199 240 285 359
#     4  11  20  34  53  80 121 157 191 231 291 350
#     4   9  20  37  53  85 114 151 197 241 291 356
#     4  10  22  41  60  80 113 148 198 255 302 349
#     4  10  21  34  54  80 122 158 188 231 284 362
#     4  10  22  34  54  80 112 154 196 238 288 364
#
# _framework density 19.253474000000001
#
# number of rings (size 3 to 8) (size 9 to 14) (size 15 to 20)
#    0.000    1.846    3.077    0.923    4.308    0.615 
#    0.000    2.308    0.000   11.538    0.000    0.000 
#    0.000   19.692    0.000    0.000    0.000    0.000 
#
# Total GULP energy -289919.333090 kJ/mol
# GULP energy per Si atom -5575.371790 kJ/mol
# Density = 1.920965 g / cm^3
# Si number density = 19.253474 Si / 1000 Ang^3
#
#
#
# Elastic Constant Matrix: (Units=GPa)
#
#
# Indices 1 2 3 4 5 6 
#
# 1 105.3303 5.8036 36.2084 0.0000 0.0000 0.0000
# 2 5.8036 39.4273 17.0906 0.0000 0.0000 0.0000
# 3 36.2084 17.0906 119.6245 0.0000 0.0000 0.0000
# 4 0.0000 0.0000 0.0000 13.2649 0.0000 0.0000
# 5 0.0000 0.0000 0.0000 0.0000 17.4697 0.0000
# 6 0.0000 0.0000 0.0000 0.0000 0.0000 24.0571
#
#
#
# Elastic Compliance Matrix: (Units=1/GPa)
#
#
# Indices 1 2 3 4 5 6 
#
# 1 0.010598 -0.000181 -0.003182 0.000000 0.000000 0.000000
# 2 -0.000181 0.027041 -0.003809 0.000000 0.000000 0.000000
# 3 -0.003182 -0.003809 0.009867 0.000000 0.000000 0.000000
# 4 0.000000 0.000000 0.000000 0.075387 0.000000 0.000000
# 5 0.000000 0.000000 0.000000 0.000000 0.057242 0.000000
# 6 0.000000 0.000000 0.000000 0.000000 0.000000 0.041568
#
#
# Mechanical properties :
#
#
# Convention : Reuss Voigt Hill
#
# Bulk Modulus (GPa) = 30.15436 42.50969 36.33203
# Shear Modulus (GPa) = 20.23488 24.64365 22.43926
#
# Velocity S-wave (km/s) = 3.24539 3.58153 3.41760
# Velocity P-wave (km/s) = 5.45336 6.26339 5.87236
#
# Compressibility (1/GPa) = 0.03316270
#
# Stress axis : x y z
#
# Youngs Moduli (GPa) = 94.35983 36.98143 101.35061
#
# Poissons Ratio (x) = 0.00668 0.32249
# Poissons Ratio (y) = 0.01705 0.38600
# Poissons Ratio (z) = 0.30025 0.14085
#
# Static dielectric constant tensor:
#      x y z
#    x 1.683220 0.000000 0.000000 
#    y 0.000000 1.786540 0.000000 
#    z 0.000000 0.000000 1.668670 
# 
# From -- ./inp_files/43461.got.cif
#   From: 2010.05.17/outbox.cif.g08.bks.cpg/sg68_22_cif.got.tgz:43461.got - 2010.06.03 18:57:09.
