data_PCOD9506473
_publ_section_title
;
Structure prediction by ZEFSAII (Michael W. Deem and Ramdas Pophale) SiO2 
 PCOD9506473
Probable space group: C C C A
;
_chemical_formula_sum "Si O2"
_cell_formula_units_Z 116
_cell_length_a 29.082604
_cell_length_b 19.565608
_cell_length_c 9.692768
_cell_angle_alpha 90.000000
_cell_angle_beta 90.000000
_cell_angle_gamma 90.000000
_cell_volume 5515.367502
_symmetry_space_group_name_H-M "C C C A"
_symmetry_group_IT_number 68
_space_group.IT_coordinate_system_code '2'
_symmetry_cell_setting 'orthorhombic'
loop_
_space_group_symop_operation_xyz
x,y,z
-x,1/2-y,z
x,1/2-y,1/2-z
-x,y,1/2-z
-x,-y,-z
x,1/2+y,-z
-x,1/2+y,1/2+z
x,-y,1/2+z
1/2+x,1/2+y,z
1/2-x,-y,z
1/2+x,-y,1/2-z
1/2-x,1/2+y,1/2-z
1/2-x,1/2-y,-z
1/2+x,y,-z
1/2-x,y,1/2+z
1/2+x,1/2-y,1/2+z
loop_
_atom_site_type_symbol
_atom_site_label
_atom_site_fract_x
_atom_site_fract_y
_atom_site_fract_z
Si Si1 0.342933 0.826789 0.747882
Si Si2 0.422616 0.196107 0.027453
Si Si3 0.148479 0.535269 0.893473
Si Si4 0.500000 0.750000 0.750000
Si Si5 0.071260 0.950987 0.954644
Si Si6 0.093650 0.157219 0.021727
Si Si7 0.019334 0.567496 0.116523
Si Si8 0.297977 0.538890 0.666886
O O1 0.322829 0.750000 0.750000
O O2 0.377879 0.825213 0.618664
O O3 0.376178 0.838969 0.880100
O O4 0.305443 0.887064 0.760215
O O5 0.462554 0.217641 0.137638
O O6 0.413907 0.264636 0.940614
O O7 0.430085 0.129732 0.932266
O O8 0.115269 0.480368 0.967433
O O9 0.121371 0.606366 0.880206
O O10 0.189096 0.545160 0.005688
O O11 0.165558 0.507871 0.748637
O O12 0.055231 0.007122 0.842844
O O13 0.028002 0.959747 0.056083
O O14 0.046705 0.118595 0.981644
O O15 0.000000 0.604912 0.250000
O O16 0.250000 0.500000 0.682237
#
# Coordination Sequence:
#
# PCOD9506473 Si02
#       8
#    16  16  16   4  16  16  16  16
#     4   9  17  32  55  85 116 146 185 247 304 339
#     4  11  18  29  49  84 116 153 193 246 292 330
#     4  10  22  38  61  89 116 155 193 243 306 364
#     4  12  20  24  56  88 118 148 204 262 276 334
#     4  10  21  31  49  80 114 153 189 242 283 350
#     4   9  18  31  52  82 116 151 193 244 288 341
#     4  10  20  31  48  79 115 151 200 238 280 333
#     4  11  22  40  66  90 115 148 199 255 308 375
#
# _framework density 21.032142
#
# number of rings (size 3 to 8) (size 9 to 14) (size 15 to 20)
#    0.000    1.931    3.448    2.069    5.793    0.000 
#    0.000    0.000    3.034    3.310    3.586    0.000 
#    0.000    0.000    0.000    0.000    0.000    0.000 
#
# Total GULP energy -323072.754181 kJ/mol
# GULP energy per Si atom -5570.219900 kJ/mol
# Density = 2.098427 g / cm^3
# Si number density = 21.032142 Si / 1000 Ang^3
#
#
#
# Elastic Constant Matrix: (Units=GPa)
#
#
# Indices 1 2 3 4 5 6 
#
# 1 89.0159 33.8365 1.6087 0.0000 0.0000 0.0000
# 2 33.8365 159.9519 -0.5034 0.0000 0.0000 0.0000
# 3 1.6087 -0.5034 32.5917 0.0000 0.0000 0.0000
# 4 0.0000 0.0000 0.0000 20.0107 0.0000 0.0000
# 5 0.0000 0.0000 0.0000 0.0000 11.9000 0.0000
# 6 0.0000 0.0000 0.0000 0.0000 0.0000 18.3650
#
#
#
# Elastic Compliance Matrix: (Units=1/GPa)
#
#
# Indices 1 2 3 4 5 6 
#
# 1 0.012230 -0.002589 -0.000644 0.000000 0.000000 0.000000
# 2 -0.002589 0.006800 0.000233 0.000000 0.000000 0.000000
# 3 -0.000644 0.000233 0.030718 0.000000 0.000000 0.000000
# 4 0.000000 0.000000 0.000000 0.049973 0.000000 0.000000
# 5 0.000000 0.000000 0.000000 0.000000 0.084034 0.000000
# 6 0.000000 0.000000 0.000000 0.000000 0.000000 0.054451
#
#
# Mechanical properties :
#
#
# Convention : Reuss Voigt Hill
#
# Bulk Modulus (GPa) = 22.85807 39.04923 30.95365
# Shear Modulus (GPa) = 19.32074 26.49631 22.90852
#
# Velocity S-wave (km/s) = 3.03418 3.55322 3.30391
# Velocity P-wave (km/s) = 4.81318 5.95320 5.41328
#
# Compressibility (1/GPa) = 0.04374822
#
# Stress axis : x y z
#
# Youngs Moduli (GPa) = 81.76782 147.05186 32.55417
#
# Poissons Ratio (x) = 0.38074 0.02095
# Poissons Ratio (y) = 0.21171 -0.00758
# Poissons Ratio (z) = 0.05263 -0.03424
#
# Static dielectric constant tensor:
#      x y z
#    x 1.754070 0.000000 0.000000 
#    y 0.000000 2.019390 0.000000 
#    z 0.000000 0.000000 2.185930 
# 
# From -- ./inp_files/17229.got.cif
#   From: 2010.05.17/outbox.cif.g08.bks.cpg/sg68_9_cif.got.tgz:17229.got - 2010.06.03 18:57:09.
