data_PCOD9506527
_publ_section_title
;
Structure prediction by ZEFSAII (Michael W. Deem and Ramdas Pophale) SiO2 
 PCOD9506527
Probable space group: C C C A
;
_chemical_formula_sum "Si O2"
_cell_formula_units_Z 52
_cell_length_a 14.229692
_cell_length_b 5.404701
_cell_length_c 27.890362
_cell_angle_alpha 90.000000
_cell_angle_beta 90.000000
_cell_angle_gamma 90.000000
_cell_volume 2144.970501
_symmetry_space_group_name_H-M "C C C A"
_symmetry_group_IT_number 68
_space_group.IT_coordinate_system_code '2'
_symmetry_cell_setting 'orthorhombic'
loop_
_space_group_symop_operation_xyz
x,y,z
-x,1/2-y,z
x,1/2-y,1/2-z
-x,y,1/2-z
-x,-y,-z
x,1/2+y,-z
-x,1/2+y,1/2+z
x,-y,1/2+z
1/2+x,1/2+y,z
1/2-x,-y,z
1/2+x,-y,1/2-z
1/2-x,1/2+y,1/2-z
1/2-x,1/2-y,-z
1/2+x,y,-z
1/2-x,y,1/2+z
1/2+x,1/2-y,1/2+z
loop_
_atom_site_type_symbol
_atom_site_label
_atom_site_fract_x
_atom_site_fract_y
_atom_site_fract_z
Si Si1 0.113293 0.000657 0.377528
Si Si2 0.856307 0.672839 0.984019
Si Si3 0.500000 0.250000 0.750000
Si Si4 0.403850 0.006979 0.662554
O O1 0.137419 0.036923 0.432879
O O2 0.150466 0.249487 0.353195
O O3 0.000904 0.003434 0.368317
O O4 0.142850 0.750572 0.350899
O O5 0.898050 0.453531 0.017972
O O6 0.750000 0.750000 0.000000
O O7 0.438641 0.069677 0.716150
#
# Coordination Sequence:
#
# PCOD9506527 Si02
#       4
#    16  16   4  16
#     4   9  17  31  44  68  98 130 165 212 257 293
#     4  10  20  33  49  66  91 131 183 223 252 298
#     4   8  16  30  48  74 100 138 164 190 256 340
#     4   9  18  29  48  70 103 130 160 201 255 325
#
# _framework density 24.242757000000001
#
# number of rings (size 3 to 8) (size 9 to 14) (size 15 to 20)
#    0.000    3.077    0.000    1.846    0.000    9.846 
#    0.000   18.462    0.000    0.000    0.000    0.000 
#    0.000  315.077    0.000   19.692    0.000    7.385 
#
# Total GULP energy -144798.096352 kJ/mol
# GULP energy per Si atom -5569.157552 kJ/mol
# Density = 2.418758 g / cm^3
# Si number density = 24.242757 Si / 1000 Ang^3
#
#
#
# Elastic Constant Matrix: (Units=GPa)
#
#
# Indices 1 2 3 4 5 6 
#
# 1 111.7104 15.5660 21.7647 0.0000 0.0000 0.0000
# 2 15.5660 320.5981 68.8460 0.0000 0.0000 0.0000
# 3 21.7647 68.8460 169.4571 0.0000 0.0000 0.0000
# 4 0.0000 0.0000 0.0000 160.5337 0.0000 0.0000
# 5 0.0000 0.0000 0.0000 0.0000 -96.6063 0.0000
# 6 0.0000 0.0000 0.0000 0.0000 0.0000 -14.8265
#
#
#
# Elastic Compliance Matrix: (Units=1/GPa)
#
#
# Indices 1 2 3 4 5 6 
#
# 1 0.009195 -0.000211 -0.001095 0.000000 0.000000 0.000000
# 2 -0.000211 0.003422 -0.001363 0.000000 0.000000 0.000000
# 3 -0.001095 -0.001363 0.006596 0.000000 0.000000 0.000000
# 4 0.000000 0.000000 0.000000 0.006229 0.000000 0.000000
# 5 0.000000 0.000000 0.000000 0.000000 -0.010351 0.000000
# 6 0.000000 0.000000 0.000000 0.000000 0.000000 -0.067447
#
#
# Mechanical properties :
#
#
# Convention : Reuss Voigt Hill
#
# Bulk Modulus (GPa) = 72.08114 90.45765 81.26939
# Shear Modulus (GPa) = -117.94422 42.85944 -37.54239
#
# Velocity S-wave (km/s) = -6.98262 4.20923 -3.93950
# Velocity P-wave (km/s) = 5.93394 7.81139 3.59209
#
# Compressibility (1/GPa) = 0.01387326
#
# Stress axis : x y z
#
# Youngs Moduli (GPa) = 108.76051 292.21277 151.61429
#
# Poissons Ratio (x) = 0.06173 0.16603
# Poissons Ratio (y) = 0.02298 0.20668
# Poissons Ratio (z) = 0.11910 0.39835
#
# Static dielectric constant tensor:
#      x y z
#    x 1.773700 0.000000 0.000000 
#    y 0.000000 0.978290 0.000000 
#    z 0.000000 0.000000 1.971840 
# 
# From -- ./inp_files/51109.got.cif
#   From: 2010.05.17/outbox.cif.g08.bks.cpg/sg68_26_cif.got.tgz:51109.got - 2010.06.03 18:57:09.
