data_PCOD9506204
_publ_section_title
;
Structure prediction by ZEFSAII (Michael W. Deem and Ramdas Pophale) SiO2 
 PCOD9506204
Probable space group: C C C A
;
_chemical_formula_sum "Si O2"
_cell_formula_units_Z 52
_cell_length_a 18.001916
_cell_length_b 5.079107
_cell_length_c 26.166634
_cell_angle_alpha 90.000000
_cell_angle_beta 90.000000
_cell_angle_gamma 90.000000
_cell_volume 2392.511053
_symmetry_space_group_name_H-M "C C C A"
_symmetry_group_IT_number 68
_space_group.IT_coordinate_system_code '2'
_symmetry_cell_setting 'orthorhombic'
loop_
_space_group_symop_operation_xyz
x,y,z
-x,1/2-y,z
x,1/2-y,1/2-z
-x,y,1/2-z
-x,-y,-z
x,1/2+y,-z
-x,1/2+y,1/2+z
x,-y,1/2+z
1/2+x,1/2+y,z
1/2-x,-y,z
1/2+x,-y,1/2-z
1/2-x,1/2+y,1/2-z
1/2-x,1/2-y,-z
1/2+x,y,-z
1/2-x,y,1/2+z
1/2+x,1/2-y,1/2+z
loop_
_atom_site_type_symbol
_atom_site_label
_atom_site_fract_x
_atom_site_fract_y
_atom_site_fract_z
Si Si1 0.165378 0.723636 0.977619
Si Si2 0.669231 0.886971 0.358038
Si Si3 0.880362 0.127472 0.697706
Si Si4 0.000000 0.750000 0.750000
O O1 0.164768 0.645440 0.918932
O O2 0.129064 0.502887 0.012573
O O3 0.250000 0.750000 0.000000
O O4 0.662682 0.600527 0.332560
O O5 0.750000 0.000000 0.345507
O O6 0.612560 0.111218 0.337315
O O7 0.846682 0.250000 0.750000
O O8 0.950382 0.953287 0.716973
#
# Coordination Sequence:
#
# PCOD9506204 Si02
#       4
#    16  16  16   4
#     4  10  19  35  60  90 138 184 203 255 307 421
#     4  12  24  39  66 106 142 168 220 258 359 409
#     4  12  26  45  68  92 131 185 217 297 311 401
#     4  12  26  56  66  84 130 176 270 258 342 352
#
# _framework density 21.734484999999999
#
# number of rings (size 3 to 8) (size 9 to 14) (size 15 to 20)
#    0.000    0.615    6.154    3.231    4.308    2.462 
#    2.769    0.000    0.000    0.000    0.000   21.538 
#    0.000    0.000    0.000    0.000    0.000    0.000 
#
# Total GULP energy -144975.829997 kJ/mol
# GULP energy per Si atom -5575.993461 kJ/mol
# Density = 2.168502 g / cm^3
# Si number density = 21.734485 Si / 1000 Ang^3
#
#
#
# Elastic Constant Matrix: (Units=GPa)
#
#
# Indices 1 2 3 4 5 6 
#
# 1 30.4385 13.1873 27.2091 0.0000 0.0000 0.0000
# 2 13.1873 206.8026 75.0733 0.0000 0.0000 0.0000
# 3 27.2091 75.0733 173.3915 0.0000 0.0000 0.0000
# 4 0.0000 0.0000 0.0000 47.6531 0.0000 0.0000
# 5 0.0000 0.0000 0.0000 0.0000 -70.7814 0.0000
# 6 0.0000 0.0000 0.0000 0.0000 0.0000 29.3529
#
#
#
# Elastic Compliance Matrix: (Units=1/GPa)
#
#
# Indices 1 2 3 4 5 6 
#
# 1 0.038230 -0.000309 -0.005866 0.000000 0.000000 0.000000
# 2 -0.000309 0.005740 -0.002437 0.000000 0.000000 0.000000
# 3 -0.005866 -0.002437 0.007743 0.000000 0.000000 0.000000
# 4 0.000000 0.000000 0.000000 0.020985 0.000000 0.000000
# 5 0.000000 0.000000 0.000000 0.000000 -0.014128 0.000000
# 6 0.000000 0.000000 0.000000 0.000000 0.000000 0.034068
#
#
# Mechanical properties :
#
#
# Convention : Reuss Voigt Hill
#
# Bulk Modulus (GPa) = 28.99309 71.28578 50.13943
# Shear Modulus (GPa) = 41.20087 20.92243 31.06165
#
# Velocity S-wave (km/s) = 4.35862 3.10601 3.78450
# Velocity P-wave (km/s) = 6.22083 6.76260 6.49736
#
# Compressibility (1/GPa) = 0.03449098
#
# Stress axis : x y z
#
# Youngs Moduli (GPa) = 26.15737 174.22248 129.15249
#
# Poissons Ratio (x) = 0.05375 0.75756
# Poissons Ratio (y) = 0.00807 0.31471
# Poissons Ratio (z) = 0.15343 0.42454
#
# Static dielectric constant tensor:
#      x y z
#    x 1.813030 0.000000 0.000000 
#    y 0.000000 1.872200 0.000000 
#    z 0.000000 0.000000 1.787340 
# 
# From -- ./inp_files/34820.got.cif
#   From: 2010.05.17/outbox.cif.g08.bks.cpg/sg68_18_cif.got.tgz:34820.got - 2010.06.03 18:57:09.
