data_PCOD9506464
_publ_section_title
;
Structure prediction by ZEFSAII (Michael W. Deem and Ramdas Pophale) SiO2 
 PCOD9506464
Probable space group: C C C A
;
_chemical_formula_sum "Si O2"
_cell_formula_units_Z 88
_cell_length_a 15.727451
_cell_length_b 19.069188
_cell_length_c 13.418987
_cell_angle_alpha 90.000000
_cell_angle_beta 90.000000
_cell_angle_gamma 90.000000
_cell_volume 4024.484632
_symmetry_space_group_name_H-M "C C C A"
_symmetry_group_IT_number 68
_space_group.IT_coordinate_system_code '2'
_symmetry_cell_setting 'orthorhombic'
loop_
_space_group_symop_operation_xyz
x,y,z
-x,1/2-y,z
x,1/2-y,1/2-z
-x,y,1/2-z
-x,-y,-z
x,1/2+y,-z
-x,1/2+y,1/2+z
x,-y,1/2+z
1/2+x,1/2+y,z
1/2-x,-y,z
1/2+x,-y,1/2-z
1/2-x,1/2+y,1/2-z
1/2-x,1/2-y,-z
1/2+x,y,-z
1/2-x,y,1/2+z
1/2+x,1/2-y,1/2+z
loop_
_atom_site_type_symbol
_atom_site_label
_atom_site_fract_x
_atom_site_fract_y
_atom_site_fract_z
Si Si1 0.910016 0.458885 0.998476
Si Si2 0.000000 0.750000 0.989281
Si Si3 0.168002 0.098588 0.555482
Si Si4 0.170727 0.644694 0.843205
Si Si5 0.851849 0.191036 0.122716
Si Si6 0.518952 0.641973 0.863715
O O1 0.916264 0.420114 0.891852
O O2 0.842866 0.520061 0.015999
O O3 0.892251 0.401058 0.085699
O O4 0.000000 0.500000 0.000000
O O5 0.947658 0.700066 0.917448
O O6 0.946083 0.794434 0.068900
O O7 0.237841 0.109557 0.639683
O O8 0.194928 0.147659 0.462909
O O9 0.075067 0.122663 0.594220
O O10 0.176809 0.727768 0.870562
O O11 0.147949 0.650305 0.726812
O O12 0.500000 0.657647 0.750000
#
# Coordination Sequence:
#
# PCOD9506464 Si02
#       6
#    16   8  16  16  16  16
#     4  10  22  42  63  93 134 176 227 279 337 417
#     4  10  19  43  62  98 130 168 224 292 352 396
#     4  10  23  41  62  94 137 175 219 289 349 411
#     4  11  22  42  65  97 131 179 232 286 356 408
#     4  10  23  41  69  97 129 177 231 292 340 426
#     4  10  21  39  64  95 130 178 227 279 342 418
#
# _framework density 21.866154000000002
#
# number of rings (size 3 to 8) (size 9 to 14) (size 15 to 20)
#    0.000    1.818    1.818    1.364    0.000    5.818 
#   13.091    1.818    0.000    0.000    0.000    0.000 
#    0.000    0.000    0.000    0.000    0.000    0.000 
#
# Total GULP energy -245120.963441 kJ/mol
# GULP energy per Si atom -5570.930987 kJ/mol
# Density = 2.181639 g / cm^3
# Si number density = 21.866154 Si / 1000 Ang^3
#
#
#
# Elastic Constant Matrix: (Units=GPa)
#
#
# Indices 1 2 3 4 5 6 
#
# 1 71.5230 25.6835 35.4916 0.0000 0.0000 0.0000
# 2 25.6835 97.0438 49.8534 0.0000 0.0000 0.0000
# 3 35.4916 49.8534 163.2225 0.0000 0.0000 0.0000
# 4 0.0000 0.0000 0.0000 28.3809 0.0000 0.0000
# 5 0.0000 0.0000 0.0000 0.0000 30.1024 0.0000
# 6 0.0000 0.0000 0.0000 0.0000 0.0000 27.6402
#
#
#
# Elastic Compliance Matrix: (Units=1/GPa)
#
#
# Indices 1 2 3 4 5 6 
#
# 1 0.016363 -0.002969 -0.002651 0.000000 0.000000 0.000000
# 2 -0.002969 0.012761 -0.003252 0.000000 0.000000 0.000000
# 3 -0.002651 -0.003252 0.007696 0.000000 0.000000 0.000000
# 4 0.000000 0.000000 0.000000 0.035235 0.000000 0.000000
# 5 0.000000 0.000000 0.000000 0.000000 0.033220 0.000000
# 6 0.000000 0.000000 0.000000 0.000000 0.000000 0.036179
#
#
# Mechanical properties :
#
#
# Convention : Reuss Voigt Hill
#
# Bulk Modulus (GPa) = 52.42068 61.53849 56.97958
# Shear Modulus (GPa) = 30.20097 31.94210 31.07153
#
# Velocity S-wave (km/s) = 3.72045 3.82619 3.77369
# Velocity P-wave (km/s) = 6.51775 6.90825 6.71584
#
# Compressibility (1/GPa) = 0.01907644
#
# Stress axis : x y z
#
# Youngs Moduli (GPa) = 61.11276 78.36399 129.93057
#
# Poissons Ratio (x) = 0.23263 0.34449
# Poissons Ratio (y) = 0.18142 0.42255
# Poissons Ratio (z) = 0.16203 0.25485
#
# Static dielectric constant tensor:
#      x y z
#    x 1.846260 0.000000 0.000000 
#    y 0.000000 1.915110 0.000000 
#    z 0.000000 0.000000 1.759100 
# 
# From -- ./inp_files/14468.got.cif
#   From: 2010.05.17/outbox.cif.g08.bks.cpg/sg68_8_cif.got.tgz:14468.got - 2010.06.03 18:57:09.
