data_PCOD9506879
_publ_section_title
;
Structure prediction by ZEFSAII (Michael W. Deem and Ramdas Pophale) SiO2 
 PCOD9506879
Probable space group: C C C A
;
_chemical_formula_sum "Si O2"
_cell_formula_units_Z 104
_cell_length_a 20.609563
_cell_length_b 7.957803
_cell_length_c 31.366867
_cell_angle_alpha 90.000000
_cell_angle_beta 90.000000
_cell_angle_gamma 90.000000
_cell_volume 5144.380809
_symmetry_space_group_name_H-M "C C C A"
_symmetry_group_IT_number 68
_space_group.IT_coordinate_system_code '2'
_symmetry_cell_setting 'orthorhombic'
loop_
_space_group_symop_operation_xyz
x,y,z
-x,1/2-y,z
x,1/2-y,1/2-z
-x,y,1/2-z
-x,-y,-z
x,1/2+y,-z
-x,1/2+y,1/2+z
x,-y,1/2+z
1/2+x,1/2+y,z
1/2-x,-y,z
1/2+x,-y,1/2-z
1/2-x,1/2+y,1/2-z
1/2-x,1/2-y,-z
1/2+x,y,-z
1/2-x,y,1/2+z
1/2+x,1/2-y,1/2+z
loop_
_atom_site_type_symbol
_atom_site_label
_atom_site_fract_x
_atom_site_fract_y
_atom_site_fract_z
Si Si1 0.750000 0.000000 0.838223
Si Si2 0.421237 0.016952 0.370017
Si Si3 0.000000 0.250000 0.006421
Si Si4 0.305219 0.141785 0.318328
Si Si5 0.027312 0.515740 0.795727
Si Si6 0.390463 0.250000 0.250000
Si Si7 0.534501 0.558044 0.566377
Si Si8 0.883500 0.862223 0.867004
O O1 0.779950 0.165736 0.815400
O O2 0.690973 0.087420 0.863171
O O3 0.468738 0.004862 0.328960
O O4 0.467584 0.089362 0.406910
O O5 0.398645 0.827415 0.381720
O O6 0.357275 0.119053 0.356502
O O7 0.021458 0.104494 0.037309
O O8 0.052531 0.313202 0.971514
O O9 0.346207 0.117582 0.275080
O O10 0.250000 0.000000 0.322133
O O11 0.064951 0.344760 0.783999
O O12 0.080629 0.624816 0.820958
O O13 0.000000 0.572583 0.750000
O O14 0.584417 0.500055 0.602160
#
# Coordination Sequence:
#
# PCOD9506879 Si02
#       8
#     8  16   8  16  16   8  16  16
#     4  12  26  44  66  90 122 180 232 260 316 390
#     4  11  23  41  66  92 131 167 216 266 329 384
#     4  10  20  36  66 104 136 156 198 252 344 396
#     4  12  27  45  62  88 125 178 224 276 324 371
#     4  11  22  38  61  91 127 166 212 274 327 378
#     4  12  25  40  60  90 126 165 232 284 318 395
#     4  10  21  39  65 105 129 166 198 267 325 398
#     4  11  23  43  63  93 133 169 223 264 316 390
#
# _framework density 20.216232999999999
#
# number of rings (size 3 to 8) (size 9 to 14) (size 15 to 20)
#    0.000    0.923    6.154    1.615    3.231    1.231 
#    0.000    0.000    0.000    0.923    8.000    0.000 
#    0.000    0.000    0.000    0.000    0.000    0.000 
#
# Total GULP energy -289941.391959 kJ/mol
# GULP energy per Si atom -5575.795999 kJ/mol
# Density = 2.017022 g / cm^3
# Si number density = 20.216233 Si / 1000 Ang^3
#
#
#
# Elastic Constant Matrix: (Units=GPa)
#
#
# Indices 1 2 3 4 5 6 
#
# 1 114.9961 23.5359 32.5699 0.0000 0.0000 0.0000
# 2 23.5359 61.9572 4.4948 0.0000 0.0000 0.0000
# 3 32.5699 4.4948 93.6894 0.0000 0.0000 0.0000
# 4 0.0000 0.0000 0.0000 40.6282 0.0000 0.0000
# 5 0.0000 0.0000 0.0000 0.0000 10.1123 0.0000
# 6 0.0000 0.0000 0.0000 0.0000 0.0000 32.8085
#
#
#
# Elastic Compliance Matrix: (Units=1/GPa)
#
#
# Indices 1 2 3 4 5 6 
#
# 1 0.010433 -0.003713 -0.003449 0.000000 0.000000 0.000000
# 2 -0.003713 0.017518 0.000450 0.000000 0.000000 0.000000
# 3 -0.003449 0.000450 0.011851 0.000000 0.000000 0.000000
# 4 0.000000 0.000000 0.000000 0.024613 0.000000 0.000000
# 5 0.000000 0.000000 0.000000 0.000000 0.098890 0.000000
# 6 0.000000 0.000000 0.000000 0.000000 0.000000 0.030480
#
#
# Mechanical properties :
#
#
# Convention : Reuss Voigt Hill
#
# Bulk Modulus (GPa) = 37.90903 43.53822 40.72362
# Shear Modulus (GPa) = 23.14817 30.71261 26.93039
#
# Velocity S-wave (km/s) = 3.38750 3.90193 3.65378
# Velocity P-wave (km/s) = 5.83889 6.47171 6.16343
#
# Compressibility (1/GPa) = 0.02637894
#
# Stress axis : x y z
#
# Youngs Moduli (GPa) = 95.85340 57.08437 84.38228
#
# Poissons Ratio (x) = 0.21195 0.29100
# Poissons Ratio (y) = 0.35589 -0.03800
# Poissons Ratio (z) = 0.33056 -0.02571
#
# Static dielectric constant tensor:
#      x y z
#    x 1.730990 0.000000 0.000000 
#    y 0.000000 1.870480 0.000000 
#    z 0.000000 0.000000 1.698420 
# 
# From -- ./inp_files/55832.got.cif
#   From: 2010.05.17/outbox.cif.g08.bks.cpg/sg68_28_cif.got.tgz:55832.got - 2010.06.03 18:57:09.
