data_PCOD9506418
_publ_section_title
;
Structure prediction by ZEFSAII (Michael W. Deem and Ramdas Pophale) SiO2 
 PCOD9506418
Probable space group: C C C A
;
_chemical_formula_sum "Si O2"
_cell_formula_units_Z 64
_cell_length_a 16.151116
_cell_length_b 22.186005
_cell_length_c 7.379796
_cell_angle_alpha 90.000000
_cell_angle_beta 90.000000
_cell_angle_gamma 90.000000
_cell_volume 2644.393005
_symmetry_space_group_name_H-M "C C C A"
_symmetry_group_IT_number 68
_space_group.IT_coordinate_system_code '2'
_symmetry_cell_setting 'orthorhombic'
loop_
_space_group_symop_operation_xyz
x,y,z
-x,1/2-y,z
x,1/2-y,1/2-z
-x,y,1/2-z
-x,-y,-z
x,1/2+y,-z
-x,1/2+y,1/2+z
x,-y,1/2+z
1/2+x,1/2+y,z
1/2-x,-y,z
1/2+x,-y,1/2-z
1/2-x,1/2+y,1/2-z
1/2-x,1/2-y,-z
1/2+x,y,-z
1/2-x,y,1/2+z
1/2+x,1/2-y,1/2+z
loop_
_atom_site_type_symbol
_atom_site_label
_atom_site_fract_x
_atom_site_fract_y
_atom_site_fract_z
Si Si1 0.860681 0.250000 0.250000
Si Si2 0.405166 0.918806 0.784268
Si Si3 0.654523 0.635228 0.443478
Si Si4 0.331090 0.461198 0.849084
Si Si5 0.500000 0.668277 0.250000
O O1 0.816551 0.298422 0.377880
O O2 0.929205 0.208014 0.352435
O O3 0.500000 0.901180 0.750000
O O4 0.347027 0.877989 0.654497
O O5 0.395190 0.987618 0.712963
O O6 0.370420 0.922701 0.988157
O O7 0.689887 0.582770 0.317632
O O8 0.557176 0.632916 0.386298
O O9 0.250000 0.500000 0.898907
#
# Coordination Sequence:
#
# PCOD9506418 Si02
#       5
#     8  16  16  16   8
#     4   7  16  34  70  94 132 180 203 282 347 390
#     4  12  25  37  65 100 131 174 234 284 335 412
#     4  10  19  39  66  92 136 172 220 267 350 396
#     4  12  26  41  61  96 138 183 227 279 351 415
#     4   7  14  32  64  96 128 170 206 269 338 391
#
# _framework density 24.202152000000002
#
# number of rings (size 3 to 8) (size 9 to 14) (size 15 to 20)
#    1.500    0.250    2.500    3.000    1.750    1.000 
#    0.000    1.250    0.000    1.500    0.000    0.000 
#    0.000    0.000    0.000    0.000    0.000    0.000 
#
# Total GULP energy -178318.036034 kJ/mol
# GULP energy per Si atom -5572.438626 kJ/mol
# Density = 2.414707 g / cm^3
# Si number density = 24.202152 Si / 1000 Ang^3
#
#
#
# Elastic Constant Matrix: (Units=GPa)
#
#
# Indices 1 2 3 4 5 6 
#
# 1 77.1635 16.8103 21.0981 0.0000 0.0000 0.0000
# 2 16.8103 111.0727 39.1832 0.0000 0.0000 0.0000
# 3 21.0981 39.1832 106.0626 0.0000 0.0000 0.0000
# 4 0.0000 0.0000 0.0000 20.4066 0.0000 0.0000
# 5 0.0000 0.0000 0.0000 0.0000 21.5192 0.0000
# 6 0.0000 0.0000 0.0000 0.0000 0.0000 9.7227
#
#
#
# Elastic Compliance Matrix: (Units=1/GPa)
#
#
# Indices 1 2 3 4 5 6 
#
# 1 0.013865 -0.001294 -0.002280 0.000000 0.000000 0.000000
# 2 -0.001294 0.010473 -0.003612 0.000000 0.000000 0.000000
# 3 -0.002280 -0.003612 0.011216 0.000000 0.000000 0.000000
# 4 0.000000 0.000000 0.000000 0.049004 0.000000 0.000000
# 5 0.000000 0.000000 0.000000 0.000000 0.046470 0.000000
# 6 0.000000 0.000000 0.000000 0.000000 0.000000 0.102852
#
#
# Mechanical properties :
#
#
# Convention : Reuss Voigt Hill
#
# Bulk Modulus (GPa) = 47.20842 49.83136 48.51989
# Shear Modulus (GPa) = 19.58384 24.81017 22.19701
#
# Velocity S-wave (km/s) = 2.84769 3.20523 3.03173
# Velocity P-wave (km/s) = 5.51005 5.85938 5.68740
#
# Compressibility (1/GPa) = 0.02118266
#
# Stress axis : x y z
#
# Youngs Moduli (GPa) = 72.12509 95.48302 89.15673
#
# Poissons Ratio (x) = 0.12356 0.20327
# Poissons Ratio (y) = 0.09334 0.32201
# Poissons Ratio (z) = 0.16444 0.34486
#
# Static dielectric constant tensor:
#      x y z
#    x 1.954740 0.000000 0.000000 
#    y 0.000000 1.992910 0.000000 
#    z 0.000000 0.000000 1.956950 
# 
# From -- ./inp_files/5285.got.cif
#   From: 2010.05.17/outbox.cif.g08.bks.cpg/sg68_3_cif.got.tgz:5285.got - 2010.06.03 18:57:09.
