data_PCOD9506676
_publ_section_title
;
Structure prediction by ZEFSAII (Michael W. Deem and Ramdas Pophale) SiO2 
 PCOD9506676
Probable space group: C C C A
;
_chemical_formula_sum "Si O2"
_cell_formula_units_Z 112
_cell_length_a 13.880205
_cell_length_b 15.713733
_cell_length_c 23.588955
_cell_angle_alpha 90.000000
_cell_angle_beta 90.000000
_cell_angle_gamma 90.000000
_cell_volume 5144.983091
_symmetry_space_group_name_H-M "C C C A"
_symmetry_group_IT_number 68
_space_group.IT_coordinate_system_code '2'
_symmetry_cell_setting 'orthorhombic'
loop_
_space_group_symop_operation_xyz
x,y,z
-x,1/2-y,z
x,1/2-y,1/2-z
-x,y,1/2-z
-x,-y,-z
x,1/2+y,-z
-x,1/2+y,1/2+z
x,-y,1/2+z
1/2+x,1/2+y,z
1/2-x,-y,z
1/2+x,-y,1/2-z
1/2-x,1/2+y,1/2-z
1/2-x,1/2-y,-z
1/2+x,y,-z
1/2-x,y,1/2+z
1/2+x,1/2-y,1/2+z
loop_
_atom_site_type_symbol
_atom_site_label
_atom_site_fract_x
_atom_site_fract_y
_atom_site_fract_z
Si Si1 0.848572 0.303617 0.381310
Si Si2 0.856255 0.458096 0.614162
Si Si3 0.342738 0.338343 0.484500
Si Si4 0.451567 0.367998 0.890067
Si Si5 0.009225 0.151033 0.682627
Si Si6 0.322014 0.919177 0.875152
Si Si7 0.125812 0.652857 0.008702
O O1 0.848060 0.331808 0.447771
O O2 0.874507 0.204915 0.373663
O O3 0.748034 0.339272 0.360166
O O4 0.946629 0.348241 0.361640
O O5 0.750000 0.500000 0.615489
O O6 0.879296 0.416276 0.552628
O O7 0.921892 0.538811 0.624808
O O8 0.890224 0.387023 0.658762
O O9 0.227514 0.342976 0.475260
O O10 0.384169 0.247278 0.464870
O O11 0.451957 0.362132 0.959669
O O12 0.920126 0.094859 0.658827
O O13 0.000000 0.250000 0.664849
O O14 0.000000 0.147788 0.750000
O O15 0.357680 0.913145 0.940882
O O16 0.250000 0.000000 0.868177
#
# Coordination Sequence:
#
# PCOD9506676 Si02
#       7
#    16  16  16  16  16  16  16
#     4   9  21  36  57  89 142 186 216 251 322 391
#     4  12  24  37  66  99 127 167 222 278 327 384
#     4   9  18  32  50  85 133 179 213 247 301 382
#     4  10  20  35  56  97 140 180 215 262 310 397
#     4  11  28  51  72  95 125 167 229 287 347 412
#     4  11  23  39  67  94 130 178 220 274 329 391
#     4   9  18  32  53  87 139 179 212 244 305 392
#
# _framework density 21.768778999999999
#
# number of rings (size 3 to 8) (size 9 to 14) (size 15 to 20)
#    0.000    1.857    1.429    2.571    8.000    1.143 
#    0.000    0.000    0.000    0.000    0.000    0.000 
#    0.000    0.000    0.000    0.000    0.000    0.000 
#
# Total GULP energy -312270.093111 kJ/mol
# GULP energy per Si atom -5576.251663 kJ/mol
# Density = 2.171923 g / cm^3
# Si number density = 21.768779 Si / 1000 Ang^3
#
#
#
# Elastic Constant Matrix: (Units=GPa)
#
#
# Indices 1 2 3 4 5 6 
#
# 1 71.2382 19.4993 -1.2878 0.0000 0.0000 0.0000
# 2 19.4993 115.5071 12.0125 0.0000 0.0000 0.0000
# 3 -1.2878 12.0125 26.6146 0.0000 0.0000 0.0000
# 4 0.0000 0.0000 0.0000 13.4081 0.0000 0.0000
# 5 0.0000 0.0000 0.0000 0.0000 11.9189 0.0000
# 6 0.0000 0.0000 0.0000 0.0000 0.0000 9.8542
#
#
#
# Elastic Compliance Matrix: (Units=1/GPa)
#
#
# Indices 1 2 3 4 5 6 
#
# 1 0.014812 -0.002702 0.001936 0.000000 0.000000 0.000000
# 2 -0.002702 0.009577 -0.004453 0.000000 0.000000 0.000000
# 3 0.001936 -0.004453 0.039677 0.000000 0.000000 0.000000
# 4 0.000000 0.000000 0.000000 0.074582 0.000000 0.000000
# 5 0.000000 0.000000 0.000000 0.000000 0.083901 0.000000
# 6 0.000000 0.000000 0.000000 0.000000 0.000000 0.101480
#
#
# Mechanical properties :
#
#
# Convention : Reuss Voigt Hill
#
# Bulk Modulus (GPa) = 18.64698 30.42311 24.53505
# Shear Modulus (GPa) = 14.19078 19.24529 16.71804
#
# Velocity S-wave (km/s) = 2.55598 2.97657 2.77426
# Velocity P-wave (km/s) = 4.15875 5.08126 4.64297
#
# Compressibility (1/GPa) = 0.05362798
#
# Stress axis : x y z
#
# Youngs Moduli (GPa) = 67.51303 104.41997 25.20354
#
# Poissons Ratio (x) = 0.28213 -0.04880
# Poissons Ratio (y) = 0.18241 0.11224
# Poissons Ratio (z) = -0.13072 0.46500
#
# Static dielectric constant tensor:
#      x y z
#    x 1.870580 0.000000 0.000000 
#    y 0.000000 1.848920 0.000000 
#    z 0.000000 0.000000 1.782430 
# 
# From -- ./inp_files/45512.got.cif
#   From: 2010.05.17/outbox.cif.g08.bks.cpg/sg68_23_cif.got.tgz:45512.got - 2010.06.03 18:57:09.
