data_PCOD9506718
_publ_section_title
;
Structure prediction by ZEFSAII (Michael W. Deem and Ramdas Pophale) SiO2 
 PCOD9506718
Probable space group: C C C A
;
_chemical_formula_sum "Si O2"
_cell_formula_units_Z 80
_cell_length_a 9.154280
_cell_length_b 26.814331
_cell_length_c 13.573494
_cell_angle_alpha 90.000000
_cell_angle_beta 90.000000
_cell_angle_gamma 90.000000
_cell_volume 3331.829839
_symmetry_space_group_name_H-M "C C C A"
_symmetry_group_IT_number 68
_space_group.IT_coordinate_system_code '2'
_symmetry_cell_setting 'orthorhombic'
loop_
_space_group_symop_operation_xyz
x,y,z
-x,1/2-y,z
x,1/2-y,1/2-z
-x,y,1/2-z
-x,-y,-z
x,1/2+y,-z
-x,1/2+y,1/2+z
x,-y,1/2+z
1/2+x,1/2+y,z
1/2-x,-y,z
1/2+x,-y,1/2-z
1/2-x,1/2+y,1/2-z
1/2-x,1/2-y,-z
1/2+x,y,-z
1/2-x,y,1/2+z
1/2+x,1/2-y,1/2+z
loop_
_atom_site_type_symbol
_atom_site_label
_atom_site_fract_x
_atom_site_fract_y
_atom_site_fract_z
Si Si1 0.154954 0.452375 0.804366
Si Si2 0.468361 0.879282 0.004759
Si Si3 0.153829 0.222808 0.086192
Si Si4 0.858520 0.342420 0.684248
Si Si5 0.198209 0.553201 0.537739
O O1 0.250000 0.500000 0.777074
O O2 0.211211 0.395783 0.782889
O O3 0.147242 0.455628 0.923747
O O4 0.000000 0.455384 0.750000
O O5 0.576026 0.855907 0.923398
O O6 0.560220 0.915697 0.076755
O O7 0.394684 0.832037 0.052433
O O8 0.339216 0.911906 0.958988
O O9 0.258093 0.206047 0.175869
O O10 0.000000 0.250000 0.106686
O O11 0.250000 0.250000 0.000000
O O12 0.000000 0.332678 0.750000
O O13 0.250000 0.500000 0.575028
#
# Coordination Sequence:
#
# PCOD9506718 Si02
#       5
#    16  16  16  16  16
#     4   9  18  36  62  93 135 179 219 264 340 411
#     4  11  19  39  63  97 133 170 229 277 338 415
#     4  12  22  40  72 105 131 184 236 290 354 419
#     4  10  22  42  68 100 143 182 224 288 355 412
#     4  10  20  35  60  97 131 172 223 276 333 418
#
# _framework density 24.010829999999999
#
# number of rings (size 3 to 8) (size 9 to 14) (size 15 to 20)
#    0.000    1.600    6.000    0.600    0.000    0.000 
#    0.000   23.000    0.000    3.600    5.200    0.000 
#    0.000    0.000    0.000    0.000    0.000    0.000 
#
# Total GULP energy -223361.381185 kJ/mol
# GULP energy per Si atom -5584.034530 kJ/mol
# Density = 2.395618 g / cm^3
# Si number density = 24.010830 Si / 1000 Ang^3
#
#
#
# Elastic Constant Matrix: (Units=GPa)
#
#
# Indices 1 2 3 4 5 6 
#
# 1 132.2099 92.6812 25.1620 0.0000 0.0000 0.0000
# 2 92.6812 200.5338 27.4205 0.0000 0.0000 0.0000
# 3 25.1620 27.4205 67.9978 0.0000 0.0000 0.0000
# 4 0.0000 0.0000 0.0000 -2.9247 0.0000 0.0000
# 5 0.0000 0.0000 0.0000 0.0000 29.9591 0.0000
# 6 0.0000 0.0000 0.0000 0.0000 0.0000 72.6930
#
#
#
# Elastic Compliance Matrix: (Units=1/GPa)
#
#
# Indices 1 2 3 4 5 6 
#
# 1 0.011501 -0.005010 -0.002236 0.000000 0.000000 0.000000
# 2 -0.005010 0.007460 -0.001154 0.000000 0.000000 0.000000
# 3 -0.002236 -0.001154 0.015999 0.000000 0.000000 0.000000
# 4 0.000000 0.000000 0.000000 -0.341916 0.000000 0.000000
# 5 0.000000 0.000000 0.000000 0.000000 0.033379 0.000000
# 6 0.000000 0.000000 0.000000 0.000000 0.000000 0.013756
#
#
# Mechanical properties :
#
#
# Convention : Reuss Voigt Hill
#
# Bulk Modulus (GPa) = 55.06467 76.80766 65.93616
# Shear Modulus (GPa) = -21.09998 36.97734 7.93868
#
# Velocity S-wave (km/s) = -2.96762 3.92858 1.82029
# Velocity P-wave (km/s) = 3.35271 7.25510 5.65142
#
# Compressibility (1/GPa) = 0.01816046
#
# Stress axis : x y z
#
# Youngs Moduli (GPa) = 86.94756 134.04917 62.50322
#
# Poissons Ratio (x) = 0.67156 0.13974
# Poissons Ratio (y) = 0.43559 0.07216
# Poissons Ratio (z) = 0.19439 0.15475
#
# Static dielectric constant tensor:
#      x y z
#    x 2.232570 0.000000 0.000000 
#    y 0.000000 1.964340 0.000000 
#    z 0.000000 0.000000 2.070160 
# 
# From -- ./inp_files/28310.got.cif
#   From: 2010.05.17/outbox.cif.g08.bks.cpg/sg68_15_cif.got.tgz:28310.got - 2010.06.03 18:57:09.
