data_PCOD9506458
_publ_section_title
;
Structure prediction by ZEFSAII (Michael W. Deem and Ramdas Pophale) SiO2 
 PCOD9506458
Probable space group: C C C A
;
_chemical_formula_sum "Si O2"
_cell_formula_units_Z 108
_cell_length_a 29.572941
_cell_length_b 16.525969
_cell_length_c 11.367183
_cell_angle_alpha 90.000000
_cell_angle_beta 90.000000
_cell_angle_gamma 90.000000
_cell_volume 5555.386797
_symmetry_space_group_name_H-M "C C C A"
_symmetry_group_IT_number 68
_space_group.IT_coordinate_system_code '2'
_symmetry_cell_setting 'orthorhombic'
loop_
_space_group_symop_operation_xyz
x,y,z
-x,1/2-y,z
x,1/2-y,1/2-z
-x,y,1/2-z
-x,-y,-z
x,1/2+y,-z
-x,1/2+y,1/2+z
x,-y,1/2+z
1/2+x,1/2+y,z
1/2-x,-y,z
1/2+x,-y,1/2-z
1/2-x,1/2+y,1/2-z
1/2-x,1/2-y,-z
1/2+x,y,-z
1/2-x,y,1/2+z
1/2+x,1/2-y,1/2+z
loop_
_atom_site_type_symbol
_atom_site_label
_atom_site_fract_x
_atom_site_fract_y
_atom_site_fract_z
Si Si1 0.137981 0.898258 0.803205
Si Si2 0.134338 0.168885 0.558710
Si Si3 0.149495 0.916682 0.307862
Si Si4 0.000000 0.250000 0.750000
Si Si5 0.796741 0.250000 0.250000
Si Si6 0.430947 0.821325 0.925318
Si Si7 0.952238 0.340337 0.195804
Si Si8 0.792151 0.720818 0.375409
O O1 0.171783 0.829311 0.752066
O O2 0.090732 0.892374 0.734687
O O3 0.157081 0.988260 0.799725
O O4 0.127528 0.879015 0.939139
O O5 0.140497 0.114257 0.674245
O O6 0.095438 0.235431 0.574154
O O7 0.179222 0.223412 0.539393
O O8 0.105743 0.887869 0.383338
O O9 0.192118 0.871855 0.371735
O O10 0.030100 0.192062 0.831175
O O11 0.759989 0.257557 0.356686
O O12 0.451067 0.836031 0.054690
O O13 0.944997 0.250000 0.250000
O O14 0.000000 0.368469 0.250000
O O15 0.812956 0.750000 0.250000
#
# Coordination Sequence:
#
# PCOD9506458 Si02
#       8
#    16  16  16   4   8  16  16  16
#     4  12  24  38  65  95 127 172 213 262 320 397
#     4  10  19  42  62  88 123 167 210 258 322 379
#     4  10  22  40  62  93 130 164 211 264 325 366
#     4  12  20  34  70 100 104 166 222 262 304 388
#     4  10  20  41  63  92 126 167 219 250 324 392
#     4  11  21  40  67  91 125 165 215 262 317 385
#     4  11  23  42  61  91 131 171 209 259 318 378
#     4   7  17  39  65  83 122 164 198 267 308 370
#
# _framework density 19.440591000000001
#
# number of rings (size 3 to 8) (size 9 to 14) (size 15 to 20)
#    0.444    1.333    3.704    1.778    2.074    1.185 
#    1.333    0.741    3.259    0.000    0.000    0.000 
#    0.000    0.000    0.000    0.000    0.000    0.000 
#
# Total GULP energy -300901.812501 kJ/mol
# GULP energy per Si atom -5572.255787 kJ/mol
# Density = 1.939634 g / cm^3
# Si number density = 19.440591 Si / 1000 Ang^3
#
#
#
# Elastic Constant Matrix: (Units=GPa)
#
#
# Indices 1 2 3 4 5 6 
#
# 1 78.3037 20.4659 36.9749 0.0000 0.0000 0.0000
# 2 20.4659 108.8471 18.5451 0.0000 0.0000 0.0000
# 3 36.9749 18.5451 117.7737 0.0000 0.0000 0.0000
# 4 0.0000 0.0000 0.0000 8.9068 0.0000 0.0000
# 5 0.0000 0.0000 0.0000 0.0000 20.0681 0.0000
# 6 0.0000 0.0000 0.0000 0.0000 0.0000 7.5615
#
#
#
# Elastic Compliance Matrix: (Units=1/GPa)
#
#
# Indices 1 2 3 4 5 6 
#
# 1 0.015463 -0.002138 -0.004518 0.000000 0.000000 0.000000
# 2 -0.002138 0.009736 -0.000862 0.000000 0.000000 0.000000
# 3 -0.004518 -0.000862 0.010045 0.000000 0.000000 0.000000
# 4 0.000000 0.000000 0.000000 0.112274 0.000000 0.000000
# 5 0.000000 0.000000 0.000000 0.000000 0.049830 0.000000
# 6 0.000000 0.000000 0.000000 0.000000 0.000000 0.132250
#
#
# Mechanical properties :
#
#
# Convention : Reuss Voigt Hill
#
# Bulk Modulus (GPa) = 49.48349 50.76626 50.12487
# Shear Modulus (GPa) = 14.23005 22.56985 18.39995
#
# Velocity S-wave (km/s) = 2.70844 3.41099 3.07981
# Velocity P-wave (km/s) = 5.94052 6.45627 6.20376
#
# Compressibility (1/GPa) = 0.02020876
#
# Stress axis : x y z
#
# Youngs Moduli (GPa) = 64.67106 102.71178 99.55212
#
# Poissons Ratio (x) = 0.21956 0.44977
# Poissons Ratio (y) = 0.13824 0.08581
# Poissons Ratio (z) = 0.29218 0.08853
#
# Static dielectric constant tensor:
#      x y z
#    x 1.717880 0.000000 0.000000 
#    y 0.000000 1.684950 0.000000 
#    z 0.000000 0.000000 1.730920 
# 
# From -- ./inp_files/17820.got.cif
#   From: 2010.05.17/outbox.cif.g08.bks.cpg/sg68_9_cif.got.tgz:17820.got - 2010.06.03 18:57:09.
