data_PCOD9506443
_publ_section_title
;
Structure prediction by ZEFSAII (Michael W. Deem and Ramdas Pophale) SiO2 
 PCOD9506443
Probable space group: C C C A
;
_chemical_formula_sum "Si O2"
_cell_formula_units_Z 112
_cell_length_a 11.119649
_cell_length_b 17.318548
_cell_length_c 28.047466
_cell_angle_alpha 90.000000
_cell_angle_beta 90.000000
_cell_angle_gamma 90.000000
_cell_volume 5401.273719
_symmetry_space_group_name_H-M "C C C A"
_symmetry_group_IT_number 68
_space_group.IT_coordinate_system_code '2'
_symmetry_cell_setting 'orthorhombic'
loop_
_space_group_symop_operation_xyz
x,y,z
-x,1/2-y,z
x,1/2-y,1/2-z
-x,y,1/2-z
-x,-y,-z
x,1/2+y,-z
-x,1/2+y,1/2+z
x,-y,1/2+z
1/2+x,1/2+y,z
1/2-x,-y,z
1/2+x,-y,1/2-z
1/2-x,1/2+y,1/2-z
1/2-x,1/2-y,-z
1/2+x,y,-z
1/2-x,y,1/2+z
1/2+x,1/2-y,1/2+z
loop_
_atom_site_type_symbol
_atom_site_label
_atom_site_fract_x
_atom_site_fract_y
_atom_site_fract_z
Si Si1 0.881605 0.515040 0.778955
Si Si2 0.152272 0.641258 0.410798
Si Si3 0.086263 0.584322 0.907972
Si Si4 0.448208 0.665525 0.010403
Si Si5 0.058139 0.171761 0.327168
Si Si6 0.443410 0.934231 0.876640
Si Si7 0.247862 0.185598 0.909446
O O1 0.750000 0.500000 0.756724
O O2 0.901085 0.605539 0.790875
O O3 0.886291 0.468318 0.828742
O O4 0.000000 0.490602 0.750000
O O5 0.270387 0.589022 0.405493
O O6 0.089632 0.625391 0.461718
O O7 0.186416 0.731175 0.412506
O O8 0.054821 0.624238 0.370070
O O9 0.046570 0.621838 0.957867
O O10 0.039888 0.635854 0.863628
O O11 0.010182 0.506104 0.901971
O O12 0.500000 0.750000 0.999479
O O13 0.333551 0.674572 0.045076
O O14 0.169958 0.187889 0.362198
O O15 0.000000 0.250000 0.307509
O O16 0.342733 0.886232 0.904778
#
# Coordination Sequence:
#
# PCOD9506443 Si02
#       7
#    16  16  16  16  16  16  16
#     4  11  25  47  75 102 134 170 213 274 347 421
#     4  12  23  38  61  89 131 177 221 272 328 382
#     4  10  22  39  56  88 125 171 220 275 317 381
#     4  11  22  37  60  87 124 179 231 273 315 379
#     4  10  19  40  71  94 122 166 219 263 312 398
#     4  11  25  41  64  95 126 168 217 264 343 396
#     4  11  20  40  65  86 130 170 222 269 318 386
#
# _framework density 20.735848000000001
#
# number of rings (size 3 to 8) (size 9 to 14) (size 15 to 20)
#    0.000    1.143    4.286    3.000    2.000    3.143 
#    2.571    0.000    0.000    1.714    0.000    0.000 
#    0.000    0.000    0.000    0.000    0.000    0.000 
#
# Total GULP energy -312891.910892 kJ/mol
# GULP energy per Si atom -5587.355552 kJ/mol
# Density = 2.068865 g / cm^3
# Si number density = 20.735848 Si / 1000 Ang^3
#
#
#
# Elastic Constant Matrix: (Units=GPa)
#
#
# Indices 1 2 3 4 5 6 
#
# 1 140.6397 38.7243 25.1133 0.0000 0.0000 0.0000
# 2 38.7243 82.4960 24.1965 0.0000 0.0000 0.0000
# 3 25.1133 24.1965 27.7334 0.0000 0.0000 0.0000
# 4 0.0000 0.0000 0.0000 8.7612 0.0000 0.0000
# 5 0.0000 0.0000 0.0000 0.0000 -18.2851 0.0000
# 6 0.0000 0.0000 0.0000 0.0000 0.0000 39.7444
#
#
#
# Elastic Compliance Matrix: (Units=1/GPa)
#
#
# Indices 1 2 3 4 5 6 
#
# 1 0.008827 -0.002418 -0.005883 0.000000 0.000000 0.000000
# 2 -0.002418 0.016953 -0.012601 0.000000 0.000000 0.000000
# 3 -0.005883 -0.012601 0.052379 0.000000 0.000000 0.000000
# 4 0.000000 0.000000 0.000000 0.114139 0.000000 0.000000
# 5 0.000000 0.000000 0.000000 0.000000 -0.054689 0.000000
# 6 0.000000 0.000000 0.000000 0.000000 0.000000 0.025161
#
#
# Mechanical properties :
#
#
# Convention : Reuss Voigt Hill
#
# Bulk Modulus (GPa) = 27.50743 47.43749 37.47246
# Shear Modulus (GPa) = 23.07415 16.89977 19.98696
#
# Velocity S-wave (km/s) = 3.33943 2.85792 3.10802
# Velocity P-wave (km/s) = 5.30693 5.81524 5.56689
#
# Compressibility (1/GPa) = 0.03635382
#
# Stress axis : x y z
#
# Youngs Moduli (GPa) = 113.29354 58.98756 19.09146
#
# Poissons Ratio (x) = 0.14261 0.11232
# Poissons Ratio (y) = 0.27391 0.24058
# Poissons Ratio (z) = 0.66655 0.74333
#
# Static dielectric constant tensor:
#      x y z
#    x 1.763730 0.000000 0.000000 
#    y 0.000000 1.791250 0.000000 
#    z 0.000000 0.000000 1.718090 
# 
# From -- ./inp_files/54828.got.cif
#   From: 2010.05.17/outbox.cif.g08.bks.cpg/sg68_28_cif.got.tgz:54828.got - 2010.06.03 18:57:09.
