data_PCOD9506580
_publ_section_title
;
Structure prediction by ZEFSAII (Michael W. Deem and Ramdas Pophale) SiO2 
 PCOD9506580
Probable space group: C C C A
;
_chemical_formula_sum "Si O2"
_cell_formula_units_Z 64
_cell_length_a 8.218679
_cell_length_b 15.708101
_cell_length_c 23.221747
_cell_angle_alpha 90.000000
_cell_angle_beta 90.000000
_cell_angle_gamma 90.000000
_cell_volume 2997.923818
_symmetry_space_group_name_H-M "C C C A"
_symmetry_group_IT_number 68
_space_group.IT_coordinate_system_code '2'
_symmetry_cell_setting 'orthorhombic'
loop_
_space_group_symop_operation_xyz
x,y,z
-x,1/2-y,z
x,1/2-y,1/2-z
-x,y,1/2-z
-x,-y,-z
x,1/2+y,-z
-x,1/2+y,1/2+z
x,-y,1/2+z
1/2+x,1/2+y,z
1/2-x,-y,z
1/2+x,-y,1/2-z
1/2-x,1/2+y,1/2-z
1/2-x,1/2-y,-z
1/2+x,y,-z
1/2-x,y,1/2+z
1/2+x,1/2-y,1/2+z
loop_
_atom_site_type_symbol
_atom_site_label
_atom_site_fract_x
_atom_site_fract_y
_atom_site_fract_z
Si Si1 0.971830 0.908852 0.471841
Si Si2 0.452362 0.850282 0.311545
Si Si3 0.153303 0.190293 0.875803
Si Si4 0.139979 0.345353 0.424151
O O1 0.089390 0.880596 0.419892
O O2 0.012081 0.844894 0.524029
O O3 0.791070 0.899232 0.447939
O O4 0.000000 0.000000 0.500000
O O5 0.500000 0.750000 0.308662
O O6 0.500000 0.888596 0.250000
O O7 0.260795 0.851427 0.325664
O O8 0.553705 0.882296 0.366930
O O9 0.276902 0.255804 0.907296
O O10 0.000000 0.250000 0.858074
#
# Coordination Sequence:
#
# PCOD9506580 Si02
#       4
#    16  16  16  16
#     4  11  21  34  54  82 114 145 186 237 288 349
#     4   9  18  35  57  82 111 146 190 238 281 333
#     4   9  19  35  56  82 114 150 187 232 289 347
#     4  10  20  34  54  80 112 149 185 231 290 346
#
# _framework density 21.348106999999999
#
# number of rings (size 3 to 8) (size 9 to 14) (size 15 to 20)
#    0.000    2.250    0.000    3.000    0.000    7.000 
#    0.000   21.250    0.000    6.000    0.000    0.000 
#    0.000    0.000    0.000    0.000    0.000    2.000 
#
# Total GULP energy -178627.965546 kJ/mol
# GULP energy per Si atom -5582.123923 kJ/mol
# Density = 2.129952 g / cm^3
# Si number density = 21.348107 Si / 1000 Ang^3
#
#
#
# Elastic Constant Matrix: (Units=GPa)
#
#
# Indices 1 2 3 4 5 6 
#
# 1 144.5105 29.3049 98.7464 0.0000 0.0000 0.0000
# 2 29.3049 61.3473 17.5064 0.0000 0.0000 0.0000
# 3 98.7464 17.5064 160.5938 0.0000 0.0000 0.0000
# 4 0.0000 0.0000 0.0000 -3.3597 0.0000 0.0000
# 5 0.0000 0.0000 0.0000 0.0000 31.1183 0.0000
# 6 0.0000 0.0000 0.0000 0.0000 0.0000 22.0591
#
#
#
# Elastic Compliance Matrix: (Units=1/GPa)
#
#
# Indices 1 2 3 4 5 6 
#
# 1 0.012819 -0.003999 -0.007446 0.000000 0.000000 0.000000
# 2 -0.003999 0.018071 0.000489 0.000000 0.000000 0.000000
# 3 -0.007446 0.000489 0.010752 0.000000 0.000000 0.000000
# 4 0.000000 0.000000 0.000000 -0.297648 0.000000 0.000000
# 5 0.000000 0.000000 0.000000 0.000000 0.032135 0.000000
# 6 0.000000 0.000000 0.000000 0.000000 0.000000 0.045333
#
#
# Mechanical properties :
#
#
# Convention : Reuss Voigt Hill
#
# Bulk Modulus (GPa) = 50.68392 73.06301 61.87346
# Shear Modulus (GPa) = -33.32261 24.68979 -4.31641
#
# Velocity S-wave (km/s) = -3.95513 3.40447 -1.42348
# Velocity P-wave (km/s) = 1.71341 7.05357 5.13267
#
# Compressibility (1/GPa) = 0.01973012
#
# Stress axis : x y z
#
# Youngs Moduli (GPa) = 78.00979 55.33652 93.00436
#
# Poissons Ratio (x) = 0.22127 0.69253
# Poissons Ratio (y) = 0.31193 -0.04545
# Poissons Ratio (z) = 0.58088 -0.02704
#
# Static dielectric constant tensor:
#      x y z
#    x 1.844130 0.000000 0.000000 
#    y 0.000000 1.849760 0.000000 
#    z 0.000000 0.000000 1.811980 
# 
# From -- ./inp_files/35758.got.cif
#   From: 2010.05.17/outbox.cif.g08.bks.cpg/sg68_18_cif.got.tgz:35758.got - 2010.06.03 18:57:09.
