data_PCOD9506301
_publ_section_title
;
Structure prediction by ZEFSAII (Michael W. Deem and Ramdas Pophale) SiO2 
 PCOD9506301
Probable space group: C C C A
;
_chemical_formula_sum "Si O2"
_cell_formula_units_Z 48
_cell_length_a 8.463967
_cell_length_b 17.194356
_cell_length_c 13.726615
_cell_angle_alpha 90.000000
_cell_angle_beta 90.000000
_cell_angle_gamma 90.000000
_cell_volume 1997.668073
_symmetry_space_group_name_H-M "C C C A"
_symmetry_group_IT_number 68
_space_group.IT_coordinate_system_code '2'
_symmetry_cell_setting 'orthorhombic'
loop_
_space_group_symop_operation_xyz
x,y,z
-x,1/2-y,z
x,1/2-y,1/2-z
-x,y,1/2-z
-x,-y,-z
x,1/2+y,-z
-x,1/2+y,1/2+z
x,-y,1/2+z
1/2+x,1/2+y,z
1/2-x,-y,z
1/2+x,-y,1/2-z
1/2-x,1/2+y,1/2-z
1/2-x,1/2-y,-z
1/2+x,y,-z
1/2-x,y,1/2+z
1/2+x,1/2-y,1/2+z
loop_
_atom_site_type_symbol
_atom_site_label
_atom_site_fract_x
_atom_site_fract_y
_atom_site_fract_z
Si Si1 0.319907 0.580842 0.532235
Si Si2 0.096657 0.329437 0.902876
Si Si3 0.155439 0.577631 0.810892
O O1 0.250000 0.500000 0.565432
O O2 0.193396 0.648721 0.502921
O O3 0.456699 0.608122 0.602218
O O4 0.389570 0.564349 0.424335
O O5 0.223632 0.349168 0.819335
O O6 0.000000 0.250000 0.904405
O O7 0.250000 0.500000 0.781995
O O8 0.000000 0.592247 0.750000
#
# Coordination Sequence:
#
# PCOD9506301 Si02
#       3
#    16  16  16
#     4   9  19  35  65 101 131 164 217 265 321 390
#     4  10  19  36  67 104 131 161 208 274 335 387
#     4   9  21  40  62  90 134 179 216 265 321 391
#
# _framework density 24.028015
#
# number of rings (size 3 to 8) (size 9 to 14) (size 15 to 20)
#    2.000    0.667    0.000    2.000    0.000    0.000 
#    6.000    0.000    0.000   14.000    0.000    0.000 
#    0.000    0.000    0.000    0.000    0.000    0.000 
#
# Total GULP energy -133864.923716 kJ/mol
# GULP energy per Si atom -5577.705155 kJ/mol
# Density = 2.397333 g / cm^3
# Si number density = 24.028015 Si / 1000 Ang^3
#
#
#
# Elastic Constant Matrix: (Units=GPa)
#
#
# Indices 1 2 3 4 5 6 
#
# 1 198.6018 92.9121 43.9893 0.0000 0.0000 0.0000
# 2 92.9121 119.6508 11.0935 0.0000 0.0000 0.0000
# 3 43.9893 11.0935 74.9759 0.0000 0.0000 0.0000
# 4 0.0000 0.0000 0.0000 1.1491 0.0000 0.0000
# 5 0.0000 0.0000 0.0000 0.0000 47.6941 0.0000
# 6 0.0000 0.0000 0.0000 0.0000 0.0000 56.3088
#
#
#
# Elastic Compliance Matrix: (Units=1/GPa)
#
#
# Indices 1 2 3 4 5 6 
#
# 1 0.009130 -0.006685 -0.004368 0.000000 0.000000 0.000000
# 2 -0.006685 0.013368 0.001944 0.000000 0.000000 0.000000
# 3 -0.004368 0.001944 0.015612 0.000000 0.000000 0.000000
# 4 0.000000 0.000000 0.000000 0.870259 0.000000 0.000000
# 5 0.000000 0.000000 0.000000 0.000000 0.020967 0.000000
# 6 0.000000 0.000000 0.000000 0.000000 0.000000 0.017759
#
#
# Mechanical properties :
#
#
# Convention : Reuss Voigt Hill
#
# Bulk Modulus (GPa) = 50.26595 76.57981 63.42288
# Shear Modulus (GPa) = 5.14433 37.37929 21.26181
#
# Velocity S-wave (km/s) = 1.46479 3.94846 2.97791
# Velocity P-wave (km/s) = 4.88118 7.26136 6.18681
#
# Compressibility (1/GPa) = 0.01989418
#
# Stress axis : x y z
#
# Youngs Moduli (GPa) = 109.53031 74.80415 64.05126
#
# Poissons Ratio (x) = 0.50004 0.27975
# Poissons Ratio (y) = 0.73217 -0.12452
# Poissons Ratio (z) = 0.47838 -0.14542
#
# Static dielectric constant tensor:
#      x y z
#    x 1.953090 0.000000 0.000000 
#    y 0.000000 1.940500 0.000000 
#    z 0.000000 0.000000 1.953230 
# 
# From -- ./inp_files/18898.got.cif
#   From: 2010.05.17/outbox.cif.g08.bks.cpg/sg68_10_cif.got.tgz:18898.got - 2010.06.03 18:57:09.
