data_PCOD9506497
_publ_section_title
;
Structure prediction by ZEFSAII (Michael W. Deem and Ramdas Pophale) SiO2 
 PCOD9506497
Probable space group: C C C A
;
_chemical_formula_sum "Si O2"
_cell_formula_units_Z 104
_cell_length_a 26.594903
_cell_length_b 20.221192
_cell_length_c 10.224166
_cell_angle_alpha 90.000000
_cell_angle_beta 90.000000
_cell_angle_gamma 90.000000
_cell_volume 5498.358533
_symmetry_space_group_name_H-M "C C C A"
_symmetry_group_IT_number 68
_space_group.IT_coordinate_system_code '2'
_symmetry_cell_setting 'orthorhombic'
loop_
_space_group_symop_operation_xyz
x,y,z
-x,1/2-y,z
x,1/2-y,1/2-z
-x,y,1/2-z
-x,-y,-z
x,1/2+y,-z
-x,1/2+y,1/2+z
x,-y,1/2+z
1/2+x,1/2+y,z
1/2-x,-y,z
1/2+x,-y,1/2-z
1/2-x,1/2+y,1/2-z
1/2-x,1/2-y,-z
1/2+x,y,-z
1/2-x,y,1/2+z
1/2+x,1/2-y,1/2+z
loop_
_atom_site_type_symbol
_atom_site_label
_atom_site_fract_x
_atom_site_fract_y
_atom_site_fract_z
Si Si1 0.843533 0.536069 0.004169
Si Si2 0.818657 0.388860 0.269841
Si Si3 0.441480 0.036312 0.150048
Si Si4 0.959793 0.925106 0.061980
Si Si5 0.857288 0.120477 0.512852
Si Si6 0.232753 0.793295 0.375100
Si Si7 0.250000 0.500000 0.356046
O O1 0.884044 0.550794 0.115488
O O2 0.786921 0.544470 0.055955
O O3 0.853915 0.582866 0.882604
O O4 0.847629 0.458425 0.968576
O O5 0.780754 0.335430 0.327557
O O6 0.784852 0.451894 0.226949
O O7 0.847932 0.366371 0.140981
O O8 0.481531 0.089033 0.090101
O O9 0.447642 0.033090 0.305489
O O10 0.454259 0.969739 0.068230
O O11 0.915650 0.870928 0.052757
O O12 0.814489 0.160884 0.586949
O O13 0.217978 0.750000 0.250000
O O14 0.250000 0.750000 0.500000
#
# Coordination Sequence:
#
# PCOD9506497 Si02
#       7
#    16  16  16  16  16  16   8
#     4  10  21  32  56  85 121 156 185 231 296 362
#     4  11  21  36  53  84 119 150 192 241 292 367
#     4   9  19  32  53  82 118 158 189 229 288 354
#     4   9  19  34  52  81 119 154 194 234 281 357
#     4  10  22  35  57  84 116 156 193 243 300 349
#     4  12  25  42  58  80 115 157 207 251 294 350
#     4  10  20  32  52  86 122 158 184 228 294 370
#
# _framework density 18.914736000000001
#
# number of rings (size 3 to 8) (size 9 to 14) (size 15 to 20)
#    0.000    1.846    1.538    3.231   15.077    0.000 
#    0.000    0.000    0.000    0.000    0.000    7.538 
#    0.000    0.000    0.000    0.000    0.000    0.000 
#
# Total GULP energy -289938.724139 kJ/mol
# GULP energy per Si atom -5575.744695 kJ/mol
# Density = 1.887169 g / cm^3
# Si number density = 18.914736 Si / 1000 Ang^3
#
#
#
# Elastic Constant Matrix: (Units=GPa)
#
#
# Indices 1 2 3 4 5 6 
#
# 1 106.5289 19.2910 24.9824 0.0000 0.0000 0.0000
# 2 19.2910 40.8787 29.2381 0.0000 0.0000 0.0000
# 3 24.9824 29.2381 115.9487 0.0000 0.0000 0.0000
# 4 0.0000 0.0000 0.0000 17.2607 0.0000 0.0000
# 5 0.0000 0.0000 0.0000 0.0000 31.1677 0.0000
# 6 0.0000 0.0000 0.0000 0.0000 0.0000 17.3110
#
#
#
# Elastic Compliance Matrix: (Units=1/GPa)
#
#
# Indices 1 2 3 4 5 6 
#
# 1 0.010405 -0.004034 -0.001225 0.000000 0.000000 0.000000
# 2 -0.004034 0.031410 -0.007051 0.000000 0.000000 0.000000
# 3 -0.001225 -0.007051 0.010666 0.000000 0.000000 0.000000
# 4 0.000000 0.000000 0.000000 0.057935 0.000000 0.000000
# 5 0.000000 0.000000 0.000000 0.000000 0.032085 0.000000
# 6 0.000000 0.000000 0.000000 0.000000 0.000000 0.057767
#
#
# Mechanical properties :
#
#
# Convention : Reuss Voigt Hill
#
# Bulk Modulus (GPa) = 35.89253 45.59770 40.74512
# Shear Modulus (GPa) = 21.35162 25.80420 23.57791
#
# Velocity S-wave (km/s) = 3.36346 3.69757 3.53446
# Velocity P-wave (km/s) = 5.83960 6.51066 6.18424
#
# Compressibility (1/GPa) = 0.02786095
#
# Stress axis : x y z
#
# Youngs Moduli (GPa) = 96.10904 31.83730 93.75247
#
# Poissons Ratio (x) = 0.12844 0.11480
# Poissons Ratio (y) = 0.38773 0.66106
# Poissons Ratio (z) = 0.11769 0.22449
#
# Static dielectric constant tensor:
#      x y z
#    x 1.748500 0.000000 0.000000 
#    y 0.000000 1.663190 0.000000 
#    z 0.000000 0.000000 1.706630 
# 
# From -- ./inp_files/9599.got.cif
#   From: 2010.05.17/outbox.cif.g08.bks.cpg/sg68_5_cif.got.tgz:9599.got - 2010.06.03 18:57:09.
