data_PCOD9506115
_publ_section_title
;
Structure prediction by ZEFSAII (Michael W. Deem and Ramdas Pophale) SiO2 
 PCOD9506115
Probable space group: C C C A
;
_chemical_formula_sum "Si O2"
_cell_formula_units_Z 104
_cell_length_a 8.006745
_cell_length_b 26.420118
_cell_length_c 22.048561
_cell_angle_alpha 90.000000
_cell_angle_beta 90.000000
_cell_angle_gamma 90.000000
_cell_volume 4664.133802
_symmetry_space_group_name_H-M "C C C A"
_symmetry_group_IT_number 68
_space_group.IT_coordinate_system_code '2'
_symmetry_cell_setting 'orthorhombic'
loop_
_space_group_symop_operation_xyz
x,y,z
-x,1/2-y,z
x,1/2-y,1/2-z
-x,y,1/2-z
-x,-y,-z
x,1/2+y,-z
-x,1/2+y,1/2+z
x,-y,1/2+z
1/2+x,1/2+y,z
1/2-x,-y,z
1/2+x,-y,1/2-z
1/2-x,1/2+y,1/2-z
1/2-x,1/2-y,-z
1/2+x,y,-z
1/2-x,y,1/2+z
1/2+x,1/2-y,1/2+z
loop_
_atom_site_type_symbol
_atom_site_label
_atom_site_fract_x
_atom_site_fract_y
_atom_site_fract_z
Si Si1 0.000000 0.616870 0.250000
Si Si2 0.582023 0.852653 0.551643
Si Si3 0.079930 0.339463 0.315238
Si Si4 0.048361 0.193029 0.663408
Si Si5 0.946555 0.694063 0.939272
Si Si6 0.551200 0.450455 0.818755
Si Si7 0.063581 0.442749 0.644197
O O1 0.078258 0.657096 0.201320
O O2 0.059919 0.579103 0.303479
O O3 0.454214 0.820270 0.592660
O O4 0.754763 0.822616 0.559211
O O5 0.535223 0.847806 0.481774
O O6 0.574233 0.907652 0.584343
O O7 0.271864 0.323570 0.313321
O O8 0.000000 0.330402 0.250000
O O9 0.000795 0.308797 0.369985
O O10 0.044827 0.398364 0.331071
O O11 0.000000 0.250000 0.673825
O O12 0.000000 0.750000 0.962021
O O13 0.500000 0.464675 0.750000
O O14 0.750831 0.440613 0.825125
O O15 0.519655 0.498309 0.862489
#
# Coordination Sequence:
#
# PCOD9506115 Si02
#       7
#     8  16  16  16  16  16  16
#     4  10  19  34  56  92 134 174 215 272 346 428
#     4  11  24  43  68  96 134 185 243 308 361 443
#     4  11  24  43  69 106 140 182 239 303 363 451
#     4  11  23  40  64  97 140 181 229 289 367 428
#     4  12  24  44  69  96 135 188 249 302 372 442
#     4  10  19  37  66  97 138 181 234 291 363 432
#     4  10  20  37  63 100 135 184 232 300 357 431
#
# _framework density 22.297816000000001
#
# number of rings (size 3 to 8) (size 9 to 14) (size 15 to 20)
#    0.000    1.231    2.308    4.846    2.154    0.308 
#    2.769    0.769    0.000    0.000    0.000    0.000 
#    0.000    0.000    0.000    0.000    0.000    0.000 
#
# Total GULP energy -289881.694516 kJ/mol
# GULP energy per Si atom -5574.647971 kJ/mol
# Density = 2.224707 g / cm^3
# Si number density = 22.297816 Si / 1000 Ang^3
#
#
#
# Elastic Constant Matrix: (Units=GPa)
#
#
# Indices 1 2 3 4 5 6 
#
# 1 93.6704 31.1355 31.2186 0.0000 0.0000 0.0000
# 2 31.1355 146.7377 40.2359 0.0000 0.0000 0.0000
# 3 31.2186 40.2359 117.8361 0.0000 0.0000 0.0000
# 4 0.0000 0.0000 0.0000 27.8656 0.0000 0.0000
# 5 0.0000 0.0000 0.0000 0.0000 27.6935 0.0000
# 6 0.0000 0.0000 0.0000 0.0000 0.0000 29.2235
#
#
#
# Elastic Compliance Matrix: (Units=1/GPa)
#
#
# Indices 1 2 3 4 5 6 
#
# 1 0.012158 -0.001872 -0.002582 0.000000 0.000000 0.000000
# 2 -0.001872 0.007807 -0.002170 0.000000 0.000000 0.000000
# 3 -0.002582 -0.002170 0.009911 0.000000 0.000000 0.000000
# 4 0.000000 0.000000 0.000000 0.035887 0.000000 0.000000
# 5 0.000000 0.000000 0.000000 0.000000 0.036110 0.000000
# 6 0.000000 0.000000 0.000000 0.000000 0.000000 0.034219
#
#
# Mechanical properties :
#
#
# Convention : Reuss Voigt Hill
#
# Bulk Modulus (GPa) = 60.13442 62.60268 61.36855
# Shear Modulus (GPa) = 32.28254 34.00014 33.14134
#
# Velocity S-wave (km/s) = 3.80911 3.90913 3.85944
# Velocity P-wave (km/s) = 6.80978 6.96503 6.88784
#
# Compressibility (1/GPa) = 0.01662941
#
# Stress axis : x y z
#
# Youngs Moduli (GPa) = 82.24722 128.08955 100.89457
#
# Poissons Ratio (x) = 0.23976 0.26051
# Poissons Ratio (y) = 0.15395 0.21893
# Poissons Ratio (z) = 0.21236 0.27794
#
# Static dielectric constant tensor:
#      x y z
#    x 2.040950 0.000000 0.000000 
#    y 0.000000 1.902360 0.000000 
#    z 0.000000 0.000000 1.902920 
# 
# From -- ./inp_files/36593.got.cif
#   From: 2010.05.17/outbox.cif.g08.bks.cpg/sg68_19_cif.got.tgz:36593.got - 2010.06.03 18:57:09.
