data_PCOD9506588
_publ_section_title
;
Structure prediction by ZEFSAII (Michael W. Deem and Ramdas Pophale) SiO2 
 PCOD9506588
Probable space group: C C C A
;
_chemical_formula_sum "Si O2"
_cell_formula_units_Z 64
_cell_length_a 28.308377
_cell_length_b 13.802187
_cell_length_c 7.856368
_cell_angle_alpha 90.000000
_cell_angle_beta 90.000000
_cell_angle_gamma 90.000000
_cell_volume 3069.620566
_symmetry_space_group_name_H-M "C C C A"
_symmetry_group_IT_number 68
_space_group.IT_coordinate_system_code '2'
_symmetry_cell_setting 'orthorhombic'
loop_
_space_group_symop_operation_xyz
x,y,z
-x,1/2-y,z
x,1/2-y,1/2-z
-x,y,1/2-z
-x,-y,-z
x,1/2+y,-z
-x,1/2+y,1/2+z
x,-y,1/2+z
1/2+x,1/2+y,z
1/2-x,-y,z
1/2+x,-y,1/2-z
1/2-x,1/2+y,1/2-z
1/2-x,1/2-y,-z
1/2+x,y,-z
1/2-x,y,1/2+z
1/2+x,1/2-y,1/2+z
loop_
_atom_site_type_symbol
_atom_site_label
_atom_site_fract_x
_atom_site_fract_y
_atom_site_fract_z
Si Si1 0.419261 0.252485 0.042718
Si Si2 0.763082 0.885719 0.307373
Si Si3 0.311597 0.779287 0.010888
Si Si4 0.996692 0.109764 0.953012
O O1 0.414502 0.250000 0.250000
O O2 0.367423 0.271759 0.974870
O O3 0.457378 0.332415 0.984622
O O4 0.446719 0.154772 0.991708
O O5 0.712795 0.832811 0.331324
O O6 0.793780 0.850922 0.144571
O O7 0.792038 0.827624 0.456604
O O8 0.750000 0.000000 0.314671
O O9 0.000000 0.122311 0.750000
O O10 0.000000 0.000000 0.000000
#
# Coordination Sequence:
#
# PCOD9506588 Si02
#       4
#    16  16  16  16
#     4   9  17  36  57  76 109 155 173 214 279 346
#     4  10  20  34  55  79 109 151 190 229 272 321
#     4  10  20  36  56  77 116 147 187 229 274 324
#     4   9  19  35  61  83 107 138 184 222 275 335
#
# _framework density 20.849482999999999
#
# number of rings (size 3 to 8) (size 9 to 14) (size 15 to 20)
#    0.000    2.500    2.500    2.250    0.000    2.000 
#    0.000    2.500    5.500    0.000    0.000    0.000 
#    0.000    0.000    0.000    0.000    0.000    0.000 
#
# Total GULP energy -178163.213229 kJ/mol
# GULP energy per Si atom -5567.600413 kJ/mol
# Density = 2.080203 g / cm^3
# Si number density = 20.849483 Si / 1000 Ang^3
#
#
#
# Elastic Constant Matrix: (Units=GPa)
#
#
# Indices 1 2 3 4 5 6 
#
# 1 221.3525 83.8857 16.0703 0.0000 0.0000 0.0000
# 2 83.8857 199.1593 23.7607 0.0000 0.0000 0.0000
# 3 16.0703 23.7607 48.4065 0.0000 0.0000 0.0000
# 4 0.0000 0.0000 0.0000 18.7386 0.0000 0.0000
# 5 0.0000 0.0000 0.0000 0.0000 18.1209 0.0000
# 6 0.0000 0.0000 0.0000 0.0000 0.0000 9.8161
#
#
#
# Elastic Compliance Matrix: (Units=1/GPa)
#
#
# Indices 1 2 3 4 5 6 
#
# 1 0.005399 -0.002188 -0.000718 0.000000 0.000000 0.000000
# 2 -0.002188 0.006220 -0.002327 0.000000 0.000000 0.000000
# 3 -0.000718 -0.002327 0.022039 0.000000 0.000000 0.000000
# 4 0.000000 0.000000 0.000000 0.053366 0.000000 0.000000
# 5 0.000000 0.000000 0.000000 0.000000 0.055185 0.000000
# 6 0.000000 0.000000 0.000000 0.000000 0.000000 0.101874
#
#
# Mechanical properties :
#
#
# Convention : Reuss Voigt Hill
#
# Bulk Modulus (GPa) = 43.11911 79.59466 61.35688
# Shear Modulus (GPa) = 19.06355 32.34856 25.70606
#
# Velocity S-wave (km/s) = 3.02709 3.94322 3.51513
# Velocity P-wave (km/s) = 5.73966 7.68054 6.77991
#
# Compressibility (1/GPa) = 0.02319158
#
# Stress axis : x y z
#
# Youngs Moduli (GPa) = 185.21349 160.75942 45.37421
#
# Poissons Ratio (x) = 0.35181 0.03259
# Poissons Ratio (y) = 0.40533 0.10558
# Poissons Ratio (z) = 0.13303 0.37406
#
# Static dielectric constant tensor:
#      x y z
#    x 1.731340 0.000000 0.000000 
#    y 0.000000 1.733150 0.000000 
#    z 0.000000 0.000000 1.907370 
# 
# From -- ./inp_files/11778.got.cif
#   From: 2010.05.17/outbox.cif.g08.bks.cpg/sg68_6_cif.got.tgz:11778.got - 2010.06.03 18:57:09.
