data_PCOD9506613
_publ_section_title
;
Structure prediction by ZEFSAII (Michael W. Deem and Ramdas Pophale) SiO2 
 PCOD9506613
Probable space group: C C C A
;
_chemical_formula_sum "Si O2"
_cell_formula_units_Z 96
_cell_length_a 15.205400
_cell_length_b 18.940511
_cell_length_c 18.589391
_cell_angle_alpha 90.000000
_cell_angle_beta 90.000000
_cell_angle_gamma 90.000000
_cell_volume 5353.708284
_symmetry_space_group_name_H-M "C C C A"
_symmetry_group_IT_number 68
_space_group.IT_coordinate_system_code '2'
_symmetry_cell_setting 'orthorhombic'
loop_
_space_group_symop_operation_xyz
x,y,z
-x,1/2-y,z
x,1/2-y,1/2-z
-x,y,1/2-z
-x,-y,-z
x,1/2+y,-z
-x,1/2+y,1/2+z
x,-y,1/2+z
1/2+x,1/2+y,z
1/2-x,-y,z
1/2+x,-y,1/2-z
1/2-x,1/2+y,1/2-z
1/2-x,1/2-y,-z
1/2+x,y,-z
1/2-x,y,1/2+z
1/2+x,1/2-y,1/2+z
loop_
_atom_site_type_symbol
_atom_site_label
_atom_site_fract_x
_atom_site_fract_y
_atom_site_fract_z
Si Si1 0.136239 0.411132 0.061195
Si Si2 0.512471 0.540505 0.168150
Si Si3 0.092306 0.211882 0.547999
Si Si4 0.003893 0.372281 0.667980
Si Si5 0.840897 0.536421 0.553673
Si Si6 0.177090 0.353845 0.571211
O O1 0.232269 0.392341 0.093550
O O2 0.068000 0.428880 0.122754
O O3 0.113919 0.343089 0.013833
O O4 0.129400 0.476907 0.005020
O O5 0.500000 0.564873 0.250000
O O6 0.512748 0.455480 0.168801
O O7 0.599306 0.555134 0.121423
O O8 0.168505 0.269800 0.558954
O O9 0.000000 0.250000 0.529447
O O10 0.067887 0.168845 0.620273
O O11 0.097961 0.365453 0.627887
O O12 0.000000 0.346142 0.750000
O O13 0.750000 0.500000 0.578610
O O14 0.837163 0.606734 0.505085
#
# Coordination Sequence:
#
# PCOD9506613 Si02
#       6
#    16  16  16  16  16  16
#     4  11  20  37  60  80 114 148 189 242 276 337
#     4  11  21  36  56  84 116 154 186 229 290 340
#     4  10  20  34  58  83 111 151 187 236 285 338
#     4  10  20  35  55  84 118 151 186 230 288 346
#     4  10  20  37  59  84 111 144 190 239 275 332
#     4  10  21  35  57  90 109 145 193 237 289 332
#
# _framework density 17.931497
#
# number of rings (size 3 to 8) (size 9 to 14) (size 15 to 20)
#    0.000    1.667    3.333    3.000    0.000    3.000 
#    6.000    0.000    0.000    8.500    0.000    0.000 
#    0.000    0.000    0.000    0.000    0.000    0.000 
#
# Total GULP energy -267351.034999 kJ/mol
# GULP energy per Si atom -5569.813229 kJ/mol
# Density = 1.789068 g / cm^3
# Si number density = 17.931497 Si / 1000 Ang^3
#
#
#
# Elastic Constant Matrix: (Units=GPa)
#
#
# Indices 1 2 3 4 5 6 
#
# 1 87.9184 6.5835 77.1524 0.0000 0.0000 0.0000
# 2 6.5835 60.4670 28.4966 0.0000 0.0000 0.0000
# 3 77.1524 28.4966 118.3767 0.0000 0.0000 0.0000
# 4 0.0000 0.0000 0.0000 25.6530 0.0000 0.0000
# 5 0.0000 0.0000 0.0000 0.0000 7.2676 0.0000
# 6 0.0000 0.0000 0.0000 0.0000 0.0000 13.4330
#
#
#
# Elastic Compliance Matrix: (Units=1/GPa)
#
#
# Indices 1 2 3 4 5 6 
#
# 1 0.028610 0.006399 -0.020187 0.000000 0.000000 0.000000
# 2 0.006399 0.020085 -0.009005 0.000000 0.000000 0.000000
# 3 -0.020187 -0.009005 0.023772 0.000000 0.000000 0.000000
# 4 0.000000 0.000000 0.000000 0.038982 0.000000 0.000000
# 5 0.000000 0.000000 0.000000 0.000000 0.137597 0.000000
# 6 0.000000 0.000000 0.000000 0.000000 0.000000 0.074443
#
#
# Mechanical properties :
#
#
# Convention : Reuss Voigt Hill
#
# Bulk Modulus (GPa) = 37.20214 54.58077 45.89145
# Shear Modulus (GPa) = 13.22621 19.57271 16.39946
#
# Velocity S-wave (km/s) = 2.71882 3.30741 3.02745
# Velocity P-wave (km/s) = 5.53605 6.71490 6.15377
#
# Compressibility (1/GPa) = 0.02688017
#
# Stress axis : x y z
#
# Youngs Moduli (GPa) = 34.95273 49.78763 42.06552
#
# Poissons Ratio (x) = -0.31857 0.84918
# Poissons Ratio (y) = -0.22365 0.37882
# Poissons Ratio (z) = 0.70559 0.44836
#
# Static dielectric constant tensor:
#      x y z
#    x 1.648460 0.000000 0.000000 
#    y 0.000000 1.634980 0.000000 
#    z 0.000000 0.000000 1.591370 
# 
# From -- ./inp_files/22327.got.cif
#   From: 2010.05.17/outbox.cif.g08.bks.cpg/sg68_12_cif.got.tgz:22327.got - 2010.06.03 18:57:09.
