data_PCOD9506906
_publ_section_title
;
Structure prediction by ZEFSAII (Michael W. Deem and Ramdas Pophale) SiO2 
 PCOD9506906
Probable space group: C C C A
;
_chemical_formula_sum "Si O2"
_cell_formula_units_Z 76
_cell_length_a 13.512751
_cell_length_b 23.857797
_cell_length_c 9.995850
_cell_angle_alpha 90.000000
_cell_angle_beta 90.000000
_cell_angle_gamma 90.000000
_cell_volume 3222.506807
_symmetry_space_group_name_H-M "C C C A"
_symmetry_group_IT_number 68
_space_group.IT_coordinate_system_code '2'
_symmetry_cell_setting 'orthorhombic'
loop_
_space_group_symop_operation_xyz
x,y,z
-x,1/2-y,z
x,1/2-y,1/2-z
-x,y,1/2-z
-x,-y,-z
x,1/2+y,-z
-x,1/2+y,1/2+z
x,-y,1/2+z
1/2+x,1/2+y,z
1/2-x,-y,z
1/2+x,-y,1/2-z
1/2-x,1/2+y,1/2-z
1/2-x,1/2-y,-z
1/2+x,y,-z
1/2-x,y,1/2+z
1/2+x,1/2-y,1/2+z
loop_
_atom_site_type_symbol
_atom_site_label
_atom_site_fract_x
_atom_site_fract_y
_atom_site_fract_z
Si Si1 0.919316 0.026531 0.098556
Si Si2 0.000000 0.628870 0.750000
Si Si3 0.000000 0.563842 0.250000
Si Si4 0.294652 0.872983 0.143504
Si Si5 0.250000 0.500000 0.901487
Si Si6 0.500000 0.750000 0.750000
Si Si7 0.869133 0.654670 0.358772
O O1 0.958145 0.086521 0.138784
O O2 0.825625 0.027929 0.006651
O O3 0.914009 0.982927 0.223896
O O4 0.000000 0.000000 0.000000
O O5 0.897697 0.654608 0.697914
O O6 0.957112 0.608250 0.356259
O O7 0.293236 0.941393 0.161620
O O8 0.199775 0.853265 0.227428
O O9 0.300981 0.856467 0.987540
O O10 0.571846 0.787703 0.657947
#
# Coordination Sequence:
#
# PCOD9506906 Si02
#       7
#    16   8   8  16   8   4  16
#     4  11  20  35  54  87 142 198 241 270 328 399
#     4  11  24  37  60 102 152 206 237 286 329 426
#     4  10  20  37  58  87 132 175 230 281 334 402
#     4  12  26  42  72 107 154 187 248 283 364 436
#     4  12  22  38  62 102 150 206 230 288 332 434
#     4  10  28  54  84  96 136 176 250 318 402 416
#     4  11  25  48  75 106 135 188 238 312 362 444
#
# _framework density 23.584123999999999
#
# number of rings (size 3 to 8) (size 9 to 14) (size 15 to 20)
#    0.000    0.842    4.211    2.526    2.947    6.737 
#    0.000    0.000    0.000    1.263    0.000    0.000 
#    0.000    0.000    0.000    0.000    0.000    0.000 
#
# Total GULP energy -211571.172223 kJ/mol
# GULP energy per Si atom -5567.662427 kJ/mol
# Density = 2.353045 g / cm^3
# Si number density = 23.584124 Si / 1000 Ang^3
#
#
#
# Elastic Constant Matrix: (Units=GPa)
#
#
# Indices 1 2 3 4 5 6 
#
# 1 101.6522 30.1007 37.4535 0.0000 0.0000 0.0000
# 2 30.1007 98.8533 29.7554 0.0000 0.0000 0.0000
# 3 37.4535 29.7554 116.2586 0.0000 0.0000 0.0000
# 4 0.0000 0.0000 0.0000 15.7791 0.0000 0.0000
# 5 0.0000 0.0000 0.0000 0.0000 44.8549 0.0000
# 6 0.0000 0.0000 0.0000 0.0000 0.0000 38.2777
#
#
#
# Elastic Compliance Matrix: (Units=1/GPa)
#
#
# Indices 1 2 3 4 5 6 
#
# 1 0.011768 -0.002646 -0.003114 0.000000 0.000000 0.000000
# 2 -0.002646 0.011555 -0.002105 0.000000 0.000000 0.000000
# 3 -0.003114 -0.002105 0.010143 0.000000 0.000000 0.000000
# 4 0.000000 0.000000 0.000000 0.063375 0.000000 0.000000
# 5 0.000000 0.000000 0.000000 0.000000 0.022294 0.000000
# 6 0.000000 0.000000 0.000000 0.000000 0.000000 0.026125
#
#
# Mechanical properties :
#
#
# Convention : Reuss Voigt Hill
#
# Bulk Modulus (GPa) = 56.37966 56.82037 56.60002
# Shear Modulus (GPa) = 29.95736 34.41263 32.18500
#
# Velocity S-wave (km/s) = 3.56790 3.82402 3.69818
# Velocity P-wave (km/s) = 6.39773 6.60624 6.50282
#
# Compressibility (1/GPa) = 0.01773689
#
# Stress axis : x y z
#
# Youngs Moduli (GPa) = 84.97356 86.53983 98.58549
#
# Poissons Ratio (x) = 0.22899 0.30700
# Poissons Ratio (y) = 0.22485 0.20753
# Poissons Ratio (z) = 0.26461 0.18217
#
# Static dielectric constant tensor:
#      x y z
#    x 2.031810 0.000000 0.000000 
#    y 0.000000 1.879070 0.000000 
#    z 0.000000 0.000000 2.161570 
# 
# From -- ./inp_files/13283.got.cif
#   From: 2010.05.17/outbox.cif.g08.bks.cpg/sg68_7_cif.got.tgz:13283.got - 2010.06.03 18:57:09.
