data_PCOD9506013
_publ_section_title
;
Structure prediction by ZEFSAII (Michael W. Deem and Ramdas Pophale) SiO2 
 PCOD9506013
Probable space group: C C C A
;
_chemical_formula_sum "Si O2"
_cell_formula_units_Z 72
_cell_length_a 13.288734
_cell_length_b 9.366934
_cell_length_c 24.923105
_cell_angle_alpha 90.000000
_cell_angle_beta 90.000000
_cell_angle_gamma 90.000000
_cell_volume 3102.295876
_symmetry_space_group_name_H-M "C C C A"
_symmetry_group_IT_number 68
_space_group.IT_coordinate_system_code '2'
_symmetry_cell_setting 'orthorhombic'
loop_
_space_group_symop_operation_xyz
x,y,z
-x,1/2-y,z
x,1/2-y,1/2-z
-x,y,1/2-z
-x,-y,-z
x,1/2+y,-z
-x,1/2+y,1/2+z
x,-y,1/2+z
1/2+x,1/2+y,z
1/2-x,-y,z
1/2+x,-y,1/2-z
1/2-x,1/2+y,1/2-z
1/2-x,1/2-y,-z
1/2+x,y,-z
1/2-x,y,1/2+z
1/2+x,1/2-y,1/2+z
loop_
_atom_site_type_symbol
_atom_site_label
_atom_site_fract_x
_atom_site_fract_y
_atom_site_fract_z
Si Si1 0.250000 0.000000 0.822431
Si Si2 0.857922 0.366394 0.420939
Si Si3 0.069582 0.541037 0.917858
Si Si4 0.941215 0.100079 0.302036
Si Si5 0.755014 0.250000 0.250000
Si Si6 0.250000 0.500000 0.992677
O O1 0.327743 0.074317 0.862850
O O2 0.204417 0.130365 0.787391
O O3 0.893178 0.205128 0.417803
O O4 0.765043 0.376848 0.462072
O O5 0.955197 0.459082 0.438964
O O6 0.064997 0.503393 0.854752
O O7 0.154872 0.472763 0.954309
O O8 0.830423 0.151369 0.285137
O O9 0.000000 0.250000 0.313718
O O10 0.000000 0.041019 0.250000
#
# Coordination Sequence:
#
# PCOD9506013 Si02
#       6
#     8  16  16  16   8   8
#     4  11  20  37  60  98 122 161 216 271 316 376
#     4  10  21  39  60  85 127 165 209 259 310 378
#     4  11  19  39  60  89 118 169 209 251 306 387
#     4   9  16  32  58  88 108 156 215 249 279 379
#     4  10  19  32  58  92 121 154 206 270 311 371
#     4  11  24  33  60  96 120 157 208 275 314 354
#
# _framework density 23.208618000000001
#
# number of rings (size 3 to 8) (size 9 to 14) (size 15 to 20)
#    0.000    2.000    4.444    2.667    0.000    0.889 
#    0.000    0.000    0.000    0.000   28.889    0.000 
#    0.000    0.000    0.000    0.000    0.000    0.000 
#
# Total GULP energy -200561.833341 kJ/mol
# GULP energy per Si atom -5571.162037 kJ/mol
# Density = 2.315579 g / cm^3
# Si number density = 23.208618 Si / 1000 Ang^3
#
#
#
# Elastic Constant Matrix: (Units=GPa)
#
#
# Indices 1 2 3 4 5 6 
#
# 1 47.5170 10.6608 18.1502 0.0000 0.0000 0.0000
# 2 10.6608 42.2675 25.3314 0.0000 0.0000 0.0000
# 3 18.1502 25.3314 147.3485 0.0000 0.0000 0.0000
# 4 0.0000 0.0000 0.0000 16.0374 0.0000 0.0000
# 5 0.0000 0.0000 0.0000 0.0000 28.2579 0.0000
# 6 0.0000 0.0000 0.0000 0.0000 0.0000 18.7686
#
#
#
# Elastic Compliance Matrix: (Units=1/GPa)
#
#
# Indices 1 2 3 4 5 6 
#
# 1 0.022841 -0.004543 -0.002033 0.000000 0.000000 0.000000
# 2 -0.004543 0.027280 -0.004130 0.000000 0.000000 0.000000
# 3 -0.002033 -0.004130 0.007747 0.000000 0.000000 0.000000
# 4 0.000000 0.000000 0.000000 0.062354 0.000000 0.000000
# 5 0.000000 0.000000 0.000000 0.000000 0.035388 0.000000
# 6 0.000000 0.000000 0.000000 0.000000 0.000000 0.053280
#
#
# Mechanical properties :
#
#
# Convention : Reuss Voigt Hill
#
# Bulk Modulus (GPa) = 27.42995 38.37975 32.90485
# Shear Modulus (GPa) = 20.62247 24.81215 22.71731
#
# Velocity S-wave (km/s) = 2.98412 3.27324 3.13202
# Velocity P-wave (km/s) = 4.87010 5.55502 5.22380
#
# Compressibility (1/GPa) = 0.03645651
#
# Stress axis : x y z
#
# Youngs Moduli (GPa) = 43.78148 36.65702 129.08150
#
# Poissons Ratio (x) = 0.16653 0.26236
# Poissons Ratio (y) = 0.19889 0.53314
# Poissons Ratio (z) = 0.08899 0.15140
#
# Static dielectric constant tensor:
#      x y z
#    x 1.970080 0.000000 0.000000 
#    y 0.000000 1.886390 0.000000 
#    z 0.000000 0.000000 1.933210 
# 
# From -- ./inp_files/45121.got.cif
#   From: 2010.05.17/outbox.cif.g08.bks.cpg/sg68_23_cif.got.tgz:45121.got - 2010.06.03 18:57:09.
