data_PCOD9506945
_publ_section_title
;
Structure prediction by ZEFSAII (Michael W. Deem and Ramdas Pophale) SiO2 
 PCOD9506945
Probable space group: C C C A
;
_chemical_formula_sum "Si O2"
_cell_formula_units_Z 96
_cell_length_a 14.225821
_cell_length_b 16.059991
_cell_length_c 20.853718
_cell_angle_alpha 90.000000
_cell_angle_beta 90.000000
_cell_angle_gamma 90.000000
_cell_volume 4764.377157
_symmetry_space_group_name_H-M "C C C A"
_symmetry_group_IT_number 68
_space_group.IT_coordinate_system_code '2'
_symmetry_cell_setting 'orthorhombic'
loop_
_space_group_symop_operation_xyz
x,y,z
-x,1/2-y,z
x,1/2-y,1/2-z
-x,y,1/2-z
-x,-y,-z
x,1/2+y,-z
-x,1/2+y,1/2+z
x,-y,1/2+z
1/2+x,1/2+y,z
1/2-x,-y,z
1/2+x,-y,1/2-z
1/2-x,1/2+y,1/2-z
1/2-x,1/2-y,-z
1/2+x,y,-z
1/2-x,y,1/2+z
1/2+x,1/2-y,1/2+z
loop_
_atom_site_type_symbol
_atom_site_label
_atom_site_fract_x
_atom_site_fract_y
_atom_site_fract_z
Si Si1 0.149179 0.954710 0.561628
Si Si2 0.645575 0.465208 0.416901
Si Si3 0.794940 0.277498 0.908898
Si Si4 0.916299 0.699417 0.184003
Si Si5 0.480928 0.991243 0.678320
Si Si6 0.387605 0.260003 0.959044
O O1 0.111973 0.982652 0.490376
O O2 0.144961 0.854948 0.553763
O O3 0.250000 0.000000 0.566501
O O4 0.093738 0.973233 0.627075
O O5 0.750000 0.500000 0.411820
O O6 0.655751 0.366667 0.404121
O O7 0.576302 0.496970 0.362575
O O8 0.820493 0.214538 0.852889
O O9 0.683160 0.291611 0.914040
O O10 0.845768 0.237862 0.971221
O O11 0.906698 0.750000 0.250000
O O12 0.946677 0.604417 0.189018
O O13 0.000000 0.750000 0.148294
O O14 0.500000 0.026079 0.750000
O O15 0.500000 0.250000 0.953874
#
# Coordination Sequence:
#
# PCOD9506945 Si02
#       6
#    16  16  16  16  16  16
#     4  10  23  42  60  91 129 166 209 258 321 382
#     4  10  22  38  59  92 122 163 206 257 315 371
#     4  10  20  37  61  89 123 153 201 258 308 363
#     4  11  19  36  60  93 119 149 205 262 314 358
#     4  12  23  38  64  90 124 164 206 259 316 376
#     4  10  22  37  63  92 121 163 203 253 311 375
#
# _framework density 20.149538
#
# number of rings (size 3 to 8) (size 9 to 14) (size 15 to 20)
#    0.000    1.500    3.333    2.000    4.667    2.000 
#    0.000    1.667    0.000    0.000    0.000    0.000 
#    0.000    0.000    0.000    0.000    0.000    0.000 
#
# Total GULP energy -267319.575854 kJ/mol
# GULP energy per Si atom -5569.157830 kJ/mol
# Density = 2.010368 g / cm^3
# Si number density = 20.149538 Si / 1000 Ang^3
#
#
#
# Elastic Constant Matrix: (Units=GPa)
#
#
# Indices 1 2 3 4 5 6 
#
# 1 137.5194 7.3275 60.8188 0.0000 0.0000 0.0000
# 2 7.3275 39.0741 23.3110 0.0000 0.0000 0.0000
# 3 60.8188 23.3110 148.6315 0.0000 0.0000 0.0000
# 4 0.0000 0.0000 0.0000 20.6619 0.0000 0.0000
# 5 0.0000 0.0000 0.0000 0.0000 16.4767 0.0000
# 6 0.0000 0.0000 0.0000 0.0000 0.0000 8.7603
#
#
#
# Elastic Compliance Matrix: (Units=1/GPa)
#
#
# Indices 1 2 3 4 5 6 
#
# 1 0.008889 0.000555 -0.003724 0.000000 0.000000 0.000000
# 2 0.000555 0.028269 -0.004661 0.000000 0.000000 0.000000
# 3 -0.003724 -0.004661 0.008983 0.000000 0.000000 0.000000
# 4 0.000000 0.000000 0.000000 0.048398 0.000000 0.000000
# 5 0.000000 0.000000 0.000000 0.000000 0.060692 0.000000
# 6 0.000000 0.000000 0.000000 0.000000 0.000000 0.114151
#
#
# Mechanical properties :
#
#
# Convention : Reuss Voigt Hill
#
# Bulk Modulus (GPa) = 32.80756 56.45997 44.63376
# Shear Modulus (GPa) = 16.93751 24.76429 20.85090
#
# Velocity S-wave (km/s) = 2.90244 3.50955 3.22033
# Velocity P-wave (km/s) = 5.24877 6.67112 6.00223
#
# Compressibility (1/GPa) = 0.03048078
#
# Stress axis : x y z
#
# Youngs Moduli (GPa) = 112.49478 35.37459 111.32081
#
# Poissons Ratio (x) = -0.01963 0.41461
# Poissons Ratio (y) = -0.06243 0.51883
# Poissons Ratio (z) = 0.41898 0.16487
#
# Static dielectric constant tensor:
#      x y z
#    x 1.770290 0.000000 0.000000 
#    y 0.000000 1.760440 0.000000 
#    z 0.000000 0.000000 1.756630 
# 
# From -- ./inp_files/37656.got.cif
#   From: 2010.05.17/outbox.cif.g08.bks.cpg/sg68_19_cif.got.tgz:37656.got - 2010.06.03 18:57:09.
