data_PCOD9506807
_publ_section_title
;
Structure prediction by ZEFSAII (Michael W. Deem and Ramdas Pophale) SiO2 
 PCOD9506807
Probable space group: C C C A
;
_chemical_formula_sum "Si O2"
_cell_formula_units_Z 96
_cell_length_a 24.910544
_cell_length_b 8.861582
_cell_length_c 19.147519
_cell_angle_alpha 90.000000
_cell_angle_beta 90.000000
_cell_angle_gamma 90.000000
_cell_volume 4226.754089
_symmetry_space_group_name_H-M "C C C A"
_symmetry_group_IT_number 68
_space_group.IT_coordinate_system_code '2'
_symmetry_cell_setting 'orthorhombic'
loop_
_space_group_symop_operation_xyz
x,y,z
-x,1/2-y,z
x,1/2-y,1/2-z
-x,y,1/2-z
-x,-y,-z
x,1/2+y,-z
-x,1/2+y,1/2+z
x,-y,1/2+z
1/2+x,1/2+y,z
1/2-x,-y,z
1/2+x,-y,1/2-z
1/2-x,1/2+y,1/2-z
1/2-x,1/2-y,-z
1/2+x,y,-z
1/2-x,y,1/2+z
1/2+x,1/2-y,1/2+z
loop_
_atom_site_type_symbol
_atom_site_label
_atom_site_fract_x
_atom_site_fract_y
_atom_site_fract_z
Si Si1 0.575484 0.976876 0.864200
Si Si2 0.443568 0.725595 0.527011
Si Si3 0.918297 0.250000 0.750000
Si Si4 0.085895 0.499373 0.645027
Si Si5 0.193130 0.468568 0.406312
Si Si6 0.500000 0.250000 0.841323
Si Si7 0.839725 0.672101 0.960597
O O1 0.565081 0.884341 0.934121
O O2 0.553901 0.865698 0.803473
O O3 0.639622 0.004108 0.860005
O O4 0.543669 0.130060 0.866045
O O5 0.500000 0.750000 0.488317
O O6 0.446184 0.593417 0.584278
O O7 0.388692 0.717638 0.485581
O O8 0.892029 0.370864 0.802840
O O9 0.045806 0.619983 0.682214
O O10 0.133478 0.575931 0.601363
O O11 0.250000 0.500000 0.370883
O O12 0.183477 0.572917 0.475872
O O13 0.199654 0.295215 0.429845
#
# Coordination Sequence:
#
# PCOD9506807 Si02
#       7
#    16  16   8  16  16   8  16
#     4  10  23  40  65  91 127 176 220 271 327 397
#     4  10  20  36  59  90 137 176 206 257 334 405
#     4  10  26  47  62  84 136 182 224 269 336 410
#     4  11  23  39  61  93 133 175 219 269 335 399
#     4  11  23  42  67  97 133 169 217 272 333 393
#     4  12  22  37  64  98 130 162 230 279 320 396
#     4  11  22  38  63  99 128 171 215 267 332 398
#
# _framework density 22.712465000000002
#
# number of rings (size 3 to 8) (size 9 to 14) (size 15 to 20)
#    0.000    1.333    5.000    0.500    1.167    3.333 
#    0.000    0.000    3.667    0.000    0.000    0.000 
#    0.000    0.000    0.000    0.000    0.000    0.000 
#
# Total GULP energy -267334.412706 kJ/mol
# GULP energy per Si atom -5569.466931 kJ/mol
# Density = 2.266077 g / cm^3
# Si number density = 22.712465 Si / 1000 Ang^3
#
#
#
# Elastic Constant Matrix: (Units=GPa)
#
#
# Indices 1 2 3 4 5 6 
#
# 1 113.8844 26.5664 13.1392 0.0000 0.0000 0.0000
# 2 26.5664 127.2265 23.7827 0.0000 0.0000 0.0000
# 3 13.1392 23.7827 56.0026 0.0000 0.0000 0.0000
# 4 0.0000 0.0000 0.0000 40.9044 0.0000 0.0000
# 5 0.0000 0.0000 0.0000 0.0000 3.1904 0.0000
# 6 0.0000 0.0000 0.0000 0.0000 0.0000 26.9513
#
#
#
# Elastic Compliance Matrix: (Units=1/GPa)
#
#
# Indices 1 2 3 4 5 6 
#
# 1 0.009342 -0.001674 -0.001481 0.000000 0.000000 0.000000
# 2 -0.001674 0.008838 -0.003360 0.000000 0.000000 0.000000
# 3 -0.001481 -0.003360 0.019631 0.000000 0.000000 0.000000
# 4 0.000000 0.000000 0.000000 0.024447 0.000000 0.000000
# 5 0.000000 0.000000 0.000000 0.000000 0.313440 0.000000
# 6 0.000000 0.000000 0.000000 0.000000 0.000000 0.037104
#
#
# Mechanical properties :
#
#
# Convention : Reuss Voigt Hill
#
# Bulk Modulus (GPa) = 40.35489 47.12114 43.73802
# Shear Modulus (GPa) = 11.51829 29.78423 20.65126
#
# Velocity S-wave (km/s) = 2.25441 3.62520 3.01864
# Velocity P-wave (km/s) = 4.95810 6.18988 5.60791
#
# Compressibility (1/GPa) = 0.02478014
#
# Stress axis : x y z
#
# Youngs Moduli (GPa) = 107.04139 113.15169 50.94030
#
# Poissons Ratio (x) = 0.18941 0.07544
# Poissons Ratio (y) = 0.17918 0.17118
# Poissons Ratio (z) = 0.15853 0.38023
#
# Static dielectric constant tensor:
#      x y z
#    x 1.890270 0.000000 0.000000 
#    y 0.000000 1.874340 0.000000 
#    z 0.000000 0.000000 1.977240 
# 
# From -- ./inp_files/46967.got.cif
#   From: 2010.05.17/outbox.cif.g08.bks.cpg/sg68_24_cif.got.tgz:46967.got - 2010.06.03 18:57:09.
