data_PCOD9506007
_publ_section_title
;
Structure prediction by ZEFSAII (Michael W. Deem and Ramdas Pophale) SiO2 
 PCOD9506007
Probable space group: C C C A
;
_chemical_formula_sum "Si O2"
_cell_formula_units_Z 104
_cell_length_a 25.560799
_cell_length_b 24.144673
_cell_length_c 8.699712
_cell_angle_alpha 90.000000
_cell_angle_beta 90.000000
_cell_angle_gamma 90.000000
_cell_volume 5369.089320
_symmetry_space_group_name_H-M "C C C A"
_symmetry_group_IT_number 68
_space_group.IT_coordinate_system_code '2'
_symmetry_cell_setting 'orthorhombic'
loop_
_space_group_symop_operation_xyz
x,y,z
-x,1/2-y,z
x,1/2-y,1/2-z
-x,y,1/2-z
-x,-y,-z
x,1/2+y,-z
-x,1/2+y,1/2+z
x,-y,1/2+z
1/2+x,1/2+y,z
1/2-x,-y,z
1/2+x,-y,1/2-z
1/2-x,1/2+y,1/2-z
1/2-x,1/2-y,-z
1/2+x,y,-z
1/2-x,y,1/2+z
1/2+x,1/2-y,1/2+z
loop_
_atom_site_type_symbol
_atom_site_label
_atom_site_fract_x
_atom_site_fract_y
_atom_site_fract_z
Si Si1 0.900421 0.868528 0.439583
Si Si2 0.877269 0.664410 0.416842
Si Si3 0.676018 0.718056 0.506488
Si Si4 0.706143 0.929502 0.561837
Si Si5 0.006495 0.185758 0.936506
Si Si6 0.744850 0.750000 0.750000
Si Si7 0.312719 0.048734 0.078823
O O1 0.889332 0.847376 0.264064
O O2 0.866354 0.826232 0.538812
O O3 0.870467 0.926559 0.451417
O O4 0.960271 0.856733 0.480807
O O5 0.852791 0.724311 0.454062
O O6 0.834710 0.619611 0.471317
O O7 0.936177 0.664586 0.483395
O O8 0.708839 0.705969 0.661565
O O9 0.718515 0.723221 0.375319
O O10 0.701077 0.943199 0.742378
O O11 0.766731 0.919789 0.516098
O O12 0.690448 0.984846 0.469233
O O13 0.000000 0.250000 0.988779
O O14 0.000000 0.188451 0.750000
#
# Coordination Sequence:
#
# PCOD9506007 Si02
#       7
#    16  16  16  16  16   8  16
#     4  10  19  32  56  80 108 140 179 224 266 318
#     4  10  19  32  56  80 108 140 179 224 266 318
#     4  11  20  35  47  82 109 144 171 213 275 322
#     4  10  21  36  54  80 107 141 179 220 268 323
#     4   9  16  30  53  82 108 138 180 223 264 309
#     4  10  24  30  48  74 122 138 174 210 266 338
#     4  10  21  36  54  80 107 141 179 220 268 323
#
# _framework density 19.370139000000002
#
# number of rings (size 3 to 8) (size 9 to 14) (size 15 to 20)
#    0.000    2.000    3.077    1.846    4.308    0.000 
#    2.769    0.769    0.000    1.846    0.000    0.000 
#    0.000    0.000    0.000    0.000    0.000    0.000 
#
# Total GULP energy -289878.102991 kJ/mol
# GULP energy per Si atom -5574.578904 kJ/mol
# Density = 1.932605 g / cm^3
# Si number density = 19.370139 Si / 1000 Ang^3
#
#
#
# Elastic Constant Matrix: (Units=GPa)
#
#
# Indices 1 2 3 4 5 6 
#
# 1 131.0331 23.6757 10.7631 0.0000 0.0000 0.0000
# 2 23.6757 54.9379 -0.8037 0.0000 0.0000 0.0000
# 3 10.7631 -0.8037 34.6189 0.0000 0.0000 0.0000
# 4 0.0000 0.0000 0.0000 9.8496 0.0000 0.0000
# 5 0.0000 0.0000 0.0000 0.0000 45.7800 0.0000
# 6 0.0000 0.0000 0.0000 0.0000 0.0000 22.8207
#
#
#
# Elastic Compliance Matrix: (Units=1/GPa)
#
#
# Indices 1 2 3 4 5 6 
#
# 1 0.008528 -0.003715 -0.002738 0.000000 0.000000 0.000000
# 2 -0.003715 0.019827 0.001615 0.000000 0.000000 0.000000
# 3 -0.002738 0.001615 0.029775 0.000000 0.000000 0.000000
# 4 0.000000 0.000000 0.000000 0.101527 0.000000 0.000000
# 5 0.000000 0.000000 0.000000 0.000000 0.021844 0.000000
# 6 0.000000 0.000000 0.000000 0.000000 0.000000 0.043820
#
#
# Mechanical properties :
#
#
# Convention : Reuss Voigt Hill
#
# Bulk Modulus (GPa) = 20.63782 31.98445 26.31113
# Shear Modulus (GPa) = 19.90873 28.15372 24.03123
#
# Velocity S-wave (km/s) = 3.20942 3.81656 3.52608
# Velocity P-wave (km/s) = 4.94079 5.99747 5.49459
#
# Compressibility (1/GPa) = 0.04845473
#
# Stress axis : x y z
#
# Youngs Moduli (GPa) = 117.26364 50.43612 33.58570
#
# Poissons Ratio (x) = 0.18738 0.09194
# Poissons Ratio (y) = 0.43565 -0.05425
# Poissons Ratio (z) = 0.32102 -0.08147
#
# Static dielectric constant tensor:
#      x y z
#    x 1.722770 0.000000 0.000000 
#    y 0.000000 1.687570 0.000000 
#    z 0.000000 0.000000 1.733360 
# 
# From -- ./inp_files/8298.got.cif
#   From: 2010.05.17/outbox.cif.g08.bks.cpg/sg68_5_cif.got.tgz:8298.got - 2010.06.03 18:57:09.
