data_PCOD9506853
_publ_section_title
;
Structure prediction by ZEFSAII (Michael W. Deem and Ramdas Pophale) SiO2 
 PCOD9506853
Probable space group: C C C A
;
_chemical_formula_sum "Si O2"
_cell_formula_units_Z 104
_cell_length_a 29.725599
_cell_length_b 15.843703
_cell_length_c 10.751532
_cell_angle_alpha 90.000000
_cell_angle_beta 90.000000
_cell_angle_gamma 90.000000
_cell_volume 5063.579808
_symmetry_space_group_name_H-M "C C C A"
_symmetry_group_IT_number 68
_space_group.IT_coordinate_system_code '2'
_symmetry_cell_setting 'orthorhombic'
loop_
_space_group_symop_operation_xyz
x,y,z
-x,1/2-y,z
x,1/2-y,1/2-z
-x,y,1/2-z
-x,-y,-z
x,1/2+y,-z
-x,1/2+y,1/2+z
x,-y,1/2+z
1/2+x,1/2+y,z
1/2-x,-y,z
1/2+x,-y,1/2-z
1/2-x,1/2+y,1/2-z
1/2-x,1/2-y,-z
1/2+x,y,-z
1/2-x,y,1/2+z
1/2+x,1/2-y,1/2+z
loop_
_atom_site_type_symbol
_atom_site_label
_atom_site_fract_x
_atom_site_fract_y
_atom_site_fract_z
Si Si1 0.500000 0.604336 0.750000
Si Si2 0.486707 0.661674 0.485859
Si Si3 0.945435 0.963315 0.630641
Si Si4 0.387962 0.902399 0.991100
Si Si5 0.126792 0.148837 0.255179
Si Si6 0.790127 0.809817 0.625457
Si Si7 0.309373 0.697619 0.621258
O O1 0.506834 0.657071 0.625675
O O2 0.459263 0.541007 0.718447
O O3 0.500000 0.750000 0.425990
O O4 0.509563 0.580217 0.422353
O O5 0.433124 0.654636 0.496688
O O6 0.919292 0.890383 0.699449
O O7 0.910035 0.006800 0.536525
O O8 0.352038 0.863911 0.895060
O O9 0.363662 0.892637 0.122637
O O10 0.121859 0.250000 0.250000
O O11 0.168477 0.129314 0.345224
O O12 0.788126 0.750000 0.750000
O O13 0.739925 0.846288 0.618205
O O14 0.804132 0.759055 0.500348
O O15 0.313820 0.750000 0.750000
#
# Coordination Sequence:
#
# PCOD9506853 Si02
#       7
#     8  16  16  16  16  16  16
#     4  10  21  40  55  78 124 166 188 252 331 370
#     4  11  23  38  59  88 119 162 213 260 304 380
#     4  11  23  38  60  88 123 166 207 259 326 379
#     4  11  22  39  59  91 128 162 209 264 323 387
#     4  11  20  39  65  88 119 165 214 264 309 380
#     4   9  18  37  64  92 125 165 214 269 316 364
#     4  10  20  36  63  96 128 165 215 263 320 385
#
# _framework density 20.538829
#
# number of rings (size 3 to 8) (size 9 to 14) (size 15 to 20)
#    0.000    1.538    3.077    4.846    0.000    2.462 
#    2.769    2.308    0.000    1.846    0.000    0.000 
#    0.000    0.000    0.000    0.000    0.000    0.000 
#
# Total GULP energy -289775.071028 kJ/mol
# GULP energy per Si atom -5572.597520 kJ/mol
# Density = 2.049208 g / cm^3
# Si number density = 20.538829 Si / 1000 Ang^3
#
#
#
# Elastic Constant Matrix: (Units=GPa)
#
#
# Indices 1 2 3 4 5 6 
#
# 1 112.2026 32.4391 13.3370 0.0000 0.0000 0.0000
# 2 32.4391 72.2370 6.6400 0.0000 0.0000 0.0000
# 3 13.3370 6.6400 86.3803 0.0000 0.0000 0.0000
# 4 0.0000 0.0000 0.0000 13.9079 0.0000 0.0000
# 5 0.0000 0.0000 0.0000 0.0000 30.6844 0.0000
# 6 0.0000 0.0000 0.0000 0.0000 0.0000 25.6656
#
#
#
# Elastic Compliance Matrix: (Units=1/GPa)
#
#
# Indices 1 2 3 4 5 6 
#
# 1 0.010375 -0.004544 -0.001253 0.000000 0.000000 0.000000
# 2 -0.004544 0.015932 -0.000523 0.000000 0.000000 0.000000
# 3 -0.001253 -0.000523 0.011810 0.000000 0.000000 0.000000
# 4 0.000000 0.000000 0.000000 0.071902 0.000000 0.000000
# 5 0.000000 0.000000 0.000000 0.000000 0.032590 0.000000
# 6 0.000000 0.000000 0.000000 0.000000 0.000000 0.038963
#
#
# Mechanical properties :
#
#
# Convention : Reuss Voigt Hill
#
# Bulk Modulus (GPa) = 39.24952 41.73912 40.49432
# Shear Modulus (GPa) = 24.66655 28.61181 26.63918
#
# Velocity S-wave (km/s) = 3.46926 3.73642 3.60532
# Velocity P-wave (km/s) = 5.93288 6.24345 6.09015
#
# Compressibility (1/GPa) = 0.02547802
#
# Stress axis : x y z
#
# Youngs Moduli (GPa) = 96.38505 62.76699 84.67169
#
# Poissons Ratio (x) = 0.28521 0.10606
# Poissons Ratio (y) = 0.43797 0.04429
# Poissons Ratio (z) = 0.12073 0.03283
#
# Static dielectric constant tensor:
#      x y z
#    x 1.766230 0.000000 0.000000 
#    y 0.000000 1.730570 0.000000 
#    z 0.000000 0.000000 1.827930 
# 
# From -- ./inp_files/17204.got.cif
#   From: 2010.05.17/outbox.cif.g08.bks.cpg/sg68_9_cif.got.tgz:17204.got - 2010.06.03 18:57:09.
