data_PCOD9506969
_publ_section_title
;
Structure prediction by ZEFSAII (Michael W. Deem and Ramdas Pophale) SiO2 
 PCOD9506969
Probable space group: C C C A
;
_chemical_formula_sum "Si O2"
_cell_formula_units_Z 112
_cell_length_a 21.702694
_cell_length_b 14.142363
_cell_length_c 16.868111
_cell_angle_alpha 90.000000
_cell_angle_beta 90.000000
_cell_angle_gamma 90.000000
_cell_volume 5177.285058
_symmetry_space_group_name_H-M "C C C A"
_symmetry_group_IT_number 68
_space_group.IT_coordinate_system_code '2'
_symmetry_cell_setting 'orthorhombic'
loop_
_space_group_symop_operation_xyz
x,y,z
-x,1/2-y,z
x,1/2-y,1/2-z
-x,y,1/2-z
-x,-y,-z
x,1/2+y,-z
-x,1/2+y,1/2+z
x,-y,1/2+z
1/2+x,1/2+y,z
1/2-x,-y,z
1/2+x,-y,1/2-z
1/2-x,1/2+y,1/2-z
1/2-x,1/2-y,-z
1/2+x,y,-z
1/2-x,y,1/2+z
1/2+x,1/2-y,1/2+z
loop_
_atom_site_type_symbol
_atom_site_label
_atom_site_fract_x
_atom_site_fract_y
_atom_site_fract_z
Si Si1 0.472795 0.371132 0.378431
Si Si2 0.430313 0.857275 0.278784
Si Si3 0.911088 0.883031 0.538635
Si Si4 0.680069 0.215323 0.002024
Si Si5 0.370415 0.033780 0.207972
Si Si6 0.681226 0.986013 0.452792
Si Si7 0.895692 0.822585 0.157496
O O1 0.463761 0.370089 0.472487
O O2 0.435027 0.453430 0.337906
O O3 0.435204 0.278112 0.343659
O O4 0.543955 0.384938 0.359946
O O5 0.415114 0.750000 0.250000
O O6 0.500000 0.875307 0.250000
O O7 0.433068 0.872984 0.372954
O O8 0.378945 0.932934 0.249596
O O9 0.863216 0.798847 0.525146
O O10 0.870848 0.973259 0.511284
O O11 0.654852 0.187804 0.089316
O O12 0.750000 0.250000 0.000000
O O13 0.671581 0.125201 0.946279
O O14 0.364360 0.122210 0.268705
O O15 0.323649 0.034510 0.133726
O O16 0.750000 0.000000 0.485745
#
# Coordination Sequence:
#
# PCOD9506969 Si02
#       7
#    16  16  16  16  16  16  16
#     4   9  20  37  66  97 127 161 210 264 320 397
#     4  11  24  40  60  91 132 169 204 257 327 394
#     4  10  22  42  67  92 123 170 216 261 323 385
#     4  11  22  41  67  89 124 169 226 267 312 378
#     4  11  22  39  61  91 133 162 206 265 336 384
#     4  11  23  42  63  90 123 168 219 270 311 377
#     4  10  20  37  63  99 126 163 206 267 330 386
#
# _framework density 21.632961000000002
#
# number of rings (size 3 to 8) (size 9 to 14) (size 15 to 20)
#    0.000    1.571    1.429    3.429    0.000    6.857 
#    2.571    3.571    0.000    0.000    0.000    0.000 
#    0.000    0.000    0.000    0.000    0.000    0.000 
#
# Total GULP energy -312333.294049 kJ/mol
# GULP energy per Si atom -5577.380251 kJ/mol
# Density = 2.158372 g / cm^3
# Si number density = 21.632961 Si / 1000 Ang^3
#
#
#
# Elastic Constant Matrix: (Units=GPa)
#
#
# Indices 1 2 3 4 5 6 
#
# 1 52.3429 -5.8473 23.4682 0.0000 0.0000 0.0000
# 2 -5.8473 71.3263 32.4300 0.0000 0.0000 0.0000
# 3 23.4682 32.4300 139.2144 0.0000 0.0000 0.0000
# 4 0.0000 0.0000 0.0000 26.3015 0.0000 0.0000
# 5 0.0000 0.0000 0.0000 0.0000 13.3283 0.0000
# 6 0.0000 0.0000 0.0000 0.0000 0.0000 19.4013
#
#
#
# Elastic Compliance Matrix: (Units=1/GPa)
#
#
# Indices 1 2 3 4 5 6 
#
# 1 0.021561 0.003825 -0.004526 0.000000 0.000000 0.000000
# 2 0.003825 0.016360 -0.004456 0.000000 0.000000 0.000000
# 3 -0.004526 -0.004456 0.008984 0.000000 0.000000 0.000000
# 4 0.000000 0.000000 0.000000 0.038021 0.000000 0.000000
# 5 0.000000 0.000000 0.000000 0.000000 0.075028 0.000000
# 6 0.000000 0.000000 0.000000 0.000000 0.000000 0.051543
#
#
# Mechanical properties :
#
#
# Convention : Reuss Voigt Hill
#
# Bulk Modulus (GPa) = 27.32813 40.33171 33.82992
# Shear Modulus (GPa) = 21.36687 25.99507 23.68097
#
# Velocity S-wave (km/s) = 3.14618 3.47023 3.31217
# Velocity P-wave (km/s) = 5.08507 5.89413 5.50449
#
# Compressibility (1/GPa) = 0.03659233
#
# Stress axis : x y z
#
# Youngs Moduli (GPa) = 46.37942 61.12623 111.30781
#
# Poissons Ratio (x) = -0.23383 0.50376
# Poissons Ratio (y) = -0.17742 0.49597
# Poissons Ratio (z) = 0.20991 0.27237
#
# Static dielectric constant tensor:
#      x y z
#    x 1.763790 0.000000 0.000000 
#    y 0.000000 1.902600 0.000000 
#    z 0.000000 0.000000 1.835410 
# 
# From -- ./inp_files/25451.got.cif
#   From: 2010.05.17/outbox.cif.g08.bks.cpg/sg68_13_cif.got.tgz:25451.got - 2010.06.03 18:57:09.
