data_PCOD9506986
_publ_section_title
;
Structure prediction by ZEFSAII (Michael W. Deem and Ramdas Pophale) SiO2 
 PCOD9506986
Probable space group: C C C A
;
_chemical_formula_sum "Si O2"
_cell_formula_units_Z 64
_cell_length_a 14.442445
_cell_length_b 23.022802
_cell_length_c 8.185623
_cell_angle_alpha 90.000000
_cell_angle_beta 90.000000
_cell_angle_gamma 90.000000
_cell_volume 2721.765091
_symmetry_space_group_name_H-M "C C C A"
_symmetry_group_IT_number 68
_space_group.IT_coordinate_system_code '2'
_symmetry_cell_setting 'orthorhombic'
loop_
_space_group_symop_operation_xyz
x,y,z
-x,1/2-y,z
x,1/2-y,1/2-z
-x,y,1/2-z
-x,-y,-z
x,1/2+y,-z
-x,1/2+y,1/2+z
x,-y,1/2+z
1/2+x,1/2+y,z
1/2-x,-y,z
1/2+x,-y,1/2-z
1/2-x,1/2+y,1/2-z
1/2-x,1/2-y,-z
1/2+x,y,-z
1/2-x,y,1/2+z
1/2+x,1/2-y,1/2+z
loop_
_atom_site_type_symbol
_atom_site_label
_atom_site_fract_x
_atom_site_fract_y
_atom_site_fract_z
Si Si1 0.703842 0.750000 0.250000
Si Si2 0.625453 0.442419 0.618602
Si Si3 0.343422 0.675092 0.534091
Si Si4 0.500000 0.855382 0.750000
Si Si5 0.407612 0.064627 0.989787
O O1 0.646494 0.790486 0.367187
O O2 0.766017 0.706741 0.359230
O O3 0.673755 0.392304 0.511945
O O4 0.637251 0.427570 0.810140
O O5 0.516127 0.441000 0.566355
O O6 0.642848 0.509122 0.570940
O O7 0.438983 0.680225 0.627321
O O8 0.424651 0.891225 0.640742
#
# Coordination Sequence:
#
# PCOD9506986 Si02
#       5
#     8  16  16   8  16
#     4  10  24  45  62  83 126 174 210 254 314 366
#     4   9  16  30  55  88 122 156 191 243 312 370
#     4  10  22  41  65  87 120 167 214 262 310 359
#     4  10  20  37  66  98 124 159 210 260 308 372
#     4   9  16  28  54  94 127 146 187 253 313 364
#
# _framework density 23.514153
#
# number of rings (size 3 to 8) (size 9 to 14) (size 15 to 20)
#    0.000    2.500    0.000    4.500    0.000    4.500 
#    0.000    7.500    0.000   18.000    0.000    0.000 
#    0.000    0.000    0.000    0.000    0.000    0.000 
#
# Total GULP energy -178498.576979 kJ/mol
# GULP energy per Si atom -5578.080531 kJ/mol
# Density = 2.346063 g / cm^3
# Si number density = 23.514153 Si / 1000 Ang^3
#
#
#
# Elastic Constant Matrix: (Units=GPa)
#
#
# Indices 1 2 3 4 5 6 
#
# 1 36.7360 38.2060 38.7872 0.0000 0.0000 0.0000
# 2 38.2060 90.3375 52.9988 0.0000 0.0000 0.0000
# 3 38.7872 52.9988 161.3347 0.0000 0.0000 0.0000
# 4 0.0000 0.0000 0.0000 1.8609 0.0000 0.0000
# 5 0.0000 0.0000 0.0000 0.0000 16.0514 0.0000
# 6 0.0000 0.0000 0.0000 0.0000 0.0000 25.9635
#
#
#
# Elastic Compliance Matrix: (Units=1/GPa)
#
#
# Indices 1 2 3 4 5 6 
#
# 1 0.053997 -0.018854 -0.006788 0.000000 0.000000 0.000000
# 2 -0.018854 0.020296 -0.002134 0.000000 0.000000 0.000000
# 3 -0.006788 -0.002134 0.008531 0.000000 0.000000 0.000000
# 4 0.000000 0.000000 0.000000 0.537383 0.000000 0.000000
# 5 0.000000 0.000000 0.000000 0.000000 0.062300 0.000000
# 6 0.000000 0.000000 0.000000 0.000000 0.000000 0.038516
#
#
# Mechanical properties :
#
#
# Convention : Reuss Voigt Hill
#
# Bulk Modulus (GPa) = 36.66919 60.93247 48.80083
# Shear Modulus (GPa) = 6.36402 19.33623 12.85013
#
# Velocity S-wave (km/s) = 1.64692 2.87073 2.34024
# Velocity P-wave (km/s) = 4.38689 6.07927 5.30105
#
# Compressibility (1/GPa) = 0.02727085
#
# Stress axis : x y z
#
# Youngs Moduli (GPa) = 18.51947 49.27132 117.21468
#
# Poissons Ratio (x) = 0.92898 0.79565
# Poissons Ratio (y) = 0.34917 0.25018
# Poissons Ratio (z) = 0.12571 0.10516
#
# Static dielectric constant tensor:
#      x y z
#    x 1.899240 0.000000 0.000000 
#    y 0.000000 1.926780 0.000000 
#    z 0.000000 0.000000 2.378060 
# 
# From -- ./inp_files/5021.got.cif
#   From: 2010.05.17/outbox.cif.g08.bks.cpg/sg68_3_cif.got.tgz:5021.got - 2010.06.03 18:57:09.
