data_PCOD9506312
_publ_section_title
;
Structure prediction by ZEFSAII (Michael W. Deem and Ramdas Pophale) SiO2 
 PCOD9506312
Probable space group: C C C A
;
_chemical_formula_sum "Si O2"
_cell_formula_units_Z 116
_cell_length_a 9.726535
_cell_length_b 22.306192
_cell_length_c 28.362252
_cell_angle_alpha 90.000000
_cell_angle_beta 90.000000
_cell_angle_gamma 90.000000
_cell_volume 6153.529705
_symmetry_space_group_name_H-M "C C C A"
_symmetry_group_IT_number 68
_space_group.IT_coordinate_system_code '2'
_symmetry_cell_setting 'orthorhombic'
loop_
_space_group_symop_operation_xyz
x,y,z
-x,1/2-y,z
x,1/2-y,1/2-z
-x,y,1/2-z
-x,-y,-z
x,1/2+y,-z
-x,1/2+y,1/2+z
x,-y,1/2+z
1/2+x,1/2+y,z
1/2-x,-y,z
1/2+x,-y,1/2-z
1/2-x,1/2+y,1/2-z
1/2-x,1/2-y,-z
1/2+x,y,-z
1/2-x,y,1/2+z
1/2+x,1/2-y,1/2+z
loop_
_atom_site_type_symbol
_atom_site_label
_atom_site_fract_x
_atom_site_fract_y
_atom_site_fract_z
Si Si1 0.763297 0.600459 0.137750
Si Si2 0.885835 0.039666 0.060671
Si Si3 0.500000 0.250000 0.750000
Si Si4 0.941457 0.417155 0.341601
Si Si5 0.739328 0.292567 0.196003
Si Si6 0.203959 0.344323 0.705091
Si Si7 0.989760 0.046943 0.693826
Si Si8 0.633542 0.048450 0.456963
O O1 0.606204 0.590517 0.154357
O O2 0.785975 0.669479 0.150208
O O3 0.865084 0.558341 0.168130
O O4 0.801894 0.589124 0.083593
O O5 0.891164 0.084729 0.104329
O O6 0.750000 0.000000 0.064616
O O7 0.901123 0.071357 0.009457
O O8 0.007212 0.990226 0.063160
O O9 0.604852 0.215305 0.784405
O O10 0.854027 0.371497 0.309026
O O11 0.921822 0.485513 0.324221
O O12 0.679072 0.333249 0.238897
O O13 0.311374 0.275321 0.189186
O O14 0.101221 0.393756 0.684947
O O15 0.000000 0.040635 0.750000
O O16 0.750000 0.000000 0.466698
#
# Coordination Sequence:
#
# PCOD9506312 Si02
#       8
#    16  16   4  16  16  16  16  16
#     4  12  22  38  58  87 121 156 194 244 290 352
#     4  10  20  35  59  84 120 157 193 241 294 366
#     4   8  16  36  56  82 104 148 208 238 276 326
#     4  12  24  37  60  89 122 154 193 244 301 353
#     4  10  21  39  59  80 114 163 205 242 273 342
#     4  10  23  41  58  82 116 160 208 237 281 348
#     4  12  24  37  55  88 124 157 188 244 304 348
#     4  10  19  37  57  86 120 154 195 240 304 354
#
# _framework density 18.850968999999999
#
# number of rings (size 3 to 8) (size 9 to 14) (size 15 to 20)
#    0.000    1.379    4.138    3.310    1.931    1.655 
#    0.000    0.000    0.000    0.828    0.000    1.931 
#    0.000    0.000    0.000    0.000    0.000    0.000 
#
# Total GULP energy -323270.330197 kJ/mol
# GULP energy per Si atom -5573.626383 kJ/mol
# Density = 1.880806 g / cm^3
# Si number density = 18.850969 Si / 1000 Ang^3
#
#
#
# Elastic Constant Matrix: (Units=GPa)
#
#
# Indices 1 2 3 4 5 6 
#
# 1 80.7762 12.5414 6.2801 0.0000 0.0000 0.0000
# 2 12.5414 108.2130 50.3168 0.0000 0.0000 0.0000
# 3 6.2801 50.3168 103.3684 0.0000 0.0000 0.0000
# 4 0.0000 0.0000 0.0000 12.0275 0.0000 0.0000
# 5 0.0000 0.0000 0.0000 0.0000 22.8231 0.0000
# 6 0.0000 0.0000 0.0000 0.0000 0.0000 21.8225
#
#
#
# Elastic Compliance Matrix: (Units=1/GPa)
#
#
# Indices 1 2 3 4 5 6 
#
# 1 0.012607 -0.001428 -0.000071 0.000000 0.000000 0.000000
# 2 -0.001428 0.012106 -0.005806 0.000000 0.000000 0.000000
# 3 -0.000071 -0.005806 0.012505 0.000000 0.000000 0.000000
# 4 0.000000 0.000000 0.000000 0.083143 0.000000 0.000000
# 5 0.000000 0.000000 0.000000 0.000000 0.043815 0.000000
# 6 0.000000 0.000000 0.000000 0.000000 0.000000 0.045824
#
#
# Mechanical properties :
#
#
# Convention : Reuss Voigt Hill
#
# Bulk Modulus (GPa) = 44.23246 47.84823 46.04035
# Shear Modulus (GPa) = 21.53806 26.21589 23.87697
#
# Velocity S-wave (km/s) = 3.38382 3.73324 3.56282
# Velocity P-wave (km/s) = 6.22754 6.63478 6.43438
#
# Compressibility (1/GPa) = 0.02260783
#
# Stress axis : x y z
#
# Youngs Moduli (GPa) = 79.32022 82.60131 79.96960
#
# Poissons Ratio (x) = 0.11797 0.00565
# Poissons Ratio (y) = 0.11329 0.46432
# Poissons Ratio (z) = 0.00561 0.47960
#
# Static dielectric constant tensor:
#      x y z
#    x 1.704910 0.000000 0.000000 
#    y 0.000000 1.648950 0.000000 
#    z 0.000000 0.000000 1.726920 
# 
# From -- ./inp_files/54239.got.cif
#   From: 2010.05.17/outbox.cif.g08.bks.cpg/sg68_28_cif.got.tgz:54239.got - 2010.06.03 18:57:09.
