data_PCOD9506629
_publ_section_title
;
Structure prediction by ZEFSAII (Michael W. Deem and Ramdas Pophale) SiO2 
 PCOD9506629
Probable space group: C C C A
;
_chemical_formula_sum "Si O2"
_cell_formula_units_Z 68
_cell_length_a 25.740198
_cell_length_b 5.061800
_cell_length_c 22.319561
_cell_angle_alpha 90.000000
_cell_angle_beta 90.000000
_cell_angle_gamma 90.000000
_cell_volume 2908.054310
_symmetry_space_group_name_H-M "C C C A"
_symmetry_group_IT_number 68
_space_group.IT_coordinate_system_code '2'
_symmetry_cell_setting 'orthorhombic'
loop_
_space_group_symop_operation_xyz
x,y,z
-x,1/2-y,z
x,1/2-y,1/2-z
-x,y,1/2-z
-x,-y,-z
x,1/2+y,-z
-x,1/2+y,1/2+z
x,-y,1/2+z
1/2+x,1/2+y,z
1/2-x,-y,z
1/2+x,-y,1/2-z
1/2-x,1/2+y,1/2-z
1/2-x,1/2-y,-z
1/2+x,y,-z
1/2-x,y,1/2+z
1/2+x,1/2-y,1/2+z
loop_
_atom_site_type_symbol
_atom_site_label
_atom_site_fract_x
_atom_site_fract_y
_atom_site_fract_z
Si Si1 0.750000 0.000000 0.044141
Si Si2 0.750000 0.500000 0.207092
Si Si3 0.500000 0.750000 0.750000
Si Si4 0.135133 0.945080 0.457759
Si Si5 0.082392 0.057711 0.841990
Si Si6 0.858822 0.074113 0.310992
O O1 0.807135 0.960522 0.074492
O O2 0.750000 0.750000 0.000000
O O3 0.762726 0.750000 0.250000
O O4 0.799788 0.433996 0.168004
O O5 0.533982 0.578100 0.796804
O O6 0.132751 0.723052 0.508651
O O7 0.088736 0.874558 0.411823
O O8 0.120547 0.277368 0.812502
O O9 0.101172 0.755964 0.845526
O O10 0.855722 0.250000 0.250000
#
# Coordination Sequence:
#
# PCOD9506629 Si02
#       6
#     8   8   4  16  16  16
#     4   8  16  32  60  90 130 168 212 260 320 410
#     4  10  20  34  60  92 140 182 212 270 340 430
#     4  12  28  50  68 102 128 186 252 304 360 404
#     4  10  21  41  64  99 134 174 223 278 346 417
#     4  12  25  42  70  93 136 180 234 296 344 412
#     4  11  21  40  60  97 131 176 221 271 339 425
#
# _framework density 23.383330999999998
#
# number of rings (size 3 to 8) (size 9 to 14) (size 15 to 20)
#    0.000    1.412    2.353    4.235    0.000    3.765 
#    0.000    3.529    0.000    0.000    0.000    0.000 
#    0.000    0.000    0.000    0.000    0.000    0.000 
#
# Total GULP energy -189324.809597 kJ/mol
# GULP energy per Si atom -5568.376753 kJ/mol
# Density = 2.333011 g / cm^3
# Si number density = 23.383331 Si / 1000 Ang^3
#
#
#
# Elastic Constant Matrix: (Units=GPa)
#
#
# Indices 1 2 3 4 5 6 
#
# 1 103.3903 24.7549 40.6433 0.0000 0.0000 0.0000
# 2 24.7549 114.1395 2.3916 0.0000 0.0000 0.0000
# 3 40.6433 2.3916 81.8343 0.0000 0.0000 0.0000
# 4 0.0000 0.0000 0.0000 34.9881 0.0000 0.0000
# 5 0.0000 0.0000 0.0000 0.0000 36.0611 0.0000
# 6 0.0000 0.0000 0.0000 0.0000 0.0000 16.6090
#
#
#
# Elastic Compliance Matrix: (Units=1/GPa)
#
#
# Indices 1 2 3 4 5 6 
#
# 1 0.012766 -0.002637 -0.006263 0.000000 0.000000 0.000000
# 2 -0.002637 0.009311 0.001038 0.000000 0.000000 0.000000
# 3 -0.006263 0.001038 0.015300 0.000000 0.000000 0.000000
# 4 0.000000 0.000000 0.000000 0.028581 0.000000 0.000000
# 5 0.000000 0.000000 0.000000 0.000000 0.027731 0.000000
# 6 0.000000 0.000000 0.000000 0.000000 0.000000 0.060208
#
#
# Mechanical properties :
#
#
# Convention : Reuss Voigt Hill
#
# Bulk Modulus (GPa) = 46.18555 48.32706 47.25630
# Shear Modulus (GPa) = 28.27415 32.96992 30.62203
#
# Velocity S-wave (km/s) = 3.48107 3.75904 3.62272
# Velocity P-wave (km/s) = 5.99595 6.28909 6.14427
#
# Compressibility (1/GPa) = 0.02165179
#
# Stress axis : x y z
#
# Youngs Moduli (GPa) = 78.33571 107.39444 65.35938
#
# Poissons Ratio (x) = 0.28324 0.40934
# Poissons Ratio (y) = 0.20660 -0.06783
# Poissons Ratio (z) = 0.49062 -0.11145
#
# Static dielectric constant tensor:
#      x y z
#    x 2.010410 0.000000 0.000000 
#    y 0.000000 1.804790 0.000000 
#    z 0.000000 0.000000 2.062120 
# 
# From -- ./inp_files/41104.got.cif
#   From: 2010.05.17/outbox.cif.g08.bks.cpg/sg68_21_cif.got.tgz:41104.got - 2010.06.03 18:57:09.
