data_PCOD9506505
_publ_section_title
;
Structure prediction by ZEFSAII (Michael W. Deem and Ramdas Pophale) SiO2 
 PCOD9506505
Probable space group: C C C A
;
_chemical_formula_sum "Si O2"
_cell_formula_units_Z 100
_cell_length_a 13.984637
_cell_length_b 22.175107
_cell_length_c 13.967214
_cell_angle_alpha 90.000000
_cell_angle_beta 90.000000
_cell_angle_gamma 90.000000
_cell_volume 4331.384212
_symmetry_space_group_name_H-M "C C C A"
_symmetry_group_IT_number 68
_space_group.IT_coordinate_system_code '2'
_symmetry_cell_setting 'orthorhombic'
loop_
_space_group_symop_operation_xyz
x,y,z
-x,1/2-y,z
x,1/2-y,1/2-z
-x,y,1/2-z
-x,-y,-z
x,1/2+y,-z
-x,1/2+y,1/2+z
x,-y,1/2+z
1/2+x,1/2+y,z
1/2-x,-y,z
1/2+x,-y,1/2-z
1/2-x,1/2+y,1/2-z
1/2-x,1/2-y,-z
1/2+x,y,-z
1/2-x,y,1/2+z
1/2+x,1/2-y,1/2+z
loop_
_atom_site_type_symbol
_atom_site_label
_atom_site_fract_x
_atom_site_fract_y
_atom_site_fract_z
Si Si1 0.000000 0.250000 0.750000
Si Si2 0.500000 0.553649 0.750000
Si Si3 0.418329 0.150388 0.106300
Si Si4 0.932341 0.885449 0.947277
Si Si5 0.500000 0.121273 0.750000
Si Si6 0.827821 0.949143 0.112906
Si Si7 0.273001 0.296910 0.891186
Si Si8 0.297014 0.332580 0.674354
O O1 0.054920 0.293266 0.824628
O O2 0.439053 0.594318 0.824678
O O3 0.586593 0.528964 0.816225
O O4 0.313977 0.164508 0.067915
O O5 0.482176 0.137425 0.013823
O O6 0.870119 0.825746 0.928191
O O7 0.955354 0.911675 0.842030
O O8 0.875222 0.932413 0.011914
O O9 0.589248 0.155609 0.696757
O O10 0.769057 0.889486 0.146991
O O11 0.750000 0.000000 0.103452
O O12 0.263821 0.312993 0.779372
O O13 0.275477 0.224747 0.893711
#
# Coordination Sequence:
#
# PCOD9506505 Si02
#       8
#     4   8  16  16   8  16  16  16
#     4  10  20  32  56 104 140 184 224 290 360 428
#     4   9  20  42  70 105 147 185 235 305 368 434
#     4  10  20  36  65 104 146 184 238 296 366 442
#     4  10  25  42  67 104 141 196 239 306 368 447
#     4  10  24  48  64 100 151 193 245 299 380 440
#     4  11  24  46  72 108 146 188 256 304 370 445
#     4  10  21  40  67 103 147 188 242 294 373 447
#     4  10  22  41  70 103 144 199 239 299 370 447
#
# _framework density 23.087309000000001
#
# number of rings (size 3 to 8) (size 9 to 14) (size 15 to 20)
#    0.000    1.920    1.600    0.960    6.720    7.680 
#    0.000    4.000    0.000    0.000    0.000    1.120 
#    0.000    0.000    0.000    0.000    0.000    0.000 
#
# Total GULP energy -279035.051794 kJ/mol
# GULP energy per Si atom -5580.701036 kJ/mol
# Density = 2.303476 g / cm^3
# Si number density = 23.087309 Si / 1000 Ang^3
#
#
#
# Elastic Constant Matrix: (Units=GPa)
#
#
# Indices 1 2 3 4 5 6 
#
# 1 133.7365 42.6994 54.1173 0.0000 0.0000 0.0000
# 2 42.6994 66.7852 36.9516 0.0000 0.0000 0.0000
# 3 54.1173 36.9516 150.1173 0.0000 0.0000 0.0000
# 4 0.0000 0.0000 0.0000 2.1895 0.0000 0.0000
# 5 0.0000 0.0000 0.0000 0.0000 30.3570 0.0000
# 6 0.0000 0.0000 0.0000 0.0000 0.0000 36.3941
#
#
#
# Elastic Compliance Matrix: (Units=1/GPa)
#
#
# Indices 1 2 3 4 5 6 
#
# 1 0.010074 -0.005130 -0.002369 0.000000 0.000000 0.000000
# 2 -0.005130 0.019947 -0.003060 0.000000 0.000000 0.000000
# 3 -0.002369 -0.003060 0.008269 0.000000 0.000000 0.000000
# 4 0.000000 0.000000 0.000000 0.456731 0.000000 0.000000
# 5 0.000000 0.000000 0.000000 0.000000 0.032941 0.000000
# 6 0.000000 0.000000 0.000000 0.000000 0.000000 0.027477
#
#
# Mechanical properties :
#
#
# Convention : Reuss Voigt Hill
#
# Bulk Modulus (GPa) = 58.23971 68.68617 63.46294
# Shear Modulus (GPa) = 8.58692 28.24616 18.41654
#
# Velocity S-wave (km/s) = 1.93065 3.50158 2.82741
# Velocity P-wave (km/s) = 5.50004 6.79436 6.18117
#
# Compressibility (1/GPa) = 0.01717042
#
# Stress axis : x y z
#
# Youngs Moduli (GPa) = 99.26632 50.13359 120.93692
#
# Poissons Ratio (x) = 0.25719 0.28648
# Poissons Ratio (y) = 0.50925 0.37013
# Poissons Ratio (z) = 0.23515 0.15343
#
# Static dielectric constant tensor:
#      x y z
#    x 1.951160 0.000000 0.000000 
#    y 0.000000 1.902180 0.000000 
#    z 0.000000 0.000000 1.863340 
# 
# From -- ./inp_files/22574.got.cif
#   From: 2010.05.17/outbox.cif.g08.bks.cpg/sg68_12_cif.got.tgz:22574.got - 2010.06.03 18:57:09.
