data_PCOD9506936
_publ_section_title
;
Structure prediction by ZEFSAII (Michael W. Deem and Ramdas Pophale) SiO2 
 PCOD9506936
Probable space group: C C C A
;
_chemical_formula_sum "Si O2"
_cell_formula_units_Z 112
_cell_length_a 28.521169
_cell_length_b 13.616102
_cell_length_c 13.564728
_cell_angle_alpha 90.000000
_cell_angle_beta 90.000000
_cell_angle_gamma 90.000000
_cell_volume 5267.823409
_symmetry_space_group_name_H-M "C C C A"
_symmetry_group_IT_number 68
_space_group.IT_coordinate_system_code '2'
_symmetry_cell_setting 'orthorhombic'
loop_
_space_group_symop_operation_xyz
x,y,z
-x,1/2-y,z
x,1/2-y,1/2-z
-x,y,1/2-z
-x,-y,-z
x,1/2+y,-z
-x,1/2+y,1/2+z
x,-y,1/2+z
1/2+x,1/2+y,z
1/2-x,-y,z
1/2+x,-y,1/2-z
1/2-x,1/2+y,1/2-z
1/2-x,1/2-y,-z
1/2+x,y,-z
1/2-x,y,1/2+z
1/2+x,1/2-y,1/2+z
loop_
_atom_site_type_symbol
_atom_site_label
_atom_site_fract_x
_atom_site_fract_y
_atom_site_fract_z
Si Si1 0.562363 0.902667 0.514274
Si Si2 0.135900 0.331175 0.872198
Si Si3 0.588050 0.764256 0.138983
Si Si4 0.312747 0.210355 0.932546
Si Si5 0.225115 0.405317 0.530987
Si Si6 0.042221 0.122126 0.529738
Si Si7 0.643366 0.897840 0.667043
O O1 0.584627 0.830754 0.432720
O O2 0.512296 0.859317 0.547484
O O3 0.596288 0.920755 0.606824
O O4 0.551342 0.006262 0.464205
O O5 0.080931 0.329654 0.899944
O O6 0.143056 0.408577 0.784550
O O7 0.148793 0.219870 0.844902
O O8 0.166478 0.345003 0.970120
O O9 0.571594 0.750000 0.250000
O O10 0.642986 0.793337 0.139431
O O11 0.556547 0.842567 0.079979
O O12 0.264592 0.155878 0.909062
O O13 0.298731 0.323251 0.960324
O O14 0.250000 0.500000 0.483553
O O15 0.186137 0.443574 0.607344
#
# Coordination Sequence:
#
# PCOD9506936 Si02
#       7
#    16  16  16  16  16  16  16
#     4  11  22  40  61  91 126 160 207 254 312 372
#     4   9  19  38  61  84 118 158 197 249 307 354
#     4  11  23  42  66  93 126 167 211 260 310 371
#     4   9  20  40  59  88 121 163 201 253 306 370
#     4  10  20  37  61  86 120 160 200 250 305 365
#     4  10  23  39  63  89 124 167 200 254 314 374
#     4  10  20  37  61  88 118 156 200 256 296 366
#
# _framework density 21.261151999999999
#
# number of rings (size 3 to 8) (size 9 to 14) (size 15 to 20)
#    0.000    2.000    4.286    0.429    4.000    2.857 
#    7.714    5.000    0.000    0.000    0.000    0.000 
#    0.000    0.000    0.000    0.000    0.000    0.000 
#
# Total GULP energy -312266.779514 kJ/mol
# GULP energy per Si atom -5576.192491 kJ/mol
# Density = 2.121276 g / cm^3
# Si number density = 21.261152 Si / 1000 Ang^3
#
#
#
# Elastic Constant Matrix: (Units=GPa)
#
#
# Indices 1 2 3 4 5 6 
#
# 1 125.3426 7.1734 13.3718 0.0000 0.0000 0.0000
# 2 7.1734 44.0382 1.3203 0.0000 0.0000 0.0000
# 3 13.3718 1.3203 58.5014 0.0000 0.0000 0.0000
# 4 0.0000 0.0000 0.0000 10.9687 0.0000 0.0000
# 5 0.0000 0.0000 0.0000 0.0000 0.8210 0.0000
# 6 0.0000 0.0000 0.0000 0.0000 0.0000 19.4988
#
#
#
# Elastic Compliance Matrix: (Units=1/GPa)
#
#
# Indices 1 2 3 4 5 6 
#
# 1 0.008250 -0.001288 -0.001857 0.000000 0.000000 0.000000
# 2 -0.001288 0.022924 -0.000223 0.000000 0.000000 0.000000
# 3 -0.001857 -0.000223 0.017523 0.000000 0.000000 0.000000
# 4 0.000000 0.000000 0.000000 0.091168 0.000000 0.000000
# 5 0.000000 0.000000 0.000000 0.000000 1.218056 0.000000
# 6 0.000000 0.000000 0.000000 0.000000 0.000000 0.051285
#
#
# Mechanical properties :
#
#
# Convention : Reuss Voigt Hill
#
# Bulk Modulus (GPa) = 23.83135 30.17925 27.00530
# Shear Modulus (GPa) = 3.49668 19.99215 11.74441
#
# Velocity S-wave (km/s) = 1.28382 3.06978 2.35284
# Velocity P-wave (km/s) = 3.66481 5.17592 4.48447
#
# Compressibility (1/GPa) = 0.04196153
#
# Stress axis : x y z
#
# Youngs Moduli (GPa) = 121.21316 43.62224 57.06782
#
# Poissons Ratio (x) = 0.05619 0.10595
# Poissons Ratio (y) = 0.15614 0.01272
# Poissons Ratio (z) = 0.22505 0.00973
#
# Static dielectric constant tensor:
#      x y z
#    x 1.794920 0.000000 0.000000 
#    y 0.000000 1.840220 0.000000 
#    z 0.000000 0.000000 1.808950 
# 
# From -- ./inp_files/26060.got.cif
#   From: 2010.05.17/outbox.cif.g08.bks.cpg/sg68_14_cif.got.tgz:26060.got - 2010.06.03 18:57:09.
