data_PCOD9506157
_publ_section_title
;
Structure prediction by ZEFSAII (Michael W. Deem and Ramdas Pophale) SiO2 
 PCOD9506157
Probable space group: C C C A
;
_chemical_formula_sum "Si O2"
_cell_formula_units_Z 76
_cell_length_a 8.552807
_cell_length_b 24.234965
_cell_length_c 17.221644
_cell_angle_alpha 90.000000
_cell_angle_beta 90.000000
_cell_angle_gamma 90.000000
_cell_volume 3569.650330
_symmetry_space_group_name_H-M "C C C A"
_symmetry_group_IT_number 68
_space_group.IT_coordinate_system_code '2'
_symmetry_cell_setting 'orthorhombic'
loop_
_space_group_symop_operation_xyz
x,y,z
-x,1/2-y,z
x,1/2-y,1/2-z
-x,y,1/2-z
-x,-y,-z
x,1/2+y,-z
-x,1/2+y,1/2+z
x,-y,1/2+z
1/2+x,1/2+y,z
1/2-x,-y,z
1/2+x,-y,1/2-z
1/2-x,1/2+y,1/2-z
1/2-x,1/2-y,-z
1/2+x,y,-z
1/2-x,y,1/2+z
1/2+x,1/2-y,1/2+z
loop_
_atom_site_type_symbol
_atom_site_label
_atom_site_fract_x
_atom_site_fract_y
_atom_site_fract_z
Si Si1 0.828833 0.315294 0.885930
Si Si2 0.250000 0.000000 0.931674
Si Si3 0.500000 0.250000 0.250000
Si Si4 0.984311 0.066880 0.658802
Si Si5 0.240736 0.404629 0.441550
Si Si6 0.969501 0.828398 0.529325
O O1 0.892396 0.284185 0.810158
O O2 0.644751 0.305055 0.903873
O O3 0.881183 0.379366 0.869031
O O4 0.913880 0.299021 0.967847
O O5 0.101001 0.013743 0.878231
O O6 0.254202 0.051163 0.990164
O O7 0.162042 0.071553 0.629113
O O8 0.000000 0.065376 0.750000
O O9 0.345615 0.353843 0.469712
O O10 0.070167 0.378741 0.433588
#
# Coordination Sequence:
#
# PCOD9506157 Si02
#       6
#    16   8   4  16  16  16
#     4  10  21  40  67  94 125 177 222 285 340 406
#     4  12  20  36  62  94 122 180 234 252 320 410
#     4  12  24  40  72  94 136 186 218 284 376 398
#     4  11  23  39  57  92 140 172 218 278 343 391
#     4  10  19  34  64  87 121 170 219 271 314 399
#     4   9  18  39  64  91 123 169 223 273 329 396
#
# _framework density 21.290603000000001
#
# number of rings (size 3 to 8) (size 9 to 14) (size 15 to 20)
#    0.000    1.684    7.368    0.632    0.000    1.684 
#    0.000    1.053    0.000   11.368    0.000    0.000 
#    0.000    0.000    0.000    0.000    0.000    0.000 
#
# Total GULP energy -211541.653704 kJ/mol
# GULP energy per Si atom -5566.885624 kJ/mol
# Density = 2.124214 g / cm^3
# Si number density = 21.290603 Si / 1000 Ang^3
#
#
#
# Elastic Constant Matrix: (Units=GPa)
#
#
# Indices 1 2 3 4 5 6 
#
# 1 145.7551 38.8144 76.1255 0.0000 0.0000 0.0000
# 2 38.8144 57.5565 37.6737 0.0000 0.0000 0.0000
# 3 76.1255 37.6737 173.9474 0.0000 0.0000 0.0000
# 4 0.0000 0.0000 0.0000 17.4691 0.0000 0.0000
# 5 0.0000 0.0000 0.0000 0.0000 26.1087 0.0000
# 6 0.0000 0.0000 0.0000 0.0000 0.0000 23.0907
#
#
#
# Elastic Compliance Matrix: (Units=1/GPa)
#
#
# Indices 1 2 3 4 5 6 
#
# 1 0.009771 -0.004416 -0.003319 0.000000 0.000000 0.000000
# 2 -0.004416 0.022240 -0.002884 0.000000 0.000000 0.000000
# 3 -0.003319 -0.002884 0.007826 0.000000 0.000000 0.000000
# 4 0.000000 0.000000 0.000000 0.057244 0.000000 0.000000
# 5 0.000000 0.000000 0.000000 0.000000 0.038301 0.000000
# 6 0.000000 0.000000 0.000000 0.000000 0.000000 0.043307
#
#
# Mechanical properties :
#
#
# Convention : Reuss Voigt Hill
#
# Bulk Modulus (GPa) = 53.77102 75.83180 64.80141
# Shear Modulus (GPa) = 24.25670 28.31006 26.28338
#
# Velocity S-wave (km/s) = 3.37904 3.65046 3.51737
# Velocity P-wave (km/s) = 6.36667 7.31181 6.85555
#
# Compressibility (1/GPa) = 0.01859738
#
# Stress axis : x y z
#
# Youngs Moduli (GPa) = 102.34829 44.96365 127.77547
#
# Poissons Ratio (x) = 0.19857 0.42415
# Poissons Ratio (y) = 0.45199 0.36852
# Poissons Ratio (z) = 0.33974 0.12968
#
# Static dielectric constant tensor:
#      x y z
#    x 1.875680 0.000000 0.000000 
#    y 0.000000 1.907050 0.000000 
#    z 0.000000 0.000000 1.747690 
# 
# From -- ./inp_files/28367.got.cif
#   From: 2010.05.17/outbox.cif.g08.bks.cpg/sg68_15_cif.got.tgz:28367.got - 2010.06.03 18:57:09.
