data_PCOD9506530
_publ_section_title
;
Structure prediction by ZEFSAII (Michael W. Deem and Ramdas Pophale) SiO2 
 PCOD9506530
Probable space group: C C C A
;
_chemical_formula_sum "Si O2"
_cell_formula_units_Z 96
_cell_length_a 20.958712
_cell_length_b 15.229681
_cell_length_c 12.878156
_cell_angle_alpha 90.000000
_cell_angle_beta 90.000000
_cell_angle_gamma 90.000000
_cell_volume 4110.636539
_symmetry_space_group_name_H-M "C C C A"
_symmetry_group_IT_number 68
_space_group.IT_coordinate_system_code '2'
_symmetry_cell_setting 'orthorhombic'
loop_
_space_group_symop_operation_xyz
x,y,z
-x,1/2-y,z
x,1/2-y,1/2-z
-x,y,1/2-z
-x,-y,-z
x,1/2+y,-z
-x,1/2+y,1/2+z
x,-y,1/2+z
1/2+x,1/2+y,z
1/2-x,-y,z
1/2+x,-y,1/2-z
1/2-x,1/2+y,1/2-z
1/2-x,1/2-y,-z
1/2+x,y,-z
1/2-x,y,1/2+z
1/2+x,1/2-y,1/2+z
loop_
_atom_site_type_symbol
_atom_site_label
_atom_site_fract_x
_atom_site_fract_y
_atom_site_fract_z
Si Si1 0.554688 0.935873 0.387544
Si Si2 0.922133 0.597402 0.855306
Si Si3 0.798392 0.205279 0.581816
Si Si4 0.816342 0.549768 0.563053
Si Si5 0.431554 0.743167 0.515477
Si Si6 0.285357 0.906730 0.284618
O O1 0.564644 0.903004 0.268701
O O2 0.480556 0.964509 0.394892
O O3 0.615455 0.997460 0.415941
O O4 0.565250 0.851618 0.460155
O O5 0.930442 0.686557 0.920834
O O6 0.846698 0.579772 0.858759
O O7 0.750000 0.250000 0.500000
O O8 0.817558 0.110839 0.535541
O O9 0.866739 0.254026 0.582409
O O10 0.758375 0.173569 0.680192
O O11 0.750000 0.500000 0.555426
O O12 0.807618 0.608907 0.666685
O O13 0.500000 0.750000 0.572315
O O14 0.250000 0.000000 0.282614
#
# Coordination Sequence:
#
# PCOD9506530 Si02
#       6
#    16  16  16  16  16  16
#     4   8  15  24  46  72  98 126 155 204 256 302
#     4   9  14  26  44  72 100 123 158 201 257 304
#     4  11  20  32  52  77 101 134 170 212 252 300
#     4   9  19  34  51  73 104 134 166 207 258 302
#     4   9  16  27  45  69 102 125 157 204 255 298
#     4  10  20  33  51  74 104 136 168 207 251 304
#
# _framework density 23.354047000000001
#
# number of rings (size 3 to 8) (size 9 to 14) (size 15 to 20)
#    0.000    2.667    1.667    1.000    0.000    2.667 
#    0.000    0.000    3.667    4.000    0.000    1.167 
#    0.000    0.000    0.000    0.000    0.000    0.000 
#
# Total GULP energy -267208.211404 kJ/mol
# GULP energy per Si atom -5566.837738 kJ/mol
# Density = 2.330089 g / cm^3
# Si number density = 23.354047 Si / 1000 Ang^3
#
#
#
# Elastic Constant Matrix: (Units=GPa)
#
#
# Indices 1 2 3 4 5 6 
#
# 1 219.8235 18.7586 14.2166 0.0000 0.0000 0.0000
# 2 18.7586 31.6298 4.8056 0.0000 0.0000 0.0000
# 3 14.2166 4.8056 41.3898 0.0000 0.0000 0.0000
# 4 0.0000 0.0000 0.0000 14.6806 0.0000 0.0000
# 5 0.0000 0.0000 0.0000 0.0000 25.4552 0.0000
# 6 0.0000 0.0000 0.0000 0.0000 0.0000 23.5342
#
#
#
# Elastic Compliance Matrix: (Units=1/GPa)
#
#
# Indices 1 2 3 4 5 6 
#
# 1 0.004866 -0.002679 -0.001360 0.000000 0.000000 0.000000
# 2 -0.002679 0.033659 -0.002988 0.000000 0.000000 0.000000
# 3 -0.001360 -0.002988 0.024975 0.000000 0.000000 0.000000
# 4 0.000000 0.000000 0.000000 0.068117 0.000000 0.000000
# 5 0.000000 0.000000 0.000000 0.000000 0.039285 0.000000
# 6 0.000000 0.000000 0.000000 0.000000 0.000000 0.042491
#
#
# Mechanical properties :
#
#
# Convention : Reuss Voigt Hill
#
# Bulk Modulus (GPa) = 20.22457 40.93388 30.57922
# Shear Modulus (GPa) = 20.49788 29.73814 25.11801
#
# Velocity S-wave (km/s) = 2.96582 3.57229 3.28309
# Velocity P-wave (km/s) = 4.51740 5.88053 5.24345
#
# Compressibility (1/GPa) = 0.04944482
#
# Stress axis : x y z
#
# Youngs Moduli (GPa) = 205.52079 29.71015 40.04058
#
# Poissons Ratio (x) = 0.07959 0.05446
# Poissons Ratio (y) = 0.55059 0.11963
# Poissons Ratio (z) = 0.27955 0.08877
#
# Static dielectric constant tensor:
#      x y z
#    x 2.117660 0.000000 0.000000 
#    y 0.000000 1.903910 0.000000 
#    z 0.000000 0.000000 1.966200 
# 
# From -- ./inp_files/33080.got.cif
#   From: 2010.05.17/outbox.cif.g08.bks.cpg/sg68_17_cif.got.tgz:33080.got - 2010.06.03 18:57:09.
