data_PCOD9506109
_publ_section_title
;
Structure prediction by ZEFSAII (Michael W. Deem and Ramdas Pophale) SiO2 
 PCOD9506109
Probable space group: C C C A
;
_chemical_formula_sum "Si O2"
_cell_formula_units_Z 112
_cell_length_a 14.258026
_cell_length_b 24.578856
_cell_length_c 16.128952
_cell_angle_alpha 90.000000
_cell_angle_beta 90.000000
_cell_angle_gamma 90.000000
_cell_volume 5652.326195
_symmetry_space_group_name_H-M "C C C A"
_symmetry_group_IT_number 68
_space_group.IT_coordinate_system_code '2'
_symmetry_cell_setting 'orthorhombic'
loop_
_space_group_symop_operation_xyz
x,y,z
-x,1/2-y,z
x,1/2-y,1/2-z
-x,y,1/2-z
-x,-y,-z
x,1/2+y,-z
-x,1/2+y,1/2+z
x,-y,1/2+z
1/2+x,1/2+y,z
1/2-x,-y,z
1/2+x,-y,1/2-z
1/2-x,1/2+y,1/2-z
1/2-x,1/2-y,-z
1/2+x,y,-z
1/2-x,y,1/2+z
1/2+x,1/2-y,1/2+z
loop_
_atom_site_type_symbol
_atom_site_label
_atom_site_fract_x
_atom_site_fract_y
_atom_site_fract_z
Si Si1 0.390417 0.188712 0.068733
Si Si2 0.385971 0.190346 0.427274
Si Si3 0.245146 0.398762 0.006736
Si Si4 0.902251 0.532663 0.900455
Si Si5 0.648761 0.973751 0.767306
Si Si6 0.897727 0.466005 0.069547
Si Si7 0.888134 0.651281 0.248614
O O1 0.363257 0.249341 0.040144
O O2 0.502569 0.182763 0.060729
O O3 0.365520 0.183067 0.165379
O O4 0.336948 0.139681 0.026121
O O5 0.327139 0.141343 0.464399
O O6 0.365065 0.185570 0.329589
O O7 0.192851 0.433929 0.078107
O O8 0.298892 0.434084 0.936504
O O9 0.899869 0.503121 0.811714
O O10 0.002799 0.563503 0.910729
O O11 0.904412 0.489797 0.976554
O O12 0.652535 0.909397 0.752848
O O13 0.750000 0.000000 0.767357
O O14 0.606818 0.988745 0.857822
O O15 0.000000 0.642710 0.250000
#
# Coordination Sequence:
#
# PCOD9506109 Si02
#       7
#    16  16  16  16  16  16  16
#     4  10  21  37  57  81 107 138 182 236 288 332
#     4  10  21  37  57  81 107 138 182 236 288 332
#     4  12  22  36  56  80 112 152 188 224 272 338
#     4  11  23  38  56  82 118 155 191 232 279 335
#     4  12  22  35  57  85 116 151 188 227 275 338
#     4  11  23  38  56  82 118 155 191 232 279 335
#     4  10  19  34  56  78 103 135 175 227 281 325
#
# _framework density 19.814851000000001
#
# number of rings (size 3 to 8) (size 9 to 14) (size 15 to 20)
#    0.000    1.143    0.000    8.571    0.000    6.286 
#    0.000    0.000    0.000    0.000    0.000    0.000 
#    0.000   16.000    0.000    0.000    0.000    0.000 
#
# Total GULP energy -312461.249388 kJ/mol
# GULP energy per Si atom -5579.665168 kJ/mol
# Density = 1.976975 g / cm^3
# Si number density = 19.814851 Si / 1000 Ang^3
#
#
#
# Elastic Constant Matrix: (Units=GPa)
#
#
# Indices 1 2 3 4 5 6 
#
# 1 63.6940 26.7358 11.1106 0.0000 0.0000 0.0000
# 2 26.7358 83.3762 9.5204 0.0000 0.0000 0.0000
# 3 11.1106 9.5204 70.9870 0.0000 0.0000 0.0000
# 4 0.0000 0.0000 0.0000 17.7266 0.0000 0.0000
# 5 0.0000 0.0000 0.0000 0.0000 174.5735 0.0000
# 6 0.0000 0.0000 0.0000 0.0000 0.0000 38.5929
#
#
#
# Elastic Compliance Matrix: (Units=1/GPa)
#
#
# Indices 1 2 3 4 5 6 
#
# 1 0.018453 -0.005674 -0.002127 0.000000 0.000000 0.000000
# 2 -0.005674 0.013925 -0.000979 0.000000 0.000000 0.000000
# 3 -0.002127 -0.000979 0.014551 0.000000 0.000000 0.000000
# 4 0.000000 0.000000 0.000000 0.056412 0.000000 0.000000
# 5 0.000000 0.000000 0.000000 0.000000 0.005728 0.000000
# 6 0.000000 0.000000 0.000000 0.000000 0.000000 0.025912
#
#
# Mechanical properties :
#
#
# Convention : Reuss Voigt Hill
#
# Bulk Modulus (GPa) = 34.05108 34.75455 34.40281
# Shear Modulus (GPa) = 30.80090 57.55794 44.17942
#
# Velocity S-wave (km/s) = 3.94691 5.39546 4.72700
# Velocity P-wave (km/s) = 6.16382 7.50948 6.86968
#
# Compressibility (1/GPa) = 0.02936764
#
# Stress axis : x y z
#
# Youngs Moduli (GPa) = 54.19184 71.81207 68.72202
#
# Poissons Ratio (x) = 0.40748 0.14618
# Poissons Ratio (y) = 0.30750 0.06731
# Poissons Ratio (z) = 0.11528 0.07034
#
# Static dielectric constant tensor:
#      x y z
#    x 1.762550 0.000000 0.000000 
#    y 0.000000 1.714150 0.000000 
#    z 0.000000 0.000000 1.711340 
# 
# From -- ./inp_files/22608.got.cif
#   From: 2010.05.17/outbox.cif.g08.bks.cpg/sg68_12_cif.got.tgz:22608.got - 2010.06.03 18:57:09.
