data_PCOD9506526
_publ_section_title
;
Structure prediction by ZEFSAII (Michael W. Deem and Ramdas Pophale) SiO2 
 PCOD9506526
Probable space group: C C C A
;
_chemical_formula_sum "Si O2"
_cell_formula_units_Z 52
_cell_length_a 14.158370
_cell_length_b 5.441689
_cell_length_c 28.018216
_cell_angle_alpha 90.000000
_cell_angle_beta 90.000000
_cell_angle_gamma 90.000000
_cell_volume 2158.675956
_symmetry_space_group_name_H-M "C C C A"
_symmetry_group_IT_number 68
_space_group.IT_coordinate_system_code '2'
_symmetry_cell_setting 'orthorhombic'
loop_
_space_group_symop_operation_xyz
x,y,z
-x,1/2-y,z
x,1/2-y,1/2-z
-x,y,1/2-z
-x,-y,-z
x,1/2+y,-z
-x,1/2+y,1/2+z
x,-y,1/2+z
1/2+x,1/2+y,z
1/2-x,-y,z
1/2+x,-y,1/2-z
1/2-x,1/2+y,1/2-z
1/2-x,1/2-y,-z
1/2+x,y,-z
1/2-x,y,1/2+z
1/2+x,1/2-y,1/2+z
loop_
_atom_site_type_symbol
_atom_site_label
_atom_site_fract_x
_atom_site_fract_y
_atom_site_fract_z
Si Si1 0.597972 0.479244 0.161864
Si Si2 0.357275 0.702494 0.017633
Si Si3 0.500000 0.250000 0.250000
Si Si4 0.886427 0.475087 0.375567
O O1 0.564927 0.410856 0.215019
O O2 0.499439 0.501684 0.132312
O O3 0.642793 0.746632 0.157754
O O4 0.649858 0.244077 0.139199
O O5 0.361813 0.602124 0.071111
O O6 0.398918 0.477988 0.986186
O O7 0.250000 0.750000 0.000000
#
# Coordination Sequence:
#
# PCOD9506526 Si02
#       4
#    16  16   4  16
#     4   9  18  29  48  70 103 126 154 195 244 304
#     4  10  20  33  49  66  91 126 173 210 238 285
#     4   8  16  30  48  74 100 134 156 182 240 304
#     4   9  17  31  44  68  98 128 157 199 246 280
#
# _framework density 24.088840000000001
#
# number of rings (size 3 to 8) (size 9 to 14) (size 15 to 20)
#    0.000    3.077    0.000    1.846    0.000    9.846 
#    0.000   18.462    0.000    0.000    0.000    0.000 
#    0.000  433.231    0.000    0.000    0.000    0.000 
#
# Total GULP energy -145099.509044 kJ/mol
# GULP energy per Si atom -5580.750348 kJ/mol
# Density = 2.403401 g / cm^3
# Si number density = 24.088840 Si / 1000 Ang^3
#
#
#
# Elastic Constant Matrix: (Units=GPa)
#
#
# Indices 1 2 3 4 5 6 
#
# 1 108.9941 9.4856 19.7925 0.0000 0.0000 0.0000
# 2 9.4856 276.3165 58.6780 0.0000 0.0000 0.0000
# 3 19.7925 58.6780 174.6482 0.0000 0.0000 0.0000
# 4 0.0000 0.0000 0.0000 -7.4101 0.0000 0.0000
# 5 0.0000 0.0000 0.0000 0.0000 14.7955 0.0000
# 6 0.0000 0.0000 0.0000 0.0000 0.0000 -14.8036
#
#
#
# Elastic Compliance Matrix: (Units=1/GPa)
#
#
# Indices 1 2 3 4 5 6 
#
# 1 0.009370 -0.000104 -0.001027 0.000000 0.000000 0.000000
# 2 -0.000104 0.003898 -0.001298 0.000000 0.000000 0.000000
# 3 -0.001027 -0.001298 0.006278 0.000000 0.000000 0.000000
# 4 0.000000 0.000000 0.000000 -0.134951 0.000000 0.000000
# 5 0.000000 0.000000 0.000000 0.000000 0.067588 0.000000
# 6 0.000000 0.000000 0.000000 0.000000 0.000000 -0.067551
#
#
# Mechanical properties :
#
#
# Convention : Reuss Voigt Hill
#
# Bulk Modulus (GPa) = 68.07571 81.76344 74.91957
# Shear Modulus (GPa) = -47.34252 29.98320 -8.67966
#
# Velocity S-wave (km/s) = -4.43801 3.53185 -1.90027
# Velocity P-wave (km/s) = 1.43538 7.11675 5.13363
#
# Compressibility (1/GPa) = 0.01468953
#
# Stress axis : x y z
#
# Youngs Moduli (GPa) = 106.71975 256.52666 159.27891
#
# Poissons Ratio (x) = 0.02656 0.16360
# Poissons Ratio (y) = 0.01105 0.20674
# Poissons Ratio (z) = 0.10961 0.33297
#
# Static dielectric constant tensor:
#      x y z
#    x 1.813080 0.000000 0.000000 
#    y 0.000000 2.053460 0.000000 
#    z 0.000000 0.000000 1.861430 
# 
# From -- ./inp_files/51120.got.cif
#   From: 2010.05.17/outbox.cif.g08.bks.cpg/sg68_26_cif.got.tgz:51120.got - 2010.06.03 18:57:09.
