data_PCOD9506786
_publ_section_title
;
Structure prediction by ZEFSAII (Michael W. Deem and Ramdas Pophale) SiO2 
 PCOD9506786
Probable space group: C C C A
;
_chemical_formula_sum "Si O2"
_cell_formula_units_Z 72
_cell_length_a 24.768053
_cell_length_b 8.262678
_cell_length_c 15.366092
_cell_angle_alpha 90.000000
_cell_angle_beta 90.000000
_cell_angle_gamma 90.000000
_cell_volume 3144.677591
_symmetry_space_group_name_H-M "C C C A"
_symmetry_group_IT_number 68
_space_group.IT_coordinate_system_code '2'
_symmetry_cell_setting 'orthorhombic'
loop_
_space_group_symop_operation_xyz
x,y,z
-x,1/2-y,z
x,1/2-y,1/2-z
-x,y,1/2-z
-x,-y,-z
x,1/2+y,-z
-x,1/2+y,1/2+z
x,-y,1/2+z
1/2+x,1/2+y,z
1/2-x,-y,z
1/2+x,-y,1/2-z
1/2-x,1/2+y,1/2-z
1/2-x,1/2-y,-z
1/2+x,y,-z
1/2-x,y,1/2+z
1/2+x,1/2-y,1/2+z
loop_
_atom_site_type_symbol
_atom_site_label
_atom_site_fract_x
_atom_site_fract_y
_atom_site_fract_z
Si Si1 0.208449 0.623136 0.464786
Si Si2 0.500000 0.750000 0.015328
Si Si3 0.436573 0.555294 0.232375
Si Si4 0.363490 0.413462 0.075149
Si Si5 0.430214 0.482673 0.413730
O O1 0.250000 0.500000 0.416015
O O2 0.250000 0.750000 0.500000
O O3 0.162825 0.734144 0.416456
O O4 0.183838 0.540861 0.552434
O O5 0.453491 0.681831 0.953152
O O6 0.481481 0.894534 0.077143
O O7 0.431735 0.750000 0.250000
O O8 0.500000 0.510433 0.250000
O O9 0.405312 0.485485 0.147423
O O10 0.409723 0.475303 0.316980
O O11 0.390244 0.429896 0.979330
#
# Coordination Sequence:
#
# PCOD9506786 Si02
#       5
#    16   8  16  16  16
#     4   9  20  40  68  95 123 166 225 295 361 411
#     4  10  20  36  58  86 130 186 230 274 324 388
#     4  11  22  36  58  91 136 187 230 271 331 413
#     4  11  21  38  65  94 125 173 224 279 352 416
#     4  11  21  37  58  87 128 171 224 276 326 396
#
# _framework density 22.89583
#
# number of rings (size 3 to 8) (size 9 to 14) (size 15 to 20)
#    0.000    1.556    0.000    8.000    0.000    0.000 
#    0.000   10.556    0.000   33.333    0.000    0.000 
#    0.000    0.000    0.000    0.000    0.000    0.000 
#
# Total GULP energy -200411.703259 kJ/mol
# GULP energy per Si atom -5566.991757 kJ/mol
# Density = 2.284372 g / cm^3
# Si number density = 22.895830 Si / 1000 Ang^3
#
#
#
# Elastic Constant Matrix: (Units=GPa)
#
#
# Indices 1 2 3 4 5 6 
#
# 1 128.4566 47.8381 48.1719 0.0000 0.0000 0.0000
# 2 47.8381 121.4739 25.6206 0.0000 0.0000 0.0000
# 3 48.1719 25.6206 135.0754 0.0000 0.0000 0.0000
# 4 0.0000 0.0000 0.0000 26.6544 0.0000 0.0000
# 5 0.0000 0.0000 0.0000 0.0000 24.8971 0.0000
# 6 0.0000 0.0000 0.0000 0.0000 0.0000 47.9206
#
#
#
# Elastic Compliance Matrix: (Units=1/GPa)
#
#
# Indices 1 2 3 4 5 6 
#
# 1 0.010159 -0.003372 -0.002984 0.000000 0.000000 0.000000
# 2 -0.003372 0.009694 -0.000636 0.000000 0.000000 0.000000
# 3 -0.002984 -0.000636 0.008588 0.000000 0.000000 0.000000
# 4 0.000000 0.000000 0.000000 0.037517 0.000000 0.000000
# 5 0.000000 0.000000 0.000000 0.000000 0.040165 0.000000
# 6 0.000000 0.000000 0.000000 0.000000 0.000000 0.020868
#
#
# Mechanical properties :
#
#
# Convention : Reuss Voigt Hill
#
# Bulk Modulus (GPa) = 69.16379 69.80743 69.48561
# Shear Modulus (GPa) = 34.29490 37.45277 35.87384
#
# Velocity S-wave (km/s) = 3.87443 4.04888 3.96261
# Velocity P-wave (km/s) = 7.09144 7.23970 7.16595
#
# Compressibility (1/GPa) = 0.01445843
#
# Stress axis : x y z
#
# Youngs Moduli (GPa) = 98.43334 103.15448 116.44158
#
# Poissons Ratio (x) = 0.34779 0.34741
# Poissons Ratio (y) = 0.33187 0.07410
# Poissons Ratio (z) = 0.29368 0.06564
#
# Static dielectric constant tensor:
#      x y z
#    x 1.666690 0.000000 0.000000 
#    y 0.000000 2.199970 0.000000 
#    z 0.000000 0.000000 1.893820 
# 
# From -- ./inp_files/25832.got.cif
#   From: 2010.05.17/outbox.cif.g08.bks.cpg/sg68_13_cif.got.tgz:25832.got - 2010.06.03 18:57:09.
