data_PCOD9506728
_publ_section_title
;
Structure prediction by ZEFSAII (Michael W. Deem and Ramdas Pophale) SiO2 
 PCOD9506728
Probable space group: C C C A
;
_chemical_formula_sum "Si O2"
_cell_formula_units_Z 112
_cell_length_a 15.399292
_cell_length_b 24.189593
_cell_length_c 14.024509
_cell_angle_alpha 90.000000
_cell_angle_beta 90.000000
_cell_angle_gamma 90.000000
_cell_volume 5224.166150
_symmetry_space_group_name_H-M "C C C A"
_symmetry_group_IT_number 68
_space_group.IT_coordinate_system_code '2'
_symmetry_cell_setting 'orthorhombic'
loop_
_space_group_symop_operation_xyz
x,y,z
-x,1/2-y,z
x,1/2-y,1/2-z
-x,y,1/2-z
-x,-y,-z
x,1/2+y,-z
-x,1/2+y,1/2+z
x,-y,1/2+z
1/2+x,1/2+y,z
1/2-x,-y,z
1/2+x,-y,1/2-z
1/2-x,1/2+y,1/2-z
1/2-x,1/2-y,-z
1/2+x,y,-z
1/2-x,y,1/2+z
1/2+x,1/2-y,1/2+z
loop_
_atom_site_type_symbol
_atom_site_label
_atom_site_fract_x
_atom_site_fract_y
_atom_site_fract_z
Si Si1 0.862726 0.765730 0.938651
Si Si2 0.916008 0.947900 0.065821
Si Si3 0.656653 0.976211 0.756959
Si Si4 0.023951 0.172917 0.358713
Si Si5 0.180174 0.272837 0.857700
Si Si6 0.465011 0.049564 0.630483
Si Si7 0.943805 0.124759 0.844446
O O1 0.945743 0.803078 0.921099
O O2 0.780811 0.787007 0.877817
O O3 0.890730 0.704782 0.897542
O O4 0.840929 0.765864 0.051071
O O5 0.845136 0.951278 0.149359
O O6 0.984125 0.898197 0.083554
O O7 0.893627 0.945595 0.955305
O O8 0.969831 0.003178 0.091428
O O9 0.620571 0.926072 0.820813
O O10 0.750000 0.000000 0.779111
O O11 0.587592 0.025271 0.779704
O O12 0.015960 0.106938 0.360992
O O13 0.000000 0.188695 0.250000
O O14 0.170424 0.250000 0.750000
O O15 0.113945 0.323371 0.870487
O O16 0.000000 0.137182 0.750000
#
# Coordination Sequence:
#
# PCOD9506728 Si02
#       7
#    16  16  16  16  16  16  16
#     4  10  24  40  58  91 124 159 207 262 315 367
#     4   9  19  39  57  86 123 153 199 256 305 366
#     4  10  21  36  57  91 124 156 200 257 317 375
#     4  11  21  39  65  88 121 163 208 254 312 380
#     4  11  23  41  62  88 126 163 210 263 312 370
#     4  10  20  35  63  87 112 161 208 242 302 389
#     4   9  20  38  62  84 120 163 205 254 313 377
#
# _framework density 21.438827
#
# number of rings (size 3 to 8) (size 9 to 14) (size 15 to 20)
#    0.000    2.000    0.000    4.714    2.000    5.429 
#    2.571    0.000    0.000    0.000    0.000    0.000 
#    0.000    0.000    0.000    0.000    0.000    0.000 
#
# Total GULP energy -312286.824767 kJ/mol
# GULP energy per Si atom -5576.550442 kJ/mol
# Density = 2.139003 g / cm^3
# Si number density = 21.438827 Si / 1000 Ang^3
#
#
#
# Elastic Constant Matrix: (Units=GPa)
#
#
# Indices 1 2 3 4 5 6 
#
# 1 81.8110 16.1939 -3.5957 0.0000 0.0000 0.0000
# 2 16.1939 87.4088 4.0767 0.0000 0.0000 0.0000
# 3 -3.5957 4.0767 123.1237 0.0000 0.0000 0.0000
# 4 0.0000 0.0000 0.0000 11.6969 0.0000 0.0000
# 5 0.0000 0.0000 0.0000 0.0000 4.5213 0.0000
# 6 0.0000 0.0000 0.0000 0.0000 0.0000 26.2853
#
#
#
# Elastic Compliance Matrix: (Units=1/GPa)
#
#
# Indices 1 2 3 4 5 6 
#
# 1 0.012713 -0.002376 0.000450 0.000000 0.000000 0.000000
# 2 -0.002376 0.011902 -0.000463 0.000000 0.000000 0.000000
# 3 0.000450 -0.000463 0.008150 0.000000 0.000000 0.000000
# 4 0.000000 0.000000 0.000000 0.085493 0.000000 0.000000
# 5 0.000000 0.000000 0.000000 0.000000 0.221175 0.000000
# 6 0.000000 0.000000 0.000000 0.000000 0.000000 0.038044
#
#
# Mechanical properties :
#
#
# Convention : Reuss Voigt Hill
#
# Bulk Modulus (GPa) = 35.73156 36.18814 35.95985
# Shear Modulus (GPa) = 12.76856 26.87861 19.82359
#
# Velocity S-wave (km/s) = 2.44310 3.54465 3.04412
# Velocity P-wave (km/s) = 4.96601 5.80251 5.40048
#
# Compressibility (1/GPa) = 0.02798646
#
# Stress axis : x y z
#
# Youngs Moduli (GPa) = 78.65679 84.01688 122.69335
#
# Poissons Ratio (x) = 0.19965 -0.05521
# Poissons Ratio (y) = 0.18692 0.05687
# Poissons Ratio (z) = -0.03539 0.03894
#
# Static dielectric constant tensor:
#      x y z
#    x 1.772220 0.000000 0.000000 
#    y 0.000000 1.832680 0.000000 
#    z 0.000000 0.000000 1.891440 
# 
# From -- ./inp_files/22588.got.cif
#   From: 2010.05.17/outbox.cif.g08.bks.cpg/sg68_12_cif.got.tgz:22588.got - 2010.06.03 18:57:09.
