data_PCOD9506489
_publ_section_title
;
Structure prediction by ZEFSAII (Michael W. Deem and Ramdas Pophale) SiO2 
 PCOD9506489
Probable space group: C C C A
;
_chemical_formula_sum "Si O2"
_cell_formula_units_Z 104
_cell_length_a 28.526313
_cell_length_b 8.719089
_cell_length_c 21.788047
_cell_angle_alpha 90.000000
_cell_angle_beta 90.000000
_cell_angle_gamma 90.000000
_cell_volume 5419.198478
_symmetry_space_group_name_H-M "C C C A"
_symmetry_group_IT_number 68
_space_group.IT_coordinate_system_code '2'
_symmetry_cell_setting 'orthorhombic'
loop_
_space_group_symop_operation_xyz
x,y,z
-x,1/2-y,z
x,1/2-y,1/2-z
-x,y,1/2-z
-x,-y,-z
x,1/2+y,-z
-x,1/2+y,1/2+z
x,-y,1/2+z
1/2+x,1/2+y,z
1/2-x,-y,z
1/2+x,-y,1/2-z
1/2-x,1/2+y,1/2-z
1/2-x,1/2-y,-z
1/2+x,y,-z
1/2-x,y,1/2+z
1/2+x,1/2-y,1/2+z
loop_
_atom_site_type_symbol
_atom_site_label
_atom_site_fract_x
_atom_site_fract_y
_atom_site_fract_z
Si Si1 0.159701 0.546065 0.382186
Si Si2 0.362174 0.968619 0.935732
Si Si3 0.201550 0.919238 0.726191
Si Si4 0.143406 0.657685 0.192888
Si Si5 0.000000 0.250000 0.492898
Si Si6 0.802472 0.188776 0.993945
Si Si7 0.566302 0.996704 0.956183
O O1 0.171130 0.411695 0.335620
O O2 0.168105 0.699827 0.341941
O O3 0.192744 0.558058 0.441300
O O4 0.106490 0.533009 0.406222
O O5 0.377737 0.929591 0.866460
O O6 0.336236 0.820872 0.966271
O O7 0.325835 0.109982 0.946175
O O8 0.406183 0.999476 0.979054
O O9 0.209839 0.750000 0.750000
O O10 0.250000 0.000000 0.710010
O O11 0.176064 0.030437 0.775301
O O12 0.118586 0.750000 0.250000
O O13 0.029435 0.138754 0.536704
O O14 0.036416 0.348049 0.452446
O O15 0.750000 0.250000 0.000000
#
# Coordination Sequence:
#
# PCOD9506489 Si02
#       7
#    16  16  16  16   8  16  16
#     4   9  20  37  54  76 115 152 188 239 290 352
#     4  10  20  34  54  78 116 152 185 235 284 344
#     4  11  23  37  55  81 112 156 208 249 282 325
#     4   9  19  36  53  74 105 153 199 235 274 325
#     4  10  20  34  58  88 118 140 176 236 296 376
#     4  10  20  32  49  80 113 150 189 227 281 338
#     4  10  20  36  57  89 116 145 184 231 308 368
#
# _framework density 19.191029
#
# number of rings (size 3 to 8) (size 9 to 14) (size 15 to 20)
#    0.000    2.154    0.000    4.615    0.000    9.846 
#    0.000    0.000    0.000    0.000    0.000   94.231 
#    0.000    0.000    0.000    0.000    0.000    0.000 
#
# Total GULP energy -289671.138658 kJ/mol
# GULP energy per Si atom -5570.598820 kJ/mol
# Density = 1.914735 g / cm^3
# Si number density = 19.191029 Si / 1000 Ang^3
#
#
#
# Elastic Constant Matrix: (Units=GPa)
#
#
# Indices 1 2 3 4 5 6 
#
# 1 90.0731 41.0532 28.1844 0.0000 0.0000 0.0000
# 2 41.0532 80.8509 30.0543 0.0000 0.0000 0.0000
# 3 28.1844 30.0543 107.8568 0.0000 0.0000 0.0000
# 4 0.0000 0.0000 0.0000 28.3406 0.0000 0.0000
# 5 0.0000 0.0000 0.0000 0.0000 13.1212 0.0000
# 6 0.0000 0.0000 0.0000 0.0000 0.0000 19.0099
#
#
#
# Elastic Compliance Matrix: (Units=1/GPa)
#
#
# Indices 1 2 3 4 5 6 
#
# 1 0.014815 -0.006786 -0.001980 0.000000 0.000000 0.000000
# 2 -0.006786 0.016906 -0.002938 0.000000 0.000000 0.000000
# 3 -0.001980 -0.002938 0.010608 0.000000 0.000000 0.000000
# 4 0.000000 0.000000 0.000000 0.035285 0.000000 0.000000
# 5 0.000000 0.000000 0.000000 0.000000 0.076212 0.000000
# 6 0.000000 0.000000 0.000000 0.000000 0.000000 0.052604
#
#
# Mechanical properties :
#
#
# Convention : Reuss Voigt Hill
#
# Bulk Modulus (GPa) = 52.85334 53.04052 52.94693
# Shear Modulus (GPa) = 21.17341 24.06028 22.61684
#
# Velocity S-wave (km/s) = 3.32520 3.54464 3.43667
# Velocity P-wave (km/s) = 6.50715 6.66714 6.58763
#
# Compressibility (1/GPa) = 0.01892028
#
# Stress axis : x y z
#
# Youngs Moduli (GPa) = 67.50017 59.14976 94.27216
#
# Poissons Ratio (x) = 0.40141 0.18669
# Poissons Ratio (y) = 0.45808 0.27693
# Poissons Ratio (z) = 0.13367 0.17376
#
# Static dielectric constant tensor:
#      x y z
#    x 1.660870 0.000000 0.000000 
#    y 0.000000 1.762420 0.000000 
#    z 0.000000 0.000000 1.720870 
# 
# From -- ./inp_files/47254.got.cif
#   From: 2010.05.17/outbox.cif.g08.bks.cpg/sg68_24_cif.got.tgz:47254.got - 2010.06.03 18:57:09.
