data_PCOD9506399
_publ_section_title
;
Structure prediction by ZEFSAII (Michael W. Deem and Ramdas Pophale) SiO2 
 PCOD9506399
Probable space group: C C C A
;
_chemical_formula_sum "Si O2"
_cell_formula_units_Z 52
_cell_length_a 11.992428
_cell_length_b 9.814434
_cell_length_c 20.431071
_cell_angle_alpha 90.000000
_cell_angle_beta 90.000000
_cell_angle_gamma 90.000000
_cell_volume 2404.714442
_symmetry_space_group_name_H-M "C C C A"
_symmetry_group_IT_number 68
_space_group.IT_coordinate_system_code '2'
_symmetry_cell_setting 'orthorhombic'
loop_
_space_group_symop_operation_xyz
x,y,z
-x,1/2-y,z
x,1/2-y,1/2-z
-x,y,1/2-z
-x,-y,-z
x,1/2+y,-z
-x,1/2+y,1/2+z
x,-y,1/2+z
1/2+x,1/2+y,z
1/2-x,-y,z
1/2+x,-y,1/2-z
1/2-x,1/2+y,1/2-z
1/2-x,1/2-y,-z
1/2+x,y,-z
1/2-x,y,1/2+z
1/2+x,1/2-y,1/2+z
loop_
_atom_site_type_symbol
_atom_site_label
_atom_site_fract_x
_atom_site_fract_y
_atom_site_fract_z
Si Si1 0.157824 0.666249 0.570901
Si Si2 0.500000 0.750000 0.250000
Si Si3 0.124437 0.805255 0.077406
Si Si4 0.440095 0.925347 0.132739
O O1 0.152517 0.633603 0.494349
O O2 0.285510 0.687607 0.591870
O O3 0.112253 0.821154 0.580212
O O4 0.071489 0.575957 0.612538
O O5 0.431304 0.848317 0.201801
O O6 0.000000 0.750000 0.073322
O O7 0.118325 0.930062 0.127919
#
# Coordination Sequence:
#
# PCOD9506399 Si02
#       4
#    16   4  16  16
#     4   9  20  33  55  87 118 152 189 238 309 359
#     4   8  20  40  66  72 102 164 212 228 288 346
#     4  11  20  32  56  92 121 146 189 246 309 361
#     4  10  19  39  60  79 112 161 198 244 284 370
#
# _framework density 21.624188
#
# number of rings (size 3 to 8) (size 9 to 14) (size 15 to 20)
#    0.000    2.462    3.077    1.846    0.000    1.231 
#    0.000    0.769   54.154    0.000    0.000    0.000 
#    0.000    0.000    0.000    0.000    0.000    0.000 
#
# Total GULP energy -145006.984379 kJ/mol
# GULP energy per Si atom -5577.191707 kJ/mol
# Density = 2.157497 g / cm^3
# Si number density = 21.624188 Si / 1000 Ang^3
#
#
#
# Elastic Constant Matrix: (Units=GPa)
#
#
# Indices 1 2 3 4 5 6 
#
# 1 146.9361 22.0204 9.2854 0.0000 0.0000 0.0000
# 2 22.0204 51.5357 28.8511 0.0000 0.0000 0.0000
# 3 9.2854 28.8511 90.6621 0.0000 0.0000 0.0000
# 4 0.0000 0.0000 0.0000 26.8949 0.0000 0.0000
# 5 0.0000 0.0000 0.0000 0.0000 2.7595 0.0000
# 6 0.0000 0.0000 0.0000 0.0000 0.0000 14.7881
#
#
#
# Elastic Compliance Matrix: (Units=1/GPa)
#
#
# Indices 1 2 3 4 5 6 
#
# 1 0.007278 -0.003276 0.000297 0.000000 0.000000 0.000000
# 2 -0.003276 0.025085 -0.007647 0.000000 0.000000 0.000000
# 3 0.000297 -0.007647 0.013433 0.000000 0.000000 0.000000
# 4 0.000000 0.000000 0.000000 0.037182 0.000000 0.000000
# 5 0.000000 0.000000 0.000000 0.000000 0.362385 0.000000
# 6 0.000000 0.000000 0.000000 0.000000 0.000000 0.067622
#
#
# Mechanical properties :
#
#
# Convention : Reuss Voigt Hill
#
# Bulk Modulus (GPa) = 40.74368 45.49420 43.11894
# Shear Modulus (GPa) = 9.21798 24.15364 16.68581
#
# Velocity S-wave (km/s) = 2.06690 3.34574 2.78083
# Velocity P-wave (km/s) = 4.95769 6.00080 5.50401
#
# Compressibility (1/GPa) = 0.02454368
#
# Stress axis : x y z
#
# Youngs Moduli (GPa) = 137.40291 39.86453 74.44311
#
# Poissons Ratio (x) = 0.13060 -0.02212
# Poissons Ratio (y) = 0.45014 0.56928
# Poissons Ratio (z) = -0.04083 0.30485
#
# Static dielectric constant tensor:
#      x y z
#    x 1.897940 0.000000 0.000000 
#    y 0.000000 1.833730 0.000000 
#    z 0.000000 0.000000 1.757500 
# 
# From -- ./inp_files/44863.got.cif
#   From: 2010.05.17/outbox.cif.g08.bks.cpg/sg68_23_cif.got.tgz:44863.got - 2010.06.03 18:57:09.
