data_PCOD9506439
_publ_section_title
;
Structure prediction by ZEFSAII (Michael W. Deem and Ramdas Pophale) SiO2 
 PCOD9506439
Probable space group: C C C A
;
_chemical_formula_sum "Si O2"
_cell_formula_units_Z 64
_cell_length_a 9.234335
_cell_length_b 21.018406
_cell_length_c 13.792755
_cell_angle_alpha 90.000000
_cell_angle_beta 90.000000
_cell_angle_gamma 90.000000
_cell_volume 2677.049641
_symmetry_space_group_name_H-M "C C C A"
_symmetry_group_IT_number 68
_space_group.IT_coordinate_system_code '2'
_symmetry_cell_setting 'orthorhombic'
loop_
_space_group_symop_operation_xyz
x,y,z
-x,1/2-y,z
x,1/2-y,1/2-z
-x,y,1/2-z
-x,-y,-z
x,1/2+y,-z
-x,1/2+y,1/2+z
x,-y,1/2+z
1/2+x,1/2+y,z
1/2-x,-y,z
1/2+x,-y,1/2-z
1/2-x,1/2+y,1/2-z
1/2-x,1/2-y,-z
1/2+x,y,-z
1/2-x,y,1/2+z
1/2+x,1/2-y,1/2+z
loop_
_atom_site_type_symbol
_atom_site_label
_atom_site_fract_x
_atom_site_fract_y
_atom_site_fract_z
Si Si1 0.254149 0.812427 0.290453
Si Si2 0.372431 0.553828 0.047881
Si Si3 0.000000 0.899893 0.750000
Si Si4 0.396131 0.372336 0.049111
Si Si5 0.500000 0.250000 0.930608
O O1 0.180620 0.750000 0.250000
O O2 0.361093 0.855509 0.224918
O O3 0.135062 0.856966 0.339280
O O4 0.371682 0.779753 0.364560
O O5 0.250000 0.500000 0.050706
O O6 0.445294 0.563389 0.154197
O O7 0.266823 0.611965 0.016614
O O8 0.502488 0.566759 0.973006
O O9 0.447258 0.308709 0.996163
#
# Coordination Sequence:
#
# PCOD9506439 Si02
#       5
#    16  16   8  16   8
#     4  11  19  36  68 101 144 190 233 295 370 439
#     4  11  24  45  72 100 141 194 247 302 358 428
#     4  10  19  40  68  96 134 193 246 292 362 416
#     4  11  23  39  70 105 137 183 243 293 361 438
#     4  12  19  38  69 104 140 182 228 292 365 439
#
# _framework density 23.906917
#
# number of rings (size 3 to 8) (size 9 to 14) (size 15 to 20)
#    0.000    1.000    7.500    1.500    0.000    0.000 
#    0.000    4.375   11.000    0.000    0.000    0.000 
#    0.000    0.000    0.000    0.000    0.000    0.000 
#
# Total GULP energy -178323.216394 kJ/mol
# GULP energy per Si atom -5572.600512 kJ/mol
# Density = 2.385250 g / cm^3
# Si number density = 23.906917 Si / 1000 Ang^3
#
#
#
# Elastic Constant Matrix: (Units=GPa)
#
#
# Indices 1 2 3 4 5 6 
#
# 1 143.6030 73.5508 69.6729 0.0000 0.0000 0.0000
# 2 73.5508 94.4763 57.1740 0.0000 0.0000 0.0000
# 3 69.6729 57.1740 53.4896 0.0000 0.0000 0.0000
# 4 0.0000 0.0000 0.0000 28.0058 0.0000 0.0000
# 5 0.0000 0.0000 0.0000 0.0000 28.2754 0.0000
# 6 0.0000 0.0000 0.0000 0.0000 0.0000 48.0728
#
#
#
# Elastic Compliance Matrix: (Units=1/GPa)
#
#
# Indices 1 2 3 4 5 6 
#
# 1 0.018930 0.000523 -0.025217 0.000000 0.000000 0.000000
# 2 0.000523 0.029987 -0.032733 0.000000 0.000000 0.000000
# 3 -0.025217 -0.032733 0.086529 0.000000 0.000000 0.000000
# 4 0.000000 0.000000 0.000000 0.035707 0.000000 0.000000
# 5 0.000000 0.000000 0.000000 0.000000 0.035366 0.000000
# 6 0.000000 0.000000 0.000000 0.000000 0.000000 0.020802
#
#
# Mechanical properties :
#
#
# Convention : Reuss Voigt Hill
#
# Bulk Modulus (GPa) = 48.56226 76.92937 62.74581
# Shear Modulus (GPa) = 14.32506 26.94887 20.63696
#
# Velocity S-wave (km/s) = 2.45051 3.36108 2.94125
# Velocity P-wave (km/s) = 5.32577 6.87831 6.15122
#
# Compressibility (1/GPa) = 0.02059212
#
# Stress axis : x y z
#
# Youngs Moduli (GPa) = 52.82499 33.34809 11.55686
#
# Poissons Ratio (x) = -0.01743 0.29142
# Poissons Ratio (y) = -0.02761 0.37829
# Poissons Ratio (z) = 1.33206 1.09158
#
# Static dielectric constant tensor:
#      x y z
#    x 1.895310 0.000000 0.000000 
#    y 0.000000 2.056560 0.000000 
#    z 0.000000 0.000000 2.033550 
# 
# From -- ./inp_files/19286.got.cif
#   From: 2010.05.17/outbox.cif.g08.bks.cpg/sg68_10_cif.got.tgz:19286.got - 2010.06.03 18:57:09.
