data_PCOD9506064
_publ_section_title
;
Structure prediction by ZEFSAII (Michael W. Deem and Ramdas Pophale) SiO2 
 PCOD9506064
Probable space group: C C C A
;
_chemical_formula_sum "Si O2"
_cell_formula_units_Z 68
_cell_length_a 10.257380
_cell_length_b 14.891694
_cell_length_c 23.228785
_cell_angle_alpha 90.000000
_cell_angle_beta 90.000000
_cell_angle_gamma 90.000000
_cell_volume 3548.191431
_symmetry_space_group_name_H-M "C C C A"
_symmetry_group_IT_number 68
_space_group.IT_coordinate_system_code '2'
_symmetry_cell_setting 'orthorhombic'
loop_
_space_group_symop_operation_xyz
x,y,z
-x,1/2-y,z
x,1/2-y,1/2-z
-x,y,1/2-z
-x,-y,-z
x,1/2+y,-z
-x,1/2+y,1/2+z
x,-y,1/2+z
1/2+x,1/2+y,z
1/2-x,-y,z
1/2+x,-y,1/2-z
1/2-x,1/2+y,1/2-z
1/2-x,1/2-y,-z
1/2+x,y,-z
1/2-x,y,1/2+z
1/2+x,1/2-y,1/2+z
loop_
_atom_site_type_symbol
_atom_site_label
_atom_site_fract_x
_atom_site_fract_y
_atom_site_fract_z
Si Si1 0.113078 0.452393 0.079553
Si Si2 0.165712 0.370147 0.835421
Si Si3 0.500000 0.250000 0.250000
Si Si4 0.368003 0.074169 0.044932
Si Si5 0.054149 0.928063 0.686022
O O1 0.250000 0.500000 0.093130
O O2 0.005131 0.525609 0.059209
O O3 0.052204 0.409055 0.136530
O O4 0.132341 0.394540 0.021273
O O5 0.150965 0.355111 0.903906
O O6 0.106681 0.470059 0.824246
O O7 0.318060 0.368577 0.821693
O O8 0.088923 0.307461 0.792545
O O9 0.250000 0.000000 0.050038
O O10 0.000000 0.920831 0.750000
#
# Coordination Sequence:
#
# PCOD9506064 Si02
#       5
#    16  16   4  16  16
#     4   9  17  25  50  86 109 136 188 243 286 328
#     4  10  20  35  54  79 118 149 193 238 292 342
#     4  12  24  36  58  88 116 162 194 230 304 380
#     4   9  15  31  50  78 110 144 184 245 282 326
#     4  10  19  33  56  85 113 147 192 249 284 342
#
# _framework density 19.164694000000001
#
# number of rings (size 3 to 8) (size 9 to 14) (size 15 to 20)
#    0.000    2.353    5.882    0.000    3.294    0.000 
#    0.000    0.588    0.000    1.412    0.000    0.000 
#    0.000    0.000    0.000    0.000    0.000    0.000 
#
# Total GULP energy -189404.870340 kJ/mol
# GULP energy per Si atom -5570.731481 kJ/mol
# Density = 1.912107 g / cm^3
# Si number density = 19.164694 Si / 1000 Ang^3
#
#
#
# Elastic Constant Matrix: (Units=GPa)
#
#
# Indices 1 2 3 4 5 6 
#
# 1 152.4475 19.8410 80.4825 0.0000 0.0000 0.0000
# 2 19.8410 16.6351 26.3644 0.0000 0.0000 0.0000
# 3 80.4825 26.3644 241.3867 0.0000 0.0000 0.0000
# 4 0.0000 0.0000 0.0000 6.9430 0.0000 0.0000
# 5 0.0000 0.0000 0.0000 0.0000 82.6640 0.0000
# 6 0.0000 0.0000 0.0000 0.0000 0.0000 1.4780
#
#
#
# Elastic Compliance Matrix: (Units=1/GPa)
#
#
# Indices 1 2 3 4 5 6 
#
# 1 0.008566 -0.006882 -0.002105 0.000000 0.000000 0.000000
# 2 -0.006882 0.078227 -0.006249 0.000000 0.000000 0.000000
# 3 -0.002105 -0.006249 0.005527 0.000000 0.000000 0.000000
# 4 0.000000 0.000000 0.000000 0.144030 0.000000 0.000000
# 5 0.000000 0.000000 0.000000 0.000000 0.012097 0.000000
# 6 0.000000 0.000000 0.000000 0.000000 0.000000 0.676576
#
#
# Mechanical properties :
#
#
# Convention : Reuss Voigt Hill
#
# Bulk Modulus (GPa) = 16.16859 73.76058 44.96459
# Shear Modulus (GPa) = 5.12237 37.13577 21.12907
#
# Velocity S-wave (km/s) = 1.63665 4.40673 3.32399
# Velocity P-wave (km/s) = 3.46792 8.02892 6.18426
#
# Compressibility (1/GPa) = 0.06184831
#
# Stress axis : x y z
#
# Youngs Moduli (GPa) = 116.73551 12.78337 180.93053
#
# Poissons Ratio (x) = 0.08797 0.38077
# Poissons Ratio (y) = 0.80336 1.13071
# Poissons Ratio (z) = 0.24567 0.07989
#
# Static dielectric constant tensor:
#      x y z
#    x 1.665550 0.000000 0.000000 
#    y 0.000000 1.646920 0.000000 
#    z 0.000000 0.000000 1.744620 
# 
# From -- ./inp_files/48877.got.cif
#   From: 2010.05.17/outbox.cif.g08.bks.cpg/sg68_25_cif.got.tgz:48877.got - 2010.06.03 18:57:09.
