data_PCOD9506472
_publ_section_title
;
Structure prediction by ZEFSAII (Michael W. Deem and Ramdas Pophale) SiO2 
 PCOD9506472
Probable space group: C C C A
;
_chemical_formula_sum "Si O2"
_cell_formula_units_Z 112
_cell_length_a 19.347496
_cell_length_b 20.723533
_cell_length_c 15.476370
_cell_angle_alpha 90.000000
_cell_angle_beta 90.000000
_cell_angle_gamma 90.000000
_cell_volume 6205.226901
_symmetry_space_group_name_H-M "C C C A"
_symmetry_group_IT_number 68
_space_group.IT_coordinate_system_code '2'
_symmetry_cell_setting 'orthorhombic'
loop_
_space_group_symop_operation_xyz
x,y,z
-x,1/2-y,z
x,1/2-y,1/2-z
-x,y,1/2-z
-x,-y,-z
x,1/2+y,-z
-x,1/2+y,1/2+z
x,-y,1/2+z
1/2+x,1/2+y,z
1/2-x,-y,z
1/2+x,-y,1/2-z
1/2-x,1/2+y,1/2-z
1/2-x,1/2-y,-z
1/2+x,y,-z
1/2-x,y,1/2+z
1/2+x,1/2-y,1/2+z
loop_
_atom_site_type_symbol
_atom_site_label
_atom_site_fract_x
_atom_site_fract_y
_atom_site_fract_z
Si Si1 0.827036 0.983326 0.732915
Si Si2 0.415888 0.370879 0.483832
Si Si3 0.419769 0.231436 0.881250
Si Si4 0.610351 0.146776 0.784112
Si Si5 0.168651 0.004018 0.472310
Si Si6 0.955024 0.438433 0.074807
Si Si7 0.447757 0.937865 0.674023
O O1 0.836200 0.907079 0.751439
O O2 0.750000 0.000000 0.759049
O O3 0.837041 0.000316 0.631726
O O4 0.881422 0.025203 0.787435
O O5 0.398181 0.304528 0.531280
O O6 0.358923 0.425055 0.503838
O O7 0.487277 0.397918 0.525266
O O8 0.427402 0.375683 0.381627
O O9 0.500000 0.250000 0.889970
O O10 0.375870 0.293692 0.850094
O O11 0.416241 0.181213 0.801974
O O12 0.558900 0.102536 0.839087
O O13 0.115911 0.954683 0.521761
O O14 0.250000 0.000000 0.495505
O O15 0.980644 0.508262 0.108798
O O16 0.500000 0.923524 0.750000
#
# Coordination Sequence:
#
# PCOD9506472 Si02
#       7
#    16  16  16  16  16  16  16
#     4  10  20  35  57  84 114 153 189 235 295 348
#     4  11  20  33  53  82 114 145 188 235 289 344
#     4  11  21  33  55  86 113 148 185 237 291 333
#     4  10  20  32  54  85 115 142 182 233 287 343
#     4  10  20  35  53  80 116 153 187 238 294 349
#     4  10  20  30  52  81 114 145 181 236 291 352
#     4  10  20  31  52  80 113 147 187 237 289 341
#
# _framework density 18.049299000000001
#
# number of rings (size 3 to 8) (size 9 to 14) (size 15 to 20)
#    0.000    1.714    2.857    4.286    2.000    5.143 
#    0.000    0.000    0.000    3.857    0.000    0.000 
#    0.000    0.000    0.000    0.000    0.000    0.000 
#
# Total GULP energy -312046.497948 kJ/mol
# GULP energy per Si atom -5572.258892 kJ/mol
# Density = 1.800822 g / cm^3
# Si number density = 18.049299 Si / 1000 Ang^3
#
#
#
# Elastic Constant Matrix: (Units=GPa)
#
#
# Indices 1 2 3 4 5 6 
#
# 1 83.8889 16.9025 16.4014 0.0000 0.0000 0.0000
# 2 16.9025 80.4752 31.1025 0.0000 0.0000 0.0000
# 3 16.4014 31.1025 78.7147 0.0000 0.0000 0.0000
# 4 0.0000 0.0000 0.0000 30.9007 0.0000 0.0000
# 5 0.0000 0.0000 0.0000 0.0000 22.4681 0.0000
# 6 0.0000 0.0000 0.0000 0.0000 0.0000 17.5632
#
#
#
# Elastic Compliance Matrix: (Units=1/GPa)
#
#
# Indices 1 2 3 4 5 6 
#
# 1 0.012678 -0.001938 -0.001876 0.000000 0.000000 0.000000
# 2 -0.001938 0.014962 -0.005508 0.000000 0.000000 0.000000
# 3 -0.001876 -0.005508 0.015271 0.000000 0.000000 0.000000
# 4 0.000000 0.000000 0.000000 0.032362 0.000000 0.000000
# 5 0.000000 0.000000 0.000000 0.000000 0.044508 0.000000
# 6 0.000000 0.000000 0.000000 0.000000 0.000000 0.056937
#
#
# Mechanical properties :
#
#
# Convention : Reuss Voigt Hill
#
# Bulk Modulus (GPa) = 41.20741 41.32128 41.26434
# Shear Modulus (GPa) = 24.57598 26.09788 25.33693
#
# Velocity S-wave (km/s) = 3.69399 3.80665 3.75075
# Velocity P-wave (km/s) = 6.40891 6.50108 6.45516
#
# Compressibility (1/GPa) = 0.02426748
#
# Stress axis : x y z
#
# Youngs Moduli (GPa) = 78.87851 66.83597 65.48176
#
# Poissons Ratio (x) = 0.12951 0.12284
# Poissons Ratio (y) = 0.15284 0.36068
# Poissons Ratio (z) = 0.14797 0.36814
#
# Static dielectric constant tensor:
#      x y z
#    x 1.679170 0.000000 0.000000 
#    y 0.000000 1.645650 0.000000 
#    z 0.000000 0.000000 1.680410 
# 
# From -- ./inp_files/32238.got.cif
#   From: 2010.05.17/outbox.cif.g08.bks.cpg/sg68_17_cif.got.tgz:32238.got - 2010.06.03 18:57:09.
