data_PCOD9506934
_publ_section_title
;
Structure prediction by ZEFSAII (Michael W. Deem and Ramdas Pophale) SiO2 
 PCOD9506934
Probable space group: C C C A
;
_chemical_formula_sum "Si O2"
_cell_formula_units_Z 80
_cell_length_a 19.064692
_cell_length_b 15.387773
_cell_length_c 14.022763
_cell_angle_alpha 90.000000
_cell_angle_beta 90.000000
_cell_angle_gamma 90.000000
_cell_volume 4113.761965
_symmetry_space_group_name_H-M "C C C A"
_symmetry_group_IT_number 68
_space_group.IT_coordinate_system_code '2'
_symmetry_cell_setting 'orthorhombic'
loop_
_space_group_symop_operation_xyz
x,y,z
-x,1/2-y,z
x,1/2-y,1/2-z
-x,y,1/2-z
-x,-y,-z
x,1/2+y,-z
-x,1/2+y,1/2+z
x,-y,1/2+z
1/2+x,1/2+y,z
1/2-x,-y,z
1/2+x,-y,1/2-z
1/2-x,1/2+y,1/2-z
1/2-x,1/2-y,-z
1/2+x,y,-z
1/2-x,y,1/2+z
1/2+x,1/2-y,1/2+z
loop_
_atom_site_type_symbol
_atom_site_label
_atom_site_fract_x
_atom_site_fract_y
_atom_site_fract_z
Si Si1 0.691521 0.574887 0.103174
Si Si2 0.689190 0.071135 0.124444
Si Si3 0.926090 0.511948 0.224999
Si Si4 0.065933 0.700620 0.351783
Si Si5 0.221427 0.738281 0.394266
O O1 0.750000 0.500000 0.115022
O O2 0.623436 0.547489 0.161015
O O3 0.727412 0.662755 0.141948
O O4 0.675308 0.578148 0.989465
O O5 0.621407 0.043512 0.185369
O O6 0.716150 0.167180 0.153868
O O7 0.750000 0.000000 0.138792
O O8 0.947203 0.599874 0.168317
O O9 0.000000 0.468813 0.250000
O O10 0.074035 0.750000 0.250000
O O11 0.141164 0.706644 0.400560
O O12 0.000000 0.750000 0.399002
O O13 0.250000 0.750000 0.500000
#
# Coordination Sequence:
#
# PCOD9506934 Si02
#       5
#    16  16  16  16  16
#     4  10  21  37  60  88 119 158 203 248 302 368
#     4  10  22  38  59  89 114 154 211 252 295 360
#     4  12  22  36  59  88 126 159 195 254 316 363
#     4  11  19  33  58  92 115 146 200 256 308 357
#     4  10  20  37  61  85 116 156 201 251 302 361
#
# _framework density 19.446921
#
# number of rings (size 3 to 8) (size 9 to 14) (size 15 to 20)
#    0.000    1.400    6.000    0.600    0.000    0.800 
#    0.000    0.000    0.000    1.200    0.000    0.000 
#    0.000    0.000    0.000    0.000    0.000    0.000 
#
# Total GULP energy -223237.575305 kJ/mol
# GULP energy per Si atom -5580.939383 kJ/mol
# Density = 1.940266 g / cm^3
# Si number density = 19.446921 Si / 1000 Ang^3
#
#
#
# Elastic Constant Matrix: (Units=GPa)
#
#
# Indices 1 2 3 4 5 6 
#
# 1 168.0886 63.6285 55.8597 0.0000 0.0000 0.0000
# 2 63.6285 112.5752 23.9209 0.0000 0.0000 0.0000
# 3 55.8597 23.9209 79.1904 0.0000 0.0000 0.0000
# 4 0.0000 0.0000 0.0000 -7.4228 0.0000 0.0000
# 5 0.0000 0.0000 0.0000 0.0000 -90.9516 0.0000
# 6 0.0000 0.0000 0.0000 0.0000 0.0000 38.3771
#
#
#
# Elastic Compliance Matrix: (Units=1/GPa)
#
#
# Indices 1 2 3 4 5 6 
#
# 1 0.009265 -0.004112 -0.005293 0.000000 0.000000 0.000000
# 2 -0.004112 0.011317 -0.000518 0.000000 0.000000 0.000000
# 3 -0.005293 -0.000518 0.016518 0.000000 0.000000 0.000000
# 4 0.000000 0.000000 0.000000 -0.134721 0.000000 0.000000
# 5 0.000000 0.000000 0.000000 0.000000 -0.010995 0.000000
# 6 0.000000 0.000000 0.000000 0.000000 0.000000 0.026057
#
#
# Mechanical properties :
#
#
# Convention : Reuss Voigt Hill
#
# Bulk Modulus (GPa) = 57.95871 71.85249 64.90560
# Shear Modulus (GPa) = -87.77898 2.43023 -42.67438
#
# Velocity S-wave (km/s) = -6.72575 1.11910 -4.68953
# Velocity P-wave (km/s) = 5.51779 6.22078 2.03126
#
# Compressibility (1/GPa) = 0.01725366
#
# Stress axis : x y z
#
# Youngs Moduli (GPa) = 107.93573 88.36204 60.53985
#
# Poissons Ratio (x) = 0.36333 0.32045
# Poissons Ratio (y) = 0.44381 0.03137
# Poissons Ratio (z) = 0.57132 0.04578
#
# Static dielectric constant tensor:
#      x y z
#    x 1.705540 0.000000 0.000000 
#    y 0.000000 1.721620 0.000000 
#    z 0.000000 0.000000 1.710090 
# 
# From -- ./inp_files/30805.got.cif
#   From: 2010.05.17/outbox.cif.g08.bks.cpg/sg68_16_cif.got.tgz:30805.got - 2010.06.03 18:57:09.
