data_PCOD9506766
_publ_section_title
;
Structure prediction by ZEFSAII (Michael W. Deem and Ramdas Pophale) SiO2 
 PCOD9506766
Probable space group: C C C A
;
_chemical_formula_sum "Si O2"
_cell_formula_units_Z 68
_cell_length_a 7.062378
_cell_length_b 27.826062
_cell_length_c 13.858887
_cell_angle_alpha 90.000000
_cell_angle_beta 90.000000
_cell_angle_gamma 90.000000
_cell_volume 2723.523085
_symmetry_space_group_name_H-M "C C C A"
_symmetry_group_IT_number 68
_space_group.IT_coordinate_system_code '2'
_symmetry_cell_setting 'orthorhombic'
loop_
_space_group_symop_operation_xyz
x,y,z
-x,1/2-y,z
x,1/2-y,1/2-z
-x,y,1/2-z
-x,-y,-z
x,1/2+y,-z
-x,1/2+y,1/2+z
x,-y,1/2+z
1/2+x,1/2+y,z
1/2-x,-y,z
1/2+x,-y,1/2-z
1/2-x,1/2+y,1/2-z
1/2-x,1/2-y,-z
1/2+x,y,-z
1/2-x,y,1/2+z
1/2+x,1/2-y,1/2+z
loop_
_atom_site_type_symbol
_atom_site_label
_atom_site_fract_x
_atom_site_fract_y
_atom_site_fract_z
Si Si1 0.804115 0.176402 0.187273
Si Si2 0.097192 0.104058 0.473655
Si Si3 0.000000 0.015956 0.250000
Si Si4 0.000000 0.250000 0.750000
Si Si5 0.750000 0.000000 0.088570
Si Si6 0.734305 0.594904 0.662579
O O1 0.825612 0.151890 0.081281
O O2 0.646655 0.217700 0.188465
O O3 0.729376 0.133610 0.254619
O O4 0.000000 0.189518 0.250000
O O5 0.188977 0.050102 0.459498
O O6 0.066150 0.105223 0.588255
O O7 0.901485 0.102352 0.415152
O O8 0.933418 0.989078 0.155058
O O9 0.820794 0.048570 0.282477
#
# Coordination Sequence:
#
# PCOD9506766 Si02
#       6
#    16  16   8   4   8  16
#     4  10  22  47  65  94 139 168 215 290 336 401
#     4  10  22  37  64  91 130 176 216 268 334 389
#     4  10  20  37  58  87 132 179 209 270 334 362
#     4  12  26  38  80 102 108 182 232 264 376 404
#     4  10  20  36  56  98 122 174 228 260 318 400
#     4  10  20  41  62  87 131 178 205 272 340 380
#
# _framework density 24.967661
#
# number of rings (size 3 to 8) (size 9 to 14) (size 15 to 20)
#    0.000    1.882    5.882    0.353    3.294    7.529 
#    0.000    1.176    0.000    0.000    0.000    0.000 
#    0.000    0.000    0.000    0.000    0.000    0.000 
#
# Total GULP energy -189307.379553 kJ/mol
# GULP energy per Si atom -5567.864104 kJ/mol
# Density = 2.491083 g / cm^3
# Si number density = 24.967661 Si / 1000 Ang^3
#
#
#
# Elastic Constant Matrix: (Units=GPa)
#
#
# Indices 1 2 3 4 5 6 
#
# 1 97.7627 47.7172 6.8479 0.0000 0.0000 0.0000
# 2 47.7172 111.0887 39.9576 0.0000 0.0000 0.0000
# 3 6.8479 39.9576 91.4651 0.0000 0.0000 0.0000
# 4 0.0000 0.0000 0.0000 21.6259 0.0000 0.0000
# 5 0.0000 0.0000 0.0000 0.0000 43.2999 0.0000
# 6 0.0000 0.0000 0.0000 0.0000 0.0000 31.7420
#
#
#
# Elastic Compliance Matrix: (Units=1/GPa)
#
#
# Indices 1 2 3 4 5 6 
#
# 1 0.013178 -0.006295 0.001763 0.000000 0.000000 0.000000
# 2 -0.006295 0.013687 -0.005508 0.000000 0.000000 0.000000
# 3 0.001763 -0.005508 0.013207 0.000000 0.000000 0.000000
# 4 0.000000 0.000000 0.000000 0.046241 0.000000 0.000000
# 5 0.000000 0.000000 0.000000 0.000000 0.023095 0.000000
# 6 0.000000 0.000000 0.000000 0.000000 0.000000 0.031504
#
#
# Mechanical properties :
#
#
# Convention : Reuss Voigt Hill
#
# Bulk Modulus (GPa) = 50.01695 54.37354 52.19524
# Shear Modulus (GPa) = 29.82326 33.05315 31.43821
#
# Velocity S-wave (km/s) = 3.45987 3.64241 3.55231
# Velocity P-wave (km/s) = 6.00309 6.28604 6.14620
#
# Compressibility (1/GPa) = 0.01999322
#
# Stress axis : x y z
#
# Youngs Moduli (GPa) = 75.88586 73.06322 75.71555
#
# Poissons Ratio (x) = 0.45990 -0.13351
# Poissons Ratio (y) = 0.47767 0.41704
# Poissons Ratio (z) = -0.13381 0.40243
#
# Static dielectric constant tensor:
#      x y z
#    x 2.717090 0.000000 0.000000 
#    y 0.000000 1.977850 0.000000 
#    z 0.000000 0.000000 2.138700 
# 
# From -- ./inp_files/19429.got.cif
#   From: 2010.05.17/outbox.cif.g08.bks.cpg/sg68_10_cif.got.tgz:19429.got - 2010.06.03 18:57:09.
