data_PCOD9506243
_publ_section_title
;
Structure prediction by ZEFSAII (Michael W. Deem and Ramdas Pophale) SiO2 
 PCOD9506243
Probable space group: C C C A
;
_chemical_formula_sum "Si O2"
_cell_formula_units_Z 88
_cell_length_a 12.281839
_cell_length_b 17.781154
_cell_length_c 22.224554
_cell_angle_alpha 90.000000
_cell_angle_beta 90.000000
_cell_angle_gamma 90.000000
_cell_volume 4853.515241
_symmetry_space_group_name_H-M "C C C A"
_symmetry_group_IT_number 68
_space_group.IT_coordinate_system_code '2'
_symmetry_cell_setting 'orthorhombic'
loop_
_space_group_symop_operation_xyz
x,y,z
-x,1/2-y,z
x,1/2-y,1/2-z
-x,y,1/2-z
-x,-y,-z
x,1/2+y,-z
-x,1/2+y,1/2+z
x,-y,1/2+z
1/2+x,1/2+y,z
1/2-x,-y,z
1/2+x,-y,1/2-z
1/2-x,1/2+y,1/2-z
1/2-x,1/2-y,-z
1/2+x,y,-z
1/2-x,y,1/2+z
1/2+x,1/2-y,1/2+z
loop_
_atom_site_type_symbol
_atom_site_label
_atom_site_fract_x
_atom_site_fract_y
_atom_site_fract_z
Si Si1 0.989825 0.060127 0.910669
Si Si2 0.295210 0.738063 0.185505
Si Si3 0.065226 0.178172 0.686021
Si Si4 0.234075 0.583640 0.126834
Si Si5 0.000000 0.250000 0.401203
Si Si6 0.443701 0.404896 0.547024
O O1 0.115416 0.084892 0.902425
O O2 0.935554 0.104184 0.855382
O O3 0.992200 0.969576 0.915541
O O4 0.945275 0.082071 0.975990
O O5 0.348982 0.750000 0.250000
O O6 0.188858 0.791721 0.188943
O O7 0.253210 0.653191 0.171699
O O8 0.389008 0.754169 0.137381
O O9 0.000000 0.250000 0.658289
O O10 0.000000 0.165400 0.750000
O O11 0.250000 0.500000 0.154626
O O12 0.322880 0.591425 0.074260
O O13 0.006624 0.175453 0.440110
#
# Coordination Sequence:
#
# PCOD9506243 Si02
#       6
#    16  16  16  16   8  16
#     4  10  19  36  58  82 112 143 182 238 281 323
#     4  11  20  37  57  79 111 146 183 230 276 328
#     4  11  20  35  59  89 110 137 183 240 282 324
#     4   9  18  34  55  78 107 146 185 225 276 333
#     4  10  23  38  54  78 113 152 188 218 270 350
#     4   9  21  36  54  81 113 147 188 224 274 338
#
# _framework density 18.131188999999999
#
# number of rings (size 3 to 8) (size 9 to 14) (size 15 to 20)
#    0.000    2.000    3.636    0.273    1.273    1.455 
#    0.000   13.636    0.000    0.000    0.000    0.000 
#    0.000    0.000    0.000    0.000    0.000    0.000 
#
# Total GULP energy -244967.776646 kJ/mol
# GULP energy per Si atom -5567.449469 kJ/mol
# Density = 1.808992 g / cm^3
# Si number density = 18.131189 Si / 1000 Ang^3
#
#
#
# Elastic Constant Matrix: (Units=GPa)
#
#
# Indices 1 2 3 4 5 6 
#
# 1 60.3039 33.6968 11.7867 0.0000 0.0000 0.0000
# 2 33.6968 126.8412 54.0841 0.0000 0.0000 0.0000
# 3 11.7867 54.0841 62.1326 0.0000 0.0000 0.0000
# 4 0.0000 0.0000 0.0000 14.8806 0.0000 0.0000
# 5 0.0000 0.0000 0.0000 0.0000 7.6937 0.0000
# 6 0.0000 0.0000 0.0000 0.0000 0.0000 16.3300
#
#
#
# Elastic Compliance Matrix: (Units=1/GPa)
#
#
# Indices 1 2 3 4 5 6 
#
# 1 0.019538 -0.005741 0.001291 0.000000 0.000000 0.000000
# 2 -0.005741 0.014224 -0.011292 0.000000 0.000000 0.000000
# 3 0.001291 -0.011292 0.025679 0.000000 0.000000 0.000000
# 4 0.000000 0.000000 0.000000 0.067202 0.000000 0.000000
# 5 0.000000 0.000000 0.000000 0.000000 0.129976 0.000000
# 6 0.000000 0.000000 0.000000 0.000000 0.000000 0.061237
#
#
# Mechanical properties :
#
#
# Convention : Reuss Voigt Hill
#
# Bulk Modulus (GPa) = 35.76967 49.82362 42.79665
# Shear Modulus (GPa) = 13.94076 17.76154 15.85115
#
# Velocity S-wave (km/s) = 2.77588 3.13327 2.95998
# Velocity P-wave (km/s) = 5.48134 6.37409 5.94450
#
# Compressibility (1/GPa) = 0.02795664
#
# Stress axis : x y z
#
# Youngs Moduli (GPa) = 51.18140 70.30363 38.94185
#
# Poissons Ratio (x) = 0.40361 -0.05027
# Poissons Ratio (y) = 0.29383 0.43975
# Poissons Ratio (z) = -0.06607 0.79390
#
# Static dielectric constant tensor:
#      x y z
#    x 1.625600 0.000000 0.000000 
#    y 0.000000 1.643790 0.000000 
#    z 0.000000 0.000000 1.617260 
# 
# From -- ./inp_files/37433.got.cif
#   From: 2010.05.17/outbox.cif.g08.bks.cpg/sg68_19_cif.got.tgz:37433.got - 2010.06.03 18:57:09.
