data_PCOD9506089
_publ_section_title
;
Structure prediction by ZEFSAII (Michael W. Deem and Ramdas Pophale) SiO2 
 PCOD9506089
Probable space group: C C C A
;
_chemical_formula_sum "Si O2"
_cell_formula_units_Z 88
_cell_length_a 28.062415
_cell_length_b 20.131188
_cell_length_c 8.203639
_cell_angle_alpha 90.000000
_cell_angle_beta 90.000000
_cell_angle_gamma 90.000000
_cell_volume 4634.479747
_symmetry_space_group_name_H-M "C C C A"
_symmetry_group_IT_number 68
_space_group.IT_coordinate_system_code '2'
_symmetry_cell_setting 'orthorhombic'
loop_
_space_group_symop_operation_xyz
x,y,z
-x,1/2-y,z
x,1/2-y,1/2-z
-x,y,1/2-z
-x,-y,-z
x,1/2+y,-z
-x,1/2+y,1/2+z
x,-y,1/2+z
1/2+x,1/2+y,z
1/2-x,-y,z
1/2+x,-y,1/2-z
1/2-x,1/2+y,1/2-z
1/2-x,1/2-y,-z
1/2+x,y,-z
1/2-x,y,1/2+z
1/2+x,1/2-y,1/2+z
loop_
_atom_site_type_symbol
_atom_site_label
_atom_site_fract_x
_atom_site_fract_y
_atom_site_fract_z
Si Si1 0.785752 0.203753 0.397218
Si Si2 0.615709 0.823984 0.550725
Si Si3 0.250000 0.000000 0.838485
Si Si4 0.944905 0.331120 0.260195
Si Si5 0.110055 0.335479 0.915617
Si Si6 0.289649 0.904725 0.605002
O O1 0.805498 0.250000 0.250000
O O2 0.750000 0.250000 0.500000
O O3 0.828211 0.172260 0.504241
O O4 0.751254 0.145793 0.335875
O O5 0.585725 0.851147 0.398381
O O6 0.599200 0.852227 0.725823
O O7 0.609708 0.744379 0.569462
O O8 0.291260 0.964835 0.733410
O O9 0.228064 0.942410 0.946317
O O10 0.943739 0.250000 0.250000
O O11 0.922297 0.355791 0.430717
O O12 0.000000 0.350996 0.250000
O O13 0.163001 0.364359 0.932462
#
# Coordination Sequence:
#
# PCOD9506089 Si02
#       6
#    16  16   8  16  16  16
#     4  12  21  31  53  84 115 150 190 242 295 345
#     4  10  20  31  50  86 114 148 183 225 292 347
#     4  10  24  38  50  70 114 162 206 232 282 340
#     4   9  19  34  52  79 118 155 184 224 288 361
#     4  10  19  34  53  78 114 143 190 235 280 346
#     4  11  22  37  52  77 112 156 196 238 282 348
#
# _framework density 18.988106999999999
#
# number of rings (size 3 to 8) (size 9 to 14) (size 15 to 20)
#    0.000    1.636    1.818    4.909    2.545    0.727 
#    0.000    3.636    0.000    0.000    0.000    1.273 
#    0.000    0.000    0.000    0.000    0.000    0.000 
#
# Total GULP energy -245246.084119 kJ/mol
# GULP energy per Si atom -5573.774639 kJ/mol
# Density = 1.894489 g / cm^3
# Si number density = 18.988107 Si / 1000 Ang^3
#
#
#
# Elastic Constant Matrix: (Units=GPa)
#
#
# Indices 1 2 3 4 5 6 
#
# 1 105.9605 2.1771 81.4091 0.0000 0.0000 0.0000
# 2 2.1771 33.6257 26.1512 0.0000 0.0000 0.0000
# 3 81.4091 26.1512 164.4337 0.0000 0.0000 0.0000
# 4 0.0000 0.0000 0.0000 16.2874 0.0000 0.0000
# 5 0.0000 0.0000 0.0000 0.0000 17.9644 0.0000
# 6 0.0000 0.0000 0.0000 0.0000 0.0000 1.4536
#
#
#
# Elastic Compliance Matrix: (Units=1/GPa)
#
#
# Indices 1 2 3 4 5 6 
#
# 1 0.016202 0.005922 -0.008963 0.000000 0.000000 0.000000
# 2 0.005922 0.036101 -0.008673 0.000000 0.000000 0.000000
# 3 -0.008963 -0.008673 0.011899 0.000000 0.000000 0.000000
# 4 0.000000 0.000000 0.000000 0.061397 0.000000 0.000000
# 5 0.000000 0.000000 0.000000 0.000000 0.055666 0.000000
# 6 0.000000 0.000000 0.000000 0.000000 0.000000 0.687951
#
#
# Mechanical properties :
#
#
# Convention : Reuss Voigt Hill
#
# Bulk Modulus (GPa) = 24.52636 58.16607 41.34622
# Shear Modulus (GPa) = 5.51732 20.09323 12.80528
#
# Velocity S-wave (km/s) = 1.70645 3.25653 2.59971
# Velocity P-wave (km/s) = 4.10212 6.69622 5.55278
#
# Compressibility (1/GPa) = 0.04077246
#
# Stress axis : x y z
#
# Youngs Moduli (GPa) = 61.71931 27.69997 84.04382
#
# Poissons Ratio (x) = -0.16404 0.75332
# Poissons Ratio (y) = -0.36550 0.72894
# Poissons Ratio (z) = 0.55322 0.24025
#
# Static dielectric constant tensor:
#      x y z
#    x 1.651680 0.000000 0.000000 
#    y 0.000000 1.485130 0.000000 
#    z 0.000000 0.000000 1.749070 
# 
# From -- ./inp_files/7997.got.cif
#   From: 2010.05.17/outbox.cif.g08.bks.cpg/sg68_4_cif.got.tgz:7997.got - 2010.06.03 18:57:09.
