data_PCOD9506148
_publ_section_title
;
Structure prediction by ZEFSAII (Michael W. Deem and Ramdas Pophale) SiO2 
 PCOD9506148
Probable space group: C C C A
;
_chemical_formula_sum "Si O2"
_cell_formula_units_Z 80
_cell_length_a 13.641529
_cell_length_b 17.687070
_cell_length_c 13.971344
_cell_angle_alpha 90.000000
_cell_angle_beta 90.000000
_cell_angle_gamma 90.000000
_cell_volume 3370.987415
_symmetry_space_group_name_H-M "C C C A"
_symmetry_group_IT_number 68
_space_group.IT_coordinate_system_code '2'
_symmetry_cell_setting 'orthorhombic'
loop_
_space_group_symop_operation_xyz
x,y,z
-x,1/2-y,z
x,1/2-y,1/2-z
-x,y,1/2-z
-x,-y,-z
x,1/2+y,-z
-x,1/2+y,1/2+z
x,-y,1/2+z
1/2+x,1/2+y,z
1/2-x,-y,z
1/2+x,-y,1/2-z
1/2-x,1/2+y,1/2-z
1/2-x,1/2-y,-z
1/2+x,y,-z
1/2-x,y,1/2+z
1/2+x,1/2-y,1/2+z
loop_
_atom_site_type_symbol
_atom_site_label
_atom_site_fract_x
_atom_site_fract_y
_atom_site_fract_z
Si Si1 0.841082 0.558114 0.566426
Si Si2 0.128428 0.882363 0.353947
Si Si3 0.885604 0.221905 0.351374
Si Si4 0.598190 0.581652 0.649819
Si Si5 0.881801 0.231364 0.943065
O O1 0.750000 0.500000 0.586262
O O2 0.841530 0.578623 0.453974
O O3 0.866217 0.633018 0.627882
O O4 0.921952 0.497922 0.599726
O O5 0.154143 0.919584 0.251957
O O6 0.153897 0.794397 0.368092
O O7 0.011081 0.885280 0.345242
O O8 0.845473 0.250000 0.250000
O O9 0.846160 0.258033 0.448994
O O10 0.000000 0.250000 0.349392
O O11 0.647682 0.647256 0.587007
O O12 0.000000 0.250000 0.948505
#
# Coordination Sequence:
#
# PCOD9506148 Si02
#       5
#    16  16  16  16  16
#     4  11  24  39  55  89 130 162 205 271 339 388
#     4   9  19  35  57  84 115 155 208 263 320 388
#     4   9  19  37  62  88 121 171 225 268 315 389
#     4  10  19  34  61  87 112 158 212 264 315 381
#     4   8  15  31  55  85 114 143 196 263 316 366
#
# _framework density 23.731918
#
# number of rings (size 3 to 8) (size 9 to 14) (size 15 to 20)
#    0.000    2.600    0.000    2.400    0.000    8.000 
#    0.000    6.000    0.000    0.000    0.000    0.000 
#    0.000    0.000    0.000    0.000    0.000    0.000 
#
# Total GULP energy -222712.222349 kJ/mol
# GULP energy per Si atom -5567.805559 kJ/mol
# Density = 2.367790 g / cm^3
# Si number density = 23.731918 Si / 1000 Ang^3
#
#
#
# Elastic Constant Matrix: (Units=GPa)
#
#
# Indices 1 2 3 4 5 6 
#
# 1 80.2329 9.9153 8.4301 0.0000 0.0000 0.0000
# 2 9.9153 213.1138 117.6706 0.0000 0.0000 0.0000
# 3 8.4301 117.6706 195.0829 0.0000 0.0000 0.0000
# 4 0.0000 0.0000 0.0000 38.9053 0.0000 0.0000
# 5 0.0000 0.0000 0.0000 0.0000 23.5873 0.0000
# 6 0.0000 0.0000 0.0000 0.0000 0.0000 26.0443
#
#
#
# Elastic Compliance Matrix: (Units=1/GPa)
#
#
# Indices 1 2 3 4 5 6 
#
# 1 0.012546 -0.000426 -0.000285 0.000000 0.000000 0.000000
# 2 -0.000426 0.007050 -0.004234 0.000000 0.000000 0.000000
# 3 -0.000285 -0.004234 0.007692 0.000000 0.000000 0.000000
# 4 0.000000 0.000000 0.000000 0.025703 0.000000 0.000000
# 5 0.000000 0.000000 0.000000 0.000000 0.042396 0.000000
# 6 0.000000 0.000000 0.000000 0.000000 0.000000 0.038396
#
#
# Mechanical properties :
#
#
# Convention : Reuss Voigt Hill
#
# Bulk Modulus (GPa) = 57.47846 84.49575 70.98710
# Shear Modulus (GPa) = 33.45071 41.20163 37.32617
#
# Velocity S-wave (km/s) = 3.75844 4.17121 3.97019
# Velocity P-wave (km/s) = 6.56559 7.67334 7.14098
#
# Compressibility (1/GPa) = 0.01739782
#
# Stress axis : x y z
#
# Youngs Moduli (GPa) = 79.70447 141.84486 130.00173
#
# Poissons Ratio (x) = 0.06048 0.03705
# Poissons Ratio (y) = 0.03398 0.55043
# Poissons Ratio (z) = 0.02271 0.60057
#
# Static dielectric constant tensor:
#      x y z
#    x 2.294390 0.000000 0.000000 
#    y 0.000000 2.085000 0.000000 
#    z 0.000000 0.000000 1.962930 
# 
# From -- ./inp_files/23482.got.cif
#   From: 2010.05.17/outbox.cif.g08.bks.cpg/sg68_12_cif.got.tgz:23482.got - 2010.06.03 18:57:09.
