data_PCOD9506861
_publ_section_title
;
Structure prediction by ZEFSAII (Michael W. Deem and Ramdas Pophale) SiO2 
 PCOD9506861
Probable space group: C C C A
;
_chemical_formula_sum "Si O2"
_cell_formula_units_Z 60
_cell_length_a 12.347261
_cell_length_b 16.878788
_cell_length_c 12.804209
_cell_angle_alpha 90.000000
_cell_angle_beta 90.000000
_cell_angle_gamma 90.000000
_cell_volume 2668.484234
_symmetry_space_group_name_H-M "C C C A"
_symmetry_group_IT_number 68
_space_group.IT_coordinate_system_code '2'
_symmetry_cell_setting 'orthorhombic'
loop_
_space_group_symop_operation_xyz
x,y,z
-x,1/2-y,z
x,1/2-y,1/2-z
-x,y,1/2-z
-x,-y,-z
x,1/2+y,-z
-x,1/2+y,1/2+z
x,-y,1/2+z
1/2+x,1/2+y,z
1/2-x,-y,z
1/2+x,-y,1/2-z
1/2-x,1/2+y,1/2-z
1/2-x,1/2-y,-z
1/2+x,y,-z
1/2-x,y,1/2+z
1/2+x,1/2-y,1/2+z
loop_
_atom_site_type_symbol
_atom_site_label
_atom_site_fract_x
_atom_site_fract_y
_atom_site_fract_z
Si Si1 0.147183 0.620270 0.147315
Si Si2 0.448428 0.370487 0.926575
Si Si3 0.335734 0.714834 0.083394
Si Si4 0.500000 0.504920 0.250000
Si Si5 0.000000 0.750000 0.250000
O O1 0.268990 0.652856 0.153643
O O2 0.102311 0.549954 0.218502
O O3 0.074781 0.695345 0.179277
O O4 0.118934 0.601434 0.026986
O O5 0.564129 0.334645 0.963389
O O6 0.388144 0.295531 0.872479
O O7 0.468860 0.440183 0.846634
O O8 0.250000 0.750000 0.000000
#
# Coordination Sequence:
#
# PCOD9506861 Si02
#       5
#    16  16  16   8   4
#     4  10  21  40  62  89 123 161 209 258 312 377
#     4  10  21  40  61  91 127 163 210 268 317 370
#     4   9  19  38  65  87 117 167 216 261 310 371
#     4  11  24  38  60  91 132 168 196 259 330 380
#     4  10  20  36  64  90 112 158 216 262 296 360
#
# _framework density 22.484673000000001
#
# number of rings (size 3 to 8) (size 9 to 14) (size 15 to 20)
#    0.000    2.133    0.000    4.000    0.000    5.333 
#    0.000   10.667    0.000    0.000    0.000    0.000 
#    0.000    0.000    0.000    0.000    0.000    0.000 
#
# Total GULP energy -167592.980809 kJ/mol
# GULP energy per Si atom -5586.432694 kJ/mol
# Density = 2.243350 g / cm^3
# Si number density = 22.484673 Si / 1000 Ang^3
#
#
#
# Elastic Constant Matrix: (Units=GPa)
#
#
# Indices 1 2 3 4 5 6 
#
# 1 108.0901 34.6937 12.3490 0.0000 0.0000 0.0000
# 2 34.6937 114.0904 29.6062 0.0000 0.0000 0.0000
# 3 12.3490 29.6062 69.4669 0.0000 0.0000 0.0000
# 4 0.0000 0.0000 0.0000 28.6588 0.0000 0.0000
# 5 0.0000 0.0000 0.0000 0.0000 25.4187 0.0000
# 6 0.0000 0.0000 0.0000 0.0000 0.0000 29.9103
#
#
#
# Elastic Compliance Matrix: (Units=1/GPa)
#
#
# Indices 1 2 3 4 5 6 
#
# 1 0.010271 -0.002979 -0.000556 0.000000 0.000000 0.000000
# 2 -0.002979 0.010719 -0.004039 0.000000 0.000000 0.000000
# 3 -0.000556 -0.004039 0.016216 0.000000 0.000000 0.000000
# 4 0.000000 0.000000 0.000000 0.034893 0.000000 0.000000
# 5 0.000000 0.000000 0.000000 0.000000 0.039341 0.000000
# 6 0.000000 0.000000 0.000000 0.000000 0.000000 0.033433
#
#
# Mechanical properties :
#
#
# Convention : Reuss Voigt Hill
#
# Bulk Modulus (GPa) = 45.33579 49.43836 47.38708
# Shear Modulus (GPa) = 29.87322 31.13080 30.50201
#
# Velocity S-wave (km/s) = 3.64896 3.72497 3.68716
# Velocity P-wave (km/s) = 6.16116 6.36678 6.26481
#
# Compressibility (1/GPa) = 0.02205763
#
# Stress axis : x y z
#
# Youngs Moduli (GPa) = 97.35892 93.29305 61.66934
#
# Poissons Ratio (x) = 0.27792 0.03430
# Poissons Ratio (y) = 0.29004 0.24907
# Poissons Ratio (z) = 0.05416 0.37679
#
# Static dielectric constant tensor:
#      x y z
#    x 1.855440 0.000000 0.000000 
#    y 0.000000 1.827950 0.000000 
#    z 0.000000 0.000000 1.876980 
# 
# From -- ./inp_files/20356.got.cif
#   From: 2010.05.17/outbox.cif.g08.bks.cpg/sg68_11_cif.got.tgz:20356.got - 2010.06.03 18:57:09.
