data_PCOD9506212
_publ_section_title
;
Structure prediction by ZEFSAII (Michael W. Deem and Ramdas Pophale) SiO2 
 PCOD9506212
Probable space group: C C C A
;
_chemical_formula_sum "Si O2"
_cell_formula_units_Z 96
_cell_length_a 13.664704
_cell_length_b 19.404618
_cell_length_c 17.268341
_cell_angle_alpha 90.000000
_cell_angle_beta 90.000000
_cell_angle_gamma 90.000000
_cell_volume 4578.845000
_symmetry_space_group_name_H-M "C C C A"
_symmetry_group_IT_number 68
_space_group.IT_coordinate_system_code '2'
_symmetry_cell_setting 'orthorhombic'
loop_
_space_group_symop_operation_xyz
x,y,z
-x,1/2-y,z
x,1/2-y,1/2-z
-x,y,1/2-z
-x,-y,-z
x,1/2+y,-z
-x,1/2+y,1/2+z
x,-y,1/2+z
1/2+x,1/2+y,z
1/2-x,-y,z
1/2+x,-y,1/2-z
1/2-x,1/2+y,1/2-z
1/2-x,1/2-y,-z
1/2+x,y,-z
1/2-x,y,1/2+z
1/2+x,1/2-y,1/2+z
loop_
_atom_site_type_symbol
_atom_site_label
_atom_site_fract_x
_atom_site_fract_y
_atom_site_fract_z
Si Si1 0.000610 0.517302 0.870365
Si Si2 0.804417 0.430913 0.200232
Si Si3 0.692292 0.940491 0.640555
Si Si4 0.235003 0.682138 0.416920
Si Si5 0.878732 0.691512 0.450702
Si Si6 0.935763 0.604628 0.014408
O O1 0.909753 0.476060 0.832329
O O2 0.048111 0.458187 0.925339
O O3 0.081883 0.553092 0.816857
O O4 0.959749 0.574706 0.930019
O O5 0.750000 0.500000 0.170343
O O6 0.762161 0.422952 0.287160
O O7 0.770368 0.363845 0.153841
O O8 0.665390 0.876359 0.589183
O O9 0.750000 0.000000 0.594461
O O10 0.161636 0.745269 0.399111
O O11 0.328824 0.705729 0.466144
O O12 0.171673 0.633199 0.473038
O O13 0.989952 0.667603 0.464933
#
# Coordination Sequence:
#
# PCOD9506212 Si02
#       6
#    16  16  16  16  16  16
#     4  10  20  37  61  92 118 157 207 253 312 370
#     4  11  22  38  60  89 123 167 204 258 315 375
#     4  10  23  39  60  88 124 164 205 254 310 385
#     4  11  21  37  61  87 125 158 205 261 315 375
#     4  10  22  38  58  92 119 160 207 258 317 372
#     4  10  19  35  63  87 119 155 202 264 304 368
#
# _framework density 20.965986000000001
#
# number of rings (size 3 to 8) (size 9 to 14) (size 15 to 20)
#    0.000    1.667    3.333    1.500    0.000    4.000 
#    0.000    0.000    0.000    2.000    0.000    4.667 
#    0.000    0.000    0.000    0.000    0.000    0.000 
#
# Total GULP energy -267722.178193 kJ/mol
# GULP energy per Si atom -5577.545379 kJ/mol
# Density = 2.091827 g / cm^3
# Si number density = 20.965986 Si / 1000 Ang^3
#
#
#
# Elastic Constant Matrix: (Units=GPa)
#
#
# Indices 1 2 3 4 5 6 
#
# 1 92.4320 0.2276 20.7029 0.0000 0.0000 0.0000
# 2 0.2276 76.4123 3.1556 0.0000 0.0000 0.0000
# 3 20.7029 3.1556 49.6158 0.0000 0.0000 0.0000
# 4 0.0000 0.0000 0.0000 26.6795 0.0000 0.0000
# 5 0.0000 0.0000 0.0000 0.0000 26.1504 0.0000
# 6 0.0000 0.0000 0.0000 0.0000 0.0000 33.3877
#
#
#
# Elastic Compliance Matrix: (Units=1/GPa)
#
#
# Indices 1 2 3 4 5 6 
#
# 1 0.011936 0.000171 -0.004991 0.000000 0.000000 0.000000
# 2 0.000171 0.013124 -0.000906 0.000000 0.000000 0.000000
# 3 -0.004991 -0.000906 0.022295 0.000000 0.000000 0.000000
# 4 0.000000 0.000000 0.000000 0.037482 0.000000 0.000000
# 5 0.000000 0.000000 0.000000 0.000000 0.038240 0.000000
# 6 0.000000 0.000000 0.000000 0.000000 0.000000 0.029951
#
#
# Mechanical properties :
#
#
# Convention : Reuss Voigt Hill
#
# Bulk Modulus (GPa) = 27.85367 29.62580 28.73973
# Shear Modulus (GPa) = 28.33670 30.20179 29.26924
#
# Velocity S-wave (km/s) = 3.68034 3.79953 3.74041
# Velocity P-wave (km/s) = 5.60124 5.78011 5.69138
#
# Compressibility (1/GPa) = 0.03590191
#
# Stress axis : x y z
#
# Youngs Moduli (GPa) = 83.77781 76.19744 44.85264
#
# Poissons Ratio (x) = -0.01300 0.22388
# Poissons Ratio (y) = -0.01429 0.04063
# Poissons Ratio (z) = 0.41817 0.06902
#
# Static dielectric constant tensor:
#      x y z
#    x 1.820380 0.000000 0.000000 
#    y 0.000000 1.776280 0.000000 
#    z 0.000000 0.000000 1.753400 
# 
# From -- ./inp_files/37661.got.cif
#   From: 2010.05.17/outbox.cif.g08.bks.cpg/sg68_19_cif.got.tgz:37661.got - 2010.06.03 18:57:09.
