data_PCOD9506850
_publ_section_title
;
Structure prediction by ZEFSAII (Michael W. Deem and Ramdas Pophale) SiO2 
 PCOD9506850
Probable space group: C C C A
;
_chemical_formula_sum "Si O2"
_cell_formula_units_Z 112
_cell_length_a 17.653399
_cell_length_b 13.721398
_cell_length_c 21.610415
_cell_angle_alpha 90.000000
_cell_angle_beta 90.000000
_cell_angle_gamma 90.000000
_cell_volume 5234.675995
_symmetry_space_group_name_H-M "C C C A"
_symmetry_group_IT_number 68
_space_group.IT_coordinate_system_code '2'
_symmetry_cell_setting 'orthorhombic'
loop_
_space_group_symop_operation_xyz
x,y,z
-x,1/2-y,z
x,1/2-y,1/2-z
-x,y,1/2-z
-x,-y,-z
x,1/2+y,-z
-x,1/2+y,1/2+z
x,-y,1/2+z
1/2+x,1/2+y,z
1/2-x,-y,z
1/2+x,-y,1/2-z
1/2-x,1/2+y,1/2-z
1/2-x,1/2-y,-z
1/2+x,y,-z
1/2-x,y,1/2+z
1/2+x,1/2-y,1/2+z
loop_
_atom_site_type_symbol
_atom_site_label
_atom_site_fract_x
_atom_site_fract_y
_atom_site_fract_z
Si Si1 0.849700 0.156636 0.601779
Si Si2 0.158782 0.987473 0.670073
Si Si3 0.969446 0.391707 0.996472
Si Si4 0.118237 0.630205 0.434988
Si Si5 0.575473 0.199295 0.874821
Si Si6 0.089027 0.638162 0.234438
Si Si7 0.797839 0.819622 0.549048
O O1 0.892277 0.121149 0.540522
O O2 0.851055 0.275054 0.600894
O O3 0.892154 0.121701 0.662607
O O4 0.762358 0.130158 0.593695
O O5 0.126621 0.038640 0.608399
O O6 0.129628 0.054859 0.725863
O O7 0.250000 0.000000 0.667754
O O8 0.121939 0.879105 0.667036
O O9 0.034015 0.342538 0.954782
O O10 0.961437 0.352155 0.065068
O O11 0.000000 0.500000 0.000000
O O12 0.160496 0.612777 0.499679
O O13 0.500000 0.250000 0.845157
O O14 0.639655 0.266991 0.907945
O O15 0.113444 0.750000 0.250000
O O16 0.000000 0.633178 0.250000
O O17 0.750000 0.750000 0.500000
#
# Coordination Sequence:
#
# PCOD9506850 Si02
#       7
#    16  16  16  16  16  16  16
#     4  11  22  40  65  97 135 175 233 296 351 419
#     4  12  26  44  72 103 142 185 251 301 359 434
#     4  12  22  35  62 100 142 179 221 283 358 435
#     4  11  20  36  63 100 139 178 227 284 355 431
#     4  12  23  42  67 101 146 191 229 286 367 449
#     4  11  25  45  72  99 131 183 244 303 354 412
#     4  10  20  36  63 100 139 184 226 278 364 428
#
# _framework density 21.395783999999999
#
# number of rings (size 3 to 8) (size 9 to 14) (size 15 to 20)
#    0.000    0.714    7.143    3.000    2.000    0.000 
#    0.000    2.857    0.000    0.000    0.000    0.000 
#    0.000    0.000    0.000    0.000    0.000    0.000 
#
# Total GULP energy -312565.044941 kJ/mol
# GULP energy per Si atom -5581.518660 kJ/mol
# Density = 2.134709 g / cm^3
# Si number density = 21.395784 Si / 1000 Ang^3
#
#
#
# Elastic Constant Matrix: (Units=GPa)
#
#
# Indices 1 2 3 4 5 6 
#
# 1 128.3547 21.7183 22.8005 0.0000 0.0000 0.0000
# 2 21.7183 44.2754 27.3561 0.0000 0.0000 0.0000
# 3 22.8005 27.3561 56.7689 0.0000 0.0000 0.0000
# 4 0.0000 0.0000 0.0000 -12.6523 0.0000 0.0000
# 5 0.0000 0.0000 0.0000 0.0000 19.7478 0.0000
# 6 0.0000 0.0000 0.0000 0.0000 0.0000 -4.5333
#
#
#
# Elastic Compliance Matrix: (Units=1/GPa)
#
#
# Indices 1 2 3 4 5 6 
#
# 1 0.008658 -0.002988 -0.002038 0.000000 0.000000 0.000000
# 2 -0.002988 0.033193 -0.014795 0.000000 0.000000 0.000000
# 3 -0.002038 -0.014795 0.025563 0.000000 0.000000 0.000000
# 4 0.000000 0.000000 0.000000 -0.079037 0.000000 0.000000
# 5 0.000000 0.000000 0.000000 0.000000 0.050639 0.000000
# 6 0.000000 0.000000 0.000000 0.000000 0.000000 -0.220591
#
#
# Mechanical properties :
#
#
# Convention : Reuss Voigt Hill
#
# Bulk Modulus (GPa) = 36.00630 41.46097 38.73363
# Shear Modulus (GPa) = -37.68616 11.01404 -13.33606
#
# Velocity S-wave (km/s) = -4.20144 2.27133 -2.49931
# Velocity P-wave (km/s) = 2.58280 5.12823 3.13272
#
# Compressibility (1/GPa) = 0.02777292
#
# Stress axis : x y z
#
# Youngs Moduli (GPa) = 115.49362 30.12673 39.11874
#
# Poissons Ratio (x) = 0.09003 0.07971
# Poissons Ratio (y) = 0.34513 0.57877
# Poissons Ratio (z) = 0.23532 0.44573
#
# Static dielectric constant tensor:
#      x y z
#    x 1.841310 0.000000 0.000000 
#    y 0.000000 1.656010 0.000000 
#    z 0.000000 0.000000 1.785710 
# 
# From -- ./inp_files/45518.got.cif
#   From: 2010.05.17/outbox.cif.g08.bks.cpg/sg68_23_cif.got.tgz:45518.got - 2010.06.03 18:57:09.
