data_PCOD9506249
_publ_section_title
;
Structure prediction by ZEFSAII (Michael W. Deem and Ramdas Pophale) SiO2 
 PCOD9506249
Probable space group: C C C A
;
_chemical_formula_sum "Si O2"
_cell_formula_units_Z 80
_cell_length_a 11.846528
_cell_length_b 13.482473
_cell_length_c 22.576816
_cell_angle_alpha 90.000000
_cell_angle_beta 90.000000
_cell_angle_gamma 90.000000
_cell_volume 3605.980202
_symmetry_space_group_name_H-M "C C C A"
_symmetry_group_IT_number 68
_space_group.IT_coordinate_system_code '2'
_symmetry_cell_setting 'orthorhombic'
loop_
_space_group_symop_operation_xyz
x,y,z
-x,1/2-y,z
x,1/2-y,1/2-z
-x,y,1/2-z
-x,-y,-z
x,1/2+y,-z
-x,1/2+y,1/2+z
x,-y,1/2+z
1/2+x,1/2+y,z
1/2-x,-y,z
1/2+x,-y,1/2-z
1/2-x,1/2+y,1/2-z
1/2-x,1/2-y,-z
1/2+x,y,-z
1/2-x,y,1/2+z
1/2+x,1/2-y,1/2+z
loop_
_atom_site_type_symbol
_atom_site_label
_atom_site_fract_x
_atom_site_fract_y
_atom_site_fract_z
Si Si1 0.209536 0.113325 0.399394
Si Si2 0.618753 0.018748 0.919258
Si Si3 0.116757 0.193951 0.810760
Si Si4 0.532034 0.853397 0.002808
Si Si5 0.530056 0.470377 0.811466
O O1 0.300769 0.184124 0.367656
O O2 0.145106 0.150927 0.457417
O O3 0.250000 0.000000 0.413406
O O4 0.115980 0.094233 0.349240
O O5 0.580607 0.017904 0.851588
O O6 0.750000 0.000000 0.926657
O O7 0.569743 0.114159 0.953375
O O8 0.548648 0.932515 0.951650
O O9 0.158588 0.250000 0.750000
O O10 0.000000 0.250000 0.824881
O O11 0.086536 0.078016 0.798865
O O12 0.500000 0.750000 0.975901
O O13 0.500000 0.421900 0.750000
#
# Coordination Sequence:
#
# PCOD9506249 Si02
#       5
#    16  16  16  16  16
#     4   9  20  38  63  84 124 175 205 261 327 384
#     4  10  23  41  67  95 125 174 218 266 321 395
#     4  10  19  36  58  91 121 161 212 266 311 385
#     4  10  22  43  63  94 134 165 216 272 325 382
#     4  10  20  39  59  88 124 163 212 260 320 387
#
# _framework density 22.185369000000001
#
# number of rings (size 3 to 8) (size 9 to 14) (size 15 to 20)
#    0.000    2.200    2.000    0.600    0.000    7.200 
#    7.200    0.000    0.000    0.000    0.000    0.000 
#    0.000    0.000    0.000    0.000    0.000    0.000 
#
# Total GULP energy -223484.167213 kJ/mol
# GULP energy per Si atom -5587.104180 kJ/mol
# Density = 2.213487 g / cm^3
# Si number density = 22.185369 Si / 1000 Ang^3
#
#
#
# Elastic Constant Matrix: (Units=GPa)
#
#
# Indices 1 2 3 4 5 6 
#
# 1 83.0659 -6.9464 13.6768 0.0000 0.0000 0.0000
# 2 -6.9464 46.0156 -4.8366 0.0000 0.0000 0.0000
# 3 13.6768 -4.8366 81.8671 0.0000 0.0000 0.0000
# 4 0.0000 0.0000 0.0000 11.7357 0.0000 0.0000
# 5 0.0000 0.0000 0.0000 0.0000 -21.1818 0.0000
# 6 0.0000 0.0000 0.0000 0.0000 0.0000 91.3804
#
#
#
# Elastic Compliance Matrix: (Units=1/GPa)
#
#
# Indices 1 2 3 4 5 6 
#
# 1 0.012507 0.001679 -0.001990 0.000000 0.000000 0.000000
# 2 0.001679 0.022093 0.001025 0.000000 0.000000 0.000000
# 3 -0.001990 0.001025 0.012608 0.000000 0.000000 0.000000
# 4 0.000000 0.000000 0.000000 0.085210 0.000000 0.000000
# 5 0.000000 0.000000 0.000000 0.000000 -0.047210 0.000000
# 6 0.000000 0.000000 0.000000 0.000000 0.000000 0.010943
#
#
# Mechanical properties :
#
#
# Convention : Reuss Voigt Hill
#
# Bulk Modulus (GPa) = 20.56163 23.85957 22.21060
# Shear Modulus (GPa) = 45.07120 30.32384 37.69752
#
# Velocity S-wave (km/s) = 4.51219 3.70109 4.12662
# Velocity P-wave (km/s) = 6.03611 5.38907 5.72175
#
# Compressibility (1/GPa) = 0.04863427
#
# Stress axis : x y z
#
# Youngs Moduli (GPa) = 79.95714 45.26339 79.31507
#
# Poissons Ratio (x) = -0.07599 0.15785
# Poissons Ratio (y) = -0.13423 -0.08128
# Poissons Ratio (z) = 0.15913 -0.04638
#
# Static dielectric constant tensor:
#      x y z
#    x 1.841910 0.000000 0.000000 
#    y 0.000000 1.840910 0.000000 
#    z 0.000000 0.000000 1.828960 
# 
# From -- ./inp_files/44131.got.cif
#   From: 2010.05.17/outbox.cif.g08.bks.cpg/sg68_23_cif.got.tgz:44131.got - 2010.06.03 18:57:09.
