data_PCOD9506605
_publ_section_title
;
Structure prediction by ZEFSAII (Michael W. Deem and Ramdas Pophale) SiO2 
 PCOD9506605
Probable space group: C C C A
;
_chemical_formula_sum "Si O2"
_cell_formula_units_Z 80
_cell_length_a 17.442948
_cell_length_b 7.803139
_cell_length_c 24.816522
_cell_angle_alpha 90.000000
_cell_angle_beta 90.000000
_cell_angle_gamma 90.000000
_cell_volume 3377.770551
_symmetry_space_group_name_H-M "C C C A"
_symmetry_group_IT_number 68
_space_group.IT_coordinate_system_code '2'
_symmetry_cell_setting 'orthorhombic'
loop_
_space_group_symop_operation_xyz
x,y,z
-x,1/2-y,z
x,1/2-y,1/2-z
-x,y,1/2-z
-x,-y,-z
x,1/2+y,-z
-x,1/2+y,1/2+z
x,-y,1/2+z
1/2+x,1/2+y,z
1/2-x,-y,z
1/2+x,-y,1/2-z
1/2-x,1/2+y,1/2-z
1/2-x,1/2-y,-z
1/2+x,y,-z
1/2-x,y,1/2+z
1/2+x,1/2-y,1/2+z
loop_
_atom_site_type_symbol
_atom_site_label
_atom_site_fract_x
_atom_site_fract_y
_atom_site_fract_z
Si Si1 0.589242 0.252241 0.019372
Si Si2 0.165993 0.949441 0.236335
Si Si3 0.571729 0.505642 0.833468
Si Si4 0.591512 0.909814 0.867367
Si Si5 0.835577 0.072734 0.070838
O O1 0.500000 0.250000 0.002615
O O2 0.600250 0.389146 0.068470
O O3 0.608610 0.071622 0.046030
O O4 0.649036 0.277000 0.971067
O O5 0.160976 0.750000 0.250000
O O6 0.096965 0.026004 0.272194
O O7 0.156162 0.979840 0.172662
O O8 0.250000 0.000000 0.255327
O O9 0.582943 0.710105 0.847498
O O10 0.484445 0.484278 0.851672
O O11 0.630487 0.399296 0.870249
O O12 0.750000 0.000000 0.072733
#
# Coordination Sequence:
#
# PCOD9506605 Si02
#       5
#    16  16  16  16  16
#     4  11  21  38  59  83 118 151 199 235 280 347
#     4  10  20  34  57  82 111 142 181 234 287 336
#     4   9  17  34  57  80 106 143 193 228 274 340
#     4   9  17  33  57  81 103 145 192 228 265 338
#     4  11  22  36  58  86 118 151 191 243 292 334
#
# _framework density 23.684259999999998
#
# number of rings (size 3 to 8) (size 9 to 14) (size 15 to 20)
#    0.000    2.000    4.000    2.400    0.000    3.200 
#    0.000    4.000    0.000    1.200    0.000    0.000 
#    0.000    0.000    0.000    0.000    0.000    0.000 
#
# Total GULP energy -223203.603321 kJ/mol
# GULP energy per Si atom -5580.090083 kJ/mol
# Density = 2.363035 g / cm^3
# Si number density = 23.684260 Si / 1000 Ang^3
#
#
#
# Elastic Constant Matrix: (Units=GPa)
#
#
# Indices 1 2 3 4 5 6 
#
# 1 72.8014 -5.7291 18.8583 0.0000 0.0000 0.0000
# 2 -5.7291 19.9795 9.9883 0.0000 0.0000 0.0000
# 3 18.8583 9.9883 96.5603 0.0000 0.0000 0.0000
# 4 0.0000 0.0000 0.0000 262.4065 0.0000 0.0000
# 5 0.0000 0.0000 0.0000 0.0000 46.2135 0.0000
# 6 0.0000 0.0000 0.0000 0.0000 0.0000 16.0673
#
#
#
# Elastic Compliance Matrix: (Units=1/GPa)
#
#
# Indices 1 2 3 4 5 6 
#
# 1 0.015150 0.006141 -0.003594 0.000000 0.000000 0.000000
# 2 0.006141 0.055270 -0.006917 0.000000 0.000000 0.000000
# 3 -0.003594 -0.006917 0.011774 0.000000 0.000000 0.000000
# 4 0.000000 0.000000 0.000000 0.003811 0.000000 0.000000
# 5 0.000000 0.000000 0.000000 0.000000 0.021639 0.000000
# 6 0.000000 0.000000 0.000000 0.000000 0.000000 0.062238
#
#
# Mechanical properties :
#
#
# Convention : Reuss Voigt Hill
#
# Bulk Modulus (GPa) = 13.61378 26.17511 19.89444
# Shear Modulus (GPa) = 24.61773 76.01904 50.31838
#
# Velocity S-wave (km/s) = 3.22749 5.67156 4.61428
# Velocity P-wave (km/s) = 4.43277 7.34605 6.06687
#
# Compressibility (1/GPa) = 0.07345499
#
# Stress axis : x y z
#
# Youngs Moduli (GPa) = 66.00533 18.09297 84.93576
#
# Poissons Ratio (x) = -0.11111 0.30527
# Poissons Ratio (y) = -0.40535 0.58746
# Poissons Ratio (z) = 0.23723 0.12514
#
# Static dielectric constant tensor:
#      x y z
#    x 1.796660 0.000000 0.000000 
#    y 0.000000 1.970400 0.000000 
#    z 0.000000 0.000000 1.973200 
# 
# From -- ./inp_files/44126.got.cif
#   From: 2010.05.17/outbox.cif.g08.bks.cpg/sg68_23_cif.got.tgz:44126.got - 2010.06.03 18:57:09.
