data_PCOD9506521
_publ_section_title
;
Structure prediction by ZEFSAII (Michael W. Deem and Ramdas Pophale) SiO2 
 PCOD9506521
Probable space group: C C C A
;
_chemical_formula_sum "Si O2"
_cell_formula_units_Z 108
_cell_length_a 19.645675
_cell_length_b 15.478388
_cell_length_c 15.163912
_cell_angle_alpha 90.000000
_cell_angle_beta 90.000000
_cell_angle_gamma 90.000000
_cell_volume 4611.093618
_symmetry_space_group_name_H-M "C C C A"
_symmetry_group_IT_number 68
_space_group.IT_coordinate_system_code '2'
_symmetry_cell_setting 'orthorhombic'
loop_
_space_group_symop_operation_xyz
x,y,z
-x,1/2-y,z
x,1/2-y,1/2-z
-x,y,1/2-z
-x,-y,-z
x,1/2+y,-z
-x,1/2+y,1/2+z
x,-y,1/2+z
1/2+x,1/2+y,z
1/2-x,-y,z
1/2+x,-y,1/2-z
1/2-x,1/2+y,1/2-z
1/2-x,1/2-y,-z
1/2+x,y,-z
1/2-x,y,1/2+z
1/2+x,1/2-y,1/2+z
loop_
_atom_site_type_symbol
_atom_site_label
_atom_site_fract_x
_atom_site_fract_y
_atom_site_fract_z
Si Si1 0.635415 0.670789 0.449034
Si Si2 0.848769 0.132318 0.469219
Si Si3 0.773028 0.400096 0.862413
Si Si4 0.740260 0.600733 0.182149
Si Si5 0.060170 0.031949 0.564998
Si Si6 0.594055 0.385280 0.766108
Si Si7 0.500000 0.541778 0.750000
Si Si8 0.500000 0.250000 0.750000
O O1 0.625727 0.769939 0.474850
O O2 0.711283 0.651056 0.410637
O O3 0.610516 0.602842 0.522231
O O4 0.589388 0.652174 0.363781
O O5 0.833938 0.102540 0.568520
O O6 0.777966 0.140062 0.412188
O O7 0.894052 0.056015 0.424423
O O8 0.750000 0.500000 0.854862
O O9 0.790461 0.370944 0.761637
O O10 0.750000 0.500000 0.164232
O O11 0.670236 0.616230 0.234459
O O12 0.026098 0.073263 0.653712
O O13 0.000000 0.000000 0.500000
O O14 0.563429 0.479263 0.771429
O O15 0.550588 0.319708 0.706753
#
# Coordination Sequence:
#
# PCOD9506521 Si02
#       8
#    16  16  16  16  16  16   8   4
#     4  11  24  41  68 102 142 177 239 296 354 428
#     4  12  24  43  71 101 141 190 236 295 362 425
#     4  10  21  42  66  99 143 182 230 290 354 435
#     4  10  22  38  66 101 139 187 233 295 365 428
#     4  12  26  44  70 104 142 187 239 297 360 436
#     4  10  20  36  60 100 136 179 225 295 362 420
#     4  11  22  41  66  99 139 182 234 297 369 423
#     4  10  20  32  64 100 146 162 238 308 348 428
#
# _framework density 23.421776999999999
#
# number of rings (size 3 to 8) (size 9 to 14) (size 15 to 20)
#    0.000    1.185    4.444    1.778    2.074    2.370 
#    0.000    0.000    0.000    3.556    0.000    0.000 
#    0.000    0.000    0.000    0.000    0.000    0.000 
#
# Total GULP energy -300921.303525 kJ/mol
# GULP energy per Si atom -5572.616732 kJ/mol
# Density = 2.336847 g / cm^3
# Si number density = 23.421777 Si / 1000 Ang^3
#
#
#
# Elastic Constant Matrix: (Units=GPa)
#
#
# Indices 1 2 3 4 5 6 
#
# 1 28.6416 6.6231 5.9682 0.0000 0.0000 0.0000
# 2 6.6231 105.9433 25.9378 0.0000 0.0000 0.0000
# 3 5.9682 25.9378 121.5213 0.0000 0.0000 0.0000
# 4 0.0000 0.0000 0.0000 28.0607 0.0000 0.0000
# 5 0.0000 0.0000 0.0000 0.0000 42.7339 0.0000
# 6 0.0000 0.0000 0.0000 0.0000 0.0000 13.9231
#
#
#
# Elastic Compliance Matrix: (Units=1/GPa)
#
#
# Indices 1 2 3 4 5 6 
#
# 1 0.035634 -0.001898 -0.001345 0.000000 0.000000 0.000000
# 2 -0.001898 0.010061 -0.002054 0.000000 0.000000 0.000000
# 3 -0.001345 -0.002054 0.008733 0.000000 0.000000 0.000000
# 4 0.000000 0.000000 0.000000 0.035637 0.000000 0.000000
# 5 0.000000 0.000000 0.000000 0.000000 0.023401 0.000000
# 6 0.000000 0.000000 0.000000 0.000000 0.000000 0.071823
#
#
# Mechanical properties :
#
#
# Convention : Reuss Voigt Hill
#
# Bulk Modulus (GPa) = 22.81393 37.01827 29.91610
# Shear Modulus (GPa) = 23.75363 31.44868 27.60115
#
# Velocity S-wave (km/s) = 3.18806 3.66828 3.43657
# Velocity P-wave (km/s) = 4.82838 5.81215 5.34295
#
# Compressibility (1/GPa) = 0.04383288
#
# Stress axis : x y z
#
# Youngs Moduli (GPa) = 28.06347 99.39769 114.50168
#
# Poissons Ratio (x) = 0.18869 0.15399
# Poissons Ratio (y) = 0.05327 0.23520
# Poissons Ratio (z) = 0.03774 0.20418
#
# Static dielectric constant tensor:
#      x y z
#    x 2.593230 0.000000 0.000000 
#    y 0.000000 1.871070 0.000000 
#    z 0.000000 0.000000 2.088040 
# 
# From -- ./inp_files/25530.got.cif
#   From: 2010.05.17/outbox.cif.g08.bks.cpg/sg68_13_cif.got.tgz:25530.got - 2010.06.03 18:57:09.
