data_PCOD9506529
_publ_section_title
;
Structure prediction by ZEFSAII (Michael W. Deem and Ramdas Pophale) SiO2 
 PCOD9506529
Probable space group: C C C A
;
_chemical_formula_sum "Si O2"
_cell_formula_units_Z 116
_cell_length_a 21.072772
_cell_length_b 14.179327
_cell_length_c 19.331758
_cell_angle_alpha 90.000000
_cell_angle_beta 90.000000
_cell_angle_gamma 90.000000
_cell_volume 5776.285310
_symmetry_space_group_name_H-M "C C C A"
_symmetry_group_IT_number 68
_space_group.IT_coordinate_system_code '2'
_symmetry_cell_setting 'orthorhombic'
loop_
_space_group_symop_operation_xyz
x,y,z
-x,1/2-y,z
x,1/2-y,1/2-z
-x,y,1/2-z
-x,-y,-z
x,1/2+y,-z
-x,1/2+y,1/2+z
x,-y,1/2+z
1/2+x,1/2+y,z
1/2-x,-y,z
1/2+x,-y,1/2-z
1/2-x,1/2+y,1/2-z
1/2-x,1/2-y,-z
1/2+x,y,-z
1/2-x,y,1/2+z
1/2+x,1/2-y,1/2+z
loop_
_atom_site_type_symbol
_atom_site_label
_atom_site_fract_x
_atom_site_fract_y
_atom_site_fract_z
Si Si1 0.900487 0.706679 0.955509
Si Si2 0.179668 0.529813 0.560867
Si Si3 0.000000 0.750000 0.750000
Si Si4 0.426072 0.373334 0.060478
Si Si5 0.896521 0.646852 0.660492
Si Si6 0.508799 0.051770 0.604660
Si Si7 0.428197 0.848743 0.778103
Si Si8 0.873646 0.038342 0.210405
O O1 0.848384 0.625920 0.972141
O O2 0.874553 0.771868 0.891819
O O3 0.961063 0.643214 0.932827
O O4 0.921366 0.781994 0.012780
O O5 0.250000 0.500000 0.542012
O O6 0.134376 0.440650 0.546019
O O7 0.172008 0.545595 0.644322
O O8 0.955182 0.692319 0.700761
O O9 0.480613 0.453983 0.063798
O O10 0.427615 0.339868 0.139429
O O11 0.857729 0.606020 0.725423
O O12 0.934562 0.566103 0.618675
O O13 0.555912 0.048997 0.672835
O O14 0.405739 0.750000 0.750000
O O15 0.500000 0.865602 0.750000
O O16 0.381568 0.933853 0.759765
#
# Coordination Sequence:
#
# PCOD9506529 Si02
#       8
#    16  16   4  16  16  16  16  16
#     4  10  20  33  50  83 112 144 191 229 283 342
#     4   9  20  39  61  75  99 145 189 243 307 339
#     4  12  16  24  48  76 102 152 178 204 252 328
#     4   9  20  36  53  77 114 140 192 238 269 344
#     4  12  17  29  51  82 119 145 179 219 272 347
#     4   9  17  31  49  75 115 155 176 207 278 334
#     4   9  17  33  51  76 104 153 190 209 264 334
#     4   9  17  31  55  77 108 137 186 231 265 335
#
# _framework density 20.082111000000001
#
# number of rings (size 3 to 8) (size 9 to 14) (size 15 to 20)
#    0.000    2.897    2.759    2.483    0.000    1.103 
#    9.931    0.000   12.138    0.828    0.000    0.000 
#    0.000    0.000    0.000    0.000    0.000    0.000 
#
# Total GULP energy -322928.746793 kJ/mol
# GULP energy per Si atom -5567.737014 kJ/mol
# Density = 2.003640 g / cm^3
# Si number density = 20.082111 Si / 1000 Ang^3
#
#
#
# Elastic Constant Matrix: (Units=GPa)
#
#
# Indices 1 2 3 4 5 6 
#
# 1 28.2716 6.9811 -1.4592 0.0000 0.0000 0.0000
# 2 6.9811 141.4107 61.8175 0.0000 0.0000 0.0000
# 3 -1.4592 61.8175 76.9288 0.0000 0.0000 0.0000
# 4 0.0000 0.0000 0.0000 46.9457 0.0000 0.0000
# 5 0.0000 0.0000 0.0000 0.0000 7.5113 0.0000
# 6 0.0000 0.0000 0.0000 0.0000 0.0000 15.2069
#
#
#
# Elastic Compliance Matrix: (Units=1/GPa)
#
#
# Indices 1 2 3 4 5 6 
#
# 1 0.036338 -0.003230 0.003285 0.000000 0.000000 0.000000
# 2 -0.003230 0.011188 -0.009051 0.000000 0.000000 0.000000
# 3 0.003285 -0.009051 0.020335 0.000000 0.000000 0.000000
# 4 0.000000 0.000000 0.000000 0.021301 0.000000 0.000000
# 5 0.000000 0.000000 0.000000 0.000000 0.133132 0.000000
# 6 0.000000 0.000000 0.000000 0.000000 0.000000 0.065760
#
#
# Mechanical properties :
#
#
# Convention : Reuss Voigt Hill
#
# Bulk Modulus (GPa) = 20.05309 42.36554 31.20931
# Shear Modulus (GPa) = 15.49570 25.88423 20.68996
#
# Velocity S-wave (km/s) = 2.78081 3.59405 3.21326
# Velocity P-wave (km/s) = 4.50753 6.19394 5.41676
#
# Compressibility (1/GPa) = 0.04986764
#
# Stress axis : x y z
#
# Youngs Moduli (GPa) = 27.51924 89.38231 49.17675
#
# Poissons Ratio (x) = 0.28869 -0.16153
# Poissons Ratio (y) = 0.08888 0.44512
# Poissons Ratio (z) = -0.09039 0.80904
#
# Static dielectric constant tensor:
#      x y z
#    x 1.731320 0.000000 0.000000 
#    y 0.000000 1.806430 0.000000 
#    z 0.000000 0.000000 2.721480 
# 
# From -- ./inp_files/34211.got.cif
#   From: 2010.05.17/outbox.cif.g08.bks.cpg/sg68_18_cif.got.tgz:34211.got - 2010.06.03 18:57:09.
