data_PCOD9506011
_publ_section_title
;
Structure prediction by ZEFSAII (Michael W. Deem and Ramdas Pophale) SiO2 
 PCOD9506011
Probable space group: C C C A
;
_chemical_formula_sum "Si O2"
_cell_formula_units_Z 68
_cell_length_a 17.857223
_cell_length_b 13.893291
_cell_length_c 11.419473
_cell_angle_alpha 90.000000
_cell_angle_beta 90.000000
_cell_angle_gamma 90.000000
_cell_volume 2833.120955
_symmetry_space_group_name_H-M "C C C A"
_symmetry_group_IT_number 68
_space_group.IT_coordinate_system_code '2'
_symmetry_cell_setting 'orthorhombic'
loop_
_space_group_symop_operation_xyz
x,y,z
-x,1/2-y,z
x,1/2-y,1/2-z
-x,y,1/2-z
-x,-y,-z
x,1/2+y,-z
-x,1/2+y,1/2+z
x,-y,1/2+z
1/2+x,1/2+y,z
1/2-x,-y,z
1/2+x,-y,1/2-z
1/2-x,1/2+y,1/2-z
1/2-x,1/2-y,-z
1/2+x,y,-z
1/2-x,y,1/2+z
1/2+x,1/2-y,1/2+z
loop_
_atom_site_type_symbol
_atom_site_label
_atom_site_fract_x
_atom_site_fract_y
_atom_site_fract_z
Si Si1 0.550985 0.384492 0.059409
Si Si2 0.787444 0.892648 0.544313
Si Si3 0.223582 0.887283 0.695804
Si Si4 0.449862 0.897933 0.141618
Si Si5 0.000000 0.750000 0.250000
O O1 0.539704 0.488229 0.118902
O O2 0.553613 0.312479 0.167109
O O3 0.622699 0.394862 0.974060
O O4 0.480155 0.355999 0.979649
O O5 0.765998 0.850789 0.671368
O O6 0.761360 0.847024 0.421665
O O7 0.750000 0.000000 0.544034
O O8 0.135811 0.880577 0.669269
O O9 0.250000 0.000000 0.700905
O O10 0.500000 0.866404 0.250000
#
# Coordination Sequence:
#
# PCOD9506011 Si02
#       5
#    16  16  16  16   4
#     4  11  23  38  63  96 135 180 221 285 351 414
#     4  10  19  33  57  94 128 167 219 283 340 387
#     4  10  19  32  58 102 132 157 210 309 342 378
#     4  11  20  37  66 101 122 167 247 291 325 394
#     4  12  28  44  62 100 156 186 214 282 376 432
#
# _framework density 24.001799999999999
#
# number of rings (size 3 to 8) (size 9 to 14) (size 15 to 20)
#    0.000    1.412    8.235    0.000    0.000    1.882 
#    0.000    0.588    0.000    5.647    0.000    0.000 
#    0.000    0.000    0.000    0.000    0.000    0.000 
#
# Total GULP energy -189969.163325 kJ/mol
# GULP energy per Si atom -5587.328333 kJ/mol
# Density = 2.394717 g / cm^3
# Si number density = 24.001800 Si / 1000 Ang^3
#
#
#
# Elastic Constant Matrix: (Units=GPa)
#
#
# Indices 1 2 3 4 5 6 
#
# 1 105.1364 0.0291 29.0744 0.0000 0.0000 0.0000
# 2 0.0291 72.6331 46.7531 0.0000 0.0000 0.0000
# 3 29.0744 46.7531 231.7714 0.0000 0.0000 0.0000
# 4 0.0000 0.0000 0.0000 17.3837 0.0000 0.0000
# 5 0.0000 0.0000 0.0000 0.0000 41.9830 0.0000
# 6 0.0000 0.0000 0.0000 0.0000 0.0000 -8.8397
#
#
#
# Elastic Compliance Matrix: (Units=1/GPa)
#
#
# Indices 1 2 3 4 5 6 
#
# 1 0.009906 0.000915 -0.001427 0.000000 0.000000 0.000000
# 2 0.000915 0.015907 -0.003323 0.000000 0.000000 0.000000
# 3 -0.001427 -0.003323 0.005164 0.000000 0.000000 0.000000
# 4 0.000000 0.000000 0.000000 0.057525 0.000000 0.000000
# 5 0.000000 0.000000 0.000000 0.000000 0.023819 0.000000
# 6 0.000000 0.000000 0.000000 0.000000 0.000000 -0.113127
#
#
# Mechanical properties :
#
#
# Convention : Reuss Voigt Hill
#
# Bulk Modulus (GPa) = 42.90970 62.36157 52.63563
# Shear Modulus (GPa) = 341.66101 32.35104 187.00603
#
# Velocity S-wave (km/s) = 11.94391 3.67530 8.83643
# Velocity P-wave (km/s) = 14.42657 6.63694 11.22887
#
# Compressibility (1/GPa) = 0.02330476
#
# Stress axis : x y z
#
# Youngs Moduli (GPa) = 100.95035 62.86650 193.64715
#
# Poissons Ratio (x) = -0.05750 0.27636
# Poissons Ratio (y) = -0.09234 0.64358
# Poissons Ratio (z) = 0.14407 0.20893
#
# Static dielectric constant tensor:
#      x y z
#    x 1.894810 0.000000 0.000000 
#    y 0.000000 1.915400 0.000000 
#    z 0.000000 0.000000 1.898820 
# 
# From -- ./inp_files/13041.got.cif
#   From: 2010.05.17/outbox.cif.g08.bks.cpg/sg68_7_cif.got.tgz:13041.got - 2010.06.03 18:57:09.
