data_PCOD9506264
_publ_section_title
;
Structure prediction by ZEFSAII (Michael W. Deem and Ramdas Pophale) SiO2 
 PCOD9506264
Probable space group: C C C A
;
_chemical_formula_sum "Si O2"
_cell_formula_units_Z 92
_cell_length_a 20.463870
_cell_length_b 8.413144
_cell_length_c 28.430180
_cell_angle_alpha 90.000000
_cell_angle_beta 90.000000
_cell_angle_gamma 90.000000
_cell_volume 4894.695731
_symmetry_space_group_name_H-M "C C C A"
_symmetry_group_IT_number 68
_space_group.IT_coordinate_system_code '2'
_symmetry_cell_setting 'orthorhombic'
loop_
_space_group_symop_operation_xyz
x,y,z
-x,1/2-y,z
x,1/2-y,1/2-z
-x,y,1/2-z
-x,-y,-z
x,1/2+y,-z
-x,1/2+y,1/2+z
x,-y,1/2+z
1/2+x,1/2+y,z
1/2-x,-y,z
1/2+x,-y,1/2-z
1/2-x,1/2+y,1/2-z
1/2-x,1/2-y,-z
1/2+x,y,-z
1/2-x,y,1/2+z
1/2+x,1/2-y,1/2+z
loop_
_atom_site_type_symbol
_atom_site_label
_atom_site_fract_x
_atom_site_fract_y
_atom_site_fract_z
Si Si1 0.311820 0.737166 0.567077
Si Si2 0.153341 0.615289 0.284352
Si Si3 0.000000 0.750000 0.750000
Si Si4 0.886211 0.074566 0.199555
Si Si5 0.750000 0.500000 0.002869
Si Si6 0.922484 0.760366 0.138910
Si Si7 0.737002 0.189210 0.663942
O O1 0.298488 0.593368 0.531739
O O2 0.291952 0.888182 0.536614
O O3 0.383139 0.741508 0.590148
O O4 0.262533 0.721976 0.611593
O O5 0.123691 0.750000 0.250000
O O6 0.151958 0.469933 0.248424
O O7 0.106312 0.615643 0.329324
O O8 0.221310 0.691160 0.303125
O O9 0.046031 0.856082 0.782782
O O10 0.840045 0.198406 0.172186
O O11 0.899312 0.922086 0.166040
O O12 0.000000 0.750000 0.135368
O O13 0.750000 0.000000 0.673375
#
# Coordination Sequence:
#
# PCOD9506264 Si02
#       7
#    16  16   4  16   8  16  16
#     4  10  20  39  62  92 112 149 186 247 312 371
#     4   9  18  32  56  81 106 154 197 236 286 332
#     4  12  28  36  50  80 116 176 218 238 284 340
#     4  11  22  39  51  78 122 161 204 247 288 333
#     4  10  20  38  66  88 118 136 186 252 320 372
#     4  10  19  36  60  79 115 156 193 235 291 359
#     4  11  18  36  60  86 115 146 197 251 298 338
#
# _framework density 18.795857000000002
#
# number of rings (size 3 to 8) (size 9 to 14) (size 15 to 20)
#    0.000    1.739    6.087    1.043    1.217    2.435 
#    9.391    0.870    0.000    0.000    0.000    0.000 
#    0.000    0.000    0.000    0.000    0.000    0.000 
#
# Total GULP energy -256472.968653 kJ/mol
# GULP energy per Si atom -5575.499319 kJ/mol
# Density = 1.875308 g / cm^3
# Si number density = 18.795857 Si / 1000 Ang^3
#
#
#
# Elastic Constant Matrix: (Units=GPa)
#
#
# Indices 1 2 3 4 5 6 
#
# 1 141.3845 23.5206 72.5088 0.0000 0.0000 0.0000
# 2 23.5206 40.2054 43.9062 0.0000 0.0000 0.0000
# 3 72.5088 43.9062 120.8286 0.0000 0.0000 0.0000
# 4 0.0000 0.0000 0.0000 21.6303 0.0000 0.0000
# 5 0.0000 0.0000 0.0000 0.0000 26.3841 0.0000
# 6 0.0000 0.0000 0.0000 0.0000 0.0000 20.8857
#
#
#
# Elastic Compliance Matrix: (Units=1/GPa)
#
#
# Indices 1 2 3 4 5 6 
#
# 1 0.010252 0.001195 -0.006586 0.000000 0.000000 0.000000
# 2 0.001195 0.041375 -0.015752 0.000000 0.000000 0.000000
# 3 -0.006586 -0.015752 0.017953 0.000000 0.000000 0.000000
# 4 0.000000 0.000000 0.000000 0.046231 0.000000 0.000000
# 5 0.000000 0.000000 0.000000 0.000000 0.037902 0.000000
# 6 0.000000 0.000000 0.000000 0.000000 0.000000 0.047880
#
#
# Mechanical properties :
#
#
# Convention : Reuss Voigt Hill
#
# Bulk Modulus (GPa) = 36.63926 64.69885 50.66905
# Shear Modulus (GPa) = 19.76472 24.61222 22.18847
#
# Velocity S-wave (km/s) = 3.24627 3.62256 3.43956
# Velocity P-wave (km/s) = 5.79540 7.21067 6.54142
#
# Compressibility (1/GPa) = 0.02729313
#
# Stress axis : x y z
#
# Youngs Moduli (GPa) = 97.54258 24.16927 55.70240
#
# Poissons Ratio (x) = -0.02889 0.36688
# Poissons Ratio (y) = -0.11659 0.87742
# Poissons Ratio (z) = 0.64246 0.38071
#
# Static dielectric constant tensor:
#      x y z
#    x 1.676130 0.000000 0.000000 
#    y 0.000000 1.753600 0.000000 
#    z 0.000000 0.000000 1.636160 
# 
# From -- ./inp_files/51790.got.cif
#   From: 2010.05.17/outbox.cif.g08.bks.cpg/sg68_26_cif.got.tgz:51790.got - 2010.06.03 18:57:09.
