data_PCOD9506084
_publ_section_title
;
Structure prediction by ZEFSAII (Michael W. Deem and Ramdas Pophale) SiO2 
 PCOD9506084
Probable space group: C C C A
;
_chemical_formula_sum "Si O2"
_cell_formula_units_Z 104
_cell_length_a 20.657165
_cell_length_b 14.879197
_cell_length_c 17.615825
_cell_angle_alpha 90.000000
_cell_angle_beta 90.000000
_cell_angle_gamma 90.000000
_cell_volume 5414.435688
_symmetry_space_group_name_H-M "C C C A"
_symmetry_group_IT_number 68
_space_group.IT_coordinate_system_code '2'
_symmetry_cell_setting 'orthorhombic'
loop_
_space_group_symop_operation_xyz
x,y,z
-x,1/2-y,z
x,1/2-y,1/2-z
-x,y,1/2-z
-x,-y,-z
x,1/2+y,-z
-x,1/2+y,1/2+z
x,-y,1/2+z
1/2+x,1/2+y,z
1/2-x,-y,z
1/2+x,-y,1/2-z
1/2-x,1/2+y,1/2-z
1/2-x,1/2-y,-z
1/2+x,y,-z
1/2-x,y,1/2+z
1/2+x,1/2-y,1/2+z
loop_
_atom_site_type_symbol
_atom_site_label
_atom_site_fract_x
_atom_site_fract_y
_atom_site_fract_z
Si Si1 0.124711 0.571690 0.751175
Si Si2 0.000000 0.054207 0.750000
Si Si3 0.318511 0.633320 0.100878
Si Si4 0.000000 0.250000 0.028298
Si Si5 0.007310 0.088178 0.585663
Si Si6 0.634223 0.321571 0.593001
Si Si7 0.750000 0.000000 0.693544
Si Si8 0.886876 0.489648 0.001514
O O1 0.060980 0.512604 0.752292
O O2 0.130174 0.625050 0.671299
O O3 0.133805 0.636630 0.822803
O O4 0.186330 0.505045 0.744121
O O5 0.998884 0.111279 0.826718
O O6 0.317606 0.737746 0.082326
O O7 0.255650 0.586915 0.138824
O O8 0.343274 0.567723 0.034314
O O9 0.937954 0.283632 0.074870
O O10 0.981479 0.168636 0.972713
O O11 0.068393 0.023676 0.571013
O O12 0.940789 0.039504 0.560535
O O13 0.648239 0.401445 0.533197
#
# Coordination Sequence:
#
# PCOD9506084 Si02
#       8
#    16   8  16   8  16  16   8  16
#     4  10  22  37  60  93 126 163 215 265 330 395
#     4  12  20  35  65  94 126 176 218 258 330 396
#     4  10  20  41  59  84 127 170 208 263 331 387
#     4  10  22  33  57  94 140 168 204 274 330 382
#     4  10  19  34  51  85 135 173 205 254 323 380
#     4  11  21  34  63  97 124 163 219 266 325 404
#     4   8  22  40  60  76 134 170 196 272 344 390
#     4  10  19  34  55  87 131 168 202 267 320 378
#
# _framework density 19.207912
#
# number of rings (size 3 to 8) (size 9 to 14) (size 15 to 20)
#    0.923    0.923    4.615    0.462    2.154    0.308 
#    0.000    1.538    0.000   12.923    0.000    0.000 
#    0.000    0.000    0.000    0.000    0.000    0.000 
#
# Total GULP energy -289704.311990 kJ/mol
# GULP energy per Si atom -5571.236769 kJ/mol
# Density = 1.916419 g / cm^3
# Si number density = 19.207912 Si / 1000 Ang^3
#
#
#
# Elastic Constant Matrix: (Units=GPa)
#
#
# Indices 1 2 3 4 5 6 
#
# 1 64.7114 38.0690 16.5489 0.0000 0.0000 0.0000
# 2 38.0690 119.0491 35.5966 0.0000 0.0000 0.0000
# 3 16.5489 35.5966 109.4610 0.0000 0.0000 0.0000
# 4 0.0000 0.0000 0.0000 43.7654 0.0000 0.0000
# 5 0.0000 0.0000 0.0000 0.0000 16.3226 0.0000
# 6 0.0000 0.0000 0.0000 0.0000 0.0000 27.6209
#
#
#
# Elastic Compliance Matrix: (Units=1/GPa)
#
#
# Indices 1 2 3 4 5 6 
#
# 1 0.019132 -0.005819 -0.001000 0.000000 0.000000 0.000000
# 2 -0.005819 0.011074 -0.002722 0.000000 0.000000 0.000000
# 3 -0.001000 -0.002722 0.010172 0.000000 0.000000 0.000000
# 4 0.000000 0.000000 0.000000 0.022849 0.000000 0.000000
# 5 0.000000 0.000000 0.000000 0.000000 0.061265 0.000000
# 6 0.000000 0.000000 0.000000 0.000000 0.000000 0.036204
#
#
# Mechanical properties :
#
#
# Convention : Reuss Voigt Hill
#
# Bulk Modulus (GPa) = 46.95491 52.62784 49.79137
# Shear Modulus (GPa) = 26.75550 31.07559 28.91554
#
# Velocity S-wave (km/s) = 3.73626 4.02662 3.88415
# Velocity P-wave (km/s) = 6.56594 7.00548 6.78927
#
# Compressibility (1/GPa) = 0.02129703
#
# Stress axis : x y z
#
# Youngs Moduli (GPa) = 52.26785 90.29788 98.30933
#
# Poissons Ratio (x) = 0.52544 0.09833
# Poissons Ratio (y) = 0.30414 0.26757
# Poissons Ratio (z) = 0.05228 0.24576
#
# Static dielectric constant tensor:
#      x y z
#    x 1.670640 0.000000 0.000000 
#    y 0.000000 1.711040 0.000000 
#    z 0.000000 0.000000 1.686530 
# 
# From -- ./inp_files/33689.got.cif
#   From: 2010.05.17/outbox.cif.g08.bks.cpg/sg68_17_cif.got.tgz:33689.got - 2010.06.03 18:57:09.
