data_PCOD9506826
_publ_section_title
;
Structure prediction by ZEFSAII (Michael W. Deem and Ramdas Pophale) SiO2 
 PCOD9506826
Probable space group: C C C A
;
_chemical_formula_sum "Si O2"
_cell_formula_units_Z 76
_cell_length_a 22.067875
_cell_length_b 13.663533
_cell_length_c 11.295283
_cell_angle_alpha 90.000000
_cell_angle_beta 90.000000
_cell_angle_gamma 90.000000
_cell_volume 3405.811769
_symmetry_space_group_name_H-M "C C C A"
_symmetry_group_IT_number 68
_space_group.IT_coordinate_system_code '2'
_symmetry_cell_setting 'orthorhombic'
loop_
_space_group_symop_operation_xyz
x,y,z
-x,1/2-y,z
x,1/2-y,1/2-z
-x,y,1/2-z
-x,-y,-z
x,1/2+y,-z
-x,1/2+y,1/2+z
x,-y,1/2+z
1/2+x,1/2+y,z
1/2-x,-y,z
1/2+x,-y,1/2-z
1/2-x,1/2+y,1/2-z
1/2-x,1/2-y,-z
1/2+x,y,-z
1/2-x,y,1/2+z
1/2+x,1/2-y,1/2+z
loop_
_atom_site_type_symbol
_atom_site_label
_atom_site_fract_x
_atom_site_fract_y
_atom_site_fract_z
Si Si1 0.178592 0.491784 0.293153
Si Si2 0.000000 0.750000 0.250000
Si Si3 0.000000 0.107236 0.250000
Si Si4 0.403821 0.144418 0.082957
Si Si5 0.900362 0.171546 0.430131
Si Si6 0.908748 0.989913 0.099606
O O1 0.250000 0.500000 0.305330
O O2 0.149901 0.593861 0.342404
O O3 0.150218 0.397031 0.363969
O O4 0.156974 0.487787 0.155978
O O5 0.955033 0.687893 0.166633
O O6 0.040491 0.166704 0.154261
O O7 0.047915 0.032523 0.303486
O O8 0.385811 0.219196 0.975929
O O9 0.428209 0.050133 0.015031
O O10 0.912786 0.119531 0.555870
#
# Coordination Sequence:
#
# PCOD9506826 Si02
#       6
#    16   4   8  16  16  16
#     4  10  24  44  64  90 128 175 227 275 321 383
#     4  12  24  42  68 104 140 170 216 268 336 408
#     4  10  20  36  60  92 132 170 210 264 330 402
#     4  11  24  41  65  96 131 169 213 271 330 394
#     4  10  22  39  62  94 128 169 216 266 331 391
#     4  10  22  38  60  90 126 168 217 270 325 386
#
# _framework density 22.314796999999999
#
# number of rings (size 3 to 8) (size 9 to 14) (size 15 to 20)
#    0.000    1.684    0.000    3.158    0.000   20.211 
#    0.000    4.211    0.000    0.000    0.000    0.000 
#    0.000    0.000    0.000    0.000    0.000    0.000 
#
# Total GULP energy -212074.955028 kJ/mol
# GULP energy per Si atom -5580.919869 kJ/mol
# Density = 2.226401 g / cm^3
# Si number density = 22.314797 Si / 1000 Ang^3
#
#
#
# Elastic Constant Matrix: (Units=GPa)
#
#
# Indices 1 2 3 4 5 6 
#
# 1 162.6166 42.8930 33.7580 0.0000 0.0000 0.0000
# 2 42.8930 93.6437 20.6742 0.0000 0.0000 0.0000
# 3 33.7580 20.6742 77.0645 0.0000 0.0000 0.0000
# 4 0.0000 0.0000 0.0000 25.4142 0.0000 0.0000
# 5 0.0000 0.0000 0.0000 0.0000 16.6968 0.0000
# 6 0.0000 0.0000 0.0000 0.0000 0.0000 30.4113
#
#
#
# Elastic Compliance Matrix: (Units=1/GPa)
#
#
# Indices 1 2 3 4 5 6 
#
# 1 0.007417 -0.002849 -0.002485 0.000000 0.000000 0.000000
# 2 -0.002849 0.012445 -0.002091 0.000000 0.000000 0.000000
# 3 -0.002485 -0.002091 0.014625 0.000000 0.000000 0.000000
# 4 0.000000 0.000000 0.000000 0.039348 0.000000 0.000000
# 5 0.000000 0.000000 0.000000 0.000000 0.059892 0.000000
# 6 0.000000 0.000000 0.000000 0.000000 0.000000 0.032883
#
#
# Mechanical properties :
#
#
# Convention : Reuss Voigt Hill
#
# Bulk Modulus (GPa) = 50.91898 58.66393 54.79145
# Shear Modulus (GPa) = 26.59518 30.23777 28.41648
#
# Velocity S-wave (km/s) = 3.45602 3.68510 3.57240
# Velocity P-wave (km/s) = 6.22844 6.66730 6.45160
#
# Compressibility (1/GPa) = 0.01963904
#
# Stress axis : x y z
#
# Youngs Moduli (GPa) = 134.83284 80.35246 68.37400
#
# Poissons Ratio (x) = 0.22889 0.16988
# Poissons Ratio (y) = 0.38408 0.14296
# Poissons Ratio (z) = 0.33501 0.16801
#
# Static dielectric constant tensor:
#      x y z
#    x 1.821940 0.000000 0.000000 
#    y 0.000000 1.845520 0.000000 
#    z 0.000000 0.000000 1.960180 
# 
# From -- ./inp_files/16242.got.cif
#   From: 2010.05.17/outbox.cif.g08.bks.cpg/sg68_9_cif.got.tgz:16242.got - 2010.06.03 18:57:09.
