data_PCOD9506104
_publ_section_title
;
Structure prediction by ZEFSAII (Michael W. Deem and Ramdas Pophale) SiO2 
 PCOD9506104
Probable space group: C C C A
;
_chemical_formula_sum "Si O2"
_cell_formula_units_Z 120
_cell_length_a 19.965852
_cell_length_b 12.187168
_cell_length_c 26.732667
_cell_angle_alpha 90.000000
_cell_angle_beta 90.000000
_cell_angle_gamma 90.000000
_cell_volume 6504.784811
_symmetry_space_group_name_H-M "C C C A"
_symmetry_group_IT_number 68
_space_group.IT_coordinate_system_code '2'
_symmetry_cell_setting 'orthorhombic'
loop_
_space_group_symop_operation_xyz
x,y,z
-x,1/2-y,z
x,1/2-y,1/2-z
-x,y,1/2-z
-x,-y,-z
x,1/2+y,-z
-x,1/2+y,1/2+z
x,-y,1/2+z
1/2+x,1/2+y,z
1/2-x,-y,z
1/2+x,-y,1/2-z
1/2-x,1/2+y,1/2-z
1/2-x,1/2-y,-z
1/2+x,y,-z
1/2-x,y,1/2+z
1/2+x,1/2-y,1/2+z
loop_
_atom_site_type_symbol
_atom_site_label
_atom_site_fract_x
_atom_site_fract_y
_atom_site_fract_z
Si Si1 0.552441 0.614107 0.930196
Si Si2 0.185981 0.083529 0.671715
Si Si3 0.750000 0.000000 0.093680
Si Si4 0.405886 0.946042 0.577739
Si Si5 0.422471 0.117159 0.254898
Si Si6 0.872212 0.597394 0.962878
Si Si7 0.340910 0.831491 0.849976
Si Si8 0.434746 0.186009 0.545641
O O1 0.476501 0.613886 0.910434
O O2 0.574924 0.486483 0.936956
O O3 0.605375 0.678397 0.895663
O O4 0.554764 0.658292 0.986908
O O5 0.151928 0.065537 0.617969
O O6 0.127606 0.067067 0.713413
O O7 0.191922 0.218168 0.670568
O O8 0.250000 0.000000 0.678337
O O9 0.803265 0.052730 0.056802
O O10 0.716083 0.090756 0.128381
O O11 0.383755 0.910896 0.522145
O O12 0.421614 0.074659 0.573588
O O13 0.425491 0.250000 0.250000
O O14 0.500000 0.078688 0.250000
O O15 0.384908 0.106222 0.307880
O O16 0.877696 0.723973 0.948817
O O17 0.500000 0.250000 0.563336
#
# Coordination Sequence:
#
# PCOD9506104 Si02
#       8
#    16  16   8  16  16  16  16  16
#     4  10  19  34  55  86 108 151 211 248 287 341
#     4  11  25  38  56  92 125 151 192 239 316 368
#     4  10  24  38  58  80 114 166 208 232 278 368
#     4  11  21  34  55  83 121 160 195 252 299 344
#     4   9  19  40  67  90 112 144 195 257 304 353
#     4  10  20  35  50  79 115 155 207 240 280 345
#     4  10  22  40  62  86 113 154 201 245 300 351
#     4  11  18  32  56  81 119 159 200 250 301 336
#
# _framework density 18.447958
#
# number of rings (size 3 to 8) (size 9 to 14) (size 15 to 20)
#    0.000    1.733    2.667    2.400    3.733    1.067 
#    0.000    2.667    0.000    0.000    0.000    0.933 
#    0.000    0.000    0.000    0.000    0.000    0.000 
#
# Total GULP energy -334385.165334 kJ/mol
# GULP energy per Si atom -5573.086089 kJ/mol
# Density = 1.840597 g / cm^3
# Si number density = 18.447958 Si / 1000 Ang^3
#
#
#
# Elastic Constant Matrix: (Units=GPa)
#
#
# Indices 1 2 3 4 5 6 
#
# 1 131.7933 43.9784 33.7407 0.0000 0.0000 0.0000
# 2 43.9784 85.0370 -4.2850 0.0000 0.0000 0.0000
# 3 33.7407 -4.2850 39.5229 0.0000 0.0000 0.0000
# 4 0.0000 0.0000 0.0000 12.8753 0.0000 0.0000
# 5 0.0000 0.0000 0.0000 0.0000 19.9898 0.0000
# 6 0.0000 0.0000 0.0000 0.0000 0.0000 28.9124
#
#
#
# Elastic Compliance Matrix: (Units=1/GPa)
#
#
# Indices 1 2 3 4 5 6 
#
# 1 0.013131 -0.007396 -0.012012 0.000000 0.000000 0.000000
# 2 -0.007396 0.015990 0.008048 0.000000 0.000000 0.000000
# 3 -0.012012 0.008048 0.036429 0.000000 0.000000 0.000000
# 4 0.000000 0.000000 0.000000 0.077668 0.000000 0.000000
# 5 0.000000 0.000000 0.000000 0.000000 0.050025 0.000000
# 6 0.000000 0.000000 0.000000 0.000000 0.000000 0.034587
#
#
# Mechanical properties :
#
#
# Convention : Reuss Voigt Hill
#
# Bulk Modulus (GPa) = 23.34848 44.80239 34.07543
# Shear Modulus (GPa) = 18.88026 24.55010 21.71518
#
# Velocity S-wave (km/s) = 3.20259 3.65194 3.43462
# Velocity P-wave (km/s) = 5.13413 6.49005 5.85150
#
# Compressibility (1/GPa) = 0.04282935
#
# Stress axis : x y z
#
# Youngs Moduli (GPa) = 76.15705 62.53863 27.45102
#
# Poissons Ratio (x) = 0.46254 0.32973
# Poissons Ratio (y) = 0.56326 -0.22092
# Poissons Ratio (z) = 0.91477 -0.50329
#
# Static dielectric constant tensor:
#      x y z
#    x 1.863160 0.000000 0.000000 
#    y 0.000000 1.671290 0.000000 
#    z 0.000000 0.000000 1.642130 
# 
# From -- ./inp_files/46723.got.cif
#   From: 2010.05.17/outbox.cif.g08.bks.cpg/sg68_24_cif.got.tgz:46723.got - 2010.06.03 18:57:09.
