data_PCOD9506680
_publ_section_title
;
Structure prediction by ZEFSAII (Michael W. Deem and Ramdas Pophale) SiO2 
 PCOD9506680
Probable space group: C C C A
;
_chemical_formula_sum "Si O2"
_cell_formula_units_Z 72
_cell_length_a 13.882885
_cell_length_b 28.579410
_cell_length_c 9.105007
_cell_angle_alpha 90.000000
_cell_angle_beta 90.000000
_cell_angle_gamma 90.000000
_cell_volume 3612.545028
_symmetry_space_group_name_H-M "C C C A"
_symmetry_group_IT_number 68
_space_group.IT_coordinate_system_code '2'
_symmetry_cell_setting 'orthorhombic'
loop_
_space_group_symop_operation_xyz
x,y,z
-x,1/2-y,z
x,1/2-y,1/2-z
-x,y,1/2-z
-x,-y,-z
x,1/2+y,-z
-x,1/2+y,1/2+z
x,-y,1/2+z
1/2+x,1/2+y,z
1/2-x,-y,z
1/2+x,-y,1/2-z
1/2-x,1/2+y,1/2-z
1/2-x,1/2-y,-z
1/2+x,y,-z
1/2-x,y,1/2+z
1/2+x,1/2-y,1/2+z
loop_
_atom_site_type_symbol
_atom_site_label
_atom_site_fract_x
_atom_site_fract_y
_atom_site_fract_z
Si Si1 0.713838 0.947383 0.267180
Si Si2 0.548884 0.606549 0.093566
Si Si3 0.301456 0.315822 0.003072
Si Si4 0.653982 0.104452 0.475527
Si Si5 0.263875 0.750000 0.750000
O O1 0.618796 0.937065 0.366601
O O2 0.797317 0.913346 0.327189
O O3 0.750000 0.000000 0.273911
O O4 0.689049 0.930719 0.103798
O O5 0.500000 0.619658 0.250000
O O6 0.618856 0.646366 0.035247
O O7 0.460662 0.601216 0.982401
O O8 0.200194 0.344694 0.011273
O O9 0.295722 0.278816 0.870617
O O10 0.320063 0.288131 0.153258
#
# Coordination Sequence:
#
# PCOD9506680 Si02
#       5
#    16  16  16  16   8
#     4  10  20  35  57  84 111 144 185 226 267 323
#     4   9  19  36  58  79 110 152 184 220 281 340
#     4  10  20  38  58  82 113 148 187 231 284 335
#     4  10  20  38  58  78 112 150 182 223 279 332
#     4  10  20  36  60  84 112 144 186 240 280 330
#
# _framework density 19.930548999999999
#
# number of rings (size 3 to 8) (size 9 to 14) (size 15 to 20)
#    0.000    2.222    0.000    4.667    0.000    0.889 
#    0.000   28.333    0.000    0.000    0.000    0.000 
#    0.000    0.000    0.000    0.000    0.000    0.000 
#
# Total GULP energy -200896.605644 kJ/mol
# GULP energy per Si atom -5580.461268 kJ/mol
# Density = 1.988519 g / cm^3
# Si number density = 19.930549 Si / 1000 Ang^3
#
#
#
# Elastic Constant Matrix: (Units=GPa)
#
#
# Indices 1 2 3 4 5 6 
#
# 1 102.1252 31.3066 19.9293 0.0000 0.0000 0.0000
# 2 31.3066 109.8457 26.4069 0.0000 0.0000 0.0000
# 3 19.9293 26.4069 52.4917 0.0000 0.0000 0.0000
# 4 0.0000 0.0000 0.0000 23.9600 0.0000 0.0000
# 5 0.0000 0.0000 0.0000 0.0000 23.7768 0.0000
# 6 0.0000 0.0000 0.0000 0.0000 0.0000 74.6766
#
#
#
# Elastic Compliance Matrix: (Units=1/GPa)
#
#
# Indices 1 2 3 4 5 6 
#
# 1 0.011127 -0.002452 -0.002991 0.000000 0.000000 0.000000
# 2 -0.002452 0.010897 -0.004551 0.000000 0.000000 0.000000
# 3 -0.002991 -0.004551 0.022476 0.000000 0.000000 0.000000
# 4 0.000000 0.000000 0.000000 0.041736 0.000000 0.000000
# 5 0.000000 0.000000 0.000000 0.000000 0.042058 0.000000
# 6 0.000000 0.000000 0.000000 0.000000 0.000000 0.013391
#
#
# Mechanical properties :
#
#
# Convention : Reuss Voigt Hill
#
# Bulk Modulus (GPa) = 40.79718 46.63869 43.71794
# Shear Modulus (GPa) = 29.43894 36.93732 33.18813
#
# Velocity S-wave (km/s) = 3.84744 4.30967 4.08510
# Velocity P-wave (km/s) = 6.34438 6.94376 6.65083
#
# Compressibility (1/GPa) = 0.02451150
#
# Stress axis : x y z
#
# Youngs Moduli (GPa) = 89.86871 91.77184 44.49288
#
# Poissons Ratio (x) = 0.22505 0.13308
# Poissons Ratio (y) = 0.22039 0.20247
# Poissons Ratio (z) = 0.26880 0.41762
#
# Static dielectric constant tensor:
#      x y z
#    x 1.708430 0.000000 0.000000 
#    y 0.000000 1.700080 0.000000 
#    z 0.000000 0.000000 1.724130 
# 
# From -- ./inp_files/5182.got.cif
#   From: 2010.05.17/outbox.cif.g08.bks.cpg/sg68_3_cif.got.tgz:5182.got - 2010.06.03 18:57:09.
