data_PCOD9506684
_publ_section_title
;
Structure prediction by ZEFSAII (Michael W. Deem and Ramdas Pophale) SiO2 
 PCOD9506684
Probable space group: C C C A
;
_chemical_formula_sum "Si O2"
_cell_formula_units_Z 80
_cell_length_a 14.160265
_cell_length_b 11.912522
_cell_length_c 24.728857
_cell_angle_alpha 90.000000
_cell_angle_beta 90.000000
_cell_angle_gamma 90.000000
_cell_volume 4171.374096
_symmetry_space_group_name_H-M "C C C A"
_symmetry_group_IT_number 68
_space_group.IT_coordinate_system_code '2'
_symmetry_cell_setting 'orthorhombic'
loop_
_space_group_symop_operation_xyz
x,y,z
-x,1/2-y,z
x,1/2-y,1/2-z
-x,y,1/2-z
-x,-y,-z
x,1/2+y,-z
-x,1/2+y,1/2+z
x,-y,1/2+z
1/2+x,1/2+y,z
1/2-x,-y,z
1/2+x,-y,1/2-z
1/2-x,1/2+y,1/2-z
1/2-x,1/2-y,-z
1/2+x,y,-z
1/2-x,y,1/2+z
1/2+x,1/2-y,1/2+z
loop_
_atom_site_type_symbol
_atom_site_label
_atom_site_fract_x
_atom_site_fract_y
_atom_site_fract_z
Si Si1 0.894098 0.205069 0.543353
Si Si2 0.323170 0.717081 0.327415
Si Si3 0.283222 0.626048 0.441224
Si Si4 0.677105 0.406043 0.353374
Si Si5 0.895696 0.919332 0.730603
O O1 0.812278 0.299964 0.550741
O O2 0.853863 0.138918 0.491595
O O3 0.890535 0.130989 0.598128
O O4 0.000000 0.250000 0.535045
O O5 0.334166 0.666681 0.386541
O O6 0.228888 0.793936 0.331676
O O7 0.396987 0.812976 0.310024
O O8 0.330867 0.623133 0.280701
O O9 0.250000 0.500000 0.434808
O O10 0.750000 0.500000 0.377074
O O11 0.637389 0.472829 0.302266
O O12 0.000000 0.940037 0.750000
#
# Coordination Sequence:
#
# PCOD9506684 Si02
#       5
#    16  16  16  16  16
#     4  10  22  40  60  87 118 151 193 243 294 347
#     4   9  19  35  56  82 113 147 189 234 280 337
#     4  10  22  39  61  87 118 155 196 240 291 352
#     4   9  19  38  59  78 113 155 188 231 290 349
#     4  10  20  35  58  85 114 149 192 238 286 340
#
# _framework density 19.178332999999999
#
# number of rings (size 3 to 8) (size 9 to 14) (size 15 to 20)
#    0.000    2.400    0.000    1.800    0.000    9.600 
#    0.000   10.000    0.000    0.000    0.000    0.000 
#    0.000    0.000    0.000    0.000    0.000    0.000 
#
# Total GULP energy -222883.906137 kJ/mol
# GULP energy per Si atom -5572.097653 kJ/mol
# Density = 1.913468 g / cm^3
# Si number density = 19.178333 Si / 1000 Ang^3
#
#
#
# Elastic Constant Matrix: (Units=GPa)
#
#
# Indices 1 2 3 4 5 6 
#
# 1 74.9397 12.3018 41.2941 0.0000 0.0000 0.0000
# 2 12.3018 69.1628 56.0574 0.0000 0.0000 0.0000
# 3 41.2941 56.0574 131.6252 0.0000 0.0000 0.0000
# 4 0.0000 0.0000 0.0000 26.3348 0.0000 0.0000
# 5 0.0000 0.0000 0.0000 0.0000 0.2362 0.0000
# 6 0.0000 0.0000 0.0000 0.0000 0.0000 10.7409
#
#
#
# Elastic Compliance Matrix: (Units=1/GPa)
#
#
# Indices 1 2 3 4 5 6 
#
# 1 0.016295 0.001902 -0.005922 0.000000 0.000000 0.000000
# 2 0.001902 0.022302 -0.010095 0.000000 0.000000 0.000000
# 3 -0.005922 -0.010095 0.013754 0.000000 0.000000 0.000000
# 4 0.000000 0.000000 0.000000 0.037973 0.000000 0.000000
# 5 0.000000 0.000000 0.000000 0.000000 4.233799 0.000000
# 6 0.000000 0.000000 0.000000 0.000000 0.000000 0.093102
#
#
# Mechanical properties :
#
#
# Convention : Reuss Voigt Hill
#
# Bulk Modulus (GPa) = 41.45710 55.00381 48.23045
# Shear Modulus (GPa) = 1.12271 18.53401 9.82836
#
# Velocity S-wave (km/s) = 0.76595 3.11208 2.26624
# Velocity P-wave (km/s) = 4.73770 6.45413 5.66134
#
# Compressibility (1/GPa) = 0.02412132
#
# Stress axis : x y z
#
# Youngs Moduli (GPa) = 61.36799 44.83818 72.70360
#
# Poissons Ratio (x) = -0.08526 0.43055
# Poissons Ratio (y) = -0.11669 0.73393
# Poissons Ratio (z) = 0.36342 0.45263
#
# Static dielectric constant tensor:
#      x y z
#    x 1.680560 0.000000 0.000000 
#    y 0.000000 1.674450 0.000000 
#    z 0.000000 0.000000 1.678690 
# 
# From -- ./inp_files/45182.got.cif
#   From: 2010.05.17/outbox.cif.g08.bks.cpg/sg68_23_cif.got.tgz:45182.got - 2010.06.03 18:57:09.
