data_PCOD9506144
_publ_section_title
;
Structure prediction by ZEFSAII (Michael W. Deem and Ramdas Pophale) SiO2 
 PCOD9506144
Probable space group: C C C A
;
_chemical_formula_sum "Si O2"
_cell_formula_units_Z 104
_cell_length_a 21.802555
_cell_length_b 13.650564
_cell_length_c 18.678018
_cell_angle_alpha 90.000000
_cell_angle_beta 90.000000
_cell_angle_gamma 90.000000
_cell_volume 5558.898903
_symmetry_space_group_name_H-M "C C C A"
_symmetry_group_IT_number 68
_space_group.IT_coordinate_system_code '2'
_symmetry_cell_setting 'orthorhombic'
loop_
_space_group_symop_operation_xyz
x,y,z
-x,1/2-y,z
x,1/2-y,1/2-z
-x,y,1/2-z
-x,-y,-z
x,1/2+y,-z
-x,1/2+y,1/2+z
x,-y,1/2+z
1/2+x,1/2+y,z
1/2-x,-y,z
1/2+x,-y,1/2-z
1/2-x,1/2+y,1/2-z
1/2-x,1/2-y,-z
1/2+x,y,-z
1/2-x,y,1/2+z
1/2+x,1/2-y,1/2+z
loop_
_atom_site_type_symbol
_atom_site_label
_atom_site_fract_x
_atom_site_fract_y
_atom_site_fract_z
Si Si1 0.308223 0.177262 0.497363
Si Si2 0.023276 0.137484 0.098302
Si Si3 0.250000 0.000000 0.912346
Si Si4 0.952789 0.024958 0.683898
Si Si5 0.837353 0.101521 0.199998
Si Si6 0.557825 0.176016 0.057059
Si Si7 0.149196 0.677273 0.842932
O O1 0.250000 0.250000 0.500000
O O2 0.372528 0.214344 0.460574
O O3 0.322075 0.161114 0.580371
O O4 0.289250 0.076068 0.459202
O O5 0.081599 0.133084 0.150449
O O6 0.000000 0.250000 0.098889
O O7 0.976911 0.060548 0.130976
O O8 0.042385 0.115841 0.016161
O O9 0.291572 0.064109 0.859742
O O10 0.888555 0.981208 0.710275
O O11 0.000000 0.041707 0.750000
O O12 0.942213 0.116271 0.630943
O O13 0.860359 0.207394 0.172345
O O14 0.813013 0.128665 0.278794
O O15 0.500000 0.250000 0.062216
#
# Coordination Sequence:
#
# PCOD9506144 Si02
#       7
#    16  16   8  16  16  16  16
#     4  11  23  44  69  98 127 179 230 279 334 403
#     4  10  19  34  60  94 124 156 200 261 321 388
#     4  12  24  42  70  92 132 172 230 280 332 396
#     4  12  22  37  63  94 128 167 211 262 331 398
#     4  11  22  38  63  93 130 167 210 279 329 394
#     4  10  24  43  63  90 131 174 220 271 329 397
#     4  10  21  38  61  93 130 163 212 265 338 393
#
# _framework density 18.708742000000001
#
# number of rings (size 3 to 8) (size 9 to 14) (size 15 to 20)
#    0.000    1.231    6.154    0.462    0.000    1.231 
#    5.538    1.538    3.385    0.000    0.000    0.000 
#    0.000    0.000    0.000    0.000    0.000    0.000 
#
# Total GULP energy -289660.950958 kJ/mol
# GULP energy per Si atom -5570.402903 kJ/mol
# Density = 1.866616 g / cm^3
# Si number density = 18.708742 Si / 1000 Ang^3
#
#
#
# Elastic Constant Matrix: (Units=GPa)
#
#
# Indices 1 2 3 4 5 6 
#
# 1 82.0743 29.5811 31.8300 0.0000 0.0000 0.0000
# 2 29.5811 58.5659 40.4514 0.0000 0.0000 0.0000
# 3 31.8300 40.4514 128.7985 0.0000 0.0000 0.0000
# 4 0.0000 0.0000 0.0000 32.3016 0.0000 0.0000
# 5 0.0000 0.0000 0.0000 0.0000 39.0461 0.0000
# 6 0.0000 0.0000 0.0000 0.0000 0.0000 20.4961
#
#
#
# Elastic Compliance Matrix: (Units=1/GPa)
#
#
# Indices 1 2 3 4 5 6 
#
# 1 0.015187 -0.006485 -0.001716 0.000000 0.000000 0.000000
# 2 -0.006485 0.024574 -0.006115 0.000000 0.000000 0.000000
# 3 -0.001716 -0.006115 0.010109 0.000000 0.000000 0.000000
# 4 0.000000 0.000000 0.000000 0.030958 0.000000 0.000000
# 5 0.000000 0.000000 0.000000 0.000000 0.025611 0.000000
# 6 0.000000 0.000000 0.000000 0.000000 0.000000 0.048790
#
#
# Mechanical properties :
#
#
# Convention : Reuss Voigt Hill
#
# Bulk Modulus (GPa) = 47.08922 52.57373 49.83148
# Shear Modulus (GPa) = 26.18598 29.54050 27.86324
#
# Velocity S-wave (km/s) = 3.74527 3.97793 3.86335
# Velocity P-wave (km/s) = 6.62774 7.01860 6.82597
#
# Compressibility (1/GPa) = 0.02123628
#
# Stress axis : x y z
#
# Youngs Moduli (GPa) = 65.84495 40.69288 98.92350
#
# Poissons Ratio (x) = 0.26391 0.16979
# Poissons Ratio (y) = 0.42703 0.60494
# Poissons Ratio (z) = 0.11301 0.24885
#
# Static dielectric constant tensor:
#      x y z
#    x 1.713010 0.000000 0.000000 
#    y 0.000000 1.636160 0.000000 
#    z 0.000000 0.000000 1.645120 
# 
# From -- ./inp_files/33015.got.cif
#   From: 2010.05.17/outbox.cif.g08.bks.cpg/sg68_17_cif.got.tgz:33015.got - 2010.06.03 18:57:09.
