data_PCOD9506804
_publ_section_title
;
Structure prediction by ZEFSAII (Michael W. Deem and Ramdas Pophale) SiO2 
 PCOD9506804
Probable space group: C C C A
;
_chemical_formula_sum "Si O2"
_cell_formula_units_Z 96
_cell_length_a 15.253613
_cell_length_b 11.962632
_cell_length_c 22.894199
_cell_angle_alpha 90.000000
_cell_angle_beta 90.000000
_cell_angle_gamma 90.000000
_cell_volume 4177.581393
_symmetry_space_group_name_H-M "C C C A"
_symmetry_group_IT_number 68
_space_group.IT_coordinate_system_code '2'
_symmetry_cell_setting 'orthorhombic'
loop_
_space_group_symop_operation_xyz
x,y,z
-x,1/2-y,z
x,1/2-y,1/2-z
-x,y,1/2-z
-x,-y,-z
x,1/2+y,-z
-x,1/2+y,1/2+z
x,-y,1/2+z
1/2+x,1/2+y,z
1/2-x,-y,z
1/2+x,-y,1/2-z
1/2-x,1/2+y,1/2-z
1/2-x,1/2-y,-z
1/2+x,y,-z
1/2-x,y,1/2+z
1/2+x,1/2-y,1/2+z
loop_
_atom_site_type_symbol
_atom_site_label
_atom_site_fract_x
_atom_site_fract_y
_atom_site_fract_z
Si Si1 0.386874 0.641903 0.387503
Si Si2 0.905949 0.887652 0.602196
Si Si3 0.333091 0.576693 0.667721
Si Si4 0.591639 0.705020 0.614623
Si Si5 0.912605 0.970054 0.285811
Si Si6 0.604304 0.478815 0.018026
O O1 0.490874 0.638126 0.400916
O O2 0.362448 0.770950 0.378348
O O3 0.375236 0.567055 0.328959
O O4 0.354152 0.585145 0.448096
O O5 0.861992 0.932549 0.543139
O O6 0.907004 0.993410 0.644103
O O7 0.250000 0.500000 0.653562
O O8 0.346317 0.693815 0.635096
O O9 0.345382 0.577076 0.737266
O O10 0.500000 0.750000 0.590460
O O11 0.568597 0.634167 0.672175
O O12 0.620339 0.618226 0.565525
O O13 0.000000 0.005288 0.250000
O O14 0.500000 0.500000 0.000000
#
# Coordination Sequence:
#
# PCOD9506804 Si02
#       6
#    16  16  16  16  16  16
#     4   9  19  35  60  93 119 157 205 266 325 382
#     4  10  20  36  59  90 127 162 201 252 328 401
#     4  12  26  42  60  94 133 171 216 276 339 398
#     4  11  21  37  70  97 122 166 220 282 329 394
#     4  11  20  41  64  91 122 161 222 276 326 388
#     4   9  19  33  61  98 128 152 205 277 331 378
#
# _framework density 22.979803
#
# number of rings (size 3 to 8) (size 9 to 14) (size 15 to 20)
#    0.000    1.667    3.333    2.500    7.000    0.667 
#    6.000    0.833    0.000    0.000    0.000    0.000 
#    0.000    0.000    0.000    0.000    0.000    0.000 
#
# Total GULP energy -267378.519562 kJ/mol
# GULP energy per Si atom -5570.385824 kJ/mol
# Density = 2.292750 g / cm^3
# Si number density = 22.979803 Si / 1000 Ang^3
#
#
#
# Elastic Constant Matrix: (Units=GPa)
#
#
# Indices 1 2 3 4 5 6 
#
# 1 37.9784 6.6840 5.0835 0.0000 0.0000 0.0000
# 2 6.6840 129.9808 37.0858 0.0000 0.0000 0.0000
# 3 5.0835 37.0858 110.2068 0.0000 0.0000 0.0000
# 4 0.0000 0.0000 0.0000 -12.6756 0.0000 0.0000
# 5 0.0000 0.0000 0.0000 0.0000 -9.9156 0.0000
# 6 0.0000 0.0000 0.0000 0.0000 0.0000 20.4151
#
#
#
# Elastic Compliance Matrix: (Units=1/GPa)
#
#
# Indices 1 2 3 4 5 6 
#
# 1 0.026643 -0.001128 -0.000849 0.000000 0.000000 0.000000
# 2 -0.001128 0.008558 -0.002828 0.000000 0.000000 0.000000
# 3 -0.000849 -0.002828 0.010065 0.000000 0.000000 0.000000
# 4 0.000000 0.000000 0.000000 -0.078892 0.000000 0.000000
# 5 0.000000 0.000000 0.000000 0.000000 -0.100851 0.000000
# 6 0.000000 0.000000 0.000000 0.000000 0.000000 0.048983
#
#
# Mechanical properties :
#
#
# Convention : Reuss Voigt Hill
#
# Bulk Modulus (GPa) = 28.04601 41.76362 34.90482
# Shear Modulus (GPa) = -78.12764 14.85228 -31.63768
#
# Velocity S-wave (km/s) = -5.83714 2.54504 -3.71450
# Velocity P-wave (km/s) = 5.76181 5.18168 1.78167
#
# Compressibility (1/GPa) = 0.03565569
#
# Stress axis : x y z
#
# Youngs Moduli (GPa) = 37.53339 116.84572 99.35745
#
# Poissons Ratio (x) = 0.13177 0.08440
# Poissons Ratio (y) = 0.04233 0.28098
# Poissons Ratio (z) = 0.03188 0.33043
#
# Static dielectric constant tensor:
#      x y z
#    x 2.180750 0.000000 0.000000 
#    y 0.000000 1.948630 0.000000 
#    z 0.000000 0.000000 1.887060 
# 
# From -- ./inp_files/46008.got.cif
#   From: 2010.05.17/outbox.cif.g08.bks.cpg/sg68_24_cif.got.tgz:46008.got - 2010.06.03 18:57:09.
