data_PCOD9506220
_publ_section_title
;
Structure prediction by ZEFSAII (Michael W. Deem and Ramdas Pophale) SiO2 
 PCOD9506220
Probable space group: C C C A
;
_chemical_formula_sum "Si O2"
_cell_formula_units_Z 96
_cell_length_a 14.375542
_cell_length_b 20.812231
_cell_length_c 16.486212
_cell_angle_alpha 90.000000
_cell_angle_beta 90.000000
_cell_angle_gamma 90.000000
_cell_volume 4932.461972
_symmetry_space_group_name_H-M "C C C A"
_symmetry_group_IT_number 68
_space_group.IT_coordinate_system_code '2'
_symmetry_cell_setting 'orthorhombic'
loop_
_space_group_symop_operation_xyz
x,y,z
-x,1/2-y,z
x,1/2-y,1/2-z
-x,y,1/2-z
-x,-y,-z
x,1/2+y,-z
-x,1/2+y,1/2+z
x,-y,1/2+z
1/2+x,1/2+y,z
1/2-x,-y,z
1/2+x,-y,1/2-z
1/2-x,1/2+y,1/2-z
1/2-x,1/2-y,-z
1/2+x,y,-z
1/2-x,y,1/2+z
1/2+x,1/2-y,1/2+z
loop_
_atom_site_type_symbol
_atom_site_label
_atom_site_fract_x
_atom_site_fract_y
_atom_site_fract_z
Si Si1 0.416892 0.113268 0.303955
Si Si2 0.028647 0.568452 0.461081
Si Si3 0.721928 0.314731 0.802460
Si Si4 0.854187 0.016981 0.834161
Si Si5 0.420900 0.113036 0.692815
Si Si6 0.047608 0.811810 0.919524
O O1 0.500000 0.145981 0.250000
O O2 0.456229 0.089145 0.390202
O O3 0.324240 0.155857 0.317832
O O4 0.392114 0.052490 0.245891
O O5 0.124620 0.561390 0.410617
O O6 0.043155 0.625353 0.524814
O O7 0.000000 0.500000 0.500000
O O8 0.730896 0.250000 0.750000
O O9 0.666159 0.364223 0.744779
O O10 0.649925 0.304415 0.878396
O O11 0.750000 0.000000 0.817276
O O12 0.895954 0.947996 0.859917
O O13 0.500000 0.084854 0.750000
O O14 0.471968 0.172449 0.650885
O O15 0.000000 0.750000 0.961359
#
# Coordination Sequence:
#
# PCOD9506220 Si02
#       6
#    16  16  16  16  16  16
#     4  10  24  43  63  94 129 174 221 270 332 394
#     4  11  24  41  62  93 136 173 210 268 341 399
#     4  11  22  40  69  99 124 170 227 274 326 393
#     4  11  21  39  66  91 122 167 223 272 320 389
#     4  10  19  35  65  95 122 157 211 276 323 380
#     4  11  23  42  65  96 134 168 215 275 338 395
#
# _framework density 19.462897999999999
#
# number of rings (size 3 to 8) (size 9 to 14) (size 15 to 20)
#    0.000    1.333    5.000    1.500    2.333    1.667 
#    6.000    0.833    0.000    0.000    0.000    0.000 
#    0.000    0.000    0.000    0.000    0.000    0.000 
#
# Total GULP energy -267209.520589 kJ/mol
# GULP energy per Si atom -5566.865012 kJ/mol
# Density = 1.941860 g / cm^3
# Si number density = 19.462898 Si / 1000 Ang^3
#
#
#
# Elastic Constant Matrix: (Units=GPa)
#
#
# Indices 1 2 3 4 5 6 
#
# 1 121.4196 43.6038 39.3390 0.0000 0.0000 0.0000
# 2 43.6038 105.9965 35.9576 0.0000 0.0000 0.0000
# 3 39.3390 35.9576 80.7723 0.0000 0.0000 0.0000
# 4 0.0000 0.0000 0.0000 49.5055 0.0000 0.0000
# 5 0.0000 0.0000 0.0000 0.0000 13.4754 0.0000
# 6 0.0000 0.0000 0.0000 0.0000 0.0000 32.2396
#
#
#
# Elastic Compliance Matrix: (Units=1/GPa)
#
#
# Indices 1 2 3 4 5 6 
#
# 1 0.010560 -0.003062 -0.003780 0.000000 0.000000 0.000000
# 2 -0.003062 0.012000 -0.003851 0.000000 0.000000 0.000000
# 3 -0.003780 -0.003851 0.015936 0.000000 0.000000 0.000000
# 4 0.000000 0.000000 0.000000 0.020200 0.000000 0.000000
# 5 0.000000 0.000000 0.000000 0.000000 0.074209 0.000000
# 6 0.000000 0.000000 0.000000 0.000000 0.000000 0.031018
#
#
# Mechanical properties :
#
#
# Convention : Reuss Voigt Hill
#
# Bulk Modulus (GPa) = 58.44380 60.66547 59.55464
# Shear Modulus (GPa) = 26.17631 31.66330 28.91980
#
# Velocity S-wave (km/s) = 3.67131 4.03780 3.85891
# Velocity P-wave (km/s) = 6.93288 7.27846 7.10777
#
# Compressibility (1/GPa) = 0.01711045
#
# Stress axis : x y z
#
# Youngs Moduli (GPa) = 94.69529 83.33210 62.75143
#
# Poissons Ratio (x) = 0.25515 0.23721
# Poissons Ratio (y) = 0.28994 0.24165
# Poissons Ratio (z) = 0.35796 0.32091
#
# Static dielectric constant tensor:
#      x y z
#    x 1.698110 0.000000 0.000000 
#    y 0.000000 1.749170 0.000000 
#    z 0.000000 0.000000 1.691270 
# 
# From -- ./inp_files/22344.got.cif
#   From: 2010.05.17/outbox.cif.g08.bks.cpg/sg68_12_cif.got.tgz:22344.got - 2010.06.03 18:57:09.
