data_PCOD9506304
_publ_section_title
;
Structure prediction by ZEFSAII (Michael W. Deem and Ramdas Pophale) SiO2 
 PCOD9506304
Probable space group: C C C A
;
_chemical_formula_sum "Si O2"
_cell_formula_units_Z 48
_cell_length_a 7.824163
_cell_length_b 17.829999
_cell_length_c 13.624740
_cell_angle_alpha 90.000000
_cell_angle_beta 90.000000
_cell_angle_gamma 90.000000
_cell_volume 1900.716880
_symmetry_space_group_name_H-M "C C C A"
_symmetry_group_IT_number 68
_space_group.IT_coordinate_system_code '2'
_symmetry_cell_setting 'orthorhombic'
loop_
_space_group_symop_operation_xyz
x,y,z
-x,1/2-y,z
x,1/2-y,1/2-z
-x,y,1/2-z
-x,-y,-z
x,1/2+y,-z
-x,1/2+y,1/2+z
x,-y,1/2+z
1/2+x,1/2+y,z
1/2-x,-y,z
1/2+x,-y,1/2-z
1/2-x,1/2+y,1/2-z
1/2-x,1/2-y,-z
1/2+x,y,-z
1/2-x,y,1/2+z
1/2+x,1/2-y,1/2+z
loop_
_atom_site_type_symbol
_atom_site_label
_atom_site_fract_x
_atom_site_fract_y
_atom_site_fract_z
Si Si1 0.250000 0.500000 0.571085
Si Si2 0.934785 0.094240 0.402809
Si Si3 0.177488 0.182915 0.690916
Si Si4 0.500000 0.250000 0.004245
O O1 0.153210 0.442449 0.498446
O O2 0.401435 0.455218 0.624053
O O3 0.788065 0.109095 0.323397
O O4 0.984793 0.177546 0.436196
O O5 0.266115 0.250000 0.750000
O O6 0.137104 0.219256 0.584649
O O7 0.000000 0.167808 0.750000
#
# Coordination Sequence:
#
# PCOD9506304 Si02
#       4
#     8  16  16   8
#     4  10  24  34  68 108 146 174 236 312 372 422
#     4  11  20  41  64 109 133 187 243 307 357 433
#     4   9  20  37  64  99 136 191 246 309 365 423
#     4  10  19  36  73  98 132 180 258 306 331 426
#
# _framework density 25.253629
#
# number of rings (size 3 to 8) (size 9 to 14) (size 15 to 20)
#    0.000    2.333    3.333    1.000    0.000    0.000 
#    0.000    0.833    0.000   12.000    0.000    0.000 
#    0.000    0.000    0.000    7.500    0.000    1.333 
#
# Total GULP energy -134133.114626 kJ/mol
# GULP energy per Si atom -5588.879776 kJ/mol
# Density = 2.519615 g / cm^3
# Si number density = 25.253629 Si / 1000 Ang^3
#
#
#
# Elastic Constant Matrix: (Units=GPa)
#
#
# Indices 1 2 3 4 5 6 
#
# 1 156.9185 78.7383 42.6053 0.0000 0.0000 0.0000
# 2 78.7383 146.4550 26.0659 0.0000 0.0000 0.0000
# 3 42.6053 26.0659 73.5804 0.0000 0.0000 0.0000
# 4 0.0000 0.0000 0.0000 28.4872 0.0000 0.0000
# 5 0.0000 0.0000 0.0000 0.0000 17.1975 0.0000
# 6 0.0000 0.0000 0.0000 0.0000 0.0000 66.8460
#
#
#
# Elastic Compliance Matrix: (Units=1/GPa)
#
#
# Indices 1 2 3 4 5 6 
#
# 1 0.009734 -0.004515 -0.004037 0.000000 0.000000 0.000000
# 2 -0.004515 0.009382 -0.000709 0.000000 0.000000 0.000000
# 3 -0.004037 -0.000709 0.016179 0.000000 0.000000 0.000000
# 4 0.000000 0.000000 0.000000 0.035104 0.000000 0.000000
# 5 0.000000 0.000000 0.000000 0.000000 0.058148 0.000000
# 6 0.000000 0.000000 0.000000 0.000000 0.000000 0.014960
#
#
# Mechanical properties :
#
#
# Convention : Reuss Voigt Hill
#
# Bulk Modulus (GPa) = 59.61958 74.64144 67.13051
# Shear Modulus (GPa) = 29.82942 37.80910 33.81926
#
# Velocity S-wave (km/s) = 3.44058 3.87353 3.66346
# Velocity P-wave (km/s) = 6.28037 7.04461 6.67344
#
# Compressibility (1/GPa) = 0.01677301
#
# Stress axis : x y z
#
# Youngs Moduli (GPa) = 102.72905 106.59147 61.80710
#
# Poissons Ratio (x) = 0.48125 0.24952
# Poissons Ratio (y) = 0.46382 0.04383
# Poissons Ratio (z) = 0.41472 0.07559
#
# Static dielectric constant tensor:
#      x y z
#    x 2.136360 0.000000 0.000000 
#    y 0.000000 1.938430 0.000000 
#    z 0.000000 0.000000 1.998980 
# 
# From -- ./inp_files/18855.got.cif
#   From: 2010.05.17/outbox.cif.g08.bks.cpg/sg68_10_cif.got.tgz:18855.got - 2010.06.03 18:57:09.
