data_PCOD9506059
_publ_section_title
;
Structure prediction by ZEFSAII (Michael W. Deem and Ramdas Pophale) SiO2 
 PCOD9506059
Probable space group: C C C A
;
_chemical_formula_sum "Si O2"
_cell_formula_units_Z 112
_cell_length_a 14.907559
_cell_length_b 25.052157
_cell_length_c 18.489952
_cell_angle_alpha 90.000000
_cell_angle_beta 90.000000
_cell_angle_gamma 90.000000
_cell_volume 6905.377817
_symmetry_space_group_name_H-M "C C C A"
_symmetry_group_IT_number 68
_space_group.IT_coordinate_system_code '2'
_symmetry_cell_setting 'orthorhombic'
loop_
_space_group_symop_operation_xyz
x,y,z
-x,1/2-y,z
x,1/2-y,1/2-z
-x,y,1/2-z
-x,-y,-z
x,1/2+y,-z
-x,1/2+y,1/2+z
x,-y,1/2+z
1/2+x,1/2+y,z
1/2-x,-y,z
1/2+x,-y,1/2-z
1/2-x,1/2+y,1/2-z
1/2-x,1/2-y,-z
1/2+x,y,-z
1/2-x,y,1/2+z
1/2+x,1/2-y,1/2+z
loop_
_atom_site_type_symbol
_atom_site_label
_atom_site_fract_x
_atom_site_fract_y
_atom_site_fract_z
Si Si1 0.189909 0.050551 0.165120
Si Si2 0.689909 0.449449 0.834880
Si Si3 0.153933 0.367671 0.664520
Si Si4 1.000000 0.051195 0.411251
Si Si5 0.396444 0.750000 0.837249
Si Si6 0.153933 0.132329 0.664520
Si Si7 0.000000 0.576448 0.427577
O O1 0.174005 0.039240 0.250000
O O2 0.251484 0.102823 0.158082
O O3 0.094133 0.060282 0.129016
O O4 0.250000 0.000000 0.137239
O O5 0.750000 0.500000 0.862762
O O6 0.751484 0.397177 0.841918
O O7 0.594133 0.439718 0.870985
O O8 0.150858 0.305482 0.643145
O O9 0.126921 0.371825 0.750000
O O10 0.084583 0.398817 0.613888
O O11 1.000000 0.083871 0.486230
O O12 1.000000 0.987212 0.420959
O O13 0.500000 0.750000 0.863158
O O14 0.400001 0.750000 0.750000
O O15 0.349142 0.694518 0.856855
O O16 0.084583 0.101183 0.613888
#
# Coordination Sequence:
#
# PCOD9506059 Si02
#       7
#    16  16  16  16  16  16  16
#     4  10  20  34  55  77 103 139 177 220 260 313
#     4  10  20  34  55  77 103 139 177 220 260 313
#     4  10  19  33  55  84 108 135 176 223 271 312
#     4  11  23  35  47  75 110 147 176 200 265 321
#     4   9  16  28  54  84 108 130 166 229 283 308
#     4  10  19  33  55  84 108 135 176 223 271 312
#     4  11  21  32  50  77 109 146 167 219 259 319
#
# _framework density 16.219242999999999
#
# number of rings (size 3 to 8) (size 9 to 14) (size 15 to 20)
#    0.000    1.857    4.286    0.857    0.000    2.286 
#    0.000    0.000    0.000    6.000    0.000    5.000 
#    0.000    0.000    0.000    0.000    0.000    0.000 
#
# Total GULP energy -311952.968947 kJ/mol
# GULP energy per Si atom -5570.588731 kJ/mol
# Density = 1.618233 g / cm^3
# Si number density = 16.219243 Si / 1000 Ang^3
#
#
#
# Elastic Constant Matrix: (Units=GPa)
#
#
# Indices 1 2 3 4 5 6 
#
# 1 129.6306 44.9791 71.1144 0.0000 0.0000 0.0000
# 2 44.9791 109.0243 37.2834 0.0000 0.0000 0.0000
# 3 71.1144 37.2834 79.2106 0.0000 0.0000 0.0000
# 4 0.0000 0.0000 0.0000 16.4482 0.0000 0.0000
# 5 0.0000 0.0000 0.0000 0.0000 25.6726 0.0000
# 6 0.0000 0.0000 0.0000 0.0000 0.0000 20.6415
#
#
#
# Elastic Compliance Matrix: (Units=1/GPa)
#
#
# Indices 1 2 3 4 5 6 
#
# 1 0.015543 -0.001955 -0.013034 0.000000 0.000000 0.000000
# 2 -0.001955 0.011178 -0.003506 0.000000 0.000000 0.000000
# 3 -0.013034 -0.003506 0.025977 0.000000 0.000000 0.000000
# 4 0.000000 0.000000 0.000000 0.060797 0.000000 0.000000
# 5 0.000000 0.000000 0.000000 0.000000 0.038952 0.000000
# 6 0.000000 0.000000 0.000000 0.000000 0.000000 0.048446
#
#
# Mechanical properties :
#
#
# Convention : Reuss Voigt Hill
#
# Bulk Modulus (GPa) = 63.66541 69.40215 66.53378
# Shear Modulus (GPa) = 20.56607 23.51835 22.04221
#
# Velocity S-wave (km/s) = 3.56477 3.81205 3.69048
# Velocity P-wave (km/s) = 7.50211 7.89041 7.69871
#
# Compressibility (1/GPa) = 0.01570712
#
# Stress axis : x y z
#
# Youngs Moduli (GPa) = 64.33756 89.46282 38.49608
#
# Poissons Ratio (x) = 0.17491 0.50176
# Poissons Ratio (y) = 0.12579 0.13497
# Poissons Ratio (z) = 0.83858 0.31366
#
# Static dielectric constant tensor:
#      x y z
#    x 1.537780 0.000000 0.000000 
#    y 0.000000 1.548580 0.000000 
#    z 0.000000 0.000000 1.557980 
# 
# From -- ./inp_files/22723.got.cif
#   From: 2010.05.17/outbox.cif.g08.bks.cpg/sg68_12_cif.got.tgz:22723.got - 2010.06.03 18:57:09.
