data_PCOD9506935
_publ_section_title
;
Structure prediction by ZEFSAII (Michael W. Deem and Ramdas Pophale) SiO2 
 PCOD9506935
Probable space group: C C C A
;
_chemical_formula_sum "Si O2"
_cell_formula_units_Z 96
_cell_length_a 23.613415
_cell_length_b 14.761943
_cell_length_c 12.872944
_cell_angle_alpha 90.000000
_cell_angle_beta 90.000000
_cell_angle_gamma 90.000000
_cell_volume 4487.249355
_symmetry_space_group_name_H-M "C C C A"
_symmetry_group_IT_number 68
_space_group.IT_coordinate_system_code '2'
_symmetry_cell_setting 'orthorhombic'
loop_
_space_group_symop_operation_xyz
x,y,z
-x,1/2-y,z
x,1/2-y,1/2-z
-x,y,1/2-z
-x,-y,-z
x,1/2+y,-z
-x,1/2+y,1/2+z
x,-y,1/2+z
1/2+x,1/2+y,z
1/2-x,-y,z
1/2+x,-y,1/2-z
1/2-x,1/2+y,1/2-z
1/2-x,1/2-y,-z
1/2+x,y,-z
1/2-x,y,1/2+z
1/2+x,1/2-y,1/2+z
loop_
_atom_site_type_symbol
_atom_site_label
_atom_site_fract_x
_atom_site_fract_y
_atom_site_fract_z
Si Si1 0.687191 0.897636 0.371248
Si Si2 0.485648 0.896526 0.975920
Si Si3 0.808631 0.607141 0.190088
Si Si4 0.610813 0.863617 0.991431
Si Si5 0.579982 0.792341 0.353521
Si Si6 0.636539 0.066446 0.087724
O O1 0.744772 0.856755 0.325183
O O2 0.630264 0.859941 0.321094
O O3 0.674000 0.891181 0.494228
O O4 0.691085 0.003571 0.348873
O O5 0.547067 0.862039 0.942900
O O6 0.466639 0.845193 0.080277
O O7 0.427922 0.895101 0.909678
O O8 0.500000 0.000000 0.000000
O O9 0.832675 0.594519 0.305996
O O10 0.847958 0.654989 0.104864
O O11 0.608743 0.784561 0.075610
O O12 0.627008 0.959678 0.050681
O O13 0.557569 0.750000 0.250000
#
# Coordination Sequence:
#
# PCOD9506935 Si02
#       6
#    16  16  16  16  16  16
#     4   9  21  37  56  86 120 154 206 253 290 364
#     4   9  20  39  59  85 121 156 199 249 302 377
#     4  10  20  37  61  85 117 165 204 244 306 372
#     4  10  21  35  57  91 120 151 205 258 301 365
#     4  11  22  38  61  90 122 156 199 259 316 358
#     4   9  19  38  60  83 117 162 203 246 303 362
#
# _framework density 21.393954000000001
#
# number of rings (size 3 to 8) (size 9 to 14) (size 15 to 20)
#    0.000    2.333    0.000    2.500    0.000    9.333 
#    0.000   11.667    0.000    4.000    0.000    0.000 
#    0.000    0.000    0.000    0.000    0.000    0.000 
#
# Total GULP energy -267446.160985 kJ/mol
# GULP energy per Si atom -5571.795021 kJ/mol
# Density = 2.134526 g / cm^3
# Si number density = 21.393954 Si / 1000 Ang^3
#
#
#
# Elastic Constant Matrix: (Units=GPa)
#
#
# Indices 1 2 3 4 5 6 
#
# 1 117.7671 5.2889 35.0322 0.0000 0.0000 0.0000
# 2 5.2889 52.7556 15.9730 0.0000 0.0000 0.0000
# 3 35.0322 15.9730 113.1466 0.0000 0.0000 0.0000
# 4 0.0000 0.0000 0.0000 18.8757 0.0000 0.0000
# 5 0.0000 0.0000 0.0000 0.0000 2.9008 0.0000
# 6 0.0000 0.0000 0.0000 0.0000 0.0000 -2.8439
#
#
#
# Elastic Compliance Matrix: (Units=1/GPa)
#
#
# Indices 1 2 3 4 5 6 
#
# 1 0.009353 -0.000064 -0.002887 0.000000 0.000000 0.000000
# 2 -0.000064 0.019802 -0.002776 0.000000 0.000000 0.000000
# 3 -0.002887 -0.002776 0.010124 0.000000 0.000000 0.000000
# 4 0.000000 0.000000 0.000000 0.052978 0.000000 0.000000
# 5 0.000000 0.000000 0.000000 0.000000 0.344727 0.000000
# 6 0.000000 0.000000 0.000000 0.000000 0.000000 -0.351635
#
#
# Mechanical properties :
#
#
# Convention : Reuss Voigt Hill
#
# Bulk Modulus (GPa) = 35.93712 44.02861 39.98287
# Shear Modulus (GPa) = 47.13521 18.94488 33.04005
#
# Velocity S-wave (km/s) = 4.69892 2.97901 3.93410
# Velocity P-wave (km/s) = 6.80250 5.69713 6.27421
#
# Compressibility (1/GPa) = 0.02782638
#
# Stress axis : x y z
#
# Youngs Moduli (GPa) = 106.91818 50.49955 98.77731
#
# Poissons Ratio (x) = 0.00321 0.28516
# Poissons Ratio (y) = 0.00680 0.27419
# Poissons Ratio (z) = 0.30866 0.14018
#
# Static dielectric constant tensor:
#      x y z
#    x 1.779420 0.000000 0.000000 
#    y 0.000000 1.922980 0.000000 
#    z 0.000000 0.000000 1.793670 
# 
# From -- ./inp_files/16441.got.cif
#   From: 2010.05.17/outbox.cif.g08.bks.cpg/sg68_9_cif.got.tgz:16441.got - 2010.06.03 18:57:09.
