data_PCOD9506947
_publ_section_title
;
Structure prediction by ZEFSAII (Michael W. Deem and Ramdas Pophale) SiO2 
 PCOD9506947
Probable space group: C C C A
;
_chemical_formula_sum "Si O2"
_cell_formula_units_Z 104
_cell_length_a 17.392178
_cell_length_b 22.669097
_cell_length_c 11.886794
_cell_angle_alpha 90.000000
_cell_angle_beta 90.000000
_cell_angle_gamma 90.000000
_cell_volume 4686.546481
_symmetry_space_group_name_H-M "C C C A"
_symmetry_group_IT_number 68
_space_group.IT_coordinate_system_code '2'
_symmetry_cell_setting 'orthorhombic'
loop_
_space_group_symop_operation_xyz
x,y,z
-x,1/2-y,z
x,1/2-y,1/2-z
-x,y,1/2-z
-x,-y,-z
x,1/2+y,-z
-x,1/2+y,1/2+z
x,-y,1/2+z
1/2+x,1/2+y,z
1/2-x,-y,z
1/2+x,-y,1/2-z
1/2-x,1/2+y,1/2-z
1/2-x,1/2-y,-z
1/2+x,y,-z
1/2-x,y,1/2+z
1/2+x,1/2-y,1/2+z
loop_
_atom_site_type_symbol
_atom_site_label
_atom_site_fract_x
_atom_site_fract_y
_atom_site_fract_z
Si Si1 0.203244 0.331294 0.451217
Si Si2 0.250000 0.500000 0.778522
Si Si3 0.661054 0.228647 0.373170
Si Si4 0.642629 0.570843 0.882431
Si Si5 0.906719 0.023238 0.404529
Si Si6 0.000000 0.250000 0.957536
Si Si7 0.000000 0.432103 0.750000
Si Si8 0.051221 0.655416 0.858056
O O1 0.289562 0.328510 0.406357
O O2 0.185219 0.276898 0.533973
O O3 0.181322 0.385792 0.529122
O O4 0.141922 0.329311 0.349352
O O5 0.292268 0.547688 0.700233
O O6 0.178779 0.524618 0.850417
O O7 0.683647 0.250000 0.250000
O O8 0.570131 0.225868 0.384347
O O9 0.569941 0.599065 0.816404
O O10 0.607162 0.518665 0.961259
O O11 0.949792 0.085560 0.383989
O O12 0.954025 0.972852 0.340212
O O13 0.976819 0.304180 0.039122
O O14 0.000000 0.668254 0.750000
#
# Coordination Sequence:
#
# PCOD9506947 Si02
#       8
#    16   8  16  16  16   8   8  16
#     4   9  22  39  60  90 122 161 216 260 321 387
#     4  10  22  36  62  88 130 170 216 270 342 390
#     4  10  21  41  62  87 126 165 205 264 327 395
#     4  10  21  39  58  91 127 161 219 271 321 400
#     4  10  20  38  60  88 124 170 217 269 330 400
#     4  10  22  38  60  98 124 166 212 272 324 396
#     4  10  20  38  62  89 123 176 208 274 334 384
#     4  10  20  37  61  89 126 163 220 269 327 393
#
# _framework density 22.191181
#
# number of rings (size 3 to 8) (size 9 to 14) (size 15 to 20)
#    0.000    2.154    0.769    1.385    0.000    7.385 
#    8.308    0.000    0.000    0.000    0.000    0.000 
#    0.000    0.000    0.000    0.000    0.000    0.000 
#
# Total GULP energy -290229.898586 kJ/mol
# GULP energy per Si atom -5581.344204 kJ/mol
# Density = 2.214067 g / cm^3
# Si number density = 22.191181 Si / 1000 Ang^3
#
#
#
# Elastic Constant Matrix: (Units=GPa)
#
#
# Indices 1 2 3 4 5 6 
#
# 1 166.3420 25.7387 59.9937 0.0000 0.0000 0.0000
# 2 25.7387 43.7801 9.0024 0.0000 0.0000 0.0000
# 3 59.9937 9.0024 76.4068 0.0000 0.0000 0.0000
# 4 0.0000 0.0000 0.0000 30.5002 0.0000 0.0000
# 5 0.0000 0.0000 0.0000 0.0000 -286.8610 0.0000
# 6 0.0000 0.0000 0.0000 0.0000 0.0000 24.2641
#
#
#
# Elastic Compliance Matrix: (Units=1/GPa)
#
#
# Indices 1 2 3 4 5 6 
#
# 1 0.009003 -0.003935 -0.006605 0.000000 0.000000 0.000000
# 2 -0.003935 0.025128 0.000129 0.000000 0.000000 0.000000
# 3 -0.006605 0.000129 0.018259 0.000000 0.000000 0.000000
# 4 0.000000 0.000000 0.000000 0.032787 0.000000 0.000000
# 5 0.000000 0.000000 0.000000 0.000000 -0.003486 0.000000
# 6 0.000000 0.000000 0.000000 0.000000 0.000000 0.041213
#
#
# Mechanical properties :
#
#
# Convention : Reuss Voigt Hill
#
# Bulk Modulus (GPa) = 31.67796 52.88875 42.28335
# Shear Modulus (GPa) = 32.41516 -33.63306 -0.60895
#
# Velocity S-wave (km/s) = 3.82609 -3.89730 -0.52441
# Velocity P-wave (km/s) = 5.81589 1.90605 4.32768
#
# Compressibility (1/GPa) = 0.03156769
#
# Stress axis : x y z
#
# Youngs Moduli (GPa) = 111.07607 39.79603 54.76722
#
# Poissons Ratio (x) = 0.15658 0.36176
# Poissons Ratio (y) = 0.43704 -0.00705
# Poissons Ratio (z) = 0.73370 -0.00512
#
# Static dielectric constant tensor:
#      x y z
#    x 1.861680 0.000000 0.000000 
#    y 0.000000 1.873930 0.000000 
#    z 0.000000 0.000000 1.820730 
# 
# From -- ./inp_files/14812.got.cif
#   From: 2010.05.17/outbox.cif.g08.bks.cpg/sg68_8_cif.got.tgz:14812.got - 2010.06.03 18:57:09.
