data_PCOD9506117
_publ_section_title
;
Structure prediction by ZEFSAII (Michael W. Deem and Ramdas Pophale) SiO2 
 PCOD9506117
Probable space group: C C C A
;
_chemical_formula_sum "Si O2"
_cell_formula_units_Z 104
_cell_length_a 23.910307
_cell_length_b 14.836092
_cell_length_c 15.217997
_cell_angle_alpha 90.000000
_cell_angle_beta 90.000000
_cell_angle_gamma 90.000000
_cell_volume 5398.363994
_symmetry_space_group_name_H-M "C C C A"
_symmetry_group_IT_number 68
_space_group.IT_coordinate_system_code '2'
_symmetry_cell_setting 'orthorhombic'
loop_
_space_group_symop_operation_xyz
x,y,z
-x,1/2-y,z
x,1/2-y,1/2-z
-x,y,1/2-z
-x,-y,-z
x,1/2+y,-z
-x,1/2+y,1/2+z
x,-y,1/2+z
1/2+x,1/2+y,z
1/2-x,-y,z
1/2+x,-y,1/2-z
1/2-x,1/2+y,1/2-z
1/2-x,1/2-y,-z
1/2+x,y,-z
1/2-x,y,1/2+z
1/2+x,1/2-y,1/2+z
loop_
_atom_site_type_symbol
_atom_site_label
_atom_site_fract_x
_atom_site_fract_y
_atom_site_fract_z
Si Si1 0.704351 0.077928 0.040684
Si Si2 0.912406 0.495583 0.510370
Si Si3 0.113864 0.494448 0.287834
Si Si4 0.316025 0.840138 0.780363
Si Si5 0.501716 0.353451 0.947141
Si Si6 0.720524 0.901372 0.342795
Si Si7 0.500000 0.406667 0.750000
O O1 0.702170 0.149295 0.119073
O O2 0.750000 0.000000 0.058824
O O3 0.645302 0.026117 0.032697
O O4 0.715343 0.122486 0.945347
O O5 0.900233 0.475754 0.612755
O O6 0.941766 0.408595 0.468573
O O7 0.954055 0.582011 0.510833
O O8 0.145315 0.574165 0.238939
O O9 0.159323 0.414340 0.300468
O O10 0.056506 0.465183 0.242921
O O11 0.346695 0.750000 0.750000
O O12 0.261920 0.844611 0.716867
O O13 0.500000 0.250000 0.977769
O O14 0.493355 0.354515 0.841612
O O15 0.750000 0.000000 0.343972
#
# Coordination Sequence:
#
# PCOD9506117 Si02
#       7
#    16  16  16  16  16  16   8
#     4  10  19  36  60  77 101 146 184 217 272 331
#     4   9  20  37  57  80 107 147 185 220 275 325
#     4   9  18  36  55  74 107 144 181 225 268 323
#     4  11  22  34  53  83 112 139 178 227 277 331
#     4  10  20  35  56  82 111 141 181 229 272 321
#     4   8  17  35  54  74 103 137 178 222 262 315
#     4  10  19  34  57  80 104 142 185 222 268 318
#
# _framework density 19.265096
#
# number of rings (size 3 to 8) (size 9 to 14) (size 15 to 20)
#    0.000    2.462    0.000    3.462    0.000    1.846 
#    0.000    9.615    0.000    0.000    0.000    0.000 
#    0.000    0.000    0.000    0.000    0.000    0.000 
#
# Total GULP energy -289992.039550 kJ/mol
# GULP energy per Si atom -5576.769991 kJ/mol
# Density = 1.922125 g / cm^3
# Si number density = 19.265096 Si / 1000 Ang^3
#
#
#
# Elastic Constant Matrix: (Units=GPa)
#
#
# Indices 1 2 3 4 5 6 
#
# 1 107.6905 21.9838 26.8349 0.0000 0.0000 0.0000
# 2 21.9838 78.3035 41.7570 0.0000 0.0000 0.0000
# 3 26.8349 41.7570 64.2838 0.0000 0.0000 0.0000
# 4 0.0000 0.0000 0.0000 10.8801 0.0000 0.0000
# 5 0.0000 0.0000 0.0000 0.0000 11.4580 0.0000
# 6 0.0000 0.0000 0.0000 0.0000 0.0000 0.9746
#
#
#
# Elastic Compliance Matrix: (Units=1/GPa)
#
#
# Indices 1 2 3 4 5 6 
#
# 1 0.010408 -0.000926 -0.003743 0.000000 0.000000 0.000000
# 2 -0.000926 0.019622 -0.012359 0.000000 0.000000 0.000000
# 3 -0.003743 -0.012359 0.025147 0.000000 0.000000 0.000000
# 4 0.000000 0.000000 0.000000 0.091911 0.000000 0.000000
# 5 0.000000 0.000000 0.000000 0.000000 0.087275 0.000000
# 6 0.000000 0.000000 0.000000 0.000000 0.000000 1.026022
#
#
# Mechanical properties :
#
#
# Convention : Reuss Voigt Hill
#
# Bulk Modulus (GPa) = 47.34943 47.93659 47.64301
# Shear Modulus (GPa) = 3.84178 15.30936 9.57557
#
# Velocity S-wave (km/s) = 1.41368 2.82204 2.23186
# Velocity P-wave (km/s) = 5.22454 5.96282 5.60585
#
# Compressibility (1/GPa) = 0.02111958
#
# Stress axis : x y z
#
# Youngs Moduli (GPa) = 96.08344 50.96448 39.76657
#
# Poissons Ratio (x) = 0.04718 0.14886
# Poissons Ratio (y) = 0.08895 0.49148
# Poissons Ratio (z) = 0.35966 0.62988
#
# Static dielectric constant tensor:
#      x y z
#    x 1.690360 0.000000 0.000000 
#    y 0.000000 1.654930 0.000000 
#    z 0.000000 0.000000 1.692070 
# 
# From -- ./inp_files/33674.got.cif
#   From: 2010.05.17/outbox.cif.g08.bks.cpg/sg68_17_cif.got.tgz:33674.got - 2010.06.03 18:57:09.
