data_PCOD9506303
_publ_section_title
;
Structure prediction by ZEFSAII (Michael W. Deem and Ramdas Pophale) SiO2 
 PCOD9506303
Probable space group: C C C A
;
_chemical_formula_sum "Si O2"
_cell_formula_units_Z 48
_cell_length_a 17.410279
_cell_length_b 14.050745
_cell_length_c 8.739818
_cell_angle_alpha 90.000000
_cell_angle_beta 90.000000
_cell_angle_gamma 90.000000
_cell_volume 2137.998872
_symmetry_space_group_name_H-M "C C C A"
_symmetry_group_IT_number 68
_space_group.IT_coordinate_system_code '2'
_symmetry_cell_setting 'orthorhombic'
loop_
_space_group_symop_operation_xyz
x,y,z
-x,1/2-y,z
x,1/2-y,1/2-z
-x,y,1/2-z
-x,-y,-z
x,1/2+y,-z
-x,1/2+y,1/2+z
x,-y,1/2+z
1/2+x,1/2+y,z
1/2-x,-y,z
1/2+x,-y,1/2-z
1/2-x,1/2+y,1/2-z
1/2-x,1/2-y,-z
1/2+x,y,-z
1/2-x,y,1/2+z
1/2+x,1/2-y,1/2+z
loop_
_atom_site_type_symbol
_atom_site_label
_atom_site_fract_x
_atom_site_fract_y
_atom_site_fract_z
Si Si1 0.576947 0.197350 0.594283
Si Si2 0.149570 0.407307 0.866335
Si Si3 0.000000 0.482054 0.250000
Si Si4 0.750000 0.500000 0.377117
O O1 0.500000 0.250000 0.545446
O O2 0.605259 0.250000 0.750000
O O3 0.633056 0.192456 0.450054
O O4 0.544850 0.093025 0.641199
O O5 0.211796 0.420393 0.732330
O O6 0.068568 0.452817 0.814601
O O7 0.184798 0.465144 0.008835
#
# Coordination Sequence:
#
# PCOD9506303 Si02
#       4
#    16  16   8   8
#     4   9  20  37  62  91 126 159 209 278 313 357
#     4  11  20  41  62  98 121 173 210 268 309 380
#     4  10  19  36  73  88 118 164 236 264 297 368
#     4  10  24  34  66  96 136 152 222 260 326 374
#
# _framework density 22.450900000000001
#
# number of rings (size 3 to 8) (size 9 to 14) (size 15 to 20)
#    0.000    2.333    3.333    1.000    0.000    0.000 
#    0.000    2.500    0.000    0.000    0.000    0.000 
#    0.000    0.000    0.000    0.000    0.000    0.000 
#
# Total GULP energy -133649.102627 kJ/mol
# GULP energy per Si atom -5568.712609 kJ/mol
# Density = 2.239980 g / cm^3
# Si number density = 22.450900 Si / 1000 Ang^3
#
#
#
# Elastic Constant Matrix: (Units=GPa)
#
#
# Indices 1 2 3 4 5 6 
#
# 1 120.4095 18.7149 57.9977 0.0000 0.0000 0.0000
# 2 18.7149 23.0275 9.5491 0.0000 0.0000 0.0000
# 3 57.9977 9.5491 96.2735 0.0000 0.0000 0.0000
# 4 0.0000 0.0000 0.0000 -1.9273 0.0000 0.0000
# 5 0.0000 0.0000 0.0000 0.0000 127.2534 0.0000
# 6 0.0000 0.0000 0.0000 0.0000 0.0000 25.3667
#
#
#
# Elastic Compliance Matrix: (Units=1/GPa)
#
#
# Indices 1 2 3 4 5 6 
#
# 1 0.012843 -0.007540 -0.006989 0.000000 0.000000 0.000000
# 2 -0.007540 0.049715 -0.000389 0.000000 0.000000 0.000000
# 3 -0.006989 -0.000389 0.014636 0.000000 0.000000 0.000000
# 4 0.000000 0.000000 0.000000 -0.518871 0.000000 0.000000
# 5 0.000000 0.000000 0.000000 0.000000 0.007858 0.000000
# 6 0.000000 0.000000 0.000000 0.000000 0.000000 0.039422
#
#
# Mechanical properties :
#
#
# Convention : Reuss Voigt Hill
#
# Bulk Modulus (GPa) = 21.11541 45.80379 33.45960
# Shear Modulus (GPa) = -14.33594 40.36849 13.01628
#
# Velocity S-wave (km/s) = -2.52969 4.24498 2.41045
# Velocity P-wave (km/s) = 0.94506 6.66877 4.76265
#
# Compressibility (1/GPa) = 0.04735877
#
# Stress axis : x y z
#
# Youngs Moduli (GPa) = 77.86066 20.11453 68.32350
#
# Poissons Ratio (x) = 0.15166 0.47754
# Poissons Ratio (y) = 0.58705 0.02658
# Poissons Ratio (z) = 0.54420 0.00782
#
# Static dielectric constant tensor:
#      x y z
#    x 1.934690 0.000000 0.000000 
#    y 0.000000 2.068790 0.000000 
#    z 0.000000 0.000000 1.911500 
# 
# From -- ./inp_files/4521.got.cif
#   From: 2010.05.17/outbox.cif.g08.bks.cpg/sg68_3_cif.got.tgz:4521.got - 2010.06.03 18:57:09.
