data_PCOD9506604
_publ_section_title
;
Structure prediction by ZEFSAII (Michael W. Deem and Ramdas Pophale) SiO2 
 PCOD9506604
Probable space group: C C C A
;
_chemical_formula_sum "Si O2"
_cell_formula_units_Z 96
_cell_length_a 28.563741
_cell_length_b 22.198325
_cell_length_c 8.105571
_cell_angle_alpha 90.000000
_cell_angle_beta 90.000000
_cell_angle_gamma 90.000000
_cell_volume 5139.476756
_symmetry_space_group_name_H-M "C C C A"
_symmetry_group_IT_number 68
_space_group.IT_coordinate_system_code '2'
_symmetry_cell_setting 'orthorhombic'
loop_
_space_group_symop_operation_xyz
x,y,z
-x,1/2-y,z
x,1/2-y,1/2-z
-x,y,1/2-z
-x,-y,-z
x,1/2+y,-z
-x,1/2+y,1/2+z
x,-y,1/2+z
1/2+x,1/2+y,z
1/2-x,-y,z
1/2+x,-y,1/2-z
1/2-x,1/2+y,1/2-z
1/2-x,1/2-y,-z
1/2+x,y,-z
1/2-x,y,1/2+z
1/2+x,1/2-y,1/2+z
loop_
_atom_site_type_symbol
_atom_site_label
_atom_site_fract_x
_atom_site_fract_y
_atom_site_fract_z
Si Si1 0.189505 0.457402 0.707558
Si Si2 0.000000 0.142398 0.750000
Si Si3 0.860723 0.169717 0.091398
Si Si4 0.101504 0.201533 0.069541
Si Si5 0.101387 0.383850 0.744817
Si Si6 0.280463 0.082035 0.930467
Si Si7 0.000000 0.750000 0.503201
O O1 0.136091 0.437402 0.694493
O O2 0.224703 0.420108 0.589792
O O3 0.198738 0.527609 0.679698
O O4 0.206904 0.438287 0.886653
O O5 0.046341 0.103012 0.764845
O O6 0.010985 0.190432 0.604603
O O7 0.864121 0.241189 0.064686
O O8 0.886889 0.161995 0.268249
O O9 0.808726 0.142534 0.106377
O O10 0.883876 0.138818 0.928566
O O11 0.106425 0.167344 0.896201
O O12 0.048842 0.229008 0.083800
#
# Coordination Sequence:
#
# PCOD9506604 Si02
#       7
#    16   8  16  16  16  16   8
#     4  10  21  36  63  81 109 145 190 239 282 330
#     4   9  16  32  56  80 114 142 192 227 266 332
#     4  10  21  34  53  84 115 141 187 230 277 337
#     4  10  20  34  57  78 119 148 184 227 281 328
#     4  10  20  36  57  83 112 151 186 232 280 331
#     4  10  21  37  59  85 107 141 194 235 279 340
#     4   9  16  31  54  80 106 152 192 226 258 328
#
# _framework density 18.678944000000001
#
# number of rings (size 3 to 8) (size 9 to 14) (size 15 to 20)
#    0.000    2.167    1.667    2.500    4.667    1.333 
#    0.000    0.833    3.667    6.000    0.000    0.000 
#    0.000    0.000    0.000    0.000    0.000    0.000 
#
# Total GULP energy -267236.696600 kJ/mol
# GULP energy per Si atom -5567.431179 kJ/mol
# Density = 1.863643 g / cm^3
# Si number density = 18.678944 Si / 1000 Ang^3
#
#
#
# Elastic Constant Matrix: (Units=GPa)
#
#
# Indices 1 2 3 4 5 6 
#
# 1 111.9527 30.8545 16.5145 0.0000 0.0000 0.0000
# 2 30.8545 32.1688 2.8707 0.0000 0.0000 0.0000
# 3 16.5145 2.8707 69.9953 0.0000 0.0000 0.0000
# 4 0.0000 0.0000 0.0000 10.1999 0.0000 0.0000
# 5 0.0000 0.0000 0.0000 0.0000 43.6423 0.0000
# 6 0.0000 0.0000 0.0000 0.0000 0.0000 39.1946
#
#
#
# Elastic Compliance Matrix: (Units=1/GPa)
#
#
# Indices 1 2 3 4 5 6 
#
# 1 0.012556 -0.011822 -0.002478 0.000000 0.000000 0.000000
# 2 -0.011822 0.042331 0.001053 0.000000 0.000000 0.000000
# 3 -0.002478 0.001053 0.014828 0.000000 0.000000 0.000000
# 4 0.000000 0.000000 0.000000 0.098040 0.000000 0.000000
# 5 0.000000 0.000000 0.000000 0.000000 0.022914 0.000000
# 6 0.000000 0.000000 0.000000 0.000000 0.000000 0.025514
#
#
# Mechanical properties :
#
#
# Convention : Reuss Voigt Hill
#
# Bulk Modulus (GPa) = 23.13619 34.95512 29.04565
# Shear Modulus (GPa) = 19.44901 29.53250 24.49075
#
# Velocity S-wave (km/s) = 3.23030 3.98057 3.62490
# Velocity P-wave (km/s) = 5.13091 6.31513 5.75357
#
# Compressibility (1/GPa) = 0.04322233
#
# Stress axis : x y z
#
# Youngs Moduli (GPa) = 79.64329 23.62333 67.43980
#
# Poissons Ratio (x) = 0.27927 0.16709
# Poissons Ratio (y) = 0.94154 -0.07102
# Poissons Ratio (z) = 0.19732 -0.02488
#
# Static dielectric constant tensor:
#      x y z
#    x 1.685440 0.000000 0.000000 
#    y 0.000000 1.621220 0.000000 
#    z 0.000000 0.000000 1.725160 
# 
# From -- ./inp_files/9091.got.cif
#   From: 2010.05.17/outbox.cif.g08.bks.cpg/sg68_5_cif.got.tgz:9091.got - 2010.06.03 18:57:09.
