data_PCOD9506233
_publ_section_title
;
Structure prediction by ZEFSAII (Michael W. Deem and Ramdas Pophale) SiO2 
 PCOD9506233
Probable space group: C C C A
;
_chemical_formula_sum "Si O2"
_cell_formula_units_Z 116
_cell_length_a 12.746075
_cell_length_b 30.907827
_cell_length_c 15.982324
_cell_angle_alpha 90.000000
_cell_angle_beta 90.000000
_cell_angle_gamma 90.000000
_cell_volume 6296.292175
_symmetry_space_group_name_H-M "C C C A"
_symmetry_group_IT_number 68
_space_group.IT_coordinate_system_code '2'
_symmetry_cell_setting 'orthorhombic'
loop_
_space_group_symop_operation_xyz
x,y,z
-x,1/2-y,z
x,1/2-y,1/2-z
-x,y,1/2-z
-x,-y,-z
x,1/2+y,-z
-x,1/2+y,1/2+z
x,-y,1/2+z
1/2+x,1/2+y,z
1/2-x,-y,z
1/2+x,-y,1/2-z
1/2-x,1/2+y,1/2-z
1/2-x,1/2-y,-z
1/2+x,y,-z
1/2-x,y,1/2+z
1/2+x,1/2-y,1/2+z
loop_
_atom_site_type_symbol
_atom_site_label
_atom_site_fract_x
_atom_site_fract_y
_atom_site_fract_z
Si Si1 0.696621 0.540058 0.443055
Si Si2 0.239827 0.817376 0.965486
Si Si3 0.116722 0.472965 0.240867
Si Si4 0.363031 0.389374 0.115310
Si Si5 0.327685 0.431535 0.288086
Si Si6 0.000000 0.750000 0.750000
Si Si7 0.111118 0.234358 0.085450
Si Si8 0.406917 0.389895 0.454573
O O1 0.750000 0.500000 0.490989
O O2 0.649270 0.521787 0.356364
O O3 0.790857 0.573473 0.425822
O O4 0.607774 0.568502 0.485911
O O5 0.298337 0.845586 0.895812
O O6 0.186503 0.775882 0.923235
O O7 0.325733 0.802389 0.035128
O O8 0.151068 0.848309 0.006497
O O9 0.204270 0.440736 0.276086
O O10 0.124036 0.519960 0.284774
O O11 0.000000 0.456035 0.250000
O O12 0.374072 0.405105 0.210095
O O13 0.472675 0.383672 0.068877
O O14 0.348806 0.405182 0.370839
O O15 0.075024 0.725384 0.817892
O O16 0.000000 0.250000 0.045214
#
# Coordination Sequence:
#
# PCOD9506233 Si02
#       8
#    16  16  16  16  16   4  16  16
#     4  10  21  37  52  80 111 147 207 253 288 349
#     4  10  21  36  62  89 119 148 195 235 282 368
#     4  10  19  36  57  73 106 151 200 255 296 336
#     4  10  20  38  55  78 120 153 186 243 299 332
#     4  10  21  37  51  80 110 149 198 238 295 349
#     4   8  20  36  68  92 122 150 192 228 300 344
#     4   9  19  40  63  90 118 153 186 235 293 351
#     4  11  23  34  57  83 115 156 193 241 295 351
#
# _framework density 18.423542000000001
#
# number of rings (size 3 to 8) (size 9 to 14) (size 15 to 20)
#    0.414    1.655    2.759    2.069    1.931    3.862 
#    0.000    1.379    6.069    0.000    0.000    7.724 
#    0.000    0.000    0.000    0.000    0.000    0.000 
#
# Total GULP energy -323103.250453 kJ/mol
# GULP energy per Si atom -5570.745697 kJ/mol
# Density = 1.838161 g / cm^3
# Si number density = 18.423542 Si / 1000 Ang^3
#
#
#
# Elastic Constant Matrix: (Units=GPa)
#
#
# Indices 1 2 3 4 5 6 
#
# 1 92.8298 1.3089 -0.8458 0.0000 0.0000 0.0000
# 2 1.3089 62.0641 4.2851 0.0000 0.0000 0.0000
# 3 -0.8458 4.2851 41.8656 0.0000 0.0000 0.0000
# 4 0.0000 0.0000 0.0000 21.3717 0.0000 0.0000
# 5 0.0000 0.0000 0.0000 0.0000 7.2226 0.0000
# 6 0.0000 0.0000 0.0000 0.0000 0.0000 7.1534
#
#
#
# Elastic Compliance Matrix: (Units=1/GPa)
#
#
# Indices 1 2 3 4 5 6 
#
# 1 0.010778 -0.000244 0.000243 0.000000 0.000000 0.000000
# 2 -0.000244 0.016233 -0.001666 0.000000 0.000000 0.000000
# 3 0.000243 -0.001666 0.024061 0.000000 0.000000 0.000000
# 4 0.000000 0.000000 0.000000 0.046791 0.000000 0.000000
# 5 0.000000 0.000000 0.000000 0.000000 0.138455 0.000000
# 6 0.000000 0.000000 0.000000 0.000000 0.000000 0.139793
#
#
# Mechanical properties :
#
#
# Convention : Reuss Voigt Hill
#
# Bulk Modulus (GPa) = 20.94829 22.91732 21.93280
# Shear Modulus (GPa) = 12.64674 19.95029 16.29851
#
# Velocity S-wave (km/s) = 2.62285 3.29427 2.97754
# Velocity P-wave (km/s) = 4.53514 5.18997 4.87357
#
# Compressibility (1/GPa) = 0.04773660
#
# Stress axis : x y z
#
# Youngs Moduli (GPa) = 92.78115 61.60451 41.56027
#
# Poissons Ratio (x) = 0.01503 -0.01009
# Poissons Ratio (y) = 0.02264 0.06926
# Poissons Ratio (z) = -0.02252 0.10266
#
# Static dielectric constant tensor:
#      x y z
#    x 1.659560 0.000000 0.000000 
#    y 0.000000 1.643390 0.000000 
#    z 0.000000 0.000000 1.657110 
# 
# From -- ./inp_files/30103.got.cif
#   From: 2010.05.17/outbox.cif.g08.bks.cpg/sg68_16_cif.got.tgz:30103.got - 2010.06.03 18:57:09.
