data_PCOD9506478
_publ_section_title
;
Structure prediction by ZEFSAII (Michael W. Deem and Ramdas Pophale) SiO2 
 PCOD9506478
Probable space group: C C C A
;
_chemical_formula_sum "Si O2"
_cell_formula_units_Z 56
_cell_length_a 18.302279
_cell_length_b 5.219659
_cell_length_c 26.314010
_cell_angle_alpha 90.000000
_cell_angle_beta 90.000000
_cell_angle_gamma 90.000000
_cell_volume 2513.820933
_symmetry_space_group_name_H-M "C C C A"
_symmetry_group_IT_number 68
_space_group.IT_coordinate_system_code '2'
_symmetry_cell_setting 'orthorhombic'
loop_
_space_group_symop_operation_xyz
x,y,z
-x,1/2-y,z
x,1/2-y,1/2-z
-x,y,1/2-z
-x,-y,-z
x,1/2+y,-z
-x,1/2+y,1/2+z
x,-y,1/2+z
1/2+x,1/2+y,z
1/2-x,-y,z
1/2+x,-y,1/2-z
1/2-x,1/2+y,1/2-z
1/2-x,1/2-y,-z
1/2+x,y,-z
1/2-x,y,1/2+z
1/2+x,1/2-y,1/2+z
loop_
_atom_site_type_symbol
_atom_site_label
_atom_site_fract_x
_atom_site_fract_y
_atom_site_fract_z
Si Si1 0.107497 0.747694 0.192125
Si Si2 0.250000 0.500000 0.158481
Si Si3 0.581974 0.558198 0.019875
Si Si4 0.892111 0.762065 0.630552
O O1 0.082398 0.750000 0.250000
O O2 0.193700 0.670187 0.190802
O O3 0.075168 0.521266 0.155931
O O4 0.098377 0.025337 0.168275
O O5 0.194352 0.326365 0.126677
O O6 0.581179 0.673450 0.075920
O O7 0.500000 0.500000 0.000000
O O8 0.617019 0.776640 0.984148
#
# Coordination Sequence:
#
# PCOD9506478 Si02
#       4
#    16   8  16  16
#     4  10  20  31  53  82 121 160 184 217 279 353
#     4   8  22  28  54  76 126 152 192 216 284 342
#     4  10  21  39  61  81 101 140 200 251 297 337
#     4  10  20  33  52  83 116 146 195 236 277 346
#
# _framework density 22.276845000000002
#
# number of rings (size 3 to 8) (size 9 to 14) (size 15 to 20)
#    1.714    0.571    0.000    3.429    4.000    0.000 
#    0.000    1.429    0.000    0.000    0.000   60.000 
#    0.000    0.000    0.000    0.000    0.000    0.000 
#
# Total GULP energy -156026.443405 kJ/mol
# GULP energy per Si atom -5572.372979 kJ/mol
# Density = 2.222614 g / cm^3
# Si number density = 22.276845 Si / 1000 Ang^3
#
#
#
# Elastic Constant Matrix: (Units=GPa)
#
#
# Indices 1 2 3 4 5 6 
#
# 1 94.3901 10.6723 25.9792 0.0000 0.0000 0.0000
# 2 10.6723 184.4875 52.3985 0.0000 0.0000 0.0000
# 3 25.9792 52.3985 157.0460 0.0000 0.0000 0.0000
# 4 0.0000 0.0000 0.0000 17.1267 0.0000 0.0000
# 5 0.0000 0.0000 0.0000 0.0000 15.6077 0.0000
# 6 0.0000 0.0000 0.0000 0.0000 0.0000 -1.8295
#
#
#
# Elastic Compliance Matrix: (Units=1/GPa)
#
#
# Indices 1 2 3 4 5 6 
#
# 1 0.011103 -0.000133 -0.001792 0.000000 0.000000 0.000000
# 2 -0.000133 0.005989 -0.001976 0.000000 0.000000 0.000000
# 3 -0.001792 -0.001976 0.007323 0.000000 0.000000 0.000000
# 4 0.000000 0.000000 0.000000 0.058388 0.000000 0.000000
# 5 0.000000 0.000000 0.000000 0.000000 0.064071 0.000000
# 6 0.000000 0.000000 0.000000 0.000000 0.000000 -0.546608
#
#
# Mechanical properties :
#
#
# Convention : Reuss Voigt Hill
#
# Bulk Modulus (GPa) = 60.19745 68.22483 64.21114
# Shear Modulus (GPa) = -12.94022 29.30590 8.18284
#
# Velocity S-wave (km/s) = -2.41276 3.63096 1.91865
# Velocity P-wave (km/s) = 4.39536 6.94773 5.81335
#
# Compressibility (1/GPa) = 0.01661200
#
# Stress axis : x y z
#
# Youngs Moduli (GPa) = 90.06844 166.96013 136.54782
#
# Poissons Ratio (x) = 0.02225 0.24472
# Poissons Ratio (y) = 0.01200 0.26987
# Poissons Ratio (z) = 0.16142 0.32997
#
# Static dielectric constant tensor:
#      x y z
#    x 1.925360 0.000000 0.000000 
#    y 0.000000 1.935250 0.000000 
#    z 0.000000 0.000000 1.788720 
# 
# From -- ./inp_files/52000.got.cif
#   From: 2010.05.17/outbox.cif.g08.bks.cpg/sg68_26_cif.got.tgz:52000.got - 2010.06.03 18:57:09.
