data_PCOD9506361
_publ_section_title
;
Structure prediction by ZEFSAII (Michael W. Deem and Ramdas Pophale) SiO2 
 PCOD9506361
Probable space group: C C C A
;
_chemical_formula_sum "Si O2"
_cell_formula_units_Z 96
_cell_length_a 10.970146
_cell_length_b 17.211601
_cell_length_c 26.554789
_cell_angle_alpha 90.000000
_cell_angle_beta 90.000000
_cell_angle_gamma 90.000000
_cell_volume 5013.909978
_symmetry_space_group_name_H-M "C C C A"
_symmetry_group_IT_number 68
_space_group.IT_coordinate_system_code '2'
_symmetry_cell_setting 'orthorhombic'
loop_
_space_group_symop_operation_xyz
x,y,z
-x,1/2-y,z
x,1/2-y,1/2-z
-x,y,1/2-z
-x,-y,-z
x,1/2+y,-z
-x,1/2+y,1/2+z
x,-y,1/2+z
1/2+x,1/2+y,z
1/2-x,-y,z
1/2+x,-y,1/2-z
1/2-x,1/2+y,1/2-z
1/2-x,1/2-y,-z
1/2+x,y,-z
1/2-x,y,1/2+z
1/2+x,1/2-y,1/2+z
loop_
_atom_site_type_symbol
_atom_site_label
_atom_site_fract_x
_atom_site_fract_y
_atom_site_fract_z
Si Si1 0.636023 0.057562 0.544964
Si Si2 0.022932 0.913350 0.808748
Si Si3 0.241714 0.348243 0.134713
Si Si4 0.383150 0.302286 0.886349
Si Si5 0.486772 0.556567 0.622163
Si Si6 0.296097 0.088568 0.062797
O O1 0.674463 0.122989 0.583919
O O2 0.628547 0.094226 0.489622
O O3 0.750000 0.000000 0.540167
O O4 0.539490 0.003060 0.574517
O O5 0.161602 0.888227 0.821698
O O6 0.000000 0.906566 0.750000
O O7 0.936323 0.857581 0.842417
O O8 0.003489 0.999621 0.830416
O O9 0.218046 0.256834 0.135523
O O10 0.375238 0.384650 0.130650
O O11 0.500000 0.250000 0.902610
O O12 0.318363 0.353904 0.929524
O O13 0.609257 0.600569 0.607965
O O14 0.250000 0.000000 0.067388
#
# Coordination Sequence:
#
# PCOD9506361 Si02
#       6
#    16  16  16  16  16  16
#     4   8  17  33  59  86 117 160 199 241 300 358
#     4  10  20  39  66  87 113 157 203 244 295 359
#     4   9  20  38  57  86 123 157 191 241 311 355
#     4  10  22  39  58  86 126 155 196 251 298 357
#     4  10  19  38  59  90 121 152 198 256 301 354
#     4  11  20  35  61  91 118 159 210 248 290 357
#
# _framework density 19.146733999999999
#
# number of rings (size 3 to 8) (size 9 to 14) (size 15 to 20)
#    0.000    2.333    1.667    2.000    0.000    4.333 
#    6.000    0.000    0.000    0.000    0.000    0.000 
#    0.000    0.000    0.000    0.000    0.000    0.000 
#
# Total GULP energy -267351.442302 kJ/mol
# GULP energy per Si atom -5569.821715 kJ/mol
# Density = 1.910316 g / cm^3
# Si number density = 19.146734 Si / 1000 Ang^3
#
#
#
# Elastic Constant Matrix: (Units=GPa)
#
#
# Indices 1 2 3 4 5 6 
#
# 1 75.7495 37.9571 31.6478 0.0000 0.0000 0.0000
# 2 37.9571 73.8159 16.8998 0.0000 0.0000 0.0000
# 3 31.6478 16.8998 86.6761 0.0000 0.0000 0.0000
# 4 0.0000 0.0000 0.0000 -11.2769 0.0000 0.0000
# 5 0.0000 0.0000 0.0000 0.0000 -38.5028 0.0000
# 6 0.0000 0.0000 0.0000 0.0000 0.0000 32.3736
#
#
#
# Elastic Compliance Matrix: (Units=1/GPa)
#
#
# Indices 1 2 3 4 5 6 
#
# 1 0.020054 -0.009039 -0.005560 0.000000 0.000000 0.000000
# 2 -0.009039 0.018254 -0.000259 0.000000 0.000000 0.000000
# 3 -0.005560 -0.000259 0.013618 0.000000 0.000000 0.000000
# 4 0.000000 0.000000 0.000000 -0.088677 0.000000 0.000000
# 5 0.000000 0.000000 0.000000 0.000000 -0.025972 0.000000
# 6 0.000000 0.000000 0.000000 0.000000 0.000000 0.030889
#
#
# Mechanical properties :
#
#
# Convention : Reuss Voigt Hill
#
# Bulk Modulus (GPa) = 45.02335 45.47231 45.24783
# Shear Modulus (GPa) = 946.25051 6.50124 476.37587
#
# Velocity S-wave (km/s) = 22.25495 1.84468 15.79059
# Velocity P-wave (km/s) = 26.15230 5.32335 18.87169
#
# Compressibility (1/GPa) = 0.02221070
#
# Stress axis : x y z
#
# Youngs Moduli (GPa) = 49.86660 54.78130 73.43403
#
# Poissons Ratio (x) = 0.49516 0.40827
# Poissons Ratio (y) = 0.45074 0.01901
# Poissons Ratio (z) = 0.27724 0.01418
#
# Static dielectric constant tensor:
#      x y z
#    x 1.713690 0.000000 0.000000 
#    y 0.000000 1.700290 0.000000 
#    z 0.000000 0.000000 1.677950 
# 
# From -- ./inp_files/44386.got.cif
#   From: 2010.05.17/outbox.cif.g08.bks.cpg/sg68_23_cif.got.tgz:44386.got - 2010.06.03 18:57:09.
