data_PCOD9506963
_publ_section_title
;
Structure prediction by ZEFSAII (Michael W. Deem and Ramdas Pophale) SiO2 
 PCOD9506963
Probable space group: C C C A
;
_chemical_formula_sum "Si O2"
_cell_formula_units_Z 104
_cell_length_a 20.677959
_cell_length_b 13.544080
_cell_length_c 18.267469
_cell_angle_alpha 90.000000
_cell_angle_beta 90.000000
_cell_angle_gamma 90.000000
_cell_volume 5116.059176
_symmetry_space_group_name_H-M "C C C A"
_symmetry_group_IT_number 68
_space_group.IT_coordinate_system_code '2'
_symmetry_cell_setting 'orthorhombic'
loop_
_space_group_symop_operation_xyz
x,y,z
-x,1/2-y,z
x,1/2-y,1/2-z
-x,y,1/2-z
-x,-y,-z
x,1/2+y,-z
-x,1/2+y,1/2+z
x,-y,1/2+z
1/2+x,1/2+y,z
1/2-x,-y,z
1/2+x,-y,1/2-z
1/2-x,1/2+y,1/2-z
1/2-x,1/2-y,-z
1/2+x,y,-z
1/2-x,y,1/2+z
1/2+x,1/2-y,1/2+z
loop_
_atom_site_type_symbol
_atom_site_label
_atom_site_fract_x
_atom_site_fract_y
_atom_site_fract_z
Si Si1 0.757701 0.774896 0.670536
Si Si2 0.193053 0.580525 0.911346
Si Si3 0.059816 0.991769 0.104364
Si Si4 0.114261 0.395904 0.156822
Si Si5 0.185732 0.568523 0.080450
Si Si6 0.000000 0.026719 0.250000
Si Si7 0.034491 0.649428 0.524794
O O1 0.730976 0.750000 0.750000
O O2 0.781900 0.679456 0.626498
O O3 0.820209 0.845276 0.683613
O O4 0.705344 0.834549 0.624112
O O5 0.250000 0.500000 0.908835
O O6 0.129236 0.535583 0.875190
O O7 0.172445 0.594232 0.996305
O O8 0.024485 0.966278 0.180006
O O9 0.016892 0.075650 0.063639
O O10 0.064441 0.904377 0.045549
O O11 0.131835 0.502456 0.120684
O O12 0.059299 0.408112 0.218001
O O13 0.087119 0.333278 0.088308
O O14 0.250000 0.500000 0.079649
O O15 0.000000 0.750000 0.503985
#
# Coordination Sequence:
#
# PCOD9506963 Si02
#       7
#    16  16  16  16  16   8  16
#     4  11  23  37  60  94 126 165 203 257 317 376
#     4  11  22  40  63  92 124 165 212 257 304 380
#     4  10  21  39  60  90 122 159 206 254 317 367
#     4  10  20  40  63  90 124 157 208 264 313 369
#     4   9  20  39  63  87 123 164 207 254 311 371
#     4  10  22  38  64  90 124 162 196 258 320 378
#     4  10  20  37  63  89 117 159 208 258 306 366
#
# _framework density 20.328147000000001
#
# number of rings (size 3 to 8) (size 9 to 14) (size 15 to 20)
#    0.000    1.846    1.538    2.308    0.000    4.308 
#    2.769    4.615    0.000    0.000    0.000    0.000 
#    0.000    0.000    0.000    0.000    0.000    0.000 
#
# Total GULP energy -290498.956629 kJ/mol
# GULP energy per Si atom -5586.518397 kJ/mol
# Density = 2.028188 g / cm^3
# Si number density = 20.328147 Si / 1000 Ang^3
#
#
#
# Elastic Constant Matrix: (Units=GPa)
#
#
# Indices 1 2 3 4 5 6 
#
# 1 55.2469 6.7032 13.1364 0.0000 0.0000 0.0000
# 2 6.7032 67.5726 31.6013 0.0000 0.0000 0.0000
# 3 13.1364 31.6013 104.7865 0.0000 0.0000 0.0000
# 4 0.0000 0.0000 0.0000 15.6814 0.0000 0.0000
# 5 0.0000 0.0000 0.0000 0.0000 28.5100 0.0000
# 6 0.0000 0.0000 0.0000 0.0000 0.0000 21.1971
#
#
#
# Elastic Compliance Matrix: (Units=1/GPa)
#
#
# Indices 1 2 3 4 5 6 
#
# 1 0.018702 -0.000883 -0.002078 0.000000 0.000000 0.000000
# 2 -0.000883 0.017271 -0.005098 0.000000 0.000000 0.000000
# 3 -0.002078 -0.005098 0.011341 0.000000 0.000000 0.000000
# 4 0.000000 0.000000 0.000000 0.063770 0.000000 0.000000
# 5 0.000000 0.000000 0.000000 0.000000 0.035075 0.000000
# 6 0.000000 0.000000 0.000000 0.000000 0.000000 0.047176
#
#
# Mechanical properties :
#
#
# Convention : Reuss Voigt Hill
#
# Bulk Modulus (GPa) = 32.05627 36.72088 34.38858
# Shear Modulus (GPa) = 22.74259 24.82202 23.78231
#
# Velocity S-wave (km/s) = 3.34844 3.49817 3.42412
# Velocity P-wave (km/s) = 5.54554 5.86681 5.70844
#
# Compressibility (1/GPa) = 0.03119514
#
# Stress axis : x y z
#
# Youngs Moduli (GPa) = 53.47059 57.90205 88.17498
#
# Poissons Ratio (x) = 0.05115 0.18324
# Poissons Ratio (y) = 0.04723 0.44949
# Poissons Ratio (z) = 0.11112 0.29517
#
# Static dielectric constant tensor:
#      x y z
#    x 1.737600 0.000000 0.000000 
#    y 0.000000 1.695520 0.000000 
#    z 0.000000 0.000000 1.709720 
# 
# From -- ./inp_files/33010.got.cif
#   From: 2010.05.17/outbox.cif.g08.bks.cpg/sg68_17_cif.got.tgz:33010.got - 2010.06.03 18:57:09.
