data_PCOD9506974
_publ_section_title
;
Structure prediction by ZEFSAII (Michael W. Deem and Ramdas Pophale) SiO2 
 PCOD9506974
Probable space group: C C C A
;
_chemical_formula_sum "Si O2"
_cell_formula_units_Z 88
_cell_length_a 27.634389
_cell_length_b 11.535356
_cell_length_c 12.447023
_cell_angle_alpha 90.000000
_cell_angle_beta 90.000000
_cell_angle_gamma 90.000000
_cell_volume 3967.768825
_symmetry_space_group_name_H-M "C C C A"
_symmetry_group_IT_number 68
_space_group.IT_coordinate_system_code '2'
_symmetry_cell_setting 'orthorhombic'
loop_
_space_group_symop_operation_xyz
x,y,z
-x,1/2-y,z
x,1/2-y,1/2-z
-x,y,1/2-z
-x,-y,-z
x,1/2+y,-z
-x,1/2+y,1/2+z
x,-y,1/2+z
1/2+x,1/2+y,z
1/2-x,-y,z
1/2+x,-y,1/2-z
1/2-x,1/2+y,1/2-z
1/2-x,1/2-y,-z
1/2+x,y,-z
1/2-x,y,1/2+z
1/2+x,1/2-y,1/2+z
loop_
_atom_site_type_symbol
_atom_site_label
_atom_site_fract_x
_atom_site_fract_y
_atom_site_fract_z
Si Si1 0.639352 0.670849 0.912382
Si Si2 0.429744 0.633326 0.920162
Si Si3 0.905680 0.929539 0.656775
Si Si4 0.500000 0.548965 0.750000
Si Si5 0.250000 0.000000 0.190112
Si Si6 0.354382 0.072824 0.635295
Si Si7 0.718977 0.750000 0.750000
O O1 0.593192 0.746959 0.882213
O O2 0.627445 0.540324 0.876967
O O3 0.684097 0.729114 0.852137
O O4 0.646023 0.665499 0.039981
O O5 0.479360 0.614314 0.855853
O O6 0.393475 0.528202 0.889313
O O7 0.425368 0.633176 0.049607
O O8 0.872221 0.877140 0.750777
O O9 0.955002 0.973594 0.710652
O O10 0.198140 0.012302 0.133243
O O11 0.252948 0.127677 0.244885
#
# Coordination Sequence:
#
# PCOD9506974 Si02
#       7
#    16  16  16   8   8  16   8
#     4  11  22  42  67  91 133 181 229 294 349 434
#     4  10  21  39  65  94 131 177 231 284 354 430
#     4  10  21  40  62  94 135 172 226 289 355 423
#     4  10  20  37  64  95 128 176 222 287 356 433
#     4  12  24  44  70 104 140 196 244 300 366 434
#     4  10  23  41  64  94 134 184 231 289 365 419
#     4  12  24  44  70 101 140 181 246 296 354 432
#
# _framework density 22.178712000000001
#
# number of rings (size 3 to 8) (size 9 to 14) (size 15 to 20)
#    0.000    1.455    3.636    1.636    0.000    5.091 
#    0.000    0.000    0.000    9.818    0.000    0.000 
#    0.000    0.000    0.000    0.000    0.000    0.000 
#
# Total GULP energy -245289.494096 kJ/mol
# GULP energy per Si atom -5574.761229 kJ/mol
# Density = 2.212823 g / cm^3
# Si number density = 22.178712 Si / 1000 Ang^3
#
#
#
# Elastic Constant Matrix: (Units=GPa)
#
#
# Indices 1 2 3 4 5 6 
#
# 1 99.7840 13.3163 37.2479 0.0000 0.0000 0.0000
# 2 13.3163 97.3258 32.9206 0.0000 0.0000 0.0000
# 3 37.2479 32.9206 157.2247 0.0000 0.0000 0.0000
# 4 0.0000 0.0000 0.0000 -1.0506 0.0000 0.0000
# 5 0.0000 0.0000 0.0000 0.0000 5.3174 0.0000
# 6 0.0000 0.0000 0.0000 0.0000 0.0000 23.6005
#
#
#
# Elastic Compliance Matrix: (Units=1/GPa)
#
#
# Indices 1 2 3 4 5 6 
#
# 1 0.011035 -0.000673 -0.002473 0.000000 0.000000 0.000000
# 2 -0.000673 0.011099 -0.002164 0.000000 0.000000 0.000000
# 3 -0.002473 -0.002164 0.007399 0.000000 0.000000 0.000000
# 4 0.000000 0.000000 0.000000 -0.951845 0.000000 0.000000
# 5 0.000000 0.000000 0.000000 0.000000 0.188061 0.000000
# 6 0.000000 0.000000 0.000000 0.000000 0.000000 0.042372
#
#
# Mechanical properties :
#
#
# Convention : Reuss Voigt Hill
#
# Bulk Modulus (GPa) = 52.87847 57.92271 55.40059
# Shear Modulus (GPa) = -7.40793 23.63011 8.11109
#
# Velocity S-wave (km/s) = -1.82958 3.26765 1.91444
# Velocity P-wave (km/s) = 4.40802 6.35687 5.46994
#
# Compressibility (1/GPa) = 0.01891129
#
# Stress axis : x y z
#
# Youngs Moduli (GPa) = 90.62310 90.09807 135.14474
#
# Poissons Ratio (x) = 0.06065 0.33425
# Poissons Ratio (y) = 0.06101 0.29252
# Poissons Ratio (z) = 0.22413 0.19502
#
# Static dielectric constant tensor:
#      x y z
#    x 1.791110 0.000000 0.000000 
#    y 0.000000 1.866220 0.000000 
#    z 0.000000 0.000000 1.901200 
# 
# From -- ./inp_files/17682.got.cif
#   From: 2010.05.17/outbox.cif.g08.bks.cpg/sg68_9_cif.got.tgz:17682.got - 2010.06.03 18:57:09.
