data_PCOD9506652
_publ_section_title
;
Structure prediction by ZEFSAII (Michael W. Deem and Ramdas Pophale) SiO2 
 PCOD9506652
Probable space group: C C C A
;
_chemical_formula_sum "Si O2"
_cell_formula_units_Z 112
_cell_length_a 16.001460
_cell_length_b 29.644247
_cell_length_c 12.219832
_cell_angle_alpha 90.000000
_cell_angle_beta 90.000000
_cell_angle_gamma 90.000000
_cell_volume 5796.492371
_symmetry_space_group_name_H-M "C C C A"
_symmetry_group_IT_number 68
_space_group.IT_coordinate_system_code '2'
_symmetry_cell_setting 'orthorhombic'
loop_
_space_group_symop_operation_xyz
x,y,z
-x,1/2-y,z
x,1/2-y,1/2-z
-x,y,1/2-z
-x,-y,-z
x,1/2+y,-z
-x,1/2+y,1/2+z
x,-y,1/2+z
1/2+x,1/2+y,z
1/2-x,-y,z
1/2+x,-y,1/2-z
1/2-x,1/2+y,1/2-z
1/2-x,1/2-y,-z
1/2+x,y,-z
1/2-x,y,1/2+z
1/2+x,1/2-y,1/2+z
loop_
_atom_site_type_symbol
_atom_site_label
_atom_site_fract_x
_atom_site_fract_y
_atom_site_fract_z
Si Si1 0.031317 0.090385 0.639008
Si Si2 0.703692 0.130361 0.883083
Si Si3 0.198948 0.563390 0.681907
Si Si4 0.350893 0.494125 0.337943
Si Si5 0.098774 0.697111 0.735722
Si Si6 0.364329 0.445315 0.042601
Si Si7 0.636108 0.140316 0.524656
O O1 0.058534 0.127207 0.551070
O O2 0.000000 0.113140 0.750000
O O3 0.951904 0.061867 0.600301
O O4 0.106138 0.054585 0.662890
O O5 0.723561 0.096162 0.782924
O O6 0.648148 0.168735 0.827343
O O7 0.656745 0.099922 0.973255
O O8 0.786070 0.148407 0.943489
O O9 0.133963 0.527183 0.733911
O O10 0.284531 0.547218 0.622579
O O11 0.154709 0.594523 0.592504
O O12 0.250000 0.500000 0.339227
O O13 0.374736 0.515711 0.453635
O O14 0.115667 0.750000 0.750000
O O15 0.123624 0.678465 0.615718
O O16 0.000000 0.689195 0.750000
#
# Coordination Sequence:
#
# PCOD9506652 Si02
#       7
#    16  16  16  16  16  16  16
#     4  12  24  35  51  77 107 144 191 239 285 332
#     4   9  18  36  60  84 110 144 183 224 278 346
#     4   9  19  36  55  75 105 147 192 235 282 339
#     4  11  22  34  49  72 105 145 191 237 282 328
#     4  10  21  38  62  92 119 144 182 231 286 348
#     4  10  20  35  53  74 105 144 187 235 283 326
#     4  10  21  38  59  81 111 152 190 231 288 343
#
# _framework density 19.322030000000002
#
# number of rings (size 3 to 8) (size 9 to 14) (size 15 to 20)
#    0.000    1.857    0.000    5.571    0.000    5.714 
#    0.000    1.429    0.000    0.000    0.000    1.000 
#    0.000    0.000    0.000    0.000    0.000    0.000 
#
# Total GULP energy -312617.515595 kJ/mol
# GULP energy per Si atom -5582.455636 kJ/mol
# Density = 1.927805 g / cm^3
# Si number density = 19.322030 Si / 1000 Ang^3
#
#
#
# Elastic Constant Matrix: (Units=GPa)
#
#
# Indices 1 2 3 4 5 6 
#
# 1 55.3183 22.5285 31.7476 0.0000 0.0000 0.0000
# 2 22.5285 77.8869 37.4452 0.0000 0.0000 0.0000
# 3 31.7476 37.4452 115.7826 0.0000 0.0000 0.0000
# 4 0.0000 0.0000 0.0000 19.7598 0.0000 0.0000
# 5 0.0000 0.0000 0.0000 0.0000 32.9814 0.0000
# 6 0.0000 0.0000 0.0000 0.0000 0.0000 22.2127
#
#
#
# Elastic Compliance Matrix: (Units=1/GPa)
#
#
# Indices 1 2 3 4 5 6 
#
# 1 0.022559 -0.004205 -0.004826 0.000000 0.000000 0.000000
# 2 -0.004205 0.015987 -0.004017 0.000000 0.000000 0.000000
# 3 -0.004826 -0.004017 0.011259 0.000000 0.000000 0.000000
# 4 0.000000 0.000000 0.000000 0.050608 0.000000 0.000000
# 5 0.000000 0.000000 0.000000 0.000000 0.030320 0.000000
# 6 0.000000 0.000000 0.000000 0.000000 0.000000 0.045019
#
#
# Mechanical properties :
#
#
# Convention : Reuss Voigt Hill
#
# Bulk Modulus (GPa) = 42.17786 48.04782 45.11284
# Shear Modulus (GPa) = 23.83768 25.47522 24.65645
#
# Velocity S-wave (km/s) = 3.51622 3.63499 3.57610
# Velocity P-wave (km/s) = 6.19366 6.52215 6.36002
#
# Compressibility (1/GPa) = 0.02370912
#
# Stress axis : x y z
#
# Youngs Moduli (GPa) = 44.32763 62.55170 88.81528
#
# Poissons Ratio (x) = 0.26304 0.42860
# Poissons Ratio (y) = 0.18640 0.35679
# Poissons Ratio (z) = 0.21392 0.25129
#
# Static dielectric constant tensor:
#      x y z
#    x 1.697680 0.000000 0.000000 
#    y 0.000000 1.671740 0.000000 
#    z 0.000000 0.000000 1.732240 
# 
# From -- ./inp_files/13591.got.cif
#   From: 2010.05.17/outbox.cif.g08.bks.cpg/sg68_7_cif.got.tgz:13591.got - 2010.06.03 18:57:09.
