data_PCOD9506010
_publ_section_title
;
Structure prediction by ZEFSAII (Michael W. Deem and Ramdas Pophale) SiO2 
 PCOD9506010
Probable space group: C C C A
;
_chemical_formula_sum "Si O2"
_cell_formula_units_Z 104
_cell_length_a 19.382165
_cell_length_b 18.514626
_cell_length_c 13.626580
_cell_angle_alpha 90.000000
_cell_angle_beta 90.000000
_cell_angle_gamma 90.000000
_cell_volume 4889.946417
_symmetry_space_group_name_H-M "C C C A"
_symmetry_group_IT_number 68
_space_group.IT_coordinate_system_code '2'
_symmetry_cell_setting 'orthorhombic'
loop_
_space_group_symop_operation_xyz
x,y,z
-x,1/2-y,z
x,1/2-y,1/2-z
-x,y,1/2-z
-x,-y,-z
x,1/2+y,-z
-x,1/2+y,1/2+z
x,-y,1/2+z
1/2+x,1/2+y,z
1/2-x,-y,z
1/2+x,-y,1/2-z
1/2-x,1/2+y,1/2-z
1/2-x,1/2-y,-z
1/2+x,y,-z
1/2-x,y,1/2+z
1/2+x,1/2-y,1/2+z
loop_
_atom_site_type_symbol
_atom_site_label
_atom_site_fract_x
_atom_site_fract_y
_atom_site_fract_z
Si Si1 0.592838 0.874453 0.869845
Si Si2 0.753335 0.177857 0.933203
Si Si3 0.745689 0.750000 0.750000
Si Si4 0.880277 0.833802 0.165124
Si Si5 0.023399 0.325213 0.480238
Si Si6 0.187681 0.549292 0.060194
Si Si7 0.436488 0.978915 0.069697
O O1 0.670695 0.852527 0.902446
O O2 0.580836 0.831643 0.768472
O O3 0.542616 0.851692 0.957527
O O4 0.573212 0.958652 0.850038
O O5 0.717317 0.199151 0.828878
O O6 0.750000 0.250000 0.000000
O O7 0.717582 0.114345 0.993950
O O8 0.692357 0.705298 0.817195
O O9 0.920715 0.810399 0.067724
O O10 0.857519 0.916056 0.145731
O O11 0.051902 0.392609 0.415847
O O12 0.000000 0.250000 0.431525
O O13 0.250000 0.500000 0.094415
O O14 0.133608 0.509241 0.991486
O O15 0.500000 0.000000 0.000000
#
# Coordination Sequence:
#
# PCOD9506010 Si02
#       7
#    16  16   8  16  16  16  16
#     4  10  20  35  53  82 119 155 192 247 303 362
#     4  11  21  36  58  81 119 155 198 245 300 360
#     4  10  20  36  53  86 118 153 190 246 302 362
#     4  10  20  33  55  84 117 146 197 246 301 355
#     4  10  19  32  57  85 114 149 191 247 304 366
#     4  11  21  38  57  81 115 154 193 246 299 353
#     4   9  20  37  54  80 114 153 193 236 297 359
#
# _framework density 21.268125999999999
#
# number of rings (size 3 to 8) (size 9 to 14) (size 15 to 20)
#    0.000    1.846    3.077    2.308    2.154    0.615 
#    5.538    0.000    0.000    0.000    0.000    0.000 
#    0.000   11.077    0.000    0.000    0.000    0.000 
#
# Total GULP energy -289542.110891 kJ/mol
# GULP energy per Si atom -5568.117517 kJ/mol
# Density = 2.121972 g / cm^3
# Si number density = 21.268126 Si / 1000 Ang^3
#
#
#
# Elastic Constant Matrix: (Units=GPa)
#
#
# Indices 1 2 3 4 5 6 
#
# 1 57.3060 2.5301 6.8089 0.0000 0.0000 0.0000
# 2 2.5301 117.9740 24.8946 0.0000 0.0000 0.0000
# 3 6.8089 24.8946 54.8100 0.0000 0.0000 0.0000
# 4 0.0000 0.0000 0.0000 29.7284 0.0000 0.0000
# 5 0.0000 0.0000 0.0000 0.0000 14.5461 0.0000
# 6 0.0000 0.0000 0.0000 0.0000 0.0000 34.6759
#
#
#
# Elastic Compliance Matrix: (Units=1/GPa)
#
#
# Indices 1 2 3 4 5 6 
#
# 1 0.017713 0.000093 -0.002243 0.000000 0.000000 0.000000
# 2 0.000093 0.009375 -0.004270 0.000000 0.000000 0.000000
# 3 -0.002243 -0.004270 0.020463 0.000000 0.000000 0.000000
# 4 0.000000 0.000000 0.000000 0.033638 0.000000 0.000000
# 5 0.000000 0.000000 0.000000 0.000000 0.068747 0.000000
# 6 0.000000 0.000000 0.000000 0.000000 0.000000 0.028838
#
#
# Mechanical properties :
#
#
# Convention : Reuss Voigt Hill
#
# Bulk Modulus (GPa) = 28.80831 33.17303 30.99067
# Shear Modulus (GPa) = 24.60830 28.84718 26.72774
#
# Velocity S-wave (km/s) = 3.40523 3.68687 3.54885
# Velocity P-wave (km/s) = 5.38846 5.80994 5.60317
#
# Compressibility (1/GPa) = 0.03471221
#
# Stress axis : x y z
#
# Youngs Moduli (GPa) = 56.45714 106.66133 48.86901
#
# Poissons Ratio (x) = -0.00996 0.10960
# Poissons Ratio (y) = -0.00527 0.20867
# Poissons Ratio (z) = 0.12662 0.45544
#
# Static dielectric constant tensor:
#      x y z
#    x 1.815570 0.000000 0.000000 
#    y 0.000000 2.046450 0.000000 
#    z 0.000000 0.000000 1.782270 
# 
# From -- ./inp_files/24653.got.cif
#   From: 2010.05.17/outbox.cif.g08.bks.cpg/sg68_13_cif.got.tgz:24653.got - 2010.06.03 18:57:09.
