data_PCOD9506687
_publ_section_title
;
Structure prediction by ZEFSAII (Michael W. Deem and Ramdas Pophale) SiO2 
 PCOD9506687
Probable space group: C C C A
;
_chemical_formula_sum "Si O2"
_cell_formula_units_Z 88
_cell_length_a 13.058472
_cell_length_b 33.566555
_cell_length_c 7.653882
_cell_angle_alpha 90.000000
_cell_angle_beta 90.000000
_cell_angle_gamma 90.000000
_cell_volume 3354.910166
_symmetry_space_group_name_H-M "C C C A"
_symmetry_group_IT_number 68
_space_group.IT_coordinate_system_code '2'
_symmetry_cell_setting 'orthorhombic'
loop_
_space_group_symop_operation_xyz
x,y,z
-x,1/2-y,z
x,1/2-y,1/2-z
-x,y,1/2-z
-x,-y,-z
x,1/2+y,-z
-x,1/2+y,1/2+z
x,-y,1/2+z
1/2+x,1/2+y,z
1/2-x,-y,z
1/2+x,-y,1/2-z
1/2-x,1/2+y,1/2-z
1/2-x,1/2-y,-z
1/2+x,y,-z
1/2-x,y,1/2+z
1/2+x,1/2-y,1/2+z
loop_
_atom_site_type_symbol
_atom_site_label
_atom_site_fract_x
_atom_site_fract_y
_atom_site_fract_z
Si Si1 0.500000 0.498938 0.250000
Si Si2 0.697251 0.117507 0.178576
Si Si3 0.587885 0.628450 0.444774
Si Si4 0.154540 0.796456 0.396781
Si Si5 0.920012 0.939449 0.960106
Si Si6 0.609978 0.217039 0.511359
O O1 0.474592 0.468876 0.096382
O O2 0.409413 0.530629 0.296650
O O3 0.639939 0.120017 0.364240
O O4 0.654779 0.156518 0.076579
O O5 0.674221 0.078777 0.064753
O O6 0.819217 0.121423 0.190087
O O7 0.496580 0.597489 0.430567
O O8 0.559586 0.675276 0.430932
O O9 0.274941 0.786287 0.409932
O O10 0.093113 0.765380 0.520343
O O11 0.118538 0.789464 0.198438
#
# Coordination Sequence:
#
# PCOD9506687 Si02
#       6
#     8  16  16  16  16  16
#     4  10  24  42  66  78 108 144 180 224 298 342
#     4  10  20  35  58  86 115 148 187 226 270 325
#     4  10  20  35  58  86 115 148 187 226 270 325
#     4   8  14  26  46  75 110 146 181 218 260 309
#     4  11  22  44  61  81 110 145 178 232 283 341
#     4   8  14  26  46  75 110 146 181 218 260 309
#
# _framework density 26.23021
#
# number of rings (size 3 to 8) (size 9 to 14) (size 15 to 20)
#    0.000    2.545    1.818    0.000    2.545    0.000 
#    0.000    6.364    0.000    4.364    0.000    1.273 
#    0.000    0.000    0.000    0.000    0.000    0.000 
#
# Total GULP energy -245754.919561 kJ/mol
# GULP energy per Si atom -5585.339081 kJ/mol
# Density = 2.617051 g / cm^3
# Si number density = 26.230210 Si / 1000 Ang^3
#
#
#
# Elastic Constant Matrix: (Units=GPa)
#
#
# Indices 1 2 3 4 5 6 
#
# 1 75.2505 45.3303 26.3954 0.0000 0.0000 0.0000
# 2 45.3303 190.5092 36.9553 0.0000 0.0000 0.0000
# 3 26.3954 36.9553 77.9135 0.0000 0.0000 0.0000
# 4 0.0000 0.0000 0.0000 -5.7091 0.0000 0.0000
# 5 0.0000 0.0000 0.0000 0.0000 30.8666 0.0000
# 6 0.0000 0.0000 0.0000 0.0000 0.0000 41.0530
#
#
#
# Elastic Compliance Matrix: (Units=1/GPa)
#
#
# Indices 1 2 3 4 5 6 
#
# 1 0.016643 -0.003157 -0.004141 0.000000 0.000000 0.000000
# 2 -0.003157 0.006380 -0.001957 0.000000 0.000000 0.000000
# 3 -0.004141 -0.001957 0.015166 0.000000 0.000000 0.000000
# 4 0.000000 0.000000 0.000000 -0.175160 0.000000 0.000000
# 5 0.000000 0.000000 0.000000 0.000000 0.032398 0.000000
# 6 0.000000 0.000000 0.000000 0.000000 0.000000 0.024359
#
#
# Mechanical properties :
#
#
# Convention : Reuss Voigt Hill
#
# Bulk Modulus (GPa) = 50.81360 62.33727 56.57544
# Shear Modulus (GPa) = -90.66712 28.90825 -30.87943
#
# Velocity S-wave (km/s) = -5.88566 3.32339 -3.43483
# Velocity P-wave (km/s) = 5.17433 6.20835 2.42589
#
# Compressibility (1/GPa) = 0.01967977
#
# Stress axis : x y z
#
# Youngs Moduli (GPa) = 60.08487 156.74555 65.93858
#
# Poissons Ratio (x) = 0.49482 0.27305
# Poissons Ratio (y) = 0.18968 0.12901
# Poissons Ratio (z) = 0.24881 0.30668
#
# Static dielectric constant tensor:
#      x y z
#    x 2.205450 0.000000 0.000000 
#    y 0.000000 2.051920 0.000000 
#    z 0.000000 0.000000 2.128080 
# 
# From -- ./inp_files/6418.got.cif
#   From: 2010.05.17/outbox.cif.g08.bks.cpg/sg68_4_cif.got.tgz:6418.got - 2010.06.03 18:57:09.
