data_PCOD9506662
_publ_section_title
;
Structure prediction by ZEFSAII (Michael W. Deem and Ramdas Pophale) SiO2 
 PCOD9506662
Probable space group: C C C A
;
_chemical_formula_sum "Si O2"
_cell_formula_units_Z 72
_cell_length_a 13.702380
_cell_length_b 30.631620
_cell_length_c 8.840229
_cell_angle_alpha 90.000000
_cell_angle_beta 90.000000
_cell_angle_gamma 90.000000
_cell_volume 3710.474817
_symmetry_space_group_name_H-M "C C C A"
_symmetry_group_IT_number 68
_space_group.IT_coordinate_system_code '2'
_symmetry_cell_setting 'orthorhombic'
loop_
_space_group_symop_operation_xyz
x,y,z
-x,1/2-y,z
x,1/2-y,1/2-z
-x,y,1/2-z
-x,-y,-z
x,1/2+y,-z
-x,1/2+y,1/2+z
x,-y,1/2+z
1/2+x,1/2+y,z
1/2-x,-y,z
1/2+x,-y,1/2-z
1/2-x,1/2+y,1/2-z
1/2-x,1/2-y,-z
1/2+x,y,-z
1/2-x,y,1/2+z
1/2+x,1/2-y,1/2+z
loop_
_atom_site_type_symbol
_atom_site_label
_atom_site_fract_x
_atom_site_fract_y
_atom_site_fract_z
Si Si1 0.614178 0.372158 0.486486
Si Si2 0.811896 0.861923 0.356775
Si Si3 0.443160 0.938765 0.513889
Si Si4 0.500000 0.509181 0.250000
Si Si5 0.969552 0.202108 0.927223
O O1 0.698897 0.367726 0.608279
O O2 0.661908 0.365679 0.320325
O O3 0.550714 0.416317 0.485186
O O4 0.535858 0.333710 0.508647
O O5 0.868400 0.901441 0.439509
O O6 0.859322 0.816887 0.422783
O O7 0.430684 0.960272 0.350563
O O8 0.443231 0.977490 0.635800
O O9 0.000000 0.250000 0.982717
O O10 0.000000 0.201039 0.750000
#
# Coordination Sequence:
#
# PCOD9506662 Si02
#       5
#    16  16  16   8  16
#     4  10  20  35  55  80 110 142 178 218 265 318
#     4  10  20  35  55  80 110 142 178 218 265 318
#     4  10  20  39  55  77 106 145 175 222 266 320
#     4  10  20  36  62  74 104 140 184 220 268 310
#     4   8  16  34  57  78 106 145 179 213 261 316
#
# _framework density 19.404526000000001
#
# number of rings (size 3 to 8) (size 9 to 14) (size 15 to 20)
#    0.000    2.444    2.222    1.333    3.111    0.889 
#    0.000    6.667    0.000    1.333    0.000    0.000 
#    0.000    0.000    0.000    0.000    0.000    0.000 
#
# Total GULP energy -200684.764790 kJ/mol
# GULP energy per Si atom -5574.576800 kJ/mol
# Density = 1.936036 g / cm^3
# Si number density = 19.404526 Si / 1000 Ang^3
#
#
#
# Elastic Constant Matrix: (Units=GPa)
#
#
# Indices 1 2 3 4 5 6 
#
# 1 61.7832 -3.1836 -2.3617 0.0000 0.0000 0.0000
# 2 -3.1836 71.1028 17.9446 0.0000 0.0000 0.0000
# 3 -2.3617 17.9446 42.8593 0.0000 0.0000 0.0000
# 4 0.0000 0.0000 0.0000 10.0597 0.0000 0.0000
# 5 0.0000 0.0000 0.0000 0.0000 19.5493 0.0000
# 6 0.0000 0.0000 0.0000 0.0000 0.0000 4.9729
#
#
#
# Elastic Compliance Matrix: (Units=1/GPa)
#
#
# Indices 1 2 3 4 5 6 
#
# 1 0.016240 0.000560 0.000660 0.000000 0.000000 0.000000
# 2 0.000560 0.015745 -0.006561 0.000000 0.000000 0.000000
# 3 0.000660 -0.006561 0.026116 0.000000 0.000000 0.000000
# 4 0.000000 0.000000 0.000000 0.099407 0.000000 0.000000
# 5 0.000000 0.000000 0.000000 0.000000 0.051153 0.000000
# 6 0.000000 0.000000 0.000000 0.000000 0.000000 0.201089
#
#
# Mechanical properties :
#
#
# Convention : Reuss Voigt Hill
#
# Bulk Modulus (GPa) = 21.08849 22.28267 21.68558
# Shear Modulus (GPa) = 11.46165 17.80612 14.63389
#
# Velocity S-wave (km/s) = 2.43301 3.03252 2.74915
# Velocity P-wave (km/s) = 4.33406 4.87542 4.61269
#
# Compressibility (1/GPa) = 0.04741923
#
# Stress axis : x y z
#
# Youngs Moduli (GPa) = 61.57730 63.51152 38.29110
#
# Poissons Ratio (x) = -0.03560 -0.02528
# Poissons Ratio (y) = -0.03451 0.25124
# Poissons Ratio (z) = -0.04065 0.41673
#
# Static dielectric constant tensor:
#      x y z
#    x 1.662260 0.000000 0.000000 
#    y 0.000000 1.703900 0.000000 
#    z 0.000000 0.000000 1.693220 
# 
# From -- ./inp_files/5311.got.cif
#   From: 2010.05.17/outbox.cif.g08.bks.cpg/sg68_3_cif.got.tgz:5311.got - 2010.06.03 18:57:09.
