data_PCOD9506635
_publ_section_title
;
Structure prediction by ZEFSAII (Michael W. Deem and Ramdas Pophale) SiO2 
 PCOD9506635
Probable space group: C C C A
;
_chemical_formula_sum "Si O2"
_cell_formula_units_Z 120
_cell_length_a 21.522973
_cell_length_b 19.386531
_cell_length_c 14.394577
_cell_angle_alpha 90.000000
_cell_angle_beta 90.000000
_cell_angle_gamma 90.000000
_cell_volume 6006.220501
_symmetry_space_group_name_H-M "C C C A"
_symmetry_group_IT_number 68
_space_group.IT_coordinate_system_code '2'
_symmetry_cell_setting 'orthorhombic'
loop_
_space_group_symop_operation_xyz
x,y,z
-x,1/2-y,z
x,1/2-y,1/2-z
-x,y,1/2-z
-x,-y,-z
x,1/2+y,-z
-x,1/2+y,1/2+z
x,-y,1/2+z
1/2+x,1/2+y,z
1/2-x,-y,z
1/2+x,-y,1/2-z
1/2-x,1/2+y,1/2-z
1/2-x,1/2-y,-z
1/2+x,y,-z
1/2-x,y,1/2+z
1/2+x,1/2-y,1/2+z
loop_
_atom_site_type_symbol
_atom_site_label
_atom_site_fract_x
_atom_site_fract_y
_atom_site_fract_z
Si Si1 0.757259 0.348746 0.597762
Si Si2 0.240510 0.750000 0.750000
Si Si3 0.561443 0.713074 0.348220
Si Si4 0.631712 0.577116 0.094996
Si Si5 0.319221 0.845450 0.400314
Si Si6 0.685979 0.966085 0.772129
Si Si7 0.871850 0.999237 0.094335
Si Si8 0.507180 0.935921 0.149816
O O1 0.773902 0.284303 0.662591
O O2 0.682659 0.362348 0.602666
O O3 0.776721 0.340285 0.491243
O O4 0.793532 0.411211 0.649636
O O5 0.206791 0.685567 0.696717
O O6 0.500000 0.750000 0.386546
O O7 0.576321 0.750000 0.250000
O O8 0.620197 0.703483 0.414084
O O9 0.543151 0.634683 0.326869
O O10 0.646754 0.524943 0.177749
O O11 0.557725 0.587101 0.103673
O O12 0.646779 0.537414 0.000119
O O13 0.338517 0.926016 0.393742
O O14 0.750000 0.000000 0.739058
O O15 0.647646 0.949557 0.679544
O O16 0.945200 0.017496 0.091840
O O17 0.500000 0.971579 0.250000
#
# Coordination Sequence:
#
# PCOD9506635 Si02
#       8
#    16   8  16  16  16  16  16  16
#     4  11  26  42  63  91 130 173 208 265 319 389
#     4  12  26  42  61  92 131 158 218 266 314 382
#     4  10  20  34  61  89 126 168 206 260 317 377
#     4  11  23  40  63  94 128 163 215 257 321 394
#     4  11  23  41  63  95 127 167 212 267 319 376
#     4  10  21  37  60  91 123 168 209 250 314 383
#     4  11  23  39  66  91 130 165 207 265 315 387
#     4  11  21  36  59  94 125 166 205 262 326 366
#
# _framework density 19.979285999999998
#
# number of rings (size 3 to 8) (size 9 to 14) (size 15 to 20)
#    0.000    1.200    4.667    2.400    7.467    0.000 
#    0.000    0.000    0.000    0.000    0.000    0.000 
#    0.000    0.000    0.000    0.000    0.000    0.000 
#
# Total GULP energy -334423.867299 kJ/mol
# GULP energy per Si atom -5573.731122 kJ/mol
# Density = 1.993381 g / cm^3
# Si number density = 19.979286 Si / 1000 Ang^3
#
#
#
# Elastic Constant Matrix: (Units=GPa)
#
#
# Indices 1 2 3 4 5 6 
#
# 1 69.5332 13.1325 32.6939 0.0000 0.0000 0.0000
# 2 13.1325 48.6250 17.8906 0.0000 0.0000 0.0000
# 3 32.6939 17.8906 114.5064 0.0000 0.0000 0.0000
# 4 0.0000 0.0000 0.0000 36.0395 0.0000 0.0000
# 5 0.0000 0.0000 0.0000 0.0000 23.4050 0.0000
# 6 0.0000 0.0000 0.0000 0.0000 0.0000 16.3084
#
#
#
# Elastic Compliance Matrix: (Units=1/GPa)
#
#
# Indices 1 2 3 4 5 6 
#
# 1 0.017009 -0.002978 -0.004391 0.000000 0.000000 0.000000
# 2 -0.002978 0.022341 -0.002640 0.000000 0.000000 0.000000
# 3 -0.004391 -0.002640 0.010399 0.000000 0.000000 0.000000
# 4 0.000000 0.000000 0.000000 0.027747 0.000000 0.000000
# 5 0.000000 0.000000 0.000000 0.000000 0.042726 0.000000
# 6 0.000000 0.000000 0.000000 0.000000 0.000000 0.061318
#
#
# Mechanical properties :
#
#
# Convention : Reuss Voigt Hill
#
# Bulk Modulus (GPa) = 33.63544 40.01097 36.82320
# Shear Modulus (GPa) = 23.64406 26.41377 25.02892
#
# Velocity S-wave (km/s) = 3.44383 3.63996 3.54325
# Velocity P-wave (km/s) = 5.71708 6.14292 5.93382
#
# Compressibility (1/GPa) = 0.02973055
#
# Stress axis : x y z
#
# Youngs Moduli (GPa) = 58.79340 44.76010 96.15946
#
# Poissons Ratio (x) = 0.13330 0.42224
# Poissons Ratio (y) = 0.17509 0.25389
# Poissons Ratio (z) = 0.25816 0.11818
#
# Static dielectric constant tensor:
#      x y z
#    x 1.788920 0.000000 0.000000 
#    y 0.000000 1.741840 0.000000 
#    z 0.000000 0.000000 1.701010 
# 
# From -- ./inp_files/24810.got.cif
#   From: 2010.05.17/outbox.cif.g08.bks.cpg/sg68_13_cif.got.tgz:24810.got - 2010.06.03 18:57:09.
