data_PCOD9506866
_publ_section_title
;
Structure prediction by ZEFSAII (Michael W. Deem and Ramdas Pophale) SiO2 
 PCOD9506866
Probable space group: C C C A
;
_chemical_formula_sum "Si O2"
_cell_formula_units_Z 84
_cell_length_a 19.904095
_cell_length_b 28.505293
_cell_length_c 5.525453
_cell_angle_alpha 90.000000
_cell_angle_beta 90.000000
_cell_angle_gamma 90.000000
_cell_volume 3134.987650
_symmetry_space_group_name_H-M "C C C A"
_symmetry_group_IT_number 68
_space_group.IT_coordinate_system_code '2'
_symmetry_cell_setting 'orthorhombic'
loop_
_space_group_symop_operation_xyz
x,y,z
-x,1/2-y,z
x,1/2-y,1/2-z
-x,y,1/2-z
-x,-y,-z
x,1/2+y,-z
-x,1/2+y,1/2+z
x,-y,1/2+z
1/2+x,1/2+y,z
1/2-x,-y,z
1/2+x,-y,1/2-z
1/2-x,1/2+y,1/2-z
1/2-x,1/2-y,-z
1/2+x,y,-z
1/2-x,y,1/2+z
1/2+x,1/2-y,1/2+z
loop_
_atom_site_type_symbol
_atom_site_label
_atom_site_fract_x
_atom_site_fract_y
_atom_site_fract_z
Si Si1 0.285547 0.814333 0.982291
Si Si2 0.000000 0.419667 0.250000
Si Si3 0.148518 0.616782 0.723337
Si Si4 0.597830 0.825216 0.820362
Si Si5 0.500000 0.412359 0.250000
Si Si6 0.173333 0.982743 0.004401
Si Si7 0.500000 0.250000 0.250000
O O1 0.252373 0.799629 0.235355
O O2 0.303363 0.869387 0.052692
O O3 0.362572 0.802529 0.906241
O O4 0.069164 0.390228 0.273744
O O5 0.995480 0.442769 0.509582
O O6 0.149073 0.658800 0.528019
O O7 0.171581 0.569773 0.593250
O O8 0.560837 0.874365 0.761398
O O9 0.544561 0.786613 0.901873
O O10 0.142907 0.011370 0.774085
O O11 0.250000 0.000000 0.035934
#
# Coordination Sequence:
#
# PCOD9506866 Si02
#       7
#    16   8  16  16   8  16   4
#     4  12  25  40  71 109 148 200 253 302 383 473
#     4  10  20  36  64  99 126 189 246 314 360 452
#     4  11  24  43  74 105 154 200 263 317 395 463
#     4  10  22  45  73 116 147 205 251 329 384 477
#     4   9  18  35  64  97 138 167 252 297 366 429
#     4  10  25  41  63 102 146 195 253 320 374 449
#     4  10  24  52  90 118 158 192 278 336 402 460
#
# _framework density 26.794363000000001
#
# number of rings (size 3 to 8) (size 9 to 14) (size 15 to 20)
#    0.000    1.524    3.810    0.000    8.000    0.000 
#    0.000    3.810    0.000    0.000    0.000    0.000 
#    0.000    0.000    0.000    0.000    0.000    0.000 
#
# Total GULP energy -233983.882113 kJ/mol
# GULP energy per Si atom -5571.044812 kJ/mol
# Density = 2.673338 g / cm^3
# Si number density = 26.794363 Si / 1000 Ang^3
#
#
#
# Elastic Constant Matrix: (Units=GPa)
#
#
# Indices 1 2 3 4 5 6 
#
# 1 90.5232 43.8538 43.6671 0.0000 0.0000 0.0000
# 2 43.8538 96.0007 1.2360 0.0000 0.0000 0.0000
# 3 43.6671 1.2360 194.2861 0.0000 0.0000 0.0000
# 4 0.0000 0.0000 0.0000 35.6892 0.0000 0.0000
# 5 0.0000 0.0000 0.0000 0.0000 37.4651 0.0000
# 6 0.0000 0.0000 0.0000 0.0000 0.0000 54.1837
#
#
#
# Elastic Compliance Matrix: (Units=1/GPa)
#
#
# Indices 1 2 3 4 5 6 
#
# 1 0.016413 -0.007451 -0.003642 0.000000 0.000000 0.000000
# 2 -0.007451 0.013800 0.001587 0.000000 0.000000 0.000000
# 3 -0.003642 0.001587 0.005955 0.000000 0.000000 0.000000
# 4 0.000000 0.000000 0.000000 0.028020 0.000000 0.000000
# 5 0.000000 0.000000 0.000000 0.000000 0.026691 0.000000
# 6 0.000000 0.000000 0.000000 0.000000 0.000000 0.018456
#
#
# Mechanical properties :
#
#
# Convention : Reuss Voigt Hill
#
# Bulk Modulus (GPa) = 58.28437 62.03598 60.16017
# Shear Modulus (GPa) = 37.29538 44.93783 41.11660
#
# Velocity S-wave (km/s) = 3.73488 4.09973 3.92155
# Velocity P-wave (km/s) = 6.35601 6.75376 6.55790
#
# Compressibility (1/GPa) = 0.01715726
#
# Stress axis : x y z
#
# Youngs Moduli (GPa) = 60.92739 72.46540 167.91449
#
# Poissons Ratio (x) = 0.53992 0.61147
# Poissons Ratio (y) = 0.45395 -0.26645
# Poissons Ratio (z) = 0.22187 -0.11499
#
# Static dielectric constant tensor:
#      x y z
#    x 1.963800 0.000000 0.000000 
#    y 0.000000 2.047950 0.000000 
#    z 0.000000 0.000000 2.270950 
# 
# From -- ./inp_files/2114.got.cif
#   From: 2010.05.17/outbox.cif.g08.bks.cpg/sg68_2_cif.got.tgz:2114.got - 2010.06.03 18:57:09.
