data_PCOD9506405
_publ_section_title
;
Structure prediction by ZEFSAII (Michael W. Deem and Ramdas Pophale) SiO2 
 PCOD9506405
Probable space group: C C C A
;
_chemical_formula_sum "Si O2"
_cell_formula_units_Z 96
_cell_length_a 13.958491
_cell_length_b 13.848159
_cell_length_c 22.773922
_cell_angle_alpha 90.000000
_cell_angle_beta 90.000000
_cell_angle_gamma 90.000000
_cell_volume 4402.185521
_symmetry_space_group_name_H-M "C C C A"
_symmetry_group_IT_number 68
_space_group.IT_coordinate_system_code '2'
_symmetry_cell_setting 'orthorhombic'
loop_
_space_group_symop_operation_xyz
x,y,z
-x,1/2-y,z
x,1/2-y,1/2-z
-x,y,1/2-z
-x,-y,-z
x,1/2+y,-z
-x,1/2+y,1/2+z
x,-y,1/2+z
1/2+x,1/2+y,z
1/2-x,-y,z
1/2+x,-y,1/2-z
1/2-x,1/2+y,1/2-z
1/2-x,1/2-y,-z
1/2+x,y,-z
1/2-x,y,1/2+z
1/2+x,1/2-y,1/2+z
loop_
_atom_site_type_symbol
_atom_site_label
_atom_site_fract_x
_atom_site_fract_y
_atom_site_fract_z
Si Si1 0.888244 0.443559 0.767470
Si Si2 0.380696 0.421136 0.099232
Si Si3 0.505759 0.885042 0.998664
Si Si4 0.195484 0.138860 0.228310
Si Si5 0.091900 0.193029 0.117992
Si Si6 0.676549 0.870949 0.066081
O O1 0.874518 0.399829 0.832503
O O2 0.854922 0.556266 0.768055
O O3 0.808197 0.389620 0.727683
O O4 0.000000 0.436274 0.750000
O O5 0.463291 0.365203 0.065033
O O6 0.379937 0.538634 0.095364
O O7 0.285978 0.397170 0.061977
O O8 0.445871 0.848406 0.055499
O O9 0.614963 0.853106 0.007707
O O10 0.500000 0.000000 0.000000
O O11 0.183897 0.250000 0.250000
O O12 0.140877 0.126255 0.165989
O O13 0.168229 0.275751 0.104089
O O14 0.000000 0.250000 0.143631
#
# Coordination Sequence:
#
# PCOD9506405 Si02
#       6
#    16  16  16  16  16  16
#     4  11  26  42  66 101 140 182 233 272 340 427
#     4  10  19  39  62  85 127 179 206 264 345 395
#     4   9  20  35  58  90 122 164 207 266 335 385
#     4  11  24  43  68 102 138 182 230 286 340 396
#     4  10  21  37  65 100 130 159 226 287 328 395
#     4   9  18  36  62  91 120 163 215 270 326 405
#
# _framework density 21.807348999999999
#
# number of rings (size 3 to 8) (size 9 to 14) (size 15 to 20)
#    0.000    2.000    0.000    4.000    9.333    1.000 
#    3.000    1.667    7.333    0.000    0.000    0.000 
#    0.000    0.000    0.000    0.000    0.000    0.000 
#
# Total GULP energy -267461.888931 kJ/mol
# GULP energy per Si atom -5572.122686 kJ/mol
# Density = 2.175771 g / cm^3
# Si number density = 21.807349 Si / 1000 Ang^3
#
#
#
# Elastic Constant Matrix: (Units=GPa)
#
#
# Indices 1 2 3 4 5 6 
#
# 1 95.5579 24.1019 49.3588 0.0000 0.0000 0.0000
# 2 24.1019 70.7814 26.7371 0.0000 0.0000 0.0000
# 3 49.3588 26.7371 89.9075 0.0000 0.0000 0.0000
# 4 0.0000 0.0000 0.0000 20.5397 0.0000 0.0000
# 5 0.0000 0.0000 0.0000 0.0000 17.3750 0.0000
# 6 0.0000 0.0000 0.0000 0.0000 0.0000 24.6457
#
#
#
# Elastic Compliance Matrix: (Units=1/GPa)
#
#
# Indices 1 2 3 4 5 6 
#
# 1 0.014915 -0.002237 -0.007523 0.000000 0.000000 0.000000
# 2 -0.002237 0.016251 -0.003605 0.000000 0.000000 0.000000
# 3 -0.007523 -0.003605 0.016325 0.000000 0.000000 0.000000
# 4 0.000000 0.000000 0.000000 0.048686 0.000000 0.000000
# 5 0.000000 0.000000 0.000000 0.000000 0.057554 0.000000
# 6 0.000000 0.000000 0.000000 0.000000 0.000000 0.040575
#
#
# Mechanical properties :
#
#
# Convention : Reuss Voigt Hill
#
# Bulk Modulus (GPa) = 48.16626 50.73804 49.45215
# Shear Modulus (GPa) = 21.93405 22.91536 22.42471
#
# Velocity S-wave (km/s) = 3.17489 3.24514 3.21021
# Velocity P-wave (km/s) = 5.96448 6.11214 6.03876
#
# Compressibility (1/GPa) = 0.02076142
#
# Stress axis : x y z
#
# Youngs Moduli (GPa) = 67.04687 61.53315 61.25712
#
# Poissons Ratio (x) = 0.13765 0.46084
# Poissons Ratio (y) = 0.14998 0.22082
# Poissons Ratio (z) = 0.50439 0.22182
#
# Static dielectric constant tensor:
#      x y z
#    x 1.831170 0.000000 0.000000 
#    y 0.000000 1.830950 0.000000 
#    z 0.000000 0.000000 1.840610 
# 
# From -- ./inp_files/38590.got.cif
#   From: 2010.05.17/outbox.cif.g08.bks.cpg/sg68_20_cif.got.tgz:38590.got - 2010.06.03 18:57:09.
