data_PCOD9506864
_publ_section_title
;
Structure prediction by ZEFSAII (Michael W. Deem and Ramdas Pophale) SiO2 
 PCOD9506864
Probable space group: C C C A
;
_chemical_formula_sum "Si O2"
_cell_formula_units_Z 120
_cell_length_a 11.463407
_cell_length_b 20.429552
_cell_length_c 24.532717
_cell_angle_alpha 90.000000
_cell_angle_beta 90.000000
_cell_angle_gamma 90.000000
_cell_volume 5745.372669
_symmetry_space_group_name_H-M "C C C A"
_symmetry_group_IT_number 68
_space_group.IT_coordinate_system_code '2'
_symmetry_cell_setting 'orthorhombic'
loop_
_space_group_symop_operation_xyz
x,y,z
-x,1/2-y,z
x,1/2-y,1/2-z
-x,y,1/2-z
-x,-y,-z
x,1/2+y,-z
-x,1/2+y,1/2+z
x,-y,1/2+z
1/2+x,1/2+y,z
1/2-x,-y,z
1/2+x,-y,1/2-z
1/2-x,1/2+y,1/2-z
1/2-x,1/2-y,-z
1/2+x,y,-z
1/2-x,y,1/2+z
1/2+x,1/2-y,1/2+z
loop_
_atom_site_type_symbol
_atom_site_label
_atom_site_fract_x
_atom_site_fract_y
_atom_site_fract_z
Si Si1 0.836287 0.061942 0.930127
Si Si2 0.381279 0.762174 0.049464
Si Si3 0.338366 0.789118 0.807143
Si Si4 0.743756 0.138581 0.528928
Si Si5 0.360880 0.873073 0.255858
Si Si6 0.915796 0.409556 0.877621
Si Si7 0.250000 0.000000 0.306694
Si Si8 0.278954 0.825599 0.140119
O O1 0.776959 0.118470 0.895294
O O2 0.964850 0.060855 0.903031
O O3 0.750000 0.000000 0.925929
O O4 0.829335 0.086767 0.993085
O O5 0.500000 0.750000 0.018207
O O6 0.335532 0.689675 0.060982
O O7 0.389133 0.797827 0.107235
O O8 0.305434 0.811077 0.013152
O O9 0.370867 0.750000 0.750000
O O10 0.213085 0.824174 0.794967
O O11 0.418882 0.845716 0.835754
O O12 0.313233 0.732772 0.850970
O O13 0.836691 0.109145 0.570260
O O14 0.500000 0.866720 0.250000
O O15 0.311854 0.854461 0.197345
O O16 0.318682 0.945503 0.272080
O O17 0.845523 0.463488 0.843519
#
# Coordination Sequence:
#
# PCOD9506864 Si02
#       8
#    16  16  16  16  16  16   8  16
#     4  11  27  44  65  99 133 189 234 279 348 409
#     4  10  20  36  64  96 132 163 215 277 352 415
#     4   9  20  42  66 105 133 168 229 283 360 415
#     4  10  22  42  62  99 129 177 230 278 349 412
#     4  10  23  39  66  95 137 177 222 286 342 412
#     4  11  23  46  71  94 144 180 234 296 337 427
#     4  10  26  42  64 102 124 194 236 268 348 408
#     4  10  22  39  63  97 132 163 221 276 342 425
#
# _framework density 20.886374
#
# number of rings (size 3 to 8) (size 9 to 14) (size 15 to 20)
#    0.000    1.867    1.333    0.800    5.600    2.933 
#    2.400    7.333    0.000    0.000    0.000    0.000 
#    0.000    0.000    0.000    0.000    0.000    0.000 
#
# Total GULP energy -334248.199813 kJ/mol
# GULP energy per Si atom -5570.803330 kJ/mol
# Density = 2.083884 g / cm^3
# Si number density = 20.886374 Si / 1000 Ang^3
#
#
#
# Elastic Constant Matrix: (Units=GPa)
#
#
# Indices 1 2 3 4 5 6 
#
# 1 109.0949 43.4740 20.3521 0.0000 0.0000 0.0000
# 2 43.4740 126.4900 46.4787 0.0000 0.0000 0.0000
# 3 20.3521 46.4787 80.8014 0.0000 0.0000 0.0000
# 4 0.0000 0.0000 0.0000 3.0581 0.0000 0.0000
# 5 0.0000 0.0000 0.0000 0.0000 34.2283 0.0000
# 6 0.0000 0.0000 0.0000 0.0000 0.0000 -0.0430
#
#
#
# Elastic Compliance Matrix: (Units=1/GPa)
#
#
# Indices 1 2 3 4 5 6 
#
# 1 0.010655 -0.003393 -0.000732 0.000000 0.000000 0.000000
# 2 -0.003393 0.011105 -0.005533 0.000000 0.000000 0.000000
# 3 -0.000732 -0.005533 0.015743 0.000000 0.000000 0.000000
# 4 0.000000 0.000000 0.000000 0.327006 0.000000 0.000000
# 5 0.000000 0.000000 0.000000 0.000000 0.029216 0.000000
# 6 0.000000 0.000000 0.000000 0.000000 0.000000-23.273297
#
#
# Mechanical properties :
#
#
# Convention : Reuss Voigt Hill
#
# Bulk Modulus (GPa) = 54.98524 59.66621 57.32572
# Shear Modulus (GPa) = -0.21878 21.18746 10.48434
#
# Velocity S-wave (km/s) = -0.32400 3.18844 2.24290
# Velocity P-wave (km/s) = 5.12280 6.49492 5.84923
#
# Compressibility (1/GPa) = 0.01818670
#
# Stress axis : x y z
#
# Youngs Moduli (GPa) = 93.85243 90.04834 63.51936
#
# Poissons Ratio (x) = 0.30554 0.04650
# Poissons Ratio (y) = 0.31845 0.35147
# Poissons Ratio (z) = 0.06870 0.49826
#
# Static dielectric constant tensor:
#      x y z
#    x 1.871780 0.000000 0.000000 
#    y 0.000000 1.761400 0.000000 
#    z 0.000000 0.000000 1.769860 
# 
# From -- ./inp_files/44647.got.cif
#   From: 2010.05.17/outbox.cif.g08.bks.cpg/sg68_23_cif.got.tgz:44647.got - 2010.06.03 18:57:09.
