data_PCOD9506452
_publ_section_title
;
Structure prediction by ZEFSAII (Michael W. Deem and Ramdas Pophale) SiO2 
 PCOD9506452
Probable space group: C C C A
;
_chemical_formula_sum "Si O2"
_cell_formula_units_Z 116
_cell_length_a 14.614861
_cell_length_b 11.627868
_cell_length_c 31.038499
_cell_angle_alpha 90.000000
_cell_angle_beta 90.000000
_cell_angle_gamma 90.000000
_cell_volume 5274.672418
_symmetry_space_group_name_H-M "C C C A"
_symmetry_group_IT_number 68
_space_group.IT_coordinate_system_code '2'
_symmetry_cell_setting 'orthorhombic'
loop_
_space_group_symop_operation_xyz
x,y,z
-x,1/2-y,z
x,1/2-y,1/2-z
-x,y,1/2-z
-x,-y,-z
x,1/2+y,-z
-x,1/2+y,1/2+z
x,-y,1/2+z
1/2+x,1/2+y,z
1/2-x,-y,z
1/2+x,-y,1/2-z
1/2-x,1/2+y,1/2-z
1/2-x,1/2-y,-z
1/2+x,y,-z
1/2-x,y,1/2+z
1/2+x,1/2-y,1/2+z
loop_
_atom_site_type_symbol
_atom_site_label
_atom_site_fract_x
_atom_site_fract_y
_atom_site_fract_z
Si Si1 0.141229 0.971958 0.775654
Si Si2 0.048861 0.624238 0.487905
Si Si3 0.388326 0.799666 0.825369
Si Si4 0.140967 0.522558 0.822245
Si Si5 0.174746 0.224260 0.340375
Si Si6 0.921769 0.350536 0.420910
Si Si7 0.016162 0.912391 0.108024
Si Si8 0.500000 0.750000 0.750000
O O1 0.107518 0.968798 0.726994
O O2 0.131485 0.857193 0.803648
O O3 0.250000 0.000000 0.774160
O O4 0.099139 0.078249 0.801015
O O5 0.113297 0.635824 0.529932
O O6 0.067249 0.617801 0.436857
O O7 0.000000 0.750000 0.490058
O O8 0.000000 0.500000 0.500000
O O9 0.282658 0.772598 0.831497
O O10 0.439091 0.827901 0.870636
O O11 0.426750 0.715250 0.787788
O O12 0.250000 0.500000 0.821735
O O13 0.130363 0.651390 0.839622
O O14 0.090155 0.438103 0.855033
O O15 0.157664 0.175282 0.387490
O O16 0.000000 0.250000 0.419161
O O17 0.965752 0.468869 0.404103
#
# Coordination Sequence:
#
# PCOD9506452 Si02
#       8
#    16  16  16  16  16  16  16   4
#     4   9  20  38  58  85 126 172 217 264 322 397
#     4   9  21  39  70  97 131 174 228 288 361 428
#     4  11  25  39  63  94 132 174 228 271 334 402
#     4  11  24  37  61  90 135 175 220 280 342 397
#     4  11  22  39  65  95 129 177 227 285 341 406
#     4  10  19  41  66  95 124 167 218 285 351 407
#     4  11  22  40  65  93 125 172 223 279 340 424
#     4  12  28  40  60  92 140 184 220 268 328 416
#
# _framework density 21.991886999999998
#
# number of rings (size 3 to 8) (size 9 to 14) (size 15 to 20)
#    0.000    1.655    2.759    1.241    8.690    0.000 
#    0.000    0.000    9.103    2.483    0.000    0.000 
#    0.000    0.000    0.000    0.000    0.000    0.000 
#
# Total GULP energy -323026.306182 kJ/mol
# GULP energy per Si atom -5569.419072 kJ/mol
# Density = 2.194183 g / cm^3
# Si number density = 21.991887 Si / 1000 Ang^3
#
#
#
# Elastic Constant Matrix: (Units=GPa)
#
#
# Indices 1 2 3 4 5 6 
#
# 1 53.7160 -3.0016 44.6206 0.0000 0.0000 0.0000
# 2 -3.0016 80.3041 22.6633 0.0000 0.0000 0.0000
# 3 44.6206 22.6633 230.0649 0.0000 0.0000 0.0000
# 4 0.0000 0.0000 0.0000 20.7824 0.0000 0.0000
# 5 0.0000 0.0000 0.0000 0.0000 11.4017 0.0000
# 6 0.0000 0.0000 0.0000 0.0000 0.0000 23.8561
#
#
#
# Elastic Compliance Matrix: (Units=1/GPa)
#
#
# Indices 1 2 3 4 5 6 
#
# 1 0.022542 0.002136 -0.004582 0.000000 0.000000 0.000000
# 2 0.002136 0.013011 -0.001696 0.000000 0.000000 0.000000
# 3 -0.004582 -0.001696 0.005402 0.000000 0.000000 0.000000
# 4 0.000000 0.000000 0.000000 0.048118 0.000000 0.000000
# 5 0.000000 0.000000 0.000000 0.000000 0.087706 0.000000
# 6 0.000000 0.000000 0.000000 0.000000 0.000000 0.041918
#
#
# Mechanical properties :
#
#
# Convention : Reuss Voigt Hill
#
# Bulk Modulus (GPa) = 30.60841 54.73883 42.67362
# Shear Modulus (GPa) = 21.01961 31.19490 26.10726
#
# Velocity S-wave (km/s) = 3.09494 3.77035 3.44922
# Velocity P-wave (km/s) = 5.16912 6.62560 5.94215
#
# Compressibility (1/GPa) = 0.03267076
#
# Stress axis : x y z
#
# Youngs Moduli (GPa) = 44.36107 76.85734 185.10234
#
# Poissons Ratio (x) = -0.16415 0.84822
# Poissons Ratio (y) = -0.09475 0.31392
# Poissons Ratio (z) = 0.20328 0.13035
#
# Static dielectric constant tensor:
#      x y z
#    x 1.817380 0.000000 0.000000 
#    y 0.000000 1.925210 0.000000 
#    z 0.000000 0.000000 1.812560 
# 
# From -- ./inp_files/51515.got.cif
#   From: 2010.05.17/outbox.cif.g08.bks.cpg/sg68_26_cif.got.tgz:51515.got - 2010.06.03 18:57:09.
