data_PCOD9506923
_publ_section_title
;
Structure prediction by ZEFSAII (Michael W. Deem and Ramdas Pophale) SiO2 
 PCOD9506923
Probable space group: C C C A
;
_chemical_formula_sum "Si O2"
_cell_formula_units_Z 72
_cell_length_a 14.286807
_cell_length_b 12.979507
_cell_length_c 20.484969
_cell_angle_alpha 90.000000
_cell_angle_beta 90.000000
_cell_angle_gamma 90.000000
_cell_volume 3798.644801
_symmetry_space_group_name_H-M "C C C A"
_symmetry_group_IT_number 68
_space_group.IT_coordinate_system_code '2'
_symmetry_cell_setting 'orthorhombic'
loop_
_space_group_symop_operation_xyz
x,y,z
-x,1/2-y,z
x,1/2-y,1/2-z
-x,y,1/2-z
-x,-y,-z
x,1/2+y,-z
-x,1/2+y,1/2+z
x,-y,1/2+z
1/2+x,1/2+y,z
1/2-x,-y,z
1/2+x,-y,1/2-z
1/2-x,1/2+y,1/2-z
1/2-x,1/2-y,-z
1/2+x,y,-z
1/2-x,y,1/2+z
1/2+x,1/2-y,1/2+z
loop_
_atom_site_type_symbol
_atom_site_label
_atom_site_fract_x
_atom_site_fract_y
_atom_site_fract_z
Si Si1 0.500000 0.750000 0.037677
Si Si2 0.500000 0.590461 0.250000
Si Si3 0.639312 0.809610 0.350980
Si Si4 0.096742 0.940390 0.996906
Si Si5 0.750000 0.500000 0.102082
Si Si6 0.658992 0.065574 0.652590
O O1 0.570767 0.689828 0.085765
O O2 0.433342 0.678022 0.996380
O O3 0.428431 0.656163 0.293110
O O4 0.569193 0.536228 0.302494
O O5 0.671530 0.690720 0.342587
O O6 0.717724 0.897996 0.358681
O O7 0.165640 0.971646 0.053815
O O8 0.138308 0.954102 0.924109
O O9 0.000000 0.000000 0.000000
O O10 0.750000 0.000000 0.671789
#
# Coordination Sequence:
#
# PCOD9506923 Si02
#       6
#     8   8  16  16   8  16
#     4  10  20  37  60  88 118 167 198 238 316 352
#     4  12  21  44  66  87 124 159 214 254 295 374
#     4  11  22  39  63  91 119 163 206 250 300 365
#     4  11  21  38  58  88 128 154 198 248 303 359
#     4  12  24  38  64  96 124 158 210 252 302 374
#     4  11  23  38  64  94 119 162 204 254 306 357
#
# _framework density 18.954127
#
# number of rings (size 3 to 8) (size 9 to 14) (size 15 to 20)
#    0.000    0.889    7.778    1.333    1.556    5.333 
#    0.000    0.000    0.000    1.333    0.000    0.000 
#    0.000    0.000    0.000    0.000    0.000    0.000 
#
# Total GULP energy -200782.484081 kJ/mol
# GULP energy per Si atom -5577.291224 kJ/mol
# Density = 1.891099 g / cm^3
# Si number density = 18.954127 Si / 1000 Ang^3
#
#
#
# Elastic Constant Matrix: (Units=GPa)
#
#
# Indices 1 2 3 4 5 6 
#
# 1 126.9597 58.2367 42.5350 0.0000 0.0000 0.0000
# 2 58.2367 70.5995 38.9267 0.0000 0.0000 0.0000
# 3 42.5350 38.9267 58.6175 0.0000 0.0000 0.0000
# 4 0.0000 0.0000 0.0000 -57.9525 0.0000 0.0000
# 5 0.0000 0.0000 0.0000 0.0000 31.3420 0.0000
# 6 0.0000 0.0000 0.0000 0.0000 0.0000 44.6880
#
#
#
# Elastic Compliance Matrix: (Units=1/GPa)
#
#
# Indices 1 2 3 4 5 6 
#
# 1 0.013159 -0.008819 -0.003692 0.000000 0.000000 0.000000
# 2 -0.008819 0.028257 -0.012366 0.000000 0.000000 0.000000
# 3 -0.003692 -0.012366 0.027951 0.000000 0.000000 0.000000
# 4 0.000000 0.000000 0.000000 -0.017256 0.000000 0.000000
# 5 0.000000 0.000000 0.000000 0.000000 0.031906 0.000000
# 6 0.000000 0.000000 0.000000 0.000000 0.000000 0.022377
#
#
# Mechanical properties :
#
#
# Convention : Reuss Voigt Hill
#
# Bulk Modulus (GPa) = 50.98574 59.50814 55.24694
# Shear Modulus (GPa) = 30.73424 11.38071 21.05748
#
# Velocity S-wave (km/s) = 4.03116 2.45303 3.33674
# Velocity P-wave (km/s) = 6.97316 6.28388 6.63748
#
# Compressibility (1/GPa) = 0.01961333
#
# Stress axis : x y z
#
# Youngs Moduli (GPa) = 75.99591 35.38947 35.77726
#
# Poissons Ratio (x) = 0.31209 0.13209
# Poissons Ratio (y) = 0.67018 0.44241
# Poissons Ratio (z) = 0.28058 0.43762
#
# Static dielectric constant tensor:
#      x y z
#    x 1.647850 0.000000 0.000000 
#    y 0.000000 1.782400 0.000000 
#    z 0.000000 0.000000 1.700190 
# 
# From -- ./inp_files/30706.got.cif
#   From: 2010.05.17/outbox.cif.g08.bks.cpg/sg68_16_cif.got.tgz:30706.got - 2010.06.03 18:57:09.
