data_PCOD9506838
_publ_section_title
;
Structure prediction by ZEFSAII (Michael W. Deem and Ramdas Pophale) SiO2 
 PCOD9506838
Probable space group: C C C A
;
_chemical_formula_sum "Si O2"
_cell_formula_units_Z 88
_cell_length_a 11.444241
_cell_length_b 9.654474
_cell_length_c 37.669575
_cell_angle_alpha 90.000000
_cell_angle_beta 90.000000
_cell_angle_gamma 90.000000
_cell_volume 4162.040794
_symmetry_space_group_name_H-M "C C C A"
_symmetry_group_IT_number 68
_space_group.IT_coordinate_system_code '2'
_symmetry_cell_setting 'orthorhombic'
loop_
_space_group_symop_operation_xyz
x,y,z
-x,1/2-y,z
x,1/2-y,1/2-z
-x,y,1/2-z
-x,-y,-z
x,1/2+y,-z
-x,1/2+y,1/2+z
x,-y,1/2+z
1/2+x,1/2+y,z
1/2-x,-y,z
1/2+x,-y,1/2-z
1/2-x,1/2+y,1/2-z
1/2-x,1/2-y,-z
1/2+x,y,-z
1/2-x,y,1/2+z
1/2+x,1/2-y,1/2+z
loop_
_atom_site_type_symbol
_atom_site_label
_atom_site_fract_x
_atom_site_fract_y
_atom_site_fract_z
Si Si1 0.385753 0.973014 0.918270
Si Si2 0.000000 0.750000 0.949246
Si Si3 0.415430 0.878977 0.840159
Si Si4 0.124673 0.418309 0.504413
Si Si5 0.554439 0.958775 0.289102
Si Si6 0.266106 0.286043 0.290989
O O1 0.455060 0.116277 0.927280
O O2 0.250000 0.000000 0.912100
O O3 0.424533 0.905234 0.881812
O O4 0.385035 0.879946 0.954057
O O5 0.893434 0.798497 0.975254
O O6 0.500000 0.750000 0.832585
O O7 0.459406 0.011762 0.818802
O O8 0.298699 0.826505 0.820638
O O9 0.250000 0.500000 0.499704
O O10 0.000000 0.500000 0.500000
O O11 0.500000 0.970499 0.250000
O O12 0.650444 0.080312 0.295160
O O13 0.630288 0.822239 0.293204
O O14 0.289708 0.250000 0.250000
#
# Coordination Sequence:
#
# PCOD9506838 Si02
#       6
#    16   8  16  16  16  16
#     4  10  23  40  61  94 127 174 209 262 329 381
#     4  10  22  44  68  94 139 164 217 278 316 392
#     4  10  22  39  60  88 130 165 207 261 317 379
#     4   9  20  39  66 101 130 172 222 268 328 386
#     4  10  20  36  62  90 117 158 211 253 319 374
#     4  10  20  36  62  89 118 160 206 265 307 374
#
# _framework density 21.143474999999999
#
# number of rings (size 3 to 8) (size 9 to 14) (size 15 to 20)
#    0.000    2.182    1.818    0.000    1.273    9.818 
#    3.273    0.000    4.000    0.000    0.000    0.000 
#    0.000    0.000    0.000    0.000    0.000    0.000 
#
# Total GULP energy -245093.097390 kJ/mol
# GULP energy per Si atom -5570.297668 kJ/mol
# Density = 2.109535 g / cm^3
# Si number density = 21.143475 Si / 1000 Ang^3
#
#
#
# Elastic Constant Matrix: (Units=GPa)
#
#
# Indices 1 2 3 4 5 6 
#
# 1 108.2607 33.0775 35.5189 0.0000 0.0000 0.0000
# 2 33.0775 57.5286 35.3290 0.0000 0.0000 0.0000
# 3 35.5189 35.3290 114.0695 0.0000 0.0000 0.0000
# 4 0.0000 0.0000 0.0000 33.8714 0.0000 0.0000
# 5 0.0000 0.0000 0.0000 0.0000 -56.4817 0.0000
# 6 0.0000 0.0000 0.0000 0.0000 0.0000 16.9824
#
#
#
# Elastic Compliance Matrix: (Units=1/GPa)
#
#
# Indices 1 2 3 4 5 6 
#
# 1 0.011529 -0.005463 -0.001898 0.000000 0.000000 0.000000
# 2 -0.005463 0.024054 -0.005749 0.000000 0.000000 0.000000
# 3 -0.001898 -0.005749 0.011138 0.000000 0.000000 0.000000
# 4 0.000000 0.000000 0.000000 0.029523 0.000000 0.000000
# 5 0.000000 0.000000 0.000000 0.000000 -0.017705 0.000000
# 6 0.000000 0.000000 0.000000 0.000000 0.000000 0.058884
#
#
# Mechanical properties :
#
#
# Convention : Reuss Voigt Hill
#
# Bulk Modulus (GPa) = 48.77729 54.18995 51.48362
# Shear Modulus (GPa) = 33.22751 10.60334 21.91542
#
# Velocity S-wave (km/s) = 3.96855 2.24184 3.22298
# Velocity P-wave (km/s) = 6.64221 5.69090 6.18487
#
# Compressibility (1/GPa) = 0.02050134
#
# Stress axis : x y z
#
# Youngs Moduli (GPa) = 86.73904 41.57254 89.78272
#
# Poissons Ratio (x) = 0.22712 0.17039
# Poissons Ratio (y) = 0.47388 0.51614
# Poissons Ratio (z) = 0.16461 0.23899
#
# Static dielectric constant tensor:
#      x y z
#    x 1.754260 0.000000 0.000000 
#    y 0.000000 1.847650 0.000000 
#    z 0.000000 0.000000 1.823550 
# 
# From -- ./inp_files/54654.got.cif
#   From: 2010.05.17/outbox.cif.g08.bks.cpg/sg68_28_cif.got.tgz:54654.got - 2010.06.03 18:57:09.
