data_PCOD9506761
_publ_section_title
;
Structure prediction by ZEFSAII (Michael W. Deem and Ramdas Pophale) SiO2 
 PCOD9506761
Probable space group: C C C A
;
_chemical_formula_sum "Si O2"
_cell_formula_units_Z 104
_cell_length_a 16.882906
_cell_length_b 15.504768
_cell_length_c 21.251332
_cell_angle_alpha 90.000000
_cell_angle_beta 90.000000
_cell_angle_gamma 90.000000
_cell_volume 5562.866411
_symmetry_space_group_name_H-M "C C C A"
_symmetry_group_IT_number 68
_space_group.IT_coordinate_system_code '2'
_symmetry_cell_setting 'orthorhombic'
loop_
_space_group_symop_operation_xyz
x,y,z
-x,1/2-y,z
x,1/2-y,1/2-z
-x,y,1/2-z
-x,-y,-z
x,1/2+y,-z
-x,1/2+y,1/2+z
x,-y,1/2+z
1/2+x,1/2+y,z
1/2-x,-y,z
1/2+x,-y,1/2-z
1/2-x,1/2+y,1/2-z
1/2-x,1/2-y,-z
1/2+x,y,-z
1/2-x,y,1/2+z
1/2+x,1/2-y,1/2+z
loop_
_atom_site_type_symbol
_atom_site_label
_atom_site_fract_x
_atom_site_fract_y
_atom_site_fract_z
Si Si1 0.750000 0.000000 0.774484
Si Si2 0.090439 0.259801 0.175135
Si Si3 0.165536 0.184449 0.930536
Si Si4 0.674145 0.905129 0.381758
Si Si5 0.689791 0.361977 0.021348
Si Si6 0.089771 0.472416 0.502551
Si Si7 0.747920 0.828155 0.198694
O O1 0.682377 0.031857 0.822686
O O2 0.769481 0.082915 0.732923
O O3 0.081430 0.250000 0.250000
O O4 0.141390 0.183997 0.144332
O O5 0.156690 0.336029 0.172110
O O6 0.000000 0.250000 0.149688
O O7 0.139696 0.278403 0.956921
O O8 0.192078 0.189293 0.858355
O O9 0.245632 0.165737 0.969994
O O10 0.109746 0.103699 0.948032
O O11 0.758028 0.892155 0.418002
O O12 0.614789 0.936351 0.434709
O O13 0.642275 0.441233 0.992021
O O14 0.000000 0.500000 0.500000
O O15 0.750638 0.750000 0.250000
#
# Coordination Sequence:
#
# PCOD9506761 Si02
#       7
#     8  16  16  16  16  16  16
#     4  12  20  34  66  92 120 166 216 248 294 366
#     4  10  20  36  56  89 129 159 198 259 320 364
#     4  10  21  39  62  91 118 161 206 256 306 369
#     4  11  19  40  62  87 118 168 208 247 305 383
#     4  10  20  38  67  82 119 160 207 251 309 374
#     4  11  25  40  59  94 123 155 205 265 322 366
#     4  11  22  37  62  95 121 162 218 253 303 370
#
# _framework density 18.695397
#
# number of rings (size 3 to 8) (size 9 to 14) (size 15 to 20)
#    0.000    1.385    6.154    1.385    2.154    1.846 
#    0.000    0.000    0.000    0.000    0.000    0.000 
#    0.000    0.000    0.000    0.000    0.000    0.000 
#
# Total GULP energy -289630.996896 kJ/mol
# GULP energy per Si atom -5569.826863 kJ/mol
# Density = 1.865285 g / cm^3
# Si number density = 18.695397 Si / 1000 Ang^3
#
#
#
# Elastic Constant Matrix: (Units=GPa)
#
#
# Indices 1 2 3 4 5 6 
#
# 1 74.5331 28.9754 5.2822 0.0000 0.0000 0.0000
# 2 28.9754 113.4779 29.8422 0.0000 0.0000 0.0000
# 3 5.2822 29.8422 58.8698 0.0000 0.0000 0.0000
# 4 0.0000 0.0000 0.0000 26.8240 0.0000 0.0000
# 5 0.0000 0.0000 0.0000 0.0000 -14.2088 0.0000
# 6 0.0000 0.0000 0.0000 0.0000 0.0000 21.9621
#
#
#
# Elastic Compliance Matrix: (Units=1/GPa)
#
#
# Indices 1 2 3 4 5 6 
#
# 1 0.014919 -0.003989 0.000684 0.000000 0.000000 0.000000
# 2 -0.003989 0.011234 -0.005337 0.000000 0.000000 0.000000
# 3 0.000684 -0.005337 0.019631 0.000000 0.000000 0.000000
# 4 0.000000 0.000000 0.000000 0.037280 0.000000 0.000000
# 5 0.000000 0.000000 0.000000 0.000000 -0.070379 0.000000
# 6 0.000000 0.000000 0.000000 0.000000 0.000000 0.045533
#
#
# Mechanical properties :
#
#
# Convention : Reuss Voigt Hill
#
# Bulk Modulus (GPa) = 35.08886 41.67561 38.38223
# Shear Modulus (GPa) = 58.82091 19.10085 38.96088
#
# Velocity S-wave (km/s) = 5.61525 3.19985 4.57002
# Velocity P-wave (km/s) = 7.80070 5.99936 6.95857
#
# Compressibility (1/GPa) = 0.02849908
#
# Stress axis : x y z
#
# Youngs Moduli (GPa) = 67.02739 89.01222 50.94056
#
# Poissons Ratio (x) = 0.35509 -0.03482
# Poissons Ratio (y) = 0.26739 0.27187
# Poissons Ratio (z) = -0.04582 0.47506
#
# Static dielectric constant tensor:
#      x y z
#    x 1.666340 0.000000 0.000000 
#    y 0.000000 1.736240 0.000000 
#    z 0.000000 0.000000 1.665310 
# 
# From -- ./inp_files/39609.got.cif
#   From: 2010.05.17/outbox.cif.g08.bks.cpg/sg68_20_cif.got.tgz:39609.got - 2010.06.03 18:57:09.
