data_PCOD9506591
_publ_section_title
;
Structure prediction by ZEFSAII (Michael W. Deem and Ramdas Pophale) SiO2 
 PCOD9506591
Probable space group: C C C A
;
_chemical_formula_sum "Si O2"
_cell_formula_units_Z 80
_cell_length_a 7.759384
_cell_length_b 28.582207
_cell_length_c 14.118385
_cell_angle_alpha 90.000000
_cell_angle_beta 90.000000
_cell_angle_gamma 90.000000
_cell_volume 3131.179939
_symmetry_space_group_name_H-M "C C C A"
_symmetry_group_IT_number 68
_space_group.IT_coordinate_system_code '2'
_symmetry_cell_setting 'orthorhombic'
loop_
_space_group_symop_operation_xyz
x,y,z
-x,1/2-y,z
x,1/2-y,1/2-z
-x,y,1/2-z
-x,-y,-z
x,1/2+y,-z
-x,1/2+y,1/2+z
x,-y,1/2+z
1/2+x,1/2+y,z
1/2-x,-y,z
1/2+x,-y,1/2-z
1/2-x,1/2+y,1/2-z
1/2-x,1/2-y,-z
1/2+x,y,-z
1/2-x,y,1/2+z
1/2+x,1/2-y,1/2+z
loop_
_atom_site_type_symbol
_atom_site_label
_atom_site_fract_x
_atom_site_fract_y
_atom_site_fract_z
Si Si1 0.253663 0.711264 0.627519
Si Si2 0.173623 0.386449 0.650168
Si Si3 0.750000 0.000000 0.396006
Si Si4 0.500000 0.964614 0.750000
Si Si5 0.352337 0.693577 0.409694
Si Si6 0.820019 0.399723 0.538144
O O1 0.325798 0.666949 0.685499
O O2 0.336528 0.705269 0.522355
O O3 0.261572 0.766987 0.644778
O O4 0.048143 0.701348 0.621461
O O5 0.325250 0.390182 0.573899
O O6 0.155187 0.428673 0.723272
O O7 0.006487 0.395234 0.584588
O O8 0.922381 0.995565 0.332813
O O9 0.747235 0.951745 0.451990
O O10 0.285573 0.640831 0.407708
#
# Coordination Sequence:
#
# PCOD9506591 Si02
#       6
#    16  16   8   8  16  16
#     4   9  16  27  49  79 113 141 172 219 273 322
#     4  10  20  35  56  83 113 145 185 231 281 341
#     4  10  24  40  56  80 106 144 190 234 284 340
#     4  10  24  40  56  81 112 147 188 232 294 348
#     4   9  16  27  48  82 111 139 176 221 268 316
#     4  10  20  34  55  81 108 142 190 231 271 326
#
# _framework density 25.549472000000002
#
# number of rings (size 3 to 8) (size 9 to 14) (size 15 to 20)
#    0.000    2.400    0.000    4.800    0.000    9.600 
#    0.000    0.000    0.000    9.600    0.000   11.200 
#    0.000    0.000    0.000    0.000    0.000    0.000 
#
# Total GULP energy -223500.739092 kJ/mol
# GULP energy per Si atom -5587.518477 kJ/mol
# Density = 2.549132 g / cm^3
# Si number density = 25.549472 Si / 1000 Ang^3
#
#
#
# Elastic Constant Matrix: (Units=GPa)
#
#
# Indices 1 2 3 4 5 6 
#
# 1 49.8045 22.8115 -2.6577 0.0000 0.0000 0.0000
# 2 22.8115 223.0161 22.1807 0.0000 0.0000 0.0000
# 3 -2.6577 22.1807 41.2705 0.0000 0.0000 0.0000
# 4 0.0000 0.0000 0.0000 32.3710 0.0000 0.0000
# 5 0.0000 0.0000 0.0000 0.0000 27.2144 0.0000
# 6 0.0000 0.0000 0.0000 0.0000 0.0000 46.2961
#
#
#
# Elastic Compliance Matrix: (Units=1/GPa)
#
#
# Indices 1 2 3 4 5 6 
#
# 1 0.021345 -0.002451 0.002692 0.000000 0.000000 0.000000
# 2 -0.002451 0.005019 -0.002855 0.000000 0.000000 0.000000
# 3 0.002692 -0.002855 0.025938 0.000000 0.000000 0.000000
# 4 0.000000 0.000000 0.000000 0.030892 0.000000 0.000000
# 5 0.000000 0.000000 0.000000 0.000000 0.036745 0.000000
# 6 0.000000 0.000000 0.000000 0.000000 0.000000 0.021600
#
#
# Mechanical properties :
#
#
# Convention : Reuss Voigt Hill
#
# Bulk Modulus (GPa) = 21.24360 44.30669 32.77514
# Shear Modulus (GPa) = 30.77714 39.29343 35.03528
#
# Velocity S-wave (km/s) = 3.47451 3.92591 3.70709
# Velocity P-wave (km/s) = 4.94258 6.15869 5.58384
#
# Compressibility (1/GPa) = 0.04707300
#
# Stress axis : x y z
#
# Youngs Moduli (GPa) = 46.84991 199.25696 38.55323
#
# Poissons Ratio (x) = 0.48838 -0.10378
# Poissons Ratio (y) = 0.11483 0.11007
# Poissons Ratio (z) = -0.12611 0.56890
#
# Static dielectric constant tensor:
#      x y z
#    x 2.037400 0.000000 0.000000 
#    y 0.000000 2.027270 0.000000 
#    z 0.000000 0.000000 2.092510 
# 
# From -- ./inp_files/28376.got.cif
#   From: 2010.05.17/outbox.cif.g08.bks.cpg/sg68_15_cif.got.tgz:28376.got - 2010.06.03 18:57:09.
