data_PCOD9506649
_publ_section_title
;
Structure prediction by ZEFSAII (Michael W. Deem and Ramdas Pophale) SiO2 
 PCOD9506649
Probable space group: C C C A
;
_chemical_formula_sum "Si O2"
_cell_formula_units_Z 120
_cell_length_a 27.296418
_cell_length_b 27.301591
_cell_length_c 9.337275
_cell_angle_alpha 90.000000
_cell_angle_beta 90.000000
_cell_angle_gamma 90.000000
_cell_volume 6958.470110
_symmetry_space_group_name_H-M "C C C A"
_symmetry_group_IT_number 68
_space_group.IT_coordinate_system_code '2'
_symmetry_cell_setting 'orthorhombic'
loop_
_space_group_symop_operation_xyz
x,y,z
-x,1/2-y,z
x,1/2-y,1/2-z
-x,y,1/2-z
-x,-y,-z
x,1/2+y,-z
-x,1/2+y,1/2+z
x,-y,1/2+z
1/2+x,1/2+y,z
1/2-x,-y,z
1/2+x,-y,1/2-z
1/2-x,1/2+y,1/2-z
1/2-x,1/2-y,-z
1/2+x,y,-z
1/2-x,y,1/2+z
1/2+x,1/2-y,1/2+z
loop_
_atom_site_type_symbol
_atom_site_label
_atom_site_fract_x
_atom_site_fract_y
_atom_site_fract_z
Si Si1 0.201595 0.439348 0.749825
Si Si2 0.660295 0.978179 0.048017
Si Si3 0.688865 0.101653 0.757711
Si Si4 0.500000 0.492135 0.750000
Si Si5 0.286638 0.206665 0.865872
Si Si6 0.935973 0.457233 0.993058
Si Si7 0.362090 0.124399 0.444252
Si Si8 0.324746 0.226730 0.404565
O O1 0.185727 0.459423 0.904026
O O2 0.192173 0.481594 0.632958
O O3 0.257170 0.421861 0.756159
O O4 0.166380 0.395463 0.696113
O O5 0.609628 0.004604 0.006872
O O6 0.655483 0.932940 0.158117
O O7 0.694649 0.155810 0.694210
O O8 0.668670 0.106722 0.917270
O O9 0.469472 0.525355 0.639024
O O10 0.464674 0.461399 0.856467
O O11 0.285724 0.250000 0.750000
O O12 0.229965 0.202355 0.915198
O O13 0.321090 0.227610 0.989150
O O14 0.913074 0.404147 0.960501
O O15 0.361706 0.183091 0.440693
O O16 0.332250 0.250000 0.250000
#
# Coordination Sequence:
#
# PCOD9506649 Si02
#       8
#    16  16  16   8  16  16  16  16
#     4  11  23  35  48  74 111 163 195 222 262 311
#     4  11  23  36  52  77 116 143 193 231 271 326
#     4  12  22  33  52  74 113 163 195 225 263 308
#     4  10  20  40  64  80 109 137 170 220 306 368
#     4  10  20  35  49  73 107 158 204 225 262 297
#     4  10  21  38  59  84 109 138 172 230 285 352
#     4  11  21  36  55  81 114 142 192 236 269 317
#     4  10  21  33  53  74 111 150 192 240 262 303
#
# _framework density 17.245169000000001
#
# number of rings (size 3 to 8) (size 9 to 14) (size 15 to 20)
#    0.000    1.333    2.667    5.200    1.867    2.133 
#    0.000    0.000    0.000    0.000    0.000    0.467 
#    0.000    0.000    0.000    0.000    0.000    0.000 
#
# Total GULP energy -335158.005881 kJ/mol
# GULP energy per Si atom -5585.966765 kJ/mol
# Density = 1.720592 g / cm^3
# Si number density = 17.245169 Si / 1000 Ang^3
#
#
#
# Elastic Constant Matrix: (Units=GPa)
#
#
# Indices 1 2 3 4 5 6 
#
# 1 62.1391 31.8310 26.6660 0.0000 0.0000 0.0000
# 2 31.8310 98.4339 30.8516 0.0000 0.0000 0.0000
# 3 26.6660 30.8516 106.2723 0.0000 0.0000 0.0000
# 4 0.0000 0.0000 0.0000 28.6619 0.0000 0.0000
# 5 0.0000 0.0000 0.0000 0.0000 -40.0701 0.0000
# 6 0.0000 0.0000 0.0000 0.0000 0.0000 4.5157
#
#
#
# Elastic Compliance Matrix: (Units=1/GPa)
#
#
# Indices 1 2 3 4 5 6 
#
# 1 0.020424 -0.005499 -0.003528 0.000000 0.000000 0.000000
# 2 -0.005499 0.012656 -0.002295 0.000000 0.000000 0.000000
# 3 -0.003528 -0.002295 0.010961 0.000000 0.000000 0.000000
# 4 0.000000 0.000000 0.000000 0.034890 0.000000 0.000000
# 5 0.000000 0.000000 0.000000 0.000000 -0.024956 0.000000
# 6 0.000000 0.000000 0.000000 0.000000 0.000000 0.221450
#
#
# Mechanical properties :
#
#
# Convention : Reuss Voigt Hill
#
# Bulk Modulus (GPa) = 46.73288 49.50473 48.11880
# Shear Modulus (GPa) = 16.38267 10.45460 13.41863
#
# Velocity S-wave (km/s) = 3.08553 2.46485 2.79249
# Velocity P-wave (km/s) = 6.31284 6.07202 6.19360
#
# Compressibility (1/GPa) = 0.02139821
#
# Stress axis : x y z
#
# Youngs Moduli (GPa) = 48.96250 79.01155 91.23031
#
# Poissons Ratio (x) = 0.43446 0.32190
# Poissons Ratio (y) = 0.26923 0.20933
# Poissons Ratio (z) = 0.17276 0.18129
#
# Static dielectric constant tensor:
#      x y z
#    x 1.582070 0.000000 0.000000 
#    y 0.000000 1.594670 0.000000 
#    z 0.000000 0.000000 1.645510 
# 
# From -- ./inp_files/9218.got.cif
#   From: 2010.05.17/outbox.cif.g08.bks.cpg/sg68_5_cif.got.tgz:9218.got - 2010.06.03 18:57:09.
