data_PCOD9506926
_publ_section_title
;
Structure prediction by ZEFSAII (Michael W. Deem and Ramdas Pophale) SiO2 
 PCOD9506926
Probable space group: C C C A
;
_chemical_formula_sum "Si O2"
_cell_formula_units_Z 80
_cell_length_a 15.455413
_cell_length_b 10.708290
_cell_length_c 23.300509
_cell_angle_alpha 90.000000
_cell_angle_beta 90.000000
_cell_angle_gamma 90.000000
_cell_volume 3856.258576
_symmetry_space_group_name_H-M "C C C A"
_symmetry_group_IT_number 68
_space_group.IT_coordinate_system_code '2'
_symmetry_cell_setting 'orthorhombic'
loop_
_space_group_symop_operation_xyz
x,y,z
-x,1/2-y,z
x,1/2-y,1/2-z
-x,y,1/2-z
-x,-y,-z
x,1/2+y,-z
-x,1/2+y,1/2+z
x,-y,1/2+z
1/2+x,1/2+y,z
1/2-x,-y,z
1/2+x,-y,1/2-z
1/2-x,1/2+y,1/2-z
1/2-x,1/2-y,-z
1/2+x,y,-z
1/2-x,y,1/2+z
1/2+x,1/2-y,1/2+z
loop_
_atom_site_type_symbol
_atom_site_label
_atom_site_fract_x
_atom_site_fract_y
_atom_site_fract_z
Si Si1 0.366697 0.925123 0.887119
Si Si2 0.750000 0.000000 0.024084
Si Si3 0.025272 0.614155 0.459388
Si Si4 0.218389 0.829971 0.074610
Si Si5 0.602491 0.098995 0.243240
Si Si6 0.750000 0.000000 0.325806
O O1 0.329972 0.025594 0.932524
O O2 0.464777 0.895689 0.903504
O O3 0.308118 0.807889 0.906357
O O4 0.364156 0.942902 0.819637
O O5 0.731815 0.117986 0.981654
O O6 0.123921 0.611219 0.439556
O O7 0.000000 0.750000 0.485411
O O8 0.000000 0.500000 0.500000
O O9 0.264646 0.887083 0.129924
O O10 0.611243 0.250000 0.250000
O O11 0.500000 0.070460 0.250000
O O12 0.665983 0.033689 0.288650
#
# Coordination Sequence:
#
# PCOD9506926 Si02
#       6
#    16   8  16  16  16   8
#     4  11  21  37  59  86 123 158 209 257 320 379
#     4  11  21  34  56  88 123 153 198 248 320 383
#     4  10  20  37  60  88 125 165 210 262 323 390
#     4  10  21  36  58  89 121 163 204 255 321 388
#     4  11  23  40  65  93 118 161 221 269 319 382
#     4  11  21  40  62  90 123 163 212 270 322 383
#
# _framework density 20.745497
#
# number of rings (size 3 to 8) (size 9 to 14) (size 15 to 20)
#    0.000    1.400    4.000    2.400    5.600    0.000 
#    0.000    0.000    0.000    0.600    0.000    0.000 
#    0.000    0.000    0.000    0.000    0.000    0.000 
#
# Total GULP energy -222949.106562 kJ/mol
# GULP energy per Si atom -5573.727664 kJ/mol
# Density = 2.069828 g / cm^3
# Si number density = 20.745497 Si / 1000 Ang^3
#
#
#
# Elastic Constant Matrix: (Units=GPa)
#
#
# Indices 1 2 3 4 5 6 
#
# 1 108.7563 22.6123 44.3683 0.0000 0.0000 0.0000
# 2 22.6123 60.7972 27.6534 0.0000 0.0000 0.0000
# 3 44.3683 27.6534 175.6774 0.0000 0.0000 0.0000
# 4 0.0000 0.0000 0.0000 16.3116 0.0000 0.0000
# 5 0.0000 0.0000 0.0000 0.0000 32.9503 0.0000
# 6 0.0000 0.0000 0.0000 0.0000 0.0000 28.6285
#
#
#
# Elastic Compliance Matrix: (Units=1/GPa)
#
#
# Indices 1 2 3 4 5 6 
#
# 1 0.010727 -0.002970 -0.002242 0.000000 0.000000 0.000000
# 2 -0.002970 0.018539 -0.002168 0.000000 0.000000 0.000000
# 3 -0.002242 -0.002168 0.006600 0.000000 0.000000 0.000000
# 4 0.000000 0.000000 0.000000 0.061306 0.000000 0.000000
# 5 0.000000 0.000000 0.000000 0.000000 0.030349 0.000000
# 6 0.000000 0.000000 0.000000 0.000000 0.000000 0.034930
#
#
# Mechanical properties :
#
#
# Convention : Reuss Voigt Hill
#
# Bulk Modulus (GPa) = 47.38007 59.38876 53.38442
# Shear Modulus (GPa) = 27.13772 32.28455 29.71113
#
# Velocity S-wave (km/s) = 3.62073 3.94917 3.78851
# Velocity P-wave (km/s) = 6.35357 7.03449 6.70268
#
# Compressibility (1/GPa) = 0.02110592
#
# Stress axis : x y z
#
# Youngs Moduli (GPa) = 93.22365 53.94053 151.52281
#
# Poissons Ratio (x) = 0.16021 0.33966
# Poissons Ratio (y) = 0.27688 0.32852
# Poissons Ratio (z) = 0.20897 0.11695
#
# Static dielectric constant tensor:
#      x y z
#    x 1.784600 0.000000 0.000000 
#    y 0.000000 1.907540 0.000000 
#    z 0.000000 0.000000 1.775510 
# 
# From -- ./inp_files/45228.got.cif
#   From: 2010.05.17/outbox.cif.g08.bks.cpg/sg68_23_cif.got.tgz:45228.got - 2010.06.03 18:57:09.
