data_PCOD9506911
_publ_section_title
;
Structure prediction by ZEFSAII (Michael W. Deem and Ramdas Pophale) SiO2 
 PCOD9506911
Probable space group: C C C A
;
_chemical_formula_sum "Si O2"
_cell_formula_units_Z 96
_cell_length_a 14.714877
_cell_length_b 20.598389
_cell_length_c 17.039089
_cell_angle_alpha 90.000000
_cell_angle_beta 90.000000
_cell_angle_gamma 90.000000
_cell_volume 5164.594913
_symmetry_space_group_name_H-M "C C C A"
_symmetry_group_IT_number 68
_space_group.IT_coordinate_system_code '2'
_symmetry_cell_setting 'orthorhombic'
loop_
_space_group_symop_operation_xyz
x,y,z
-x,1/2-y,z
x,1/2-y,1/2-z
-x,y,1/2-z
-x,-y,-z
x,1/2+y,-z
-x,1/2+y,1/2+z
x,-y,1/2+z
1/2+x,1/2+y,z
1/2-x,-y,z
1/2+x,-y,1/2-z
1/2-x,1/2+y,1/2-z
1/2-x,1/2-y,-z
1/2+x,y,-z
1/2-x,y,1/2+z
1/2+x,1/2-y,1/2+z
loop_
_atom_site_type_symbol
_atom_site_label
_atom_site_fract_x
_atom_site_fract_y
_atom_site_fract_z
Si Si1 0.603062 0.635737 0.743700
Si Si2 0.762327 0.250000 0.750000
Si Si3 0.813087 0.241055 0.079861
Si Si4 0.062433 0.887542 0.070709
Si Si5 0.810564 0.910610 0.571817
Si Si6 0.000000 0.750000 0.999789
Si Si7 0.383356 0.459465 0.115770
O O1 0.500000 0.661258 0.750000
O O2 0.673070 0.689678 0.770026
O O3 0.611646 0.617169 0.653791
O O4 0.613071 0.574295 0.799722
O O5 0.714648 0.232236 0.833765
O O6 0.817972 0.163924 0.096066
O O7 0.911805 0.265335 0.052653
O O8 0.750000 0.250000 0.000000
O O9 0.976130 0.935596 0.075320
O O10 0.136676 0.912142 0.010004
O O11 0.026632 0.814811 0.048565
O O12 0.705103 0.930871 0.571154
O O13 0.864189 0.964183 0.622581
#
# Coordination Sequence:
#
# PCOD9506911 Si02
#       7
#    16   8  16  16  16   8  16
#     4  10  22  34  59  90 120 150 203 264 319 359
#     4  12  21  37  62  88 126 158 204 258 318 376
#     4  11  23  39  64  92 123 162 206 254 315 373
#     4  10  21  36  61  90 116 159 206 258 306 374
#     4  10  20  38  59  81 122 161 191 244 309 368
#     4  10  22  37  61  92 128 150 206 257 312 369
#     4  10  20  37  59  83 120 158 196 246 313 365
#
# _framework density 18.588097999999999
#
# number of rings (size 3 to 8) (size 9 to 14) (size 15 to 20)
#    0.000    1.667    1.667    3.750    7.000    0.333 
#    0.000    3.333   25.667    0.000    0.000    0.000 
#    0.000    0.000    0.000    0.000    0.000    0.000 
#
# Total GULP energy -267428.214986 kJ/mol
# GULP energy per Si atom -5571.421146 kJ/mol
# Density = 1.854579 g / cm^3
# Si number density = 18.588098 Si / 1000 Ang^3
#
#
#
# Elastic Constant Matrix: (Units=GPa)
#
#
# Indices 1 2 3 4 5 6 
#
# 1 93.5094 11.4914 55.5010 0.0000 0.0000 0.0000
# 2 11.4914 64.8782 21.5499 0.0000 0.0000 0.0000
# 3 55.5010 21.5499 120.3179 0.0000 0.0000 0.0000
# 4 0.0000 0.0000 0.0000 1.5338 0.0000 0.0000
# 5 0.0000 0.0000 0.0000 0.0000 -21.0084 0.0000
# 6 0.0000 0.0000 0.0000 0.0000 0.0000 13.8702
#
#
#
# Elastic Compliance Matrix: (Units=1/GPa)
#
#
# Indices 1 2 3 4 5 6 
#
# 1 0.014734 -0.000374 -0.006730 0.000000 0.000000 0.000000
# 2 -0.000374 0.016398 -0.002764 0.000000 0.000000 0.000000
# 3 -0.006730 -0.002764 0.011911 0.000000 0.000000 0.000000
# 4 0.000000 0.000000 0.000000 0.651958 0.000000 0.000000
# 5 0.000000 0.000000 0.000000 0.000000 -0.047600 0.000000
# 6 0.000000 0.000000 0.000000 0.000000 0.000000 0.072097
#
#
# Mechanical properties :
#
#
# Convention : Reuss Voigt Hill
#
# Bulk Modulus (GPa) = 42.90691 50.64334 46.77513
# Shear Modulus (GPa) = 6.69341 11.55669 9.12505
#
# Velocity S-wave (km/s) = 1.89967 2.49615 2.21805
# Velocity P-wave (km/s) = 5.28628 5.96757 5.63722
#
# Compressibility (1/GPa) = 0.02330627
#
# Stress axis : x y z
#
# Youngs Moduli (GPa) = 67.86818 60.98300 83.95773
#
# Poissons Ratio (x) = 0.02284 0.56501
# Poissons Ratio (y) = 0.02541 0.23208
# Poissons Ratio (z) = 0.45673 0.16857
#
# Static dielectric constant tensor:
#      x y z
#    x 1.655200 0.000000 0.000000 
#    y 0.000000 1.678000 0.000000 
#    z 0.000000 0.000000 1.707170 
# 
# From -- ./inp_files/22438.got.cif
#   From: 2010.05.17/outbox.cif.g08.bks.cpg/sg68_12_cif.got.tgz:22438.got - 2010.06.03 18:57:09.
