data_PCOD9506476
_publ_section_title
;
Structure prediction by ZEFSAII (Michael W. Deem and Ramdas Pophale) SiO2 
 PCOD9506476
Probable space group: C C C A
;
_chemical_formula_sum "Si O2"
_cell_formula_units_Z 96
_cell_length_a 18.284639
_cell_length_b 24.972967
_cell_length_c 10.749657
_cell_angle_alpha 90.000000
_cell_angle_beta 90.000000
_cell_angle_gamma 90.000000
_cell_volume 4908.526507
_symmetry_space_group_name_H-M "C C C A"
_symmetry_group_IT_number 68
_space_group.IT_coordinate_system_code '2'
_symmetry_cell_setting 'orthorhombic'
loop_
_space_group_symop_operation_xyz
x,y,z
-x,1/2-y,z
x,1/2-y,1/2-z
-x,y,1/2-z
-x,-y,-z
x,1/2+y,-z
-x,1/2+y,1/2+z
x,-y,1/2+z
1/2+x,1/2+y,z
1/2-x,-y,z
1/2+x,-y,1/2-z
1/2-x,1/2+y,1/2-z
1/2-x,1/2-y,-z
1/2+x,y,-z
1/2-x,y,1/2+z
1/2+x,1/2-y,1/2+z
loop_
_atom_site_type_symbol
_atom_site_label
_atom_site_fract_x
_atom_site_fract_y
_atom_site_fract_z
Si Si1 0.316802 0.035867 0.834756
Si Si2 0.307249 0.616064 0.384286
Si Si3 0.050269 0.440757 0.870235
Si Si4 0.346289 0.135450 0.015282
Si Si5 0.906288 0.039030 0.516632
Si Si6 0.415969 0.187383 0.780974
O O1 0.293458 0.065124 0.707409
O O2 0.331876 0.084713 0.926283
O O3 0.250000 0.000000 0.878891
O O4 0.383994 0.995300 0.861373
O O5 0.233700 0.646225 0.426974
O O6 0.351258 0.587835 0.496031
O O7 0.361631 0.654470 0.308643
O O8 0.000000 0.440432 0.750000
O O9 0.988408 0.438763 0.978526
O O10 0.101662 0.389210 0.878779
O O11 0.093518 0.495216 0.905177
O O12 0.388295 0.176132 0.922904
O O13 0.410792 0.250000 0.750000
O O14 0.500000 0.170606 0.750000
#
# Coordination Sequence:
#
# PCOD9506476 Si02
#       6
#    16  16  16  16  16  16
#     4  10  20  31  51  79 122 158 198 229 287 350
#     4  11  22  34  60  84 118 152 193 253 294 354
#     4  10  21  32  50  78 121 160 195 236 284 354
#     4  10  22  37  56  92 114 153 207 250 304 368
#     4  10  20  34  49  76 116 165 201 227 278 353
#     4  10  23  45  67  86 113 155 206 263 323 379
#
# _framework density 19.557804000000001
#
# number of rings (size 3 to 8) (size 9 to 14) (size 15 to 20)
#    0.000    1.833    1.667    2.000    7.000    4.000 
#    0.000    0.000    0.000    0.000    0.000    1.167 
#    0.000    0.000    0.000    0.000    0.000    0.000 
#
# Total GULP energy -267274.810270 kJ/mol
# GULP energy per Si atom -5568.225214 kJ/mol
# Density = 1.951329 g / cm^3
# Si number density = 19.557804 Si / 1000 Ang^3
#
#
#
# Elastic Constant Matrix: (Units=GPa)
#
#
# Indices 1 2 3 4 5 6 
#
# 1 135.1398 39.0762 34.4473 0.0000 0.0000 0.0000
# 2 39.0762 56.2466 15.6289 0.0000 0.0000 0.0000
# 3 34.4473 15.6289 61.4543 0.0000 0.0000 0.0000
# 4 0.0000 0.0000 0.0000 -6.6232 0.0000 0.0000
# 5 0.0000 0.0000 0.0000 0.0000 29.0735 0.0000
# 6 0.0000 0.0000 0.0000 0.0000 0.0000 22.2555
#
#
#
# Elastic Compliance Matrix: (Units=1/GPa)
#
#
# Indices 1 2 3 4 5 6 
#
# 1 0.010178 -0.005903 -0.004204 0.000000 0.000000 0.000000
# 2 -0.005903 0.022554 -0.002427 0.000000 0.000000 0.000000
# 3 -0.004204 -0.002427 0.019246 0.000000 0.000000 0.000000
# 4 0.000000 0.000000 0.000000 -0.150983 0.000000 0.000000
# 5 0.000000 0.000000 0.000000 0.000000 0.034396 0.000000
# 6 0.000000 0.000000 0.000000 0.000000 0.000000 0.044933
#
#
# Mechanical properties :
#
#
# Convention : Reuss Voigt Hill
#
# Bulk Modulus (GPa) = 37.16056 47.90505 42.53280
# Shear Modulus (GPa) = 348.14838 19.85370 184.00104
#
# Velocity S-wave (km/s) = 13.35651 3.18957 9.71004
# Velocity P-wave (km/s) = 16.02821 6.17347 12.14527
#
# Compressibility (1/GPa) = 0.02691025
#
# Stress axis : x y z
#
# Youngs Moduli (GPa) = 98.24903 44.33754 51.95884
#
# Poissons Ratio (x) = 0.26172 0.21844
# Poissons Ratio (y) = 0.57996 0.12611
# Poissons Ratio (z) = 0.41304 0.10761
#
# Static dielectric constant tensor:
#      x y z
#    x 1.775930 0.000000 0.000000 
#    y 0.000000 1.663190 0.000000 
#    z 0.000000 0.000000 1.790510 
# 
# From -- ./inp_files/14623.got.cif
#   From: 2010.05.17/outbox.cif.g08.bks.cpg/sg68_8_cif.got.tgz:14623.got - 2010.06.03 18:57:09.
