data_PCOD9506992
_publ_section_title
;
Structure prediction by ZEFSAII (Michael W. Deem and Ramdas Pophale) SiO2 
 PCOD9506992
Probable space group: C C C A
;
_chemical_formula_sum "Si O2"
_cell_formula_units_Z 72
_cell_length_a 10.305945
_cell_length_b 14.028666
_cell_length_c 24.471405
_cell_angle_alpha 90.000000
_cell_angle_beta 90.000000
_cell_angle_gamma 90.000000
_cell_volume 3538.042949
_symmetry_space_group_name_H-M "C C C A"
_symmetry_group_IT_number 68
_space_group.IT_coordinate_system_code '2'
_symmetry_cell_setting 'orthorhombic'
loop_
_space_group_symop_operation_xyz
x,y,z
-x,1/2-y,z
x,1/2-y,1/2-z
-x,y,1/2-z
-x,-y,-z
x,1/2+y,-z
-x,1/2+y,1/2+z
x,-y,1/2+z
1/2+x,1/2+y,z
1/2-x,-y,z
1/2+x,-y,1/2-z
1/2-x,1/2+y,1/2-z
1/2-x,1/2-y,-z
1/2+x,y,-z
1/2-x,y,1/2+z
1/2+x,1/2-y,1/2+z
loop_
_atom_site_type_symbol
_atom_site_label
_atom_site_fract_x
_atom_site_fract_y
_atom_site_fract_z
Si Si1 0.874033 0.069266 0.219343
Si Si2 0.775231 0.750000 0.250000
Si Si3 0.000000 0.750000 0.517357
Si Si4 0.074718 0.101964 0.925236
Si Si5 0.121125 0.103585 0.404828
Si Si6 0.000000 0.250000 0.660895
O O1 0.817342 0.158895 0.252053
O O2 0.915018 0.103904 0.158929
O O3 0.000000 0.027140 0.250000
O O4 0.750000 0.000000 0.213809
O O5 0.872474 0.744040 0.301559
O O6 0.059439 0.831462 0.478142
O O7 0.093214 0.694740 0.558420
O O8 0.223665 0.098493 0.906725
O O9 0.996117 0.156901 0.877846
O O10 0.048335 0.989296 0.930243
#
# Coordination Sequence:
#
# PCOD9506992 Si02
#       6
#    16   8   8  16  16   8
#     4  12  27  44  70  98 140 177 220 276 341 401
#     4  11  23  40  66  98 134 174 226 274 330 400
#     4  11  24  37  69  93 125 170 235 272 342 392
#     4  10  21  42  63  92 129 177 219 274 338 393
#     4  11  22  42  64  93 136 172 216 287 330 396
#     4  10  20  37  70  96 129 180 228 266 332 414
#
# _framework density 20.350232999999999
#
# number of rings (size 3 to 8) (size 9 to 14) (size 15 to 20)
#    0.000    1.111    4.444    1.667    9.333    0.000 
#    0.000    0.000    4.889    0.000    0.000    0.000 
#    0.000    0.000    0.000    0.000    0.000    0.000 
#
# Total GULP energy -200849.776955 kJ/mol
# GULP energy per Si atom -5579.160471 kJ/mol
# Density = 2.030392 g / cm^3
# Si number density = 20.350233 Si / 1000 Ang^3
#
#
#
# Elastic Constant Matrix: (Units=GPa)
#
#
# Indices 1 2 3 4 5 6 
#
# 1 61.2069 8.4945 29.3542 0.0000 0.0000 0.0000
# 2 8.4945 44.9864 2.9417 0.0000 0.0000 0.0000
# 3 29.3542 2.9417 103.5653 0.0000 0.0000 0.0000
# 4 0.0000 0.0000 0.0000 27.3905 0.0000 0.0000
# 5 0.0000 0.0000 0.0000 0.0000 16.7178 0.0000
# 6 0.0000 0.0000 0.0000 0.0000 0.0000 28.5327
#
#
#
# Elastic Compliance Matrix: (Units=1/GPa)
#
#
# Indices 1 2 3 4 5 6 
#
# 1 0.019387 -0.003308 -0.005401 0.000000 0.000000 0.000000
# 2 -0.003308 0.022835 0.000289 0.000000 0.000000 0.000000
# 3 -0.005401 0.000289 0.011178 0.000000 0.000000 0.000000
# 4 0.000000 0.000000 0.000000 0.036509 0.000000 0.000000
# 5 0.000000 0.000000 0.000000 0.000000 0.059817 0.000000
# 6 0.000000 0.000000 0.000000 0.000000 0.000000 0.035048
#
#
# Mechanical properties :
#
#
# Convention : Reuss Voigt Hill
#
# Bulk Modulus (GPa) = 27.35176 32.37104 29.86140
# Shear Modulus (GPa) = 23.38631 25.79273 24.58952
#
# Velocity S-wave (km/s) = 3.39365 3.56398 3.47986
# Velocity P-wave (km/s) = 5.36894 5.73388 5.55441
#
# Compressibility (1/GPa) = 0.03656071
#
# Stress axis : x y z
#
# Youngs Moduli (GPa) = 51.57985 43.79314 89.45812
#
# Poissons Ratio (x) = 0.14485 0.48318
# Poissons Ratio (y) = 0.17061 -0.02584
# Poissons Ratio (z) = 0.27859 -0.01265
#
# Static dielectric constant tensor:
#      x y z
#    x 1.725170 0.000000 0.000000 
#    y 0.000000 1.796200 0.000000 
#    z 0.000000 0.000000 1.727960 
# 
# From -- ./inp_files/45107.got.cif
#   From: 2010.05.17/outbox.cif.g08.bks.cpg/sg68_23_cif.got.tgz:45107.got - 2010.06.03 18:57:09.
