data_PCOD9506293
_publ_section_title
;
Structure prediction by ZEFSAII (Michael W. Deem and Ramdas Pophale) SiO2 
 PCOD9506293
Probable space group: C C C A
;
_chemical_formula_sum "Si O2"
_cell_formula_units_Z 68
_cell_length_a 19.562440
_cell_length_b 26.590406
_cell_length_c 5.614419
_cell_angle_alpha 90.000000
_cell_angle_beta 90.000000
_cell_angle_gamma 90.000000
_cell_volume 2920.470421
_symmetry_space_group_name_H-M "C C C A"
_symmetry_group_IT_number 68
_space_group.IT_coordinate_system_code '2'
_symmetry_cell_setting 'orthorhombic'
loop_
_space_group_symop_operation_xyz
x,y,z
-x,1/2-y,z
x,1/2-y,1/2-z
-x,y,1/2-z
-x,-y,-z
x,1/2+y,-z
-x,1/2+y,1/2+z
x,-y,1/2+z
1/2+x,1/2+y,z
1/2-x,-y,z
1/2+x,-y,1/2-z
1/2-x,1/2+y,1/2-z
1/2-x,1/2-y,-z
1/2+x,y,-z
1/2-x,y,1/2+z
1/2+x,1/2-y,1/2+z
loop_
_atom_site_type_symbol
_atom_site_label
_atom_site_fract_x
_atom_site_fract_y
_atom_site_fract_z
Si Si1 0.431140 0.694080 0.641234
Si Si2 0.631613 0.061973 0.241506
Si Si3 0.920173 0.049823 0.242000
Si Si4 0.000000 0.250000 0.250000
Si Si5 0.715875 0.648072 0.765449
O O1 0.426980 0.750000 0.750000
O O2 0.500000 0.669811 0.750000
O O3 0.449166 0.709954 0.374570
O O4 0.360857 0.668051 0.701445
O O5 0.596979 0.077021 0.494102
O O6 0.705656 0.087470 0.238512
O O7 0.623571 0.001702 0.241148
O O8 0.596565 0.077256 0.989587
O O9 0.000000 0.035844 0.250000
O O10 0.744719 0.663285 0.506997
#
# Coordination Sequence:
#
# PCOD9506293 Si02
#       5
#    16  16  16   4  16
#     4   9  22  43  72 100 129 169 218 274 330 388
#     4  10  20  38  57  88 125 168 212 267 317 375
#     4  10  19  36  64  92 125 165 224 275 326 385
#     4   8  18  44  72  98 132 152 228 264 342 376
#     4  12  28  45  63  97 141 177 220 265 325 402
#
# _framework density 23.283918
#
# number of rings (size 3 to 8) (size 9 to 14) (size 15 to 20)
#    0.000    2.118    0.000    4.941    6.588    3.765 
#    2.118   14.118    0.000    0.000    0.000    0.000 
#    0.000    0.000    0.000    0.000    0.000    0.000 
#
# Total GULP energy -189415.957728 kJ/mol
# GULP energy per Si atom -5571.057580 kJ/mol
# Density = 2.323092 g / cm^3
# Si number density = 23.283918 Si / 1000 Ang^3
#
#
#
# Elastic Constant Matrix: (Units=GPa)
#
#
# Indices 1 2 3 4 5 6 
#
# 1 108.5859 31.7650 57.9445 0.0000 0.0000 0.0000
# 2 31.7650 33.1567 13.6113 0.0000 0.0000 0.0000
# 3 57.9445 13.6113 214.8447 0.0000 0.0000 0.0000
# 4 0.0000 0.0000 0.0000 31.2976 0.0000 0.0000
# 5 0.0000 0.0000 0.0000 0.0000 74.1057 0.0000
# 6 0.0000 0.0000 0.0000 0.0000 0.0000 90.9656
#
#
#
# Elastic Compliance Matrix: (Units=1/GPa)
#
#
# Indices 1 2 3 4 5 6 
#
# 1 0.014595 -0.012696 -0.003132 0.000000 0.000000 0.000000
# 2 -0.012696 0.042010 0.000763 0.000000 0.000000 0.000000
# 3 -0.003132 0.000763 0.005451 0.000000 0.000000 0.000000
# 4 0.000000 0.000000 0.000000 0.031951 0.000000 0.000000
# 5 0.000000 0.000000 0.000000 0.000000 0.013494 0.000000
# 6 0.000000 0.000000 0.000000 0.000000 0.000000 0.010993
#
#
# Mechanical properties :
#
#
# Convention : Reuss Voigt Hill
#
# Bulk Modulus (GPa) = 31.32371 62.58098 46.95234
# Shear Modulus (GPa) = 31.39379 56.15822 43.77600
#
# Velocity S-wave (km/s) = 3.67591 4.91643 4.34071
# Velocity P-wave (km/s) = 5.61236 7.69182 6.73285
#
# Compressibility (1/GPa) = 0.03192470
#
# Stress axis : x y z
#
# Youngs Moduli (GPa) = 68.51807 23.80372 183.45657
#
# Poissons Ratio (x) = 0.30222 0.57456
# Poissons Ratio (y) = 0.86994 -0.13993
# Poissons Ratio (z) = 0.21459 -0.01816
#
# Static dielectric constant tensor:
#      x y z
#    x 1.848140 0.000000 0.000000 
#    y 0.000000 1.920360 0.000000 
#    z 0.000000 0.000000 1.859030 
# 
# From -- ./inp_files/1535.got.cif
#   From: 2010.05.17/outbox.cif.g08.bks.cpg/sg68_1_cif.got.tgz:1535.got - 2010.06.03 18:57:09.
