data_PCOD9506840
_publ_section_title
;
Structure prediction by ZEFSAII (Michael W. Deem and Ramdas Pophale) SiO2 
 PCOD9506840
Probable space group: C C C A
;
_chemical_formula_sum "Si O2"
_cell_formula_units_Z 96
_cell_length_a 19.715859
_cell_length_b 12.160603
_cell_length_c 17.370186
_cell_angle_alpha 90.000000
_cell_angle_beta 90.000000
_cell_angle_gamma 90.000000
_cell_volume 4164.619066
_symmetry_space_group_name_H-M "C C C A"
_symmetry_group_IT_number 68
_space_group.IT_coordinate_system_code '2'
_symmetry_cell_setting 'orthorhombic'
loop_
_space_group_symop_operation_xyz
x,y,z
-x,1/2-y,z
x,1/2-y,1/2-z
-x,y,1/2-z
-x,-y,-z
x,1/2+y,-z
-x,1/2+y,1/2+z
x,-y,1/2+z
1/2+x,1/2+y,z
1/2-x,-y,z
1/2+x,-y,1/2-z
1/2-x,1/2+y,1/2-z
1/2-x,1/2-y,-z
1/2+x,y,-z
1/2-x,y,1/2+z
1/2+x,1/2-y,1/2+z
loop_
_atom_site_type_symbol
_atom_site_label
_atom_site_fract_x
_atom_site_fract_y
_atom_site_fract_z
Si Si1 0.311882 0.414514 0.652636
Si Si2 0.460646 0.923814 0.607582
Si Si3 0.344396 0.811385 0.503894
Si Si4 0.710143 0.733292 0.655675
Si Si5 0.126978 0.907713 0.253203
Si Si6 0.549788 0.849398 0.476029
O O1 0.250000 0.500000 0.650699
O O2 0.335195 0.393777 0.565943
O O3 0.277593 0.299587 0.676850
O O4 0.366582 0.474181 0.706477
O O5 0.402880 0.863356 0.557876
O O6 0.438440 0.903173 0.696302
O O7 0.528712 0.881226 0.564397
O O8 0.458645 0.050601 0.582386
O O9 0.286611 0.786936 0.565446
O O10 0.374882 0.697097 0.474174
O O11 0.646436 0.813952 0.682285
O O12 0.690632 0.619359 0.696358
O O13 0.500000 0.750000 0.452801
#
# Coordination Sequence:
#
# PCOD9506840 Si02
#       6
#    16  16  16  16  16  16
#     4  10  21  37  57  91 132 167 213 267 317 383
#     4   9  19  38  62  88 118 162 208 263 334 377
#     4  10  20  36  62  90 117 170 212 267 315 380
#     4   9  19  38  58  85 130 163 217 256 312 384
#     4   9  19  38  58  86 123 170 205 263 322 382
#     4   9  19  37  63  89 121 153 212 267 318 383
#
# _framework density 23.051328000000002
#
# number of rings (size 3 to 8) (size 9 to 14) (size 15 to 20)
#    0.000    2.667    0.000    0.500    4.667    0.000 
#   15.000    7.500    0.000    8.000    0.000    0.000 
#    0.000    0.000    0.000    0.000    0.000    0.000 
#
# Total GULP energy -267337.079823 kJ/mol
# GULP energy per Si atom -5569.522496 kJ/mol
# Density = 2.299886 g / cm^3
# Si number density = 23.051328 Si / 1000 Ang^3
#
#
#
# Elastic Constant Matrix: (Units=GPa)
#
#
# Indices 1 2 3 4 5 6 
#
# 1 31.1613 7.4536 33.7950 0.0000 0.0000 0.0000
# 2 7.4536 94.0687 30.3474 0.0000 0.0000 0.0000
# 3 33.7950 30.3474 138.9338 0.0000 0.0000 0.0000
# 4 0.0000 0.0000 0.0000 34.7993 0.0000 0.0000
# 5 0.0000 0.0000 0.0000 0.0000 31.0704 0.0000
# 6 0.0000 0.0000 0.0000 0.0000 0.0000 9.2370
#
#
#
# Elastic Compliance Matrix: (Units=1/GPa)
#
#
# Indices 1 2 3 4 5 6 
#
# 1 0.043591 -0.000036 -0.010595 0.000000 0.000000 0.000000
# 2 -0.000036 0.011436 -0.002489 0.000000 0.000000 0.000000
# 3 -0.010595 -0.002489 0.010319 0.000000 0.000000 0.000000
# 4 0.000000 0.000000 0.000000 0.028736 0.000000 0.000000
# 5 0.000000 0.000000 0.000000 0.000000 0.032185 0.000000
# 6 0.000000 0.000000 0.000000 0.000000 0.000000 0.108260
#
#
# Mechanical properties :
#
#
# Convention : Reuss Voigt Hill
#
# Bulk Modulus (GPa) = 25.57240 45.26177 35.41709
# Shear Modulus (GPa) = 18.26130 27.85919 23.06025
#
# Velocity S-wave (km/s) = 2.81766 3.48022 3.16632
# Velocity P-wave (km/s) = 4.65869 5.98558 5.36332
#
# Compressibility (1/GPa) = 0.03910465
#
# Stress axis : x y z
#
# Youngs Moduli (GPa) = 22.94074 87.43970 96.91131
#
# Poissons Ratio (x) = 0.00313 1.02681
# Poissons Ratio (y) = 0.00082 0.24125
# Poissons Ratio (z) = 0.24307 0.21767
#
# Static dielectric constant tensor:
#      x y z
#    x 1.942530 0.000000 0.000000 
#    y 0.000000 1.910730 0.000000 
#    z 0.000000 0.000000 1.943990 
# 
# From -- ./inp_files/33560.got.cif
#   From: 2010.05.17/outbox.cif.g08.bks.cpg/sg68_17_cif.got.tgz:33560.got - 2010.06.03 18:57:09.
