data_PCOD9506440
_publ_section_title
;
Structure prediction by ZEFSAII (Michael W. Deem and Ramdas Pophale) SiO2 
 PCOD9506440
Probable space group: C C C A
;
_chemical_formula_sum "Si O2"
_cell_formula_units_Z 116
_cell_length_a 8.665657
_cell_length_b 23.652783
_cell_length_c 26.493290
_cell_angle_alpha 90.000000
_cell_angle_beta 90.000000
_cell_angle_gamma 90.000000
_cell_volume 5430.247643
_symmetry_space_group_name_H-M "C C C A"
_symmetry_group_IT_number 68
_space_group.IT_coordinate_system_code '2'
_symmetry_cell_setting 'orthorhombic'
loop_
_space_group_symop_operation_xyz
x,y,z
-x,1/2-y,z
x,1/2-y,1/2-z
-x,y,1/2-z
-x,-y,-z
x,1/2+y,-z
-x,1/2+y,1/2+z
x,-y,1/2+z
1/2+x,1/2+y,z
1/2-x,-y,z
1/2+x,-y,1/2-z
1/2-x,1/2+y,1/2-z
1/2-x,1/2-y,-z
1/2+x,y,-z
1/2-x,y,1/2+z
1/2+x,1/2-y,1/2+z
loop_
_atom_site_type_symbol
_atom_site_label
_atom_site_fract_x
_atom_site_fract_y
_atom_site_fract_z
Si Si1 0.675191 0.748307 0.574005
Si Si2 0.905298 0.537214 0.196895
Si Si3 0.825630 0.660157 0.512835
Si Si4 0.000000 0.250000 0.250000
Si Si5 0.935673 0.988800 0.416383
Si Si6 0.551187 0.667219 0.693068
Si Si7 0.579730 0.083612 0.513626
Si Si8 0.246309 0.278679 0.171112
O O1 0.500000 0.750000 0.594292
O O2 0.722661 0.685585 0.557425
O O3 0.666726 0.790697 0.527620
O O4 0.801045 0.770844 0.613408
O O5 0.750000 0.500000 0.202166
O O6 0.979872 0.519226 0.142525
O O7 0.878953 0.604737 0.188820
O O8 0.000000 0.531453 0.250000
O O9 0.755777 0.602652 0.490308
O O10 0.994969 0.641753 0.527817
O O11 0.886679 0.214959 0.212582
O O12 0.029824 0.038540 0.444547
O O13 0.750000 0.000000 0.416122
O O14 0.954055 0.938130 0.456701
O O15 0.500000 0.677071 0.750000
O O16 0.669754 0.717829 0.681595
O O17 0.381283 0.674274 0.668425
#
# Coordination Sequence:
#
# PCOD9506440 Si02
#       8
#    16  16  16   4  16  16  16  16
#     4  11  23  39  64  96 135 177 217 255 333 425
#     4  10  24  46  69  95 132 176 227 283 337 407
#     4  11  24  39  64  96 133 170 210 274 328 394
#     4  12  24  42  60 108 148 150 236 308 316 382
#     4  10  22  40  67  95 124 169 222 273 328 394
#     4  10  19  40  69  93 124 178 223 261 341 413
#     4  11  22  40  63  96 129 168 219 270 331 386
#     4  11  22  39  69  99 130 179 223 277 334 405
#
# _framework density 21.361826000000001
#
# number of rings (size 3 to 8) (size 9 to 14) (size 15 to 20)
#    0.000    1.379    5.517    0.414    3.862    1.103 
#    3.724    0.000    0.000    0.000    0.000    0.000 
#    0.000    0.000    0.000    0.000    0.000    0.000 
#
# Total GULP energy -322928.656168 kJ/mol
# GULP energy per Si atom -5567.735451 kJ/mol
# Density = 2.131321 g / cm^3
# Si number density = 21.361826 Si / 1000 Ang^3
#
#
#
# Elastic Constant Matrix: (Units=GPa)
#
#
# Indices 1 2 3 4 5 6 
#
# 1 70.1224 22.0866 25.8686 0.0000 0.0000 0.0000
# 2 22.0866 88.0087 27.2016 0.0000 0.0000 0.0000
# 3 25.8686 27.2016 93.8145 0.0000 0.0000 0.0000
# 4 0.0000 0.0000 0.0000 10.6421 0.0000 0.0000
# 5 0.0000 0.0000 0.0000 0.0000 24.1397 0.0000
# 6 0.0000 0.0000 0.0000 0.0000 0.0000 24.5412
#
#
#
# Elastic Compliance Matrix: (Units=1/GPa)
#
#
# Indices 1 2 3 4 5 6 
#
# 1 0.016574 -0.003017 -0.003695 0.000000 0.000000 0.000000
# 2 -0.003017 0.013030 -0.002946 0.000000 0.000000 0.000000
# 3 -0.003695 -0.002946 0.012533 0.000000 0.000000 0.000000
# 4 0.000000 0.000000 0.000000 0.093967 0.000000 0.000000
# 5 0.000000 0.000000 0.000000 0.000000 0.041426 0.000000
# 6 0.000000 0.000000 0.000000 0.000000 0.000000 0.040748
#
#
# Mechanical properties :
#
#
# Convention : Reuss Voigt Hill
#
# Bulk Modulus (GPa) = 43.82208 44.69547 44.25877
# Shear Modulus (GPa) = 20.39139 23.65050 22.02095
#
# Velocity S-wave (km/s) = 3.09297 3.33098 3.21418
# Velocity P-wave (km/s) = 5.77183 5.98016 5.87692
#
# Compressibility (1/GPa) = 0.02281955
#
# Stress axis : x y z
#
# Youngs Moduli (GPa) = 60.33395 76.74402 79.79227
#
# Poissons Ratio (x) = 0.23156 0.29486
# Poissons Ratio (y) = 0.18205 0.23508
# Poissons Ratio (z) = 0.22296 0.22610
#
# Static dielectric constant tensor:
#      x y z
#    x 0.094160 0.000000 0.000000 
#    y 0.000000 1.793410 0.000000 
#    z 0.000000 0.000000 1.907780 
# 
# From -- ./inp_files/49634.got.cif
#   From: 2010.05.17/outbox.cif.g08.bks.cpg/sg68_25_cif.got.tgz:49634.got - 2010.06.03 18:57:09.
