data_PCOD9506876
_publ_section_title
;
Structure prediction by ZEFSAII (Michael W. Deem and Ramdas Pophale) SiO2 
 PCOD9506876
Probable space group: C C C A
;
_chemical_formula_sum "Si O2"
_cell_formula_units_Z 88
_cell_length_a 14.705911
_cell_length_b 15.813897
_cell_length_c 17.277087
_cell_angle_alpha 90.000000
_cell_angle_beta 90.000000
_cell_angle_gamma 90.000000
_cell_volume 4017.920684
_symmetry_space_group_name_H-M "C C C A"
_symmetry_group_IT_number 68
_space_group.IT_coordinate_system_code '2'
_symmetry_cell_setting 'orthorhombic'
loop_
_space_group_symop_operation_xyz
x,y,z
-x,1/2-y,z
x,1/2-y,1/2-z
-x,y,1/2-z
-x,-y,-z
x,1/2+y,-z
-x,1/2+y,1/2+z
x,-y,1/2+z
1/2+x,1/2+y,z
1/2-x,-y,z
1/2+x,-y,1/2-z
1/2-x,1/2+y,1/2-z
1/2-x,1/2-y,-z
1/2+x,y,-z
1/2-x,y,1/2+z
1/2+x,1/2-y,1/2+z
loop_
_atom_site_type_symbol
_atom_site_label
_atom_site_fract_x
_atom_site_fract_y
_atom_site_fract_z
Si Si1 0.400150 0.544358 0.786222
Si Si2 0.161587 0.869620 0.960511
Si Si3 0.750000 0.000000 0.161415
Si Si4 0.860455 0.019033 0.441992
Si Si5 0.606717 0.229317 0.333604
Si Si6 0.351815 0.695831 0.501310
O O1 0.500000 0.547944 0.750000
O O2 0.328826 0.534643 0.717169
O O3 0.388758 0.474888 0.852627
O O4 0.382034 0.629191 0.835331
O O5 0.206247 0.924990 0.891248
O O6 0.246844 0.832624 0.010088
O O7 0.116195 0.776864 0.950393
O O8 0.105386 0.938517 0.008464
O O9 0.894151 0.105047 0.482023
O O10 0.750000 0.000000 0.443410
O O11 0.500000 0.250000 0.329129
O O12 0.649427 0.250000 0.250000
O O13 0.637581 0.279947 0.408573
#
# Coordination Sequence:
#
# PCOD9506876 Si02
#       6
#    16  16   8  16  16  16
#     4  12  25  44  66  99 138 183 228 283 343 405
#     4  10  20  36  65  97 126 170 229 275 338 409
#     4  12  24  42  70  96 140 180 230 288 342 420
#     4  10  20  42  66  92 133 175 223 278 336 409
#     4  11  22  38  61  99 138 170 221 292 339 399
#     4  10  20  38  64  93 130 175 227 277 339 404
#
# _framework density 21.901876000000001
#
# number of rings (size 3 to 8) (size 9 to 14) (size 15 to 20)
#    0.000    1.273    7.273    1.091    0.000    0.000 
#    3.273    2.727    0.000    1.091    0.000    0.000 
#    0.000    0.000    0.000    0.000    0.000    0.000 
#
# Total GULP energy -244996.704353 kJ/mol
# GULP energy per Si atom -5568.106917 kJ/mol
# Density = 2.185203 g / cm^3
# Si number density = 21.901876 Si / 1000 Ang^3
#
#
#
# Elastic Constant Matrix: (Units=GPa)
#
#
# Indices 1 2 3 4 5 6 
#
# 1 57.6882 23.3008 34.4873 0.0000 0.0000 0.0000
# 2 23.3008 195.6477 88.2556 0.0000 0.0000 0.0000
# 3 34.4873 88.2556 168.9149 0.0000 0.0000 0.0000
# 4 0.0000 0.0000 0.0000 49.2047 0.0000 0.0000
# 5 0.0000 0.0000 0.0000 0.0000 -0.3400 0.0000
# 6 0.0000 0.0000 0.0000 0.0000 0.0000 6.9450
#
#
#
# Elastic Compliance Matrix: (Units=1/GPa)
#
#
# Indices 1 2 3 4 5 6 
#
# 1 0.019818 -0.000700 -0.003680 0.000000 0.000000 0.000000
# 2 -0.000700 0.006712 -0.003364 0.000000 0.000000 0.000000
# 3 -0.003680 -0.003364 0.008429 0.000000 0.000000 0.000000
# 4 0.000000 0.000000 0.000000 0.020323 0.000000 0.000000
# 5 0.000000 0.000000 0.000000 0.000000 -2.940790 0.000000
# 6 0.000000 0.000000 0.000000 0.000000 0.000000 0.143989
#
#
# Mechanical properties :
#
#
# Convention : Reuss Voigt Hill
#
# Bulk Modulus (GPa) = 51.36114 79.37093 65.36603
# Shear Modulus (GPa) = -1.83855 29.57574 13.86860
#
# Velocity S-wave (km/s) = -0.91721 3.67873 2.51911
# Velocity P-wave (km/s) = 4.73073 7.37306 6.19443
#
# Compressibility (1/GPa) = 0.01946997
#
# Stress axis : x y z
#
# Youngs Moduli (GPa) = 50.46039 148.98464 118.63458
#
# Poissons Ratio (x) = 0.10429 0.43662
# Poissons Ratio (y) = 0.03532 0.39909
# Poissons Ratio (z) = 0.18572 0.50119
#
# Static dielectric constant tensor:
#      x y z
#    x 1.850150 0.000000 0.000000 
#    y 0.000000 2.044300 0.000000 
#    z 0.000000 0.000000 1.838510 
# 
# From -- ./inp_files/31878.got.cif
#   From: 2010.05.17/outbox.cif.g08.bks.cpg/sg68_16_cif.got.tgz:31878.got - 2010.06.03 18:57:09.
