data_PCOD9506116
_publ_section_title
;
Structure prediction by ZEFSAII (Michael W. Deem and Ramdas Pophale) SiO2 
 PCOD9506116
Probable space group: C C C A
;
_chemical_formula_sum "Si O2"
_cell_formula_units_Z 64
_cell_length_a 5.229615
_cell_length_b 24.889686
_cell_length_c 25.646261
_cell_angle_alpha 90.000000
_cell_angle_beta 90.000000
_cell_angle_gamma 90.000000
_cell_volume 3338.206459
_symmetry_space_group_name_H-M "C C C A"
_symmetry_group_IT_number 68
_space_group.IT_coordinate_system_code '2'
_symmetry_cell_setting 'orthorhombic'
loop_
_space_group_symop_operation_xyz
x,y,z
-x,1/2-y,z
x,1/2-y,1/2-z
-x,y,1/2-z
-x,-y,-z
x,1/2+y,-z
-x,1/2+y,1/2+z
x,-y,1/2+z
1/2+x,1/2+y,z
1/2-x,-y,z
1/2+x,-y,1/2-z
1/2-x,1/2+y,1/2-z
1/2-x,1/2-y,-z
1/2+x,y,-z
1/2-x,y,1/2+z
1/2+x,1/2-y,1/2+z
loop_
_atom_site_type_symbol
_atom_site_label
_atom_site_fract_x
_atom_site_fract_y
_atom_site_fract_z
Si Si1 0.807590 0.437278 0.522736
Si Si2 0.748330 0.226000 0.691151
Si Si3 0.117142 0.601738 0.693818
Si Si4 0.870060 0.558648 0.143547
O O1 0.750000 0.500000 0.509405
O O2 0.526159 0.413233 0.514198
O O3 0.909263 0.436371 0.581604
O O4 0.500000 0.250000 0.664292
O O5 0.749217 0.250000 0.750000
O O6 0.724299 0.162373 0.695997
O O7 0.000000 0.250000 0.665594
O O8 0.362123 0.568038 0.673463
O O9 0.000000 0.585728 0.750000
O O10 0.863222 0.598132 0.658474
O O11 0.750000 0.500000 0.154578
#
# Coordination Sequence:
#
# PCOD9506116 Si02
#       4
#    16  16  16  16
#     4   9  17  33  57  79 104 143 188 240 288 309
#     4  10  19  34  57  78  98 137 182 252 290 306
#     4  12  23  37  57  80 115 160 191 227 276 332
#     4  11  24  38  54  83 121 156 196 228 259 341
#
# _framework density 19.171970999999999
#
# number of rings (size 3 to 8) (size 9 to 14) (size 15 to 20)
#    0.000    1.500    2.500    4.500    3.500    6.000 
#    0.000    0.000    0.000    0.000    0.000    0.000 
#    0.000   70.000    0.000    0.000    0.000    0.000 
#
# Total GULP energy -178294.169039 kJ/mol
# GULP energy per Si atom -5571.692782 kJ/mol
# Density = 1.912833 g / cm^3
# Si number density = 19.171971 Si / 1000 Ang^3
#
#
#
# Elastic Constant Matrix: (Units=GPa)
#
#
# Indices 1 2 3 4 5 6 
#
# 1 197.9913 23.0598 56.5306 0.0000 0.0000 0.0000
# 2 23.0598 46.4919 23.8056 0.0000 0.0000 0.0000
# 3 56.5306 23.8056 52.9737 0.0000 0.0000 0.0000
# 4 0.0000 0.0000 0.0000 -7.4387 0.0000 0.0000
# 5 0.0000 0.0000 0.0000 0.0000 24.4855 0.0000
# 6 0.0000 0.0000 0.0000 0.0000 0.0000 28.0354
#
#
#
# Elastic Compliance Matrix: (Units=1/GPa)
#
#
# Indices 1 2 3 4 5 6 
#
# 1 0.007272 0.000476 -0.007974 0.000000 0.000000 0.000000
# 2 0.000476 0.027969 -0.013077 0.000000 0.000000 0.000000
# 3 -0.007974 -0.013077 0.033264 0.000000 0.000000 0.000000
# 4 0.000000 0.000000 0.000000 -0.134433 0.000000 0.000000
# 5 0.000000 0.000000 0.000000 0.000000 0.040840 0.000000
# 6 0.000000 0.000000 0.000000 0.000000 0.000000 0.035669
#
#
# Mechanical properties :
#
#
# Convention : Reuss Voigt Hill
#
# Bulk Modulus (GPa) = 36.55727 56.02768 46.29247
# Shear Modulus (GPa) = 82.16944 21.95385 52.06164
#
# Velocity S-wave (km/s) = 6.55379 3.38761 5.21671
# Velocity P-wave (km/s) = 8.73951 6.67745 7.77713
#
# Compressibility (1/GPa) = 0.02735434
#
# Stress axis : x y z
#
# Youngs Moduli (GPa) = 137.51151 35.75415 30.06277
#
# Poissons Ratio (x) = -0.01703 0.23973
# Poissons Ratio (y) = -0.06549 0.39313
# Poissons Ratio (z) = 1.09657 0.46756
#
# Static dielectric constant tensor:
#      x y z
#    x 1.705330 0.000000 0.000000 
#    y 0.000000 1.689180 0.000000 
#    z 0.000000 0.000000 1.672870 
# 
# From -- ./inp_files/48278.got.cif
#   From: 2010.05.17/outbox.cif.g08.bks.cpg/sg68_25_cif.got.tgz:48278.got - 2010.06.03 18:57:09.
