data_PCOD9506801
_publ_section_title
;
Structure prediction by ZEFSAII (Michael W. Deem and Ramdas Pophale) SiO2 
 PCOD9506801
Probable space group: C C C A
;
_chemical_formula_sum "Si O2"
_cell_formula_units_Z 56
_cell_length_a 8.980957
_cell_length_b 10.700998
_cell_length_c 27.371659
_cell_angle_alpha 90.000000
_cell_angle_beta 90.000000
_cell_angle_gamma 90.000000
_cell_volume 2630.558842
_symmetry_space_group_name_H-M "C C C A"
_symmetry_group_IT_number 68
_space_group.IT_coordinate_system_code '2'
_symmetry_cell_setting 'orthorhombic'
loop_
_space_group_symop_operation_xyz
x,y,z
-x,1/2-y,z
x,1/2-y,1/2-z
-x,y,1/2-z
-x,-y,-z
x,1/2+y,-z
-x,1/2+y,1/2+z
x,-y,1/2+z
1/2+x,1/2+y,z
1/2-x,-y,z
1/2+x,-y,1/2-z
1/2-x,1/2+y,1/2-z
1/2-x,1/2-y,-z
1/2+x,y,-z
1/2-x,y,1/2+z
1/2+x,1/2-y,1/2+z
loop_
_atom_site_type_symbol
_atom_site_label
_atom_site_fract_x
_atom_site_fract_y
_atom_site_fract_z
Si Si1 0.658409 0.629320 0.776291
Si Si2 0.500000 0.250000 0.572335
Si Si3 0.847375 0.624747 0.491597
Si Si4 0.201229 0.857162 0.386240
O O1 0.731506 0.750000 0.750000
O O2 0.500000 0.610277 0.750000
O O3 0.750000 0.500000 0.772886
O O4 0.637763 0.667807 0.832977
O O5 0.466732 0.135096 0.535031
O O6 0.648284 0.222341 0.603102
O O7 0.750000 0.500000 0.496576
O O8 0.750000 0.750000 0.500000
O O9 0.897666 0.641924 0.435466
O O10 0.250000 0.000000 0.383148
#
# Coordination Sequence:
#
# PCOD9506801 Si02
#       4
#    16   8  16  16
#     4  10  23  43  64  89 119 155 203 256 307 359
#     4  10  20  36  59  86 121 160 196 238 294 354
#     4   9  19  35  56  86 119 154 194 234 285 353
#     4   9  20  37  58  87 119 155 198 244 297 359
#
# _framework density 21.288253000000001
#
# number of rings (size 3 to 8) (size 9 to 14) (size 15 to 20)
#    0.000    2.571    0.000    0.000    0.000   17.714 
#    0.000   22.857    0.000    1.714    0.000    0.000 
#    0.000    0.000    0.000    0.000    0.000    0.000 
#
# Total GULP energy -156018.676327 kJ/mol
# GULP energy per Si atom -5572.095583 kJ/mol
# Density = 2.123980 g / cm^3
# Si number density = 21.288253 Si / 1000 Ang^3
#
#
#
# Elastic Constant Matrix: (Units=GPa)
#
#
# Indices 1 2 3 4 5 6 
#
# 1 95.0997 44.1022 50.1064 0.0000 0.0000 0.0000
# 2 44.1022 139.5949 44.7098 0.0000 0.0000 0.0000
# 3 50.1064 44.7098 197.6375 0.0000 0.0000 0.0000
# 4 0.0000 0.0000 0.0000 37.6373 0.0000 0.0000
# 5 0.0000 0.0000 0.0000 0.0000 34.8749 0.0000
# 6 0.0000 0.0000 0.0000 0.0000 0.0000 46.7872
#
#
#
# Elastic Compliance Matrix: (Units=1/GPa)
#
#
# Indices 1 2 3 4 5 6 
#
# 1 0.013495 -0.003415 -0.002649 0.000000 0.000000 0.000000
# 2 -0.003415 0.008587 -0.001077 0.000000 0.000000 0.000000
# 3 -0.002649 -0.001077 0.005975 0.000000 0.000000 0.000000
# 4 0.000000 0.000000 0.000000 0.026569 0.000000 0.000000
# 5 0.000000 0.000000 0.000000 0.000000 0.028674 0.000000
# 6 0.000000 0.000000 0.000000 0.000000 0.000000 0.021373
#
#
# Mechanical properties :
#
#
# Convention : Reuss Voigt Hill
#
# Bulk Modulus (GPa) = 72.59144 78.90766 75.74955
# Shear Modulus (GPa) = 40.47063 43.42081 41.94572
#
# Velocity S-wave (km/s) = 4.36487 4.52116 4.44370
# Velocity P-wave (km/s) = 7.71855 8.02504 7.87329
#
# Compressibility (1/GPa) = 0.01377573
#
# Stress axis : x y z
#
# Youngs Moduli (GPa) = 74.10413 116.44984 167.36719
#
# Poissons Ratio (x) = 0.39768 0.44330
# Poissons Ratio (y) = 0.25307 0.18023
# Poissons Ratio (z) = 0.19628 0.12540
#
# Static dielectric constant tensor:
#      x y z
#    x 1.958920 0.000000 0.000000 
#    y 0.000000 1.800600 0.000000 
#    z 0.000000 0.000000 1.828290 
# 
# From -- ./inp_files/48734.got.cif
#   From: 2010.05.17/outbox.cif.g08.bks.cpg/sg68_25_cif.got.tgz:48734.got - 2010.06.03 18:57:09.
