data_PCOD9506569
_publ_section_title
;
Structure prediction by ZEFSAII (Michael W. Deem and Ramdas Pophale) SiO2 
 PCOD9506569
Probable space group: C C C A
;
_chemical_formula_sum "Si O2"
_cell_formula_units_Z 112
_cell_length_a 13.720159
_cell_length_b 33.690896
_cell_length_c 14.859511
_cell_angle_alpha 90.000000
_cell_angle_beta 90.000000
_cell_angle_gamma 90.000000
_cell_volume 6868.726489
_symmetry_space_group_name_H-M "C C C A"
_symmetry_group_IT_number 68
_space_group.IT_coordinate_system_code '2'
_symmetry_cell_setting 'orthorhombic'
loop_
_space_group_symop_operation_xyz
x,y,z
-x,1/2-y,z
x,1/2-y,1/2-z
-x,y,1/2-z
-x,-y,-z
x,1/2+y,-z
-x,1/2+y,1/2+z
x,-y,1/2+z
1/2+x,1/2+y,z
1/2-x,-y,z
1/2+x,-y,1/2-z
1/2-x,1/2+y,1/2-z
1/2-x,1/2-y,-z
1/2+x,y,-z
1/2-x,y,1/2+z
1/2+x,1/2-y,1/2+z
loop_
_atom_site_type_symbol
_atom_site_label
_atom_site_fract_x
_atom_site_fract_y
_atom_site_fract_z
Si Si1 0.078268 0.464452 0.828986
Si Si2 0.655468 0.349978 0.046988
Si Si3 0.488026 0.413687 0.014891
Si Si4 0.325231 0.355210 0.094875
Si Si5 0.417535 0.946306 0.174703
Si Si6 0.731440 0.895781 0.782727
Si Si7 0.496685 0.702640 0.643510
O O1 0.023255 0.448086 0.917238
O O2 0.119983 0.508664 0.840927
O O3 0.155450 0.431670 0.797760
O O4 0.000000 0.466361 0.750000
O O5 0.578175 0.382955 0.012866
O O6 0.712878 0.366903 0.133246
O O7 0.587053 0.315151 0.086662
O O8 0.735130 0.343559 0.969277
O O9 0.393996 0.389779 0.052360
O O10 0.461886 0.430847 0.918376
O O11 0.287833 0.372674 0.189998
O O12 0.397845 0.318071 0.108808
O O13 0.500000 0.947938 0.250000
O O14 0.335690 0.916271 0.209161
O O15 0.500000 0.750000 0.636740
O O16 0.500000 0.691623 0.750000
#
# Coordination Sequence:
#
# PCOD9506569 Si02
#       7
#    16  16  16  16  16  16  16
#     4  10  20  34  54  73 106 145 189 239 285 313
#     4  10  21  35  59  86 108 148 182 224 282 328
#     4  10  20  35  54  78 106 144 196 227 273 338
#     4  11  20  36  61  84 111 149 185 231 276 335
#     4  11  22  35  50  76 112 146 181 236 288 329
#     4  11  20  35  55  80 106 144 191 232 269 335
#     4  10  21  38  62  91 116 144 185 227 275 340
#
# _framework density 16.305789000000001
#
# number of rings (size 3 to 8) (size 9 to 14) (size 15 to 20)
#    0.000    1.571    4.286    1.714    0.000    0.571 
#    0.000    0.000    0.000    0.000    0.000    1.000 
#    0.000    0.000    0.000    0.000    0.000    0.000 
#
# Total GULP energy -312311.988100 kJ/mol
# GULP energy per Si atom -5576.999787 kJ/mol
# Density = 1.626868 g / cm^3
# Si number density = 16.305789 Si / 1000 Ang^3
#
#
#
# Elastic Constant Matrix: (Units=GPa)
#
#
# Indices 1 2 3 4 5 6 
#
# 1 103.0242 43.6308 63.3117 0.0000 0.0000 0.0000
# 2 43.6308 85.2430 55.3668 0.0000 0.0000 0.0000
# 3 63.3117 55.3668 130.2673 0.0000 0.0000 0.0000
# 4 0.0000 0.0000 0.0000 63.8984 0.0000 0.0000
# 5 0.0000 0.0000 0.0000 0.0000 37.0101 0.0000
# 6 0.0000 0.0000 0.0000 0.0000 0.0000 15.7325
#
#
#
# Elastic Compliance Matrix: (Units=1/GPa)
#
#
# Indices 1 2 3 4 5 6 
#
# 1 0.014766 -0.004001 -0.005476 0.000000 0.000000 0.000000
# 2 -0.004001 0.017289 -0.005404 0.000000 0.000000 0.000000
# 3 -0.005476 -0.005404 0.012635 0.000000 0.000000 0.000000
# 4 0.000000 0.000000 0.000000 0.015650 0.000000 0.000000
# 5 0.000000 0.000000 0.000000 0.000000 0.027020 0.000000
# 6 0.000000 0.000000 0.000000 0.000000 0.000000 0.063563
#
#
# Mechanical properties :
#
#
# Convention : Reuss Voigt Hill
#
# Bulk Modulus (GPa) = 66.98747 71.46145 69.22446
# Shear Modulus (GPa) = 26.93109 33.74321 30.33715
#
# Velocity S-wave (km/s) = 4.06843 4.55400 4.31805
# Velocity P-wave (km/s) = 7.95240 8.46007 8.21016
#
# Compressibility (1/GPa) = 0.01492817
#
# Stress axis : x y z
#
# Youngs Moduli (GPa) = 67.72276 57.84080 79.14809
#
# Poissons Ratio (x) = 0.23143 0.43341
# Poissons Ratio (y) = 0.27097 0.42768
# Poissons Ratio (z) = 0.37084 0.31255
#
# Static dielectric constant tensor:
#      x y z
#    x 1.554120 0.000000 0.000000 
#    y 0.000000 1.534770 0.000000 
#    z 0.000000 0.000000 1.530510 
# 
# From -- ./inp_files/21245.got.cif
#   From: 2010.05.17/outbox.cif.g08.bks.cpg/sg68_11_cif.got.tgz:21245.got - 2010.06.03 18:57:09.
