data_PCOD9506707
_publ_section_title
;
Structure prediction by ZEFSAII (Michael W. Deem and Ramdas Pophale) SiO2 
 PCOD9506707
Probable space group: C C C A
;
_chemical_formula_sum "Si O2"
_cell_formula_units_Z 64
_cell_length_a 19.451388
_cell_length_b 5.358002
_cell_length_c 29.470827
_cell_angle_alpha 90.000000
_cell_angle_beta 90.000000
_cell_angle_gamma 90.000000
_cell_volume 3071.466559
_symmetry_space_group_name_H-M "C C C A"
_symmetry_group_IT_number 68
_space_group.IT_coordinate_system_code '2'
_symmetry_cell_setting 'orthorhombic'
loop_
_space_group_symop_operation_xyz
x,y,z
-x,1/2-y,z
x,1/2-y,1/2-z
-x,y,1/2-z
-x,-y,-z
x,1/2+y,-z
-x,1/2+y,1/2+z
x,-y,1/2+z
1/2+x,1/2+y,z
1/2-x,-y,z
1/2+x,-y,1/2-z
1/2-x,1/2+y,1/2-z
1/2-x,1/2-y,-z
1/2+x,y,-z
1/2-x,y,1/2+z
1/2+x,1/2-y,1/2+z
loop_
_atom_site_type_symbol
_atom_site_label
_atom_site_fract_x
_atom_site_fract_y
_atom_site_fract_z
Si Si1 0.920812 0.294106 0.346877
Si Si2 0.172687 0.767031 0.019307
Si Si3 0.366829 0.750000 0.250000
Si Si4 0.750000 0.000000 0.804781
Si Si5 0.841060 0.286226 0.625665
O O1 0.911827 0.332113 0.292593
O O2 0.887766 0.542905 0.367590
O O3 0.000000 0.250000 0.358250
O O4 0.880149 0.044515 0.362026
O O5 0.178579 0.793182 0.073100
O O6 0.138702 0.509038 0.003386
O O7 0.250000 0.750000 0.000000
O O8 0.313883 0.946111 0.227901
O O9 0.776222 0.213333 0.839674
#
# Coordination Sequence:
#
# PCOD9506707 Si02
#       5
#    16  16   8   8  16
#     4  11  24  42  62  85 122 170 215 248 287 356
#     4  10  20  35  59  91 122 150 185 237 304 376
#     4  10  21  36  60  90 123 162 204 256 306 358
#     4  10  20  36  60  96 130 156 198 260 330 372
#     4  11  23  39  64  93 124 160 198 254 313 367
#
# _framework density 20.836952
#
# number of rings (size 3 to 8) (size 9 to 14) (size 15 to 20)
#    0.000    1.500    0.000    5.625    0.000   12.000 
#    0.000    5.000    0.000   15.000    0.000    0.000 
#    0.000    0.000    0.000    0.000    0.000    0.000 
#
# Total GULP energy -178642.509012 kJ/mol
# GULP energy per Si atom -5582.578407 kJ/mol
# Density = 2.078953 g / cm^3
# Si number density = 20.836952 Si / 1000 Ang^3
#
#
#
# Elastic Constant Matrix: (Units=GPa)
#
#
# Indices 1 2 3 4 5 6 
#
# 1 77.9673 39.9175 16.2414 0.0000 0.0000 0.0000
# 2 39.9175 172.5031 52.0306 0.0000 0.0000 0.0000
# 3 16.2414 52.0306 161.9429 0.0000 0.0000 0.0000
# 4 0.0000 0.0000 0.0000 20.8119 0.0000 0.0000
# 5 0.0000 0.0000 0.0000 0.0000 29.3317 0.0000
# 6 0.0000 0.0000 0.0000 0.0000 0.0000 26.2429
#
#
#
# Elastic Compliance Matrix: (Units=1/GPa)
#
#
# Indices 1 2 3 4 5 6 
#
# 1 0.014575 -0.003246 -0.000419 0.000000 0.000000 0.000000
# 2 -0.003246 0.007142 -0.001969 0.000000 0.000000 0.000000
# 3 -0.000419 -0.001969 0.006850 0.000000 0.000000 0.000000
# 4 0.000000 0.000000 0.000000 0.048050 0.000000 0.000000
# 5 0.000000 0.000000 0.000000 0.000000 0.034093 0.000000
# 6 0.000000 0.000000 0.000000 0.000000 0.000000 0.038106
#
#
# Mechanical properties :
#
#
# Convention : Reuss Voigt Hill
#
# Bulk Modulus (GPa) = 57.80845 69.86581 63.83713
# Shear Modulus (GPa) = 30.14779 35.55888 32.85333
#
# Velocity S-wave (km/s) = 3.80786 4.13550 3.97506
# Velocity P-wave (km/s) = 6.86561 7.51037 7.19522
#
# Compressibility (1/GPa) = 0.01729851
#
# Stress axis : x y z
#
# Youngs Moduli (GPa) = 68.60965 140.01381 145.99254
#
# Poissons Ratio (x) = 0.45455 0.06113
# Poissons Ratio (y) = 0.22274 0.28748
# Poissons Ratio (z) = 0.02873 0.27570
#
# Static dielectric constant tensor:
#      x y z
#    x 1.716970 0.000000 0.000000 
#    y 0.000000 1.206760 0.000000 
#    z 0.000000 0.000000 1.733310 
# 
# From -- ./inp_files/48146.got.cif
#   From: 2010.05.17/outbox.cif.g08.bks.cpg/sg68_25_cif.got.tgz:48146.got - 2010.06.03 18:57:09.
