data_PCOD9506890
_publ_section_title
;
Structure prediction by ZEFSAII (Michael W. Deem and Ramdas Pophale) SiO2 
 PCOD9506890
Probable space group: C C C A
;
_chemical_formula_sum "Si O2"
_cell_formula_units_Z 116
_cell_length_a 27.657691
_cell_length_b 12.480968
_cell_length_c 16.110726
_cell_angle_alpha 90.000000
_cell_angle_beta 90.000000
_cell_angle_gamma 90.000000
_cell_volume 5561.338136
_symmetry_space_group_name_H-M "C C C A"
_symmetry_group_IT_number 68
_space_group.IT_coordinate_system_code '2'
_symmetry_cell_setting 'orthorhombic'
loop_
_space_group_symop_operation_xyz
x,y,z
-x,1/2-y,z
x,1/2-y,1/2-z
-x,y,1/2-z
-x,-y,-z
x,1/2+y,-z
-x,1/2+y,1/2+z
x,-y,1/2+z
1/2+x,1/2+y,z
1/2-x,-y,z
1/2+x,-y,1/2-z
1/2-x,1/2+y,1/2-z
1/2-x,1/2-y,-z
1/2+x,y,-z
1/2-x,y,1/2+z
1/2+x,1/2-y,1/2+z
loop_
_atom_site_type_symbol
_atom_site_label
_atom_site_fract_x
_atom_site_fract_y
_atom_site_fract_z
Si Si1 0.964528 0.077189 0.883332
Si Si2 0.021717 0.866645 0.923650
Si Si3 0.300649 0.455425 0.083625
Si Si4 0.315609 0.359376 0.914835
Si Si5 0.850677 0.084410 0.889073
Si Si6 0.000000 0.250000 0.750000
Si Si7 0.226348 0.758195 0.162729
Si Si8 0.135256 0.357573 0.083275
O O1 0.907052 0.061428 0.877009
O O2 0.975198 0.166425 0.813918
O O3 0.979379 0.119081 0.975616
O O4 0.992662 0.963510 0.879697
O O5 0.078660 0.874114 0.903793
O O6 0.000000 0.750000 0.903360
O O7 0.250000 0.500000 0.047982
O O8 0.285772 0.363363 0.144795
O O9 0.332504 0.548761 0.122864
O O10 0.327289 0.392870 0.009473
O O11 0.323002 0.473156 0.871698
O O12 0.261764 0.313385 0.903463
O O13 0.349704 0.261163 0.890554
O O14 0.823162 0.174619 0.836895
O O15 0.849655 0.125337 0.985622
O O16 0.253079 0.750000 0.250000
#
# Coordination Sequence:
#
# PCOD9506890 Si02
#       8
#    16  16  16  16  16   4  16  16
#     4  10  23  40  65  97 132 172 214 270 323 395
#     4  10  20  41  67  99 130 165 221 277 324 376
#     4  11  21  37  62  87 121 160 212 260 304 369
#     4  11  20  40  62  87 120 159 208 259 307 368
#     4  10  22  39  61  92 120 163 209 254 312 372
#     4  12  24  44  66  96 136 178 204 262 344 392
#     4  12  25  39  58  86 128 163 204 255 314 381
#     4  10  20  36  68  94 117 159 209 263 308 365
#
# _framework density 20.858288999999999
#
# number of rings (size 3 to 8) (size 9 to 14) (size 15 to 20)
#    0.000    1.379    3.448    3.310    0.966    3.310 
#    0.000    0.345    0.000    0.000    0.000    0.000 
#    0.000    0.000    0.000    0.000    0.000    0.000 
#
# Total GULP energy -323448.040659 kJ/mol
# GULP energy per Si atom -5576.690356 kJ/mol
# Density = 2.081081 g / cm^3
# Si number density = 20.858289 Si / 1000 Ang^3
#
#
#
# Elastic Constant Matrix: (Units=GPa)
#
#
# Indices 1 2 3 4 5 6 
#
# 1 95.3441 41.8710 -4.4314 0.0000 0.0000 0.0000
# 2 41.8710 138.5234 9.0961 0.0000 0.0000 0.0000
# 3 -4.4314 9.0961 22.4267 0.0000 0.0000 0.0000
# 4 0.0000 0.0000 0.0000 13.8896 0.0000 0.0000
# 5 0.0000 0.0000 0.0000 0.0000 1.9750 0.0000
# 6 0.0000 0.0000 0.0000 0.0000 0.0000 34.8815
#
#
#
# Elastic Compliance Matrix: (Units=1/GPa)
#
#
# Indices 1 2 3 4 5 6 
#
# 1 0.012449 -0.004032 0.004095 0.000000 0.000000 0.000000
# 2 -0.004032 0.008722 -0.004334 0.000000 0.000000 0.000000
# 3 0.004095 -0.004334 0.047157 0.000000 0.000000 0.000000
# 4 0.000000 0.000000 0.000000 0.071996 0.000000 0.000000
# 5 0.000000 0.000000 0.000000 0.000000 0.506337 0.000000
# 6 0.000000 0.000000 0.000000 0.000000 0.000000 0.028669
#
#
# Mechanical properties :
#
#
# Convention : Reuss Voigt Hill
#
# Bulk Modulus (GPa) = 16.72625 38.81840 27.77232
# Shear Modulus (GPa) = 7.10427 24.13311 15.61869
#
# Velocity S-wave (km/s) = 1.84753 3.40517 2.73939
# Velocity P-wave (km/s) = 3.54789 5.84047 4.83212
#
# Compressibility (1/GPa) = 0.05978626
#
# Stress axis : x y z
#
# Youngs Moduli (GPa) = 80.32575 114.64837 21.20586
#
# Poissons Ratio (x) = 0.46225 -0.08684
# Poissons Ratio (y) = 0.32387 0.09191
# Poissons Ratio (z) = -0.32895 0.49693
#
# Static dielectric constant tensor:
#      x y z
#    x 1.758470 0.000000 0.000000 
#    y 0.000000 1.799510 0.000000 
#    z 0.000000 0.000000 1.805280 
# 
# From -- ./inp_files/34168.got.cif
#   From: 2010.05.17/outbox.cif.g08.bks.cpg/sg68_18_cif.got.tgz:34168.got - 2010.06.03 18:57:09.
