data_PCOD9506484
_publ_section_title
;
Structure prediction by ZEFSAII (Michael W. Deem and Ramdas Pophale) SiO2 
 PCOD9506484
Probable space group: C C C A
;
_chemical_formula_sum "Si O2"
_cell_formula_units_Z 68
_cell_length_a 14.004469
_cell_length_b 5.361442
_cell_length_c 36.863695
_cell_angle_alpha 90.000000
_cell_angle_beta 90.000000
_cell_angle_gamma 90.000000
_cell_volume 2767.879142
_symmetry_space_group_name_H-M "C C C A"
_symmetry_group_IT_number 68
_space_group.IT_coordinate_system_code '2'
_symmetry_cell_setting 'orthorhombic'
loop_
_space_group_symop_operation_xyz
x,y,z
-x,1/2-y,z
x,1/2-y,1/2-z
-x,y,1/2-z
-x,-y,-z
x,1/2+y,-z
-x,1/2+y,1/2+z
x,-y,1/2+z
1/2+x,1/2+y,z
1/2-x,-y,z
1/2+x,-y,1/2-z
1/2-x,1/2+y,1/2-z
1/2-x,1/2-y,-z
1/2+x,y,-z
1/2-x,y,1/2+z
1/2+x,1/2-y,1/2+z
loop_
_atom_site_type_symbol
_atom_site_label
_atom_site_fract_x
_atom_site_fract_y
_atom_site_fract_z
Si Si1 0.855749 0.925421 0.513128
Si Si2 0.000000 0.250000 0.250000
Si Si3 0.615176 0.745918 0.093617
Si Si4 0.116571 0.244423 0.865659
Si Si5 0.608731 0.359586 0.213454
O O1 0.900359 0.701666 0.489644
O O2 0.851103 0.822282 0.553759
O O3 0.750000 0.000000 0.499657
O O4 0.078168 0.360281 0.278297
O O5 0.500000 0.750000 0.091838
O O6 0.643536 0.472454 0.107769
O O7 0.643387 0.971204 0.120322
O O8 0.152836 0.300828 0.825053
O O9 0.000000 0.250000 0.864224
O O10 0.500000 0.250000 0.213267
O O11 0.655791 0.250000 0.250000
#
# Coordination Sequence:
#
# PCOD9506484 Si02
#       5
#    16   4  16  16  16
#     4  10  21  37  56  74  95 124 158 199 243 291
#     4   8  14  20  36  54  84 128 174 192 222 276
#     4  10  20  32  48  73  99 129 158 195 246 293
#     4   9  18  28  43  64 100 132 161 197 240 286
#     4   8  15  22  35  57  86 131 169 194 226 278
#
# _framework density 24.567544999999999
#
# number of rings (size 3 to 8) (size 9 to 14) (size 15 to 20)
#    0.000    3.059    0.000    1.412   11.529    0.941 
#    0.000    0.000    0.000    0.000    0.000    0.000 
#    0.000    3.765    0.000    0.000    0.000    0.000 
#
# Total GULP energy -189521.264712 kJ/mol
# GULP energy per Si atom -5574.154844 kJ/mol
# Density = 2.451163 g / cm^3
# Si number density = 24.567545 Si / 1000 Ang^3
#
#
#
# Elastic Constant Matrix: (Units=GPa)
#
#
# Indices 1 2 3 4 5 6 
#
# 1 76.5648 -2.3717 -4.4991 0.0000 0.0000 0.0000
# 2 -2.3717 145.0167 60.6440 0.0000 0.0000 0.0000
# 3 -4.4991 60.6440 172.5372 0.0000 0.0000 0.0000
# 4 0.0000 0.0000 0.0000 61.6235 0.0000 0.0000
# 5 0.0000 0.0000 0.0000 0.0000 8.5589 0.0000
# 6 0.0000 0.0000 0.0000 0.0000 0.0000 -11.3407
#
#
#
# Elastic Compliance Matrix: (Units=1/GPa)
#
#
# Indices 1 2 3 4 5 6 
#
# 1 0.013082 0.000084 0.000312 0.000000 0.000000 0.000000
# 2 0.000084 0.008085 -0.002839 0.000000 0.000000 0.000000
# 3 0.000312 -0.002839 0.006802 0.000000 0.000000 0.000000
# 4 0.000000 0.000000 0.000000 0.016228 0.000000 0.000000
# 5 0.000000 0.000000 0.000000 0.000000 0.116838 0.000000
# 6 0.000000 0.000000 0.000000 0.000000 0.000000 -0.088178
#
#
# Mechanical properties :
#
#
# Convention : Reuss Voigt Hill
#
# Bulk Modulus (GPa) = 43.32735 55.74056 49.53396
# Shear Modulus (GPa) = 58.52270 34.45804 46.49037
#
# Velocity S-wave (km/s) = 4.88599 3.74917 4.35483
# Velocity P-wave (km/s) = 7.03596 6.44047 6.74479
#
# Compressibility (1/GPa) = 0.02308011
#
# Stress axis : x y z
#
# Youngs Moduli (GPa) = 76.44239 123.69322 147.01602
#
# Poissons Ratio (x) = -0.01034 -0.04583
# Poissons Ratio (y) = -0.00639 0.41744
# Poissons Ratio (z) = -0.02383 0.35121
#
# Static dielectric constant tensor:
#      x y z
#    x 1.997570 0.000000 0.000000 
#    y 0.000000 -25.013800 0.000000 
#    z 0.000000 0.000000 1.930930 
# 
# From -- ./inp_files/53045.got.cif
#   From: 2010.05.17/outbox.cif.g08.bks.cpg/sg68_27_cif.got.tgz:53045.got - 2010.06.03 18:57:09.
