data_PCOD9506141
_publ_section_title
;
Structure prediction by ZEFSAII (Michael W. Deem and Ramdas Pophale) SiO2 
 PCOD9506141
Probable space group: C C C A
;
_chemical_formula_sum "Si O2"
_cell_formula_units_Z 80
_cell_length_a 10.487194
_cell_length_b 15.467302
_cell_length_c 22.535612
_cell_angle_alpha 90.000000
_cell_angle_beta 90.000000
_cell_angle_gamma 90.000000
_cell_volume 3655.469999
_symmetry_space_group_name_H-M "C C C A"
_symmetry_group_IT_number 68
_space_group.IT_coordinate_system_code '2'
_symmetry_cell_setting 'orthorhombic'
loop_
_space_group_symop_operation_xyz
x,y,z
-x,1/2-y,z
x,1/2-y,1/2-z
-x,y,1/2-z
-x,-y,-z
x,1/2+y,-z
-x,1/2+y,1/2+z
x,-y,1/2+z
1/2+x,1/2+y,z
1/2-x,-y,z
1/2+x,-y,1/2-z
1/2-x,1/2+y,1/2-z
1/2-x,1/2-y,-z
1/2+x,y,-z
1/2-x,y,1/2+z
1/2+x,1/2-y,1/2+z
loop_
_atom_site_type_symbol
_atom_site_label
_atom_site_fract_x
_atom_site_fract_y
_atom_site_fract_z
Si Si1 0.101127 0.103911 0.556903
Si Si2 0.986836 0.615798 0.835608
Si Si3 0.793152 0.158260 0.252647
Si Si4 0.568384 0.080619 0.309080
Si Si5 0.604623 0.606114 0.040060
O O1 0.068900 0.122923 0.625775
O O2 0.246240 0.134453 0.541566
O O3 0.982293 0.131885 0.515963
O O4 0.107476 0.999124 0.546967
O O5 0.085545 0.668982 0.795543
O O6 0.015411 0.515406 0.820330
O O7 0.024217 0.635106 0.902471
O O8 0.845079 0.632092 0.811711
O O9 0.724853 0.250000 0.250000
O O10 0.711854 0.087552 0.286290
O O11 0.500000 0.116339 0.250000
#
# Coordination Sequence:
#
# PCOD9506141 Si02
#       5
#    16  16  16  16  16
#     4   9  18  31  50  83 114 151 188 252 299 347
#     4  10  19  34  60  84 110 153 201 241 283 353
#     4  11  22  36  56  89 120 153 194 237 299 359
#     4  11  21  34  59  86 119 151 193 247 302 350
#     4   9  17  31  53  78 118 148 195 245 301 343
#
# _framework density 21.885010999999999
#
# number of rings (size 3 to 8) (size 9 to 14) (size 15 to 20)
#    0.000    2.000    4.000    1.800    0.000    2.000 
#    0.000    4.000    0.000    1.200    5.200    0.000 
#    0.000    0.000    0.000    0.000    0.000    0.000 
#
# Total GULP energy -222791.993178 kJ/mol
# GULP energy per Si atom -5569.799829 kJ/mol
# Density = 2.183520 g / cm^3
# Si number density = 21.885011 Si / 1000 Ang^3
#
#
#
# Elastic Constant Matrix: (Units=GPa)
#
#
# Indices 1 2 3 4 5 6 
#
# 1 101.4779 18.8689 107.9322 0.0000 0.0000 0.0000
# 2 18.8689 41.3557 12.8399 0.0000 0.0000 0.0000
# 3 107.9322 12.8399 197.3121 0.0000 0.0000 0.0000
# 4 0.0000 0.0000 0.0000 0.5821 0.0000 0.0000
# 5 0.0000 0.0000 0.0000 0.0000 35.5335 0.0000
# 6 0.0000 0.0000 0.0000 0.0000 0.0000 5.9063
#
#
#
# Elastic Compliance Matrix: (Units=1/GPa)
#
#
# Indices 1 2 3 4 5 6 
#
# 1 0.025658 -0.007500 -0.013547 0.000000 0.000000 0.000000
# 2 -0.007500 0.026872 0.002354 0.000000 0.000000 0.000000
# 3 -0.013547 0.002354 0.012325 0.000000 0.000000 0.000000
# 4 0.000000 0.000000 0.000000 1.718019 0.000000 0.000000
# 5 0.000000 0.000000 0.000000 0.000000 0.028142 0.000000
# 6 0.000000 0.000000 0.000000 0.000000 0.000000 0.169311
#
#
# Mechanical properties :
#
#
# Convention : Reuss Voigt Hill
#
# Bulk Modulus (GPa) = 36.40588 68.82532 52.61560
# Shear Modulus (GPa) = 2.46686 21.77135 12.11910
#
# Velocity S-wave (km/s) = 1.06284 3.15748 2.35577
# Velocity P-wave (km/s) = 4.26349 6.69401 5.61191
#
# Compressibility (1/GPa) = 0.02746809
#
# Stress axis : x y z
#
# Youngs Moduli (GPa) = 38.97487 37.21389 81.13421
#
# Poissons Ratio (x) = 0.27912 1.09912
# Poissons Ratio (y) = 0.29233 -0.19101
# Poissons Ratio (z) = 0.52799 -0.08761
#
# Static dielectric constant tensor:
#      x y z
#    x 1.779150 0.000000 0.000000 
#    y 0.000000 1.833180 0.000000 
#    z 0.000000 0.000000 1.830210 
# 
# From -- ./inp_files/44089.got.cif
#   From: 2010.05.17/outbox.cif.g08.bks.cpg/sg68_23_cif.got.tgz:44089.got - 2010.06.03 18:57:09.
