data_PCOD9506376
_publ_section_title
;
Structure prediction by ZEFSAII (Michael W. Deem and Ramdas Pophale) SiO2 
 PCOD9506376
Probable space group: C C C A
;
_chemical_formula_sum "Si O2"
_cell_formula_units_Z 64
_cell_length_a 10.789889
_cell_length_b 16.736064
_cell_length_c 17.604061
_cell_angle_alpha 90.000000
_cell_angle_beta 90.000000
_cell_angle_gamma 90.000000
_cell_volume 3178.946139
_symmetry_space_group_name_H-M "C C C A"
_symmetry_group_IT_number 68
_space_group.IT_coordinate_system_code '2'
_symmetry_cell_setting 'orthorhombic'
loop_
_space_group_symop_operation_xyz
x,y,z
-x,1/2-y,z
x,1/2-y,1/2-z
-x,y,1/2-z
-x,-y,-z
x,1/2+y,-z
-x,1/2+y,1/2+z
x,-y,1/2+z
1/2+x,1/2+y,z
1/2-x,-y,z
1/2+x,-y,1/2-z
1/2-x,1/2+y,1/2-z
1/2-x,1/2-y,-z
1/2+x,y,-z
1/2-x,y,1/2+z
1/2+x,1/2-y,1/2+z
loop_
_atom_site_type_symbol
_atom_site_label
_atom_site_fract_x
_atom_site_fract_y
_atom_site_fract_z
Si Si1 0.953179 0.981601 0.085952
Si Si2 0.792706 0.122883 0.073970
Si Si3 0.801833 0.911183 0.402053
Si Si4 0.856504 0.728885 0.661867
O O1 0.834462 0.925255 0.081192
O O2 0.061748 0.934042 0.129267
O O3 0.900543 0.067744 0.112266
O O4 0.000000 0.000000 0.000000
O O5 0.781265 0.207473 0.112611
O O6 0.819551 0.129561 0.984300
O O7 0.703574 0.857509 0.356173
O O8 0.750000 0.000000 0.415775
O O9 0.843320 0.750000 0.750000
O O10 0.000000 0.750000 0.641518
#
# Coordination Sequence:
#
# PCOD9506376 Si02
#       4
#    16  16  16  16
#     4   9  17  34  63  95 122 149 202 265 319 363
#     4  10  19  38  65  90 124 158 207 261 316 367
#     4  11  20  38  65  94 120 159 213 265 311 368
#     4  11  26  43  59  88 132 175 210 250 312 384
#
# _framework density 20.132459000000001
#
# number of rings (size 3 to 8) (size 9 to 14) (size 15 to 20)
#    0.000    1.750    5.000    2.250    3.500    1.000 
#    4.500    2.500    0.000    0.000    0.000    0.000 
#    0.000    0.000    0.000    0.000    0.000    0.000 
#
# Total GULP energy -178235.514796 kJ/mol
# GULP energy per Si atom -5569.859837 kJ/mol
# Density = 2.008664 g / cm^3
# Si number density = 20.132459 Si / 1000 Ang^3
#
#
#
# Elastic Constant Matrix: (Units=GPa)
#
#
# Indices 1 2 3 4 5 6 
#
# 1 120.4623 38.1460 10.9481 0.0000 0.0000 0.0000
# 2 38.1460 114.1708 26.4123 0.0000 0.0000 0.0000
# 3 10.9481 26.4123 26.6887 0.0000 0.0000 0.0000
# 4 0.0000 0.0000 0.0000 7.3776 0.0000 0.0000
# 5 0.0000 0.0000 0.0000 0.0000 -3.4169 0.0000
# 6 0.0000 0.0000 0.0000 0.0000 0.0000 31.1245
#
#
#
# Elastic Compliance Matrix: (Units=1/GPa)
#
#
# Indices 1 2 3 4 5 6 
#
# 1 0.009302 -0.002886 -0.000960 0.000000 0.000000 0.000000
# 2 -0.002886 0.012255 -0.010944 0.000000 0.000000 0.000000
# 3 -0.000960 -0.010944 0.048694 0.000000 0.000000 0.000000
# 4 0.000000 0.000000 0.000000 0.135545 0.000000 0.000000
# 5 0.000000 0.000000 0.000000 0.000000 -0.292662 0.000000
# 6 0.000000 0.000000 0.000000 0.000000 0.000000 0.032129
#
#
# Mechanical properties :
#
#
# Convention : Reuss Voigt Hill
#
# Bulk Modulus (GPa) = 24.58755 45.81494 35.20125
# Shear Modulus (GPa) = -431.02727 19.40474 -205.81126
#
# Velocity S-wave (km/s) = -14.64788 3.10797 -10.12178
# Velocity P-wave (km/s) = 16.54815 5.97373 10.91228
#
# Compressibility (1/GPa) = 0.04067098
#
# Stress axis : x y z
#
# Youngs Moduli (GPa) = 107.49807 81.60028 20.53658
#
# Poissons Ratio (x) = 0.23550 0.01971
# Poissons Ratio (y) = 0.31024 0.22475
# Poissons Ratio (z) = 0.10319 0.89304
#
# Static dielectric constant tensor:
#      x y z
#    x 1.818630 0.000000 0.000000 
#    y 0.000000 1.740630 0.000000 
#    z 0.000000 0.000000 1.694170 
# 
# From -- ./inp_files/29130.got.cif
#   From: 2010.05.17/outbox.cif.g08.bks.cpg/sg68_15_cif.got.tgz:29130.got - 2010.06.03 18:57:09.
