data_PCOD9506636
_publ_section_title
;
Structure prediction by ZEFSAII (Michael W. Deem and Ramdas Pophale) SiO2 
 PCOD9506636
Probable space group: C C C A
;
_chemical_formula_sum "Si O2"
_cell_formula_units_Z 92
_cell_length_a 7.207431
_cell_length_b 21.357920
_cell_length_c 26.504428
_cell_angle_alpha 90.000000
_cell_angle_beta 90.000000
_cell_angle_gamma 90.000000
_cell_volume 4079.978597
_symmetry_space_group_name_H-M "C C C A"
_symmetry_group_IT_number 68
_space_group.IT_coordinate_system_code '2'
_symmetry_cell_setting 'orthorhombic'
loop_
_space_group_symop_operation_xyz
x,y,z
-x,1/2-y,z
x,1/2-y,1/2-z
-x,y,1/2-z
-x,-y,-z
x,1/2+y,-z
-x,1/2+y,1/2+z
x,-y,1/2+z
1/2+x,1/2+y,z
1/2-x,-y,z
1/2+x,-y,1/2-z
1/2-x,1/2+y,1/2-z
1/2-x,1/2-y,-z
1/2+x,y,-z
1/2-x,y,1/2+z
1/2+x,1/2-y,1/2+z
loop_
_atom_site_type_symbol
_atom_site_label
_atom_site_fract_x
_atom_site_fract_y
_atom_site_fract_z
Si Si1 0.433859 0.134416 0.538359
Si Si2 0.500000 0.250000 0.897411
Si Si3 0.000000 0.250000 0.750000
Si Si4 0.005580 0.627727 0.427128
Si Si5 0.396023 0.944263 0.197730
Si Si6 0.474730 0.988285 0.093233
Si Si7 0.685035 0.320056 0.161756
O O1 0.538047 0.189759 0.567571
O O2 0.225700 0.130737 0.559758
O O3 0.418870 0.149408 0.479450
O O4 0.515740 0.066172 0.552629
O O5 0.672141 0.227909 0.863902
O O6 0.120818 0.292711 0.785932
O O7 0.944416 0.556265 0.418372
O O8 0.009825 0.666304 0.375290
O O9 0.500000 0.929918 0.250000
O O10 0.520488 0.966602 0.150106
O O11 0.288069 0.885022 0.174426
O O12 0.250000 0.000000 0.208222
O O13 0.250000 0.000000 0.092921
#
# Coordination Sequence:
#
# PCOD9506636 Si02
#       7
#    16   8   4  16  16  16  16
#     4  10  20  34  61  92 118 167 201 251 314 385
#     4  10  22  40  64  86 126 170 222 244 312 408
#     4  12  32  40  64  92 128 172 224 270 322 366
#     4  10  20  38  63  87 127 159 206 264 317 378
#     4  11  22  41  71  94 125 165 214 271 329 373
#     4   9  16  37  58  88 122 154 199 255 317 374
#     4  11  25  45  62  92 129 172 212 273 317 379
#
# _framework density 22.549139
#
# number of rings (size 3 to 8) (size 9 to 14) (size 15 to 20)
#    0.000    1.739    6.957    0.522    3.652    4.870 
#    0.000    1.739    0.000    0.000    0.000    0.000 
#    0.000    0.000    0.000    0.000    0.000    0.000 
#
# Total GULP energy -257037.265210 kJ/mol
# GULP energy per Si atom -5587.766635 kJ/mol
# Density = 2.249782 g / cm^3
# Si number density = 22.549139 Si / 1000 Ang^3
#
#
#
# Elastic Constant Matrix: (Units=GPa)
#
#
# Indices 1 2 3 4 5 6 
#
# 1 41.1861 34.5579 27.9624 0.0000 0.0000 0.0000
# 2 34.5579 130.4554 59.2586 0.0000 0.0000 0.0000
# 3 27.9624 59.2586 176.0318 0.0000 0.0000 0.0000
# 4 0.0000 0.0000 0.0000 41.2721 0.0000 0.0000
# 5 0.0000 0.0000 0.0000 0.0000 27.0901 0.0000
# 6 0.0000 0.0000 0.0000 0.0000 0.0000 15.0257
#
#
#
# Elastic Compliance Matrix: (Units=1/GPa)
#
#
# Indices 1 2 3 4 5 6 
#
# 1 0.032234 -0.007335 -0.002651 0.000000 0.000000 0.000000
# 2 -0.007335 0.010718 -0.002443 0.000000 0.000000 0.000000
# 3 -0.002651 -0.002443 0.006924 0.000000 0.000000 0.000000
# 4 0.000000 0.000000 0.000000 0.024229 0.000000 0.000000
# 5 0.000000 0.000000 0.000000 0.000000 0.036914 0.000000
# 6 0.000000 0.000000 0.000000 0.000000 0.000000 0.066553
#
#
# Mechanical properties :
#
#
# Convention : Reuss Voigt Hill
#
# Bulk Modulus (GPa) = 39.96968 65.69236 52.83102
# Shear Modulus (GPa) = 23.72253 31.73720 27.72986
#
# Velocity S-wave (km/s) = 3.24703 3.75569 3.51059
# Velocity P-wave (km/s) = 5.64107 6.92843 6.31763
#
# Compressibility (1/GPa) = 0.02501896
#
# Stress axis : x y z
#
# Youngs Moduli (GPa) = 31.02286 93.29988 144.41783
#
# Poissons Ratio (x) = 0.68432 0.38289
# Poissons Ratio (y) = 0.22754 0.35281
# Poissons Ratio (z) = 0.08225 0.22793
#
# Static dielectric constant tensor:
#      x y z
#    x 1.886990 0.000000 0.000000 
#    y 0.000000 1.899730 0.000000 
#    z 0.000000 0.000000 1.858500 
# 
# From -- ./inp_files/49361.got.cif
#   From: 2010.05.17/outbox.cif.g08.bks.cpg/sg68_25_cif.got.tgz:49361.got - 2010.06.03 18:57:09.
