data_PCOD9506893
_publ_section_title
;
Structure prediction by ZEFSAII (Michael W. Deem and Ramdas Pophale) SiO2 
 PCOD9506893
Probable space group: C C C A
;
_chemical_formula_sum "Si O2"
_cell_formula_units_Z 92
_cell_length_a 17.974723
_cell_length_b 20.614542
_cell_length_c 12.149266
_cell_angle_alpha 90.000000
_cell_angle_beta 90.000000
_cell_angle_gamma 90.000000
_cell_volume 4501.797312
_symmetry_space_group_name_H-M "C C C A"
_symmetry_group_IT_number 68
_space_group.IT_coordinate_system_code '2'
_symmetry_cell_setting 'orthorhombic'
loop_
_space_group_symop_operation_xyz
x,y,z
-x,1/2-y,z
x,1/2-y,1/2-z
-x,y,1/2-z
-x,-y,-z
x,1/2+y,-z
-x,1/2+y,1/2+z
x,-y,1/2+z
1/2+x,1/2+y,z
1/2-x,-y,z
1/2+x,-y,1/2-z
1/2-x,1/2+y,1/2-z
1/2-x,1/2-y,-z
1/2+x,y,-z
1/2-x,y,1/2+z
1/2+x,1/2-y,1/2+z
loop_
_atom_site_type_symbol
_atom_site_label
_atom_site_fract_x
_atom_site_fract_y
_atom_site_fract_z
Si Si1 0.000000 0.250000 0.250000
Si Si2 0.418110 0.508629 0.551723
Si Si3 0.410845 0.254824 0.381946
Si Si4 0.895950 0.143985 0.293002
Si Si5 0.822937 0.636689 0.494998
Si Si6 0.500000 0.030544 0.750000
Si Si7 0.149205 0.367726 0.039608
O O1 0.051918 0.295653 0.321827
O O2 0.500000 0.500000 0.500000
O O3 0.367083 0.570159 0.528597
O O4 0.442009 0.509893 0.679794
O O5 0.375624 0.442167 0.522308
O O6 0.500000 0.250000 0.395562
O O7 0.395656 0.250000 0.250000
O O8 0.367891 0.194993 0.438637
O O9 0.383177 0.319536 0.446636
O O10 0.826270 0.144853 0.372494
O O11 0.946570 0.080768 0.314782
O O12 0.879542 0.148415 0.163358
O O13 0.738117 0.636200 0.458438
#
# Coordination Sequence:
#
# PCOD9506893 Si02
#       7
#     4  16  16  16  16   8  16
#     4  10  20  36  72  88 118 162 218 302 308 380
#     4  11  22  43  69 101 132 179 226 279 335 399
#     4  11  27  47  68 100 135 184 230 273 343 417
#     4  10  22  39  66 100 123 170 232 275 340 386
#     4  12  25  43  70  99 140 178 223 283 347 405
#     4   9  20  39  64 100 129 163 230 280 316 401
#     4  11  26  45  68 100 141 174 227 283 342 412
#
# _framework density 20.436281999999999
#
# number of rings (size 3 to 8) (size 9 to 14) (size 15 to 20)
#    0.000    1.217    1.739    3.130    9.739    2.783 
#    0.000    1.739    0.000    0.000    0.000    0.000 
#    0.000    0.000    0.000    0.000    0.000    0.000 
#
# Total GULP energy -256746.233650 kJ/mol
# GULP energy per Si atom -5581.439862 kJ/mol
# Density = 2.038977 g / cm^3
# Si number density = 20.436282 Si / 1000 Ang^3
#
#
#
# Elastic Constant Matrix: (Units=GPa)
#
#
# Indices 1 2 3 4 5 6 
#
# 1 130.7253 34.9719 31.7296 0.0000 0.0000 0.0000
# 2 34.9719 90.9054 36.7263 0.0000 0.0000 0.0000
# 3 31.7296 36.7263 95.1521 0.0000 0.0000 0.0000
# 4 0.0000 0.0000 0.0000 10.7005 0.0000 0.0000
# 5 0.0000 0.0000 0.0000 0.0000 29.3546 0.0000
# 6 0.0000 0.0000 0.0000 0.0000 0.0000 28.0965
#
#
#
# Elastic Compliance Matrix: (Units=1/GPa)
#
#
# Indices 1 2 3 4 5 6 
#
# 1 0.008817 -0.002611 -0.001932 0.000000 0.000000 0.000000
# 2 -0.002611 0.013806 -0.004458 0.000000 0.000000 0.000000
# 3 -0.001932 -0.004458 0.012875 0.000000 0.000000 0.000000
# 4 0.000000 0.000000 0.000000 0.093453 0.000000 0.000000
# 5 0.000000 0.000000 0.000000 0.000000 0.034066 0.000000
# 6 0.000000 0.000000 0.000000 0.000000 0.000000 0.035592
#
#
# Mechanical properties :
#
#
# Convention : Reuss Voigt Hill
#
# Bulk Modulus (GPa) = 57.16082 58.18204 57.67143
# Shear Modulus (GPa) = 22.47757 27.85400 25.16579
#
# Velocity S-wave (km/s) = 3.32005 3.69585 3.51298
# Velocity P-wave (km/s) = 6.53666 6.83697 6.68850
#
# Compressibility (1/GPa) = 0.01749450
#
# Stress axis : x y z
#
# Youngs Moduli (GPa) = 113.41422 72.43165 77.67290
#
# Poissons Ratio (x) = 0.18915 0.15009
# Poissons Ratio (y) = 0.29617 0.34627
# Poissons Ratio (z) = 0.21915 0.32290
#
# Static dielectric constant tensor:
#      x y z
#    x 1.664240 0.000000 0.000000 
#    y 0.000000 1.710500 0.000000 
#    z 0.000000 0.000000 1.863810 
# 
# From -- ./inp_files/14512.got.cif
#   From: 2010.05.17/outbox.cif.g08.bks.cpg/sg68_8_cif.got.tgz:14512.got - 2010.06.03 18:57:09.
