data_PCOD9506227
_publ_section_title
;
Structure prediction by ZEFSAII (Michael W. Deem and Ramdas Pophale) SiO2 
 PCOD9506227
Probable space group: C C C A
;
_chemical_formula_sum "Si O2"
_cell_formula_units_Z 56
_cell_length_a 7.854524
_cell_length_b 21.917752
_cell_length_c 14.283513
_cell_angle_alpha 90.000000
_cell_angle_beta 90.000000
_cell_angle_gamma 90.000000
_cell_volume 2458.956885
_symmetry_space_group_name_H-M "C C C A"
_symmetry_group_IT_number 68
_space_group.IT_coordinate_system_code '2'
_symmetry_cell_setting 'orthorhombic'
loop_
_space_group_symop_operation_xyz
x,y,z
-x,1/2-y,z
x,1/2-y,1/2-z
-x,y,1/2-z
-x,-y,-z
x,1/2+y,-z
-x,1/2+y,1/2+z
x,-y,1/2+z
1/2+x,1/2+y,z
1/2-x,-y,z
1/2+x,-y,1/2-z
1/2-x,1/2+y,1/2-z
1/2-x,1/2-y,-z
1/2+x,y,-z
1/2-x,y,1/2+z
1/2+x,1/2-y,1/2+z
loop_
_atom_site_type_symbol
_atom_site_label
_atom_site_fract_x
_atom_site_fract_y
_atom_site_fract_z
Si Si1 0.527360 0.347665 0.438290
Si Si2 0.138668 0.698696 0.618489
Si Si3 0.230854 0.067316 0.086445
Si Si4 0.500000 0.405478 0.750000
O O1 0.655464 0.303329 0.382196
O O2 0.410766 0.310186 0.510166
O O3 0.399373 0.394048 0.386728
O O4 0.635448 0.391635 0.508558
O O5 0.099326 0.639478 0.680204
O O6 0.000000 0.750000 0.648977
O O7 0.121145 0.058611 0.180334
O O8 0.250000 0.000000 0.044829
#
# Coordination Sequence:
#
# PCOD9506227 Si02
#       4
#    16  16  16   8
#     4   9  20  35  58  84 106 146 205 242 292 366
#     4  10  19  36  56  78 110 146 186 246 298 348
#     4  10  20  37  57  83 118 155 194 249 301 358
#     4  10  23  34  50  82 114 148 191 234 294 368
#
# _framework density 22.773883999999999
#
# number of rings (size 3 to 8) (size 9 to 14) (size 15 to 20)
#    0.000    2.286    0.000    2.143    0.000    3.429 
#    0.000    2.857    0.000   10.286    0.000    0.000 
#    0.000    0.000    0.000    0.000    0.000    0.000 
#
# Total GULP energy -155878.676456 kJ/mol
# GULP energy per Si atom -5567.095588 kJ/mol
# Density = 2.272205 g / cm^3
# Si number density = 22.773884 Si / 1000 Ang^3
#
#
#
# Elastic Constant Matrix: (Units=GPa)
#
#
# Indices 1 2 3 4 5 6 
#
# 1 109.3100 12.5620 11.3157 0.0000 0.0000 0.0000
# 2 12.5620 60.2541 -7.9167 0.0000 0.0000 0.0000
# 3 11.3157 -7.9167 39.1310 0.0000 0.0000 0.0000
# 4 0.0000 0.0000 0.0000 -3.1134 0.0000 0.0000
# 5 0.0000 0.0000 0.0000 0.0000 -4.8712 0.0000
# 6 0.0000 0.0000 0.0000 0.0000 0.0000 30.8309
#
#
#
# Elastic Compliance Matrix: (Units=1/GPa)
#
#
# Indices 1 2 3 4 5 6 
#
# 1 0.009777 -0.002476 -0.003328 0.000000 0.000000 0.000000
# 2 -0.002476 0.017676 0.004292 0.000000 0.000000 0.000000
# 3 -0.003328 0.004292 0.027386 0.000000 0.000000 0.000000
# 4 0.000000 0.000000 0.000000 -0.321195 0.000000 0.000000
# 5 0.000000 0.000000 0.000000 0.000000 -0.205287 0.000000
# 6 0.000000 0.000000 0.000000 0.000000 0.000000 0.032435
#
#
# Mechanical properties :
#
#
# Convention : Reuss Voigt Hill
#
# Bulk Modulus (GPa) = 19.29905 26.73525 23.01715
# Shear Modulus (GPa) = -11.93570 17.41820 2.74125
#
# Velocity S-wave (km/s) = -2.29180 2.76856 1.09831
# Velocity P-wave (km/s) = 1.22044 4.68880 3.42595
#
# Compressibility (1/GPa) = 0.05181602
#
# Stress axis : x y z
#
# Youngs Moduli (GPa) = 102.27732 56.57247 36.51503
#
# Poissons Ratio (x) = 0.14006 0.12153
# Poissons Ratio (y) = 0.25321 -0.15672
# Poissons Ratio (z) = 0.34040 -0.24281
#
# Static dielectric constant tensor:
#      x y z
#    x 2.176990 0.000000 0.000000 
#    y 0.000000 1.883270 0.000000 
#    z 0.000000 0.000000 1.818460 
# 
# From -- ./inp_files/16843.got.cif
#   From: 2010.05.17/outbox.cif.g08.bks.cpg/sg68_9_cif.got.tgz:16843.got - 2010.06.03 18:57:09.
