data_PCOD9506224
_publ_section_title
;
Structure prediction by ZEFSAII (Michael W. Deem and Ramdas Pophale) SiO2 
 PCOD9506224
Probable space group: C C C A
;
_chemical_formula_sum "Si O2"
_cell_formula_units_Z 108
_cell_length_a 28.287491
_cell_length_b 5.541360
_cell_length_c 30.258771
_cell_angle_alpha 90.000000
_cell_angle_beta 90.000000
_cell_angle_gamma 90.000000
_cell_volume 4743.097791
_symmetry_space_group_name_H-M "C C C A"
_symmetry_group_IT_number 68
_space_group.IT_coordinate_system_code '2'
_symmetry_cell_setting 'orthorhombic'
loop_
_space_group_symop_operation_xyz
x,y,z
-x,1/2-y,z
x,1/2-y,1/2-z
-x,y,1/2-z
-x,-y,-z
x,1/2+y,-z
-x,1/2+y,1/2+z
x,-y,1/2+z
1/2+x,1/2+y,z
1/2-x,-y,z
1/2+x,-y,1/2-z
1/2-x,1/2+y,1/2-z
1/2-x,1/2-y,-z
1/2+x,y,-z
1/2-x,y,1/2+z
1/2+x,1/2-y,1/2+z
loop_
_atom_site_type_symbol
_atom_site_label
_atom_site_fract_x
_atom_site_fract_y
_atom_site_fract_z
Si Si1 0.928553 0.878570 0.021669
Si Si2 0.678407 0.834799 0.486687
Si Si3 0.893207 0.337851 0.880837
Si Si4 0.000000 0.250000 0.250000
Si Si5 0.577001 0.574634 0.707660
Si Si6 0.155723 0.273848 0.180767
Si Si7 0.226454 0.250000 0.250000
Si Si8 0.305984 0.491606 0.898262
O O1 0.925348 0.880886 0.075401
O O2 0.947802 0.625705 0.000969
O O3 0.873329 0.871460 0.007017
O O4 0.701324 0.598389 0.506961
O O5 0.674512 0.804179 0.434533
O O6 0.920098 0.186384 0.841938
O O7 0.875098 0.562186 0.851829
O O8 0.844418 0.209572 0.898399
O O9 0.030700 0.420871 0.281578
O O10 0.582101 0.750000 0.750000
O O11 0.620499 0.392708 0.707735
O O12 0.193231 0.384809 0.213713
O O13 0.187391 0.109648 0.149786
O O14 0.250000 0.500000 0.268716
O O15 0.250000 0.500000 0.906669
#
# Coordination Sequence:
#
# PCOD9506224 Si02
#       8
#    16  16  16   4  16  16   8  16
#     4  10  19  36  61  92 133 179 239 297 342 413
#     4  10  19  36  53  79 118 169 228 298 354 403
#     4  11  23  40  66  94 134 184 237 288 359 414
#     4  12  24  48  76 114 140 164 202 280 358 450
#     4  11  25  45  74 105 139 174 215 281 354 447
#     4  11  25  43  64  90 130 179 231 288 350 416
#     4  12  29  44  64  87 124 183 242 302 353 410
#     4  11  24  36  55  84 125 178 238 300 349 401
#
# _framework density 22.769931
#
# number of rings (size 3 to 8) (size 9 to 14) (size 15 to 20)
#    0.000    1.185    2.963    4.667    9.333    0.593 
#    0.000    0.000    0.000    0.000    0.000    1.037 
#    0.000    0.000    0.000    0.000    0.000    0.000 
#
# Total GULP energy -300842.429295 kJ/mol
# GULP energy per Si atom -5571.156098 kJ/mol
# Density = 2.271811 g / cm^3
# Si number density = 22.769931 Si / 1000 Ang^3
#
#
#
# Elastic Constant Matrix: (Units=GPa)
#
#
# Indices 1 2 3 4 5 6 
#
# 1 61.2007 34.5946 49.6924 0.0000 0.0000 0.0000
# 2 34.5946 139.3545 50.2096 0.0000 0.0000 0.0000
# 3 49.6924 50.2096 136.9928 0.0000 0.0000 0.0000
# 4 0.0000 0.0000 0.0000 12.6619 0.0000 0.0000
# 5 0.0000 0.0000 0.0000 0.0000 21.2319 0.0000
# 6 0.0000 0.0000 0.0000 0.0000 0.0000 26.1697
#
#
#
# Elastic Compliance Matrix: (Units=1/GPa)
#
#
# Indices 1 2 3 4 5 6 
#
# 1 0.024416 -0.003307 -0.007645 0.000000 0.000000 0.000000
# 2 -0.003307 0.008716 -0.001995 0.000000 0.000000 0.000000
# 3 -0.007645 -0.001995 0.010804 0.000000 0.000000 0.000000
# 4 0.000000 0.000000 0.000000 0.078977 0.000000 0.000000
# 5 0.000000 0.000000 0.000000 0.000000 0.047099 0.000000
# 6 0.000000 0.000000 0.000000 0.000000 0.000000 0.038212
#
#
# Mechanical properties :
#
#
# Convention : Reuss Voigt Hill
#
# Bulk Modulus (GPa) = 55.42389 67.39347 61.40868
# Shear Modulus (GPa) = 20.82198 25.54944 23.18571
#
# Velocity S-wave (km/s) = 3.02727 3.35336 3.19448
# Velocity P-wave (km/s) = 6.05085 6.68246 6.37448
#
# Compressibility (1/GPa) = 0.01804276
#
# Stress axis : x y z
#
# Youngs Moduli (GPa) = 40.95660 114.73641 92.56017
#
# Poissons Ratio (x) = 0.37942 0.70759
# Poissons Ratio (y) = 0.13544 0.18464
# Poissons Ratio (z) = 0.31310 0.22888
#
# Static dielectric constant tensor:
#      x y z
#    x 1.903600 0.000000 0.000000 
#    y 0.000000 1.860060 0.000000 
#    z 0.000000 0.000000 1.885830 
# 
# From -- ./inp_files/56314.got.cif
#   From: 2010.05.17/outbox.cif.g08.bks.cpg/sg68_29_cif.got.tgz:56314.got - 2010.06.03 18:57:09.
