data_PCOD9506877
_publ_section_title
;
Structure prediction by ZEFSAII (Michael W. Deem and Ramdas Pophale) SiO2 
 PCOD9506877
Probable space group: C C C A
;
_chemical_formula_sum "Si O2"
_cell_formula_units_Z 104
_cell_length_a 18.804020
_cell_length_b 29.031856
_cell_length_c 9.520343
_cell_angle_alpha 90.000000
_cell_angle_beta 90.000000
_cell_angle_gamma 90.000000
_cell_volume 5197.303769
_symmetry_space_group_name_H-M "C C C A"
_symmetry_group_IT_number 68
_space_group.IT_coordinate_system_code '2'
_symmetry_cell_setting 'orthorhombic'
loop_
_space_group_symop_operation_xyz
x,y,z
-x,1/2-y,z
x,1/2-y,1/2-z
-x,y,1/2-z
-x,-y,-z
x,1/2+y,-z
-x,1/2+y,1/2+z
x,-y,1/2+z
1/2+x,1/2+y,z
1/2-x,-y,z
1/2+x,-y,1/2-z
1/2-x,1/2+y,1/2-z
1/2-x,1/2-y,-z
1/2+x,y,-z
1/2-x,y,1/2+z
1/2+x,1/2-y,1/2+z
loop_
_atom_site_type_symbol
_atom_site_label
_atom_site_fract_x
_atom_site_fract_y
_atom_site_fract_z
Si Si1 0.227848 0.200595 0.436499
Si Si2 0.630748 0.642079 0.890316
Si Si3 0.120436 0.250000 0.250000
Si Si4 0.670011 0.545777 0.538973
Si Si5 0.320054 0.540331 0.627081
Si Si6 0.024175 0.317226 0.402837
Si Si7 0.892762 0.853018 0.420761
O O1 0.250000 0.250000 0.500000
O O2 0.296187 0.171025 0.394773
O O3 0.173189 0.211203 0.309349
O O4 0.181657 0.172142 0.547138
O O5 0.641174 0.588082 0.889934
O O6 0.592554 0.652570 0.743658
O O7 0.584952 0.653965 0.023991
O O8 0.067766 0.269733 0.369498
O O9 0.685292 0.533756 0.703426
O O10 0.640822 0.501283 0.454653
O O11 0.744165 0.549901 0.451009
O O12 0.623499 0.593038 0.539214
O O13 0.000000 0.333027 0.250000
O O14 0.954816 0.326424 0.496985
#
# Coordination Sequence:
#
# PCOD9506877 Si02
#       7
#    16  16   8  16  16  16  16
#     4  12  23  42  68  97 132 169 225 283 334 393
#     4  11  25  44  67 100 133 180 225 284 337 401
#     4  12  25  44  66  98 137 178 230 282 343 404
#     4  10  20  37  61 100 133 176 224 276 342 398
#     4  10  20  36  65  97 139 172 223 284 336 401
#     4  12  26  44  67  92 136 181 223 273 336 413
#     4  11  25  42  67  96 137 177 226 277 337 406
#
# _framework density 20.010375
#
# number of rings (size 3 to 8) (size 9 to 14) (size 15 to 20)
#    0.000    0.923    4.615    3.462    0.000    2.462 
#    0.000    0.769    0.000    0.000    0.000    0.000 
#    0.000    0.000    0.000    0.000    0.000    0.000 
#
# Total GULP energy -289809.052168 kJ/mol
# GULP energy per Si atom -5573.251003 kJ/mol
# Density = 1.996483 g / cm^3
# Si number density = 20.010375 Si / 1000 Ang^3
#
#
#
# Elastic Constant Matrix: (Units=GPa)
#
#
# Indices 1 2 3 4 5 6 
#
# 1 95.9751 36.8669 38.1635 0.0000 0.0000 0.0000
# 2 36.8669 118.6981 42.4226 0.0000 0.0000 0.0000
# 3 38.1635 42.4226 93.1826 0.0000 0.0000 0.0000
# 4 0.0000 0.0000 0.0000 33.7043 0.0000 0.0000
# 5 0.0000 0.0000 0.0000 0.0000 32.5836 0.0000
# 6 0.0000 0.0000 0.0000 0.0000 0.0000 15.1631
#
#
#
# Elastic Compliance Matrix: (Units=1/GPa)
#
#
# Indices 1 2 3 4 5 6 
#
# 1 0.013068 -0.002563 -0.004185 0.000000 0.000000 0.000000
# 2 -0.002563 0.010565 -0.003760 0.000000 0.000000 0.000000
# 3 -0.004185 -0.003760 0.014157 0.000000 0.000000 0.000000
# 4 0.000000 0.000000 0.000000 0.029670 0.000000 0.000000
# 5 0.000000 0.000000 0.000000 0.000000 0.030690 0.000000
# 6 0.000000 0.000000 0.000000 0.000000 0.000000 0.065949
#
#
# Mechanical properties :
#
#
# Convention : Reuss Voigt Hill
#
# Bulk Modulus (GPa) = 59.61730 60.30687 59.96208
# Shear Modulus (GPa) = 26.21816 28.98374 27.60095
#
# Velocity S-wave (km/s) = 3.62363 3.80996 3.71796
# Velocity P-wave (km/s) = 6.88226 7.03972 6.96143
#
# Compressibility (1/GPa) = 0.01677366
#
# Stress axis : x y z
#
# Youngs Moduli (GPa) = 76.52191 94.65553 70.63398
#
# Poissons Ratio (x) = 0.24261 0.29562
# Poissons Ratio (y) = 0.19613 0.26558
# Poissons Ratio (z) = 0.32026 0.35590
#
# Static dielectric constant tensor:
#      x y z
#    x 1.720110 0.000000 0.000000 
#    y 0.000000 2.109580 0.000000 
#    z 0.000000 0.000000 1.692160 
# 
# From -- ./inp_files/7484.got.cif
#   From: 2010.05.17/outbox.cif.g08.bks.cpg/sg68_4_cif.got.tgz:7484.got - 2010.06.03 18:57:09.
