data_PCOD9506904
_publ_section_title
;
Structure prediction by ZEFSAII (Michael W. Deem and Ramdas Pophale) SiO2 
 PCOD9506904
Probable space group: C C C A
;
_chemical_formula_sum "Si O2"
_cell_formula_units_Z 96
_cell_length_a 19.412639
_cell_length_b 19.861454
_cell_length_c 12.739184
_cell_angle_alpha 90.000000
_cell_angle_beta 90.000000
_cell_angle_gamma 90.000000
_cell_volume 4911.761014
_symmetry_space_group_name_H-M "C C C A"
_symmetry_group_IT_number 68
_space_group.IT_coordinate_system_code '2'
_symmetry_cell_setting 'orthorhombic'
loop_
_space_group_symop_operation_xyz
x,y,z
-x,1/2-y,z
x,1/2-y,1/2-z
-x,y,1/2-z
-x,-y,-z
x,1/2+y,-z
-x,1/2+y,1/2+z
x,-y,1/2+z
1/2+x,1/2+y,z
1/2-x,-y,z
1/2+x,-y,1/2-z
1/2-x,1/2+y,1/2-z
1/2-x,1/2-y,-z
1/2+x,y,-z
1/2-x,y,1/2+z
1/2+x,1/2-y,1/2+z
loop_
_atom_site_type_symbol
_atom_site_label
_atom_site_fract_x
_atom_site_fract_y
_atom_site_fract_z
Si Si1 0.771563 0.148582 0.032115
Si Si2 0.692128 0.222178 0.852472
Si Si3 0.423610 0.126038 0.743748
Si Si4 0.888218 0.551543 0.961185
Si Si5 0.686846 0.552779 0.828718
Si Si6 0.566658 0.024114 0.322842
O O1 0.816657 0.210730 0.077055
O O2 0.721955 0.119167 0.123545
O O3 0.731277 0.173310 0.930765
O O4 0.819685 0.087768 0.998919
O O5 0.731655 0.250000 0.750000
O O6 0.628798 0.180443 0.802863
O O7 0.500000 0.155044 0.750000
O O8 0.423267 0.056999 0.676046
O O9 0.408592 0.095219 0.859356
O O10 0.940265 0.547886 0.057494
O O11 0.862374 0.480090 0.917822
O O12 0.750000 0.500000 0.807443
O O13 0.634757 0.556035 0.730946
O O14 0.500000 0.037159 0.250000
#
# Coordination Sequence:
#
# PCOD9506904 Si02
#       6
#    16  16  16  16  16  16
#     4  10  22  37  58  87 116 155 193 247 292 352
#     4  11  22  38  58  85 116 150 202 241 294 336
#     4  10  22  39  60  84 118 156 198 247 286 351
#     4  10  20  37  57  88 118 150 200 240 302 356
#     4   9  20  36  59  87 116 152 196 243 298 347
#     4  10  22  36  60  90 124 157 189 245 305 365
#
# _framework density 19.544926
#
# number of rings (size 3 to 8) (size 9 to 14) (size 15 to 20)
#    0.000    2.000    1.667    1.000    2.333    9.667 
#    0.000    0.000    0.000    0.000    0.000    2.333 
#    0.000    0.000    0.000    0.000    0.000    0.000 
#
# Total GULP energy -267456.359509 kJ/mol
# GULP energy per Si atom -5572.007490 kJ/mol
# Density = 1.950044 g / cm^3
# Si number density = 19.544926 Si / 1000 Ang^3
#
#
#
# Elastic Constant Matrix: (Units=GPa)
#
#
# Indices 1 2 3 4 5 6 
#
# 1 82.9237 32.6170 53.3649 0.0000 0.0000 0.0000
# 2 32.6170 72.3136 46.6525 0.0000 0.0000 0.0000
# 3 53.3649 46.6525 109.0816 0.0000 0.0000 0.0000
# 4 0.0000 0.0000 0.0000 19.0991 0.0000 0.0000
# 5 0.0000 0.0000 0.0000 0.0000 30.6060 0.0000
# 6 0.0000 0.0000 0.0000 0.0000 0.0000 -16.6834
#
#
#
# Elastic Compliance Matrix: (Units=1/GPa)
#
#
# Indices 1 2 3 4 5 6 
#
# 1 0.018187 -0.003402 -0.007443 0.000000 0.000000 0.000000
# 2 -0.003402 0.019734 -0.006776 0.000000 0.000000 0.000000
# 3 -0.007443 -0.006776 0.015706 0.000000 0.000000 0.000000
# 4 0.000000 0.000000 0.000000 0.052358 0.000000 0.000000
# 5 0.000000 0.000000 0.000000 0.000000 0.032673 0.000000
# 6 0.000000 0.000000 0.000000 0.000000 0.000000 -0.059940
#
#
# Mechanical properties :
#
#
# Convention : Reuss Voigt Hill
#
# Bulk Modulus (GPa) = 54.38495 58.84307 56.61401
# Shear Modulus (GPa) = 41.63579 15.38332 28.50956
#
# Velocity S-wave (km/s) = 4.62048 2.80853 3.82339
# Velocity P-wave (km/s) = 7.50674 6.37880 6.96564
#
# Compressibility (1/GPa) = 0.01838744
#
# Stress axis : x y z
#
# Youngs Moduli (GPa) = 54.98475 50.67290 63.66814
#
# Poissons Ratio (x) = 0.17237 0.47385
# Poissons Ratio (y) = 0.18704 0.43141
# Poissons Ratio (z) = 0.40923 0.34336
#
# Static dielectric constant tensor:
#      x y z
#    x 1.726100 0.000000 0.000000 
#    y 0.000000 1.718260 0.000000 
#    z 0.000000 0.000000 1.742250 
# 
# From -- ./inp_files/15563.got.cif
#   From: 2010.05.17/outbox.cif.g08.bks.cpg/sg68_8_cif.got.tgz:15563.got - 2010.06.03 18:57:09.
