data_PCOD9506873
_publ_section_title
;
Structure prediction by ZEFSAII (Michael W. Deem and Ramdas Pophale) SiO2 
 PCOD9506873
Probable space group: C C C A
;
_chemical_formula_sum "Si O2"
_cell_formula_units_Z 104
_cell_length_a 7.961163
_cell_length_b 30.269450
_cell_length_c 21.063113
_cell_angle_alpha 90.000000
_cell_angle_beta 90.000000
_cell_angle_gamma 90.000000
_cell_volume 5075.789505
_symmetry_space_group_name_H-M "C C C A"
_symmetry_group_IT_number 68
_space_group.IT_coordinate_system_code '2'
_symmetry_cell_setting 'orthorhombic'
loop_
_space_group_symop_operation_xyz
x,y,z
-x,1/2-y,z
x,1/2-y,1/2-z
-x,y,1/2-z
-x,-y,-z
x,1/2+y,-z
-x,1/2+y,1/2+z
x,-y,1/2+z
1/2+x,1/2+y,z
1/2-x,-y,z
1/2+x,-y,1/2-z
1/2-x,1/2+y,1/2-z
1/2-x,1/2-y,-z
1/2+x,y,-z
1/2-x,y,1/2+z
1/2+x,1/2-y,1/2+z
loop_
_atom_site_type_symbol
_atom_site_label
_atom_site_fract_x
_atom_site_fract_y
_atom_site_fract_z
Si Si1 0.898362 0.440215 0.383321
Si Si2 0.507159 0.534528 0.864712
Si Si3 0.555873 0.591887 0.527130
Si Si4 0.101013 0.204555 0.412810
Si Si5 0.179688 0.340976 0.494322
Si Si6 0.500000 0.899133 0.750000
Si Si7 0.152723 0.143799 0.297438
O O1 0.704038 0.455509 0.378841
O O2 0.006132 0.481983 0.358190
O O3 0.944776 0.426393 0.455278
O O4 0.910442 0.398421 0.337666
O O5 0.412411 0.551614 0.926839
O O6 0.459341 0.566971 0.807504
O O7 0.678534 0.632580 0.542541
O O8 0.382974 0.618669 0.538707
O O9 0.252607 0.199630 0.463927
O O10 0.166073 0.184063 0.347385
O O11 0.000000 0.250000 0.405494
O O12 0.963907 0.172969 0.446389
O O13 0.666449 0.870209 0.732732
O O14 0.000000 0.154449 0.250000
#
# Coordination Sequence:
#
# PCOD9506873 Si02
#       7
#    16  16  16  16  16   8  16
#     4  10  20  38  57  90 130 170 218 279 321 386
#     4  10  21  35  59  89 131 172 224 268 320 386
#     4  11  18  36  60  92 128 173 210 264 337 389
#     4  11  23  43  68 100 127 164 220 284 351 423
#     4  10  20  36  65  92 129 162 206 270 345 405
#     4  10  24  44  64  95 134 184 225 278 326 406
#     4  11  24  44  68  92 132 181 226 273 344 405
#
# _framework density 20.489424
#
# number of rings (size 3 to 8) (size 9 to 14) (size 15 to 20)
#    0.000    1.538    4.615    1.846    3.231    0.308 
#    0.000    1.538    0.000    0.923    0.000    0.000 
#    0.000    0.000    0.000    0.000    0.000    0.000 
#
# Total GULP energy -289704.672071 kJ/mol
# GULP energy per Si atom -5571.243694 kJ/mol
# Density = 2.044279 g / cm^3
# Si number density = 20.489424 Si / 1000 Ang^3
#
#
#
# Elastic Constant Matrix: (Units=GPa)
#
#
# Indices 1 2 3 4 5 6 
#
# 1 53.1477 16.2000 31.8085 0.0000 0.0000 0.0000
# 2 16.2000 82.5178 7.4124 0.0000 0.0000 0.0000
# 3 31.8085 7.4124 63.1747 0.0000 0.0000 0.0000
# 4 0.0000 0.0000 0.0000 17.7332 0.0000 0.0000
# 5 0.0000 0.0000 0.0000 0.0000 25.1290 0.0000
# 6 0.0000 0.0000 0.0000 0.0000 0.0000 22.7680
#
#
#
# Elastic Compliance Matrix: (Units=1/GPa)
#
#
# Indices 1 2 3 4 5 6 
#
# 1 0.028386 -0.004335 -0.013784 0.000000 0.000000 0.000000
# 2 -0.004335 0.012910 0.000668 0.000000 0.000000 0.000000
# 3 -0.013784 0.000668 0.022691 0.000000 0.000000 0.000000
# 4 0.000000 0.000000 0.000000 0.056391 0.000000 0.000000
# 5 0.000000 0.000000 0.000000 0.000000 0.039795 0.000000
# 6 0.000000 0.000000 0.000000 0.000000 0.000000 0.043921
#
#
# Mechanical properties :
#
#
# Convention : Reuss Voigt Hill
#
# Bulk Modulus (GPa) = 34.38164 34.40913 34.39538
# Shear Modulus (GPa) = 20.10527 22.68733 21.39630
#
# Velocity S-wave (km/s) = 3.13589 3.33118 3.23501
# Velocity P-wave (km/s) = 5.47068 5.62367 5.54771
#
# Compressibility (1/GPa) = 0.02908529
#
# Stress axis : x y z
#
# Youngs Moduli (GPa) = 35.22820 77.46175 44.07035
#
# Poissons Ratio (x) = 0.33577 0.60746
# Poissons Ratio (y) = 0.15270 -0.02943
# Poissons Ratio (z) = 0.48558 -0.05173
#
# Static dielectric constant tensor:
#      x y z
#    x 4.607140 0.000000 0.000000 
#    y 0.000000 1.747730 0.000000 
#    z 0.000000 0.000000 1.745400 
# 
# From -- ./inp_files/36696.got.cif
#   From: 2010.05.17/outbox.cif.g08.bks.cpg/sg68_19_cif.got.tgz:36696.got - 2010.06.03 18:57:09.
