data_PCOD9506775
_publ_section_title
;
Structure prediction by ZEFSAII (Michael W. Deem and Ramdas Pophale) SiO2 
 PCOD9506775
Probable space group: C C C A
;
_chemical_formula_sum "Si O2"
_cell_formula_units_Z 104
_cell_length_a 22.141770
_cell_length_b 18.622083
_cell_length_c 11.615871
_cell_angle_alpha 90.000000
_cell_angle_beta 90.000000
_cell_angle_gamma 90.000000
_cell_volume 4789.524217
_symmetry_space_group_name_H-M "C C C A"
_symmetry_group_IT_number 68
_space_group.IT_coordinate_system_code '2'
_symmetry_cell_setting 'orthorhombic'
loop_
_space_group_symop_operation_xyz
x,y,z
-x,1/2-y,z
x,1/2-y,1/2-z
-x,y,1/2-z
-x,-y,-z
x,1/2+y,-z
-x,1/2+y,1/2+z
x,-y,1/2+z
1/2+x,1/2+y,z
1/2-x,-y,z
1/2+x,-y,1/2-z
1/2-x,1/2+y,1/2-z
1/2-x,1/2-y,-z
1/2+x,y,-z
1/2-x,y,1/2+z
1/2+x,1/2-y,1/2+z
loop_
_atom_site_type_symbol
_atom_site_label
_atom_site_fract_x
_atom_site_fract_y
_atom_site_fract_z
Si Si1 0.121177 0.048913 0.691477
Si Si2 0.000000 0.750000 0.074837
Si Si3 0.789772 0.112346 0.650796
Si Si4 0.651448 0.602970 0.250906
Si Si5 0.000000 0.370250 0.750000
Si Si6 0.190518 0.796833 0.567263
Si Si7 0.711767 0.250000 0.250000
Si Si8 0.614125 0.339777 0.988465
O O1 0.165549 0.052232 0.804104
O O2 0.054669 0.077850 0.717347
O O3 0.135628 0.099928 0.581455
O O4 0.128160 0.963912 0.675176
O O5 0.026008 0.686098 0.155614
O O6 0.051598 0.796902 0.012114
O O7 0.722594 0.101014 0.704076
O O8 0.790825 0.138815 0.519596
O O9 0.822074 0.179373 0.716360
O O10 0.647758 0.669658 0.164107
O O11 0.614452 0.620266 0.365879
O O12 0.245766 0.767147 0.642115
O O13 0.160171 0.726927 0.513679
#
# Coordination Sequence:
#
# PCOD9506775 Si02
#       8
#    16   8  16  16   8  16   8  16
#     4  11  25  43  66  99 133 185 219 277 345 403
#     4   9  20  40  73 102 118 170 233 291 320 388
#     4  11  22  37  66  94 134 176 221 271 337 403
#     4  11  26  42  61 102 140 175 221 273 347 415
#     4   9  20  46  68  96 133 164 238 280 327 404
#     4  11  21  41  65  94 137 172 221 283 324 398
#     4  10  20  36  58 100 126 168 224 264 334 388
#     4  11  22  44  70  97 137 173 230 280 336 401
#
# _framework density 21.714055999999999
#
# number of rings (size 3 to 8) (size 9 to 14) (size 15 to 20)
#    0.000    1.385    3.077    2.769    6.462    2.462 
#    2.769    2.308    0.000    0.000    0.000    0.000 
#    0.000    0.000    0.000    0.000    0.000    0.000 
#
# Total GULP energy -289514.273555 kJ/mol
# GULP energy per Si atom -5567.582184 kJ/mol
# Density = 2.166463 g / cm^3
# Si number density = 21.714056 Si / 1000 Ang^3
#
#
#
# Elastic Constant Matrix: (Units=GPa)
#
#
# Indices 1 2 3 4 5 6 
#
# 1 55.9680 26.7258 37.4154 0.0000 0.0000 0.0000
# 2 26.7258 109.5042 54.1288 0.0000 0.0000 0.0000
# 3 37.4154 54.1288 101.2253 0.0000 0.0000 0.0000
# 4 0.0000 0.0000 0.0000 38.0350 0.0000 0.0000
# 5 0.0000 0.0000 0.0000 0.0000 20.4809 0.0000
# 6 0.0000 0.0000 0.0000 0.0000 0.0000 27.9690
#
#
#
# Elastic Compliance Matrix: (Units=1/GPa)
#
#
# Indices 1 2 3 4 5 6 
#
# 1 0.024051 -0.002006 -0.007817 0.000000 0.000000 0.000000
# 2 -0.002006 0.012580 -0.005986 0.000000 0.000000 0.000000
# 3 -0.007817 -0.005986 0.015969 0.000000 0.000000 0.000000
# 4 0.000000 0.000000 0.000000 0.026292 0.000000 0.000000
# 5 0.000000 0.000000 0.000000 0.000000 0.048826 0.000000
# 6 0.000000 0.000000 0.000000 0.000000 0.000000 0.035754
#
#
# Mechanical properties :
#
#
# Convention : Reuss Voigt Hill
#
# Bulk Modulus (GPa) = 47.65774 55.91528 51.78651
# Shear Modulus (GPa) = 24.74212 27.19215 25.96713
#
# Velocity S-wave (km/s) = 3.37924 3.54260 3.46188
# Velocity P-wave (km/s) = 6.10092 6.52227 6.31511
#
# Compressibility (1/GPa) = 0.02098295
#
# Stress axis : x y z
#
# Youngs Moduli (GPa) = 41.57804 79.48848 62.62022
#
# Poissons Ratio (x) = 0.15944 0.48952
# Poissons Ratio (y) = 0.08340 0.37483
# Poissons Ratio (z) = 0.32503 0.47580
#
# Static dielectric constant tensor:
#      x y z
#    x 1.792140 0.000000 0.000000 
#    y 0.000000 1.878800 0.000000 
#    z 0.000000 0.000000 1.925520 
# 
# From -- ./inp_files/17213.got.cif
#   From: 2010.05.17/outbox.cif.g08.bks.cpg/sg68_9_cif.got.tgz:17213.got - 2010.06.03 18:57:09.
