data_PCOD9506154
_publ_section_title
;
Structure prediction by ZEFSAII (Michael W. Deem and Ramdas Pophale) SiO2 
 PCOD9506154
Probable space group: C C C A
;
_chemical_formula_sum "Si O2"
_cell_formula_units_Z 40
_cell_length_a 14.163126
_cell_length_b 5.216259
_cell_length_c 23.132977
_cell_angle_alpha 90.000000
_cell_angle_beta 90.000000
_cell_angle_gamma 90.000000
_cell_volume 1709.030415
_symmetry_space_group_name_H-M "C C C A"
_symmetry_group_IT_number 68
_space_group.IT_coordinate_system_code '2'
_symmetry_cell_setting 'orthorhombic'
loop_
_space_group_symop_operation_xyz
x,y,z
-x,1/2-y,z
x,1/2-y,1/2-z
-x,y,1/2-z
-x,-y,-z
x,1/2+y,-z
-x,1/2+y,1/2+z
x,-y,1/2+z
1/2+x,1/2+y,z
1/2-x,-y,z
1/2+x,-y,1/2-z
1/2-x,1/2+y,1/2-z
1/2-x,1/2-y,-z
1/2+x,y,-z
1/2-x,y,1/2+z
1/2+x,1/2-y,1/2+z
loop_
_atom_site_type_symbol
_atom_site_label
_atom_site_fract_x
_atom_site_fract_y
_atom_site_fract_z
Si Si1 0.500000 0.250000 0.620116
Si Si2 0.357838 0.030121 0.461948
Si Si3 0.895538 0.994134 0.777355
O O1 0.563541 0.054533 0.583496
O O2 0.424162 0.079406 0.657221
O O3 0.367730 0.816262 0.512955
O O4 0.250000 0.000000 0.439597
O O5 0.845834 0.750000 0.750000
O O6 0.000000 0.998042 0.750000
O O7 0.853717 0.250000 0.750000
#
# Coordination Sequence:
#
# PCOD9506154 Si02
#       3
#     8  16  16
#     4  10  19  34  62  80 108 162 191 224 308 366
#     4  10  22  37  53  82 117 146 192 247 285 344
#     4   8  16  28  45  76 105 127 176 233 267 328
#
# _framework density 23.405086000000001
#
# number of rings (size 3 to 8) (size 9 to 14) (size 15 to 20)
#    0.000    3.200    0.000    1.200    0.000   12.800 
#    0.000    0.000    0.000    9.600    0.000    2.800 
#    0.000    0.000    0.000    0.000    0.000    0.000 
#
# Total GULP energy -111371.282002 kJ/mol
# GULP energy per Si atom -5568.564100 kJ/mol
# Density = 2.335181 g / cm^3
# Si number density = 23.405086 Si / 1000 Ang^3
#
#
#
# Elastic Constant Matrix: (Units=GPa)
#
#
# Indices 1 2 3 4 5 6 
#
# 1 138.4112 31.7202 47.7439 0.0000 0.0000 0.0000
# 2 31.7202 173.1236 17.0704 0.0000 0.0000 0.0000
# 3 47.7439 17.0704 69.0904 0.0000 0.0000 0.0000
# 4 0.0000 0.0000 0.0000 15.7996 0.0000 0.0000
# 5 0.0000 0.0000 0.0000 0.0000 -55.9214 0.0000
# 6 0.0000 0.0000 0.0000 0.0000 0.0000 3.5000
#
#
#
# Elastic Compliance Matrix: (Units=1/GPa)
#
#
# Indices 1 2 3 4 5 6 
#
# 1 0.009702 -0.001144 -0.006422 0.000000 0.000000 0.000000
# 2 -0.001144 0.006055 -0.000705 0.000000 0.000000 0.000000
# 3 -0.006422 -0.000705 0.019086 0.000000 0.000000 0.000000
# 4 0.000000 0.000000 0.000000 0.063293 0.000000 0.000000
# 5 0.000000 0.000000 0.000000 0.000000 -0.017882 0.000000
# 6 0.000000 0.000000 0.000000 0.000000 0.000000 0.285718
#
#
# Mechanical properties :
#
#
# Convention : Reuss Voigt Hill
#
# Bulk Modulus (GPa) = 54.64385 63.74379 59.19382
# Shear Modulus (GPa) = 12.86621 11.61502 12.24061
#
# Velocity S-wave (km/s) = 2.34715 2.23011 2.28938
# Velocity P-wave (km/s) = 5.54465 5.82454 5.68632
#
# Compressibility (1/GPa) = 0.01830032
#
# Stress axis : x y z
#
# Youngs Moduli (GPa) = 103.06824 165.14036 52.39503
#
# Poissons Ratio (x) = 0.18900 0.33647
# Poissons Ratio (y) = 0.11796 0.03695
# Poissons Ratio (z) = 0.66189 0.11647
#
# Static dielectric constant tensor:
#      x y z
#    x 1.788300 0.000000 0.000000 
#    y 0.000000 1.154220 0.000000 
#    z 0.000000 0.000000 1.993610 
# 
# From -- ./inp_files/34664.got.cif
#   From: 2010.05.17/outbox.cif.g08.bks.cpg/sg68_18_cif.got.tgz:34664.got - 2010.06.03 18:57:09.
