data_PCOD9506516
_publ_section_title
;
Structure prediction by ZEFSAII (Michael W. Deem and Ramdas Pophale) SiO2 
 PCOD9506516
Probable space group: C C C A
;
_chemical_formula_sum "Si O2"
_cell_formula_units_Z 88
_cell_length_a 21.179431
_cell_length_b 7.784559
_cell_length_c 26.253081
_cell_angle_alpha 90.000000
_cell_angle_beta 90.000000
_cell_angle_gamma 90.000000
_cell_volume 4328.411890
_symmetry_space_group_name_H-M "C C C A"
_symmetry_group_IT_number 68
_space_group.IT_coordinate_system_code '2'
_symmetry_cell_setting 'orthorhombic'
loop_
_space_group_symop_operation_xyz
x,y,z
-x,1/2-y,z
x,1/2-y,1/2-z
-x,y,1/2-z
-x,-y,-z
x,1/2+y,-z
-x,1/2+y,1/2+z
x,-y,1/2+z
1/2+x,1/2+y,z
1/2-x,-y,z
1/2+x,-y,1/2-z
1/2-x,1/2+y,1/2-z
1/2-x,1/2-y,-z
1/2+x,y,-z
1/2-x,y,1/2+z
1/2+x,1/2-y,1/2+z
loop_
_atom_site_type_symbol
_atom_site_label
_atom_site_fract_x
_atom_site_fract_y
_atom_site_fract_z
Si Si1 0.135493 0.525119 0.882326
Si Si2 0.569187 0.316718 0.537000
Si Si3 0.845907 0.491115 0.457762
Si Si4 0.250000 0.000000 0.541030
Si Si5 0.683322 0.339049 0.352925
Si Si6 0.824100 0.307133 0.308276
O O1 0.075727 0.536706 0.920097
O O2 0.196460 0.562854 0.919464
O O3 0.146040 0.338745 0.857892
O O4 0.135482 0.669237 0.839354
O O5 0.500000 0.250000 0.525294
O O6 0.607523 0.381902 0.488196
O O7 0.608839 0.159659 0.560382
O O8 0.796084 0.412137 0.498701
O O9 0.814156 0.587148 0.410656
O O10 0.752632 0.299982 0.330786
O O11 0.656150 0.495495 0.319044
O O12 0.822778 0.250000 0.250000
#
# Coordination Sequence:
#
# PCOD9506516 Si02
#       6
#    16  16  16   8  16  16
#     4  11  22  39  59  90 130 165 211 259 315 383
#     4  11  24  40  60  90 133 178 224 262 308 371
#     4  11  22  36  59  90 128 170 207 260 313 386
#     4  10  20  32  58  90 122 162 202 246 322 386
#     4  11  23  37  59  92 127 164 208 248 320 393
#     4  11  24  38  60  91 132 166 199 260 329 395
#
# _framework density 20.330783
#
# number of rings (size 3 to 8) (size 9 to 14) (size 15 to 20)
#    0.000    1.091    3.636    3.818    5.091    2.182 
#    0.000    0.000    0.000    0.545    0.000    0.000 
#    5.455    0.000    0.000    0.000    0.000    0.000 
#
# Total GULP energy -245392.718095 kJ/mol
# GULP energy per Si atom -5577.107229 kJ/mol
# Density = 2.028451 g / cm^3
# Si number density = 20.330783 Si / 1000 Ang^3
#
#
#
# Elastic Constant Matrix: (Units=GPa)
#
#
# Indices 1 2 3 4 5 6 
#
# 1 63.9259 26.1743 28.4107 0.0000 0.0000 0.0000
# 2 26.1743 119.4128 44.4169 0.0000 0.0000 0.0000
# 3 28.4107 44.4169 147.4856 0.0000 0.0000 0.0000
# 4 0.0000 0.0000 0.0000 28.0480 0.0000 0.0000
# 5 0.0000 0.0000 0.0000 0.0000 12.8727 0.0000
# 6 0.0000 0.0000 0.0000 0.0000 0.0000 22.3251
#
#
#
# Elastic Compliance Matrix: (Units=1/GPa)
#
#
# Indices 1 2 3 4 5 6 
#
# 1 0.018010 -0.002992 -0.002568 0.000000 0.000000 0.000000
# 2 -0.002992 0.009928 -0.002413 0.000000 0.000000 0.000000
# 3 -0.002568 -0.002413 0.008002 0.000000 0.000000 0.000000
# 4 0.000000 0.000000 0.000000 0.035653 0.000000 0.000000
# 5 0.000000 0.000000 0.000000 0.000000 0.077684 0.000000
# 6 0.000000 0.000000 0.000000 0.000000 0.000000 0.044793
#
#
# Mechanical properties :
#
#
# Convention : Reuss Voigt Hill
#
# Bulk Modulus (GPa) = 50.02089 58.75866 54.38978
# Shear Modulus (GPa) = 23.07541 28.10398 25.58970
#
# Velocity S-wave (km/s) = 3.37263 3.72201 3.55162
# Velocity P-wave (km/s) = 6.31056 6.88732 6.60524
#
# Compressibility (1/GPa) = 0.01999165
#
# Stress axis : x y z
#
# Youngs Moduli (GPa) = 55.52576 100.72601 124.97084
#
# Poissons Ratio (x) = 0.30141 0.32094
# Poissons Ratio (y) = 0.16615 0.30161
# Poissons Ratio (z) = 0.14260 0.24310
#
# Static dielectric constant tensor:
#      x y z
#    x 1.715830 0.000000 0.000000 
#    y 0.000000 1.830330 0.000000 
#    z 0.000000 0.000000 1.715350 
# 
# From -- ./inp_files/46486.got.cif
#   From: 2010.05.17/outbox.cif.g08.bks.cpg/sg68_24_cif.got.tgz:46486.got - 2010.06.03 18:57:09.
