data_PCOD9506741
_publ_section_title
;
Structure prediction by ZEFSAII (Michael W. Deem and Ramdas Pophale) SiO2 
 PCOD9506741
Probable space group: C C C A
;
_chemical_formula_sum "Si O2"
_cell_formula_units_Z 88
_cell_length_a 10.564236
_cell_length_b 23.579353
_cell_length_c 13.870526
_cell_angle_alpha 90.000000
_cell_angle_beta 90.000000
_cell_angle_gamma 90.000000
_cell_volume 3455.118202
_symmetry_space_group_name_H-M "C C C A"
_symmetry_group_IT_number 68
_space_group.IT_coordinate_system_code '2'
_symmetry_cell_setting 'orthorhombic'
loop_
_space_group_symop_operation_xyz
x,y,z
-x,1/2-y,z
x,1/2-y,1/2-z
-x,y,1/2-z
-x,-y,-z
x,1/2+y,-z
-x,1/2+y,1/2+z
x,-y,1/2+z
1/2+x,1/2+y,z
1/2-x,-y,z
1/2+x,-y,1/2-z
1/2-x,1/2+y,1/2-z
1/2-x,1/2-y,-z
1/2+x,y,-z
1/2-x,y,1/2+z
1/2+x,1/2-y,1/2+z
loop_
_atom_site_type_symbol
_atom_site_label
_atom_site_fract_x
_atom_site_fract_y
_atom_site_fract_z
Si Si1 0.135500 0.963553 0.735002
Si Si2 0.361798 0.162722 0.740443
Si Si3 0.870893 0.036281 0.492993
Si Si4 0.827967 0.337897 0.009583
Si Si5 0.893280 0.779663 0.461680
Si Si6 0.168275 0.250000 0.750000
O O1 0.134765 0.900849 0.778856
O O2 0.150749 0.955606 0.621278
O O3 0.000000 0.991803 0.750000
O O4 0.250000 0.000000 0.770779
O O5 0.500000 0.188250 0.750000
O O6 0.339065 0.163734 0.626058
O O7 0.257961 0.200858 0.791909
O O8 0.874124 0.101123 0.531536
O O9 0.750000 0.000000 0.526954
O O10 0.000000 0.000000 0.500000
O O11 0.672446 0.337856 0.998188
O O12 0.947163 0.291672 0.981842
O O13 0.750000 0.750000 0.500000
O O14 0.892565 0.778617 0.343458
#
# Coordination Sequence:
#
# PCOD9506741 Si02
#       6
#    16  16  16  16  16   8
#     4   9  19  39  59  84 117 155 198 247 300 359
#     4   9  18  35  59  81 113 148 193 246 290 351
#     4  10  22  40  61  88 124 160 201 258 307 367
#     4   9  21  38  57  87 113 157 200 245 307 359
#     4  10  21  37  59  81 119 154 194 248 299 371
#     4  10  20  36  52  88 112 148 192 236 304 354
#
# _framework density 25.469460999999999
#
# number of rings (size 3 to 8) (size 9 to 14) (size 15 to 20)
#    0.000    2.545    0.000    0.545    2.545    5.091 
#    9.818    0.000    0.000    0.000    0.000    0.000 
#    0.000    0.000    0.000    0.000    0.000    0.000 
#
# Total GULP energy -244998.657299 kJ/mol
# GULP energy per Si atom -5568.151302 kJ/mol
# Density = 2.541149 g / cm^3
# Si number density = 25.469461 Si / 1000 Ang^3
#
#
#
# Elastic Constant Matrix: (Units=GPa)
#
#
# Indices 1 2 3 4 5 6 
#
# 1 261.4561 117.4721 14.0174 0.0000 0.0000 0.0000
# 2 117.4721 152.7291 3.0418 0.0000 0.0000 0.0000
# 3 14.0174 3.0418 100.9494 0.0000 0.0000 0.0000
# 4 0.0000 0.0000 0.0000 7.5152 0.0000 0.0000
# 5 0.0000 0.0000 0.0000 0.0000 20.8456 0.0000
# 6 0.0000 0.0000 0.0000 0.0000 0.0000 29.6108
#
#
#
# Elastic Compliance Matrix: (Units=1/GPa)
#
#
# Indices 1 2 3 4 5 6 
#
# 1 0.005891 -0.004518 -0.000682 0.000000 0.000000 0.000000
# 2 -0.004518 0.010016 0.000325 0.000000 0.000000 0.000000
# 3 -0.000682 0.000325 0.009991 0.000000 0.000000 0.000000
# 4 0.000000 0.000000 0.000000 0.133064 0.000000 0.000000
# 5 0.000000 0.000000 0.000000 0.000000 0.047972 0.000000
# 6 0.000000 0.000000 0.000000 0.000000 0.000000 0.033771
#
#
# Mechanical properties :
#
#
# Convention : Reuss Voigt Hill
#
# Bulk Modulus (GPa) = 61.92045 87.13302 74.52674
# Shear Modulus (GPa) = 19.54382 36.96787 28.25585
#
# Velocity S-wave (km/s) = 2.77310 3.81393 3.33438
# Velocity P-wave (km/s) = 5.88370 7.32665 6.64446
#
# Compressibility (1/GPa) = 0.01614975
#
# Stress axis : x y z
#
# Youngs Moduli (GPa) = 169.75040 99.84313 100.09180
#
# Poissons Ratio (x) = 0.45104 0.06825
# Poissons Ratio (y) = 0.76685 -0.03258
# Poissons Ratio (z) = 0.11575 -0.03250
#
# Static dielectric constant tensor:
#      x y z
#    x 2.039610 0.000000 0.000000 
#    y 0.000000 1.257820 0.000000 
#    z 0.000000 0.000000 2.043760 
# 
# From -- ./inp_files/20982.got.cif
#   From: 2010.05.17/outbox.cif.g08.bks.cpg/sg68_11_cif.got.tgz:20982.got - 2010.06.03 18:57:09.
