data_PCOD9506319
_publ_section_title
;
Structure prediction by ZEFSAII (Michael W. Deem and Ramdas Pophale) SiO2 
 PCOD9506319
Probable space group: C C C A
;
_chemical_formula_sum "Si O2"
_cell_formula_units_Z 96
_cell_length_a 11.542268
_cell_length_b 27.965755
_cell_length_c 14.965672
_cell_angle_alpha 90.000000
_cell_angle_beta 90.000000
_cell_angle_gamma 90.000000
_cell_volume 4830.742911
_symmetry_space_group_name_H-M "C C C A"
_symmetry_group_IT_number 68
_space_group.IT_coordinate_system_code '2'
_symmetry_cell_setting 'orthorhombic'
loop_
_space_group_symop_operation_xyz
x,y,z
-x,1/2-y,z
x,1/2-y,1/2-z
-x,y,1/2-z
-x,-y,-z
x,1/2+y,-z
-x,1/2+y,1/2+z
x,-y,1/2+z
1/2+x,1/2+y,z
1/2-x,-y,z
1/2+x,-y,1/2-z
1/2-x,1/2+y,1/2-z
1/2-x,1/2-y,-z
1/2+x,y,-z
1/2-x,y,1/2+z
1/2+x,1/2-y,1/2+z
loop_
_atom_site_type_symbol
_atom_site_label
_atom_site_fract_x
_atom_site_fract_y
_atom_site_fract_z
Si Si1 0.250000 0.000000 0.434376
Si Si2 0.226955 0.405027 0.671373
Si Si3 0.000000 0.049231 0.750000
Si Si4 0.454242 0.804251 0.651906
Si Si5 0.913869 0.129220 0.519648
Si Si6 0.736889 0.868877 0.355085
Si Si7 0.590991 0.452489 0.069898
O O1 0.264044 0.955332 0.368883
O O2 0.355879 0.990658 0.502519
O O3 0.199808 0.374191 0.583759
O O4 0.295683 0.382862 0.753455
O O5 0.102276 0.417210 0.714844
O O6 0.045733 0.023243 0.661723
O O7 0.500000 0.750000 0.645434
O O8 0.500000 0.819975 0.750000
O O9 0.510366 0.831148 0.568211
O O10 0.320999 0.822374 0.649226
O O11 0.870734 0.138356 0.420485
O O12 0.989441 0.080593 0.528740
O O13 0.810302 0.913848 0.398188
#
# Coordination Sequence:
#
# PCOD9506319 Si02
#       7
#     8  16   8  16  16  16  16
#     4  12  22  36  54  86 122 158 232 258 294 370
#     4  10  20  36  52  81 110 160 200 253 299 354
#     4   8  18  34  52  70 107 142 200 246 313 342
#     4  10  20  36  65  95 116 151 207 263 317 392
#     4  10  19  37  61  84 121 160 195 251 328 373
#     4  10  19  37  60  81 122 160 196 251 323 374
#     4   9  20  35  56  82 112 159 202 261 302 359
#
# _framework density 19.872720000000001
#
# number of rings (size 3 to 8) (size 9 to 14) (size 15 to 20)
#    0.000    2.167    3.333    1.000    2.333    6.000 
#    3.000    0.000    0.000    0.000    0.000    1.167 
#    0.000    0.000    0.000    0.000    0.000    0.000 
#
# Total GULP energy -267323.435157 kJ/mol
# GULP energy per Si atom -5569.238232 kJ/mol
# Density = 1.982749 g / cm^3
# Si number density = 19.872720 Si / 1000 Ang^3
#
#
#
# Elastic Constant Matrix: (Units=GPa)
#
#
# Indices 1 2 3 4 5 6 
#
# 1 41.7804 22.6613 49.2772 0.0000 0.0000 0.0000
# 2 22.6613 78.6787 45.9834 0.0000 0.0000 0.0000
# 3 49.2772 45.9834 148.8800 0.0000 0.0000 0.0000
# 4 0.0000 0.0000 0.0000 14.5793 0.0000 0.0000
# 5 0.0000 0.0000 0.0000 0.0000 32.3996 0.0000
# 6 0.0000 0.0000 0.0000 0.0000 0.0000 9.6008
#
#
#
# Elastic Compliance Matrix: (Units=1/GPa)
#
#
# Indices 1 2 3 4 5 6 
#
# 1 0.040632 -0.004689 -0.012000 0.000000 0.000000 0.000000
# 2 -0.004689 0.016051 -0.003405 0.000000 0.000000 0.000000
# 3 -0.012000 -0.003405 0.011740 0.000000 0.000000 0.000000
# 4 0.000000 0.000000 0.000000 0.068591 0.000000 0.000000
# 5 0.000000 0.000000 0.000000 0.000000 0.030865 0.000000
# 6 0.000000 0.000000 0.000000 0.000000 0.000000 0.104158
#
#
# Mechanical properties :
#
#
# Convention : Reuss Voigt Hill
#
# Bulk Modulus (GPa) = 35.41948 56.13144 45.77546
# Shear Modulus (GPa) = 15.54549 21.41041 18.47795
#
# Velocity S-wave (km/s) = 2.79991 3.28590 3.05259
# Velocity P-wave (km/s) = 5.32114 6.53475 5.95892
#
# Compressibility (1/GPa) = 0.02823305
#
# Stress axis : x y z
#
# Youngs Moduli (GPa) = 24.61143 62.30202 85.17550
#
# Poissons Ratio (x) = 0.29216 1.02211
# Poissons Ratio (y) = 0.11541 0.29005
# Poissons Ratio (z) = 0.29534 0.21216
#
# Static dielectric constant tensor:
#      x y z
#    x 1.761310 0.000000 0.000000 
#    y 0.000000 1.727250 0.000000 
#    z 0.000000 0.000000 1.771920 
# 
# From -- ./inp_files/21213.got.cif
#   From: 2010.05.17/outbox.cif.g08.bks.cpg/sg68_11_cif.got.tgz:21213.got - 2010.06.03 18:57:09.
