data_PCOD9506846
_publ_section_title
;
Structure prediction by ZEFSAII (Michael W. Deem and Ramdas Pophale) SiO2 
 PCOD9506846
Probable space group: C C C A
;
_chemical_formula_sum "Si O2"
_cell_formula_units_Z 88
_cell_length_a 15.305884
_cell_length_b 13.892817
_cell_length_c 20.942669
_cell_angle_alpha 90.000000
_cell_angle_beta 90.000000
_cell_angle_gamma 90.000000
_cell_volume 4453.287784
_symmetry_space_group_name_H-M "C C C A"
_symmetry_group_IT_number 68
_space_group.IT_coordinate_system_code '2'
_symmetry_cell_setting 'orthorhombic'
loop_
_space_group_symop_operation_xyz
x,y,z
-x,1/2-y,z
x,1/2-y,1/2-z
-x,y,1/2-z
-x,-y,-z
x,1/2+y,-z
-x,1/2+y,1/2+z
x,-y,1/2+z
1/2+x,1/2+y,z
1/2-x,-y,z
1/2+x,-y,1/2-z
1/2-x,1/2+y,1/2-z
1/2-x,1/2-y,-z
1/2+x,y,-z
1/2-x,y,1/2+z
1/2+x,1/2-y,1/2+z
loop_
_atom_site_type_symbol
_atom_site_label
_atom_site_fract_x
_atom_site_fract_y
_atom_site_fract_z
Si Si1 0.453577 0.848556 0.532016
Si Si2 0.449667 0.530877 0.089719
Si Si3 0.221686 0.750000 0.250000
Si Si4 0.373262 0.076762 0.648266
Si Si5 0.171150 0.925468 0.790179
Si Si6 0.813074 0.857987 0.368599
O O1 0.500000 0.750000 0.511678
O O2 0.419269 0.914473 0.473930
O O3 0.372107 0.816625 0.575751
O O4 0.518882 0.922296 0.570809
O O5 0.536588 0.587992 0.112086
O O6 0.382023 0.540889 0.147976
O O7 0.281532 0.677870 0.208437
O O8 0.166659 0.689804 0.300550
O O9 0.384167 0.081577 0.724748
O O10 0.292174 0.142557 0.626272
O O11 0.341699 0.968682 0.634307
O O12 0.250000 0.000000 0.778311
#
# Coordination Sequence:
#
# PCOD9506846 Si02
#       6
#    16  16   8  16  16  16
#     4  10  23  41  60  86 123 161 211 254 303 374
#     4  10  23  41  59  91 121 162 208 253 306 369
#     4  10  20  36  62  94 120 152 202 246 313 375
#     4   9  17  39  63  83 122 154 195 250 313 365
#     4  11  21  38  61  93 125 155 199 257 311 372
#     4   9  18  36  61  87 116 158 194 249 308 366
#
# _framework density 19.760681999999999
#
# number of rings (size 3 to 8) (size 9 to 14) (size 15 to 20)
#    0.000    2.182    3.636    0.545    2.545    2.909 
#    9.818    5.909    0.000    0.000    0.000    0.000 
#    0.000    0.000    0.000    0.000    0.000    0.000 
#
# Total GULP energy -245118.875905 kJ/mol
# GULP energy per Si atom -5570.883543 kJ/mol
# Density = 1.971571 g / cm^3
# Si number density = 19.760682 Si / 1000 Ang^3
#
#
#
# Elastic Constant Matrix: (Units=GPa)
#
#
# Indices 1 2 3 4 5 6 
#
# 1 39.1319 4.9373 23.7998 0.0000 0.0000 0.0000
# 2 4.9373 63.8181 -6.9589 0.0000 0.0000 0.0000
# 3 23.7998 -6.9589 54.7486 0.0000 0.0000 0.0000
# 4 0.0000 0.0000 0.0000 24.3418 0.0000 0.0000
# 5 0.0000 0.0000 0.0000 0.0000 10.5122 0.0000
# 6 0.0000 0.0000 0.0000 0.0000 0.0000 2.4697
#
#
#
# Elastic Compliance Matrix: (Units=1/GPa)
#
#
# Indices 1 2 3 4 5 6 
#
# 1 0.035999 -0.004555 -0.016228 0.000000 0.000000 0.000000
# 2 -0.004555 0.016466 0.004073 0.000000 0.000000 0.000000
# 3 -0.016228 0.004073 0.025838 0.000000 0.000000 0.000000
# 4 0.000000 0.000000 0.000000 0.041082 0.000000 0.000000
# 5 0.000000 0.000000 0.000000 0.000000 0.095128 0.000000
# 6 0.000000 0.000000 0.000000 0.000000 0.000000 0.404903
#
#
# Mechanical properties :
#
#
# Convention : Reuss Voigt Hill
#
# Bulk Modulus (GPa) = 22.28016 22.36164 22.32090
# Shear Modulus (GPa) = 7.48732 16.52610 12.00671
#
# Velocity S-wave (km/s) = 1.94865 2.89504 2.46764
# Velocity P-wave (km/s) = 4.04505 4.74508 4.40898
#
# Compressibility (1/GPa) = 0.04488299
#
# Stress axis : x y z
#
# Youngs Moduli (GPa) = 27.77841 60.73106 38.70332
#
# Poissons Ratio (x) = 0.27661 0.62808
# Poissons Ratio (y) = 0.12652 -0.15763
# Poissons Ratio (z) = 0.45079 -0.24735
#
# Static dielectric constant tensor:
#      x y z
#    x 1.723760 0.000000 0.000000 
#    y 0.000000 1.711590 0.000000 
#    z 0.000000 0.000000 1.720200 
# 
# From -- ./inp_files/38456.got.cif
#   From: 2010.05.17/outbox.cif.g08.bks.cpg/sg68_20_cif.got.tgz:38456.got - 2010.06.03 18:57:09.
