data_PCOD9506955
_publ_section_title
;
Structure prediction by ZEFSAII (Michael W. Deem and Ramdas Pophale) SiO2 
 PCOD9506955
Probable space group: C C C A
;
_chemical_formula_sum "Si O2"
_cell_formula_units_Z 72
_cell_length_a 5.558197
_cell_length_b 24.566570
_cell_length_c 23.673531
_cell_angle_alpha 90.000000
_cell_angle_beta 90.000000
_cell_angle_gamma 90.000000
_cell_volume 3232.522074
_symmetry_space_group_name_H-M "C C C A"
_symmetry_group_IT_number 68
_space_group.IT_coordinate_system_code '2'
_symmetry_cell_setting 'orthorhombic'
loop_
_space_group_symop_operation_xyz
x,y,z
-x,1/2-y,z
x,1/2-y,1/2-z
-x,y,1/2-z
-x,-y,-z
x,1/2+y,-z
-x,1/2+y,1/2+z
x,-y,1/2+z
1/2+x,1/2+y,z
1/2-x,-y,z
1/2+x,-y,1/2-z
1/2-x,1/2+y,1/2-z
1/2-x,1/2-y,-z
1/2+x,y,-z
1/2-x,y,1/2+z
1/2+x,1/2-y,1/2+z
loop_
_atom_site_type_symbol
_atom_site_label
_atom_site_fract_x
_atom_site_fract_y
_atom_site_fract_z
Si Si1 0.119772 0.050236 0.192378
Si Si2 0.000000 0.250000 0.391304
Si Si3 0.950570 0.629650 0.475653
Si Si4 0.790308 0.357976 0.354508
Si Si5 0.000000 0.750000 0.457799
Si Si6 0.500000 0.870021 0.750000
O O1 0.315144 0.092638 0.215218
O O2 0.000000 0.027373 0.250000
O O3 0.924642 0.085162 0.158576
O O4 0.250000 0.000000 0.162111
O O5 0.020201 0.190566 0.362908
O O6 0.260807 0.252101 0.420893
O O7 0.715556 0.606700 0.508841
O O8 0.875580 0.632055 0.409735
O O9 0.984113 0.693605 0.491864
O O10 0.643054 0.340109 0.299114
#
# Coordination Sequence:
#
# PCOD9506955 Si02
#       6
#    16   8  16  16   8   8
#     4  10  20  39  65  96 118 157 216 282 330 377
#     4  10  22  39  63  91 140 173 214 256 322 414
#     4  11  22  37  63  92 129 171 223 275 319 380
#     4  10  24  39  64  95 130 177 214 265 329 391
#     4  10  20  37  62  90 122 172 230 281 310 354
#     4  10  22  40  69  88 130 159 218 270 322 390
#
# _framework density 22.273629
#
# number of rings (size 3 to 8) (size 9 to 14) (size 15 to 20)
#    0.000    1.778    1.111    3.333    9.333    0.889 
#    0.000    6.111    0.000    1.333    0.000    0.000 
#    0.000    0.000    0.000    0.000    0.000    0.000 
#
# Total GULP energy -200802.773144 kJ/mol
# GULP energy per Si atom -5577.854810 kJ/mol
# Density = 2.222293 g / cm^3
# Si number density = 22.273629 Si / 1000 Ang^3
#
#
#
# Elastic Constant Matrix: (Units=GPa)
#
#
# Indices 1 2 3 4 5 6 
#
# 1 158.3699 20.3715 50.7556 0.0000 0.0000 0.0000
# 2 20.3715 43.3935 23.9421 0.0000 0.0000 0.0000
# 3 50.7556 23.9421 87.5787 0.0000 0.0000 0.0000
# 4 0.0000 0.0000 0.0000 19.4415 0.0000 0.0000
# 5 0.0000 0.0000 0.0000 0.0000 41.1994 0.0000
# 6 0.0000 0.0000 0.0000 0.0000 0.0000 31.6596
#
#
#
# Elastic Compliance Matrix: (Units=1/GPa)
#
#
# Indices 1 2 3 4 5 6 
#
# 1 0.007824 -0.001379 -0.004157 0.000000 0.000000 0.000000
# 2 -0.001379 0.027381 -0.006686 0.000000 0.000000 0.000000
# 3 -0.004157 -0.006686 0.015655 0.000000 0.000000 0.000000
# 4 0.000000 0.000000 0.000000 0.051436 0.000000 0.000000
# 5 0.000000 0.000000 0.000000 0.000000 0.024272 0.000000
# 6 0.000000 0.000000 0.000000 0.000000 0.000000 0.031586
#
#
# Mechanical properties :
#
#
# Convention : Reuss Voigt Hill
#
# Bulk Modulus (GPa) = 37.85650 53.27561 45.56605
# Shear Modulus (GPa) = 26.12242 31.41162 28.76702
#
# Velocity S-wave (km/s) = 3.42833 3.75942 3.59768
# Velocity P-wave (km/s) = 5.71876 6.54331 6.14488
#
# Compressibility (1/GPa) = 0.02641554
#
# Stress axis : x y z
#
# Youngs Moduli (GPa) = 127.80966 36.52104 63.87536
#
# Poissons Ratio (x) = 0.05037 0.26555
# Poissons Ratio (y) = 0.17629 0.42708
# Poissons Ratio (z) = 0.53135 0.24418
#
# Static dielectric constant tensor:
#      x y z
#    x 1.903080 0.000000 0.000000 
#    y 0.000000 1.806740 0.000000 
#    z 0.000000 0.000000 1.889530 
# 
# From -- ./inp_files/42270.got.cif
#   From: 2010.05.17/outbox.cif.g08.bks.cpg/sg68_22_cif.got.tgz:42270.got - 2010.06.03 18:57:09.
