data_PCOD9506287
_publ_section_title
;
Structure prediction by ZEFSAII (Michael W. Deem and Ramdas Pophale) SiO2 
 PCOD9506287
Probable space group: C C C A
;
_chemical_formula_sum "Si O2"
_cell_formula_units_Z 112
_cell_length_a 15.769963
_cell_length_b 27.716553
_cell_length_c 12.790940
_cell_angle_alpha 90.000000
_cell_angle_beta 90.000000
_cell_angle_gamma 90.000000
_cell_volume 5590.779369
_symmetry_space_group_name_H-M "C C C A"
_symmetry_group_IT_number 68
_space_group.IT_coordinate_system_code '2'
_symmetry_cell_setting 'orthorhombic'
loop_
_space_group_symop_operation_xyz
x,y,z
-x,1/2-y,z
x,1/2-y,1/2-z
-x,y,1/2-z
-x,-y,-z
x,1/2+y,-z
-x,1/2+y,1/2+z
x,-y,1/2+z
1/2+x,1/2+y,z
1/2-x,-y,z
1/2+x,-y,1/2-z
1/2-x,1/2+y,1/2-z
1/2-x,1/2-y,-z
1/2+x,y,-z
1/2-x,y,1/2+z
1/2+x,1/2-y,1/2+z
loop_
_atom_site_type_symbol
_atom_site_label
_atom_site_fract_x
_atom_site_fract_y
_atom_site_fract_z
Si Si1 0.297463 0.881503 0.312043
Si Si2 0.002540 0.193438 0.916357
Si Si3 0.597853 0.448700 0.655814
Si Si4 0.869963 0.154992 0.758130
Si Si5 0.229029 0.948569 0.484567
Si Si6 0.962021 0.385148 0.436863
Si Si7 0.610064 0.558316 0.633940
O O1 0.338424 0.920703 0.233206
O O2 0.231934 0.844863 0.256393
O O3 0.241231 0.907952 0.399749
O O4 0.378301 0.864712 0.379704
O O5 0.077495 0.178365 0.836552
O O6 0.000000 0.250000 0.935933
O O7 0.912785 0.179489 0.860113
O O8 0.012077 0.160296 0.017793
O O9 0.639369 0.447674 0.539912
O O10 0.512749 0.418623 0.642195
O O11 0.586896 0.505563 0.675974
O O12 0.891120 0.098396 0.776079
O O13 0.297185 0.944798 0.579317
O O14 0.250000 0.000000 0.433224
O O15 0.942307 0.419819 0.536361
#
# Coordination Sequence:
#
# PCOD9506287 Si02
#       7
#    16  16  16  16  16  16  16
#     4  11  22  34  58  87 129 165 197 254 303 364
#     4  10  22  44  71  89 115 153 208 272 324 365
#     4  11  20  36  57  83 129 176 209 239 302 363
#     4  10  19  36  63  94 118 152 204 261 309 360
#     4   9  19  31  49  79 117 166 217 245 279 346
#     4  10  22  40  55  89 123 164 208 256 306 375
#     4   9  19  35  54  84 124 165 212 257 287 356
#
# _framework density 20.032983999999999
#
# number of rings (size 3 to 8) (size 9 to 14) (size 15 to 20)
#    0.000    2.000    1.429    2.571    2.000    0.000 
#   12.857    0.714    3.143    0.857    0.000    0.000 
#    0.000    0.000    0.000    0.000    0.000    0.000 
#
# Total GULP energy -312244.954160 kJ/mol
# GULP energy per Si atom -5575.802753 kJ/mol
# Density = 1.998739 g / cm^3
# Si number density = 20.032984 Si / 1000 Ang^3
#
#
#
# Elastic Constant Matrix: (Units=GPa)
#
#
# Indices 1 2 3 4 5 6 
#
# 1 64.4531 14.5303 3.3869 0.0000 0.0000 0.0000
# 2 14.5303 94.5727 7.2473 0.0000 0.0000 0.0000
# 3 3.3869 7.2473 39.2529 0.0000 0.0000 0.0000
# 4 0.0000 0.0000 0.0000 8.0020 0.0000 0.0000
# 5 0.0000 0.0000 0.0000 0.0000 19.4938 0.0000
# 6 0.0000 0.0000 0.0000 0.0000 0.0000 20.0897
#
#
#
# Elastic Compliance Matrix: (Units=1/GPa)
#
#
# Indices 1 2 3 4 5 6 
#
# 1 0.016106 -0.002402 -0.000946 0.000000 0.000000 0.000000
# 2 -0.002402 0.011084 -0.001839 0.000000 0.000000 0.000000
# 3 -0.000946 -0.001839 0.025897 0.000000 0.000000 0.000000
# 4 0.000000 0.000000 0.000000 0.124969 0.000000 0.000000
# 5 0.000000 0.000000 0.000000 0.000000 0.051298 0.000000
# 6 0.000000 0.000000 0.000000 0.000000 0.000000 0.049777
#
#
# Mechanical properties :
#
#
# Convention : Reuss Voigt Hill
#
# Bulk Modulus (GPa) = 23.41242 27.62307 25.51775
# Shear Modulus (GPa) = 16.46123 21.05803 18.75963
#
# Velocity S-wave (km/s) = 2.86965 3.24569 3.06345
# Velocity P-wave (km/s) = 4.76363 5.27871 5.02777
#
# Compressibility (1/GPa) = 0.04271237
#
# Stress axis : x y z
#
# Youngs Moduli (GPa) = 62.08705 90.22109 38.61445
#
# Poissons Ratio (x) = 0.21672 0.03654
# Poissons Ratio (y) = 0.14914 0.07102
# Poissons Ratio (z) = 0.05875 0.16593
#
# Static dielectric constant tensor:
#      x y z
#    x 1.773250 0.000000 0.000000 
#    y 0.000000 1.687060 0.000000 
#    z 0.000000 0.000000 1.720180 
# 
# From -- ./inp_files/22754.got.cif
#   From: 2010.05.17/outbox.cif.g08.bks.cpg/sg68_12_cif.got.tgz:22754.got - 2010.06.03 18:57:09.
