data_PCOD9506810
_publ_section_title
;
Structure prediction by ZEFSAII (Michael W. Deem and Ramdas Pophale) SiO2 
 PCOD9506810
Probable space group: C C C A
;
_chemical_formula_sum "Si O2"
_cell_formula_units_Z 88
_cell_length_a 13.221918
_cell_length_b 11.595790
_cell_length_c 23.328783
_cell_angle_alpha 90.000000
_cell_angle_beta 90.000000
_cell_angle_gamma 90.000000
_cell_volume 3576.735988
_symmetry_space_group_name_H-M "C C C A"
_symmetry_group_IT_number 68
_space_group.IT_coordinate_system_code '2'
_symmetry_cell_setting 'orthorhombic'
loop_
_space_group_symop_operation_xyz
x,y,z
-x,1/2-y,z
x,1/2-y,1/2-z
-x,y,1/2-z
-x,-y,-z
x,1/2+y,-z
-x,1/2+y,1/2+z
x,-y,1/2+z
1/2+x,1/2+y,z
1/2-x,-y,z
1/2+x,-y,1/2-z
1/2-x,1/2+y,1/2-z
1/2-x,1/2-y,-z
1/2+x,y,-z
1/2-x,y,1/2+z
1/2+x,1/2-y,1/2+z
loop_
_atom_site_type_symbol
_atom_site_label
_atom_site_fract_x
_atom_site_fract_y
_atom_site_fract_z
Si Si1 0.221659 0.884265 0.486562
Si Si2 0.439355 0.411340 0.869570
Si Si3 0.335739 0.186362 0.877385
Si Si4 0.032367 0.868672 0.419324
Si Si5 0.150457 0.159931 0.801835
Si Si6 0.500000 0.525193 0.250000
O O1 0.250000 0.750000 0.500000
O O2 0.281250 0.884460 0.426381
O O3 0.106807 0.911528 0.468563
O O4 0.250000 0.000000 0.521470
O O5 0.351183 0.323961 0.888571
O O6 0.550769 0.359497 0.878998
O O7 0.450501 0.538746 0.897089
O O8 0.439667 0.412205 0.800421
O O9 0.268165 0.162422 0.820754
O O10 0.094043 0.822836 0.362953
O O11 0.000000 0.750000 0.447231
O O12 0.135807 0.250000 0.750000
O O13 0.088702 0.049658 0.779566
#
# Coordination Sequence:
#
# PCOD9506810 Si02
#       6
#    16  16  16  16  16   8
#     4  11  24  47  71 100 130 175 226 287 355 427
#     4  10  21  40  63  95 139 175 230 270 339 403
#     4  10  23  40  65  92 133 178 222 286 340 402
#     4  10  21  41  68  93 133 174 218 278 348 405
#     4  10  20  36  59  92 133 180 226 269 331 399
#     4  10  21  33  60  92 134 178 225 269 316 414
#
# _framework density 24.603438000000001
#
# number of rings (size 3 to 8) (size 9 to 14) (size 15 to 20)
#    0.000    1.818    1.818    2.455    2.545    2.182 
#    3.273    8.182    0.000    0.000    0.000    0.000 
#    0.000    0.000    0.000    0.000    0.000    0.000 
#
# Total GULP energy -244999.550172 kJ/mol
# GULP energy per Si atom -5568.171595 kJ/mol
# Density = 2.454744 g / cm^3
# Si number density = 24.603438 Si / 1000 Ang^3
#
#
#
# Elastic Constant Matrix: (Units=GPa)
#
#
# Indices 1 2 3 4 5 6 
#
# 1 70.3968 32.8470 10.5253 0.0000 0.0000 0.0000
# 2 32.8470 162.7393 25.4310 0.0000 0.0000 0.0000
# 3 10.5253 25.4310 26.9354 0.0000 0.0000 0.0000
# 4 0.0000 0.0000 0.0000 27.4166 0.0000 0.0000
# 5 0.0000 0.0000 0.0000 0.0000 9.1626 0.0000
# 6 0.0000 0.0000 0.0000 0.0000 0.0000 37.9000
#
#
#
# Elastic Compliance Matrix: (Units=1/GPa)
#
#
# Indices 1 2 3 4 5 6 
#
# 1 0.016000 -0.002642 -0.003758 0.000000 0.000000 0.000000
# 2 -0.002642 0.007645 -0.006185 0.000000 0.000000 0.000000
# 3 -0.003758 -0.006185 0.044434 0.000000 0.000000 0.000000
# 4 0.000000 0.000000 0.000000 0.036474 0.000000 0.000000
# 5 0.000000 0.000000 0.000000 0.000000 0.109140 0.000000
# 6 0.000000 0.000000 0.000000 0.000000 0.000000 0.026385
#
#
# Mechanical properties :
#
#
# Convention : Reuss Voigt Hill
#
# Bulk Modulus (GPa) = 23.30536 44.18647 33.74591
# Shear Modulus (GPa) = 17.88587 27.64705 22.76646
#
# Velocity S-wave (km/s) = 2.69916 3.35581 3.04523
# Velocity P-wave (km/s) = 4.38257 5.74576 5.10983
#
# Compressibility (1/GPa) = 0.04290859
#
# Stress axis : x y z
#
# Youngs Moduli (GPa) = 62.50068 130.81052 22.50532
#
# Poissons Ratio (x) = 0.34563 0.08456
# Poissons Ratio (y) = 0.16514 0.13920
# Poissons Ratio (z) = 0.23485 0.80909
#
# Static dielectric constant tensor:
#      x y z
#    x 2.118810 0.000000 0.000000 
#    y 0.000000 2.169660 0.000000 
#    z 0.000000 0.000000 2.034280 
# 
# From -- ./inp_files/50875.got.cif
#   From: 2010.05.17/outbox.cif.g08.bks.cpg/sg68_26_cif.got.tgz:50875.got - 2010.06.03 18:57:09.
