data_PCOD9506731
_publ_section_title
;
Structure prediction by ZEFSAII (Michael W. Deem and Ramdas Pophale) SiO2 
 PCOD9506731
Probable space group: C C C A
;
_chemical_formula_sum "Si O2"
_cell_formula_units_Z 104
_cell_length_a 9.381235
_cell_length_b 29.036390
_cell_length_c 15.529695
_cell_angle_alpha 90.000000
_cell_angle_beta 90.000000
_cell_angle_gamma 90.000000
_cell_volume 4230.245406
_symmetry_space_group_name_H-M "C C C A"
_symmetry_group_IT_number 68
_space_group.IT_coordinate_system_code '2'
_symmetry_cell_setting 'orthorhombic'
loop_
_space_group_symop_operation_xyz
x,y,z
-x,1/2-y,z
x,1/2-y,1/2-z
-x,y,1/2-z
-x,-y,-z
x,1/2+y,-z
-x,1/2+y,1/2+z
x,-y,1/2+z
1/2+x,1/2+y,z
1/2-x,-y,z
1/2+x,-y,1/2-z
1/2-x,1/2+y,1/2-z
1/2-x,1/2-y,-z
1/2+x,y,-z
1/2-x,y,1/2+z
1/2+x,1/2-y,1/2+z
loop_
_atom_site_type_symbol
_atom_site_label
_atom_site_fract_x
_atom_site_fract_y
_atom_site_fract_z
Si Si1 0.391100 0.489091 0.193927
Si Si2 0.423344 0.047806 0.478288
Si Si3 0.857274 0.225109 0.617540
Si Si4 0.500000 0.922962 0.250000
Si Si5 0.862220 0.805828 0.919207
Si Si6 0.808304 0.608399 0.032278
Si Si7 0.346591 0.848646 0.343985
O O1 0.500000 0.460177 0.250000
O O2 0.250000 0.500000 0.246672
O O3 0.343697 0.463396 0.110184
O O4 0.474029 0.537543 0.177139
O O5 0.307657 0.068056 0.542334
O O6 0.537636 0.086907 0.455014
O O7 0.500000 0.000000 0.500000
O O8 0.893514 0.204993 0.520960
O O9 0.727802 0.261740 0.610236
O O10 0.786186 0.184603 0.673013
O O11 0.000000 0.250000 0.648002
O O12 0.375832 0.886740 0.271236
O O13 0.006701 0.819888 0.867961
O O14 0.752375 0.848464 0.916211
O O15 0.813072 0.625659 0.933463
#
# Coordination Sequence:
#
# PCOD9506731 Si02
#       7
#    16  16  16   8  16  16  16
#     4  10  24  43  62  85 124 177 219 269 326 390
#     4  12  23  39  60  92 129 167 218 275 328 375
#     4  10  20  35  63  98 129 158 196 262 332 379
#     4  10  24  42  65  82 126 170 226 257 310 384
#     4  10  20  36  60  95 131 162 203 252 323 388
#     4  11  23  36  63  96 130 163 214 273 322 380
#     4  11  21  40  62  92 126 171 213 260 312 391
#
# _framework density 24.584862000000001
#
# number of rings (size 3 to 8) (size 9 to 14) (size 15 to 20)
#    0.462    0.923    1.538    6.462    2.154    2.462 
#    0.000    1.538    0.000    0.923    0.000    0.000 
#    0.000    0.000    0.000    0.000    0.000    0.000 
#
# Total GULP energy -290084.425821 kJ/mol
# GULP energy per Si atom -5578.546650 kJ/mol
# Density = 2.452891 g / cm^3
# Si number density = 24.584862 Si / 1000 Ang^3
#
#
#
# Elastic Constant Matrix: (Units=GPa)
#
#
# Indices 1 2 3 4 5 6 
#
# 1 115.4828 25.6868 3.4013 0.0000 0.0000 0.0000
# 2 25.6868 102.6816 20.7934 0.0000 0.0000 0.0000
# 3 3.4013 20.7934 21.1860 0.0000 0.0000 0.0000
# 4 0.0000 0.0000 0.0000 12.1018 0.0000 0.0000
# 5 0.0000 0.0000 0.0000 0.0000 22.9051 0.0000
# 6 0.0000 0.0000 0.0000 0.0000 0.0000 60.5481
#
#
#
# Elastic Compliance Matrix: (Units=1/GPa)
#
#
# Indices 1 2 3 4 5 6 
#
# 1 0.009186 -0.002495 0.000974 0.000000 0.000000 0.000000
# 2 -0.002495 0.012832 -0.012194 0.000000 0.000000 0.000000
# 3 0.000974 -0.012194 0.059012 0.000000 0.000000 0.000000
# 4 0.000000 0.000000 0.000000 0.082632 0.000000 0.000000
# 5 0.000000 0.000000 0.000000 0.000000 0.043658 0.000000
# 6 0.000000 0.000000 0.000000 0.000000 0.000000 0.016516
#
#
# Mechanical properties :
#
#
# Convention : Reuss Voigt Hill
#
# Bulk Modulus (GPa) = 18.65651 37.67926 28.16789
# Shear Modulus (GPa) = 18.57817 31.74228 25.16023
#
# Velocity S-wave (km/s) = 2.75194 3.59713 3.20254
# Velocity P-wave (km/s) = 4.20745 5.71069 5.01570
#
# Compressibility (1/GPa) = 0.05360060
#
# Stress axis : x y z
#
# Youngs Moduli (GPa) = 108.86603 77.92819 16.94560
#
# Poissons Ratio (x) = 0.19444 -0.01651
# Poissons Ratio (y) = 0.27164 0.20663
# Poissons Ratio (z) = -0.10606 0.95025
#
# Static dielectric constant tensor:
#      x y z
#    x 1.921440 0.000000 0.000000 
#    y 0.000000 1.972790 0.000000 
#    z 0.000000 0.000000 2.013310 
# 
# From -- ./inp_files/36694.got.cif
#   From: 2010.05.17/outbox.cif.g08.bks.cpg/sg68_19_cif.got.tgz:36694.got - 2010.06.03 18:57:09.
