data_PCOD9506163
_publ_section_title
;
Structure prediction by ZEFSAII (Michael W. Deem and Ramdas Pophale) SiO2 
 PCOD9506163
Probable space group: C C C A
;
_chemical_formula_sum "Si O2"
_cell_formula_units_Z 92
_cell_length_a 27.170721
_cell_length_b 16.687353
_cell_length_c 9.442581
_cell_angle_alpha 90.000000
_cell_angle_beta 90.000000
_cell_angle_gamma 90.000000
_cell_volume 4281.336219
_symmetry_space_group_name_H-M "C C C A"
_symmetry_group_IT_number 68
_space_group.IT_coordinate_system_code '2'
_symmetry_cell_setting 'orthorhombic'
loop_
_space_group_symop_operation_xyz
x,y,z
-x,1/2-y,z
x,1/2-y,1/2-z
-x,y,1/2-z
-x,-y,-z
x,1/2+y,-z
-x,1/2+y,1/2+z
x,-y,1/2+z
1/2+x,1/2+y,z
1/2-x,-y,z
1/2+x,-y,1/2-z
1/2-x,1/2+y,1/2-z
1/2-x,1/2-y,-z
1/2+x,y,-z
1/2-x,y,1/2+z
1/2+x,1/2-y,1/2+z
loop_
_atom_site_type_symbol
_atom_site_label
_atom_site_fract_x
_atom_site_fract_y
_atom_site_fract_z
Si Si1 0.086406 0.327070 0.441992
Si Si2 0.250000 0.000000 0.488303
Si Si3 0.444279 0.151196 0.259624
Si Si4 0.219133 0.397543 0.773227
Si Si5 0.500000 0.750000 0.250000
Si Si6 0.863470 0.336993 0.556422
Si Si7 0.670458 0.846060 0.247052
O O1 0.073688 0.372375 0.585185
O O2 0.038025 0.299592 0.351875
O O3 0.114560 0.247416 0.500570
O O4 0.125565 0.372614 0.345007
O O5 0.212507 0.037038 0.603084
O O6 0.277783 0.061627 0.381350
O O7 0.444028 0.250000 0.250000
O O8 0.500000 0.125129 0.250000
O O9 0.409331 0.121540 0.134145
O O10 0.177987 0.333983 0.819836
O O11 0.274627 0.366468 0.793625
O O12 0.840641 0.372514 0.412840
O O13 0.668857 0.750000 0.250000
#
# Coordination Sequence:
#
# PCOD9506163 Si02
#       7
#    16   8  16  16   4  16  16
#     4  10  20  30  51  80 117 156 190 223 289 343
#     4  10  24  40  58  80 102 154 200 248 286 334
#     4   9  18  30  48  76 114 151 188 227 276 342
#     4  11  22  40  60  78 117 144 199 242 291 347
#     4  12  16  32  54  72 128 164 194 232 258 372
#     4  10  19  35  51  79 113 149 188 235 282 351
#     4  10  21  35  52  86 117 155 184 225 295 357
#
# _framework density 21.488617999999999
#
# number of rings (size 3 to 8) (size 9 to 14) (size 15 to 20)
#    0.000    1.913    4.348    2.087    2.435    4.870 
#    0.000    0.000    0.000    0.000    0.000    1.217 
#   10.435    0.174    0.000    0.000    0.000    0.000 
#
# Total GULP energy -256079.527448 kJ/mol
# GULP energy per Si atom -5566.946249 kJ/mol
# Density = 2.143971 g / cm^3
# Si number density = 21.488618 Si / 1000 Ang^3
#
#
#
# Elastic Constant Matrix: (Units=GPa)
#
#
# Indices 1 2 3 4 5 6 
#
# 1 144.7677 1.1961 37.3836 0.0000 0.0000 0.0000
# 2 1.1961 9.5060 10.4162 0.0000 0.0000 0.0000
# 3 37.3836 10.4162 100.9777 0.0000 0.0000 0.0000
# 4 0.0000 0.0000 0.0000 14.2789 0.0000 0.0000
# 5 0.0000 0.0000 0.0000 0.0000 42.5001 0.0000
# 6 0.0000 0.0000 0.0000 0.0000 0.0000 -12.3891
#
#
#
# Elastic Compliance Matrix: (Units=1/GPa)
#
#
# Indices 1 2 3 4 5 6 
#
# 1 0.007687 0.002425 -0.003096 0.000000 0.000000 0.000000
# 2 0.002425 0.119368 -0.013211 0.000000 0.000000 0.000000
# 3 -0.003096 -0.013211 0.012412 0.000000 0.000000 0.000000
# 4 0.000000 0.000000 0.000000 0.070033 0.000000 0.000000
# 5 0.000000 0.000000 0.000000 0.000000 0.023529 0.000000
# 6 0.000000 0.000000 0.000000 0.000000 0.000000 -0.080716
#
#
# Mechanical properties :
#
#
# Convention : Reuss Voigt Hill
#
# Bulk Modulus (GPa) = 8.95230 39.24924 24.10077
# Shear Modulus (GPa) = 23.00848 22.62837 22.81842
#
# Velocity S-wave (km/s) = 3.27575 3.24858 3.26219
# Velocity P-wave (km/s) = 4.29913 5.68997 5.04273
#
# Compressibility (1/GPa) = 0.11170319
#
# Stress axis : x y z
#
# Youngs Moduli (GPa) = 130.08846 8.37748 80.56625
#
# Poissons Ratio (x) = -0.02032 0.24944
# Poissons Ratio (y) = -0.31550 1.06436
# Poissons Ratio (z) = 0.40276 0.11068
#
# Static dielectric constant tensor:
#      x y z
#    x 1.902780 0.000000 0.000000 
#    y 0.000000 1.894410 0.000000 
#    z 0.000000 0.000000 1.829150 
# 
# From -- ./inp_files/8042.got.cif
#   From: 2010.05.17/outbox.cif.g08.bks.cpg/sg68_5_cif.got.tgz:8042.got - 2010.06.03 18:57:09.
