data_PCOD9506164
_publ_section_title
;
Structure prediction by ZEFSAII (Michael W. Deem and Ramdas Pophale) SiO2 
 PCOD9506164
Probable space group: C C C A
;
_chemical_formula_sum "Si O2"
_cell_formula_units_Z 88
_cell_length_a 25.174515
_cell_length_b 19.784876
_cell_length_c 8.154271
_cell_angle_alpha 90.000000
_cell_angle_beta 90.000000
_cell_angle_gamma 90.000000
_cell_volume 4061.435737
_symmetry_space_group_name_H-M "C C C A"
_symmetry_group_IT_number 68
_space_group.IT_coordinate_system_code '2'
_symmetry_cell_setting 'orthorhombic'
loop_
_space_group_symop_operation_xyz
x,y,z
-x,1/2-y,z
x,1/2-y,1/2-z
-x,y,1/2-z
-x,-y,-z
x,1/2+y,-z
-x,1/2+y,1/2+z
x,-y,1/2+z
1/2+x,1/2+y,z
1/2-x,-y,z
1/2+x,-y,1/2-z
1/2-x,1/2+y,1/2-z
1/2-x,1/2-y,-z
1/2+x,y,-z
1/2-x,y,1/2+z
1/2+x,1/2-y,1/2+z
loop_
_atom_site_type_symbol
_atom_site_label
_atom_site_fract_x
_atom_site_fract_y
_atom_site_fract_z
Si Si1 0.500000 0.050612 0.250000
Si Si2 0.166481 0.783067 0.920259
Si Si3 0.710926 0.329363 0.380186
Si Si4 0.574644 0.956410 0.471908
Si Si5 0.135316 0.576433 0.653003
Si Si6 0.239275 0.074864 0.162628
O O1 0.458449 0.082200 0.383748
O O2 0.535020 0.002556 0.365160
O O3 0.146963 0.750000 0.750000
O O4 0.228923 0.799761 0.882149
O O5 0.133862 0.852175 0.941426
O O6 0.171139 0.730784 0.071552
O O7 0.711331 0.378940 0.223351
O O8 0.709326 0.380478 0.530643
O O9 0.605401 0.916723 0.328615
O O10 0.612712 0.011289 0.560274
O O11 0.197412 0.565329 0.690182
O O12 0.250000 0.000000 0.104724
#
# Coordination Sequence:
#
# PCOD9506164 Si02
#       6
#     8  16  16  16  16  16
#     4   8  16  36  62  80 112 140 162 220 316 382
#     4  10  19  35  52  70 105 154 202 232 256 314
#     4  10  20  36  51  70 102 159 208 230 260 328
#     4   9  18  34  57  89 111 136 175 235 297 359
#     4  10  21  32  52  83 116 138 192 243 273 328
#     4  11  23  33  53  77 117 159 192 240 287 309
#
# _framework density 21.667214999999999
#
# number of rings (size 3 to 8) (size 9 to 14) (size 15 to 20)
#    0.000    2.182    3.636    0.545    7.636    0.000 
#    0.000    0.000    8.000    0.000    0.000   24.182 
#    0.000    0.000    0.000    0.000    0.000    0.000 
#
# Total GULP energy -245101.824780 kJ/mol
# GULP energy per Si atom -5570.496018 kJ/mol
# Density = 2.161790 g / cm^3
# Si number density = 21.667215 Si / 1000 Ang^3
#
#
#
# Elastic Constant Matrix: (Units=GPa)
#
#
# Indices 1 2 3 4 5 6 
#
# 1 49.0830 24.1598 27.2165 0.0000 0.0000 0.0000
# 2 24.1598 116.4296 42.3602 0.0000 0.0000 0.0000
# 3 27.2165 42.3602 110.1360 0.0000 0.0000 0.0000
# 4 0.0000 0.0000 0.0000 33.9644 0.0000 0.0000
# 5 0.0000 0.0000 0.0000 0.0000 44.0635 0.0000
# 6 0.0000 0.0000 0.0000 0.0000 0.0000 5.4751
#
#
#
# Elastic Compliance Matrix: (Units=1/GPa)
#
#
# Indices 1 2 3 4 5 6 
#
# 1 0.024700 -0.003377 -0.004805 0.000000 0.000000 0.000000
# 2 -0.003377 0.010448 -0.003184 0.000000 0.000000 0.000000
# 3 -0.004805 -0.003184 0.011492 0.000000 0.000000 0.000000
# 4 0.000000 0.000000 0.000000 0.029443 0.000000 0.000000
# 5 0.000000 0.000000 0.000000 0.000000 0.022695 0.000000
# 6 0.000000 0.000000 0.000000 0.000000 0.000000 0.182647
#
#
# Mechanical properties :
#
#
# Convention : Reuss Voigt Hill
#
# Bulk Modulus (GPa) = 41.82735 51.45797 46.64266
# Shear Modulus (GPa) = 16.01920 28.82806 22.42363
#
# Velocity S-wave (km/s) = 2.72201 3.65155 3.22049
# Velocity P-wave (km/s) = 5.40606 6.44819 5.94999
#
# Compressibility (1/GPa) = 0.02390780
#
# Stress axis : x y z
#
# Youngs Moduli (GPa) = 40.48527 95.71128 87.01969
#
# Poissons Ratio (x) = 0.32325 0.41812
# Poissons Ratio (y) = 0.13673 0.27706
# Poissons Ratio (z) = 0.19453 0.30474
#
# Static dielectric constant tensor:
#      x y z
#    x 1.846490 0.000000 0.000000 
#    y 0.000000 1.826150 0.000000 
#    z 0.000000 0.000000 1.928020 
# 
# From -- ./inp_files/7447.got.cif
#   From: 2010.05.17/outbox.cif.g08.bks.cpg/sg68_4_cif.got.tgz:7447.got - 2010.06.03 18:57:09.
