data_PCOD9506178
_publ_section_title
;
Structure prediction by ZEFSAII (Michael W. Deem and Ramdas Pophale) SiO2 
 PCOD9506178
Probable space group: C C C A
;
_chemical_formula_sum "Si O2"
_cell_formula_units_Z 104
_cell_length_a 8.568811
_cell_length_b 31.594258
_cell_length_c 18.664663
_cell_angle_alpha 90.000000
_cell_angle_beta 90.000000
_cell_angle_gamma 90.000000
_cell_volume 5052.995099
_symmetry_space_group_name_H-M "C C C A"
_symmetry_group_IT_number 68
_space_group.IT_coordinate_system_code '2'
_symmetry_cell_setting 'orthorhombic'
loop_
_space_group_symop_operation_xyz
x,y,z
-x,1/2-y,z
x,1/2-y,1/2-z
-x,y,1/2-z
-x,-y,-z
x,1/2+y,-z
-x,1/2+y,1/2+z
x,-y,1/2+z
1/2+x,1/2+y,z
1/2-x,-y,z
1/2+x,-y,1/2-z
1/2-x,1/2+y,1/2-z
1/2-x,1/2-y,-z
1/2+x,y,-z
1/2-x,y,1/2+z
1/2+x,1/2-y,1/2+z
loop_
_atom_site_type_symbol
_atom_site_label
_atom_site_fract_x
_atom_site_fract_y
_atom_site_fract_z
Si Si1 0.973020 0.398984 0.959343
Si Si2 0.000000 0.353123 0.750000
Si Si3 0.051257 0.576308 0.872536
Si Si4 0.761466 0.870659 0.643734
Si Si5 0.511048 0.799422 0.163645
Si Si6 0.061478 0.491677 0.580363
Si Si7 0.279631 0.646419 0.869671
O O1 0.808595 0.380454 0.933667
O O2 0.981889 0.442549 0.913050
O O3 0.106258 0.366438 0.934327
O O4 0.964810 0.410693 0.042744
O O5 0.120937 0.376776 0.698875
O O6 0.114475 0.332012 0.808006
O O7 0.204306 0.600931 0.846511
O O8 0.902351 0.598369 0.836905
O O9 0.028877 0.525930 0.870942
O O10 0.829359 0.823398 0.644693
O O11 0.500000 0.750000 0.147719
O O12 0.500000 0.804934 0.250000
O O13 0.371319 0.824049 0.123093
O O14 0.250000 0.500000 0.584269
O O15 0.000000 0.500000 0.500000
#
# Coordination Sequence:
#
# PCOD9506178 Si02
#       7
#    16   8  16  16  16  16  16
#     4  10  20  34  56  86 119 146 190 233 284 329
#     4  10  20  36  53  84 108 144 184 228 294 314
#     4  10  20  33  58  85 112 155 192 229 280 325
#     4  10  19  35  57  79 116 147 178 236 275 353
#     4  10  20  38  61  86 109 137 191 242 286 334
#     4  10  20  32  51  83 121 147 195 247 273 307
#     4  10  21  35  58  81 115 151 179 236 283 349
#
# _framework density 20.581852999999999
#
# number of rings (size 3 to 8) (size 9 to 14) (size 15 to 20)
#    0.000    2.000    3.077    0.923    6.462    0.000 
#    0.000    3.846    0.000   29.538    4.000    0.000 
#    0.000    0.000    0.000    0.000    0.000    0.000 
#
# Total GULP energy -289542.036009 kJ/mol
# GULP energy per Si atom -5568.116077 kJ/mol
# Density = 2.053501 g / cm^3
# Si number density = 20.581853 Si / 1000 Ang^3
#
#
#
# Elastic Constant Matrix: (Units=GPa)
#
#
# Indices 1 2 3 4 5 6 
#
# 1 78.4717 17.5716 13.0271 0.0000 0.0000 0.0000
# 2 17.5716 122.5907 13.9683 0.0000 0.0000 0.0000
# 3 13.0271 13.9683 34.3941 0.0000 0.0000 0.0000
# 4 0.0000 0.0000 0.0000 16.8922 0.0000 0.0000
# 5 0.0000 0.0000 0.0000 0.0000 43.1293 0.0000
# 6 0.0000 0.0000 0.0000 0.0000 0.0000 18.0894
#
#
#
# Elastic Compliance Matrix: (Units=1/GPa)
#
#
# Indices 1 2 3 4 5 6 
#
# 1 0.013841 -0.001454 -0.004652 0.000000 0.000000 0.000000
# 2 -0.001454 0.008706 -0.002985 0.000000 0.000000 0.000000
# 3 -0.004652 -0.002985 0.032049 0.000000 0.000000 0.000000
# 4 0.000000 0.000000 0.000000 0.059199 0.000000 0.000000
# 5 0.000000 0.000000 0.000000 0.000000 0.023186 0.000000
# 6 0.000000 0.000000 0.000000 0.000000 0.000000 0.055281
#
#
# Mechanical properties :
#
#
# Convention : Reuss Voigt Hill
#
# Bulk Modulus (GPa) = 27.46177 36.06560 31.76368
# Shear Modulus (GPa) = 22.46363 28.34814 25.40589
#
# Velocity S-wave (km/s) = 3.30726 3.71528 3.51719
# Velocity P-wave (km/s) = 5.28731 5.99712 5.65336
#
# Compressibility (1/GPa) = 0.03641426
#
# Stress axis : x y z
#
# Youngs Moduli (GPa) = 72.24758 114.86691 31.20221
#
# Poissons Ratio (x) = 0.16700 0.14516
# Poissons Ratio (y) = 0.10504 0.09314
# Poissons Ratio (z) = 0.33610 0.34287
#
# Static dielectric constant tensor:
#      x y z
#    x 1.769370 0.000000 0.000000 
#    y 0.000000 1.750630 0.000000 
#    z 0.000000 0.000000 1.885360 
# 
# From -- ./inp_files/36705.got.cif
#   From: 2010.05.17/outbox.cif.g08.bks.cpg/sg68_19_cif.got.tgz:36705.got - 2010.06.03 18:57:09.
