data_PCOD9506734
_publ_section_title
;
Structure prediction by ZEFSAII (Michael W. Deem and Ramdas Pophale) SiO2 
 PCOD9506734
Probable space group: C C C A
;
_chemical_formula_sum "Si O2"
_cell_formula_units_Z 52
_cell_length_a 9.188910
_cell_length_b 13.233396
_cell_length_c 16.320903
_cell_angle_alpha 90.000000
_cell_angle_beta 90.000000
_cell_angle_gamma 90.000000
_cell_volume 1984.629718
_symmetry_space_group_name_H-M "C C C A"
_symmetry_group_IT_number 68
_space_group.IT_coordinate_system_code '2'
_symmetry_cell_setting 'orthorhombic'
loop_
_space_group_symop_operation_xyz
x,y,z
-x,1/2-y,z
x,1/2-y,1/2-z
-x,y,1/2-z
-x,-y,-z
x,1/2+y,-z
-x,1/2+y,1/2+z
x,-y,1/2+z
1/2+x,1/2+y,z
1/2-x,-y,z
1/2+x,-y,1/2-z
1/2-x,1/2+y,1/2-z
1/2-x,1/2-y,-z
1/2+x,y,-z
1/2-x,y,1/2+z
1/2+x,1/2-y,1/2+z
loop_
_atom_site_type_symbol
_atom_site_label
_atom_site_fract_x
_atom_site_fract_y
_atom_site_fract_z
Si Si1 0.500000 0.250000 0.250000
Si Si2 0.739317 0.621585 0.286349
Si Si3 0.359860 0.098643 0.956811
Si Si4 0.683895 0.889563 0.397296
O O1 0.395786 0.172990 0.296055
O O2 0.750000 0.500000 0.287092
O O3 0.662193 0.652496 0.369813
O O4 0.675173 0.650071 0.196703
O O5 0.534780 0.091453 0.948395
O O6 0.250000 0.000000 0.952478
O O7 0.304300 0.153705 0.039079
O O8 0.750000 0.000000 0.380754
#
# Coordination Sequence:
#
# PCOD9506734 Si02
#       4
#     4  16  16  16
#     4  12  28  48  78 114 148 194 258 300 364 454
#     4  10  25  42  75 103 148 196 243 302 376 427
#     4  10  20  35  65 104 144 193 248 298 368 443
#     4  10  20  35  65 104 144 193 248 298 368 443
#
# _framework density 26.201362
#
# number of rings (size 3 to 8) (size 9 to 14) (size 15 to 20)
#    0.000    1.846    0.000    4.615   21.538    0.000 
#    0.000    4.615    0.000    0.000    0.000    0.000 
#    0.000    0.000    0.000    0.000    0.000    0.000 
#
# Total GULP energy -144743.545496 kJ/mol
# GULP energy per Si atom -5567.059442 kJ/mol
# Density = 2.614173 g / cm^3
# Si number density = 26.201362 Si / 1000 Ang^3
#
#
#
# Elastic Constant Matrix: (Units=GPa)
#
#
# Indices 1 2 3 4 5 6 
#
# 1 185.7089 -6.8743 64.0242 0.0000 0.0000 0.0000
# 2 -6.8743 79.2967 -1.5507 0.0000 0.0000 0.0000
# 3 64.0242 -1.5507 266.7795 0.0000 0.0000 0.0000
# 4 0.0000 0.0000 0.0000 -9.8656 0.0000 0.0000
# 5 0.0000 0.0000 0.0000 0.0000 32.7666 0.0000
# 6 0.0000 0.0000 0.0000 0.0000 0.0000 42.2418
#
#
#
# Elastic Compliance Matrix: (Units=1/GPa)
#
#
# Indices 1 2 3 4 5 6 
#
# 1 0.005889 0.000483 -0.001410 0.000000 0.000000 0.000000
# 2 0.000483 0.012652 -0.000042 0.000000 0.000000 0.000000
# 3 -0.001410 -0.000042 0.004087 0.000000 0.000000 0.000000
# 4 0.000000 0.000000 0.000000 -0.101362 0.000000 0.000000
# 5 0.000000 0.000000 0.000000 0.000000 0.030519 0.000000
# 6 0.000000 0.000000 0.000000 0.000000 0.000000 0.023673
#
#
# Mechanical properties :
#
#
# Convention : Reuss Voigt Hill
#
# Bulk Modulus (GPa) = 48.33791 71.44263 59.89027
# Shear Modulus (GPa) = -318.33177 44.77428 -136.77875
#
# Velocity S-wave (km/s) = -11.03441 4.13831 -7.23300
# Velocity P-wave (km/s) = 11.99398 7.08238 6.84454
#
# Compressibility (1/GPa) = 0.02068770
#
# Stress axis : x y z
#
# Youngs Moduli (GPa) = 169.81051 79.03946 244.69831
#
# Poissons Ratio (x) = -0.03817 0.34514
# Poissons Ratio (y) = -0.08201 0.01036
# Poissons Ratio (z) = 0.23951 0.00335
#
# Static dielectric constant tensor:
#      x y z
#    x 1.844740 0.000000 0.000000 
#    y 0.000000 2.218680 0.000000 
#    z 0.000000 0.000000 2.142450 
# 
# From -- ./inp_files/5581.got.cif
#   From: 2010.05.17/outbox.cif.g08.bks.cpg/sg68_3_cif.got.tgz:5581.got - 2010.06.03 18:57:09.
