data_PCOD9506481
_publ_section_title
;
Structure prediction by ZEFSAII (Michael W. Deem and Ramdas Pophale) SiO2 
 PCOD9506481
Probable space group: C C C A
;
_chemical_formula_sum "Si O2"
_cell_formula_units_Z 88
_cell_length_a 26.682196
_cell_length_b 5.368765
_cell_length_c 33.251171
_cell_angle_alpha 90.000000
_cell_angle_beta 90.000000
_cell_angle_gamma 90.000000
_cell_volume 4763.244877
_symmetry_space_group_name_H-M "C C C A"
_symmetry_group_IT_number 68
_space_group.IT_coordinate_system_code '2'
_symmetry_cell_setting 'orthorhombic'
loop_
_space_group_symop_operation_xyz
x,y,z
-x,1/2-y,z
x,1/2-y,1/2-z
-x,y,1/2-z
-x,-y,-z
x,1/2+y,-z
-x,1/2+y,1/2+z
x,-y,1/2+z
1/2+x,1/2+y,z
1/2-x,-y,z
1/2+x,-y,1/2-z
1/2-x,1/2+y,1/2-z
1/2-x,1/2-y,-z
1/2+x,y,-z
1/2-x,y,1/2+z
1/2+x,1/2-y,1/2+z
loop_
_atom_site_type_symbol
_atom_site_label
_atom_site_fract_x
_atom_site_fract_y
_atom_site_fract_z
Si Si1 0.250000 0.500000 0.349277
Si Si2 0.645085 0.022809 0.888662
Si Si3 0.690711 0.501106 0.026030
Si Si4 0.556362 0.003044 0.731875
Si Si5 0.386870 0.503468 0.654907
Si Si6 0.200440 0.117971 0.788043
O O1 0.297797 0.583747 0.374666
O O2 0.226028 0.708971 0.321404
O O3 0.653235 0.988640 0.936159
O O4 0.614111 0.265525 0.874451
O O5 0.624410 0.767688 0.867579
O O6 0.750000 0.500000 0.038349
O O7 0.683294 0.257717 0.998332
O O8 0.581253 0.250000 0.750000
O O9 0.500000 0.009251 0.750000
O O10 0.564403 0.993655 0.683919
O O11 0.576624 0.750000 0.750000
O O12 0.341336 0.468096 0.687341
O O13 0.176472 0.250000 0.750000
O O14 0.250000 0.000000 0.769153
#
# Coordination Sequence:
#
# PCOD9506481 Si02
#       6
#     8  16  16  16  16  16
#     4  10  20  32  42  64  96 142 182 230 280 292
#     4  11  21  35  52  74 108 139 185 240 275 330
#     4  10  20  34  53  75 101 146 196 236 277 333
#     4  10  21  39  60  80 106 144 186 232 280 336
#     4  11  23  34  53  77 103 144 184 235 286 325
#     4  11  20  30  43  62  96 139 183 228 262 309
#
# _framework density 18.474799999999998
#
# number of rings (size 3 to 8) (size 9 to 14) (size 15 to 20)
#    0.000    1.455    3.636    2.727    0.000    2.182 
#    0.000    0.000    0.000    0.000    0.000    0.000 
#    0.000    0.000    0.000  229.091    0.000    0.000 
#
# Total GULP energy -244959.815654 kJ/mol
# GULP energy per Si atom -5567.268538 kJ/mol
# Density = 1.843275 g / cm^3
# Si number density = 18.474800 Si / 1000 Ang^3
#
#
#
# Elastic Constant Matrix: (Units=GPa)
#
#
# Indices 1 2 3 4 5 6 
#
# 1 70.8671 20.4259 31.2146 0.0000 0.0000 0.0000
# 2 20.4259 140.4192 54.5930 0.0000 0.0000 0.0000
# 3 31.2146 54.5930 117.7179 0.0000 0.0000 0.0000
# 4 0.0000 0.0000 0.0000 23.3473 0.0000 0.0000
# 5 0.0000 0.0000 0.0000 0.0000 35.5300 0.0000
# 6 0.0000 0.0000 0.0000 0.0000 0.0000 -33.6834
#
#
#
# Elastic Compliance Matrix: (Units=1/GPa)
#
#
# Indices 1 2 3 4 5 6 
#
# 1 0.016056 -0.000830 -0.003873 0.000000 0.000000 0.000000
# 2 -0.000830 0.008731 -0.003829 0.000000 0.000000 0.000000
# 3 -0.003873 -0.003829 0.011297 0.000000 0.000000 0.000000
# 4 0.000000 0.000000 0.000000 0.042832 0.000000 0.000000
# 5 0.000000 0.000000 0.000000 0.000000 0.028145 0.000000
# 6 0.000000 0.000000 0.000000 0.000000 0.000000 -0.029688
#
#
# Mechanical properties :
#
#
# Convention : Reuss Voigt Hill
#
# Bulk Modulus (GPa) = 52.57266 60.16346 56.36806
# Shear Modulus (GPa) = 49.61492 19.89017 34.75254
#
# Velocity S-wave (km/s) = 5.18785 3.28473 4.34184
# Velocity P-wave (km/s) = 8.02516 6.85725 7.46408
#
# Compressibility (1/GPa) = 0.01902129
#
# Stress axis : x y z
#
# Youngs Moduli (GPa) = 62.28254 114.53555 88.51531
#
# Poissons Ratio (x) = 0.09506 0.34278
# Poissons Ratio (y) = 0.05169 0.33892
# Poissons Ratio (z) = 0.24119 0.43855
#
# Static dielectric constant tensor:
#      x y z
#    x -0.344150 0.000000 0.000000 
#    y 0.000000 1.722550 0.000000 
#    z 0.000000 0.000000 1.686220 
# 
# From -- ./inp_files/56165.got.cif
#   From: 2010.05.17/outbox.cif.g08.bks.cpg/sg68_29_cif.got.tgz:56165.got - 2010.06.03 18:57:09.
