data_PCOD9506288
_publ_section_title
;
Structure prediction by ZEFSAII (Michael W. Deem and Ramdas Pophale) SiO2 
 PCOD9506288
Probable space group: C C C A
;
_chemical_formula_sum "Si O2"
_cell_formula_units_Z 112
_cell_length_a 31.973530
_cell_length_b 15.470294
_cell_length_c 11.724246
_cell_angle_alpha 90.000000
_cell_angle_beta 90.000000
_cell_angle_gamma 90.000000
_cell_volume 5799.279978
_symmetry_space_group_name_H-M "C C C A"
_symmetry_group_IT_number 68
_space_group.IT_coordinate_system_code '2'
_symmetry_cell_setting 'orthorhombic'
loop_
_space_group_symop_operation_xyz
x,y,z
-x,1/2-y,z
x,1/2-y,1/2-z
-x,y,1/2-z
-x,-y,-z
x,1/2+y,-z
-x,1/2+y,1/2+z
x,-y,1/2+z
1/2+x,1/2+y,z
1/2-x,-y,z
1/2+x,-y,1/2-z
1/2-x,1/2+y,1/2-z
1/2-x,1/2-y,-z
1/2+x,y,-z
1/2-x,y,1/2+z
1/2+x,1/2-y,1/2+z
loop_
_atom_site_type_symbol
_atom_site_label
_atom_site_fract_x
_atom_site_fract_y
_atom_site_fract_z
Si Si1 0.175855 0.927216 0.422511
Si Si2 0.999854 0.444004 0.616506
Si Si3 0.912308 0.655644 0.104872
Si Si4 0.214132 0.713166 0.915398
Si Si5 0.410724 0.855022 0.871376
Si Si6 0.270593 0.595726 0.795980
Si Si7 0.670921 0.618158 0.482267
O O1 0.194515 0.872484 0.526223
O O2 0.126595 0.908758 0.425606
O O3 0.200594 0.891653 0.313672
O O4 0.182091 0.029939 0.418330
O O5 0.043305 0.392632 0.613783
O O6 0.000000 0.480541 0.750000
O O7 0.000000 0.500000 0.500000
O O8 0.958514 0.384955 0.601882
O O9 0.911854 0.757771 0.082973
O O10 0.899657 0.645737 0.237119
O O11 0.877257 0.615855 0.023010
O O12 0.235523 0.669748 0.805592
O O13 0.181594 0.792993 0.916182
O O14 0.250000 0.750000 0.000000
O O15 0.250000 0.500000 0.797681
O O16 0.300513 0.610683 0.904629
#
# Coordination Sequence:
#
# PCOD9506288 Si02
#       7
#    16  16  16  16  16  16  16
#     4  12  23  40  62  86 122 167 209 268 329 386
#     4  10  21  38  63 100 135 173 219 269 332 407
#     4  10  19  36  63  95 128 161 214 269 330 390
#     4  10  24  39  56  84 117 155 210 259 318 379
#     4  10  20  36  62  95 126 165 211 270 328 392
#     4  11  24  40  57  83 119 158 212 259 323 378
#     4  11  22  40  61  90 118 164 213 262 321 389
#
# _framework density 19.312743000000001
#
# number of rings (size 3 to 8) (size 9 to 14) (size 15 to 20)
#    0.000    1.429    4.286    1.286    4.000    4.000 
#    0.000    0.000    0.000    1.714    0.000    0.000 
#    0.000    0.000    0.000    0.000    0.000    0.000 
#
# Total GULP energy -312222.011276 kJ/mol
# GULP energy per Si atom -5575.393058 kJ/mol
# Density = 1.926879 g / cm^3
# Si number density = 19.312743 Si / 1000 Ang^3
#
#
#
# Elastic Constant Matrix: (Units=GPa)
#
#
# Indices 1 2 3 4 5 6 
#
# 1 111.0942 32.9536 30.7829 0.0000 0.0000 0.0000
# 2 32.9536 109.3063 32.2845 0.0000 0.0000 0.0000
# 3 30.7829 32.2845 58.8408 0.0000 0.0000 0.0000
# 4 0.0000 0.0000 0.0000 31.8865 0.0000 0.0000
# 5 0.0000 0.0000 0.0000 0.0000 31.8229 0.0000
# 6 0.0000 0.0000 0.0000 0.0000 0.0000 30.4651
#
#
#
# Elastic Compliance Matrix: (Units=1/GPa)
#
#
# Indices 1 2 3 4 5 6 
#
# 1 0.010849 -0.001903 -0.004632 0.000000 0.000000 0.000000
# 2 -0.001903 0.011252 -0.005178 0.000000 0.000000 0.000000
# 3 -0.004632 -0.005178 0.022259 0.000000 0.000000 0.000000
# 4 0.000000 0.000000 0.000000 0.031361 0.000000 0.000000
# 5 0.000000 0.000000 0.000000 0.000000 0.031424 0.000000
# 6 0.000000 0.000000 0.000000 0.000000 0.000000 0.032824
#
#
# Mechanical properties :
#
#
# Convention : Reuss Voigt Hill
#
# Bulk Modulus (GPa) = 47.76734 52.36481 50.06608
# Shear Modulus (GPa) = 29.34734 31.04960 30.19847
#
# Velocity S-wave (km/s) = 3.90241 4.01400 3.95860
# Velocity P-wave (km/s) = 6.71509 6.97538 6.84647
#
# Compressibility (1/GPa) = 0.02093480
#
# Stress axis : x y z
#
# Youngs Moduli (GPa) = 92.17264 88.87611 44.92512
#
# Poissons Ratio (x) = 0.16911 0.20809
# Poissons Ratio (y) = 0.17538 0.23262
# Poissons Ratio (z) = 0.42693 0.46020
#
# Static dielectric constant tensor:
#      x y z
#    x 1.684650 0.000000 0.000000 
#    y 0.000000 1.707660 0.000000 
#    z 0.000000 0.000000 1.669400 
# 
# From -- ./inp_files/17787.got.cif
#   From: 2010.05.17/outbox.cif.g08.bks.cpg/sg68_9_cif.got.tgz:17787.got - 2010.06.03 18:57:09.
