data_PCOD9506558
_publ_section_title
;
Structure prediction by ZEFSAII (Michael W. Deem and Ramdas Pophale) SiO2 
 PCOD9506558
Probable space group: C C C A
;
_chemical_formula_sum "Si O2"
_cell_formula_units_Z 48
_cell_length_a 4.968324
_cell_length_b 22.176527
_cell_length_c 25.185055
_cell_angle_alpha 90.000000
_cell_angle_beta 90.000000
_cell_angle_gamma 90.000000
_cell_volume 2774.893675
_symmetry_space_group_name_H-M "C C C A"
_symmetry_group_IT_number 68
_space_group.IT_coordinate_system_code '2'
_symmetry_cell_setting 'orthorhombic'
loop_
_space_group_symop_operation_xyz
x,y,z
-x,1/2-y,z
x,1/2-y,1/2-z
-x,y,1/2-z
-x,-y,-z
x,1/2+y,-z
-x,1/2+y,1/2+z
x,-y,1/2+z
1/2+x,1/2+y,z
1/2-x,-y,z
1/2+x,-y,1/2-z
1/2-x,1/2+y,1/2-z
1/2-x,1/2-y,-z
1/2+x,y,-z
1/2-x,y,1/2+z
1/2+x,1/2-y,1/2+z
loop_
_atom_site_type_symbol
_atom_site_label
_atom_site_fract_x
_atom_site_fract_y
_atom_site_fract_z
Si Si1 0.035198 0.817156 0.642756
Si Si2 0.529752 0.880237 0.687118
Si Si3 0.750000 0.000000 0.786624
Si Si4 0.000000 0.750000 0.538692
O O1 0.828852 0.865037 0.667720
O O2 0.989944 0.805785 0.580186
O O3 0.000000 0.750000 0.667060
O O4 0.336246 0.836995 0.654197
O O5 0.500000 0.867818 0.750000
O O6 0.403088 0.947305 0.681776
O O7 0.500000 0.024570 0.750000
O O8 0.750000 0.750000 0.500000
#
# Coordination Sequence:
#
# PCOD9506558 Si02
#       4
#    16  16   8   8
#     4  10  22  33  52  82 104 134 188 204 281 327
#     4  11  20  34  51  77 115 146 173 216 248 316
#     4  10  20  34  52  74 106 158 196 206 248 306
#     4  10  20  38  55  74 103 132 176 230 272 328
#
# _framework density 17.297958999999999
#
# number of rings (size 3 to 8) (size 9 to 14) (size 15 to 20)
#    1.000    0.667    0.000    8.000    0.000    4.000 
#    0.000    0.000    0.000    0.000    0.000   23.333 
#    0.000    0.000    0.000    0.000    0.000    0.000 
#
# Total GULP energy -133607.583700 kJ/mol
# GULP energy per Si atom -5566.982654 kJ/mol
# Density = 1.725859 g / cm^3
# Si number density = 17.297959 Si / 1000 Ang^3
#
#
#
# Elastic Constant Matrix: (Units=GPa)
#
#
# Indices 1 2 3 4 5 6 
#
# 1 80.8211 -5.5429 15.0387 0.0000 0.0000 0.0000
# 2 -5.5429 64.8313 6.6211 0.0000 0.0000 0.0000
# 3 15.0387 6.6211 93.2152 0.0000 0.0000 0.0000
# 4 0.0000 0.0000 0.0000 669.4765 0.0000 0.0000
# 5 0.0000 0.0000 0.0000 0.0000 35.5237 0.0000
# 6 0.0000 0.0000 0.0000 0.0000 0.0000 37.3106
#
#
#
# Elastic Compliance Matrix: (Units=1/GPa)
#
#
# Indices 1 2 3 4 5 6 
#
# 1 0.012867 0.001322 -0.002170 0.000000 0.000000 0.000000
# 2 0.001322 0.015673 -0.001326 0.000000 0.000000 0.000000
# 3 -0.002170 -0.001326 0.011172 0.000000 0.000000 0.000000
# 4 0.000000 0.000000 0.000000 0.001494 0.000000 0.000000
# 5 0.000000 0.000000 0.000000 0.000000 0.028150 0.000000
# 6 0.000000 0.000000 0.000000 0.000000 0.000000 0.026802
#
#
# Mechanical properties :
#
#
# Convention : Reuss Voigt Hill
#
# Bulk Modulus (GPa) = 28.27774 30.12236 29.20005
# Shear Modulus (GPa) = 44.52536 163.31223 103.91879
#
# Velocity S-wave (km/s) = 5.07899 9.72709 7.75926
# Velocity P-wave (km/s) = 7.12585 11.98360 9.85861
#
# Compressibility (1/GPa) = 0.03536350
#
# Stress axis : x y z
#
# Youngs Moduli (GPa) = 77.71581 63.80353 89.50829
#
# Poissons Ratio (x) = -0.08433 0.19422
# Poissons Ratio (y) = -0.10272 0.11873
# Poissons Ratio (z) = 0.16863 0.08464
#
# Static dielectric constant tensor:
#      x y z
#    x 1.571810 0.000000 0.000000 
#    y 0.000000 1.638260 0.000000 
#    z 0.000000 0.000000 1.563800 
# 
# From -- ./inp_files/42101.got.cif
#   From: 2010.05.17/outbox.cif.g08.bks.cpg/sg68_22_cif.got.tgz:42101.got - 2010.06.03 18:57:09.
