data_PCOD9506657
_publ_section_title
;
Structure prediction by ZEFSAII (Michael W. Deem and Ramdas Pophale) SiO2 
 PCOD9506657
Probable space group: C C C A
;
_chemical_formula_sum "Si O2"
_cell_formula_units_Z 80
_cell_length_a 9.917280
_cell_length_b 15.542987
_cell_length_c 27.614997
_cell_angle_alpha 90.000000
_cell_angle_beta 90.000000
_cell_angle_gamma 90.000000
_cell_volume 4256.690353
_symmetry_space_group_name_H-M "C C C A"
_symmetry_group_IT_number 68
_space_group.IT_coordinate_system_code '2'
_symmetry_cell_setting 'orthorhombic'
loop_
_space_group_symop_operation_xyz
x,y,z
-x,1/2-y,z
x,1/2-y,1/2-z
-x,y,1/2-z
-x,-y,-z
x,1/2+y,-z
-x,1/2+y,1/2+z
x,-y,1/2+z
1/2+x,1/2+y,z
1/2-x,-y,z
1/2+x,-y,1/2-z
1/2-x,1/2+y,1/2-z
1/2-x,1/2-y,-z
1/2+x,y,-z
1/2-x,y,1/2+z
1/2+x,1/2-y,1/2+z
loop_
_atom_site_type_symbol
_atom_site_label
_atom_site_fract_x
_atom_site_fract_y
_atom_site_fract_z
Si Si1 0.171285 0.088673 0.468941
Si Si2 0.910798 0.495072 0.297902
Si Si3 0.901111 0.668219 0.865896
Si Si4 0.552989 0.843073 0.528840
Si Si5 0.088903 0.330325 0.643830
O O1 0.110979 0.129088 0.420022
O O2 0.295288 0.144776 0.489235
O O3 0.052267 0.088758 0.507692
O O4 0.250000 0.000000 0.457584
O O5 0.750000 0.500000 0.287328
O O6 0.938876 0.410614 0.330470
O O7 0.940098 0.582171 0.327695
O O8 0.000000 0.491985 0.250000
O O9 0.747108 0.692550 0.852404
O O10 0.000000 0.750000 0.863705
O O11 0.500000 0.750000 0.513944
O O12 0.559133 0.846620 0.586989
O O13 0.000000 0.250000 0.660416
#
# Coordination Sequence:
#
# PCOD9506657 Si02
#       5
#    16  16  16  16  16
#     4  11  21  35  55  81 113 152 190 231 276 325
#     4  10  22  41  61  83 112 144 183 231 284 340
#     4  10  21  38  59  81 112 150 188 229 279 335
#     4  10  20  35  54  80 113 148 187 228 274 329
#     4   9  20  39  59  83 114 148 184 229 281 334
#
# _framework density 18.793942999999999
#
# number of rings (size 3 to 8) (size 9 to 14) (size 15 to 20)
#    0.000    2.000    0.000    4.800    0.000    5.600 
#    0.000    5.000    0.000    0.000    0.000    0.000 
#    0.000    0.000    0.000    0.000    0.000    0.000 
#
# Total GULP energy -223256.644317 kJ/mol
# GULP energy per Si atom -5581.416108 kJ/mol
# Density = 1.875117 g / cm^3
# Si number density = 18.793943 Si / 1000 Ang^3
#
#
#
# Elastic Constant Matrix: (Units=GPa)
#
#
# Indices 1 2 3 4 5 6 
#
# 1 110.3928 94.3312 68.7648 0.0000 0.0000 0.0000
# 2 94.3312 166.9241 54.4630 0.0000 0.0000 0.0000
# 3 68.7648 54.4630 62.1030 0.0000 0.0000 0.0000
# 4 0.0000 0.0000 0.0000 14.7245 0.0000 0.0000
# 5 0.0000 0.0000 0.0000 0.0000 31.7568 0.0000
# 6 0.0000 0.0000 0.0000 0.0000 0.0000 43.0881
#
#
#
# Elastic Compliance Matrix: (Units=1/GPa)
#
#
# Indices 1 2 3 4 5 6 
#
# 1 0.040757 -0.011638 -0.034923 0.000000 0.000000 0.000000
# 2 -0.011638 0.011715 0.002612 0.000000 0.000000 0.000000
# 3 -0.034923 0.002612 0.052480 0.000000 0.000000 0.000000
# 4 0.000000 0.000000 0.000000 0.067914 0.000000 0.000000
# 5 0.000000 0.000000 0.000000 0.000000 0.031489 0.000000
# 6 0.000000 0.000000 0.000000 0.000000 0.000000 0.023208
#
#
# Mechanical properties :
#
#
# Convention : Reuss Voigt Hill
#
# Bulk Modulus (GPa) = 58.63131 86.05978 72.34555
# Shear Modulus (GPa) = 15.56924 26.03794 20.80359
#
# Velocity S-wave (km/s) = 2.88135 3.72619 3.33067
# Velocity P-wave (km/s) = 6.50647 8.02517 7.30539
#
# Compressibility (1/GPa) = 0.01705573
#
# Stress axis : x y z
#
# Youngs Moduli (GPa) = 24.53562 85.35941 19.05479
#
# Poissons Ratio (x) = 0.99341 0.66545
# Poissons Ratio (y) = 0.28555 -0.04978
# Poissons Ratio (z) = 0.85685 -0.22300
#
# Static dielectric constant tensor:
#      x y z
#    x 1.651660 0.000000 0.000000 
#    y 0.000000 1.697730 0.000000 
#    z 0.000000 0.000000 1.621700 
# 
# From -- ./inp_files/44086.got.cif
#   From: 2010.05.17/outbox.cif.g08.bks.cpg/sg68_23_cif.got.tgz:44086.got - 2010.06.03 18:57:09.
