data_PCOD9506173
_publ_section_title
;
Structure prediction by ZEFSAII (Michael W. Deem and Ramdas Pophale) SiO2 
 PCOD9506173
Probable space group: C C C A
;
_chemical_formula_sum "Si O2"
_cell_formula_units_Z 84
_cell_length_a 23.412682
_cell_length_b 21.581012
_cell_length_c 8.371808
_cell_angle_alpha 90.000000
_cell_angle_beta 90.000000
_cell_angle_gamma 90.000000
_cell_volume 4230.018164
_symmetry_space_group_name_H-M "C C C A"
_symmetry_group_IT_number 68
_space_group.IT_coordinate_system_code '2'
_symmetry_cell_setting 'orthorhombic'
loop_
_space_group_symop_operation_xyz
x,y,z
-x,1/2-y,z
x,1/2-y,1/2-z
-x,y,1/2-z
-x,-y,-z
x,1/2+y,-z
-x,1/2+y,1/2+z
x,-y,1/2+z
1/2+x,1/2+y,z
1/2-x,-y,z
1/2+x,-y,1/2-z
1/2-x,1/2+y,1/2-z
1/2-x,1/2-y,-z
1/2+x,y,-z
1/2-x,y,1/2+z
1/2+x,1/2-y,1/2+z
loop_
_atom_site_type_symbol
_atom_site_label
_atom_site_fract_x
_atom_site_fract_y
_atom_site_fract_z
Si Si1 0.874742 0.944517 0.870847
Si Si2 0.500000 0.750000 0.250000
Si Si3 0.660332 0.088150 0.390895
Si Si4 0.024724 0.437228 0.574280
Si Si5 0.935500 0.361495 0.403074
Si Si6 0.736283 0.572960 0.292618
O O1 0.912020 0.911165 0.730246
O O2 0.811900 0.917003 0.844081
O O3 0.866721 0.019360 0.861629
O O4 0.908307 0.933978 0.035843
O O5 0.454570 0.795117 0.339165
O O6 0.610598 0.133277 0.453125
O O7 0.703477 0.084002 0.542671
O O8 0.703747 0.105148 0.248281
O O9 0.000000 0.433621 0.750000
O O10 0.000000 0.500000 0.500000
O O11 0.994845 0.384911 0.472571
O O12 0.750000 0.500000 0.288841
#
# Coordination Sequence:
#
# PCOD9506173 Si02
#       6
#    16   4  16  16  16  16
#     4  10  19  35  56  85 123 158 201 248 319 390
#     4  12  24  44  66  84 120 172 242 274 322 368
#     4  10  20  33  57  87 126 157 196 250 313 394
#     4  12  23  34  56  93 127 156 200 255 331 402
#     4  11  23  39  63  88 121 173 214 271 320 377
#     4   9  18  30  49  84 123 155 185 234 309 382
#
# _framework density 19.858070999999999
#
# number of rings (size 3 to 8) (size 9 to 14) (size 15 to 20)
#    0.000    1.524    3.810    2.857    2.667    1.524 
#    0.000    0.476    0.000    4.571    0.000    0.000 
#    0.000    0.000    0.000    0.000    0.000    0.000 
#
# Total GULP energy -234011.638730 kJ/mol
# GULP energy per Si atom -5571.705684 kJ/mol
# Density = 1.981287 g / cm^3
# Si number density = 19.858071 Si / 1000 Ang^3
#
#
#
# Elastic Constant Matrix: (Units=GPa)
#
#
# Indices 1 2 3 4 5 6 
#
# 1 109.8067 17.0436 21.3123 0.0000 0.0000 0.0000
# 2 17.0436 81.8422 24.6516 0.0000 0.0000 0.0000
# 3 21.3123 24.6516 48.2255 0.0000 0.0000 0.0000
# 4 0.0000 0.0000 0.0000 -24.3184 0.0000 0.0000
# 5 0.0000 0.0000 0.0000 0.0000 43.1036 0.0000
# 6 0.0000 0.0000 0.0000 0.0000 0.0000 14.7459
#
#
#
# Elastic Compliance Matrix: (Units=1/GPa)
#
#
# Indices 1 2 3 4 5 6 
#
# 1 0.010016 -0.000890 -0.003972 0.000000 0.000000 0.000000
# 2 -0.000890 0.014521 -0.007030 0.000000 0.000000 0.000000
# 3 -0.003972 -0.007030 0.026085 0.000000 0.000000 0.000000
# 4 0.000000 0.000000 0.000000 -0.041121 0.000000 0.000000
# 5 0.000000 0.000000 0.000000 0.000000 0.023200 0.000000
# 6 0.000000 0.000000 0.000000 0.000000 0.000000 0.067816
#
#
# Mechanical properties :
#
#
# Convention : Reuss Voigt Hill
#
# Bulk Modulus (GPa) = 37.25805 40.65438 38.95621
# Shear Modulus (GPa) = 37.52498 18.49734 28.01116
#
# Velocity S-wave (km/s) = 4.35174 3.05532 3.75983
# Velocity P-wave (km/s) = 6.63725 5.74139 6.20551
#
# Compressibility (1/GPa) = 0.02683984
#
# Stress axis : x y z
#
# Youngs Moduli (GPa) = 99.84203 68.86433 38.33686
#
# Poissons Ratio (x) = 0.06125 0.15226
# Poissons Ratio (y) = 0.08881 0.26950
# Poissons Ratio (z) = 0.39653 0.48410
#
# Static dielectric constant tensor:
#      x y z
#    x 1.773610 0.000000 0.000000 
#    y 0.000000 1.679190 0.000000 
#    z 0.000000 0.000000 0.559150 
# 
# From -- ./inp_files/7945.got.cif
#   From: 2010.05.17/outbox.cif.g08.bks.cpg/sg68_4_cif.got.tgz:7945.got - 2010.06.03 18:57:09.
