data_PCOD9506367
_publ_section_title
;
Structure prediction by ZEFSAII (Michael W. Deem and Ramdas Pophale) SiO2 
 PCOD9506367
Probable space group: C C C A
;
_chemical_formula_sum "Si O2"
_cell_formula_units_Z 88
_cell_length_a 9.703034
_cell_length_b 27.511832
_cell_length_c 15.538658
_cell_angle_alpha 90.000000
_cell_angle_beta 90.000000
_cell_angle_gamma 90.000000
_cell_volume 4148.017425
_symmetry_space_group_name_H-M "C C C A"
_symmetry_group_IT_number 68
_space_group.IT_coordinate_system_code '2'
_symmetry_cell_setting 'orthorhombic'
loop_
_space_group_symop_operation_xyz
x,y,z
-x,1/2-y,z
x,1/2-y,1/2-z
-x,y,1/2-z
-x,-y,-z
x,1/2+y,-z
-x,1/2+y,1/2+z
x,-y,1/2+z
1/2+x,1/2+y,z
1/2-x,-y,z
1/2+x,-y,1/2-z
1/2-x,1/2+y,1/2-z
1/2-x,1/2-y,-z
1/2+x,y,-z
1/2-x,y,1/2+z
1/2+x,1/2-y,1/2+z
loop_
_atom_site_type_symbol
_atom_site_label
_atom_site_fract_x
_atom_site_fract_y
_atom_site_fract_z
Si Si1 0.874643 0.353158 0.315868
Si Si2 0.254491 0.945555 0.915282
Si Si3 0.181400 0.666226 0.331471
Si Si4 0.000000 0.750000 0.404223
Si Si5 0.942128 0.089114 0.938716
Si Si6 0.559810 0.180106 0.954235
O O1 0.814886 0.402038 0.359852
O O2 0.750941 0.331044 0.260913
O O3 0.940551 0.313878 0.381843
O O4 0.000000 0.365702 0.250000
O O5 0.417225 0.938797 0.925223
O O6 0.250000 0.000000 0.879341
O O7 0.173262 0.939696 0.006832
O O8 0.080994 0.710774 0.349242
O O9 0.112496 0.614205 0.351542
O O10 0.302080 0.668866 0.403016
O O11 0.909819 0.719750 0.473393
O O12 0.995967 0.134632 0.995311
#
# Coordination Sequence:
#
# PCOD9506367 Si02
#       6
#    16  16  16   8  16  16
#     4   9  21  41  63  84 133 174 206 258 344 388
#     4  11  22  40  64  95 123 163 218 268 318 390
#     4  10  19  38  61  91 128 166 210 264 322 385
#     4  10  20  32  69  99 118 162 226 268 302 375
#     4  10  20  37  66  91 123 161 211 269 326 372
#     4   9  18  37  64  90 121 170 208 259 320 390
#
# _framework density 21.214955
#
# number of rings (size 3 to 8) (size 9 to 14) (size 15 to 20)
#    0.000    2.182    1.818    1.091    0.000    0.727 
#    3.273    4.091    4.000    0.000    0.000    0.000 
#    0.000    0.000    0.000    0.000    0.000    0.000 
#
# Total GULP energy -245466.382893 kJ/mol
# GULP energy per Si atom -5578.781429 kJ/mol
# Density = 2.116667 g / cm^3
# Si number density = 21.214955 Si / 1000 Ang^3
#
#
#
# Elastic Constant Matrix: (Units=GPa)
#
#
# Indices 1 2 3 4 5 6 
#
# 1 114.3640 32.6478 35.3055 0.0000 0.0000 0.0000
# 2 32.6478 57.1910 23.0297 0.0000 0.0000 0.0000
# 3 35.3055 23.0297 64.0702 0.0000 0.0000 0.0000
# 4 0.0000 0.0000 0.0000 -0.3349 0.0000 0.0000
# 5 0.0000 0.0000 0.0000 0.0000 4.8842 0.0000
# 6 0.0000 0.0000 0.0000 0.0000 0.0000 20.2473
#
#
#
# Elastic Compliance Matrix: (Units=1/GPa)
#
#
# Indices 1 2 3 4 5 6 
#
# 1 0.011525 -0.004703 -0.004661 0.000000 0.000000 0.000000
# 2 -0.004703 0.022363 -0.005447 0.000000 0.000000 0.000000
# 3 -0.004661 -0.005447 0.020134 0.000000 0.000000 0.000000
# 4 0.000000 0.000000 0.000000 -2.985723 0.000000 0.000000
# 5 0.000000 0.000000 0.000000 0.000000 0.204740 0.000000
# 6 0.000000 0.000000 0.000000 0.000000 0.000000 0.049389
#
#
# Mechanical properties :
#
#
# Convention : Reuss Voigt Hill
#
# Bulk Modulus (GPa) = 40.98013 46.39901 43.68957
# Shear Modulus (GPa) = -1.89407 14.60213 6.35403
#
# Velocity S-wave (km/s) = -0.94591 2.62638 1.73251
# Velocity P-wave (km/s) = 4.26211 5.57813 4.96393
#
# Compressibility (1/GPa) = 0.02440207
#
# Stress axis : x y z
#
# Youngs Moduli (GPa) = 86.76609 44.71641 49.66725
#
# Poissons Ratio (x) = 0.21028 0.23148
# Poissons Ratio (y) = 0.40802 0.27054
# Poissons Ratio (z) = 0.40438 0.24357
#
# Static dielectric constant tensor:
#      x y z
#    x 1.835900 0.000000 0.000000 
#    y 0.000000 1.783320 0.000000 
#    z 0.000000 0.000000 1.813530 
# 
# From -- ./inp_files/28511.got.cif
#   From: 2010.05.17/outbox.cif.g08.bks.cpg/sg68_15_cif.got.tgz:28511.got - 2010.06.03 18:57:09.
