data_PCOD9506976
_publ_section_title
;
Structure prediction by ZEFSAII (Michael W. Deem and Ramdas Pophale) SiO2 
 PCOD9506976
Probable space group: C C C A
;
_chemical_formula_sum "Si O2"
_cell_formula_units_Z 88
_cell_length_a 14.338049
_cell_length_b 14.144248
_cell_length_c 18.264911
_cell_angle_alpha 90.000000
_cell_angle_beta 90.000000
_cell_angle_gamma 90.000000
_cell_volume 3704.140771
_symmetry_space_group_name_H-M "C C C A"
_symmetry_group_IT_number 68
_space_group.IT_coordinate_system_code '2'
_symmetry_cell_setting 'orthorhombic'
loop_
_space_group_symop_operation_xyz
x,y,z
-x,1/2-y,z
x,1/2-y,1/2-z
-x,y,1/2-z
-x,-y,-z
x,1/2+y,-z
-x,1/2+y,1/2+z
x,-y,1/2+z
1/2+x,1/2+y,z
1/2-x,-y,z
1/2+x,-y,1/2-z
1/2-x,1/2+y,1/2-z
1/2-x,1/2-y,-z
1/2+x,y,-z
1/2-x,y,1/2+z
1/2+x,1/2-y,1/2+z
loop_
_atom_site_type_symbol
_atom_site_label
_atom_site_fract_x
_atom_site_fract_y
_atom_site_fract_z
Si Si1 0.565270 0.164015 0.145605
Si Si2 0.750000 0.000000 0.330683
Si Si3 0.420125 0.468931 0.422964
Si Si4 0.639477 0.841006 0.487170
Si Si5 0.665755 0.368140 0.944102
Si Si6 0.729150 0.147869 0.714533
O O1 0.500000 0.250000 0.172254
O O2 0.503934 0.070941 0.126421
O O3 0.659596 0.148467 0.192154
O O4 0.594757 0.192477 0.063241
O O5 0.673422 0.053570 0.378007
O O6 0.795952 0.075388 0.277851
O O7 0.412190 0.580108 0.440010
O O8 0.407934 0.418998 0.502596
O O9 0.654678 0.745107 0.444033
O O10 0.735428 0.886702 0.516164
O O11 0.676604 0.388606 0.858560
O O12 0.708819 0.250000 0.750000
#
# Coordination Sequence:
#
# PCOD9506976 Si02
#       6
#    16   8  16  16  16  16
#     4  11  23  40  67  99 134 170 223 289 350 392
#     4  12  26  40  66  96 132 184 226 272 350 410
#     4  12  22  41  68  97 132 174 232 287 331 404
#     4  10  20  37  64  98 125 167 218 283 334 385
#     4  10  21  39  69  94 132 174 231 282 329 406
#     4  11  26  44  66 100 142 182 222 280 350 426
#
# _framework density 23.757196
#
# number of rings (size 3 to 8) (size 9 to 14) (size 15 to 20)
#    0.000    1.091    3.636    2.727    7.636    2.545 
#    0.000    0.000    0.000    0.000    0.000    0.000 
#    0.000    0.000    0.000    0.000    0.000    0.000 
#
# Total GULP energy -245907.249687 kJ/mol
# GULP energy per Si atom -5588.801129 kJ/mol
# Density = 2.370312 g / cm^3
# Si number density = 23.757196 Si / 1000 Ang^3
#
#
#
# Elastic Constant Matrix: (Units=GPa)
#
#
# Indices 1 2 3 4 5 6 
#
# 1 32.3882 -11.9724 9.1243 0.0000 0.0000 0.0000
# 2 -11.9724 88.6157 22.9554 0.0000 0.0000 0.0000
# 3 9.1243 22.9554 119.7518 0.0000 0.0000 0.0000
# 4 0.0000 0.0000 0.0000 32.3691 0.0000 0.0000
# 5 0.0000 0.0000 0.0000 0.0000 31.2149 0.0000
# 6 0.0000 0.0000 0.0000 0.0000 0.0000 -4.0763
#
#
#
# Elastic Compliance Matrix: (Units=1/GPa)
#
#
# Indices 1 2 3 4 5 6 
#
# 1 0.033947 0.005531 -0.003647 0.000000 0.000000 0.000000
# 2 0.005531 0.012776 -0.002870 0.000000 0.000000 0.000000
# 3 -0.003647 -0.002870 0.009179 0.000000 0.000000 0.000000
# 4 0.000000 0.000000 0.000000 0.030894 0.000000 0.000000
# 5 0.000000 0.000000 0.000000 0.000000 0.032036 0.000000
# 6 0.000000 0.000000 0.000000 0.000000 0.000000 -0.245319
#
#
# Mechanical properties :
#
#
# Convention : Reuss Voigt Hill
#
# Bulk Modulus (GPa) = 18.54275 31.21891 24.88083
# Shear Modulus (GPa) = -46.93091 26.61145 -10.15973
#
# Velocity S-wave (km/s) = -4.44941 3.35048 -2.07021
# Velocity P-wave (km/s) = 4.30979 5.30443 2.18663
#
# Compressibility (1/GPa) = 0.05392942
#
# Stress axis : x y z
#
# Youngs Moduli (GPa) = 29.45736 78.27470 108.94787
#
# Poissons Ratio (x) = -0.43295 0.39732
# Poissons Ratio (y) = -0.16293 0.31272
# Poissons Ratio (z) = 0.10743 0.22468
#
# Static dielectric constant tensor:
#      x y z
#    x 1.985740 0.000000 0.000000 
#    y 0.000000 -0.769450 0.000000 
#    z 0.000000 0.000000 1.848890 
# 
# From -- ./inp_files/31882.got.cif
#   From: 2010.05.17/outbox.cif.g08.bks.cpg/sg68_16_cif.got.tgz:31882.got - 2010.06.03 18:57:09.
