data_PCOD9506562
_publ_section_title
;
Structure prediction by ZEFSAII (Michael W. Deem and Ramdas Pophale) SiO2 
 PCOD9506562
Probable space group: C C C A
;
_chemical_formula_sum "Si O2"
_cell_formula_units_Z 96
_cell_length_a 23.902542
_cell_length_b 7.156940
_cell_length_c 22.063358
_cell_angle_alpha 90.000000
_cell_angle_beta 90.000000
_cell_angle_gamma 90.000000
_cell_volume 3774.357890
_symmetry_space_group_name_H-M "C C C A"
_symmetry_group_IT_number 68
_space_group.IT_coordinate_system_code '2'
_symmetry_cell_setting 'orthorhombic'
loop_
_space_group_symop_operation_xyz
x,y,z
-x,1/2-y,z
x,1/2-y,1/2-z
-x,y,1/2-z
-x,-y,-z
x,1/2+y,-z
-x,1/2+y,1/2+z
x,-y,1/2+z
1/2+x,1/2+y,z
1/2-x,-y,z
1/2+x,-y,1/2-z
1/2-x,1/2+y,1/2-z
1/2-x,1/2-y,-z
1/2+x,y,-z
1/2-x,y,1/2+z
1/2+x,1/2-y,1/2+z
loop_
_atom_site_type_symbol
_atom_site_label
_atom_site_fract_x
_atom_site_fract_y
_atom_site_fract_z
Si Si1 0.686156 0.436283 0.887875
Si Si2 0.083697 0.430957 0.914553
Si Si3 0.380700 0.972073 0.268119
Si Si4 0.987675 0.971408 0.660818
Si Si5 0.815478 0.997098 0.850708
Si Si6 0.082542 0.363211 0.047850
O O1 0.750000 0.500000 0.896201
O O2 0.657415 0.514515 0.826863
O O3 0.681353 0.216923 0.872503
O O4 0.644160 0.454535 0.944747
O O5 0.148662 0.387132 0.899987
O O6 0.080938 0.653210 0.927293
O O7 0.043465 0.413912 0.856050
O O8 0.065142 0.349439 0.978415
O O9 0.383425 0.750000 0.250000
O O10 0.443438 0.027207 0.287508
O O11 0.348140 0.047127 0.210416
O O12 0.955414 0.973668 0.595807
O O13 0.000000 0.750000 0.672627
O O14 0.750000 0.000000 0.840279
#
# Coordination Sequence:
#
# PCOD9506562 Si02
#       6
#    16  16  16  16  16  16
#     4   9  18  33  53  75 101 139 181 215 256 310
#     4  10  20  34  52  77 107 139 176 215 259 311
#     4   9  17  31  52  78 105 131 166 216 267 312
#     4   9  17  31  53  79 104 130 167 216 265 314
#     4  10  21  34  50  78 110 138 174 218 261 306
#     4   9  19  33  51  77 106 137 175 217 261 308
#
# _framework density 25.43479
#
# number of rings (size 3 to 8) (size 9 to 14) (size 15 to 20)
#    0.000    2.667    0.000    4.000    0.000    4.333 
#    0.000    3.333    0.000    0.000    0.000    9.333 
#    0.000   26.667    0.000    0.000    0.000    0.000 
#
# Total GULP energy -268020.175336 kJ/mol
# GULP energy per Si atom -5583.753653 kJ/mol
# Density = 2.537690 g / cm^3
# Si number density = 25.434790 Si / 1000 Ang^3
#
#
#
# Elastic Constant Matrix: (Units=GPa)
#
#
# Indices 1 2 3 4 5 6 
#
# 1 189.1170 8.5354 53.6942 0.0000 0.0000 0.0000
# 2 8.5354 65.8871 12.3369 0.0000 0.0000 0.0000
# 3 53.6942 12.3369 107.6009 0.0000 0.0000 0.0000
# 4 0.0000 0.0000 0.0000 27.9660 0.0000 0.0000
# 5 0.0000 0.0000 0.0000 0.0000 27.3872 0.0000
# 6 0.0000 0.0000 0.0000 0.0000 0.0000 21.0598
#
#
#
# Elastic Compliance Matrix: (Units=1/GPa)
#
#
# Indices 1 2 3 4 5 6 
#
# 1 0.006164 -0.000227 -0.003050 0.000000 0.000000 0.000000
# 2 -0.000227 0.015519 -0.001666 0.000000 0.000000 0.000000
# 3 -0.003050 -0.001666 0.011006 0.000000 0.000000 0.000000
# 4 0.000000 0.000000 0.000000 0.035758 0.000000 0.000000
# 5 0.000000 0.000000 0.000000 0.000000 0.036513 0.000000
# 6 0.000000 0.000000 0.000000 0.000000 0.000000 0.047484
#
#
# Mechanical properties :
#
#
# Convention : Reuss Voigt Hill
#
# Bulk Modulus (GPa) = 43.85359 56.85978 50.35669
# Shear Modulus (GPa) = 29.42368 34.48517 31.95442
#
# Velocity S-wave (km/s) = 3.40491 3.68615 3.54832
# Velocity P-wave (km/s) = 5.72161 6.36558 6.05217
#
# Compressibility (1/GPa) = 0.02280315
#
# Stress axis : x y z
#
# Youngs Moduli (GPa) = 162.23505 64.43772 90.85560
#
# Poissons Ratio (x) = 0.01466 0.27709
# Poissons Ratio (y) = 0.03690 0.15135
# Poissons Ratio (z) = 0.49478 0.10734
#
# Static dielectric constant tensor:
#      x y z
#    x 2.182180 0.000000 0.000000 
#    y 0.000000 2.109900 0.000000 
#    z 0.000000 0.000000 1.984120 
# 
# From -- ./inp_files/46911.got.cif
#   From: 2010.05.17/outbox.cif.g08.bks.cpg/sg68_24_cif.got.tgz:46911.got - 2010.06.03 18:57:09.
