data_PCOD9506496
_publ_section_title
;
Structure prediction by ZEFSAII (Michael W. Deem and Ramdas Pophale) SiO2 
 PCOD9506496
Probable space group: C C C A
;
_chemical_formula_sum "Si O2"
_cell_formula_units_Z 112
_cell_length_a 13.054969
_cell_length_b 28.913290
_cell_length_c 15.405842
_cell_angle_alpha 90.000000
_cell_angle_beta 90.000000
_cell_angle_gamma 90.000000
_cell_volume 5815.121545
_symmetry_space_group_name_H-M "C C C A"
_symmetry_group_IT_number 68
_space_group.IT_coordinate_system_code '2'
_symmetry_cell_setting 'orthorhombic'
loop_
_space_group_symop_operation_xyz
x,y,z
-x,1/2-y,z
x,1/2-y,1/2-z
-x,y,1/2-z
-x,-y,-z
x,1/2+y,-z
-x,1/2+y,1/2+z
x,-y,1/2+z
1/2+x,1/2+y,z
1/2-x,-y,z
1/2+x,-y,1/2-z
1/2-x,1/2+y,1/2-z
1/2-x,1/2-y,-z
1/2+x,y,-z
1/2-x,y,1/2+z
1/2+x,1/2-y,1/2+z
loop_
_atom_site_type_symbol
_atom_site_label
_atom_site_fract_x
_atom_site_fract_y
_atom_site_fract_z
Si Si1 0.300000 0.937764 0.691416
Si Si2 0.459917 0.412634 0.973273
Si Si3 0.662789 0.640289 0.438533
Si Si4 0.425840 0.518701 0.331882
Si Si5 0.302053 0.050744 0.392527
Si Si6 0.226065 0.851866 0.603184
Si Si7 0.616559 0.305226 0.761219
O O1 0.181055 0.954399 0.689269
O O2 0.328783 0.944019 0.791339
O O3 0.301941 0.887776 0.650318
O O4 0.377332 0.970290 0.638590
O O5 0.556274 0.378815 0.977463
O O6 0.484328 0.452819 0.904441
O O7 0.370222 0.381001 0.932243
O O8 0.404200 0.438583 0.052620
O O9 0.725480 0.593283 0.415057
O O10 0.720325 0.666897 0.516644
O O11 0.651926 0.672045 0.352590
O O12 0.500000 0.515194 0.250000
O O13 0.250000 0.000000 0.408026
O O14 0.185335 0.820795 0.680481
O O15 0.614236 0.250000 0.750000
O O16 0.500000 0.322832 0.750000
#
# Coordination Sequence:
#
# PCOD9506496 Si02
#       7
#    16  16  16  16  16  16  16
#     4  10  20  36  51  79 118 166 214 255 304 361
#     4  10  23  34  57  84 124 166 209 260 305 364
#     4  11  23  41  64  91 128 169 207 261 326 383
#     4  10  20  32  52  77 109 165 217 258 297 343
#     4  11  22  36  55  85 127 173 222 263 304 373
#     4  10  22  40  63  91 127 159 199 263 323 377
#     4  11  23  43  75 101 119 154 211 270 329 397
#
# _framework density 19.260131000000001
#
# number of rings (size 3 to 8) (size 9 to 14) (size 15 to 20)
#    0.000    1.571    4.286    0.857    8.000    2.286 
#    0.000    0.000    0.000    0.000    0.000    4.000 
#    0.000    0.000    0.000    0.000    0.000    0.000 
#
# Total GULP energy -312303.653561 kJ/mol
# GULP energy per Si atom -5576.850956 kJ/mol
# Density = 1.921629 g / cm^3
# Si number density = 19.260131 Si / 1000 Ang^3
#
#
#
# Elastic Constant Matrix: (Units=GPa)
#
#
# Indices 1 2 3 4 5 6 
#
# 1 77.5554 28.9852 52.5447 0.0000 0.0000 0.0000
# 2 28.9852 59.7530 51.5447 0.0000 0.0000 0.0000
# 3 52.5447 51.5447 116.3692 0.0000 0.0000 0.0000
# 4 0.0000 0.0000 0.0000 -1.0311 0.0000 0.0000
# 5 0.0000 0.0000 0.0000 0.0000 33.1098 0.0000
# 6 0.0000 0.0000 0.0000 0.0000 0.0000 20.1940
#
#
#
# Elastic Compliance Matrix: (Units=1/GPa)
#
#
# Indices 1 2 3 4 5 6 
#
# 1 0.018887 -0.002921 -0.007234 0.000000 0.000000 0.000000
# 2 -0.002921 0.027536 -0.010878 0.000000 0.000000 0.000000
# 3 -0.007234 -0.010878 0.016678 0.000000 0.000000 0.000000
# 4 0.000000 0.000000 0.000000 -0.969856 0.000000 0.000000
# 5 0.000000 0.000000 0.000000 0.000000 0.030203 0.000000
# 6 0.000000 0.000000 0.000000 0.000000 0.000000 0.049520
#
#
# Mechanical properties :
#
#
# Convention : Reuss Voigt Hill
#
# Bulk Modulus (GPa) = 47.54077 57.75853 52.64965
# Shear Modulus (GPa) = -6.42712 18.49473 6.03381
#
# Velocity S-wave (km/s) = -1.82873 3.10217 1.77189
# Velocity P-wave (km/s) = 4.50312 6.54867 5.61975
#
# Compressibility (1/GPa) = 0.02103458
#
# Stress axis : x y z
#
# Youngs Moduli (GPa) = 52.94629 36.31590 59.95915
#
# Poissons Ratio (x) = 0.10609 0.43375
# Poissons Ratio (y) = 0.15468 0.65222
# Poissons Ratio (z) = 0.38302 0.39504
#
# Static dielectric constant tensor:
#      x y z
#    x 1.700050 0.000000 0.000000 
#    y 0.000000 1.701150 0.000000 
#    z 0.000000 0.000000 1.699570 
# 
# From -- ./inp_files/21236.got.cif
#   From: 2010.05.17/outbox.cif.g08.bks.cpg/sg68_11_cif.got.tgz:21236.got - 2010.06.03 18:57:09.
