data_PCOD9506093
_publ_section_title
;
Structure prediction by ZEFSAII (Michael W. Deem and Ramdas Pophale) SiO2 
 PCOD9506093
Probable space group: C C C A
;
_chemical_formula_sum "Si O2"
_cell_formula_units_Z 72
_cell_length_a 5.183120
_cell_length_b 30.274973
_cell_length_c 25.429982
_cell_angle_alpha 90.000000
_cell_angle_beta 90.000000
_cell_angle_gamma 90.000000
_cell_volume 3990.442719
_symmetry_space_group_name_H-M "C C C A"
_symmetry_group_IT_number 68
_space_group.IT_coordinate_system_code '2'
_symmetry_cell_setting 'orthorhombic'
loop_
_space_group_symop_operation_xyz
x,y,z
-x,1/2-y,z
x,1/2-y,1/2-z
-x,y,1/2-z
-x,-y,-z
x,1/2+y,-z
-x,1/2+y,1/2+z
x,-y,1/2+z
1/2+x,1/2+y,z
1/2-x,-y,z
1/2+x,-y,1/2-z
1/2-x,1/2+y,1/2-z
1/2-x,1/2-y,-z
1/2+x,y,-z
1/2-x,y,1/2+z
1/2+x,1/2-y,1/2+z
loop_
_atom_site_type_symbol
_atom_site_label
_atom_site_fract_x
_atom_site_fract_y
_atom_site_fract_z
Si Si1 0.263074 0.446732 0.531326
Si Si2 0.250000 0.000000 0.786233
Si Si3 0.252812 0.270088 0.309384
Si Si4 0.880672 0.413671 0.353746
Si Si5 0.100436 0.371819 0.808451
O O1 0.250000 0.500000 0.537920
O O2 0.474251 0.434907 0.486835
O O3 0.363261 0.425459 0.585071
O O4 0.500000 0.994313 0.750000
O O5 0.207793 0.957192 0.822133
O O6 0.500000 0.250000 0.337097
O O7 0.251566 0.250000 0.250000
O O8 0.285975 0.322299 0.305803
O O9 0.000000 0.250000 0.334933
O O10 0.661044 0.377018 0.341989
O O11 0.163374 0.400443 0.331911
O O12 0.000000 0.383978 0.750000
#
# Coordination Sequence:
#
# PCOD9506093 Si02
#       5
#    16   8  16  16  16
#     4  10  21  40  64  83 107 149 204 268 311 331
#     4  12  24  40  50  74 120 170 196 222 264 338
#     4  10  19  34  54  76 111 155 191 233 277 328
#     4  12  24  38  57  85 118 154 211 237 283 358
#     4  12  23  36  56  86 123 163 191 234 282 343
#
# _framework density 18.043111
#
# number of rings (size 3 to 8) (size 9 to 14) (size 15 to 20)
#    0.000    0.889    3.333    6.667    3.111    0.000 
#    0.000    0.000    0.000    0.000    0.000    0.000 
#    0.000   62.222    0.000    0.000    0.000    0.000 
#
# Total GULP energy -200878.315993 kJ/mol
# GULP energy per Si atom -5579.953222 kJ/mol
# Density = 1.800204 g / cm^3
# Si number density = 18.043111 Si / 1000 Ang^3
#
#
#
# Elastic Constant Matrix: (Units=GPa)
#
#
# Indices 1 2 3 4 5 6 
#
# 1 155.7945 17.0425 34.1022 0.0000 0.0000 0.0000
# 2 17.0425 63.4709 24.4833 0.0000 0.0000 0.0000
# 3 34.1022 24.4833 83.8600 0.0000 0.0000 0.0000
# 4 0.0000 0.0000 0.0000 8.6212 0.0000 0.0000
# 5 0.0000 0.0000 0.0000 0.0000 19.7516 0.0000
# 6 0.0000 0.0000 0.0000 0.0000 0.0000 30.6750
#
#
#
# Elastic Compliance Matrix: (Units=1/GPa)
#
#
# Indices 1 2 3 4 5 6 
#
# 1 0.007090 -0.000892 -0.002623 0.000000 0.000000 0.000000
# 2 -0.000892 0.017867 -0.004854 0.000000 0.000000 0.000000
# 3 -0.002623 -0.004854 0.014408 0.000000 0.000000 0.000000
# 4 0.000000 0.000000 0.000000 0.115993 0.000000 0.000000
# 5 0.000000 0.000000 0.000000 0.000000 0.050629 0.000000
# 6 0.000000 0.000000 0.000000 0.000000 0.000000 0.032600
#
#
# Mechanical properties :
#
#
# Convention : Reuss Voigt Hill
#
# Bulk Modulus (GPa) = 44.19194 50.48683 47.33938
# Shear Modulus (GPa) = 19.02097 26.97604 22.99850
#
# Velocity S-wave (km/s) = 3.25036 3.87083 3.57409
# Velocity P-wave (km/s) = 6.21547 6.92963 6.58224
#
# Compressibility (1/GPa) = 0.02262856
#
# Stress axis : x y z
#
# Youngs Moduli (GPa) = 141.03504 55.96910 69.40451
#
# Poissons Ratio (x) = 0.04993 0.18204
# Poissons Ratio (y) = 0.12581 0.33686
# Poissons Ratio (z) = 0.36992 0.27165
#
# Static dielectric constant tensor:
#      x y z
#    x 1.633040 0.000000 0.000000 
#    y 0.000000 1.645960 0.000000 
#    z 0.000000 0.000000 1.593720 
# 
# From -- ./inp_files/42242.got.cif
#   From: 2010.05.17/outbox.cif.g08.bks.cpg/sg68_22_cif.got.tgz:42242.got - 2010.06.03 18:57:09.
