data_PCOD9506822
_publ_section_title
;
Structure prediction by ZEFSAII (Michael W. Deem and Ramdas Pophale) SiO2 
 PCOD9506822
Probable space group: C C C A
;
_chemical_formula_sum "Si O2"
_cell_formula_units_Z 96
_cell_length_a 20.654286
_cell_length_b 10.604875
_cell_length_c 17.794150
_cell_angle_alpha 90.000000
_cell_angle_beta 90.000000
_cell_angle_gamma 90.000000
_cell_volume 3897.561597
_symmetry_space_group_name_H-M "C C C A"
_symmetry_group_IT_number 68
_space_group.IT_coordinate_system_code '2'
_symmetry_cell_setting 'orthorhombic'
loop_
_space_group_symop_operation_xyz
x,y,z
-x,1/2-y,z
x,1/2-y,1/2-z
-x,y,1/2-z
-x,-y,-z
x,1/2+y,-z
-x,1/2+y,1/2+z
x,-y,1/2+z
1/2+x,1/2+y,z
1/2-x,-y,z
1/2+x,-y,1/2-z
1/2-x,1/2+y,1/2-z
1/2-x,1/2-y,-z
1/2+x,y,-z
1/2-x,y,1/2+z
1/2+x,1/2-y,1/2+z
loop_
_atom_site_type_symbol
_atom_site_label
_atom_site_fract_x
_atom_site_fract_y
_atom_site_fract_z
Si Si1 0.287215 0.376060 0.117405
Si Si2 0.607123 0.965805 0.511226
Si Si3 0.699133 0.385250 0.088047
Si Si4 0.594774 0.665618 0.148053
Si Si5 0.856620 0.953722 0.261762
Si Si6 0.453398 0.940217 0.347631
O O1 0.250000 0.500000 0.092319
O O2 0.352029 0.382236 0.068896
O O3 0.258940 0.242329 0.093518
O O4 0.303196 0.402498 0.204283
O O5 0.650751 0.082497 0.480179
O O6 0.549866 0.012461 0.565948
O O7 0.598219 0.882320 0.437253
O O8 0.750000 0.500000 0.092900
O O9 0.652413 0.375684 0.161804
O O10 0.645757 0.594637 0.201761
O O11 0.524567 0.608632 0.171570
O O12 0.591988 0.815222 0.154154
O O13 0.921046 0.960494 0.209885
#
# Coordination Sequence:
#
# PCOD9506822 Si02
#       6
#    16  16  16  16  16  16
#     4  11  24  41  62  89 122 161 205 252 305 364
#     4  10  22  38  60  88 124 160 200 250 306 358
#     4  11  24  41  62  89 122 161 205 252 305 364
#     4  10  20  36  60  89 121 160 205 249 297 359
#     4  10  22  37  57  85 118 152 196 250 302 352
#     4  10  20  36  60  89 121 160 205 249 297 359
#
# _framework density 24.630783999999998
#
# number of rings (size 3 to 8) (size 9 to 14) (size 15 to 20)
#    0.000    1.667    0.000    4.000    0.000   10.667 
#    0.000    0.000    0.000   38.000    0.000    0.000 
#    0.000    0.000    0.000    0.000    0.000    0.000 
#
# Total GULP energy -267764.943973 kJ/mol
# GULP energy per Si atom -5578.436333 kJ/mol
# Density = 2.457472 g / cm^3
# Si number density = 24.630784 Si / 1000 Ang^3
#
#
#
# Elastic Constant Matrix: (Units=GPa)
#
#
# Indices 1 2 3 4 5 6 
#
# 1 21.2428 4.6679 9.1994 0.0000 0.0000 0.0000
# 2 4.6679 109.9445 0.8393 0.0000 0.0000 0.0000
# 3 9.1994 0.8393 154.2579 0.0000 0.0000 0.0000
# 4 0.0000 0.0000 0.0000 24.0305 0.0000 0.0000
# 5 0.0000 0.0000 0.0000 0.0000 38.4092 0.0000
# 6 0.0000 0.0000 0.0000 0.0000 0.0000 27.0035
#
#
#
# Elastic Compliance Matrix: (Units=1/GPa)
#
#
# Indices 1 2 3 4 5 6 
#
# 1 0.048780 -0.002049 -0.002898 0.000000 0.000000 0.000000
# 2 -0.002049 0.009182 0.000072 0.000000 0.000000 0.000000
# 3 -0.002898 0.000072 0.006655 0.000000 0.000000 0.000000
# 4 0.000000 0.000000 0.000000 0.041614 0.000000 0.000000
# 5 0.000000 0.000000 0.000000 0.000000 0.026035 0.000000
# 6 0.000000 0.000000 0.000000 0.000000 0.000000 0.037032
#
#
# Mechanical properties :
#
#
# Convention : Reuss Voigt Hill
#
# Bulk Modulus (GPa) = 18.22562 34.98426 26.60494
# Shear Modulus (GPa) = 25.33735 35.93787 30.63761
#
# Velocity S-wave (km/s) = 3.21079 3.82391 3.53069
# Velocity P-wave (km/s) = 4.60013 5.80781 5.23889
#
# Compressibility (1/GPa) = 0.05486782
#
# Stress axis : x y z
#
# Youngs Moduli (GPa) = 20.50019 108.90943 150.26121
#
# Poissons Ratio (x) = 0.22315 0.43545
# Poissons Ratio (y) = 0.04200 -0.01085
# Poissons Ratio (z) = 0.05941 -0.00787
#
# Static dielectric constant tensor:
#      x y z
#    x 2.034130 0.000000 0.000000 
#    y 0.000000 2.027880 0.000000 
#    z 0.000000 0.000000 1.976150 
# 
# From -- ./inp_files/33546.got.cif
#   From: 2010.05.17/outbox.cif.g08.bks.cpg/sg68_17_cif.got.tgz:33546.got - 2010.06.03 18:57:09.
