data_PCOD9506860
_publ_section_title
;
Structure prediction by ZEFSAII (Michael W. Deem and Ramdas Pophale) SiO2 
 PCOD9506860
Probable space group: C C C A
;
_chemical_formula_sum "Si O2"
_cell_formula_units_Z 60
_cell_length_a 16.849198
_cell_length_b 12.205472
_cell_length_c 12.357458
_cell_angle_alpha 90.000000
_cell_angle_beta 90.000000
_cell_angle_gamma 90.000000
_cell_volume 2541.341074
_symmetry_space_group_name_H-M "C C C A"
_symmetry_group_IT_number 68
_space_group.IT_coordinate_system_code '2'
_symmetry_cell_setting 'orthorhombic'
loop_
_space_group_symop_operation_xyz
x,y,z
-x,1/2-y,z
x,1/2-y,1/2-z
-x,y,1/2-z
-x,-y,-z
x,1/2+y,-z
-x,1/2+y,1/2+z
x,-y,1/2+z
1/2+x,1/2+y,z
1/2-x,-y,z
1/2+x,-y,1/2-z
1/2-x,1/2+y,1/2-z
1/2-x,1/2-y,-z
1/2+x,y,-z
1/2-x,y,1/2+z
1/2+x,1/2-y,1/2+z
loop_
_atom_site_type_symbol
_atom_site_label
_atom_site_fract_x
_atom_site_fract_y
_atom_site_fract_z
Si Si1 0.251118 0.250000 0.250000
Si Si2 0.370286 0.342675 0.902987
Si Si3 0.877374 0.565935 0.204383
Si Si4 0.966859 0.416010 0.911275
Si Si5 0.500000 0.250000 0.750000
O O1 0.195114 0.241459 0.143055
O O2 0.307722 0.146146 0.238675
O O3 0.347140 0.466830 0.870385
O O4 0.445792 0.320731 0.827711
O O5 0.404740 0.339444 0.023900
O O6 0.916947 0.525920 0.316624
O O7 0.951609 0.625931 0.144073
O O8 0.000000 0.500000 0.000000
#
# Coordination Sequence:
#
# PCOD9506860 Si02
#       5
#     8  16  16  16   4
#     4  11  24  38  60  91 132 166 196 261 332 376
#     4  10  21  40  62  88 122 162 208 257 310 374
#     4  10  21  40  61  92 126 159 207 262 311 371
#     4   9  19  38  66  87 116 165 210 255 308 373
#     4  10  20  36  64  90 112 158 216 254 292 360
#
# _framework density 23.609582
#
# number of rings (size 3 to 8) (size 9 to 14) (size 15 to 20)
#    0.000    2.133    0.000    4.000    0.000    5.333 
#    0.000   16.000    0.000    0.000    0.000    0.000 
#    0.000    0.000    0.000    0.000    0.000    0.000 
#
# Total GULP energy -167416.737115 kJ/mol
# GULP energy per Si atom -5580.557904 kJ/mol
# Density = 2.355585 g / cm^3
# Si number density = 23.609582 Si / 1000 Ang^3
#
#
#
# Elastic Constant Matrix: (Units=GPa)
#
#
# Indices 1 2 3 4 5 6 
#
# 1 129.4386 33.3029 37.6986 0.0000 0.0000 0.0000
# 2 33.3029 71.8131 16.3931 0.0000 0.0000 0.0000
# 3 37.6986 16.3931 117.8621 0.0000 0.0000 0.0000
# 4 0.0000 0.0000 0.0000 27.8108 0.0000 0.0000
# 5 0.0000 0.0000 0.0000 0.0000 23.8429 0.0000
# 6 0.0000 0.0000 0.0000 0.0000 0.0000 44.6908
#
#
#
# Elastic Compliance Matrix: (Units=1/GPa)
#
#
# Indices 1 2 3 4 5 6 
#
# 1 0.009429 -0.003805 -0.002487 0.000000 0.000000 0.000000
# 2 -0.003805 0.015917 -0.000997 0.000000 0.000000 0.000000
# 3 -0.002487 -0.000997 0.009419 0.000000 0.000000 0.000000
# 4 0.000000 0.000000 0.000000 0.035957 0.000000 0.000000
# 5 0.000000 0.000000 0.000000 0.000000 0.041941 0.000000
# 6 0.000000 0.000000 0.000000 0.000000 0.000000 0.022376
#
#
# Mechanical properties :
#
#
# Convention : Reuss Voigt Hill
#
# Bulk Modulus (GPa) = 49.53528 54.87811 52.20669
# Shear Modulus (GPa) = 31.98055 34.71682 33.34869
#
# Velocity S-wave (km/s) = 3.68442 3.83881 3.76241
# Velocity P-wave (km/s) = 6.25512 6.55310 6.40584
#
# Compressibility (1/GPa) = 0.02018763
#
# Stress axis : x y z
#
# Youngs Moduli (GPa) = 106.05737 62.82549 106.17399
#
# Poissons Ratio (x) = 0.23905 0.26402
# Poissons Ratio (y) = 0.40354 0.10584
# Poissons Ratio (z) = 0.26373 0.06263
#
# Static dielectric constant tensor:
#      x y z
#    x 1.933440 0.000000 0.000000 
#    y 0.000000 2.153270 0.000000 
#    z 0.000000 0.000000 1.890350 
# 
# From -- ./inp_files/12733.got.cif
#   From: 2010.05.17/outbox.cif.g08.bks.cpg/sg68_7_cif.got.tgz:12733.got - 2010.06.03 18:57:09.
