data_PCOD9506110
_publ_section_title
;
Structure prediction by ZEFSAII (Michael W. Deem and Ramdas Pophale) SiO2 
 PCOD9506110
Probable space group: C C C A
;
_chemical_formula_sum "Si O2"
_cell_formula_units_Z 56
_cell_length_a 22.101174
_cell_length_b 5.070238
_cell_length_c 25.210918
_cell_angle_alpha 90.000000
_cell_angle_beta 90.000000
_cell_angle_gamma 90.000000
_cell_volume 2825.090400
_symmetry_space_group_name_H-M "C C C A"
_symmetry_group_IT_number 68
_space_group.IT_coordinate_system_code '2'
_symmetry_cell_setting 'orthorhombic'
loop_
_space_group_symop_operation_xyz
x,y,z
-x,1/2-y,z
x,1/2-y,1/2-z
-x,y,1/2-z
-x,-y,-z
x,1/2+y,-z
-x,1/2+y,1/2+z
x,-y,1/2+z
1/2+x,1/2+y,z
1/2-x,-y,z
1/2+x,-y,1/2-z
1/2-x,1/2+y,1/2-z
1/2-x,1/2-y,-z
1/2+x,y,-z
1/2-x,y,1/2+z
1/2+x,1/2-y,1/2+z
loop_
_atom_site_type_symbol
_atom_site_label
_atom_site_fract_x
_atom_site_fract_y
_atom_site_fract_z
Si Si1 0.931227 0.731465 0.141664
Si Si2 0.371645 0.265293 0.687296
Si Si3 0.568017 0.937576 0.521874
Si Si4 0.250000 0.500000 0.285312
O O1 0.911534 0.433831 0.152639
O O2 0.932242 0.818879 0.080245
O O3 0.000000 0.750000 0.162083
O O4 0.886135 0.938450 0.169521
O O5 0.386336 0.250000 0.750000
O O6 0.303862 0.145527 0.683572
O O7 0.597533 0.723369 0.483113
O O8 0.500000 0.000000 0.500000
O O9 0.274221 0.250000 0.250000
#
# Coordination Sequence:
#
# PCOD9506110 Si02
#       4
#    16  16  16   8
#     4  12  23  35  58  90 125 154 196 236 309 374
#     4  11  24  39  58  86 119 162 199 244 296 352
#     4  10  19  34  56  79 114 150 203 243 279 349
#     4  10  20  42  66  80 110 160 224 262 282 344
#
# _framework density 19.822372999999999
#
# number of rings (size 3 to 8) (size 9 to 14) (size 15 to 20)
#    0.000    1.143    2.857    6.857    4.000    3.429 
#    0.000    0.000    0.000    0.000    0.000   20.000 
#    0.000    0.000    0.000    0.000    0.000    0.000 
#
# Total GULP energy -156020.887429 kJ/mol
# GULP energy per Si atom -5572.174551 kJ/mol
# Density = 1.977726 g / cm^3
# Si number density = 19.822373 Si / 1000 Ang^3
#
#
#
# Elastic Constant Matrix: (Units=GPa)
#
#
# Indices 1 2 3 4 5 6 
#
# 1 64.9150 -4.6332 -2.7816 0.0000 0.0000 0.0000
# 2 -4.6332 113.6361 3.0294 0.0000 0.0000 0.0000
# 3 -2.7816 3.0294 84.1716 0.0000 0.0000 0.0000
# 4 0.0000 0.0000 0.0000 41.7384 0.0000 0.0000
# 5 0.0000 0.0000 0.0000 0.0000 -187.8703 0.0000
# 6 0.0000 0.0000 0.0000 0.0000 0.0000 34.1364
#
#
#
# Elastic Compliance Matrix: (Units=1/GPa)
#
#
# Indices 1 2 3 4 5 6 
#
# 1 0.015470 0.000618 0.000489 0.000000 0.000000 0.000000
# 2 0.000618 0.008833 -0.000298 0.000000 0.000000 0.000000
# 3 0.000489 -0.000298 0.011907 0.000000 0.000000 0.000000
# 4 0.000000 0.000000 0.000000 0.023959 0.000000 0.000000
# 5 0.000000 0.000000 0.000000 0.000000 -0.005323 0.000000
# 6 0.000000 0.000000 0.000000 0.000000 0.000000 0.029294
#
#
# Mechanical properties :
#
#
# Convention : Reuss Voigt Hill
#
# Bulk Modulus (GPa) = 26.43495 28.21687 27.32591
# Shear Modulus (GPa) = 52.55875 -4.59191 23.98342
#
# Velocity S-wave (km/s) = 5.15484 -1.52367 3.48216
# Velocity P-wave (km/s) = 6.98532 3.34221 5.47563
#
# Compressibility (1/GPa) = 0.03782871
#
# Stress axis : x y z
#
# Youngs Moduli (GPa) = 64.64203 113.21003 83.98166
#
# Poissons Ratio (x) = -0.06993 -0.04107
# Poissons Ratio (y) = -0.03993 0.02498
# Poissons Ratio (z) = -0.03161 0.03368
#
# Static dielectric constant tensor:
#      x y z
#    x 1.793860 0.000000 0.000000 
#    y 0.000000 1.855220 0.000000 
#    z 0.000000 0.000000 1.726890 
# 
# From -- ./inp_files/41974.got.cif
#   From: 2010.05.17/outbox.cif.g08.bks.cpg/sg68_21_cif.got.tgz:41974.got - 2010.06.03 18:57:09.
