data_PCOD9506798
_publ_section_title
;
Structure prediction by ZEFSAII (Michael W. Deem and Ramdas Pophale) SiO2 
 PCOD9506798
Probable space group: C C C A
;
_chemical_formula_sum "Si O2"
_cell_formula_units_Z 96
_cell_length_a 26.245124
_cell_length_b 16.108323
_cell_length_c 9.691672
_cell_angle_alpha 90.000000
_cell_angle_beta 90.000000
_cell_angle_gamma 90.000000
_cell_volume 4097.299079
_symmetry_space_group_name_H-M "C C C A"
_symmetry_group_IT_number 68
_space_group.IT_coordinate_system_code '2'
_symmetry_cell_setting 'orthorhombic'
loop_
_space_group_symop_operation_xyz
x,y,z
-x,1/2-y,z
x,1/2-y,1/2-z
-x,y,1/2-z
-x,-y,-z
x,1/2+y,-z
-x,1/2+y,1/2+z
x,-y,1/2+z
1/2+x,1/2+y,z
1/2-x,-y,z
1/2+x,-y,1/2-z
1/2-x,1/2+y,1/2-z
1/2-x,1/2-y,-z
1/2+x,y,-z
1/2-x,y,1/2+z
1/2+x,1/2-y,1/2+z
loop_
_atom_site_type_symbol
_atom_site_label
_atom_site_fract_x
_atom_site_fract_y
_atom_site_fract_z
Si Si1 0.399583 0.825699 0.824518
Si Si2 0.763361 0.877025 0.560777
Si Si3 0.441514 0.015055 0.467226
Si Si4 0.330907 0.787337 0.080712
Si Si5 0.310210 0.067335 0.204241
Si Si6 0.383709 0.575690 0.257679
O O1 0.427103 0.750000 0.750000
O O2 0.433070 0.903265 0.872764
O O3 0.354135 0.863910 0.730492
O O4 0.370806 0.786370 0.955488
O O5 0.714738 0.847679 0.469673
O O6 0.799583 0.798324 0.593625
O O7 0.736750 0.908515 0.698899
O O8 0.794473 0.935010 0.455342
O O9 0.412817 0.036537 0.609749
O O10 0.500000 0.000000 0.500000
O O11 0.416991 0.939173 0.379501
O O12 0.363947 0.833988 0.198652
O O13 0.334841 0.982917 0.257204
#
# Coordination Sequence:
#
# PCOD9506798 Si02
#       6
#    16  16  16  16  16  16
#     4   9  16  34  63  96 129 170 223 281 343 407
#     4  10  20  36  59  85 128 179 233 270 322 393
#     4  10  21  39  69 102 135 172 224 286 360 433
#     4   9  19  33  59  91 127 176 228 275 332 385
#     4  10  21  36  58  89 133 181 223 278 330 398
#     4  10  22  41  63  97 137 176 223 286 351 414
#
# _framework density 23.430070000000001
#
# number of rings (size 3 to 8) (size 9 to 14) (size 15 to 20)
#    0.000    2.333    1.667    1.500    0.000    2.000 
#    0.000    6.667    0.000    8.000    0.000    0.000 
#    5.000    0.000    0.000    0.000    0.000    0.000 
#
# Total GULP energy -268495.206047 kJ/mol
# GULP energy per Si atom -5593.650126 kJ/mol
# Density = 2.337674 g / cm^3
# Si number density = 23.430070 Si / 1000 Ang^3
#
#
#
# Elastic Constant Matrix: (Units=GPa)
#
#
# Indices 1 2 3 4 5 6 
#
# 1 139.0699 56.9664 68.1236 0.0000 0.0000 0.0000
# 2 56.9664 111.8506 39.1813 0.0000 0.0000 0.0000
# 3 68.1236 39.1813 122.2034 0.0000 0.0000 0.0000
# 4 0.0000 0.0000 0.0000 32.6458 0.0000 0.0000
# 5 0.0000 0.0000 0.0000 0.0000 22.8039 0.0000
# 6 0.0000 0.0000 0.0000 0.0000 0.0000 16.4949
#
#
#
# Elastic Compliance Matrix: (Units=1/GPa)
#
#
# Indices 1 2 3 4 5 6 
#
# 1 0.011278 -0.003990 -0.005008 0.000000 0.000000 0.000000
# 2 -0.003990 0.011483 -0.001458 0.000000 0.000000 0.000000
# 3 -0.005008 -0.001458 0.011442 0.000000 0.000000 0.000000
# 4 0.000000 0.000000 0.000000 0.030632 0.000000 0.000000
# 5 0.000000 0.000000 0.000000 0.000000 0.043852 0.000000
# 6 0.000000 0.000000 0.000000 0.000000 0.000000 0.060625
#
#
# Mechanical properties :
#
#
# Convention : Reuss Voigt Hill
#
# Bulk Modulus (GPa) = 75.22870 77.96295 76.59583
# Shear Modulus (GPa) = 25.68669 28.31243 26.99956
#
# Velocity S-wave (km/s) = 3.31465 3.47995 3.39831
# Velocity P-wave (km/s) = 6.84300 7.03518 6.93975
#
# Compressibility (1/GPa) = 0.01329280
#
# Stress axis : x y z
#
# Youngs Moduli (GPa) = 88.66798 87.08438 87.39643
#
# Poissons Ratio (x) = 0.34744 0.43767
# Poissons Ratio (y) = 0.35376 0.12739
# Poissons Ratio (z) = 0.44404 0.12694
#
# Static dielectric constant tensor:
#      x y z
#    x 1.853620 0.000000 0.000000 
#    y 0.000000 1.952160 0.000000 
#    z 0.000000 0.000000 1.966870 
# 
# From -- ./inp_files/8915.got.cif
#   From: 2010.05.17/outbox.cif.g08.bks.cpg/sg68_5_cif.got.tgz:8915.got - 2010.06.03 18:57:09.
