data_PCOD9506944
_publ_section_title
;
Structure prediction by ZEFSAII (Michael W. Deem and Ramdas Pophale) SiO2 
 PCOD9506944
Probable space group: C C C A
;
_chemical_formula_sum "Si O2"
_cell_formula_units_Z 80
_cell_length_a 20.731867
_cell_length_b 12.645966
_cell_length_c 13.367991
_cell_angle_alpha 90.000000
_cell_angle_beta 90.000000
_cell_angle_gamma 90.000000
_cell_volume 3504.746159
_symmetry_space_group_name_H-M "C C C A"
_symmetry_group_IT_number 68
_space_group.IT_coordinate_system_code '2'
_symmetry_cell_setting 'orthorhombic'
loop_
_space_group_symop_operation_xyz
x,y,z
-x,1/2-y,z
x,1/2-y,1/2-z
-x,y,1/2-z
-x,-y,-z
x,1/2+y,-z
-x,1/2+y,1/2+z
x,-y,1/2+z
1/2+x,1/2+y,z
1/2-x,-y,z
1/2+x,-y,1/2-z
1/2-x,1/2+y,1/2-z
1/2-x,1/2-y,-z
1/2+x,y,-z
1/2-x,y,1/2+z
1/2+x,1/2-y,1/2+z
loop_
_atom_site_type_symbol
_atom_site_label
_atom_site_fract_x
_atom_site_fract_y
_atom_site_fract_z
Si Si1 0.469151 0.586634 0.923520
Si Si2 0.688791 0.750000 0.750000
Si Si3 0.712797 0.189195 0.910290
Si Si4 0.129754 0.372451 0.092976
Si Si5 0.412881 0.922623 0.796159
Si Si6 0.750000 0.000000 0.018060
O O1 0.466604 0.868489 0.868718
O O2 0.431440 0.561939 0.820143
O O3 0.500000 0.500000 0.000000
O O4 0.415565 0.639559 0.995109
O O5 0.735243 0.812418 0.823666
O O6 0.645733 0.659879 0.801597
O O7 0.650123 0.254104 0.877736
O O8 0.703205 0.072312 0.950828
O O9 0.750000 0.250000 0.000000
O O10 0.096789 0.458051 0.164500
O O11 0.199684 0.428673 0.077583
#
# Coordination Sequence:
#
# PCOD9506944 Si02
#       6
#    16   8  16  16  16   8
#     4   9  20  37  60  89 122 162 206 259 316 372
#     4  12  24  37  60  92 122 163 214 256 314 380
#     4  10  22  38  59  90 122 159 202 252 314 377
#     4  10  20  38  62  90 122 161 206 254 314 380
#     4  10  20  37  61  89 122 161 210 261 308 375
#     4  10  20  38  60  84 126 162 192 252 314 370
#
# _framework density 22.82619
#
# number of rings (size 3 to 8) (size 9 to 14) (size 15 to 20)
#    0.000    2.000    0.000    4.800    0.000    4.800 
#    0.000    3.000    0.000    3.600    0.000   11.200 
#    0.000    0.000    0.000    0.000    0.000    0.000 
#
# Total GULP energy -222756.639232 kJ/mol
# GULP energy per Si atom -5568.915981 kJ/mol
# Density = 2.277424 g / cm^3
# Si number density = 22.826190 Si / 1000 Ang^3
#
#
#
# Elastic Constant Matrix: (Units=GPa)
#
#
# Indices 1 2 3 4 5 6 
#
# 1 78.6428 -7.3456 22.3869 0.0000 0.0000 0.0000
# 2 -7.3456 49.6139 -6.2493 0.0000 0.0000 0.0000
# 3 22.3869 -6.2493 73.6009 0.0000 0.0000 0.0000
# 4 0.0000 0.0000 0.0000 9.3218 0.0000 0.0000
# 5 0.0000 0.0000 0.0000 0.0000 32.6102 0.0000
# 6 0.0000 0.0000 0.0000 0.0000 0.0000 27.9637
#
#
#
# Elastic Compliance Matrix: (Units=1/GPa)
#
#
# Indices 1 2 3 4 5 6 
#
# 1 0.014039 0.001557 -0.004138 0.000000 0.000000 0.000000
# 2 0.001557 0.020546 0.001271 0.000000 0.000000 0.000000
# 3 -0.004138 0.001271 0.014953 0.000000 0.000000 0.000000
# 4 0.000000 0.000000 0.000000 0.107275 0.000000 0.000000
# 5 0.000000 0.000000 0.000000 0.000000 0.030665 0.000000
# 6 0.000000 0.000000 0.000000 0.000000 0.000000 0.035761
#
#
# Mechanical properties :
#
#
# Convention : Reuss Voigt Hill
#
# Bulk Modulus (GPa) = 21.31324 24.38240 22.84782
# Shear Modulus (GPa) = 20.70399 26.85019 23.77709
#
# Velocity S-wave (km/s) = 3.01496 3.43343 3.23097
# Velocity P-wave (km/s) = 4.63437 5.14032 4.89389
#
# Compressibility (1/GPa) = 0.04691918
#
# Stress axis : x y z
#
# Youngs Moduli (GPa) = 71.22950 48.67055 66.87475
#
# Poissons Ratio (x) = -0.07580 0.27673
# Poissons Ratio (y) = -0.11093 -0.08499
# Poissons Ratio (z) = 0.29475 -0.06185
#
# Static dielectric constant tensor:
#      x y z
#    x 1.897070 0.000000 0.000000 
#    y 0.000000 1.960850 0.000000 
#    z 0.000000 0.000000 1.887960 
# 
# From -- ./inp_files/25219.got.cif
#   From: 2010.05.17/outbox.cif.g08.bks.cpg/sg68_13_cif.got.tgz:25219.got - 2010.06.03 18:57:09.
