data_PCOD9506612
_publ_section_title
;
Structure prediction by ZEFSAII (Michael W. Deem and Ramdas Pophale) SiO2 
 PCOD9506612
Probable space group: C C C A
;
_chemical_formula_sum "Si O2"
_cell_formula_units_Z 72
_cell_length_a 25.455382
_cell_length_b 14.331459
_cell_length_c 9.531407
_cell_angle_alpha 90.000000
_cell_angle_beta 90.000000
_cell_angle_gamma 90.000000
_cell_volume 3477.178927
_symmetry_space_group_name_H-M "C C C A"
_symmetry_group_IT_number 68
_space_group.IT_coordinate_system_code '2'
_symmetry_cell_setting 'orthorhombic'
loop_
_space_group_symop_operation_xyz
x,y,z
-x,1/2-y,z
x,1/2-y,1/2-z
-x,y,1/2-z
-x,-y,-z
x,1/2+y,-z
-x,1/2+y,1/2+z
x,-y,1/2+z
1/2+x,1/2+y,z
1/2-x,-y,z
1/2+x,-y,1/2-z
1/2-x,1/2+y,1/2-z
1/2-x,1/2-y,-z
1/2+x,y,-z
1/2-x,y,1/2+z
1/2+x,1/2-y,1/2+z
loop_
_atom_site_type_symbol
_atom_site_label
_atom_site_fract_x
_atom_site_fract_y
_atom_site_fract_z
Si Si1 0.180335 0.569389 0.001848
Si Si2 0.399338 0.334731 0.847767
Si Si3 0.250000 0.500000 0.746687
Si Si4 0.008026 0.351988 0.547380
Si Si5 0.078845 0.473006 0.104911
O O1 0.144515 0.658503 0.968507
O O2 0.211350 0.550279 0.857258
O O3 0.218075 0.565852 0.137155
O O4 0.134349 0.494333 0.031510
O O5 0.385629 0.250000 0.750000
O O6 0.406220 0.426332 0.751824
O O7 0.455962 0.325005 0.915069
O O8 0.043723 0.432400 0.622609
O O9 0.000000 0.250000 0.612802
O O10 0.956120 0.403448 0.489993
#
# Coordination Sequence:
#
# PCOD9506612 Si02
#       5
#    16  16   8  16  16
#     4  10  21  38  64  90 120 160 212 264 327 384
#     4  11  20  35  62  92 130 169 214 254 319 390
#     4  10  20  40  66  86 116 162 212 270 334 386
#     4  10  20  34  59  92 130 174 212 249 303 385
#     4  10  20  34  57  97 126 164 212 258 308 370
#
# _framework density 20.706440000000001
#
# number of rings (size 3 to 8) (size 9 to 14) (size 15 to 20)
#    0.000    1.778    4.444    0.667    0.000    0.000 
#    0.000    1.111    0.000   29.333    0.000    0.000 
#    0.000    0.000    0.000    0.000    0.000    0.000 
#
# Total GULP energy -200554.010773 kJ/mol
# GULP energy per Si atom -5570.944744 kJ/mol
# Density = 2.065931 g / cm^3
# Si number density = 20.706440 Si / 1000 Ang^3
#
#
#
# Elastic Constant Matrix: (Units=GPa)
#
#
# Indices 1 2 3 4 5 6 
#
# 1 119.9522 19.8564 47.4710 0.0000 0.0000 0.0000
# 2 19.8564 98.7590 20.0630 0.0000 0.0000 0.0000
# 3 47.4710 20.0630 118.5909 0.0000 0.0000 0.0000
# 4 0.0000 0.0000 0.0000 17.5923 0.0000 0.0000
# 5 0.0000 0.0000 0.0000 0.0000 82.4965 0.0000
# 6 0.0000 0.0000 0.0000 0.0000 0.0000 9.2685
#
#
#
# Elastic Compliance Matrix: (Units=1/GPa)
#
#
# Indices 1 2 3 4 5 6 
#
# 1 0.010052 -0.001246 -0.003813 0.000000 0.000000 0.000000
# 2 -0.001246 0.010641 -0.001301 0.000000 0.000000 0.000000
# 3 -0.003813 -0.001301 0.010179 0.000000 0.000000 0.000000
# 4 0.000000 0.000000 0.000000 0.056843 0.000000 0.000000
# 5 0.000000 0.000000 0.000000 0.000000 0.012122 0.000000
# 6 0.000000 0.000000 0.000000 0.000000 0.000000 0.107892
#
#
# Mechanical properties :
#
#
# Convention : Reuss Voigt Hill
#
# Bulk Modulus (GPa) = 55.09559 56.89808 55.99684
# Shear Modulus (GPa) = 22.07510 38.53223 30.30367
#
# Velocity S-wave (km/s) = 3.26866 4.31847 3.82971
# Velocity P-wave (km/s) = 6.39619 7.23904 6.83063
#
# Compressibility (1/GPa) = 0.01815027
#
# Stress axis : x y z
#
# Youngs Moduli (GPa) = 99.48353 93.97952 98.24402
#
# Poissons Ratio (x) = 0.11714 0.37459
# Poissons Ratio (y) = 0.12400 0.12784
# Poissons Ratio (z) = 0.37931 0.12229
#
# Static dielectric constant tensor:
#      x y z
#    x 1.707250 0.000000 0.000000 
#    y 0.000000 1.878960 0.000000 
#    z 0.000000 0.000000 1.829500 
# 
# From -- ./inp_files/8668.got.cif
#   From: 2010.05.17/outbox.cif.g08.bks.cpg/sg68_5_cif.got.tgz:8668.got - 2010.06.03 18:57:09.
