data_PCOD9506754
_publ_section_title
;
Structure prediction by ZEFSAII (Michael W. Deem and Ramdas Pophale) SiO2 
 PCOD9506754
Probable space group: C C C A
;
_chemical_formula_sum "Si O2"
_cell_formula_units_Z 64
_cell_length_a 7.740382
_cell_length_b 16.066950
_cell_length_c 20.633635
_cell_angle_alpha 90.000000
_cell_angle_beta 90.000000
_cell_angle_gamma 90.000000
_cell_volume 2566.088204
_symmetry_space_group_name_H-M "C C C A"
_symmetry_group_IT_number 68
_space_group.IT_coordinate_system_code '2'
_symmetry_cell_setting 'orthorhombic'
loop_
_space_group_symop_operation_xyz
x,y,z
-x,1/2-y,z
x,1/2-y,1/2-z
-x,y,1/2-z
-x,-y,-z
x,1/2+y,-z
-x,1/2+y,1/2+z
x,-y,1/2+z
1/2+x,1/2+y,z
1/2-x,-y,z
1/2+x,-y,1/2-z
1/2-x,1/2+y,1/2-z
1/2-x,1/2-y,-z
1/2+x,y,-z
1/2-x,y,1/2+z
1/2+x,1/2-y,1/2+z
loop_
_atom_site_type_symbol
_atom_site_label
_atom_site_fract_x
_atom_site_fract_y
_atom_site_fract_z
Si Si1 0.339151 0.409766 0.412224
Si Si2 0.655728 0.590599 0.350846
Si Si3 0.513461 0.156456 0.977613
Si Si4 0.226644 0.903524 0.718296
O O1 0.250000 0.500000 0.412036
O O2 0.495695 0.405512 0.461676
O O3 0.362160 0.383046 0.338151
O O4 0.199375 0.350935 0.445170
O O5 0.750000 0.500000 0.361837
O O6 0.621517 0.633551 0.419977
O O7 0.460070 0.593175 0.318635
O O8 0.743422 0.637573 0.288998
O O9 0.500000 0.250000 0.001331
O O10 0.250000 0.000000 0.735177
#
# Coordination Sequence:
#
# PCOD9506754 Si02
#       4
#    16  16  16  16
#     4  10  20  36  56  78 104 143 185 220 259 315
#     4   9  17  32  53  77 103 137 180 221 263 314
#     4  11  22  35  53  81 113 142 172 220 272 318
#     4   8  16  31  52  78 103 132 178 229 263 301
#
# _framework density 24.940687
#
# number of rings (size 3 to 8) (size 9 to 14) (size 15 to 20)
#    0.000    2.500    0.000    2.250    0.000    4.000 
#    0.000   10.000    0.000    0.000    0.000    1.750 
#    0.000    0.000    0.000    0.000    0.000    0.000 
#
# Total GULP energy -178192.267782 kJ/mol
# GULP energy per Si atom -5568.508368 kJ/mol
# Density = 2.488392 g / cm^3
# Si number density = 24.940687 Si / 1000 Ang^3
#
#
#
# Elastic Constant Matrix: (Units=GPa)
#
#
# Indices 1 2 3 4 5 6 
#
# 1 66.0827 10.1746 37.1448 0.0000 0.0000 0.0000
# 2 10.1746 34.1468 18.0638 0.0000 0.0000 0.0000
# 3 37.1448 18.0638 198.9113 0.0000 0.0000 0.0000
# 4 0.0000 0.0000 0.0000 13.2125 0.0000 0.0000
# 5 0.0000 0.0000 0.0000 0.0000 11.0682 0.0000
# 6 0.0000 0.0000 0.0000 0.0000 0.0000 22.4021
#
#
#
# Elastic Compliance Matrix: (Units=1/GPa)
#
#
# Indices 1 2 3 4 5 6 
#
# 1 0.017324 -0.003625 -0.002906 0.000000 0.000000 0.000000
# 2 -0.003625 0.031522 -0.002186 0.000000 0.000000 0.000000
# 3 -0.002906 -0.002186 0.005769 0.000000 0.000000 0.000000
# 4 0.000000 0.000000 0.000000 0.075686 0.000000 0.000000
# 5 0.000000 0.000000 0.000000 0.000000 0.090349 0.000000
# 6 0.000000 0.000000 0.000000 0.000000 0.000000 0.044639
#
#
# Mechanical properties :
#
#
# Convention : Reuss Voigt Hill
#
# Bulk Modulus (GPa) = 26.89514 47.76746 37.33130
# Shear Modulus (GPa) = 16.94260 24.92040 20.93150
#
# Velocity S-wave (km/s) = 2.60920 3.16442 2.90013
# Velocity P-wave (km/s) = 4.45918 5.70486 5.12004
#
# Compressibility (1/GPa) = 0.03718143
#
# Stress axis : x y z
#
# Youngs Moduli (GPa) = 57.72318 31.72431 173.35499
#
# Poissons Ratio (x) = 0.11499 0.50376
# Poissons Ratio (y) = 0.20923 0.37890
# Poissons Ratio (z) = 0.16774 0.06934
#
# Static dielectric constant tensor:
#      x y z
#    x 2.233470 0.000000 0.000000 
#    y 0.000000 1.986640 0.000000 
#    z 0.000000 0.000000 2.079840 
# 
# From -- ./inp_files/35742.got.cif
#   From: 2010.05.17/outbox.cif.g08.bks.cpg/sg68_18_cif.got.tgz:35742.got - 2010.06.03 18:57:09.
