data_PCOD9506973
_publ_section_title
;
Structure prediction by ZEFSAII (Michael W. Deem and Ramdas Pophale) SiO2 
 PCOD9506973
Probable space group: C C C A
;
_chemical_formula_sum "Si O2"
_cell_formula_units_Z 72
_cell_length_a 25.640442
_cell_length_b 5.082827
_cell_length_c 24.145574
_cell_angle_alpha 90.000000
_cell_angle_beta 90.000000
_cell_angle_gamma 90.000000
_cell_volume 3146.794408
_symmetry_space_group_name_H-M "C C C A"
_symmetry_group_IT_number 68
_space_group.IT_coordinate_system_code '2'
_symmetry_cell_setting 'orthorhombic'
loop_
_space_group_symop_operation_xyz
x,y,z
-x,1/2-y,z
x,1/2-y,1/2-z
-x,y,1/2-z
-x,-y,-z
x,1/2+y,-z
-x,1/2+y,1/2+z
x,-y,1/2+z
1/2+x,1/2+y,z
1/2-x,-y,z
1/2+x,-y,1/2-z
1/2-x,1/2+y,1/2-z
1/2-x,1/2-y,-z
1/2+x,y,-z
1/2-x,y,1/2+z
1/2+x,1/2-y,1/2+z
loop_
_atom_site_type_symbol
_atom_site_label
_atom_site_fract_x
_atom_site_fract_y
_atom_site_fract_z
Si Si1 0.500000 0.750000 0.367605
Si Si2 0.679943 0.750000 0.250000
Si Si3 0.750000 0.000000 0.656739
Si Si4 0.895321 0.011734 0.329091
Si Si5 0.056643 0.067516 0.965023
Si Si6 0.356332 0.980434 0.890915
O O1 0.455497 0.605280 0.331341
O O2 0.471631 0.953409 0.410122
O O3 0.718497 0.682885 0.300233
O O4 0.638725 0.962451 0.273317
O O5 0.703390 0.899353 0.618231
O O6 0.867728 0.222911 0.370545
O O7 0.888287 0.721405 0.352106
O O8 0.117849 0.051069 0.950267
O O9 0.046679 0.863617 0.014975
#
# Coordination Sequence:
#
# PCOD9506973 Si02
#       6
#     8   8   8  16  16  16
#     4  10  22  39  60  88 124 164 192 249 314 352
#     4  10  20  37  64  92 114 157 204 242 288 374
#     4  10  20  38  66  88 120 162 202 248 316 366
#     4  10  22  37  58  88 125 152 197 246 295 357
#     4  11  22  38  61  88 118 158 209 250 297 372
#     4  10  22  39  58  89 121 153 195 257 302 346
#
# _framework density 22.880428999999999
#
# number of rings (size 3 to 8) (size 9 to 14) (size 15 to 20)
#    0.000    1.778    0.000    4.667    0.000   12.889 
#    0.000    1.111    0.000   10.667    0.000    0.000 
#    0.000    0.000    0.000    0.000    0.000    0.000 
#
# Total GULP energy -200837.273069 kJ/mol
# GULP energy per Si atom -5578.813141 kJ/mol
# Density = 2.282835 g / cm^3
# Si number density = 22.880429 Si / 1000 Ang^3
#
#
#
# Elastic Constant Matrix: (Units=GPa)
#
#
# Indices 1 2 3 4 5 6 
#
# 1 183.3944 11.3388 39.9034 0.0000 0.0000 0.0000
# 2 11.3388 79.7956 31.3876 0.0000 0.0000 0.0000
# 3 39.9034 31.3876 30.0299 0.0000 0.0000 0.0000
# 4 0.0000 0.0000 0.0000 28.6140 0.0000 0.0000
# 5 0.0000 0.0000 0.0000 0.0000 77.7562 0.0000
# 6 0.0000 0.0000 0.0000 0.0000 0.0000 17.2870
#
#
#
# Elastic Compliance Matrix: (Units=1/GPa)
#
#
# Indices 1 2 3 4 5 6 
#
# 1 0.009030 0.005836 -0.018099 0.000000 0.000000 0.000000
# 2 0.005836 0.025053 -0.033941 0.000000 0.000000 0.000000
# 3 -0.018099 -0.033941 0.092825 0.000000 0.000000 0.000000
# 4 0.000000 0.000000 0.000000 0.034948 0.000000 0.000000
# 5 0.000000 0.000000 0.000000 0.000000 0.012861 0.000000
# 6 0.000000 0.000000 0.000000 0.000000 0.000000 0.057847
#
#
# Mechanical properties :
#
#
# Convention : Reuss Voigt Hill
#
# Bulk Modulus (GPa) = 28.98465 50.94218 39.96341
# Shear Modulus (GPa) = 14.86014 38.77080 26.81547
#
# Velocity S-wave (km/s) = 2.55123 4.12089 3.42714
# Velocity P-wave (km/s) = 4.62318 6.70486 5.75886
#
# Compressibility (1/GPa) = 0.03450102
#
# Stress axis : x y z
#
# Youngs Moduli (GPa) = 110.74393 39.91480 10.77299
#
# Poissons Ratio (x) = -0.23294 0.19498
# Poissons Ratio (y) = -0.64630 0.36564
# Poissons Ratio (z) = 2.00431 1.35474
#
# Static dielectric constant tensor:
#      x y z
#    x 1.921090 0.000000 0.000000 
#    y 0.000000 1.861080 0.000000 
#    z 0.000000 0.000000 1.929170 
# 
# From -- ./inp_files/47158.got.cif
#   From: 2010.05.17/outbox.cif.g08.bks.cpg/sg68_24_cif.got.tgz:47158.got - 2010.06.03 18:57:09.
