data_PCOD9506848
_publ_section_title
;
Structure prediction by ZEFSAII (Michael W. Deem and Ramdas Pophale) SiO2 
 PCOD9506848
Probable space group: C C C A
;
_chemical_formula_sum "Si O2"
_cell_formula_units_Z 92
_cell_length_a 9.674506
_cell_length_b 18.264594
_cell_length_c 21.351256
_cell_angle_alpha 90.000000
_cell_angle_beta 90.000000
_cell_angle_gamma 90.000000
_cell_volume 3772.786669
_symmetry_space_group_name_H-M "C C C A"
_symmetry_group_IT_number 68
_space_group.IT_coordinate_system_code '2'
_symmetry_cell_setting 'orthorhombic'
loop_
_space_group_symop_operation_xyz
x,y,z
-x,1/2-y,z
x,1/2-y,1/2-z
-x,y,1/2-z
-x,-y,-z
x,1/2+y,-z
-x,1/2+y,1/2+z
x,-y,1/2+z
1/2+x,1/2+y,z
1/2-x,-y,z
1/2+x,-y,1/2-z
1/2-x,1/2+y,1/2-z
1/2-x,1/2-y,-z
1/2+x,y,-z
1/2-x,y,1/2+z
1/2+x,1/2-y,1/2+z
loop_
_atom_site_type_symbol
_atom_site_label
_atom_site_fract_x
_atom_site_fract_y
_atom_site_fract_z
Si Si1 0.750000 0.500000 0.269842
Si Si2 0.425277 0.616474 0.808199
Si Si3 0.347564 0.658916 0.357788
Si Si4 0.750000 0.000000 0.523076
Si Si5 0.000000 0.750000 0.750000
Si Si6 0.539723 0.021870 0.631603
Si Si7 0.217181 0.160755 0.008308
Si Si8 0.500000 0.250000 0.479744
O O1 0.664666 0.444287 0.228873
O O2 0.648073 0.545001 0.314609
O O3 0.500000 0.655658 0.750000
O O4 0.316752 0.661613 0.847503
O O5 0.511874 0.563229 0.852843
O O6 0.413140 0.700764 0.299033
O O7 0.413317 0.577429 0.360811
O O8 0.363986 0.688509 0.428560
O O9 0.719910 0.926347 0.486072
O O10 0.879571 0.977590 0.566650
O O11 0.371219 0.192587 0.001941
O O12 0.112149 0.189214 0.954743
#
# Coordination Sequence:
#
# PCOD9506848 Si02
#       8
#     8  16  16   8   4  16  16   8
#     4   9  16  33  56  90 130 181 211 270 364 444
#     4  10  20  36  62  96 135 179 224 293 378 425
#     4  12  24  43  67  98 136 188 237 308 355 448
#     4  11  26  41  74 122 148 185 257 326 358 456
#     4  12  30  48  70 100 140 200 266 280 362 480
#     4  10  21  37  66 102 146 179 227 306 387 419
#     4  11  26  47  76 104 150 195 258 306 385 446
#     4  10  25  52  70  96 148 216 239 298 372 474
#
# _framework density 24.385157
#
# number of rings (size 3 to 8) (size 9 to 14) (size 15 to 20)
#    0.000    1.391    1.739    2.609    6.087    2.783 
#    3.130    0.000    0.000    0.000    0.000    0.000 
#    0.000    0.000    0.000    0.000    0.000    0.000 
#
# Total GULP energy -256226.028436 kJ/mol
# GULP energy per Si atom -5570.131053 kJ/mol
# Density = 2.432966 g / cm^3
# Si number density = 24.385157 Si / 1000 Ang^3
#
#
#
# Elastic Constant Matrix: (Units=GPa)
#
#
# Indices 1 2 3 4 5 6 
#
# 1 125.3322 24.5199 20.3610 0.0000 0.0000 0.0000
# 2 24.5199 116.4532 28.9159 0.0000 0.0000 0.0000
# 3 20.3610 28.9159 94.4465 0.0000 0.0000 0.0000
# 4 0.0000 0.0000 0.0000 40.3400 0.0000 0.0000
# 5 0.0000 0.0000 0.0000 0.0000 21.2826 0.0000
# 6 0.0000 0.0000 0.0000 0.0000 0.0000 17.0172
#
#
#
# Elastic Compliance Matrix: (Units=1/GPa)
#
#
# Indices 1 2 3 4 5 6 
#
# 1 0.008486 -0.001442 -0.001388 0.000000 0.000000 0.000000
# 2 -0.001442 0.009539 -0.002609 0.000000 0.000000 0.000000
# 3 -0.001388 -0.002609 0.011686 0.000000 0.000000 0.000000
# 4 0.000000 0.000000 0.000000 0.024789 0.000000 0.000000
# 5 0.000000 0.000000 0.000000 0.000000 0.046987 0.000000
# 6 0.000000 0.000000 0.000000 0.000000 0.000000 0.058764
#
#
# Mechanical properties :
#
#
# Convention : Reuss Voigt Hill
#
# Bulk Modulus (GPa) = 53.10117 53.75839 53.42978
# Shear Modulus (GPa) = 28.18363 33.22365 30.70364
#
# Velocity S-wave (km/s) = 3.40335 3.69515 3.55225
# Velocity P-wave (km/s) = 6.10467 6.34814 6.22760
#
# Compressibility (1/GPa) = 0.01883198
#
# Stress axis : x y z
#
# Youngs Moduli (GPa) = 117.83508 104.83549 85.57139
#
# Poissons Ratio (x) = 0.15120 0.11877
# Poissons Ratio (y) = 0.16994 0.22330
# Poissons Ratio (z) = 0.16355 0.27357
#
# Static dielectric constant tensor:
#      x y z
#    x 1.949110 0.000000 0.000000 
#    y 0.000000 1.961140 0.000000 
#    z 0.000000 0.000000 2.129090 
# 
# From -- ./inp_files/43210.got.cif
#   From: 2010.05.17/outbox.cif.g08.bks.cpg/sg68_22_cif.got.tgz:43210.got - 2010.06.03 18:57:09.
