data_PCOD9506056
_publ_section_title
;
Structure prediction by ZEFSAII (Michael W. Deem and Ramdas Pophale) SiO2 
 PCOD9506056
Probable space group: C C C A
;
_chemical_formula_sum "Si O2"
_cell_formula_units_Z 80
_cell_length_a 23.339444
_cell_length_b 12.790443
_cell_length_c 10.884569
_cell_angle_alpha 90.000000
_cell_angle_beta 90.000000
_cell_angle_gamma 90.000000
_cell_volume 3249.281436
_symmetry_space_group_name_H-M "C C C A"
_symmetry_group_IT_number 68
_space_group.IT_coordinate_system_code '2'
_symmetry_cell_setting 'orthorhombic'
loop_
_space_group_symop_operation_xyz
x,y,z
-x,1/2-y,z
x,1/2-y,1/2-z
-x,y,1/2-z
-x,-y,-z
x,1/2+y,-z
-x,1/2+y,1/2+z
x,-y,1/2+z
1/2+x,1/2+y,z
1/2-x,-y,z
1/2+x,-y,1/2-z
1/2-x,1/2+y,1/2-z
1/2-x,1/2-y,-z
1/2+x,y,-z
1/2-x,y,1/2+z
1/2+x,1/2-y,1/2+z
loop_
_atom_site_type_symbol
_atom_site_label
_atom_site_fract_x
_atom_site_fract_y
_atom_site_fract_z
Si Si1 0.213516 0.909055 0.946199
Si Si2 0.314303 0.816155 0.075924
Si Si3 0.122680 0.351478 0.668772
Si Si4 0.497501 0.868096 0.896876
Si Si5 0.613392 0.996323 0.895353
O O1 0.254413 0.877469 0.062381
O O2 0.250000 0.000000 0.880162
O O3 0.155248 0.957419 0.996853
O O4 0.197798 0.800959 0.879748
O O5 0.366203 0.884114 0.130525
O O6 0.331874 0.810926 0.929918
O O7 0.106601 0.250000 0.750000
O O8 0.069298 0.394427 0.587745
O O9 0.133991 0.437510 0.770794
O O10 0.500000 0.750000 0.950774
O O11 0.500000 0.861275 0.750000
O O12 0.549538 0.948006 0.921141
#
# Coordination Sequence:
#
# PCOD9506056 Si02
#       5
#    16  16  16  16  16
#     4   9  18  35  54  76 114 154 196 263 320 372
#     4  10  20  33  55  85 118 156 205 260 325 383
#     4  11  18  33  58  85 115 163 210 263 324 388
#     4   9  14  27  51  83 111 149 198 258 310 374
#     4  10  19  33  55  82 120 157 199 269 320 382
#
# _framework density 24.620827999999999
#
# number of rings (size 3 to 8) (size 9 to 14) (size 15 to 20)
#    0.000    2.200    6.000    0.000    0.000    0.800 
#    0.000    9.000    0.000    0.000    0.000    0.000 
#    0.000   20.800    0.000    0.000    0.000    0.000 
#
# Total GULP energy -222880.368072 kJ/mol
# GULP energy per Si atom -5572.009202 kJ/mol
# Density = 2.456479 g / cm^3
# Si number density = 24.620828 Si / 1000 Ang^3
#
#
#
# Elastic Constant Matrix: (Units=GPa)
#
#
# Indices 1 2 3 4 5 6 
#
# 1 174.2925 64.8488 19.3242 0.0000 0.0000 0.0000
# 2 64.8488 208.1526 29.9693 0.0000 0.0000 0.0000
# 3 19.3242 29.9693 36.3107 0.0000 0.0000 0.0000
# 4 0.0000 0.0000 0.0000 29.4647 0.0000 0.0000
# 5 0.0000 0.0000 0.0000 0.0000 20.6444 0.0000
# 6 0.0000 0.0000 0.0000 0.0000 0.0000 62.2693
#
#
#
# Elastic Compliance Matrix: (Units=1/GPa)
#
#
# Indices 1 2 3 4 5 6 
#
# 1 0.006624 -0.001766 -0.002068 0.000000 0.000000 0.000000
# 2 -0.001766 0.005923 -0.003949 0.000000 0.000000 0.000000
# 3 -0.002068 -0.003949 0.031900 0.000000 0.000000 0.000000
# 4 0.000000 0.000000 0.000000 0.033939 0.000000 0.000000
# 5 0.000000 0.000000 0.000000 0.000000 0.048439 0.000000
# 6 0.000000 0.000000 0.000000 0.000000 0.000000 0.016059
#
#
# Mechanical properties :
#
#
# Convention : Reuss Voigt Hill
#
# Bulk Modulus (GPa) = 34.62387 71.89338 53.25863
# Shear Modulus (GPa) = 29.74857 42.78323 36.26590
#
# Velocity S-wave (km/s) = 3.47979 4.17308 3.84210
# Velocity P-wave (km/s) = 5.49896 7.24452 6.43124
#
# Compressibility (1/GPa) = 0.02888181
#
# Stress axis : x y z
#
# Youngs Moduli (GPa) = 150.97165 168.83766 31.34840
#
# Poissons Ratio (x) = 0.29815 0.06482
# Poissons Ratio (y) = 0.26660 0.12378
# Poissons Ratio (z) = 0.31215 0.66669
#
# Static dielectric constant tensor:
#      x y z
#    x 2.104120 0.000000 0.000000 
#    y 0.000000 2.066360 0.000000 
#    z 0.000000 0.000000 2.004130 
# 
# From -- ./inp_files/16226.got.cif
#   From: 2010.05.17/outbox.cif.g08.bks.cpg/sg68_9_cif.got.tgz:16226.got - 2010.06.03 18:57:09.
