data_PCOD9506049
_publ_section_title
;
Structure prediction by ZEFSAII (Michael W. Deem and Ramdas Pophale) SiO2 
 PCOD9506049
Probable space group: C C C A
;
_chemical_formula_sum "Si O2"
_cell_formula_units_Z 112
_cell_length_a 20.480165
_cell_length_b 12.170751
_cell_length_c 24.142426
_cell_angle_alpha 90.000000
_cell_angle_beta 90.000000
_cell_angle_gamma 90.000000
_cell_volume 6017.716688
_symmetry_space_group_name_H-M "C C C A"
_symmetry_group_IT_number 68
_space_group.IT_coordinate_system_code '2'
_symmetry_cell_setting 'orthorhombic'
loop_
_space_group_symop_operation_xyz
x,y,z
-x,1/2-y,z
x,1/2-y,1/2-z
-x,y,1/2-z
-x,-y,-z
x,1/2+y,-z
-x,1/2+y,1/2+z
x,-y,1/2+z
1/2+x,1/2+y,z
1/2-x,-y,z
1/2+x,-y,1/2-z
1/2-x,1/2+y,1/2-z
1/2-x,1/2-y,-z
1/2+x,y,-z
1/2-x,y,1/2+z
1/2+x,1/2-y,1/2+z
loop_
_atom_site_type_symbol
_atom_site_label
_atom_site_fract_x
_atom_site_fract_y
_atom_site_fract_z
Si Si1 0.178498 0.553698 0.956702
Si Si2 0.928927 0.702293 0.333059
Si Si3 0.650500 0.098790 0.078679
Si Si4 0.257014 0.275820 0.884273
Si Si5 0.650521 0.923261 0.851064
Si Si6 0.578001 0.000540 0.247157
Si Si7 0.310141 0.570083 0.172843
O O1 0.250000 0.500000 0.968022
O O2 0.193474 0.670746 0.927890
O O3 0.142544 0.477275 0.911593
O O4 0.143764 0.567313 0.015205
O O5 0.914854 0.635052 0.389275
O O6 0.883433 0.807154 0.338660
O O7 0.915675 0.621098 0.281997
O O8 0.000000 0.750000 0.328079
O O9 0.702420 0.200041 0.084746
O O10 0.676799 0.997872 0.115968
O O11 0.225450 0.380947 0.852954
O O12 0.287637 0.191694 0.841251
O O13 0.616275 0.998874 0.805355
O O14 0.500000 0.976983 0.250000
O O15 0.623248 0.928331 0.207176
O O16 0.250000 0.500000 0.199909
#
# Coordination Sequence:
#
# PCOD9506049 Si02
#       7
#    16  16  16  16  16  16  16
#     4  10  19  33  54  80 114 150 180 229 279 339
#     4  10  19  34  56  83 105 141 189 238 284 331
#     4   9  18  32  55  82 111 142 185 230 281 337
#     4   9  18  34  55  79 112 148 187 226 281 349
#     4  10  21  33  52  86 112 139 188 233 285 336
#     4  11  21  36  61  83 112 149 190 243 294 341
#     4   9  19  34  53  83 113 142 185 236 287 340
#
# _framework density 18.611711
#
# number of rings (size 3 to 8) (size 9 to 14) (size 15 to 20)
#    0.000    2.286    1.429    3.000    0.000    4.000 
#    0.000    5.714    3.143    0.857    0.000    0.000 
#    0.000    0.000    0.000    0.000    0.000    0.000 
#
# Total GULP energy -311815.878374 kJ/mol
# GULP energy per Si atom -5568.140685 kJ/mol
# Density = 1.856935 g / cm^3
# Si number density = 18.611711 Si / 1000 Ang^3
#
#
#
# Elastic Constant Matrix: (Units=GPa)
#
#
# Indices 1 2 3 4 5 6 
#
# 1 32.6139 15.3755 46.3275 0.0000 0.0000 0.0000
# 2 15.3755 51.1949 16.6817 0.0000 0.0000 0.0000
# 3 46.3275 16.6817 122.9673 0.0000 0.0000 0.0000
# 4 0.0000 0.0000 0.0000 18.0600 0.0000 0.0000
# 5 0.0000 0.0000 0.0000 0.0000 15.9172 0.0000
# 6 0.0000 0.0000 0.0000 0.0000 0.0000 23.2905
#
#
#
# Elastic Compliance Matrix: (Units=1/GPa)
#
#
# Indices 1 2 3 4 5 6 
#
# 1 0.074232 -0.013791 -0.026096 0.000000 0.000000 0.000000
# 2 -0.013791 0.022999 0.002076 0.000000 0.000000 0.000000
# 3 -0.026096 0.002076 0.017682 0.000000 0.000000 0.000000
# 4 0.000000 0.000000 0.000000 0.055371 0.000000 0.000000
# 5 0.000000 0.000000 0.000000 0.000000 0.062825 0.000000
# 6 0.000000 0.000000 0.000000 0.000000 0.000000 0.042936
#
#
# Mechanical properties :
#
#
# Convention : Reuss Voigt Hill
#
# Bulk Modulus (GPa) = 25.45132 40.39396 32.92264
# Shear Modulus (GPa) = 13.70747 20.01296 16.86022
#
# Velocity S-wave (km/s) = 2.71679 3.28272 3.01307
# Velocity P-wave (km/s) = 4.85241 6.00990 5.46190
#
# Compressibility (1/GPa) = 0.03929069
#
# Stress axis : x y z
#
# Youngs Moduli (GPa) = 13.47124 43.48064 56.55414
#
# Poissons Ratio (x) = 0.59965 1.47583
# Poissons Ratio (y) = 0.18578 -0.11739
# Poissons Ratio (z) = 0.35154 -0.09026
#
# Static dielectric constant tensor:
#      x y z
#    x 1.566110 0.000000 0.000000 
#    y 0.000000 1.659260 0.000000 
#    z 0.000000 0.000000 1.669090 
# 
# From -- ./inp_files/37835.got.cif
#   From: 2010.05.17/outbox.cif.g08.bks.cpg/sg68_19_cif.got.tgz:37835.got - 2010.06.03 18:57:09.
