data_PCOD9506281
_publ_section_title
;
Structure prediction by ZEFSAII (Michael W. Deem and Ramdas Pophale) SiO2 
 PCOD9506281
Probable space group: C C C A
;
_chemical_formula_sum "Si O2"
_cell_formula_units_Z 96
_cell_length_a 16.291341
_cell_length_b 19.508029
_cell_length_c 13.952074
_cell_angle_alpha 90.000000
_cell_angle_beta 90.000000
_cell_angle_gamma 90.000000
_cell_volume 4434.135882
_symmetry_space_group_name_H-M "C C C A"
_symmetry_group_IT_number 68
_space_group.IT_coordinate_system_code '2'
_symmetry_cell_setting 'orthorhombic'
loop_
_space_group_symop_operation_xyz
x,y,z
-x,1/2-y,z
x,1/2-y,1/2-z
-x,y,1/2-z
-x,-y,-z
x,1/2+y,-z
-x,1/2+y,1/2+z
x,-y,1/2+z
1/2+x,1/2+y,z
1/2-x,-y,z
1/2+x,-y,1/2-z
1/2-x,1/2+y,1/2-z
1/2-x,1/2-y,-z
1/2+x,y,-z
1/2-x,y,1/2+z
1/2+x,1/2-y,1/2+z
loop_
_atom_site_type_symbol
_atom_site_label
_atom_site_fract_x
_atom_site_fract_y
_atom_site_fract_z
Si Si1 0.594953 0.921590 0.448935
Si Si2 0.608549 0.724599 0.144791
Si Si3 0.245974 0.574604 0.591135
Si Si4 0.916802 0.780367 0.447549
Si Si5 0.215903 0.217024 0.840934
Si Si6 0.913603 0.427599 0.544391
O O1 0.591809 0.854491 0.382012
O O2 0.677080 0.919916 0.515927
O O3 0.508063 0.921659 0.507105
O O4 0.596142 0.998798 0.404660
O O5 0.583714 0.750000 0.250000
O O6 0.706330 0.734753 0.144417
O O7 0.577293 0.777780 0.063354
O O8 0.250000 0.500000 0.638817
O O9 0.254852 0.639073 0.661191
O O10 0.158371 0.575316 0.536309
O O11 0.844841 0.727517 0.427999
O O12 0.899507 0.854814 0.405141
O O13 0.000000 0.750000 0.407809
O O14 0.171506 0.250000 0.750000
#
# Coordination Sequence:
#
# PCOD9506281 Si02
#       6
#    16  16  16  16  16  16
#     4  10  20  38  57  91 126 161 211 255 313 389
#     4  11  22  37  61  92 128 163 208 267 324 385
#     4  10  19  36  62  87 121 167 208 260 321 381
#     4  12  21  38  63  92 123 166 216 269 324 384
#     4  11  23  39  60  91 126 166 216 270 320 380
#     4  10  20  34  63  89 118 170 204 254 322 378
#
# _framework density 21.650214999999999
#
# number of rings (size 3 to 8) (size 9 to 14) (size 15 to 20)
#    0.000    1.333    5.000    1.500    0.000    0.667 
#    0.000    4.167    0.000    0.000    0.000    0.000 
#    0.000    0.000    0.000    0.000    0.000    0.000 
#
# Total GULP energy -267368.916544 kJ/mol
# GULP energy per Si atom -5570.185761 kJ/mol
# Density = 2.160094 g / cm^3
# Si number density = 21.650215 Si / 1000 Ang^3
#
#
#
# Elastic Constant Matrix: (Units=GPa)
#
#
# Indices 1 2 3 4 5 6 
#
# 1 90.7755 -1.6658 4.3668 0.0000 0.0000 0.0000
# 2 -1.6658 229.9182 31.3770 0.0000 0.0000 0.0000
# 3 4.3668 31.3770 44.6849 0.0000 0.0000 0.0000
# 4 0.0000 0.0000 0.0000 26.7077 0.0000 0.0000
# 5 0.0000 0.0000 0.0000 0.0000 16.5628 0.0000
# 6 0.0000 0.0000 0.0000 0.0000 0.0000 37.3522
#
#
#
# Elastic Compliance Matrix: (Units=1/GPa)
#
#
# Indices 1 2 3 4 5 6 
#
# 1 0.011081 0.000252 -0.001260 0.000000 0.000000 0.000000
# 2 0.000252 0.004816 -0.003406 0.000000 0.000000 0.000000
# 3 -0.001260 -0.003406 0.024894 0.000000 0.000000 0.000000
# 4 0.000000 0.000000 0.000000 0.037442 0.000000 0.000000
# 5 0.000000 0.000000 0.000000 0.000000 0.060376 0.000000
# 6 0.000000 0.000000 0.000000 0.000000 0.000000 0.026772
#
#
# Mechanical properties :
#
#
# Convention : Reuss Voigt Hill
#
# Bulk Modulus (GPa) = 31.28611 48.17050 39.72831
# Shear Modulus (GPa) = 27.04674 38.21125 32.62900
#
# Velocity S-wave (km/s) = 3.53832 4.20567 3.88635
# Velocity P-wave (km/s) = 5.58346 6.77357 6.20711
#
# Compressibility (1/GPa) = 0.03196307
#
# Stress axis : x y z
#
# Youngs Moduli (GPa) = 90.24102 207.63792 40.17035
#
# Poissons Ratio (x) = -0.05238 0.05062
# Poissons Ratio (y) = -0.02276 0.13684
# Poissons Ratio (z) = 0.11371 0.70730
#
# Static dielectric constant tensor:
#      x y z
#    x 1.833900 0.000000 0.000000 
#    y 0.000000 1.836460 0.000000 
#    z 0.000000 0.000000 1.848140 
# 
# From -- ./inp_files/22390.got.cif
#   From: 2010.05.17/outbox.cif.g08.bks.cpg/sg68_12_cif.got.tgz:22390.got - 2010.06.03 18:57:09.
