data_PCOD9506631
_publ_section_title
;
Structure prediction by ZEFSAII (Michael W. Deem and Ramdas Pophale) SiO2 
 PCOD9506631
Probable space group: C C C A
;
_chemical_formula_sum "Si O2"
_cell_formula_units_Z 68
_cell_length_a 21.818279
_cell_length_b 4.772044
_cell_length_c 28.689786
_cell_angle_alpha 90.000000
_cell_angle_beta 90.000000
_cell_angle_gamma 90.000000
_cell_volume 2987.117039
_symmetry_space_group_name_H-M "C C C A"
_symmetry_group_IT_number 68
_space_group.IT_coordinate_system_code '2'
_symmetry_cell_setting 'orthorhombic'
loop_
_space_group_symop_operation_xyz
x,y,z
-x,1/2-y,z
x,1/2-y,1/2-z
-x,y,1/2-z
-x,-y,-z
x,1/2+y,-z
-x,1/2+y,1/2+z
x,-y,1/2+z
1/2+x,1/2+y,z
1/2-x,-y,z
1/2+x,-y,1/2-z
1/2-x,1/2+y,1/2-z
1/2-x,1/2-y,-z
1/2+x,y,-z
1/2-x,y,1/2+z
1/2+x,1/2-y,1/2+z
loop_
_atom_site_type_symbol
_atom_site_label
_atom_site_fract_x
_atom_site_fract_y
_atom_site_fract_z
Si Si1 0.500000 0.250000 0.250000
Si Si2 0.181698 0.384630 0.895450
Si Si3 0.378337 0.620917 0.152803
Si Si4 0.918434 0.404652 0.532038
Si Si5 0.000000 0.750000 0.896924
Si Si6 0.083977 0.250000 0.250000
O O1 0.544510 0.489473 0.227466
O O2 0.250000 0.500000 0.896751
O O3 0.143747 0.569433 0.859029
O O4 0.148605 0.424153 0.945159
O O5 0.167721 0.075004 0.876360
O O6 0.447741 0.594314 0.133367
O O7 0.379882 0.601354 0.208334
O O8 0.926426 0.090625 0.514234
O O9 0.963510 0.530022 0.570710
#
# Coordination Sequence:
#
# PCOD9506631 Si02
#       6
#     4  16  16  16   8   8
#     4  10  20  34  60  94 136 168 196 264 316 392
#     4  11  25  45  65  91 129 174 225 276 330 384
#     4  11  24  41  67  96 130 174 215 274 332 391
#     4  11  23  39  64  95 130 173 215 267 324 392
#     4  10  22  39  62  97 138 168 210 264 334 396
#     4  11  22  40  64  99 134 173 226 261 330 410
#
# _framework density 22.764426
#
# number of rings (size 3 to 8) (size 9 to 14) (size 15 to 20)
#    0.000    1.176    0.000    7.059    0.000   10.353 
#    0.000    2.353    0.000    0.000    0.000    0.000 
#    0.000    0.000    0.000    0.000    0.000    0.000 
#
# Total GULP energy -189865.697076 kJ/mol
# GULP energy per Si atom -5584.285208 kJ/mol
# Density = 2.271261 g / cm^3
# Si number density = 22.764426 Si / 1000 Ang^3
#
#
#
# Elastic Constant Matrix: (Units=GPa)
#
#
# Indices 1 2 3 4 5 6 
#
# 1 120.6515 4.2214 46.6218 0.0000 0.0000 0.0000
# 2 4.2214 77.9692 2.5936 0.0000 0.0000 0.0000
# 3 46.6218 2.5936 103.1394 0.0000 0.0000 0.0000
# 4 0.0000 0.0000 0.0000 14.6079 0.0000 0.0000
# 5 0.0000 0.0000 0.0000 0.0000 17.4967 0.0000
# 6 0.0000 0.0000 0.0000 0.0000 0.0000 35.5795
#
#
#
# Elastic Compliance Matrix: (Units=1/GPa)
#
#
# Indices 1 2 3 4 5 6 
#
# 1 0.010055 -0.000394 -0.004535 0.000000 0.000000 0.000000
# 2 -0.000394 0.012852 -0.000145 0.000000 0.000000 0.000000
# 3 -0.004535 -0.000145 0.011749 0.000000 0.000000 0.000000
# 4 0.000000 0.000000 0.000000 0.068456 0.000000 0.000000
# 5 0.000000 0.000000 0.000000 0.000000 0.057154 0.000000
# 6 0.000000 0.000000 0.000000 0.000000 0.000000 0.028106
#
#
# Mechanical properties :
#
#
# Convention : Reuss Voigt Hill
#
# Bulk Modulus (GPa) = 40.80336 45.40376 43.10356
# Shear Modulus (GPa) = 24.19102 30.09169 27.14135
#
# Velocity S-wave (km/s) = 3.26339 3.63970 3.45667
# Velocity P-wave (km/s) = 5.67122 6.13609 5.90823
#
# Compressibility (1/GPa) = 0.02450779
#
# Stress axis : x y z
#
# Youngs Moduli (GPa) = 99.45783 77.81057 85.11200
#
# Poissons Ratio (x) = 0.03062 0.38598
# Poissons Ratio (y) = 0.03914 0.01237
# Poissons Ratio (z) = 0.45104 0.01131
#
# Static dielectric constant tensor:
#      x y z
#    x 1.868960 0.000000 0.000000 
#    y 0.000000 1.830330 0.000000 
#    z 0.000000 0.000000 1.826670 
# 
# From -- ./inp_files/51645.got.cif
#   From: 2010.05.17/outbox.cif.g08.bks.cpg/sg68_26_cif.got.tgz:51645.got - 2010.06.03 18:57:09.
