data_PCOD9506857
_publ_section_title
;
Structure prediction by ZEFSAII (Michael W. Deem and Ramdas Pophale) SiO2 
 PCOD9506857
Probable space group: C C C A
;
_chemical_formula_sum "Si O2"
_cell_formula_units_Z 68
_cell_length_a 5.348040
_cell_length_b 23.922914
_cell_length_c 24.362511
_cell_angle_alpha 90.000000
_cell_angle_beta 90.000000
_cell_angle_gamma 90.000000
_cell_volume 3116.956735
_symmetry_space_group_name_H-M "C C C A"
_symmetry_group_IT_number 68
_space_group.IT_coordinate_system_code '2'
_symmetry_cell_setting 'orthorhombic'
loop_
_space_group_symop_operation_xyz
x,y,z
-x,1/2-y,z
x,1/2-y,1/2-z
-x,y,1/2-z
-x,-y,-z
x,1/2+y,-z
-x,1/2+y,1/2+z
x,-y,1/2+z
1/2+x,1/2+y,z
1/2-x,-y,z
1/2+x,-y,1/2-z
1/2-x,1/2+y,1/2-z
1/2-x,1/2-y,-z
1/2+x,y,-z
1/2-x,y,1/2+z
1/2+x,1/2-y,1/2+z
loop_
_atom_site_type_symbol
_atom_site_label
_atom_site_fract_x
_atom_site_fract_y
_atom_site_fract_z
Si Si1 0.249585 0.773880 0.938340
Si Si2 0.000000 0.443627 0.250000
Si Si3 0.250000 0.500000 0.652370
Si Si4 0.000000 0.750000 0.250000
Si Si5 0.253975 0.648483 0.810355
Si Si6 0.751630 0.121855 0.620904
O O1 0.500000 0.750000 0.911467
O O2 0.247210 0.840329 0.933529
O O3 0.000000 0.750000 0.911386
O O4 0.250000 0.750000 0.000000
O O5 0.960439 0.482150 0.303059
O O6 0.778405 0.400098 0.235753
O O7 0.234893 0.444692 0.616046
O O8 0.816863 0.707990 0.216771
O O9 0.493214 0.636434 0.847742
O O10 0.994762 0.640942 0.844536
#
# Coordination Sequence:
#
# PCOD9506857 Si02
#       6
#    16   8   8   4  16  16
#     4  10  22  42  68  92 122 153 197 257 329 396
#     4  10  20  40  56  86 125 183 218 262 310 348
#     4  10  20  36  64  82 130 162 228 256 292 372
#     4  12  24  40  52  86 136 176 208 262 306 358
#     4  11  25  37  58  85 131 170 218 248 307 362
#     4  11  24  40  61  96 115 169 209 262 310 368
#
# _framework density 21.816151000000001
#
# number of rings (size 3 to 8) (size 9 to 14) (size 15 to 20)
#    0.000    1.412    0.000    5.647    4.941    6.118 
#    0.000    0.000    0.000    5.647    0.000    0.000 
#    0.000    0.000    0.000    0.000    0.000    0.000 
#
# Total GULP energy -189652.349523 kJ/mol
# GULP energy per Si atom -5578.010280 kJ/mol
# Density = 2.176650 g / cm^3
# Si number density = 21.816151 Si / 1000 Ang^3
#
#
#
# Elastic Constant Matrix: (Units=GPa)
#
#
# Indices 1 2 3 4 5 6 
#
# 1 172.4223 47.2989 18.9471 0.0000 0.0000 0.0000
# 2 47.2989 250.0886 65.8754 0.0000 0.0000 0.0000
# 3 18.9471 65.8754 60.3509 0.0000 0.0000 0.0000
# 4 0.0000 0.0000 0.0000 40.3062 0.0000 0.0000
# 5 0.0000 0.0000 0.0000 0.0000 -15.4764 0.0000
# 6 0.0000 0.0000 0.0000 0.0000 0.0000 33.1476
#
#
#
# Elastic Compliance Matrix: (Units=1/GPa)
#
#
# Indices 1 2 3 4 5 6 
#
# 1 0.006154 -0.000919 -0.000929 0.000000 0.000000 0.000000
# 2 -0.000919 0.005750 -0.005987 0.000000 0.000000 0.000000
# 3 -0.000929 -0.005987 0.023397 0.000000 0.000000 0.000000
# 4 0.000000 0.000000 0.000000 0.024810 0.000000 0.000000
# 5 0.000000 0.000000 0.000000 0.000000 -0.064614 0.000000
# 6 0.000000 0.000000 0.000000 0.000000 0.000000 0.030168
#
#
# Mechanical properties :
#
#
# Convention : Reuss Voigt Hill
#
# Bulk Modulus (GPa) = 50.94281 83.01165 66.97723
# Shear Modulus (GPa) = 104.43363 34.97817 69.70590
#
# Velocity S-wave (km/s) = 6.92631 4.00849 5.65870
# Velocity P-wave (km/s) = 9.34702 7.71732 8.57099
#
# Compressibility (1/GPa) = 0.01962985
#
# Stress axis : x y z
#
# Youngs Moduli (GPa) = 162.49769 173.92712 42.74124
#
# Poissons Ratio (x) = 0.15989 0.03969
# Poissons Ratio (y) = 0.14938 0.25590
# Poissons Ratio (z) = 0.15089 1.04134
#
# Static dielectric constant tensor:
#      x y z
#    x 1.893430 0.000000 0.000000 
#    y 0.000000 1.842150 0.000000 
#    z 0.000000 0.000000 1.757260 
# 
# From -- ./inp_files/53062.got.cif
#   From: 2010.05.17/outbox.cif.g08.bks.cpg/sg68_27_cif.got.tgz:53062.got - 2010.06.03 18:57:09.
