data_PCOD9506347
_publ_section_title
;
Structure prediction by ZEFSAII (Michael W. Deem and Ramdas Pophale) SiO2 
 PCOD9506347
Probable space group: C C C A
;
_chemical_formula_sum "Si O2"
_cell_formula_units_Z 116
_cell_length_a 17.213621
_cell_length_b 16.246881
_cell_length_c 17.377344
_cell_angle_alpha 90.000000
_cell_angle_beta 90.000000
_cell_angle_gamma 90.000000
_cell_volume 4859.880994
_symmetry_space_group_name_H-M "C C C A"
_symmetry_group_IT_number 68
_space_group.IT_coordinate_system_code '2'
_symmetry_cell_setting 'orthorhombic'
loop_
_space_group_symop_operation_xyz
x,y,z
-x,1/2-y,z
x,1/2-y,1/2-z
-x,y,1/2-z
-x,-y,-z
x,1/2+y,-z
-x,1/2+y,1/2+z
x,-y,1/2+z
1/2+x,1/2+y,z
1/2-x,-y,z
1/2+x,-y,1/2-z
1/2-x,1/2+y,1/2-z
1/2-x,1/2-y,-z
1/2+x,y,-z
1/2-x,y,1/2+z
1/2+x,1/2-y,1/2+z
loop_
_atom_site_type_symbol
_atom_site_label
_atom_site_fract_x
_atom_site_fract_y
_atom_site_fract_z
Si Si1 0.410929 0.950004 0.724342
Si Si2 0.500000 0.250000 0.750000
Si Si3 0.257557 0.686597 0.070611
Si Si4 0.881488 0.187716 0.662145
Si Si5 0.826111 0.455117 0.019646
Si Si6 0.914552 0.606055 0.939927
Si Si7 0.571040 0.889972 0.346733
Si Si8 0.459251 0.846861 0.602354
O O1 0.500000 0.935773 0.750000
O O2 0.366192 0.884510 0.775858
O O3 0.412738 0.924569 0.634784
O O4 0.399249 0.046724 0.719358
O O5 0.445939 0.195053 0.694998
O O6 0.202492 0.718480 0.137173
O O7 0.342886 0.657997 0.093568
O O8 0.250000 0.750000 0.000000
O O9 0.212012 0.604782 0.043319
O O10 0.927318 0.276270 0.661196
O O11 0.947929 0.145016 0.608510
O O12 0.750000 0.500000 0.055369
O O13 0.870275 0.399363 0.082259
O O14 0.880523 0.521660 0.976367
O O15 0.986163 0.588136 0.883775
O O16 0.940705 0.661830 0.013269
#
# Coordination Sequence:
#
# PCOD9506347 Si02
#       8
#    16   4  16  16  16  16  16  16
#     4  10  21  38  67  96 134 176 231 296 347 436
#     4  12  32  44  64 104 142 204 242 290 348 452
#     4  11  23  40  63 102 145 180 230 302 369 439
#     4  10  21  36  65 100 144 181 223 295 370 434
#     4  10  24  43  71 104 134 173 236 307 371 424
#     4  11  23  40  72 105 134 181 238 307 364 434
#     4  12  25  46  72  97 142 187 247 290 360 445
#     4  10  19  37  66 108 131 170 237 300 369 417
#
# _framework density 23.868895999999999
#
# number of rings (size 3 to 8) (size 9 to 14) (size 15 to 20)
#    0.000    1.379    3.448    1.655    5.793    2.759 
#    0.000    1.379    3.034    0.000    0.000    0.000 
#    0.000    0.000    0.000    0.000    0.000    0.000 
#
# Total GULP energy -323178.752179 kJ/mol
# GULP energy per Si atom -5572.047451 kJ/mol
# Density = 2.381457 g / cm^3
# Si number density = 23.868896 Si / 1000 Ang^3
#
#
#
# Elastic Constant Matrix: (Units=GPa)
#
#
# Indices 1 2 3 4 5 6 
#
# 1 97.1250 10.7519 24.4509 0.0000 0.0000 0.0000
# 2 10.7519 95.4612 19.0209 0.0000 0.0000 0.0000
# 3 24.4509 19.0209 47.9484 0.0000 0.0000 0.0000
# 4 0.0000 0.0000 0.0000 38.7683 0.0000 0.0000
# 5 0.0000 0.0000 0.0000 0.0000 15.4713 0.0000
# 6 0.0000 0.0000 0.0000 0.0000 0.0000 33.3028
#
#
#
# Elastic Compliance Matrix: (Units=1/GPa)
#
#
# Indices 1 2 3 4 5 6 
#
# 1 0.011814 -0.000141 -0.005968 0.000000 0.000000 0.000000
# 2 -0.000141 0.011376 -0.004441 0.000000 0.000000 0.000000
# 3 -0.005968 -0.004441 0.025661 0.000000 0.000000 0.000000
# 4 0.000000 0.000000 0.000000 0.025794 0.000000 0.000000
# 5 0.000000 0.000000 0.000000 0.000000 0.064636 0.000000
# 6 0.000000 0.000000 0.000000 0.000000 0.000000 0.030027
#
#
# Mechanical properties :
#
#
# Convention : Reuss Voigt Hill
#
# Bulk Modulus (GPa) = 36.03594 38.77578 37.40586
# Shear Modulus (GPa) = 25.04254 29.92921 27.48588
#
# Velocity S-wave (km/s) = 3.24260 3.54489 3.39711
# Velocity P-wave (km/s) = 5.39903 5.74766 5.57607
#
# Compressibility (1/GPa) = 0.02775007
#
# Stress axis : x y z
#
# Youngs Moduli (GPa) = 84.64386 87.90269 38.96978
#
# Poissons Ratio (x) = 0.01243 0.23259
# Poissons Ratio (y) = 0.01197 0.17306
# Poissons Ratio (z) = 0.50519 0.39036
#
# Static dielectric constant tensor:
#      x y z
#    x 1.979310 0.000000 0.000000 
#    y 0.000000 1.727180 0.000000 
#    z 0.000000 0.000000 2.015550 
# 
# From -- ./inp_files/32141.got.cif
#   From: 2010.05.17/outbox.cif.g08.bks.cpg/sg68_17_cif.got.tgz:32141.got - 2010.06.03 18:57:09.
