data_PCOD9506386
_publ_section_title
;
Structure prediction by ZEFSAII (Michael W. Deem and Ramdas Pophale) SiO2 
 PCOD9506386
Probable space group: C C C A
;
_chemical_formula_sum "Si O2"
_cell_formula_units_Z 64
_cell_length_a 12.231460
_cell_length_b 8.907477
_cell_length_c 25.548587
_cell_angle_alpha 90.000000
_cell_angle_beta 90.000000
_cell_angle_gamma 90.000000
_cell_volume 2783.555564
_symmetry_space_group_name_H-M "C C C A"
_symmetry_group_IT_number 68
_space_group.IT_coordinate_system_code '2'
_symmetry_cell_setting 'orthorhombic'
loop_
_space_group_symop_operation_xyz
x,y,z
-x,1/2-y,z
x,1/2-y,1/2-z
-x,y,1/2-z
-x,-y,-z
x,1/2+y,-z
-x,1/2+y,1/2+z
x,-y,1/2+z
1/2+x,1/2+y,z
1/2-x,-y,z
1/2+x,-y,1/2-z
1/2-x,1/2+y,1/2-z
1/2-x,1/2-y,-z
1/2+x,y,-z
1/2-x,y,1/2+z
1/2+x,1/2-y,1/2+z
loop_
_atom_site_type_symbol
_atom_site_label
_atom_site_fract_x
_atom_site_fract_y
_atom_site_fract_z
Si Si1 0.880443 0.503096 0.845625
Si Si2 0.020542 0.430307 0.443328
Si Si3 0.176852 0.309086 0.302352
Si Si4 0.250000 0.500000 0.390405
Si Si5 0.000000 0.531504 0.250000
O O1 0.750000 0.500000 0.850193
O O2 0.894547 0.673726 0.824892
O O3 0.940683 0.493667 0.900619
O O4 0.933684 0.402687 0.799684
O O5 0.143019 0.469425 0.424289
O O6 0.000000 0.250000 0.443824
O O7 0.000000 0.500000 0.500000
O O8 0.234265 0.250000 0.250000
O O9 0.253859 0.362916 0.349036
O O10 0.095669 0.437624 0.280718
#
# Coordination Sequence:
#
# PCOD9506386 Si02
#       5
#    16  16  16   8   8
#     4  11  22  39  68 103 142 183 234 303 373 443
#     4  12  28  50  76 105 143 196 259 315 373 442
#     4  10  21  37  69 105 141 187 238 291 369 458
#     4  12  24  46  80 102 142 202 250 298 390 456
#     4  10  19  38  66  99 140 187 232 290 371 458
#
# _framework density 22.992176000000001
#
# number of rings (size 3 to 8) (size 9 to 14) (size 15 to 20)
#    0.000    1.000    5.000    3.375    8.750    3.000 
#    0.000    0.000    0.000    6.000    0.000    0.000 
#    0.000    0.000    0.000    0.000    0.000    0.000 
#
# Total GULP energy -178623.431382 kJ/mol
# GULP energy per Si atom -5581.982231 kJ/mol
# Density = 2.293984 g / cm^3
# Si number density = 22.992176 Si / 1000 Ang^3
#
#
#
# Elastic Constant Matrix: (Units=GPa)
#
#
# Indices 1 2 3 4 5 6 
#
# 1 203.4287 48.9898 121.2544 0.0000 0.0000 0.0000
# 2 48.9898 40.6471 33.1634 0.0000 0.0000 0.0000
# 3 121.2544 33.1634 248.9526 0.0000 0.0000 0.0000
# 4 0.0000 0.0000 0.0000 32.8324 0.0000 0.0000
# 5 0.0000 0.0000 0.0000 0.0000 30.4552 0.0000
# 6 0.0000 0.0000 0.0000 0.0000 0.0000 41.2884
#
#
#
# Elastic Compliance Matrix: (Units=1/GPa)
#
#
# Indices 1 2 3 4 5 6 
#
# 1 0.008725 -0.007908 -0.003196 0.000000 0.000000 0.000000
# 2 -0.007908 0.034770 -0.000780 0.000000 0.000000 0.000000
# 3 -0.003196 -0.000780 0.005677 0.000000 0.000000 0.000000
# 4 0.000000 0.000000 0.000000 0.030458 0.000000 0.000000
# 5 0.000000 0.000000 0.000000 0.000000 0.032835 0.000000
# 6 0.000000 0.000000 0.000000 0.000000 0.000000 0.024220
#
#
# Mechanical properties :
#
#
# Convention : Reuss Voigt Hill
#
# Bulk Modulus (GPa) = 39.36447 99.98263 69.67355
# Shear Modulus (GPa) = 29.59933 40.22326 34.91130
#
# Velocity S-wave (km/s) = 3.59188 4.18716 3.90089
# Velocity P-wave (km/s) = 5.86175 8.18268 7.11746
#
# Compressibility (1/GPa) = 0.02540362
#
# Stress axis : x y z
#
# Youngs Moduli (GPa) = 114.60794 28.76042 176.13412
#
# Poissons Ratio (x) = 0.22745 0.56297
# Poissons Ratio (y) = 0.90637 0.13736
# Poissons Ratio (z) = 0.36632 0.02243
#
# Static dielectric constant tensor:
#      x y z
#    x 1.927900 0.000000 0.000000 
#    y 0.000000 2.064150 0.000000 
#    z 0.000000 0.000000 1.837450 
# 
# From -- ./inp_files/43886.got.cif
#   From: 2010.05.17/outbox.cif.g08.bks.cpg/sg68_22_cif.got.tgz:43886.got - 2010.06.03 18:57:09.
