data_PCOD9506592
_publ_section_title
;
Structure prediction by ZEFSAII (Michael W. Deem and Ramdas Pophale) SiO2 
 PCOD9506592
Probable space group: C C C A
;
_chemical_formula_sum "Si O2"
_cell_formula_units_Z 88
_cell_length_a 21.972216
_cell_length_b 11.982232
_cell_length_c 16.776415
_cell_angle_alpha 90.000000
_cell_angle_beta 90.000000
_cell_angle_gamma 90.000000
_cell_volume 4416.830617
_symmetry_space_group_name_H-M "C C C A"
_symmetry_group_IT_number 68
_space_group.IT_coordinate_system_code '2'
_symmetry_cell_setting 'orthorhombic'
loop_
_space_group_symop_operation_xyz
x,y,z
-x,1/2-y,z
x,1/2-y,1/2-z
-x,y,1/2-z
-x,-y,-z
x,1/2+y,-z
-x,1/2+y,1/2+z
x,-y,1/2+z
1/2+x,1/2+y,z
1/2-x,-y,z
1/2+x,-y,1/2-z
1/2-x,1/2+y,1/2-z
1/2-x,1/2-y,-z
1/2+x,y,-z
1/2-x,y,1/2+z
1/2+x,1/2-y,1/2+z
loop_
_atom_site_type_symbol
_atom_site_label
_atom_site_fract_x
_atom_site_fract_y
_atom_site_fract_z
Si Si1 0.583809 0.853134 0.592015
Si Si2 0.612232 0.750000 0.750000
Si Si3 0.174705 0.750000 0.750000
Si Si4 0.606109 0.887650 0.120981
Si Si5 0.279895 0.888273 0.683500
Si Si6 0.812986 0.804893 0.477898
Si Si7 0.000000 0.750000 0.538021
O O1 0.573721 0.782822 0.673066
O O2 0.644239 0.793725 0.556739
O O3 0.534306 0.834144 0.522826
O O4 0.591540 0.981400 0.616593
O O5 0.660948 0.651193 0.731868
O O6 0.133197 0.839656 0.796330
O O7 0.223203 0.802744 0.688108
O O8 0.547576 0.816245 0.092799
O O9 0.655583 0.861936 0.052701
O O10 0.302295 0.893308 0.592880
O O11 0.250000 0.000000 0.715304
O O12 0.750000 0.750000 0.500000
#
# Coordination Sequence:
#
# PCOD9506592 Si02
#       7
#    16   8   8  16  16  16   8
#     4  10  22  41  64  87 120 164 199 254 308 350
#     4   9  20  39  56  90 126 151 207 242 292 374
#     4  11  22  37  56  90 124 155 201 244 298 370
#     4  11  23  40  65  87 123 161 201 255 310 347
#     4  10  20  34  55  86 127 159 190 237 292 357
#     4  10  21  37  57  92 122 154 201 239 284 375
#     4  10  24  44  62  90 118 150 222 256 290 376
#
# _framework density 19.923787999999998
#
# number of rings (size 3 to 8) (size 9 to 14) (size 15 to 20)
#    0.000    1.818    1.818    1.636    2.545    0.727 
#    0.000    7.273    0.000    0.000    0.000    0.000 
#    0.000    0.000    0.000    0.000    0.000    0.000 
#
# Total GULP energy -245464.001948 kJ/mol
# GULP energy per Si atom -5578.727317 kJ/mol
# Density = 1.987844 g / cm^3
# Si number density = 19.923788 Si / 1000 Ang^3
#
#
#
# Elastic Constant Matrix: (Units=GPa)
#
#
# Indices 1 2 3 4 5 6 
#
# 1 77.5745 9.1223 23.9177 0.0000 0.0000 0.0000
# 2 9.1223 76.8069 6.0041 0.0000 0.0000 0.0000
# 3 23.9177 6.0041 78.1781 0.0000 0.0000 0.0000
# 4 0.0000 0.0000 0.0000 18.4981 0.0000 0.0000
# 5 0.0000 0.0000 0.0000 0.0000 17.8512 0.0000
# 6 0.0000 0.0000 0.0000 0.0000 0.0000 10.8471
#
#
#
# Elastic Compliance Matrix: (Units=1/GPa)
#
#
# Indices 1 2 3 4 5 6 
#
# 1 0.014376 -0.001372 -0.004293 0.000000 0.000000 0.000000
# 2 -0.001372 0.013229 -0.000596 0.000000 0.000000 0.000000
# 3 -0.004293 -0.000596 0.014150 0.000000 0.000000 0.000000
# 4 0.000000 0.000000 0.000000 0.054060 0.000000 0.000000
# 5 0.000000 0.000000 0.000000 0.000000 0.056019 0.000000
# 6 0.000000 0.000000 0.000000 0.000000 0.000000 0.092190
#
#
# Mechanical properties :
#
#
# Convention : Reuss Voigt Hill
#
# Bulk Modulus (GPa) = 34.20722 34.51640 34.36181
# Shear Modulus (GPa) = 18.77653 22.34032 20.55842
#
# Velocity S-wave (km/s) = 3.07321 3.35220 3.21573
# Velocity P-wave (km/s) = 5.45886 5.68725 5.57422
#
# Compressibility (1/GPa) = 0.02923360
#
# Stress axis : x y z
#
# Youngs Moduli (GPa) = 69.56188 75.59032 70.66933
#
# Poissons Ratio (x) = 0.10370 0.30336
# Poissons Ratio (y) = 0.09543 0.04214
# Poissons Ratio (z) = 0.29861 0.04507
#
# Static dielectric constant tensor:
#      x y z
#    x 1.686510 0.000000 0.000000 
#    y 0.000000 1.707940 0.000000 
#    z 0.000000 0.000000 1.719680 
# 
# From -- ./inp_files/32836.got.cif
#   From: 2010.05.17/outbox.cif.g08.bks.cpg/sg68_17_cif.got.tgz:32836.got - 2010.06.03 18:57:09.
