data_PCOD9506571
_publ_section_title
;
Structure prediction by ZEFSAII (Michael W. Deem and Ramdas Pophale) SiO2 
 PCOD9506571
Probable space group: C C C A
;
_chemical_formula_sum "Si O2"
_cell_formula_units_Z 64
_cell_length_a 5.085600
_cell_length_b 21.913629
_cell_length_c 29.262500
_cell_angle_alpha 90.000000
_cell_angle_beta 90.000000
_cell_angle_gamma 90.000000
_cell_volume 3261.128635
_symmetry_space_group_name_H-M "C C C A"
_symmetry_group_IT_number 68
_space_group.IT_coordinate_system_code '2'
_symmetry_cell_setting 'orthorhombic'
loop_
_space_group_symop_operation_xyz
x,y,z
-x,1/2-y,z
x,1/2-y,1/2-z
-x,y,1/2-z
-x,-y,-z
x,1/2+y,-z
-x,1/2+y,1/2+z
x,-y,1/2+z
1/2+x,1/2+y,z
1/2-x,-y,z
1/2+x,-y,1/2-z
1/2-x,1/2+y,1/2-z
1/2-x,1/2-y,-z
1/2+x,y,-z
1/2-x,y,1/2+z
1/2+x,1/2-y,1/2+z
loop_
_atom_site_type_symbol
_atom_site_label
_atom_site_fract_x
_atom_site_fract_y
_atom_site_fract_z
Si Si1 0.922489 0.820430 0.978685
Si Si2 0.262696 0.426722 0.656745
Si Si3 0.750000 0.000000 0.467467
Si Si4 0.736256 0.887521 0.897831
Si Si5 0.500000 0.959921 0.250000
O O1 0.778397 0.828893 0.930310
O O2 0.000000 0.750000 0.986646
O O3 0.714354 0.848297 0.015130
O O4 0.250000 0.500000 0.647663
O O5 0.495559 0.397163 0.628768
O O6 0.353304 0.423763 0.709697
O O7 0.998532 0.395208 0.638338
O O8 0.722600 0.057752 0.434280
O O9 0.500000 0.000000 0.500000
O O10 0.750000 0.000000 0.269445
#
# Coordination Sequence:
#
# PCOD9506571 Si02
#       5
#    16  16   8  16   8
#     4  10  21  38  56  75 104 146 196 239 275 320
#     4  11  20  35  51  79 111 144 180 225 274 344
#     4  12  22  32  46  70 108 146 180 218 278 334
#     4  12  21  34  53  77 109 145 186 233 277 327
#     4  10  20  34  54  76 109 152 185 218 280 346
#
# _framework density 19.625108000000001
#
# number of rings (size 3 to 8) (size 9 to 14) (size 15 to 20)
#    0.000    1.000    2.500    7.500    0.000    0.000 
#    0.000    0.000    0.000    0.000    0.000    0.875 
#    0.000   12.000    0.000    0.500    0.000    0.000 
#
# Total GULP energy -178382.197253 kJ/mol
# GULP energy per Si atom -5574.443664 kJ/mol
# Density = 1.958044 g / cm^3
# Si number density = 19.625108 Si / 1000 Ang^3
#
#
#
# Elastic Constant Matrix: (Units=GPa)
#
#
# Indices 1 2 3 4 5 6 
#
# 1 146.9827 15.3598 24.7713 0.0000 0.0000 0.0000
# 2 15.3598 13.8919 4.2770 0.0000 0.0000 0.0000
# 3 24.7713 4.2770 79.8371 0.0000 0.0000 0.0000
# 4 0.0000 0.0000 0.0000 16.5292 0.0000 0.0000
# 5 0.0000 0.0000 0.0000 0.0000 51.1566 0.0000
# 6 0.0000 0.0000 0.0000 0.0000 0.0000 16.1858
#
#
#
# Elastic Compliance Matrix: (Units=1/GPa)
#
#
# Indices 1 2 3 4 5 6 
#
# 1 0.008007 -0.008224 -0.002044 0.000000 0.000000 0.000000
# 2 -0.008224 0.081639 -0.001822 0.000000 0.000000 0.000000
# 3 -0.002044 -0.001822 0.013257 0.000000 0.000000 0.000000
# 4 0.000000 0.000000 0.000000 0.060499 0.000000 0.000000
# 5 0.000000 0.000000 0.000000 0.000000 0.019548 0.000000
# 6 0.000000 0.000000 0.000000 0.000000 0.000000 0.061783
#
#
# Mechanical properties :
#
#
# Convention : Reuss Voigt Hill
#
# Bulk Modulus (GPa) = 12.70268 36.61423 24.65846
# Shear Modulus (GPa) = 16.94032 29.86122 23.40077
#
# Velocity S-wave (km/s) = 2.94121 3.90498 3.45685
# Velocity P-wave (km/s) = 4.24511 6.24733 5.34089
#
# Compressibility (1/GPa) = 0.07872352
#
# Stress axis : x y z
#
# Youngs Moduli (GPa) = 124.88399 12.24910 75.43034
#
# Poissons Ratio (x) = 0.10074 0.15417
# Poissons Ratio (y) = 1.02708 0.13741
# Poissons Ratio (z) = 0.25525 0.02231
#
# Static dielectric constant tensor:
#      x y z
#    x 1.726840 0.000000 0.000000 
#    y 0.000000 1.890580 0.000000 
#    z 0.000000 0.000000 1.749650 
# 
# From -- ./inp_files/48280.got.cif
#   From: 2010.05.17/outbox.cif.g08.bks.cpg/sg68_25_cif.got.tgz:48280.got - 2010.06.03 18:57:09.
