data_PCOD9506445
_publ_section_title
;
Structure prediction by ZEFSAII (Michael W. Deem and Ramdas Pophale) SiO2 
 PCOD9506445
Probable space group: C C C A
;
_chemical_formula_sum "Si O2"
_cell_formula_units_Z 112
_cell_length_a 14.081583
_cell_length_b 28.119267
_cell_length_c 13.395470
_cell_angle_alpha 90.000000
_cell_angle_beta 90.000000
_cell_angle_gamma 90.000000
_cell_volume 5304.121099
_symmetry_space_group_name_H-M "C C C A"
_symmetry_group_IT_number 68
_space_group.IT_coordinate_system_code '2'
_symmetry_cell_setting 'orthorhombic'
loop_
_space_group_symop_operation_xyz
x,y,z
-x,1/2-y,z
x,1/2-y,1/2-z
-x,y,1/2-z
-x,-y,-z
x,1/2+y,-z
-x,1/2+y,1/2+z
x,-y,1/2+z
1/2+x,1/2+y,z
1/2-x,-y,z
1/2+x,-y,1/2-z
1/2-x,1/2+y,1/2-z
1/2-x,1/2-y,-z
1/2+x,y,-z
1/2-x,y,1/2+z
1/2+x,1/2-y,1/2+z
loop_
_atom_site_type_symbol
_atom_site_label
_atom_site_fract_x
_atom_site_fract_y
_atom_site_fract_z
Si Si1 0.035875 0.541321 0.861897
Si Si2 0.240135 0.828028 0.493163
Si Si3 0.208137 0.159937 0.766899
Si Si4 0.546178 0.564542 0.571307
Si Si5 0.831787 0.250000 0.250000
Si Si6 0.605037 0.760886 0.029329
Si Si7 0.240126 0.581782 0.880036
Si Si8 0.500000 0.862896 0.750000
O O1 0.012023 0.486272 0.885166
O O2 0.150056 0.548242 0.866384
O O3 0.000000 0.554298 0.750000
O O4 0.990902 0.569352 0.957191
O O5 0.240694 0.842556 0.379459
O O6 0.345352 0.807671 0.516183
O O7 0.169718 0.783858 0.501479
O O8 0.208423 0.872973 0.554853
O O9 0.265896 0.204668 0.722439
O O10 0.230421 0.108579 0.720932
O O11 0.095859 0.167048 0.759195
O O12 0.661482 0.563294 0.573263
O O13 0.510991 0.604297 0.650188
O O14 0.889500 0.236398 0.150634
O O15 0.500000 0.750000 0.995709
#
# Coordination Sequence:
#
# PCOD9506445 Si02
#       8
#    16  16  16  16   8  16  16   8
#     4  11  24  44  67 102 132 170 220 268 327 398
#     4  10  22  40  56  89 124 156 214 269 305 385
#     4  10  22  37  61  86 127 164 213 267 313 378
#     4  10  23  44  68  96 135 170 215 270 324 396
#     4  10  19  41  54  88 124 158 215 268 311 384
#     4  10  21  38  61  82 118 168 207 261 324 371
#     4  11  23  42  66  95 130 169 212 268 326 379
#     4  10  20  41  64  92 124 180 210 263 332 386
#
# _framework density 21.115656999999999
#
# number of rings (size 3 to 8) (size 9 to 14) (size 15 to 20)
#    0.000    1.714    2.143    1.500    2.000    3.714 
#    2.571    1.429    0.000    0.000    0.000    0.000 
#    0.000    0.000    0.000    0.000    0.000    0.000 
#
# Total GULP energy -312568.555434 kJ/mol
# GULP energy per Si atom -5581.581347 kJ/mol
# Density = 2.106760 g / cm^3
# Si number density = 21.115657 Si / 1000 Ang^3
#
#
#
# Elastic Constant Matrix: (Units=GPa)
#
#
# Indices 1 2 3 4 5 6 
#
# 1 118.0753 0.6258 17.2766 0.0000 0.0000 0.0000
# 2 0.6258 32.8220 -1.4547 0.0000 0.0000 0.0000
# 3 17.2766 -1.4547 100.6206 0.0000 0.0000 0.0000
# 4 0.0000 0.0000 0.0000 -9.1706 0.0000 0.0000
# 5 0.0000 0.0000 0.0000 0.0000 22.9368 0.0000
# 6 0.0000 0.0000 0.0000 0.0000 0.0000 24.6052
#
#
#
# Elastic Compliance Matrix: (Units=1/GPa)
#
#
# Indices 1 2 3 4 5 6 
#
# 1 0.008689 -0.000232 -0.001495 0.000000 0.000000 0.000000
# 2 -0.000232 0.030493 0.000481 0.000000 0.000000 0.000000
# 3 -0.001495 0.000481 0.010202 0.000000 0.000000 0.000000
# 4 0.000000 0.000000 0.000000 -0.109044 0.000000 0.000000
# 5 0.000000 0.000000 0.000000 0.000000 0.043598 0.000000
# 6 0.000000 0.000000 0.000000 0.000000 0.000000 0.040642
#
#
# Mechanical properties :
#
#
# Convention : Reuss Voigt Hill
#
# Bulk Modulus (GPa) = 21.32600 31.60150 26.46375
# Shear Modulus (GPa) = 117.08522 23.34562 70.21542
#
# Velocity S-wave (km/s) = 7.45452 3.32867 5.77278
# Velocity P-wave (km/s) = 9.17686 5.45636 7.54939
#
# Compressibility (1/GPa) = 0.04689112
#
# Stress axis : x y z
#
# Youngs Moduli (GPa) = 115.08555 32.79432 98.01981
#
# Poissons Ratio (x) = 0.00761 0.14657
# Poissons Ratio (y) = 0.02669 -0.04711
# Poissons Ratio (z) = 0.17209 -0.01576
#
# Static dielectric constant tensor:
#      x y z
#    x 1.773830 0.000000 0.000000 
#    y 0.000000 1.736590 0.000000 
#    z 0.000000 0.000000 1.910490 
# 
# From -- ./inp_files/22758.got.cif
#   From: 2010.05.17/outbox.cif.g08.bks.cpg/sg68_12_cif.got.tgz:22758.got - 2010.06.03 18:57:09.
