data_PCOD9506815
_publ_section_title
;
Structure prediction by ZEFSAII (Michael W. Deem and Ramdas Pophale) SiO2 
 PCOD9506815
Probable space group: C C C A
;
_chemical_formula_sum "Si O2"
_cell_formula_units_Z 72
_cell_length_a 9.099573
_cell_length_b 28.589570
_cell_length_c 13.773712
_cell_angle_alpha 90.000000
_cell_angle_beta 90.000000
_cell_angle_gamma 90.000000
_cell_volume 3583.270835
_symmetry_space_group_name_H-M "C C C A"
_symmetry_group_IT_number 68
_space_group.IT_coordinate_system_code '2'
_symmetry_cell_setting 'orthorhombic'
loop_
_space_group_symop_operation_xyz
x,y,z
-x,1/2-y,z
x,1/2-y,1/2-z
-x,y,1/2-z
-x,-y,-z
x,1/2+y,-z
-x,1/2+y,1/2+z
x,-y,1/2+z
1/2+x,1/2+y,z
1/2-x,-y,z
1/2+x,-y,1/2-z
1/2-x,1/2+y,1/2-z
1/2-x,1/2-y,-z
1/2+x,y,-z
1/2-x,y,1/2+z
1/2+x,1/2-y,1/2+z
loop_
_atom_site_type_symbol
_atom_site_label
_atom_site_fract_x
_atom_site_fract_y
_atom_site_fract_z
Si Si1 0.247636 0.315716 0.549636
Si Si2 0.500000 0.250000 0.488503
Si Si3 0.492241 0.052999 0.966282
Si Si4 0.717952 0.894738 0.900671
Si Si5 0.655078 0.894262 0.198487
O O1 0.377362 0.277732 0.548550
O O2 0.094761 0.289154 0.567139
O O3 0.248143 0.343506 0.446119
O O4 0.287048 0.354319 0.628009
O O5 0.652318 0.071616 0.938985
O O6 0.388255 0.062507 0.872076
O O7 0.429869 0.085932 0.051669
O O8 0.500000 0.000000 0.000000
O O9 0.729777 0.899337 0.785413
O O10 0.500000 0.881079 0.250000
#
# Coordination Sequence:
#
# PCOD9506815 Si02
#       5
#    16   8  16  16  16
#     4  10  20  38  59  83 116 151 190 237 290 343
#     4  10  20  36  60  86 114 148 190 242 288 340
#     4  10  20  37  60  86 115 148 189 235 280 334
#     4  10  20  39  61  82 115 153 188 232 288 342
#     4   9  19  37  60  82 112 155 192 229 287 346
#
# _framework density 20.093373
#
# number of rings (size 3 to 8) (size 9 to 14) (size 15 to 20)
#    0.000    2.222    0.000    4.667    0.000    0.000 
#    0.000   46.111    0.000    0.000    0.000    0.000 
#    0.000    0.000    0.000    0.000    0.000    0.000 
#
# Total GULP energy -200872.346262 kJ/mol
# GULP energy per Si atom -5579.787396 kJ/mol
# Density = 2.004764 g / cm^3
# Si number density = 20.093373 Si / 1000 Ang^3
#
#
#
# Elastic Constant Matrix: (Units=GPa)
#
#
# Indices 1 2 3 4 5 6 
#
# 1 52.4404 27.0719 22.4646 0.0000 0.0000 0.0000
# 2 27.0719 112.3560 33.4391 0.0000 0.0000 0.0000
# 3 22.4646 33.4391 110.0667 0.0000 0.0000 0.0000
# 4 0.0000 0.0000 0.0000 5.9823 0.0000 0.0000
# 5 0.0000 0.0000 0.0000 0.0000 25.0637 0.0000
# 6 0.0000 0.0000 0.0000 0.0000 0.0000 27.2295
#
#
#
# Elastic Compliance Matrix: (Units=1/GPa)
#
#
# Indices 1 2 3 4 5 6 
#
# 1 0.022808 -0.004519 -0.003282 0.000000 0.000000 0.000000
# 2 -0.004519 0.010680 -0.002322 0.000000 0.000000 0.000000
# 3 -0.003282 -0.002322 0.010461 0.000000 0.000000 0.000000
# 4 0.000000 0.000000 0.000000 0.167159 0.000000 0.000000
# 5 0.000000 0.000000 0.000000 0.000000 0.039898 0.000000
# 6 0.000000 0.000000 0.000000 0.000000 0.000000 0.036725
#
#
# Mechanical properties :
#
#
# Convention : Reuss Voigt Hill
#
# Bulk Modulus (GPa) = 42.19002 48.97937 45.58469
# Shear Modulus (GPa) = 15.82885 24.44761 20.13823
#
# Velocity S-wave (km/s) = 2.80976 3.49191 3.16924
# Velocity P-wave (km/s) = 5.61862 6.37861 6.01064
#
# Compressibility (1/GPa) = 0.02370229
#
# Stress axis : x y z
#
# Youngs Moduli (GPa) = 43.84410 93.63070 95.59401
#
# Poissons Ratio (x) = 0.42309 0.31377
# Poissons Ratio (y) = 0.19812 0.22201
# Poissons Ratio (z) = 0.14391 0.21746
#
# Static dielectric constant tensor:
#      x y z
#    x 1.744100 0.000000 0.000000 
#    y 0.000000 1.706130 0.000000 
#    z 0.000000 0.000000 1.735180 
# 
# From -- ./inp_files/19582.got.cif
#   From: 2010.05.17/outbox.cif.g08.bks.cpg/sg68_10_cif.got.tgz:19582.got - 2010.06.03 18:57:09.
