data_PCOD9506902
_publ_section_title
;
Structure prediction by ZEFSAII (Michael W. Deem and Ramdas Pophale) SiO2 
 PCOD9506902
Probable space group: C C C A
;
_chemical_formula_sum "Si O2"
_cell_formula_units_Z 120
_cell_length_a 21.136322
_cell_length_b 10.356508
_cell_length_c 26.168590
_cell_angle_alpha 90.000000
_cell_angle_beta 90.000000
_cell_angle_gamma 90.000000
_cell_volume 5728.264781
_symmetry_space_group_name_H-M "C C C A"
_symmetry_group_IT_number 68
_space_group.IT_coordinate_system_code '2'
_symmetry_cell_setting 'orthorhombic'
loop_
_space_group_symop_operation_xyz
x,y,z
-x,1/2-y,z
x,1/2-y,1/2-z
-x,y,1/2-z
-x,-y,-z
x,1/2+y,-z
-x,1/2+y,1/2+z
x,-y,1/2+z
1/2+x,1/2+y,z
1/2-x,-y,z
1/2+x,-y,1/2-z
1/2-x,1/2+y,1/2-z
1/2-x,1/2-y,-z
1/2+x,y,-z
1/2-x,y,1/2+z
1/2+x,1/2-y,1/2+z
loop_
_atom_site_type_symbol
_atom_site_label
_atom_site_fract_x
_atom_site_fract_y
_atom_site_fract_z
Si Si1 0.984146 0.028547 0.887974
Si Si2 0.607571 0.951463 0.064978
Si Si3 0.097044 0.088839 0.034683
Si Si4 0.713032 0.770411 0.447130
Si Si5 0.440422 0.892293 0.722773
Si Si6 0.798857 0.379651 0.881836
Si Si7 0.193676 0.396134 0.735565
Si Si8 0.500000 0.250000 0.472212
O O1 0.961391 0.096508 0.836113
O O2 0.989098 0.135140 0.932151
O O3 0.931164 0.933814 0.909629
O O4 0.050591 0.950897 0.893973
O O5 0.657712 0.835363 0.064422
O O6 0.645762 0.082056 0.079848
O O7 0.585755 0.977452 0.007311
O O8 0.171780 0.103172 0.043349
O O9 0.057354 0.205175 0.008856
O O10 0.750000 0.750000 0.500000
O O11 0.762848 0.747459 0.401542
O O12 0.437742 0.750000 0.750000
O O13 0.500000 0.961466 0.750000
O O14 0.369168 0.939155 0.733626
O O15 0.750000 0.500000 0.884358
O O16 0.823655 0.380532 0.824379
O O17 0.213588 0.250000 0.750000
O O18 0.250000 0.500000 0.740789
#
# Coordination Sequence:
#
# PCOD9506902 Si02
#       8
#    16  16  16  16  16  16  16   8
#     4  11  22  36  61  90 121 165 208 271 333 381
#     4  10  20  37  56  84 126 164 215 259 321 387
#     4  11  21  34  54  86 125 161 207 254 310 386
#     4  11  21  36  57  86 124 173 215 255 304 399
#     4  10  21  40  65  95 124 158 226 293 344 397
#     4   9  19  36  58  81 116 169 214 255 321 388
#     4  10  22  41  66  93 130 173 224 288 355 418
#     4  10  20  38  57  84 125 170 204 242 328 398
#
# _framework density 20.948753
#
# number of rings (size 3 to 8) (size 9 to 14) (size 15 to 20)
#    0.000    1.733    1.333    4.800    0.000    4.267 
#    4.800    0.000    0.000    2.000    0.000    0.000 
#    0.000    0.000    0.000    0.000    0.000    0.000 
#
# Total GULP energy -334130.465543 kJ/mol
# GULP energy per Si atom -5568.841092 kJ/mol
# Density = 2.090107 g / cm^3
# Si number density = 20.948753 Si / 1000 Ang^3
#
#
#
# Elastic Constant Matrix: (Units=GPa)
#
#
# Indices 1 2 3 4 5 6 
#
# 1 107.1280 9.8610 46.4647 0.0000 0.0000 0.0000
# 2 9.8610 36.2112 20.6908 0.0000 0.0000 0.0000
# 3 46.4647 20.6908 119.8671 0.0000 0.0000 0.0000
# 4 0.0000 0.0000 0.0000 22.3447 0.0000 0.0000
# 5 0.0000 0.0000 0.0000 0.0000 27.9515 0.0000
# 6 0.0000 0.0000 0.0000 0.0000 0.0000 19.8488
#
#
#
# Elastic Compliance Matrix: (Units=1/GPa)
#
#
# Indices 1 2 3 4 5 6 
#
# 1 0.011234 -0.000633 -0.004245 0.000000 0.000000 0.000000
# 2 -0.000633 0.030673 -0.005049 0.000000 0.000000 0.000000
# 3 -0.004245 -0.005049 0.010860 0.000000 0.000000 0.000000
# 4 0.000000 0.000000 0.000000 0.044753 0.000000 0.000000
# 5 0.000000 0.000000 0.000000 0.000000 0.035776 0.000000
# 6 0.000000 0.000000 0.000000 0.000000 0.000000 0.050381
#
#
# Mechanical properties :
#
#
# Convention : Reuss Voigt Hill
#
# Bulk Modulus (GPa) = 30.38468 46.35994 38.37231
# Shear Modulus (GPa) = 23.30952 26.44164 24.87558
#
# Velocity S-wave (km/s) = 3.33932 3.55661 3.44968
# Velocity P-wave (km/s) = 5.42254 6.24853 5.85013
#
# Compressibility (1/GPa) = 0.03291132
#
# Stress axis : x y z
#
# Youngs Moduli (GPa) = 89.01285 32.60165 92.08260
#
# Poissons Ratio (x) = 0.02065 0.39093
# Poissons Ratio (y) = 0.05639 0.46493
# Poissons Ratio (z) = 0.37790 0.16461
#
# Static dielectric constant tensor:
#      x y z
#    x 1.837670 0.000000 0.000000 
#    y 0.000000 1.857740 0.000000 
#    z 0.000000 0.000000 1.760870 
# 
# From -- ./inp_files/46726.got.cif
#   From: 2010.05.17/outbox.cif.g08.bks.cpg/sg68_24_cif.got.tgz:46726.got - 2010.06.03 18:57:09.
