data_PCOD9506650
_publ_section_title
;
Structure prediction by ZEFSAII (Michael W. Deem and Ramdas Pophale) SiO2 
 PCOD9506650
Probable space group: C C C A
;
_chemical_formula_sum "Si O2"
_cell_formula_units_Z 116
_cell_length_a 14.347080
_cell_length_b 23.513677
_cell_length_c 17.934742
_cell_angle_alpha 90.000000
_cell_angle_beta 90.000000
_cell_angle_gamma 90.000000
_cell_volume 6050.331934
_symmetry_space_group_name_H-M "C C C A"
_symmetry_group_IT_number 68
_space_group.IT_coordinate_system_code '2'
_symmetry_cell_setting 'orthorhombic'
loop_
_space_group_symop_operation_xyz
x,y,z
-x,1/2-y,z
x,1/2-y,1/2-z
-x,y,1/2-z
-x,-y,-z
x,1/2+y,-z
-x,1/2+y,1/2+z
x,-y,1/2+z
1/2+x,1/2+y,z
1/2-x,-y,z
1/2+x,-y,1/2-z
1/2-x,1/2+y,1/2-z
1/2-x,1/2-y,-z
1/2+x,y,-z
1/2-x,y,1/2+z
1/2+x,1/2-y,1/2+z
loop_
_atom_site_type_symbol
_atom_site_label
_atom_site_fract_x
_atom_site_fract_y
_atom_site_fract_z
Si Si1 0.000000 0.750000 0.750000
Si Si2 0.361853 0.328590 0.653560
Si Si3 0.344080 0.839089 0.621305
Si Si4 0.676004 0.846552 0.492558
Si Si5 0.397724 0.107789 0.267488
Si Si6 0.974425 0.315320 0.492998
Si Si7 0.244818 0.066247 0.885747
Si Si8 0.660926 0.787143 0.647883
O O1 0.062957 0.705341 0.702979
O O2 0.396417 0.313665 0.570629
O O3 0.333227 0.396162 0.645912
O O4 0.263644 0.301587 0.677256
O O5 0.248253 0.836315 0.574102
O O6 0.346159 0.882608 0.688972
O O7 0.427922 0.846919 0.562704
O O8 0.362048 0.777685 0.657733
O O9 0.568650 0.846562 0.466238
O O10 0.710396 0.900930 0.539853
O O11 0.672003 0.799806 0.559231
O O12 0.500000 0.085425 0.250000
O O13 0.334447 0.071986 0.322780
O O14 0.406376 0.167805 0.312812
O O15 0.000000 0.250000 0.511221
O O16 0.250000 0.000000 0.901974
#
# Coordination Sequence:
#
# PCOD9506650 Si02
#       8
#     4  16  16  16  16  16  16  16
#     4  12  24  36  64  96 138 156 222 258 316 420
#     4  10  23  37  59  92 124 168 198 255 320 382
#     4  12  20  33  57  90 129 156 205 251 305 387
#     4  10  21  35  61  87 116 162 209 248 308 370
#     4  10  23  37  59  88 118 159 209 254 309 376
#     4  12  20  33  58  95 132 158 192 249 321 382
#     4  10  23  49  65  77 122 175 211 265 332 370
#     4  10  20  35  51  85 129 170 188 231 322 375
#
# _framework density 19.172501
#
# number of rings (size 3 to 8) (size 9 to 14) (size 15 to 20)
#    0.000    1.655    4.828    3.310    3.862    0.552 
#    1.241    1.379    0.000    0.000    0.000    0.000 
#    0.000    0.000    0.000    0.000    0.000    0.000 
#
# Total GULP energy -323158.355786 kJ/mol
# GULP energy per Si atom -5571.695789 kJ/mol
# Density = 1.912886 g / cm^3
# Si number density = 19.172501 Si / 1000 Ang^3
#
#
#
# Elastic Constant Matrix: (Units=GPa)
#
#
# Indices 1 2 3 4 5 6 
#
# 1 73.1893 13.5270 5.0717 0.0000 0.0000 0.0000
# 2 13.5270 76.3014 -1.6908 0.0000 0.0000 0.0000
# 3 5.0717 -1.6908 53.1715 0.0000 0.0000 0.0000
# 4 0.0000 0.0000 0.0000 5.8750 0.0000 0.0000
# 5 0.0000 0.0000 0.0000 0.0000 26.9444 0.0000
# 6 0.0000 0.0000 0.0000 0.0000 0.0000 10.8214
#
#
#
# Elastic Compliance Matrix: (Units=1/GPa)
#
#
# Indices 1 2 3 4 5 6 
#
# 1 0.014235 -0.002556 -0.001439 0.000000 0.000000 0.000000
# 2 -0.002556 0.013574 0.000675 0.000000 0.000000 0.000000
# 3 -0.001439 0.000675 0.018966 0.000000 0.000000 0.000000
# 4 0.000000 0.000000 0.000000 0.170212 0.000000 0.000000
# 5 0.000000 0.000000 0.000000 0.000000 0.037114 0.000000
# 6 0.000000 0.000000 0.000000 0.000000 0.000000 0.092409
#
#
# Mechanical properties :
#
#
# Convention : Reuss Voigt Hill
#
# Bulk Modulus (GPa) = 24.91499 26.27535 25.59517
# Shear Modulus (GPa) = 13.64154 21.11178 17.37666
#
# Velocity S-wave (km/s) = 2.67032 3.32196 3.01380
# Velocity P-wave (km/s) = 4.74667 5.33370 5.04872
#
# Compressibility (1/GPa) = 0.04013648
#
# Stress axis : x y z
#
# Youngs Moduli (GPa) = 70.24812 73.67056 52.72649
#
# Poissons Ratio (x) = 0.18827 0.07588
# Poissons Ratio (y) = 0.17952 -0.03561
# Poissons Ratio (z) = 0.10109 -0.04976
#
# Static dielectric constant tensor:
#      x y z
#    x 1.726590 0.000000 0.000000 
#    y 0.000000 1.648950 0.000000 
#    z 0.000000 0.000000 1.709590 
# 
# From -- ./inp_files/31254.got.cif
#   From: 2010.05.17/outbox.cif.g08.bks.cpg/sg68_16_cif.got.tgz:31254.got - 2010.06.03 18:57:09.
