data_PCOD9506017
_publ_section_title
;
Structure prediction by ZEFSAII (Michael W. Deem and Ramdas Pophale) SiO2 
 PCOD9506017
Probable space group: C C C A
;
_chemical_formula_sum "Si O2"
_cell_formula_units_Z 120
_cell_length_a 19.805592
_cell_length_b 20.759997
_cell_length_c 14.925448
_cell_angle_alpha 90.000000
_cell_angle_beta 90.000000
_cell_angle_gamma 90.000000
_cell_volume 6136.807357
_symmetry_space_group_name_H-M "C C C A"
_symmetry_group_IT_number 68
_space_group.IT_coordinate_system_code '2'
_symmetry_cell_setting 'orthorhombic'
loop_
_space_group_symop_operation_xyz
x,y,z
-x,1/2-y,z
x,1/2-y,1/2-z
-x,y,1/2-z
-x,-y,-z
x,1/2+y,-z
-x,1/2+y,1/2+z
x,-y,1/2+z
1/2+x,1/2+y,z
1/2-x,-y,z
1/2+x,-y,1/2-z
1/2-x,1/2+y,1/2-z
1/2-x,1/2-y,-z
1/2+x,y,-z
1/2-x,y,1/2+z
1/2+x,1/2-y,1/2+z
loop_
_atom_site_type_symbol
_atom_site_label
_atom_site_fract_x
_atom_site_fract_y
_atom_site_fract_z
Si Si1 0.614480 0.750000 0.250000
Si Si2 0.522026 0.820962 0.998364
Si Si3 0.327795 0.584106 0.739790
Si Si4 0.173157 0.063238 0.241847
Si Si5 0.657034 0.692020 0.610839
Si Si6 0.612949 0.168054 0.094089
Si Si7 0.685898 0.828353 0.402953
Si Si8 0.549753 0.121011 0.677085
O O1 0.659621 0.774627 0.332928
O O2 0.570003 0.691418 0.285574
O O3 0.500000 0.750000 0.032472
O O4 0.598446 0.820665 0.962327
O O5 0.467632 0.832685 0.920162
O O6 0.517568 0.870141 0.080369
O O7 0.247416 0.581614 0.723416
O O8 0.339757 0.511922 0.774619
O O9 0.347442 0.638328 0.811968
O O10 0.363825 0.606355 0.649401
O O11 0.170070 0.105587 0.151158
O O12 0.119673 0.083833 0.316580
O O13 0.640196 0.765672 0.639262
O O14 0.734737 0.684436 0.579258
O O15 0.645537 0.170991 0.995214
O O16 0.500000 0.090977 0.750000
#
# Coordination Sequence:
#
# PCOD9506017 Si02
#       8
#     8  16  16  16  16  16  16  16
#     4  10  19  32  62  92 121 156 190 252 328 353
#     4  10  21  37  54  90 128 154 194 245 311 366
#     4  10  22  43  61  83 121 164 210 247 297 364
#     4   9  22  42  60  85 118 165 201 249 307 361
#     4  10  22  37  61  89 122 158 198 253 307 358
#     4  11  22  37  63  92 120 155 204 256 300 361
#     4  10  21  36  64  95 122 150 204 260 302 366
#     4  11  20  35  61  89 123 156 195 251 312 369
#
# _framework density 19.554141000000001
#
# number of rings (size 3 to 8) (size 9 to 14) (size 15 to 20)
#    0.000    1.867    0.000    5.000    7.467    0.533 
#    4.800    4.000    0.000    0.000    0.000    0.000 
#    0.000    0.000    0.000    0.000    0.000    0.000 
#
# Total GULP energy -334690.720871 kJ/mol
# GULP energy per Si atom -5578.178681 kJ/mol
# Density = 1.950964 g / cm^3
# Si number density = 19.554141 Si / 1000 Ang^3
#
#
#
# Elastic Constant Matrix: (Units=GPa)
#
#
# Indices 1 2 3 4 5 6 
#
# 1 83.9794 32.1471 27.4575 0.0000 0.0000 0.0000
# 2 32.1471 75.8621 18.7669 0.0000 0.0000 0.0000
# 3 27.4575 18.7669 56.1548 0.0000 0.0000 0.0000
# 4 0.0000 0.0000 0.0000 12.3647 0.0000 0.0000
# 5 0.0000 0.0000 0.0000 0.0000 21.6391 0.0000
# 6 0.0000 0.0000 0.0000 0.0000 0.0000 47.9000
#
#
#
# Elastic Compliance Matrix: (Units=1/GPa)
#
#
# Indices 1 2 3 4 5 6 
#
# 1 0.015880 -0.005242 -0.006013 0.000000 0.000000 0.000000
# 2 -0.005242 0.016100 -0.002818 0.000000 0.000000 0.000000
# 3 -0.006013 -0.002818 0.021690 0.000000 0.000000 0.000000
# 4 0.000000 0.000000 0.000000 0.080875 0.000000 0.000000
# 5 0.000000 0.000000 0.000000 0.000000 0.046213 0.000000
# 6 0.000000 0.000000 0.000000 0.000000 0.000000 0.020877
#
#
# Mechanical properties :
#
#
# Convention : Reuss Voigt Hill
#
# Bulk Modulus (GPa) = 39.17703 41.41547 40.29625
# Shear Modulus (GPa) = 20.98303 25.55576 23.26939
#
# Velocity S-wave (km/s) = 3.27933 3.61906 3.45338
# Velocity P-wave (km/s) = 5.86663 6.22008 6.04594
#
# Compressibility (1/GPa) = 0.02552516
#
# Stress axis : x y z
#
# Youngs Moduli (GPa) = 62.97140 62.11146 46.10493
#
# Poissons Ratio (x) = 0.32558 0.27723
# Poissons Ratio (y) = 0.33009 0.12990
# Poissons Ratio (z) = 0.37865 0.17500
#
# Static dielectric constant tensor:
#      x y z
#    x 1.707910 0.000000 0.000000 
#    y 0.000000 1.697770 0.000000 
#    z 0.000000 0.000000 1.683700 
# 
# From -- ./inp_files/24813.got.cif
#   From: 2010.05.17/outbox.cif.g08.bks.cpg/sg68_13_cif.got.tgz:24813.got - 2010.06.03 18:57:09.
