data_PCOD9506018
_publ_section_title
;
Structure prediction by ZEFSAII (Michael W. Deem and Ramdas Pophale) SiO2 
 PCOD9506018
Probable space group: C C C A
;
_chemical_formula_sum "Si O2"
_cell_formula_units_Z 116
_cell_length_a 29.946342
_cell_length_b 18.079586
_cell_length_c 10.245785
_cell_angle_alpha 90.000000
_cell_angle_beta 90.000000
_cell_angle_gamma 90.000000
_cell_volume 5547.246948
_symmetry_space_group_name_H-M "C C C A"
_symmetry_group_IT_number 68
_space_group.IT_coordinate_system_code '2'
_symmetry_cell_setting 'orthorhombic'
loop_
_space_group_symop_operation_xyz
x,y,z
-x,1/2-y,z
x,1/2-y,1/2-z
-x,y,1/2-z
-x,-y,-z
x,1/2+y,-z
-x,1/2+y,1/2+z
x,-y,1/2+z
1/2+x,1/2+y,z
1/2-x,-y,z
1/2+x,-y,1/2-z
1/2-x,1/2+y,1/2-z
1/2-x,1/2-y,-z
1/2+x,y,-z
1/2-x,y,1/2+z
1/2+x,1/2-y,1/2+z
loop_
_atom_site_type_symbol
_atom_site_label
_atom_site_fract_x
_atom_site_fract_y
_atom_site_fract_z
Si Si1 0.692216 0.069461 0.520191
Si Si2 0.639217 0.306562 0.628180
Si Si3 0.530848 0.478405 0.379248
Si Si4 0.500000 0.750000 0.750000
Si Si5 0.921656 0.325529 0.892751
Si Si6 0.145214 0.392338 0.779331
Si Si7 0.113066 0.449001 0.226938
Si Si8 0.206835 0.098742 0.975879
O O1 0.672535 0.121328 0.408583
O O2 0.655402 0.063493 0.632042
O O3 0.740775 0.100307 0.556658
O O4 0.698925 0.984710 0.468853
O O5 0.643690 0.250000 0.750000
O O6 0.607118 0.285988 0.505805
O O7 0.614504 0.379635 0.680172
O O8 0.686109 0.338509 0.569935
O O9 0.500000 0.462761 0.250000
O O10 0.500000 0.500000 0.500000
O O11 0.563311 0.410520 0.420977
O O12 0.565869 0.543200 0.344677
O O13 0.467486 0.791342 0.848355
O O14 0.891054 0.333776 0.764096
O O15 0.121088 0.471892 0.795816
O O16 0.178650 0.397888 0.657032
#
# Coordination Sequence:
#
# PCOD9506018 Si02
#       8
#    16  16  16   4  16  16  16  16
#     4  10  19  32  65  90 125 164 210 274 320 367
#     4  11  23  43  61  89 136 175 207 264 330 396
#     4  11  23  39  66  98 130 162 213 277 337 388
#     4  12  24  48  70  88 128 164 234 242 312 412
#     4  10  24  41  65  91 123 172 209 271 317 380
#     4   9  19  36  58  90 126 152 211 267 316 367
#     4  10  22  36  60  90 125 161 209 260 326 383
#     4   9  20  34  57  95 123 168 215 261 317 382
#
# _framework density 20.911275
#
# number of rings (size 3 to 8) (size 9 to 14) (size 15 to 20)
#    0.000    1.931    2.069    1.655    5.793    3.310 
#    0.000    2.414    1.517    0.000    0.000    0.000 
#    0.000    0.000    0.000    0.000    0.000    0.000 
#
# Total GULP energy -323499.511685 kJ/mol
# GULP energy per Si atom -5577.577788 kJ/mol
# Density = 2.086368 g / cm^3
# Si number density = 20.911275 Si / 1000 Ang^3
#
#
#
# Elastic Constant Matrix: (Units=GPa)
#
#
# Indices 1 2 3 4 5 6 
#
# 1 126.2220 16.4592 19.7889 0.0000 0.0000 0.0000
# 2 16.4592 47.1405 14.4784 0.0000 0.0000 0.0000
# 3 19.7889 14.4784 52.1437 0.0000 0.0000 0.0000
# 4 0.0000 0.0000 0.0000 26.0892 0.0000 0.0000
# 5 0.0000 0.0000 0.0000 0.0000 12.9577 0.0000
# 6 0.0000 0.0000 0.0000 0.0000 0.0000 57.7374
#
#
#
# Elastic Compliance Matrix: (Units=1/GPa)
#
#
# Indices 1 2 3 4 5 6 
#
# 1 0.008626 -0.002193 -0.002665 0.000000 0.000000 0.000000
# 2 -0.002193 0.023749 -0.005762 0.000000 0.000000 0.000000
# 3 -0.002665 -0.005762 0.021789 0.000000 0.000000 0.000000
# 4 0.000000 0.000000 0.000000 0.038330 0.000000 0.000000
# 5 0.000000 0.000000 0.000000 0.000000 0.077174 0.000000
# 6 0.000000 0.000000 0.000000 0.000000 0.000000 0.017320
#
#
# Mechanical properties :
#
#
# Convention : Reuss Voigt Hill
#
# Bulk Modulus (GPa) = 30.37290 36.32881 33.35086
# Shear Modulus (GPa) = 22.81000 31.00884 26.90942
#
# Velocity S-wave (km/s) = 3.30631 3.85499 3.59114
# Velocity P-wave (km/s) = 5.39738 6.10124 5.76007
#
# Compressibility (1/GPa) = 0.03292408
#
# Stress axis : x y z
#
# Youngs Moduli (GPa) = 115.92391 42.10772 45.89505
#
# Poissons Ratio (x) = 0.09236 0.12230
# Poissons Ratio (y) = 0.25428 0.26443
# Poissons Ratio (z) = 0.30890 0.24261
#
# Static dielectric constant tensor:
#      x y z
#    x 1.774020 0.000000 0.000000 
#    y 0.000000 1.805720 0.000000 
#    z 0.000000 0.000000 1.809680 
# 
# From -- ./inp_files/17251.got.cif
#   From: 2010.05.17/outbox.cif.g08.bks.cpg/sg68_9_cif.got.tgz:17251.got - 2010.06.03 18:57:09.
