data_PCOD9506987
_publ_section_title
;
Structure prediction by ZEFSAII (Michael W. Deem and Ramdas Pophale) SiO2 
 PCOD9506987
Probable space group: C C C A
;
_chemical_formula_sum "Si O2"
_cell_formula_units_Z 64
_cell_length_a 16.248358
_cell_length_b 8.196600
_cell_length_c 19.214933
_cell_angle_alpha 90.000000
_cell_angle_beta 90.000000
_cell_angle_gamma 90.000000
_cell_volume 2559.069587
_symmetry_space_group_name_H-M "C C C A"
_symmetry_group_IT_number 68
_space_group.IT_coordinate_system_code '2'
_symmetry_cell_setting 'orthorhombic'
loop_
_space_group_symop_operation_xyz
x,y,z
-x,1/2-y,z
x,1/2-y,1/2-z
-x,y,1/2-z
-x,-y,-z
x,1/2+y,-z
-x,1/2+y,1/2+z
x,-y,1/2+z
1/2+x,1/2+y,z
1/2-x,-y,z
1/2+x,-y,1/2-z
1/2-x,1/2+y,1/2-z
1/2-x,1/2-y,-z
1/2+x,y,-z
1/2-x,y,1/2+z
1/2+x,1/2-y,1/2+z
loop_
_atom_site_type_symbol
_atom_site_label
_atom_site_fract_x
_atom_site_fract_y
_atom_site_fract_z
Si Si1 0.843718 0.004809 0.232238
Si Si2 0.093916 0.301752 0.849166
Si Si3 0.599402 0.784097 0.110038
Si Si4 0.902142 0.516933 0.016218
O O1 0.855147 0.844055 0.184141
O O2 0.896253 0.963154 0.301134
O O3 0.750000 0.000000 0.255508
O O4 0.868025 0.340520 0.314969
O O5 0.110548 0.335545 0.929490
O O6 0.000000 0.250000 0.843184
O O7 0.500000 0.750000 0.114829
O O8 0.629328 0.632690 0.062714
O O9 0.627063 0.934285 0.059805
O O10 0.000000 0.500000 0.000000
#
# Coordination Sequence:
#
# PCOD9506987 Si02
#       4
#    16  16  16  16
#     4  11  25  43  62  96 136 173 213 263 323 387
#     4  11  23  44  70  92 126 173 217 266 321 382
#     4  10  20  38  65  93 125 165 213 264 313 379
#     4  10  20  37  66  99 125 157 216 277 317 368
#
# _framework density 25.00909
#
# number of rings (size 3 to 8) (size 9 to 14) (size 15 to 20)
#    0.000    1.500    0.000    8.250    0.000    5.000 
#    0.000   10.000    0.000    0.000    0.000    0.000 
#    0.000    0.000    0.000    0.000    0.000    0.000 
#
# Total GULP energy -178764.072447 kJ/mol
# GULP energy per Si atom -5586.377264 kJ/mol
# Density = 2.495217 g / cm^3
# Si number density = 25.009090 Si / 1000 Ang^3
#
#
#
# Elastic Constant Matrix: (Units=GPa)
#
#
# Indices 1 2 3 4 5 6 
#
# 1 37.4359 9.2371 17.3930 0.0000 0.0000 0.0000
# 2 9.2371 94.9756 40.5024 0.0000 0.0000 0.0000
# 3 17.3930 40.5024 213.6120 0.0000 0.0000 0.0000
# 4 0.0000 0.0000 0.0000 55.7383 0.0000 0.0000
# 5 0.0000 0.0000 0.0000 0.0000 -11.0858 0.0000
# 6 0.0000 0.0000 0.0000 0.0000 0.0000 21.8832
#
#
#
# Elastic Compliance Matrix: (Units=1/GPa)
#
#
# Indices 1 2 3 4 5 6 
#
# 1 0.028078 -0.001910 -0.001924 0.000000 0.000000 0.000000
# 2 -0.001910 0.011585 -0.002041 0.000000 0.000000 0.000000
# 3 -0.001924 -0.002041 0.005225 0.000000 0.000000 0.000000
# 4 0.000000 0.000000 0.000000 0.017941 0.000000 0.000000
# 5 0.000000 0.000000 0.000000 0.000000 -0.090206 0.000000
# 6 0.000000 0.000000 0.000000 0.000000 0.000000 0.045697
#
#
# Mechanical properties :
#
#
# Convention : Reuss Voigt Hill
#
# Bulk Modulus (GPa) = 30.17762 53.36539 41.77151
# Shear Modulus (GPa) = 121.60566 31.89988 76.75277
#
# Velocity S-wave (km/s) = 6.98070 3.57533 5.54586
# Velocity P-wave (km/s) = 8.77875 6.19909 7.59918
#
# Compressibility (1/GPa) = 0.03313714
#
# Stress axis : x y z
#
# Youngs Moduli (GPa) = 35.61567 86.31677 191.38570
#
# Poissons Ratio (x) = 0.16489 0.36822
# Poissons Ratio (y) = 0.06804 0.39064
# Poissons Ratio (z) = 0.06852 0.17618
#
# Static dielectric constant tensor:
#      x y z
#    x 1.883690 0.000000 0.000000 
#    y 0.000000 2.108200 0.000000 
#    z 0.000000 0.000000 1.915250 
# 
# From -- ./inp_files/45816.got.cif
#   From: 2010.05.17/outbox.cif.g08.bks.cpg/sg68_23_cif.got.tgz:45816.got - 2010.06.03 18:57:09.
