data_PCOD9506302
_publ_section_title
;
Structure prediction by ZEFSAII (Michael W. Deem and Ramdas Pophale) SiO2 
 PCOD9506302
Probable space group: C C C A
;
_chemical_formula_sum "Si O2"
_cell_formula_units_Z 64
_cell_length_a 12.609021
_cell_length_b 17.362497
_cell_length_c 11.852407
_cell_angle_alpha 90.000000
_cell_angle_beta 90.000000
_cell_angle_gamma 90.000000
_cell_volume 2594.777408
_symmetry_space_group_name_H-M "C C C A"
_symmetry_group_IT_number 68
_space_group.IT_coordinate_system_code '2'
_symmetry_cell_setting 'orthorhombic'
loop_
_space_group_symop_operation_xyz
x,y,z
-x,1/2-y,z
x,1/2-y,1/2-z
-x,y,1/2-z
-x,-y,-z
x,1/2+y,-z
-x,1/2+y,1/2+z
x,-y,1/2+z
1/2+x,1/2+y,z
1/2-x,-y,z
1/2+x,-y,1/2-z
1/2-x,1/2+y,1/2-z
1/2-x,1/2-y,-z
1/2+x,y,-z
1/2-x,y,1/2+z
1/2+x,1/2-y,1/2+z
loop_
_atom_site_type_symbol
_atom_site_label
_atom_site_fract_x
_atom_site_fract_y
_atom_site_fract_z
Si Si1 0.374518 0.976832 0.690111
Si Si2 0.604829 0.204990 0.958650
Si Si3 0.627704 0.534697 0.944714
Si Si4 0.811949 0.691308 0.152788
O O1 0.411964 0.991232 0.819472
O O2 0.373101 0.885611 0.676960
O O3 0.250000 0.000000 0.693952
O O4 0.411584 0.006105 0.567281
O O5 0.500000 0.250000 0.916779
O O6 0.684992 0.181541 0.858709
O O7 0.608939 0.127511 0.037740
O O8 0.652008 0.273129 0.035398
O O9 0.750000 0.500000 0.944091
O O10 0.836261 0.750000 0.250000
#
# Coordination Sequence:
#
# PCOD9506302 Si02
#       4
#    16  16  16  16
#     4  10  19  36  68 100 134 186 249 292 369 447
#     4  11  24  41  67 107 143 182 253 315 368 443
#     4  10  19  38  67 103 137 191 237 306 368 446
#     4  11  22  42  70  95 137 203 238 301 379 458
#
# _framework density 24.664929000000001
#
# number of rings (size 3 to 8) (size 9 to 14) (size 15 to 20)
#    0.000    1.500    7.500    0.000    0.000    1.000 
#    0.000    1.250    0.000    0.000    0.000    1.750 
#    0.000    0.000    0.000    0.000    0.000    0.000 
#
# Total GULP energy -178263.977167 kJ/mol
# GULP energy per Si atom -5570.749286 kJ/mol
# Density = 2.460879 g / cm^3
# Si number density = 24.664929 Si / 1000 Ang^3
#
#
#
# Elastic Constant Matrix: (Units=GPa)
#
#
# Indices 1 2 3 4 5 6 
#
# 1 73.4597 26.5118 65.1626 0.0000 0.0000 0.0000
# 2 26.5118 79.7745 51.0257 0.0000 0.0000 0.0000
# 3 65.1626 51.0257 183.3604 0.0000 0.0000 0.0000
# 4 0.0000 0.0000 0.0000 41.5787 0.0000 0.0000
# 5 0.0000 0.0000 0.0000 0.0000 55.2148 0.0000
# 6 0.0000 0.0000 0.0000 0.0000 0.0000 -4.6930
#
#
#
# Elastic Compliance Matrix: (Units=1/GPa)
#
#
# Indices 1 2 3 4 5 6 
#
# 1 0.020312 -0.002595 -0.006496 0.000000 0.000000 0.000000
# 2 -0.002595 0.015581 -0.003414 0.000000 0.000000 0.000000
# 3 -0.006496 -0.003414 0.008712 0.000000 0.000000 0.000000
# 4 0.000000 0.000000 0.000000 0.024051 0.000000 0.000000
# 5 0.000000 0.000000 0.000000 0.000000 0.018111 0.000000
# 6 0.000000 0.000000 0.000000 0.000000 0.000000 -0.213084
#
#
# Mechanical properties :
#
#
# Convention : Reuss Voigt Hill
#
# Bulk Modulus (GPa) = 51.03260 69.11055 60.07157
# Shear Modulus (GPa) = -52.75679 31.34641 -10.70519
#
# Velocity S-wave (km/s) = -4.62988 3.56882 -2.08559
# Velocity P-wave (km/s) = 2.80104 6.71287 4.31374
#
# Compressibility (1/GPa) = 0.01959532
#
# Stress axis : x y z
#
# Youngs Moduli (GPa) = 49.23178 64.17951 114.77943
#
# Poissons Ratio (x) = 0.16656 0.74564
# Poissons Ratio (y) = 0.12777 0.39182
# Poissons Ratio (z) = 0.31982 0.21909
#
# Static dielectric constant tensor:
#      x y z
#    x 2.320380 0.000000 0.000000 
#    y 0.000000 1.541280 0.000000 
#    z 0.000000 0.000000 1.930760 
# 
# From -- ./inp_files/12814.got.cif
#   From: 2010.05.17/outbox.cif.g08.bks.cpg/sg68_7_cif.got.tgz:12814.got - 2010.06.03 18:57:09.
