data_PCOD9506035
_publ_section_title
;
Structure prediction by ZEFSAII (Michael W. Deem and Ramdas Pophale) SiO2 
 PCOD9506035
Probable space group: C C C A
;
_chemical_formula_sum "Si O2"
_cell_formula_units_Z 116
_cell_length_a 8.080076
_cell_length_b 28.081627
_cell_length_c 25.230239
_cell_angle_alpha 90.000000
_cell_angle_beta 90.000000
_cell_angle_gamma 90.000000
_cell_volume 5724.783625
_symmetry_space_group_name_H-M "C C C A"
_symmetry_group_IT_number 68
_space_group.IT_coordinate_system_code '2'
_symmetry_cell_setting 'orthorhombic'
loop_
_space_group_symop_operation_xyz
x,y,z
-x,1/2-y,z
x,1/2-y,1/2-z
-x,y,1/2-z
-x,-y,-z
x,1/2+y,-z
-x,1/2+y,1/2+z
x,-y,1/2+z
1/2+x,1/2+y,z
1/2-x,-y,z
1/2+x,-y,1/2-z
1/2-x,1/2+y,1/2-z
1/2-x,1/2-y,-z
1/2+x,y,-z
1/2-x,y,1/2+z
1/2+x,1/2-y,1/2+z
loop_
_atom_site_type_symbol
_atom_site_label
_atom_site_fract_x
_atom_site_fract_y
_atom_site_fract_z
Si Si1 0.869532 0.669596 0.178492
Si Si2 0.883118 0.445135 0.331520
Si Si3 0.500000 0.750000 0.750000
Si Si4 0.203924 0.701056 0.929671
Si Si5 0.166479 0.311974 0.042196
Si Si6 0.414972 0.027692 0.122803
Si Si7 0.623275 0.116664 0.107839
Si Si8 0.263460 0.074671 0.719107
O O1 0.762690 0.682085 0.126679
O O2 0.796454 0.628809 0.216354
O O3 0.894269 0.716319 0.212413
O O4 0.037815 0.648615 0.153275
O O5 0.781598 0.410067 0.368320
O O6 0.777849 0.447519 0.277115
O O7 0.936888 0.491252 0.365095
O O8 0.059075 0.426375 0.309842
O O9 0.201539 0.758711 0.934935
O O10 0.022247 0.679928 0.940776
O O11 0.321632 0.687285 0.978617
O O12 0.302226 0.348587 0.063859
O O13 0.488261 0.074900 0.094256
O O14 0.358240 0.045634 0.180961
O O15 0.250000 0.000000 0.101028
#
# Coordination Sequence:
#
# PCOD9506035 Si02
#       8
#    16  16   4  16  16  16  16  16
#     4  11  22  38  56  82 118 162 197 239 291 351
#     4  10  19  33  53  79 113 151 195 247 299 352
#     4  12  24  36  56  82 124 164 200 238 292 350
#     4  10  21  39  63  89 121 150 193 243 297 347
#     4  10  21  38  63  94 117 149 194 249 296 347
#     4   9  20  34  51  80 116 154 193 243 301 355
#     4  11  21  34  56  85 117 152 197 241 292 352
#     4   9  20  34  51  77 111 150 200 246 291 355
#
# _framework density 20.262775000000001
#
# number of rings (size 3 to 8) (size 9 to 14) (size 15 to 20)
#    0.000    1.931    0.000    3.724    0.000   10.483 
#    0.000    1.379    0.000    1.655    0.000   68.552 
#    0.000    0.000    0.000    0.000    0.000    0.000 
#
# Total GULP energy -323737.539642 kJ/mol
# GULP energy per Si atom -5581.681718 kJ/mol
# Density = 2.021666 g / cm^3
# Si number density = 20.262775 Si / 1000 Ang^3
#
#
#
# Elastic Constant Matrix: (Units=GPa)
#
#
# Indices 1 2 3 4 5 6 
#
# 1 97.3233 49.1913 40.2892 0.0000 0.0000 0.0000
# 2 49.1913 104.0615 36.8771 0.0000 0.0000 0.0000
# 3 40.2892 36.8771 67.0899 0.0000 0.0000 0.0000
# 4 0.0000 0.0000 0.0000 -8.7547 0.0000 0.0000
# 5 0.0000 0.0000 0.0000 0.0000 28.4375 0.0000
# 6 0.0000 0.0000 0.0000 0.0000 0.0000 34.7397
#
#
#
# Elastic Compliance Matrix: (Units=1/GPa)
#
#
# Indices 1 2 3 4 5 6 
#
# 1 0.015528 -0.005012 -0.006570 0.000000 0.000000 0.000000
# 2 -0.005012 0.013552 -0.004439 0.000000 0.000000 0.000000
# 3 -0.006570 -0.004439 0.021291 0.000000 0.000000 0.000000
# 4 0.000000 0.000000 0.000000 -0.114224 0.000000 0.000000
# 5 0.000000 0.000000 0.000000 0.000000 0.035165 0.000000
# 6 0.000000 0.000000 0.000000 0.000000 0.000000 0.028786
#
#
# Mechanical properties :
#
#
# Convention : Reuss Voigt Hill
#
# Bulk Modulus (GPa) = 54.56004 57.90996 56.23500
# Shear Modulus (GPa) = 130.71917 20.35897 75.53907
#
# Velocity S-wave (km/s) = 8.04065 3.17321 6.11234
# Velocity P-wave (km/s) = 10.63896 6.48593 8.81064
#
# Compressibility (1/GPa) = 0.01832843
#
# Stress axis : x y z
#
# Youngs Moduli (GPa) = 64.39894 73.78890 46.96813
#
# Poissons Ratio (x) = 0.36984 0.30859
# Poissons Ratio (y) = 0.32277 0.20850
# Poissons Ratio (z) = 0.42311 0.32757
#
# Static dielectric constant tensor:
#      x y z
#    x 1.748020 0.000000 0.000000 
#    y 0.000000 1.758630 0.000000 
#    z 0.000000 0.000000 1.673370 
# 
# From -- ./inp_files/43532.got.cif
#   From: 2010.05.17/outbox.cif.g08.bks.cpg/sg68_22_cif.got.tgz:43532.got - 2010.06.03 18:57:09.
