data_PCOD9506223
_publ_section_title
;
Structure prediction by ZEFSAII (Michael W. Deem and Ramdas Pophale) SiO2 
 PCOD9506223
Probable space group: C C C A
;
_chemical_formula_sum "Si O2"
_cell_formula_units_Z 104
_cell_length_a 8.874028
_cell_length_b 27.636896
_cell_length_c 21.580576
_cell_angle_alpha 90.000000
_cell_angle_beta 90.000000
_cell_angle_gamma 90.000000
_cell_volume 5292.648974
_symmetry_space_group_name_H-M "C C C A"
_symmetry_group_IT_number 68
_space_group.IT_coordinate_system_code '2'
_symmetry_cell_setting 'orthorhombic'
loop_
_space_group_symop_operation_xyz
x,y,z
-x,1/2-y,z
x,1/2-y,1/2-z
-x,y,1/2-z
-x,-y,-z
x,1/2+y,-z
-x,1/2+y,1/2+z
x,-y,1/2+z
1/2+x,1/2+y,z
1/2-x,-y,z
1/2+x,-y,1/2-z
1/2-x,1/2+y,1/2-z
1/2-x,1/2-y,-z
1/2+x,y,-z
1/2-x,y,1/2+z
1/2+x,1/2-y,1/2+z
loop_
_atom_site_type_symbol
_atom_site_label
_atom_site_fract_x
_atom_site_fract_y
_atom_site_fract_z
Si Si1 0.154460 0.659475 0.102131
Si Si2 0.771537 0.942736 0.418244
Si Si3 0.588484 0.885648 0.805315
Si Si4 0.767077 0.291398 0.199443
Si Si5 0.980101 0.694568 0.903606
Si Si6 0.469538 0.606135 0.495841
Si Si7 0.000000 0.750000 0.385794
O O1 0.315541 0.679622 0.121693
O O2 0.045063 0.639160 0.154761
O O3 0.064387 0.705826 0.076084
O O4 0.153378 0.619877 0.048540
O O5 0.817720 0.918579 0.352756
O O6 0.611388 0.925286 0.443995
O O7 0.898087 0.921725 0.466783
O O8 0.750000 0.000000 0.414012
O O9 0.500000 0.911892 0.750000
O O10 0.692359 0.841987 0.778708
O O11 0.806621 0.250000 0.250000
O O12 0.635028 0.267875 0.157794
O O13 0.901577 0.306433 0.153196
O O14 0.000000 0.750000 0.926089
O O15 0.997997 0.655767 0.958555
#
# Coordination Sequence:
#
# PCOD9506223 Si02
#       7
#    16  16  16  16  16  16   8
#     4  10  22  38  59  90 131 176 216 265 326 390
#     4  11  23  44  75  99 128 168 223 283 352 401
#     4  10  22  42  67  88 128 175 222 275 326 403
#     4  11  21  37  57  86 126 174 221 264 312 383
#     4  12  24  37  56  94 136 173 220 266 329 388
#     4  11  23  42  64  99 135 167 214 285 335 410
#     4  10  19  36  52  84 116 170 223 250 302 382
#
# _framework density 19.649896999999999
#
# number of rings (size 3 to 8) (size 9 to 14) (size 15 to 20)
#    0.000    1.231    4.615    2.538    1.077    0.923 
#    0.000    0.000    3.385    0.000    0.000    0.000 
#    0.000    0.000    0.000    0.000    0.000    0.000 
#
# Total GULP energy -289706.858502 kJ/mol
# GULP energy per Si atom -5571.285740 kJ/mol
# Density = 1.960517 g / cm^3
# Si number density = 19.649897 Si / 1000 Ang^3
#
#
#
# Elastic Constant Matrix: (Units=GPa)
#
#
# Indices 1 2 3 4 5 6 
#
# 1 78.4260 23.0051 26.9046 0.0000 0.0000 0.0000
# 2 23.0051 113.9680 42.8931 0.0000 0.0000 0.0000
# 3 26.9046 42.8931 87.2433 0.0000 0.0000 0.0000
# 4 0.0000 0.0000 0.0000 -9.2468 0.0000 0.0000
# 5 0.0000 0.0000 0.0000 0.0000 20.3861 0.0000
# 6 0.0000 0.0000 0.0000 0.0000 0.0000 17.6342
#
#
#
# Elastic Compliance Matrix: (Units=1/GPa)
#
#
# Indices 1 2 3 4 5 6 
#
# 1 0.014472 -0.001523 -0.003714 0.000000 0.000000 0.000000
# 2 -0.001523 0.010927 -0.004902 0.000000 0.000000 0.000000
# 3 -0.003714 -0.004902 0.015018 0.000000 0.000000 0.000000
# 4 0.000000 0.000000 0.000000 -0.108146 0.000000 0.000000
# 5 0.000000 0.000000 0.000000 0.000000 0.049053 0.000000
# 6 0.000000 0.000000 0.000000 0.000000 0.000000 0.056708
#
#
# Mechanical properties :
#
#
# Convention : Reuss Voigt Hill
#
# Bulk Modulus (GPa) = 49.65975 51.69366 50.67671
# Shear Modulus (GPa) = 76.89502 18.21034 47.55268
#
# Velocity S-wave (km/s) = 6.26239 3.04754 4.92468
# Velocity P-wave (km/s) = 8.81006 6.22477 7.62774
#
# Compressibility (1/GPa) = 0.02013703
#
# Stress axis : x y z
#
# Youngs Moduli (GPa) = 69.09972 91.51641 66.58768
#
# Poissons Ratio (x) = 0.13942 0.24730
# Poissons Ratio (y) = 0.10527 0.32644
# Poissons Ratio (z) = 0.25663 0.44865
#
# Static dielectric constant tensor:
#      x y z
#    x 1.828770 0.000000 0.000000 
#    y 0.000000 1.699150 0.000000 
#    z 0.000000 0.000000 1.721020 
# 
# From -- ./inp_files/36585.got.cif
#   From: 2010.05.17/outbox.cif.g08.bks.cpg/sg68_19_cif.got.tgz:36585.got - 2010.06.03 18:57:09.
