data_PCOD9506831
_publ_section_title
;
Structure prediction by ZEFSAII (Michael W. Deem and Ramdas Pophale) SiO2 
 PCOD9506831
Probable space group: C C C A
;
_chemical_formula_sum "Si O2"
_cell_formula_units_Z 112
_cell_length_a 30.279380
_cell_length_b 12.491368
_cell_length_c 12.198085
_cell_angle_alpha 90.000000
_cell_angle_beta 90.000000
_cell_angle_gamma 90.000000
_cell_volume 4613.692404
_symmetry_space_group_name_H-M "C C C A"
_symmetry_group_IT_number 68
_space_group.IT_coordinate_system_code '2'
_symmetry_cell_setting 'orthorhombic'
loop_
_space_group_symop_operation_xyz
x,y,z
-x,1/2-y,z
x,1/2-y,1/2-z
-x,y,1/2-z
-x,-y,-z
x,1/2+y,-z
-x,1/2+y,1/2+z
x,-y,1/2+z
1/2+x,1/2+y,z
1/2-x,-y,z
1/2+x,-y,1/2-z
1/2-x,1/2+y,1/2-z
1/2-x,1/2-y,-z
1/2+x,y,-z
1/2-x,y,1/2+z
1/2+x,1/2-y,1/2+z
loop_
_atom_site_type_symbol
_atom_site_label
_atom_site_fract_x
_atom_site_fract_y
_atom_site_fract_z
Si Si1 0.095750 0.492986 0.156983
Si Si2 0.734491 0.698609 0.351441
Si Si3 0.373773 0.337774 0.463021
Si Si4 0.954653 0.805398 0.069215
Si Si5 0.546879 0.356616 0.689682
Si Si6 0.330774 0.336089 0.155055
Si Si7 0.785272 0.592514 0.056676
O O1 0.105277 0.399619 0.067197
O O2 0.080519 0.447515 0.273654
O O3 0.139636 0.561689 0.161506
O O4 0.058902 0.580681 0.120511
O O5 0.709193 0.750000 0.250000
O O6 0.779795 0.634998 0.325671
O O7 0.758251 0.803984 0.401733
O O8 0.708101 0.621064 0.428554
O O9 0.416816 0.283709 0.408069
O O10 0.343186 0.227124 0.458696
O O11 0.336498 0.416348 0.408499
O O12 0.957198 0.831946 0.938378
O O13 0.000000 0.750000 0.103665
O O14 0.563200 0.250000 0.750000
O O15 0.500000 0.379686 0.750000
O O16 0.341351 0.250000 0.250000
O O17 0.750000 0.500000 0.072942
#
# Coordination Sequence:
#
# PCOD9506831 Si02
#       7
#    16  16  16  16  16  16  16
#     4  11  23  38  64  91 119 166 210 255 327 367
#     4   9  19  38  59  82 122 163 195 249 312 366
#     4  10  21  38  60  92 123 160 208 257 313 379
#     4  11  23  43  66  90 128 165 213 265 319 386
#     4  11  21  41  62  89 124 161 202 258 320 380
#     4   9  20  38  58  86 123 161 206 258 314 372
#     4  10  20  36  61  88 123 158 205 253 306 372
#
# _framework density 24.275566999999999
#
# number of rings (size 3 to 8) (size 9 to 14) (size 15 to 20)
#    0.000    1.857    2.857    0.857    2.000    4.000 
#    5.143    1.429    0.000    0.000    0.000    0.000 
#    0.000    0.000    0.000    0.000    0.000    0.000 
#
# Total GULP energy -311999.464970 kJ/mol
# GULP energy per Si atom -5571.419017 kJ/mol
# Density = 2.422031 g / cm^3
# Si number density = 24.275567 Si / 1000 Ang^3
#
#
#
# Elastic Constant Matrix: (Units=GPa)
#
#
# Indices 1 2 3 4 5 6 
#
# 1 116.4421 50.4044 13.5461 0.0000 0.0000 0.0000
# 2 50.4044 74.1679 22.0892 0.0000 0.0000 0.0000
# 3 13.5461 22.0892 46.1965 0.0000 0.0000 0.0000
# 4 0.0000 0.0000 0.0000 26.3374 0.0000 0.0000
# 5 0.0000 0.0000 0.0000 0.0000 23.9125 0.0000
# 6 0.0000 0.0000 0.0000 0.0000 0.0000 34.1551
#
#
#
# Elastic Compliance Matrix: (Units=1/GPa)
#
#
# Indices 1 2 3 4 5 6 
#
# 1 0.012175 -0.008408 0.000450 0.000000 0.000000 0.000000
# 2 -0.008408 0.021529 -0.007829 0.000000 0.000000 0.000000
# 3 0.000450 -0.007829 0.025258 0.000000 0.000000 0.000000
# 4 0.000000 0.000000 0.000000 0.037969 0.000000 0.000000
# 5 0.000000 0.000000 0.000000 0.000000 0.041819 0.000000
# 6 0.000000 0.000000 0.000000 0.000000 0.000000 0.029278
#
#
# Mechanical properties :
#
#
# Convention : Reuss Voigt Hill
#
# Bulk Modulus (GPa) = 36.51127 45.43177 40.97152
# Shear Modulus (GPa) = 23.95424 26.93210 25.44317
#
# Velocity S-wave (km/s) = 3.14469 3.33443 3.24095
# Velocity P-wave (km/s) = 5.31586 5.79484 5.56051
#
# Compressibility (1/GPa) = 0.02738880
#
# Stress axis : x y z
#
# Youngs Moduli (GPa) = 82.13318 46.44920 39.59158
#
# Poissons Ratio (x) = 0.39057 -0.01783
# Poissons Ratio (y) = 0.69062 0.30995
# Poissons Ratio (z) = -0.03700 0.36363
#
# Static dielectric constant tensor:
#      x y z
#    x 2.005210 0.000000 0.000000 
#    y 0.000000 1.955240 0.000000 
#    z 0.000000 0.000000 2.156310 
# 
# From -- ./inp_files/26437.got.cif
#   From: 2010.05.17/outbox.cif.g08.bks.cpg/sg68_14_cif.got.tgz:26437.got - 2010.06.03 18:57:09.
