data_PCOD9506536
_publ_section_title
;
Structure prediction by ZEFSAII (Michael W. Deem and Ramdas Pophale) SiO2 
 PCOD9506536
Probable space group: C C C A
;
_chemical_formula_sum "Si O2"
_cell_formula_units_Z 112
_cell_length_a 24.366702
_cell_length_b 14.866316
_cell_length_c 17.068191
_cell_angle_alpha 90.000000
_cell_angle_beta 90.000000
_cell_angle_gamma 90.000000
_cell_volume 6182.834279
_symmetry_space_group_name_H-M "C C C A"
_symmetry_group_IT_number 68
_space_group.IT_coordinate_system_code '2'
_symmetry_cell_setting 'orthorhombic'
loop_
_space_group_symop_operation_xyz
x,y,z
-x,1/2-y,z
x,1/2-y,1/2-z
-x,y,1/2-z
-x,-y,-z
x,1/2+y,-z
-x,1/2+y,1/2+z
x,-y,1/2+z
1/2+x,1/2+y,z
1/2-x,-y,z
1/2+x,-y,1/2-z
1/2-x,1/2+y,1/2-z
1/2-x,1/2-y,-z
1/2+x,y,-z
1/2-x,y,1/2+z
1/2+x,1/2-y,1/2+z
loop_
_atom_site_type_symbol
_atom_site_label
_atom_site_fract_x
_atom_site_fract_y
_atom_site_fract_z
Si Si1 0.311390 0.241019 0.964556
Si Si2 0.222875 0.349884 0.725052
Si Si3 0.851817 0.030270 0.828581
Si Si4 0.642651 0.631154 0.910135
Si Si5 0.812950 0.036143 0.006431
Si Si6 0.339438 0.670934 0.297529
Si Si7 0.562902 0.856330 0.737242
O O1 0.320181 0.134629 0.957048
O O2 0.318098 0.291865 0.881551
O O3 0.250000 0.250000 0.000000
O O4 0.352998 0.288675 0.026388
O O5 0.202517 0.250000 0.750000
O O6 0.196770 0.429745 0.775031
O O7 0.199321 0.361403 0.639146
O O8 0.286885 0.348679 0.742165
O O9 0.901990 0.092332 0.802702
O O10 0.865450 0.926201 0.811821
O O11 0.830777 0.041930 0.916209
O O12 0.647862 0.536808 0.953764
O O13 0.593292 0.629841 0.846988
O O14 0.750000 0.000000 0.010333
O O15 0.370512 0.750000 0.250000
O O16 0.565447 0.750000 0.750000
O O17 0.500000 0.884424 0.750000
#
# Coordination Sequence:
#
# PCOD9506536 Si02
#       7
#    16  16  16  16  16  16  16
#     4  12  21  36  52  81 131 165 201 237 285 366
#     4  10  20  33  54  79 116 159 205 241 285 348
#     4  11  20  38  58  83 119 155 195 248 306 358
#     4  11  22  37  58  89 116 161 203 247 303 357
#     4  12  23  33  56  89 129 167 194 233 294 367
#     4  11  23  33  50  83 123 170 199 231 288 370
#     4  10  23  44  70  90 107 143 206 273 317 351
#
# _framework density 18.11467
#
# number of rings (size 3 to 8) (size 9 to 14) (size 15 to 20)
#    0.000    1.000    2.857    7.286    4.000    0.000 
#    0.000    0.714    0.000    0.429    0.000    0.000 
#    0.000    0.000    0.000    0.000    0.000    0.000 
#
# Total GULP energy -312517.317274 kJ/mol
# GULP energy per Si atom -5580.666380 kJ/mol
# Density = 1.807344 g / cm^3
# Si number density = 18.114670 Si / 1000 Ang^3
#
#
#
# Elastic Constant Matrix: (Units=GPa)
#
#
# Indices 1 2 3 4 5 6 
#
# 1 71.2177 14.4623 18.8025 0.0000 0.0000 0.0000
# 2 14.4623 123.4889 22.8357 0.0000 0.0000 0.0000
# 3 18.8025 22.8357 90.6626 0.0000 0.0000 0.0000
# 4 0.0000 0.0000 0.0000 40.3613 0.0000 0.0000
# 5 0.0000 0.0000 0.0000 0.0000 10.4615 0.0000
# 6 0.0000 0.0000 0.0000 0.0000 0.0000 -96.4469
#
#
#
# Elastic Compliance Matrix: (Units=1/GPa)
#
#
# Indices 1 2 3 4 5 6 
#
# 1 0.015034 -0.001242 -0.002805 0.000000 0.000000 0.000000
# 2 -0.001242 0.008596 -0.001908 0.000000 0.000000 0.000000
# 3 -0.002805 -0.001908 0.012092 0.000000 0.000000 0.000000
# 4 0.000000 0.000000 0.000000 0.024776 0.000000 0.000000
# 5 0.000000 0.000000 0.000000 0.000000 0.095588 0.000000
# 6 0.000000 0.000000 0.000000 0.000000 0.000000 -0.010368
#
#
# Mechanical properties :
#
#
# Convention : Reuss Voigt Hill
#
# Bulk Modulus (GPa) = 41.99369 44.17448 43.08408
# Shear Modulus (GPa) = 30.19949 6.15976 18.17963
#
# Velocity S-wave (km/s) = 4.08748 1.84602 3.17138
# Velocity P-wave (km/s) = 6.74604 5.38356 6.10294
#
# Compressibility (1/GPa) = 0.02381310
#
# Stress axis : x y z
#
# Youngs Moduli (GPa) = 66.51469 116.33180 82.69836
#
# Poissons Ratio (x) = 0.14448 0.23198
# Poissons Ratio (y) = 0.08261 0.15775
# Poissons Ratio (z) = 0.18658 0.22191
#
# Static dielectric constant tensor:
#      x y z
#    x 1.630270 0.000000 0.000000 
#    y 0.000000 1.676910 0.000000 
#    z 0.000000 0.000000 1.656040 
# 
# From -- ./inp_files/26070.got.cif
#   From: 2010.05.17/outbox.cif.g08.bks.cpg/sg68_14_cif.got.tgz:26070.got - 2010.06.03 18:57:09.
