data_PCOD9506168
_publ_section_title
;
Structure prediction by ZEFSAII (Michael W. Deem and Ramdas Pophale) SiO2 
 PCOD9506168
Probable space group: C C C A
;
_chemical_formula_sum "Si O2"
_cell_formula_units_Z 92
_cell_length_a 13.195315
_cell_length_b 18.105869
_cell_length_c 19.350351
_cell_angle_alpha 90.000000
_cell_angle_beta 90.000000
_cell_angle_gamma 90.000000
_cell_volume 4623.043535
_symmetry_space_group_name_H-M "C C C A"
_symmetry_group_IT_number 68
_space_group.IT_coordinate_system_code '2'
_symmetry_cell_setting 'orthorhombic'
loop_
_space_group_symop_operation_xyz
x,y,z
-x,1/2-y,z
x,1/2-y,1/2-z
-x,y,1/2-z
-x,-y,-z
x,1/2+y,-z
-x,1/2+y,1/2+z
x,-y,1/2+z
1/2+x,1/2+y,z
1/2-x,-y,z
1/2+x,-y,1/2-z
1/2-x,1/2+y,1/2-z
1/2-x,1/2-y,-z
1/2+x,y,-z
1/2-x,y,1/2+z
1/2+x,1/2-y,1/2+z
loop_
_atom_site_type_symbol
_atom_site_label
_atom_site_fract_x
_atom_site_fract_y
_atom_site_fract_z
Si Si1 0.766356 0.814987 0.382398
Si Si2 0.773781 0.577810 0.743779
Si Si3 0.039581 0.167457 0.098381
Si Si4 0.976553 0.339013 0.544629
Si Si5 0.000000 0.102410 0.250000
Si Si6 0.145205 0.658378 0.148746
Si Si7 0.000000 0.750000 0.250000
O O1 0.751732 0.854588 0.307997
O O2 0.659518 0.831673 0.418665
O O3 0.866991 0.845801 0.419601
O O4 0.783046 0.726575 0.375581
O O5 0.750000 0.500000 0.708469
O O6 0.891130 0.567201 0.762410
O O7 0.709585 0.596880 0.811858
O O8 0.000000 0.250000 0.100176
O O9 0.021001 0.140974 0.176170
O O10 0.982063 0.131476 0.033491
O O11 0.000000 0.250000 0.543886
O O12 0.069498 0.370281 0.589699
O O13 0.069574 0.698760 0.202642
#
# Coordination Sequence:
#
# PCOD9506168 Si02
#       7
#    16  16  16  16   8  16   4
#     4  10  19  35  55  80 116 148 187 243 294 342
#     4  11  23  37  59  84 116 155 196 245 292 347
#     4  10  20  33  54  82 115 149 186 236 294 358
#     4   9  19  32  54  88 113 145 193 243 295 341
#     4  10  23  39  52  80 114 154 198 226 300 365
#     4  11  18  33  57  86 115 146 193 242 293 348
#     4  12  16  30  60  90 110 146 198 240 288 340
#
# _framework density 19.900309
#
# number of rings (size 3 to 8) (size 9 to 14) (size 15 to 20)
#    0.000    1.739    4.348    1.304    0.000   12.522 
#    0.000    0.000    0.000   14.609    0.000    0.000 
#    0.000    0.000    0.000    0.000    0.000    0.000 
#
# Total GULP energy -256158.126360 kJ/mol
# GULP energy per Si atom -5568.654921 kJ/mol
# Density = 1.985501 g / cm^3
# Si number density = 19.900309 Si / 1000 Ang^3
#
#
#
# Elastic Constant Matrix: (Units=GPa)
#
#
# Indices 1 2 3 4 5 6 
#
# 1 130.2149 11.3413 32.9908 0.0000 0.0000 0.0000
# 2 11.3413 18.4943 -1.7332 0.0000 0.0000 0.0000
# 3 32.9908 -1.7332 86.6103 0.0000 0.0000 0.0000
# 4 0.0000 0.0000 0.0000 -11.4900 0.0000 0.0000
# 5 0.0000 0.0000 0.0000 0.0000 27.2638 0.0000
# 6 0.0000 0.0000 0.0000 0.0000 0.0000 0.1634
#
#
#
# Elastic Compliance Matrix: (Units=1/GPa)
#
#
# Indices 1 2 3 4 5 6 
#
# 1 0.009104 -0.005919 -0.003586 0.000000 0.000000 0.000000
# 2 -0.005919 0.058020 0.003416 0.000000 0.000000 0.000000
# 3 -0.003586 0.003416 0.012980 0.000000 0.000000 0.000000
# 4 0.000000 0.000000 0.000000 -0.087032 0.000000 0.000000
# 5 0.000000 0.000000 0.000000 0.000000 0.036679 0.000000
# 6 0.000000 0.000000 0.000000 0.000000 0.000000 6.120024
#
#
# Mechanical properties :
#
#
# Convention : Reuss Voigt Hill
#
# Bulk Modulus (GPa) = 14.72193 35.61304 25.16749
# Shear Modulus (GPa) = 0.80846 16.03549 8.42197
#
# Velocity S-wave (km/s) = 0.63807 2.84172 2.05943
# Velocity P-wave (km/s) = 2.82077 5.35740 4.28127
#
# Compressibility (1/GPa) = 0.06792588
#
# Stress axis : x y z
#
# Youngs Moduli (GPa) = 109.84553 17.23529 77.03969
#
# Poissons Ratio (x) = 0.10201 0.27628
# Poissons Ratio (y) = 0.65015 -0.26314
# Poissons Ratio (z) = 0.39392 -0.05887
#
# Static dielectric constant tensor:
#      x y z
#    x 1.739400 0.000000 0.000000 
#    y 0.000000 1.681230 0.000000 
#    z 0.000000 0.000000 1.777540 
# 
# From -- ./inp_files/37502.got.cif
#   From: 2010.05.17/outbox.cif.g08.bks.cpg/sg68_19_cif.got.tgz:37502.got - 2010.06.03 18:57:09.
