data_PCOD9506374
_publ_section_title
;
Structure prediction by ZEFSAII (Michael W. Deem and Ramdas Pophale) SiO2 
 PCOD9506374
Probable space group: C C C A
;
_chemical_formula_sum "Si O2"
_cell_formula_units_Z 104
_cell_length_a 8.519526
_cell_length_b 20.399140
_cell_length_c 28.302561
_cell_angle_alpha 90.000000
_cell_angle_beta 90.000000
_cell_angle_gamma 90.000000
_cell_volume 4918.730481
_symmetry_space_group_name_H-M "C C C A"
_symmetry_group_IT_number 68
_space_group.IT_coordinate_system_code '2'
_symmetry_cell_setting 'orthorhombic'
loop_
_space_group_symop_operation_xyz
x,y,z
-x,1/2-y,z
x,1/2-y,1/2-z
-x,y,1/2-z
-x,-y,-z
x,1/2+y,-z
-x,1/2+y,1/2+z
x,-y,1/2+z
1/2+x,1/2+y,z
1/2-x,-y,z
1/2+x,-y,1/2-z
1/2-x,1/2+y,1/2-z
1/2-x,1/2-y,-z
1/2+x,y,-z
1/2-x,y,1/2+z
1/2+x,1/2-y,1/2+z
loop_
_atom_site_type_symbol
_atom_site_label
_atom_site_fract_x
_atom_site_fract_y
_atom_site_fract_z
Si Si1 0.879696 0.615757 0.513378
Si Si2 0.185891 0.072523 0.736378
Si Si3 0.246067 0.921163 0.837685
Si Si4 0.830418 0.776608 0.436490
Si Si5 0.900105 0.387387 0.638427
Si Si6 0.309557 0.137677 0.930926
Si Si7 0.750000 0.000000 0.423473
O O1 0.775619 0.678361 0.529568
O O2 0.843149 0.607162 0.457856
O O3 0.834580 0.550856 0.541844
O O4 0.053861 0.629195 0.530842
O O5 0.279222 0.097157 0.782805
O O6 0.191974 0.112991 0.688180
O O7 0.000000 0.067540 0.750000
O O8 0.250000 0.000000 0.726023
O O9 0.416571 0.892518 0.850249
O O10 0.143634 0.895952 0.881550
O O11 0.250000 0.000000 0.838435
O O12 0.865847 0.823820 0.392512
O O13 0.731180 0.713105 0.422432
O O14 0.000000 0.750000 0.454739
O O15 0.852882 0.452919 0.609877
#
# Coordination Sequence:
#
# PCOD9506374 Si02
#       7
#    16  16  16  16  16  16   8
#     4  11  26  40  65  92 124 168 214 260 320 377
#     4   9  18  35  61  94 126 163 202 247 316 379
#     4  10  21  36  61  91 130 161 202 255 318 370
#     4  11  22  42  64  87 123 170 214 260 305 370
#     4  10  19  38  64  92 125 161 206 259 307 380
#     4  12  24  42  61  89 128 168 215 264 310 382
#     4  10  22  38  62  94 128 160 204 258 324 366
#
# _framework density 21.143667000000001
#
# number of rings (size 3 to 8) (size 9 to 14) (size 15 to 20)
#    0.000    1.538    2.308    2.769    3.231    0.615 
#    0.000    0.769    0.000    0.000    0.000    4.308 
#    0.000    0.000    0.000    0.000    0.000    0.000 
#
# Total GULP energy -290461.167199 kJ/mol
# GULP energy per Si atom -5585.791677 kJ/mol
# Density = 2.109554 g / cm^3
# Si number density = 21.143667 Si / 1000 Ang^3
#
#
#
# Elastic Constant Matrix: (Units=GPa)
#
#
# Indices 1 2 3 4 5 6 
#
# 1 37.3006 12.8475 14.5270 0.0000 0.0000 0.0000
# 2 12.8475 76.3505 25.5265 0.0000 0.0000 0.0000
# 3 14.5270 25.5265 132.4787 0.0000 0.0000 0.0000
# 4 0.0000 0.0000 0.0000 23.9516 0.0000 0.0000
# 5 0.0000 0.0000 0.0000 0.0000 19.0314 0.0000
# 6 0.0000 0.0000 0.0000 0.0000 0.0000 19.2524
#
#
#
# Elastic Compliance Matrix: (Units=1/GPa)
#
#
# Indices 1 2 3 4 5 6 
#
# 1 0.029160 -0.004102 -0.002407 0.000000 0.000000 0.000000
# 2 -0.004102 0.014576 -0.002359 0.000000 0.000000 0.000000
# 3 -0.002407 -0.002359 0.008267 0.000000 0.000000 0.000000
# 4 0.000000 0.000000 0.000000 0.041751 0.000000 0.000000
# 5 0.000000 0.000000 0.000000 0.000000 0.052545 0.000000
# 6 0.000000 0.000000 0.000000 0.000000 0.000000 0.051942
#
#
# Mechanical properties :
#
#
# Convention : Reuss Voigt Hill
#
# Bulk Modulus (GPa) = 29.18256 39.10353 34.14305
# Shear Modulus (GPa) = 21.98788 25.32899 23.65843
#
# Velocity S-wave (km/s) = 3.22829 3.46489 3.34868
# Velocity P-wave (km/s) = 5.26572 5.87722 5.57985
#
# Compressibility (1/GPa) = 0.03426704
#
# Stress axis : x y z
#
# Youngs Moduli (GPa) = 34.29410 68.60433 120.96510
#
# Poissons Ratio (x) = 0.28141 0.29118
# Poissons Ratio (y) = 0.14067 0.28534
# Poissons Ratio (z) = 0.08255 0.16183
#
# Static dielectric constant tensor:
#      x y z
#    x 1.851100 0.000000 0.000000 
#    y 0.000000 1.720790 0.000000 
#    z 0.000000 0.000000 1.828450 
# 
# From -- ./inp_files/49442.got.cif
#   From: 2010.05.17/outbox.cif.g08.bks.cpg/sg68_25_cif.got.tgz:49442.got - 2010.06.03 18:57:09.
