data_PCOD9506733
_publ_section_title
;
Structure prediction by ZEFSAII (Michael W. Deem and Ramdas Pophale) SiO2 
 PCOD9506733
Probable space group: C C C A
;
_chemical_formula_sum "Si O2"
_cell_formula_units_Z 100
_cell_length_a 18.849435
_cell_length_b 9.156187
_cell_length_c 31.684417
_cell_angle_alpha 90.000000
_cell_angle_beta 90.000000
_cell_angle_gamma 90.000000
_cell_volume 5468.380315
_symmetry_space_group_name_H-M "C C C A"
_symmetry_group_IT_number 68
_space_group.IT_coordinate_system_code '2'
_symmetry_cell_setting 'orthorhombic'
loop_
_space_group_symop_operation_xyz
x,y,z
-x,1/2-y,z
x,1/2-y,1/2-z
-x,y,1/2-z
-x,-y,-z
x,1/2+y,-z
-x,1/2+y,1/2+z
x,-y,1/2+z
1/2+x,1/2+y,z
1/2-x,-y,z
1/2+x,-y,1/2-z
1/2-x,1/2+y,1/2-z
1/2-x,1/2-y,-z
1/2+x,y,-z
1/2-x,y,1/2+z
1/2+x,1/2-y,1/2+z
loop_
_atom_site_type_symbol
_atom_site_label
_atom_site_fract_x
_atom_site_fract_y
_atom_site_fract_z
Si Si1 0.551647 0.020769 0.443639
Si Si2 0.364086 0.250000 0.250000
Si Si3 0.177875 0.566198 0.376832
Si Si4 0.580232 0.515945 0.196274
Si Si5 0.000000 0.750000 0.750000
Si Si6 0.000000 0.250000 0.009864
Si Si7 0.466539 0.913342 0.867633
Si Si8 0.689608 0.621452 0.835071
O O1 0.616248 0.055839 0.411915
O O2 0.545384 0.141214 0.480215
O O3 0.480620 0.036259 0.415116
O O4 0.549088 0.858529 0.462721
O O5 0.409967 0.372028 0.274604
O O6 0.318668 0.331783 0.214018
O O7 0.250000 0.500000 0.393537
O O8 0.148815 0.482904 0.334589
O O9 0.196866 0.729220 0.361604
O O10 0.554997 0.649643 0.224133
O O11 0.515858 0.500446 0.163951
O O12 0.500000 0.750000 0.865190
O O13 0.387391 0.929970 0.851327
O O14 0.750000 0.500000 0.840567
#
# Coordination Sequence:
#
# PCOD9506733 Si02
#       8
#    16   8  16  16   4   8  16  16
#     4  10  20  38  63  93 117 153 193 241 297 361
#     4  10  20  39  57  76 113 165 200 254 314 367
#     4  10  22  40  58  78 118 160 196 239 297 363
#     4  10  23  36  57  81 110 157 205 253 305 350
#     4  12  24  32  54  92 122 142 208 286 304 348
#     4  10  20  35  64  96 122 138 188 252 298 357
#     4  11  18  39  66  82 111 157 210 241 289 377
#     4  11  23  36  58  87 112 156 206 254 302 358
#
# _framework density 18.286950000000001
#
# number of rings (size 3 to 8) (size 9 to 14) (size 15 to 20)
#    0.000    1.600    5.600    0.960    0.000    9.600 
#    0.000    2.400    0.000    3.840    0.000    0.000 
#    0.000    0.000    0.000    0.000    0.000    0.000 
#
# Total GULP energy -278714.865475 kJ/mol
# GULP energy per Si atom -5574.297309 kJ/mol
# Density = 1.824533 g / cm^3
# Si number density = 18.286950 Si / 1000 Ang^3
#
#
#
# Elastic Constant Matrix: (Units=GPa)
#
#
# Indices 1 2 3 4 5 6 
#
# 1 105.6371 35.3296 27.0652 0.0000 0.0000 0.0000
# 2 35.3296 92.5657 40.2825 0.0000 0.0000 0.0000
# 3 27.0652 40.2825 82.8627 0.0000 0.0000 0.0000
# 4 0.0000 0.0000 0.0000 32.8888 0.0000 0.0000
# 5 0.0000 0.0000 0.0000 0.0000 3.1794 0.0000
# 6 0.0000 0.0000 0.0000 0.0000 0.0000 -19.7742
#
#
#
# Elastic Compliance Matrix: (Units=1/GPa)
#
#
# Indices 1 2 3 4 5 6 
#
# 1 0.011104 -0.003373 -0.001987 0.000000 0.000000 0.000000
# 2 -0.003373 0.014727 -0.006057 0.000000 0.000000 0.000000
# 3 -0.001987 -0.006057 0.015662 0.000000 0.000000 0.000000
# 4 0.000000 0.000000 0.000000 0.030405 0.000000 0.000000
# 5 0.000000 0.000000 0.000000 0.000000 0.314527 0.000000
# 6 0.000000 0.000000 0.000000 0.000000 0.000000 -0.050571
#
#
# Mechanical properties :
#
#
# Convention : Reuss Voigt Hill
#
# Bulk Modulus (GPa) = 53.59896 54.04668 53.82282
# Shear Modulus (GPa) = 13.70208 15.15134 14.42671
#
# Velocity S-wave (km/s) = 2.74027 2.88155 2.81180
# Velocity P-wave (km/s) = 6.27580 6.37887 6.32755
#
# Compressibility (1/GPa) = 0.01865708
#
# Stress axis : x y z
#
# Youngs Moduli (GPa) = 90.06091 67.90413 63.84953
#
# Poissons Ratio (x) = 0.22906 0.12686
# Poissons Ratio (y) = 0.30380 0.38676
# Poissons Ratio (z) = 0.17894 0.41132
#
# Static dielectric constant tensor:
#      x y z
#    x 1.655450 0.000000 0.000000 
#    y 0.000000 1.643910 0.000000 
#    z 0.000000 0.000000 1.656890 
# 
# From -- ./inp_files/55822.got.cif
#   From: 2010.05.17/outbox.cif.g08.bks.cpg/sg68_28_cif.got.tgz:55822.got - 2010.06.03 18:57:09.
