data_PCOD9506995
_publ_section_title
;
Structure prediction by ZEFSAII (Michael W. Deem and Ramdas Pophale) SiO2 
 PCOD9506995
Probable space group: C C C A
;
_chemical_formula_sum "Si O2"
_cell_formula_units_Z 116
_cell_length_a 8.320271
_cell_length_b 20.570028
_cell_length_c 31.284581
_cell_angle_alpha 90.000000
_cell_angle_beta 90.000000
_cell_angle_gamma 90.000000
_cell_volume 5354.299959
_symmetry_space_group_name_H-M "C C C A"
_symmetry_group_IT_number 68
_space_group.IT_coordinate_system_code '2'
_symmetry_cell_setting 'orthorhombic'
loop_
_space_group_symop_operation_xyz
x,y,z
-x,1/2-y,z
x,1/2-y,1/2-z
-x,y,1/2-z
-x,-y,-z
x,1/2+y,-z
-x,1/2+y,1/2+z
x,-y,1/2+z
1/2+x,1/2+y,z
1/2-x,-y,z
1/2+x,-y,1/2-z
1/2-x,1/2+y,1/2-z
1/2-x,1/2-y,-z
1/2+x,y,-z
1/2-x,y,1/2+z
1/2+x,1/2-y,1/2+z
loop_
_atom_site_type_symbol
_atom_site_label
_atom_site_fract_x
_atom_site_fract_y
_atom_site_fract_z
Si Si1 0.366265 0.680243 0.043533
Si Si2 0.341725 0.817169 0.827885
Si Si3 0.362619 0.797968 0.550007
Si Si4 0.139082 0.935014 0.480702
Si Si5 0.000000 0.750000 0.250000
Si Si6 0.421803 0.020632 0.572353
Si Si7 0.531447 0.125288 0.631629
Si Si8 0.186398 0.830172 0.139029
O O1 0.292327 0.752618 0.043103
O O2 0.229498 0.624752 0.040623
O O3 0.449676 0.670072 0.088913
O O4 0.428890 0.674669 0.994581
O O5 0.385417 0.793992 0.779927
O O6 0.185225 0.859845 0.838736
O O7 0.309860 0.747761 0.851813
O O8 0.510811 0.849173 0.843011
O O9 0.500000 0.750000 0.566504
O O10 0.321631 0.844303 0.588632
O O11 0.096787 0.930396 0.531154
O O12 0.250000 0.000000 0.479680
O O13 0.996103 0.958159 0.450699
O O14 0.523242 0.054311 0.609529
O O15 0.250000 0.000000 0.589516
O O16 0.358245 0.140723 0.653088
#
# Coordination Sequence:
#
# PCOD9506995 Si02
#       8
#    16  16  16  16   4  16  16  16
#     4  11  24  31  51  78 112 166 226 266 310 362
#     4  10  21  41  63  91 128 169 197 246 323 401
#     4  11  22  33  46  76 120 160 219 265 306 362
#     4  10  20  40  53  70 107 168 239 296 322 351
#     4   8  20  44  70  96 136 174 188 248 326 428
#     4  10  23  37  53  78 111 165 238 290 323 356
#     4  12  22  37  61  85 118 173 217 264 322 374
#     4  10  20  38  53  85 125 161 204 258 304 365
#
# _framework density 21.664831
#
# number of rings (size 3 to 8) (size 9 to 14) (size 15 to 20)
#    0.000    1.655    4.138    1.241    5.793    2.207 
#    0.000    5.517    0.000    0.000    0.000    0.000 
#    0.000    0.000  187.586    0.000    3.310    0.000 
#
# Total GULP energy -323734.958093 kJ/mol
# GULP energy per Si atom -5581.637208 kJ/mol
# Density = 2.161552 g / cm^3
# Si number density = 21.664831 Si / 1000 Ang^3
#
#
#
# Elastic Constant Matrix: (Units=GPa)
#
#
# Indices 1 2 3 4 5 6 
#
# 1 147.8438 24.7790 49.5745 0.0000 0.0000 0.0000
# 2 24.7790 55.9194 27.7296 0.0000 0.0000 0.0000
# 3 49.5745 27.7296 100.7059 0.0000 0.0000 0.0000
# 4 0.0000 0.0000 0.0000 22.1582 0.0000 0.0000
# 5 0.0000 0.0000 0.0000 0.0000 21.6704 0.0000
# 6 0.0000 0.0000 0.0000 0.0000 0.0000 36.2940
#
#
#
# Elastic Compliance Matrix: (Units=1/GPa)
#
#
# Indices 1 2 3 4 5 6 
#
# 1 0.008273 -0.001907 -0.003548 0.000000 0.000000 0.000000
# 2 -0.001907 0.021150 -0.004885 0.000000 0.000000 0.000000
# 3 -0.003548 -0.004885 0.013021 0.000000 0.000000 0.000000
# 4 0.000000 0.000000 0.000000 0.045130 0.000000 0.000000
# 5 0.000000 0.000000 0.000000 0.000000 0.046146 0.000000
# 6 0.000000 0.000000 0.000000 0.000000 0.000000 0.027553
#
#
# Mechanical properties :
#
#
# Convention : Reuss Voigt Hill
#
# Bulk Modulus (GPa) = 45.94358 56.51502 51.22930
# Shear Modulus (GPa) = 26.42599 29.51690 27.97145
#
# Velocity S-wave (km/s) = 3.49630 3.69512 3.59709
# Velocity P-wave (km/s) = 6.12792 6.65942 6.39919
#
# Compressibility (1/GPa) = 0.02176583
#
# Stress axis : x y z
#
# Youngs Moduli (GPa) = 120.87489 47.28068 76.79686
#
# Poissons Ratio (x) = 0.09015 0.27244
# Poissons Ratio (y) = 0.23048 0.37516
# Poissons Ratio (z) = 0.42881 0.23097
#
# Static dielectric constant tensor:
#      x y z
#    x 1.969690 0.000000 0.000000 
#    y 0.000000 1.876450 0.000000 
#    z 0.000000 0.000000 1.769400 
# 
# From -- ./inp_files/54208.got.cif
#   From: 2010.05.17/outbox.cif.g08.bks.cpg/sg68_28_cif.got.tgz:54208.got - 2010.06.03 18:57:09.
