data_PCOD9506242
_publ_section_title
;
Structure prediction by ZEFSAII (Michael W. Deem and Ramdas Pophale) SiO2 
 PCOD9506242
Probable space group: C C C A
;
_chemical_formula_sum "Si O2"
_cell_formula_units_Z 84
_cell_length_a 9.100465
_cell_length_b 20.051374
_cell_length_c 25.683105
_cell_angle_alpha 90.000000
_cell_angle_beta 90.000000
_cell_angle_gamma 90.000000
_cell_volume 4686.571515
_symmetry_space_group_name_H-M "C C C A"
_symmetry_group_IT_number 68
_space_group.IT_coordinate_system_code '2'
_symmetry_cell_setting 'orthorhombic'
loop_
_space_group_symop_operation_xyz
x,y,z
-x,1/2-y,z
x,1/2-y,1/2-z
-x,y,1/2-z
-x,-y,-z
x,1/2+y,-z
-x,1/2+y,1/2+z
x,-y,1/2+z
1/2+x,1/2+y,z
1/2-x,-y,z
1/2+x,-y,1/2-z
1/2-x,1/2+y,1/2-z
1/2-x,1/2-y,-z
1/2+x,y,-z
1/2-x,y,1/2+z
1/2+x,1/2-y,1/2+z
loop_
_atom_site_type_symbol
_atom_site_label
_atom_site_fract_x
_atom_site_fract_y
_atom_site_fract_z
Si Si1 0.000000 0.250000 0.750000
Si Si2 0.342305 0.664395 0.958331
Si Si3 0.875691 0.136487 0.673505
Si Si4 0.314511 0.183183 0.440971
Si Si5 0.811445 0.075537 0.858240
Si Si6 0.827559 0.071223 0.256811
O O1 0.078840 0.300545 0.709492
O O2 0.517613 0.671724 0.958536
O O3 0.281878 0.737826 0.943385
O O4 0.299533 0.613692 0.912821
O O5 0.285922 0.647982 0.015973
O O6 0.811925 0.158630 0.618039
O O7 0.750881 0.101652 0.707049
O O8 0.019596 0.089343 0.661944
O O9 0.714512 0.106656 0.811266
O O10 0.750000 0.000000 0.866113
O O11 0.000000 0.065729 0.250000
O O12 0.750000 0.000000 0.262507
#
# Coordination Sequence:
#
# PCOD9506242 Si02
#       6
#     4  16  16  16  16  16
#     4  12  20  36  66  80 116 156 198 238 294 356
#     4   9  18  35  54  79 107 153 188 237 285 343
#     4  11  21  37  60  88 111 157 197 240 293 357
#     4   9  19  34  58  79 113 145 199 235 289 345
#     4  10  19  36  58  81 111 151 197 237 289 352
#     4  11  22  37  57  84 116 152 192 240 295 352
#
# _framework density 17.923551
#
# number of rings (size 3 to 8) (size 9 to 14) (size 15 to 20)
#    0.000    1.905    1.905    4.571    0.000    1.524 
#    0.000    5.238    0.000    0.000    0.000    0.000 
#    0.000    0.000    0.000    0.000    0.000    0.000 
#
# Total GULP energy -233897.849554 kJ/mol
# GULP energy per Si atom -5568.996418 kJ/mol
# Density = 1.788276 g / cm^3
# Si number density = 17.923551 Si / 1000 Ang^3
#
#
#
# Elastic Constant Matrix: (Units=GPa)
#
#
# Indices 1 2 3 4 5 6 
#
# 1 81.5261 48.8321 67.3798 0.0000 0.0000 0.0000
# 2 48.8321 71.7270 61.4967 0.0000 0.0000 0.0000
# 3 67.3798 61.4967 191.0093 0.0000 0.0000 0.0000
# 4 0.0000 0.0000 0.0000 89.8724 0.0000 0.0000
# 5 0.0000 0.0000 0.0000 0.0000 26.4385 0.0000
# 6 0.0000 0.0000 0.0000 0.0000 0.0000 18.0187
#
#
#
# Elastic Compliance Matrix: (Units=1/GPa)
#
#
# Indices 1 2 3 4 5 6 
#
# 1 0.022949 -0.011994 -0.004234 0.000000 0.000000 0.000000
# 2 -0.011994 0.025526 -0.003987 0.000000 0.000000 0.000000
# 3 -0.004234 -0.003987 0.008013 0.000000 0.000000 0.000000
# 4 0.000000 0.000000 0.000000 0.011127 0.000000 0.000000
# 5 0.000000 0.000000 0.000000 0.000000 0.037824 0.000000
# 6 0.000000 0.000000 0.000000 0.000000 0.000000 0.055498
#
#
# Mechanical properties :
#
#
# Convention : Reuss Voigt Hill
#
# Bulk Modulus (GPa) = 62.27640 77.74219 70.00930
# Shear Modulus (GPa) = 24.18736 37.96950 31.07843
#
# Velocity S-wave (km/s) = 3.67750 4.60762 4.16858
# Velocity P-wave (km/s) = 7.27001 8.47203 7.89393
#
# Compressibility (1/GPa) = 0.01605745
#
# Stress axis : x y z
#
# Youngs Moduli (GPa) = 43.57399 39.17587 124.80240
#
# Poissons Ratio (x) = 0.46987 0.52842
# Poissons Ratio (y) = 0.52263 0.49762
# Poissons Ratio (z) = 0.18449 0.15621
#
# Static dielectric constant tensor:
#      x y z
#    x 1.607220 0.000000 0.000000 
#    y 0.000000 1.664950 0.000000 
#    z 0.000000 0.000000 1.649300 
# 
# From -- ./inp_files/43069.got.cif
#   From: 2010.05.17/outbox.cif.g08.bks.cpg/sg68_22_cif.got.tgz:43069.got - 2010.06.03 18:57:09.
