data_PCOD9506624
_publ_section_title
;
Structure prediction by ZEFSAII (Michael W. Deem and Ramdas Pophale) SiO2 
 PCOD9506624
Probable space group: C C C A
;
_chemical_formula_sum "Si O2"
_cell_formula_units_Z 92
_cell_length_a 11.003505
_cell_length_b 18.654295
_cell_length_c 23.036727
_cell_angle_alpha 90.000000
_cell_angle_beta 90.000000
_cell_angle_gamma 90.000000
_cell_volume 4728.579132
_symmetry_space_group_name_H-M "C C C A"
_symmetry_group_IT_number 68
_space_group.IT_coordinate_system_code '2'
_symmetry_cell_setting 'orthorhombic'
loop_
_space_group_symop_operation_xyz
x,y,z
-x,1/2-y,z
x,1/2-y,1/2-z
-x,y,1/2-z
-x,-y,-z
x,1/2+y,-z
-x,1/2+y,1/2+z
x,-y,1/2+z
1/2+x,1/2+y,z
1/2-x,-y,z
1/2+x,-y,1/2-z
1/2-x,1/2+y,1/2-z
1/2-x,1/2-y,-z
1/2+x,y,-z
1/2-x,y,1/2+z
1/2+x,1/2-y,1/2+z
loop_
_atom_site_type_symbol
_atom_site_label
_atom_site_fract_x
_atom_site_fract_y
_atom_site_fract_z
Si Si1 0.342454 0.386989 0.261520
Si Si2 0.125335 0.544006 0.071515
Si Si3 0.000000 0.981591 0.750000
Si Si4 0.449184 0.828089 0.844716
Si Si5 0.599977 0.627431 0.173374
Si Si6 0.872279 0.545002 0.565315
Si Si7 0.500000 0.250000 0.750000
O O1 0.390173 0.463601 0.240943
O O2 0.351125 0.330364 0.208470
O O3 0.435394 0.362195 0.311578
O O4 0.217178 0.397804 0.292107
O O5 0.250000 0.500000 0.087857
O O6 0.102288 0.617296 0.107380
O O7 0.998267 0.498978 0.075267
O O8 0.138848 0.560986 0.002862
O O9 0.999298 0.929605 0.805081
O O10 0.500000 0.750000 0.863288
O O11 0.619918 0.615553 0.105644
O O12 0.573136 0.701612 0.204467
O O13 0.750000 0.500000 0.581958
#
# Coordination Sequence:
#
# PCOD9506624 Si02
#       7
#    16  16   8  16  16  16   4
#     4  10  20  34  60  82 118 160 202 254 314 377
#     4  10  22  39  63  94 123 159 217 276 319 377
#     4   9  18  31  53  88 103 138 202 246 299 360
#     4  10  21  36  55  91 123 160 208 253 317 386
#     4  11  21  38  56  82 123 158 201 255 313 384
#     4  10  20  40  67  87 117 165 214 266 322 377
#     4  10  28  36  48  86 126 160 198 250 330 390
#
# _framework density 19.456161999999999
#
# number of rings (size 3 to 8) (size 9 to 14) (size 15 to 20)
#    0.000    2.087    0.000    5.739    2.435    5.565 
#    1.565    0.000    0.000    4.174    0.000    0.000 
#    0.000    0.000    0.000    0.000    0.000    0.000 
#
# Total GULP energy -256078.181045 kJ/mol
# GULP energy per Si atom -5566.916979 kJ/mol
# Density = 1.941188 g / cm^3
# Si number density = 19.456162 Si / 1000 Ang^3
#
#
#
# Elastic Constant Matrix: (Units=GPa)
#
#
# Indices 1 2 3 4 5 6 
#
# 1 83.6809 37.6438 31.7743 0.0000 0.0000 0.0000
# 2 37.6438 109.6028 63.8340 0.0000 0.0000 0.0000
# 3 31.7743 63.8340 117.8489 0.0000 0.0000 0.0000
# 4 0.0000 0.0000 0.0000 30.8251 0.0000 0.0000
# 5 0.0000 0.0000 0.0000 0.0000 12.3909 0.0000
# 6 0.0000 0.0000 0.0000 0.0000 0.0000 3.2773
#
#
#
# Elastic Compliance Matrix: (Units=1/GPa)
#
#
# Indices 1 2 3 4 5 6 
#
# 1 0.014378 -0.003916 -0.001756 0.000000 0.000000 0.000000
# 2 -0.003916 0.014395 -0.006741 0.000000 0.000000 0.000000
# 3 -0.001756 -0.006741 0.012610 0.000000 0.000000 0.000000
# 4 0.000000 0.000000 0.000000 0.032441 0.000000 0.000000
# 5 0.000000 0.000000 0.000000 0.000000 0.080705 0.000000
# 6 0.000000 0.000000 0.000000 0.000000 0.000000 0.305131
#
#
# Mechanical properties :
#
#
# Convention : Reuss Voigt Hill
#
# Bulk Modulus (GPa) = 60.39393 64.18186 62.28789
# Shear Modulus (GPa) = 10.20397 21.15735 15.68066
#
# Velocity S-wave (km/s) = 2.29259 3.30121 2.84200
# Velocity P-wave (km/s) = 6.17385 6.89856 6.54624
#
# Compressibility (1/GPa) = 0.01655796
#
# Stress axis : x y z
#
# Youngs Moduli (GPa) = 69.54915 69.46822 79.29986
#
# Poissons Ratio (x) = 0.27203 0.13922
# Poissons Ratio (y) = 0.27234 0.53460
# Poissons Ratio (z) = 0.12210 0.46832
#
# Static dielectric constant tensor:
#      x y z
#    x 1.789550 0.000000 0.000000 
#    y 0.000000 1.723800 0.000000 
#    z 0.000000 0.000000 1.730650 
# 
# From -- ./inp_files/37509.got.cif
#   From: 2010.05.17/outbox.cif.g08.bks.cpg/sg68_19_cif.got.tgz:37509.got - 2010.06.03 18:57:09.
