data_PCOD9506114
_publ_section_title
;
Structure prediction by ZEFSAII (Michael W. Deem and Ramdas Pophale) SiO2 
 PCOD9506114
Probable space group: C C C A
;
_chemical_formula_sum "Si O2"
_cell_formula_units_Z 80
_cell_length_a 9.701652
_cell_length_b 16.707902
_cell_length_c 25.165538
_cell_angle_alpha 90.000000
_cell_angle_beta 90.000000
_cell_angle_gamma 90.000000
_cell_volume 4079.189029
_symmetry_space_group_name_H-M "C C C A"
_symmetry_group_IT_number 68
_space_group.IT_coordinate_system_code '2'
_symmetry_cell_setting 'orthorhombic'
loop_
_space_group_symop_operation_xyz
x,y,z
-x,1/2-y,z
x,1/2-y,1/2-z
-x,y,1/2-z
-x,-y,-z
x,1/2+y,-z
-x,1/2+y,1/2+z
x,-y,1/2+z
1/2+x,1/2+y,z
1/2-x,-y,z
1/2+x,-y,1/2-z
1/2-x,1/2+y,1/2-z
1/2-x,1/2-y,-z
1/2+x,y,-z
1/2-x,y,1/2+z
1/2+x,1/2-y,1/2+z
loop_
_atom_site_type_symbol
_atom_site_label
_atom_site_fract_x
_atom_site_fract_y
_atom_site_fract_z
Si Si1 0.443832 0.170471 0.381361
Si Si2 0.447111 0.431787 0.845096
Si Si3 0.271670 0.403656 0.690984
Si Si4 0.663737 0.895409 0.809271
Si Si5 0.916814 0.509269 0.445576
O O1 0.500000 0.250000 0.409100
O O2 0.298310 0.153599 0.352529
O O3 0.551119 0.162978 0.332453
O O4 0.451803 0.096168 0.421361
O O5 0.565240 0.392357 0.809882
O O6 0.403970 0.517095 0.819011
O O7 0.301984 0.387223 0.844403
O O8 0.517937 0.448840 0.901765
O O9 0.250000 0.500000 0.678675
O O10 0.205083 0.388684 0.748222
O O11 0.750000 0.500000 0.450857
O O12 0.000000 0.500000 0.500000
#
# Coordination Sequence:
#
# PCOD9506114 Si02
#       5
#    16  16  16  16  16
#     4  11  24  42  59  89 132 167 201 253 325 382
#     4  10  19  34  56  91 122 151 208 266 297 341
#     4  12  18  34  59  91 126 165 209 252 296 356
#     4  10  21  29  60  94 121 163 206 251 296 366
#     4  11  23  41  69  91 114 153 211 274 314 372
#
# _framework density 19.611740999999999
#
# number of rings (size 3 to 8) (size 9 to 14) (size 15 to 20)
#    0.000    1.200    8.000    1.200    5.600    1.600 
#    0.000    2.000    0.000    2.400    0.000    0.000 
#    0.000    0.000    0.000    0.000    0.000    0.000 
#
# Total GULP energy -223021.545108 kJ/mol
# GULP energy per Si atom -5575.538628 kJ/mol
# Density = 1.956710 g / cm^3
# Si number density = 19.611741 Si / 1000 Ang^3
#
#
#
# Elastic Constant Matrix: (Units=GPa)
#
#
# Indices 1 2 3 4 5 6 
#
# 1 153.0516 28.0812 44.0567 0.0000 0.0000 0.0000
# 2 28.0812 49.8177 9.4782 0.0000 0.0000 0.0000
# 3 44.0567 9.4782 121.0144 0.0000 0.0000 0.0000
# 4 0.0000 0.0000 0.0000 7.8382 0.0000 0.0000
# 5 0.0000 0.0000 0.0000 0.0000 34.8513 0.0000
# 6 0.0000 0.0000 0.0000 0.0000 0.0000 20.2696
#
#
#
# Elastic Compliance Matrix: (Units=1/GPa)
#
#
# Indices 1 2 3 4 5 6 
#
# 1 0.008022 -0.004026 -0.002605 0.000000 0.000000 0.000000
# 2 -0.004026 0.022398 -0.000288 0.000000 0.000000 0.000000
# 3 -0.002605 -0.000288 0.009235 0.000000 0.000000 0.000000
# 4 0.000000 0.000000 0.000000 0.127581 0.000000 0.000000
# 5 0.000000 0.000000 0.000000 0.000000 0.028693 0.000000
# 6 0.000000 0.000000 0.000000 0.000000 0.000000 0.049335
#
#
# Mechanical properties :
#
#
# Convention : Reuss Voigt Hill
#
# Bulk Modulus (GPa) = 38.73796 54.12398 46.43097
# Shear Modulus (GPa) = 18.67702 28.74299 23.71001
#
# Velocity S-wave (km/s) = 3.08935 3.83247 3.48080
# Velocity P-wave (km/s) = 5.70269 6.87324 6.31515
#
# Compressibility (1/GPa) = 0.02581447
#
# Stress axis : x y z
#
# Youngs Moduli (GPa) = 124.65033 44.64752 108.28892
#
# Poissons Ratio (x) = 0.17977 0.28213
# Poissons Ratio (y) = 0.50189 0.03123
# Poissons Ratio (z) = 0.32475 0.01288
#
# Static dielectric constant tensor:
#      x y z
#    x 1.726770 0.000000 0.000000 
#    y 0.000000 1.897590 0.000000 
#    z 0.000000 0.000000 1.709450 
# 
# From -- ./inp_files/49127.got.cif
#   From: 2010.05.17/outbox.cif.g08.bks.cpg/sg68_25_cif.got.tgz:49127.got - 2010.06.03 18:57:09.
