data_PCOD9506816
_publ_section_title
;
Structure prediction by ZEFSAII (Michael W. Deem and Ramdas Pophale) SiO2 
 PCOD9506816
Probable space group: C C C A
;
_chemical_formula_sum "Si O2"
_cell_formula_units_Z 92
_cell_length_a 21.264124
_cell_length_b 12.865866
_cell_length_c 17.029896
_cell_angle_alpha 90.000000
_cell_angle_beta 90.000000
_cell_angle_gamma 90.000000
_cell_volume 4659.062278
_symmetry_space_group_name_H-M "C C C A"
_symmetry_group_IT_number 68
_space_group.IT_coordinate_system_code '2'
_symmetry_cell_setting 'orthorhombic'
loop_
_space_group_symop_operation_xyz
x,y,z
-x,1/2-y,z
x,1/2-y,1/2-z
-x,y,1/2-z
-x,-y,-z
x,1/2+y,-z
-x,1/2+y,1/2+z
x,-y,1/2+z
1/2+x,1/2+y,z
1/2-x,-y,z
1/2+x,-y,1/2-z
1/2-x,1/2+y,1/2-z
1/2-x,1/2-y,-z
1/2+x,y,-z
1/2-x,y,1/2+z
1/2+x,1/2-y,1/2+z
loop_
_atom_site_type_symbol
_atom_site_label
_atom_site_fract_x
_atom_site_fract_y
_atom_site_fract_z
Si Si1 0.845857 0.780000 0.975748
Si Si2 0.000000 0.750000 0.750000
Si Si3 0.575955 0.412411 0.251035
Si Si4 0.751227 0.874464 0.599819
Si Si5 0.925230 0.240883 0.622661
Si Si6 0.885744 0.375793 0.176862
Si Si7 0.771660 0.250000 0.250000
O O1 0.794377 0.838877 0.029200
O O2 0.895079 0.740382 0.039332
O O3 0.816591 0.682182 0.927643
O O4 0.876577 0.862168 0.915934
O O5 0.950477 0.816198 0.801180
O O6 0.500000 0.423979 0.250000
O O7 0.591323 0.370163 0.337764
O O8 0.593702 0.325805 0.187018
O O9 0.607343 0.515606 0.220322
O O10 0.735871 0.814022 0.681850
O O11 0.750000 0.000000 0.608204
O O12 0.000000 0.250000 0.616958
O O13 0.820725 0.328800 0.209673
#
# Coordination Sequence:
#
# PCOD9506816 Si02
#       7
#    16   4  16  16  16  16   8
#     4  10  23  40  61  94 127 156 208 260 317 371
#     4  10  20  36  60  86 136 162 194 252 294 378
#     4   9  18  36  58  85 124 167 207 236 303 379
#     4  10  23  44  63  88 125 164 206 268 315 363
#     4   9  20  37  59  91 125 159 204 258 297 379
#     4  10  20  37  60  89 121 164 202 251 307 374
#     4   9  22  41  58  86 119 156 221 254 302 378
#
# _framework density 19.746462999999999
#
# number of rings (size 3 to 8) (size 9 to 14) (size 15 to 20)
#    0.000    2.435    0.870    1.043    6.087    1.391 
#    0.000    5.217    0.000    0.000    0.000    0.000 
#    0.000    0.000    0.000    0.000    0.000    0.000 
#
# Total GULP energy -256278.148388 kJ/mol
# GULP energy per Si atom -5571.264095 kJ/mol
# Density = 1.970152 g / cm^3
# Si number density = 19.746463 Si / 1000 Ang^3
#
#
#
# Elastic Constant Matrix: (Units=GPa)
#
#
# Indices 1 2 3 4 5 6 
#
# 1 57.3829 30.1062 32.0828 0.0000 0.0000 0.0000
# 2 30.1062 131.2132 46.5012 0.0000 0.0000 0.0000
# 3 32.0828 46.5012 125.7001 0.0000 0.0000 0.0000
# 4 0.0000 0.0000 0.0000 42.6494 0.0000 0.0000
# 5 0.0000 0.0000 0.0000 0.0000 58.4066 0.0000
# 6 0.0000 0.0000 0.0000 0.0000 0.0000 14.2983
#
#
#
# Elastic Compliance Matrix: (Units=1/GPa)
#
#
# Indices 1 2 3 4 5 6 
#
# 1 0.021609 -0.003457 -0.004237 0.000000 0.000000 0.000000
# 2 -0.003457 0.009324 -0.002567 0.000000 0.000000 0.000000
# 3 -0.004237 -0.002567 0.009986 0.000000 0.000000 0.000000
# 4 0.000000 0.000000 0.000000 0.023447 0.000000 0.000000
# 5 0.000000 0.000000 0.000000 0.000000 0.017121 0.000000
# 6 0.000000 0.000000 0.000000 0.000000 0.000000 0.069938
#
#
# Mechanical properties :
#
#
# Convention : Reuss Voigt Hill
#
# Bulk Modulus (GPa) = 49.02234 59.07518 54.04876
# Shear Modulus (GPa) = 27.97260 36.77793 32.37527
#
# Velocity S-wave (km/s) = 3.76784 4.32036 4.05353
# Velocity P-wave (km/s) = 6.61881 7.40737 7.02416
#
# Compressibility (1/GPa) = 0.02039886
#
# Stress axis : x y z
#
# Youngs Moduli (GPa) = 46.27702 107.24946 100.13609
#
# Poissons Ratio (x) = 0.37072 0.42423
# Poissons Ratio (y) = 0.15996 0.25706
# Poissons Ratio (z) = 0.19606 0.27532
#
# Static dielectric constant tensor:
#      x y z
#    x 1.725790 0.000000 0.000000 
#    y 0.000000 1.687970 0.000000 
#    z 0.000000 0.000000 2.022080 
# 
# From -- ./inp_files/33598.got.cif
#   From: 2010.05.17/outbox.cif.g08.bks.cpg/sg68_17_cif.got.tgz:33598.got - 2010.06.03 18:57:09.
