data_PCOD9506165
_publ_section_title
;
Structure prediction by ZEFSAII (Michael W. Deem and Ramdas Pophale) SiO2 
 PCOD9506165
Probable space group: C C C A
;
_chemical_formula_sum "Si O2"
_cell_formula_units_Z 116
_cell_length_a 24.592399
_cell_length_b 7.968458
_cell_length_c 31.505624
_cell_angle_alpha 90.000000
_cell_angle_beta 90.000000
_cell_angle_gamma 90.000000
_cell_volume 6173.952303
_symmetry_space_group_name_H-M "C C C A"
_symmetry_group_IT_number 68
_space_group.IT_coordinate_system_code '2'
_symmetry_cell_setting 'orthorhombic'
loop_
_space_group_symop_operation_xyz
x,y,z
-x,1/2-y,z
x,1/2-y,1/2-z
-x,y,1/2-z
-x,-y,-z
x,1/2+y,-z
-x,1/2+y,1/2+z
x,-y,1/2+z
1/2+x,1/2+y,z
1/2-x,-y,z
1/2+x,-y,1/2-z
1/2-x,1/2+y,1/2-z
1/2-x,1/2-y,-z
1/2+x,y,-z
1/2-x,y,1/2+z
1/2+x,1/2-y,1/2+z
loop_
_atom_site_type_symbol
_atom_site_label
_atom_site_fract_x
_atom_site_fract_y
_atom_site_fract_z
Si Si1 0.137894 0.281494 0.407024
Si Si2 0.000000 0.250000 0.750000
Si Si3 0.421799 0.371781 0.179041
Si Si4 0.150657 0.671533 0.060373
Si Si5 0.687428 0.002622 0.646280
Si Si6 0.688847 0.515949 0.020498
Si Si7 0.432446 0.384082 0.394274
Si Si8 0.964876 0.584142 0.896160
O O1 0.177135 0.336278 0.445442
O O2 0.107233 0.454130 0.394522
O O3 0.089868 0.148646 0.419242
O O4 0.169272 0.189758 0.368640
O O5 0.958042 0.356135 0.779144
O O6 0.357217 0.417826 0.177898
O O7 0.432254 0.199642 0.152322
O O8 0.445604 0.516970 0.149156
O O9 0.181180 0.598679 0.101538
O O10 0.092778 0.737806 0.076721
O O11 0.178245 0.841398 0.043707
O O12 0.151582 0.551539 0.019925
O O13 0.750000 0.000000 0.660425
O O14 0.750000 0.500000 0.004513
O O15 0.490551 0.448079 0.410645
O O16 0.000000 0.750000 0.891058
#
# Coordination Sequence:
#
# PCOD9506165 Si02
#       8
#    16   4  16  16  16  16  16  16
#     4   9  19  30  52  74 102 140 184 226 279 319
#     4  12  20  36  62  92 112 132 182 214 284 320
#     4  10  20  33  58  84 109 139 172 221 267 331
#     4  10  20  29  47  70  99 142 186 233 280 328
#     4  10  19  35  54  78 107 147 188 223 272 331
#     4  11  19  30  43  68 103 139 186 242 282 316
#     4   9  17  33  51  75 104 137 180 220 275 329
#     4   9  16  32  54  76 106 135 172 223 267 321
#
# _framework density 18.788613000000002
#
# number of rings (size 3 to 8) (size 9 to 14) (size 15 to 20)
#    0.000    2.207    1.379    2.483    0.000    0.000 
#    0.000    1.034    0.000   13.241    0.000    0.000 
#    0.000    0.000    0.000    0.000    0.000    0.000 
#
# Total GULP energy -322993.133776 kJ/mol
# GULP energy per Si atom -5568.847134 kJ/mol
# Density = 1.874585 g / cm^3
# Si number density = 18.788613 Si / 1000 Ang^3
#
#
#
# Elastic Constant Matrix: (Units=GPa)
#
#
# Indices 1 2 3 4 5 6 
#
# 1 130.0622 31.9537 30.9915 0.0000 0.0000 0.0000
# 2 31.9537 74.2470 20.5011 0.0000 0.0000 0.0000
# 3 30.9915 20.5011 63.6335 0.0000 0.0000 0.0000
# 4 0.0000 0.0000 0.0000 13.1168 0.0000 0.0000
# 5 0.0000 0.0000 0.0000 0.0000 26.6221 0.0000
# 6 0.0000 0.0000 0.0000 0.0000 0.0000 27.7449
#
#
#
# Elastic Compliance Matrix: (Units=1/GPa)
#
#
# Indices 1 2 3 4 5 6 
#
# 1 0.009274 -0.003012 -0.003546 0.000000 0.000000 0.000000
# 2 -0.003012 0.015762 -0.003611 0.000000 0.000000 0.000000
# 3 -0.003546 -0.003611 0.018605 0.000000 0.000000 0.000000
# 4 0.000000 0.000000 0.000000 0.076238 0.000000 0.000000
# 5 0.000000 0.000000 0.000000 0.000000 0.037563 0.000000
# 6 0.000000 0.000000 0.000000 0.000000 0.000000 0.036043
#
#
# Mechanical properties :
#
#
# Convention : Reuss Voigt Hill
#
# Bulk Modulus (GPa) = 42.91389 48.31504 45.61447
# Shear Modulus (GPa) = 22.56416 25.79654 24.18035
#
# Velocity S-wave (km/s) = 3.46923 3.70940 3.59133
# Velocity P-wave (km/s) = 6.23998 6.64207 6.44416
#
# Compressibility (1/GPa) = 0.02330248
#
# Stress axis : x y z
#
# Youngs Moduli (GPa) = 107.83328 63.44411 53.74755
#
# Poissons Ratio (x) = 0.19109 0.19060
# Poissons Ratio (y) = 0.32478 0.19409
# Poissons Ratio (z) = 0.38239 0.22911
#
# Static dielectric constant tensor:
#      x y z
#    x 1.717450 0.000000 0.000000 
#    y 0.000000 1.709110 0.000000 
#    z 0.000000 0.000000 1.628190 
# 
# From -- ./inp_files/56070.got.cif
#   From: 2010.05.17/outbox.cif.g08.bks.cpg/sg68_29_cif.got.tgz:56070.got - 2010.06.03 18:57:09.
