data_PCOD9506750
_publ_section_title
;
Structure prediction by ZEFSAII (Michael W. Deem and Ramdas Pophale) SiO2 
 PCOD9506750
Probable space group: C C C A
;
_chemical_formula_sum "Si O2"
_cell_formula_units_Z 96
_cell_length_a 21.715934
_cell_length_b 8.212714
_cell_length_c 27.124450
_cell_angle_alpha 90.000000
_cell_angle_beta 90.000000
_cell_angle_gamma 90.000000
_cell_volume 4837.557644
_symmetry_space_group_name_H-M "C C C A"
_symmetry_group_IT_number 68
_space_group.IT_coordinate_system_code '2'
_symmetry_cell_setting 'orthorhombic'
loop_
_space_group_symop_operation_xyz
x,y,z
-x,1/2-y,z
x,1/2-y,1/2-z
-x,y,1/2-z
-x,-y,-z
x,1/2+y,-z
-x,1/2+y,1/2+z
x,-y,1/2+z
1/2+x,1/2+y,z
1/2-x,-y,z
1/2+x,-y,1/2-z
1/2-x,1/2+y,1/2-z
1/2-x,1/2-y,-z
1/2+x,y,-z
1/2-x,y,1/2+z
1/2+x,1/2-y,1/2+z
loop_
_atom_site_type_symbol
_atom_site_label
_atom_site_fract_x
_atom_site_fract_y
_atom_site_fract_z
Si Si1 0.650698 0.288424 0.426401
Si Si2 0.430988 0.779931 0.666235
Si Si3 0.798661 0.853492 0.706214
Si Si4 0.774988 0.685975 0.607280
Si Si5 0.816435 0.905222 0.522688
Si Si6 0.927126 0.993013 0.747040
O O1 0.606557 0.234707 0.383362
O O2 0.714966 0.298946 0.397605
O O3 0.660735 0.159171 0.470236
O O4 0.639824 0.462784 0.451420
O O5 0.500000 0.750000 0.649690
O O6 0.425582 0.640500 0.707804
O O7 0.416396 0.941802 0.697455
O O8 0.768042 0.750000 0.750000
O O9 0.806425 0.742808 0.657579
O O10 0.750000 0.000000 0.697110
O O11 0.866767 0.899635 0.726822
O O12 0.750000 0.500000 0.607984
O O13 0.810794 0.747351 0.558494
O O14 0.750000 0.000000 0.517033
O O15 0.000000 0.935240 0.750000
#
# Coordination Sequence:
#
# PCOD9506750 Si02
#       6
#    16  16  16  16  16  16
#     4  11  20  35  60  83 125 158 207 251 306 367
#     4   9  19  36  64  87 109 157 211 255 305 365
#     4  12  26  38  57  95 130 159 198 257 322 359
#     4  11  22  37  58  87 124 160 198 245 309 375
#     4  10  20  36  55  87 116 165 200 245 298 374
#     4   9  20  41  63  86 118 166 216 252 302 383
#
# _framework density 19.844725
#
# number of rings (size 3 to 8) (size 9 to 14) (size 15 to 20)
#    0.000    1.667    0.000    8.500    7.000    0.333 
#    0.000    0.833    0.000    0.000    0.000    0.000 
#    0.000    0.000    0.000    0.000    0.000    0.000 
#
# Total GULP energy -267216.247289 kJ/mol
# GULP energy per Si atom -5567.005152 kJ/mol
# Density = 1.979956 g / cm^3
# Si number density = 19.844725 Si / 1000 Ang^3
#
#
#
# Elastic Constant Matrix: (Units=GPa)
#
#
# Indices 1 2 3 4 5 6 
#
# 1 80.1807 40.8677 76.4735 0.0000 0.0000 0.0000
# 2 40.8677 99.6930 61.3811 0.0000 0.0000 0.0000
# 3 76.4735 61.3811 186.7489 0.0000 0.0000 0.0000
# 4 0.0000 0.0000 0.0000 11.7319 0.0000 0.0000
# 5 0.0000 0.0000 0.0000 0.0000 38.2985 0.0000
# 6 0.0000 0.0000 0.0000 0.0000 0.0000 58.7933
#
#
#
# Elastic Compliance Matrix: (Units=1/GPa)
#
#
# Indices 1 2 3 4 5 6 
#
# 1 0.021857 -0.004324 -0.007529 0.000000 0.000000 0.000000
# 2 -0.004324 0.013431 -0.002644 0.000000 0.000000 0.000000
# 3 -0.007529 -0.002644 0.009307 0.000000 0.000000 0.000000
# 4 0.000000 0.000000 0.000000 0.085237 0.000000 0.000000
# 5 0.000000 0.000000 0.000000 0.000000 0.026111 0.000000
# 6 0.000000 0.000000 0.000000 0.000000 0.000000 0.017009
#
#
# Mechanical properties :
#
#
# Convention : Reuss Voigt Hill
#
# Bulk Modulus (GPa) = 64.09960 80.45192 72.27576
# Shear Modulus (GPa) = 24.13753 34.29142 29.21447
#
# Velocity S-wave (km/s) = 3.49136 4.16142 3.84103
# Velocity P-wave (km/s) = 6.97306 7.98239 7.49473
#
# Compressibility (1/GPa) = 0.01560072
#
# Stress axis : x y z
#
# Youngs Moduli (GPa) = 45.75230 74.45304 107.44706
#
# Poissons Ratio (x) = 0.32195 0.80897
# Poissons Ratio (y) = 0.19784 0.28407
# Poissons Ratio (z) = 0.34447 0.19684
#
# Static dielectric constant tensor:
#      x y z
#    x 1.767350 0.000000 0.000000 
#    y 0.000000 1.797890 0.000000 
#    z 0.000000 0.000000 -0.512980 
# 
# From -- ./inp_files/51751.got.cif
#   From: 2010.05.17/outbox.cif.g08.bks.cpg/sg68_26_cif.got.tgz:51751.got - 2010.06.03 18:57:09.
