data_PCOD9506133
_publ_section_title
;
Structure prediction by ZEFSAII (Michael W. Deem and Ramdas Pophale) SiO2 
 PCOD9506133
Probable space group: C C C A
;
_chemical_formula_sum "Si O2"
_cell_formula_units_Z 100
_cell_length_a 16.120290
_cell_length_b 28.691242
_cell_length_c 11.384762
_cell_angle_alpha 90.000000
_cell_angle_beta 90.000000
_cell_angle_gamma 90.000000
_cell_volume 5265.579268
_symmetry_space_group_name_H-M "C C C A"
_symmetry_group_IT_number 68
_space_group.IT_coordinate_system_code '2'
_symmetry_cell_setting 'orthorhombic'
loop_
_space_group_symop_operation_xyz
x,y,z
-x,1/2-y,z
x,1/2-y,1/2-z
-x,y,1/2-z
-x,-y,-z
x,1/2+y,-z
-x,1/2+y,1/2+z
x,-y,1/2+z
1/2+x,1/2+y,z
1/2-x,-y,z
1/2+x,-y,1/2-z
1/2-x,1/2+y,1/2-z
1/2-x,1/2-y,-z
1/2+x,y,-z
1/2-x,y,1/2+z
1/2+x,1/2-y,1/2+z
loop_
_atom_site_type_symbol
_atom_site_label
_atom_site_fract_x
_atom_site_fract_y
_atom_site_fract_z
Si Si1 0.000000 0.612857 0.750000
Si Si2 0.781181 0.599238 0.218484
Si Si3 0.844269 0.982946 0.418892
Si Si4 0.500000 0.750000 0.750000
Si Si5 0.364458 0.040261 0.817907
Si Si6 0.284857 0.250000 0.750000
Si Si7 0.362431 0.335688 0.880465
Si Si8 0.855585 0.813597 0.148961
O O1 0.067771 0.580992 0.685681
O O2 0.050445 0.644711 0.838674
O O3 0.836825 0.569726 0.128735
O O4 0.728608 0.563220 0.302888
O O5 0.707899 0.626651 0.152533
O O6 0.835695 0.639181 0.279371
O O7 0.875300 0.984748 0.554626
O O8 0.750000 0.000000 0.428100
O O9 0.879323 0.011471 0.304855
O O10 0.562771 0.715430 0.817221
O O11 0.339309 0.287595 0.817375
O O12 0.222980 0.220598 0.832635
O O13 0.361772 0.328188 0.016570
#
# Coordination Sequence:
#
# PCOD9506133 Si02
#       8
#     8  16  16   4  16   8  16  16
#     4  10  24  37  49  80 116 148 183 221 274 336
#     4   9  19  35  59  85 106 139 190 234 276 324
#     4  10  19  34  59  84 107 141 186 233 278 327
#     4  10  24  36  50  80 116 150 182 218 272 342
#     4  10  21  37  56  82 114 146 184 230 278 331
#     4   9  20  36  58  85 100 136 192 235 280 326
#     4  10  20  36  58  79 111 145 182 233 278 328
#     4  10  20  37  56  80 113 145 182 230 279 329
#
# _framework density 18.991263
#
# number of rings (size 3 to 8) (size 9 to 14) (size 15 to 20)
#    0.000    2.240    0.000    2.880    0.000    6.080 
#    0.000    4.000    0.000    0.000    0.000    0.000 
#    0.000    0.000    0.000    0.000    0.000    0.000 
#
# Total GULP energy -278608.471451 kJ/mol
# GULP energy per Si atom -5572.169429 kJ/mol
# Density = 1.894804 g / cm^3
# Si number density = 18.991263 Si / 1000 Ang^3
#
#
#
# Elastic Constant Matrix: (Units=GPa)
#
#
# Indices 1 2 3 4 5 6 
#
# 1 42.0555 10.6916 45.0781 0.0000 0.0000 0.0000
# 2 10.6916 82.3393 58.0167 0.0000 0.0000 0.0000
# 3 45.0781 58.0167 160.6589 0.0000 0.0000 0.0000
# 4 0.0000 0.0000 0.0000 253.5365 0.0000 0.0000
# 5 0.0000 0.0000 0.0000 0.0000 -4.2187 0.0000
# 6 0.0000 0.0000 0.0000 0.0000 0.0000 9.2773
#
#
#
# Elastic Compliance Matrix: (Units=1/GPa)
#
#
# Indices 1 2 3 4 5 6 
#
# 1 0.034603 0.003149 -0.010846 0.000000 0.000000 0.000000
# 2 0.003149 0.016576 -0.006870 0.000000 0.000000 0.000000
# 3 -0.010846 -0.006870 0.011748 0.000000 0.000000 0.000000
# 4 0.000000 0.000000 0.000000 0.003944 0.000000 0.000000
# 5 0.000000 0.000000 0.000000 0.000000 -0.237038 0.000000
# 6 0.000000 0.000000 0.000000 0.000000 0.000000 0.107790
#
#
# Mechanical properties :
#
#
# Convention : Reuss Voigt Hill
#
# Bulk Modulus (GPa) = 29.59050 56.95850 43.27450
# Shear Modulus (GPa) = -227.50634 63.13684 -82.18475
#
# Velocity S-wave (km/s) = -10.95698 5.77212 -6.58551
# Velocity P-wave (km/s) = 12.01910 8.63019 5.91518
#
# Compressibility (1/GPa) = 0.03379463
#
# Stress axis : x y z
#
# Youngs Moduli (GPa) = 28.89891 60.32708 85.11800
#
# Poissons Ratio (x) = -0.18998 0.92322
# Poissons Ratio (y) = -0.09101 0.58473
# Poissons Ratio (z) = 0.31345 0.41442
#
# Static dielectric constant tensor:
#      x y z
#    x 1.642050 0.000000 0.000000 
#    y 0.000000 1.707690 0.000000 
#    z 0.000000 0.000000 1.664630 
# 
# From -- ./inp_files/13563.got.cif
#   From: 2010.05.17/outbox.cif.g08.bks.cpg/sg68_7_cif.got.tgz:13563.got - 2010.06.03 18:57:09.
