data_PCOD9506191
_publ_section_title
;
Structure prediction by ZEFSAII (Michael W. Deem and Ramdas Pophale) SiO2 
 PCOD9506191
Probable space group: C C C A
;
_chemical_formula_sum "Si O2"
_cell_formula_units_Z 92
_cell_length_a 24.223462
_cell_length_b 8.617320
_cell_length_c 22.817901
_cell_angle_alpha 90.000000
_cell_angle_beta 90.000000
_cell_angle_gamma 90.000000
_cell_volume 4763.038856
_symmetry_space_group_name_H-M "C C C A"
_symmetry_group_IT_number 68
_space_group.IT_coordinate_system_code '2'
_symmetry_cell_setting 'orthorhombic'
loop_
_space_group_symop_operation_xyz
x,y,z
-x,1/2-y,z
x,1/2-y,1/2-z
-x,y,1/2-z
-x,-y,-z
x,1/2+y,-z
-x,1/2+y,1/2+z
x,-y,1/2+z
1/2+x,1/2+y,z
1/2-x,-y,z
1/2+x,-y,1/2-z
1/2-x,1/2+y,1/2-z
1/2-x,1/2-y,-z
1/2+x,y,-z
1/2-x,y,1/2+z
1/2+x,1/2-y,1/2+z
loop_
_atom_site_type_symbol
_atom_site_label
_atom_site_fract_x
_atom_site_fract_y
_atom_site_fract_z
Si Si1 0.338099 0.286868 0.180538
Si Si2 0.382994 0.958190 0.146060
Si Si3 0.000000 0.750000 0.250000
Si Si4 0.436813 0.017333 0.332372
Si Si5 0.776410 0.171521 0.311667
Si Si6 0.511140 0.431987 0.563970
Si Si7 0.071938 0.250000 0.250000
O O1 0.339084 0.250000 0.250000
O O2 0.371801 0.442478 0.166050
O O3 0.273520 0.277485 0.164969
O O4 0.367973 0.139015 0.151660
O O5 0.325633 0.861261 0.142759
O O6 0.429023 0.945818 0.095891
O O7 0.403347 0.888752 0.208761
O O8 0.037568 0.851926 0.291598
O O9 0.466870 0.015292 0.393899
O O10 0.452383 0.856560 0.301115
O O11 0.795497 0.250000 0.250000
O O12 0.750000 0.000000 0.298510
O O13 0.500000 0.250000 0.561657
O O14 0.500000 0.500000 0.500000
#
# Coordination Sequence:
#
# PCOD9506191 Si02
#       7
#    16  16   4  16  16  16   8
#     4  10  19  35  58  97 133 162 195 240 324 401
#     4  11  21  38  60  91 130 164 204 259 315 386
#     4  12  24  34  62  96 130 170 196 254 338 390
#     4  12  23  39  61  92 130 165 207 265 322 403
#     4   9  19  33  58  93 133 169 196 244 318 401
#     4  12  29  45  62  85 118 173 226 272 321 373
#     4  12  20  35  59  94 125 154 200 257 328 384
#
# _framework density 19.315398999999999
#
# number of rings (size 3 to 8) (size 9 to 14) (size 15 to 20)
#    0.000    1.043    5.217    2.087    3.652    0.696 
#    0.000    0.000    0.000    1.043    0.000    0.000 
#    0.000    0.000    0.000    0.000    0.000    0.000 
#
# Total GULP energy -256487.504944 kJ/mol
# GULP energy per Si atom -5575.815325 kJ/mol
# Density = 1.927144 g / cm^3
# Si number density = 19.315399 Si / 1000 Ang^3
#
#
#
# Elastic Constant Matrix: (Units=GPa)
#
#
# Indices 1 2 3 4 5 6 
#
# 1 130.8661 31.4955 58.9843 0.0000 0.0000 0.0000
# 2 31.4955 61.7322 26.1511 0.0000 0.0000 0.0000
# 3 58.9843 26.1511 120.2434 0.0000 0.0000 0.0000
# 4 0.0000 0.0000 0.0000 22.8570 0.0000 0.0000
# 5 0.0000 0.0000 0.0000 0.0000 9.0222 0.0000
# 6 0.0000 0.0000 0.0000 0.0000 0.0000 27.8744
#
#
#
# Elastic Compliance Matrix: (Units=1/GPa)
#
#
# Indices 1 2 3 4 5 6 
#
# 1 0.010448 -0.003480 -0.004368 0.000000 0.000000 0.000000
# 2 -0.003480 0.019002 -0.002426 0.000000 0.000000 0.000000
# 3 -0.004368 -0.002426 0.010987 0.000000 0.000000 0.000000
# 4 0.000000 0.000000 0.000000 0.043750 0.000000 0.000000
# 5 0.000000 0.000000 0.000000 0.000000 0.110837 0.000000
# 6 0.000000 0.000000 0.000000 0.000000 0.000000 0.035875
#
#
# Mechanical properties :
#
#
# Convention : Reuss Voigt Hill
#
# Bulk Modulus (GPa) = 50.27897 60.67818 55.47857
# Shear Modulus (GPa) = 19.37408 25.03143 22.20276
#
# Velocity S-wave (km/s) = 3.17051 3.60381 3.39408
# Velocity P-wave (km/s) = 6.28410 6.98564 6.64414
#
# Compressibility (1/GPa) = 0.01988903
#
# Stress axis : x y z
#
# Youngs Moduli (GPa) = 95.71419 52.62613 91.01840
#
# Poissons Ratio (x) = 0.18314 0.39759
# Poissons Ratio (y) = 0.33308 0.22077
# Poissons Ratio (z) = 0.41810 0.12765
#
# Static dielectric constant tensor:
#      x y z
#    x 1.844410 0.000000 0.000000 
#    y 0.000000 1.714960 0.000000 
#    z 0.000000 0.000000 1.639500 
# 
# From -- ./inp_files/41263.got.cif
#   From: 2010.05.17/outbox.cif.g08.bks.cpg/sg68_21_cif.got.tgz:41263.got - 2010.06.03 18:57:09.
