data_PCOD9506289
_publ_section_title
;
Structure prediction by ZEFSAII (Michael W. Deem and Ramdas Pophale) SiO2 
 PCOD9506289
Probable space group: C C C A
;
_chemical_formula_sum "Si O2"
_cell_formula_units_Z 120
_cell_length_a 26.441586
_cell_length_b 21.469048
_cell_length_c 10.939797
_cell_angle_alpha 90.000000
_cell_angle_beta 90.000000
_cell_angle_gamma 90.000000
_cell_volume 6210.256690
_symmetry_space_group_name_H-M "C C C A"
_symmetry_group_IT_number 68
_space_group.IT_coordinate_system_code '2'
_symmetry_cell_setting 'orthorhombic'
loop_
_space_group_symop_operation_xyz
x,y,z
-x,1/2-y,z
x,1/2-y,1/2-z
-x,y,1/2-z
-x,-y,-z
x,1/2+y,-z
-x,1/2+y,1/2+z
x,-y,1/2+z
1/2+x,1/2+y,z
1/2-x,-y,z
1/2+x,-y,1/2-z
1/2-x,1/2+y,1/2-z
1/2-x,1/2-y,-z
1/2+x,y,-z
1/2-x,y,1/2+z
1/2+x,1/2-y,1/2+z
loop_
_atom_site_type_symbol
_atom_site_label
_atom_site_fract_x
_atom_site_fract_y
_atom_site_fract_z
Si Si1 0.250000 0.000000 0.629491
Si Si2 0.491701 0.944245 0.120705
Si Si3 0.845089 0.554142 0.237618
Si Si4 0.216651 0.630758 0.961413
Si Si5 0.060162 0.318737 0.743935
Si Si6 0.780173 0.322408 0.765101
Si Si7 0.564434 0.935243 0.914742
Si Si8 0.104833 0.400515 0.532921
O O1 0.297241 0.989016 0.718646
O O2 0.240139 0.938735 0.548889
O O3 0.500000 0.913923 0.250000
O O4 0.478886 0.017863 0.135448
O O5 0.543866 0.931972 0.050385
O O6 0.441489 0.921675 0.051019
O O7 0.823238 0.625294 0.235935
O O8 0.881711 0.537911 0.124768
O O9 0.875441 0.549535 0.364955
O O10 0.232198 0.662650 0.091400
O O11 0.155638 0.623096 0.966448
O O12 0.237279 0.664465 0.838634
O O13 0.082392 0.250000 0.750000
O O14 0.068831 0.368188 0.851835
O O15 0.079976 0.348367 0.619327
O O16 0.000000 0.313518 0.750000
O O17 0.794750 0.250000 0.750000
#
# Coordination Sequence:
#
# PCOD9506289 Si02
#       8
#     8  16  16  16  16  16  16  16
#     4  10  20  42  56  94 124 158 196 254 320 372
#     4  11  23  37  58  85 132 161 192 257 303 381
#     4   9  21  36  64  88 119 157 207 256 302 374
#     4  10  22  38  64  90 124 162 203 255 313 378
#     4  10  19  36  64  85 113 153 206 261 293 349
#     4  10  21  41  63  91 122 161 206 262 310 368
#     4  10  21  37  57  92 115 155 204 243 309 358
#     4  10  21  38  59  92 120 159 204 248 311 368
#
# _framework density 19.322873000000001
#
# number of rings (size 3 to 8) (size 9 to 14) (size 15 to 20)
#    0.000    2.000    1.333    1.600    5.600    9.600 
#    4.800    0.000    0.000    0.800    0.000    0.000 
#    0.000    0.000    0.000    0.000    0.000    0.000 
#
# Total GULP energy -334019.076328 kJ/mol
# GULP energy per Si atom -5566.984605 kJ/mol
# Density = 1.927889 g / cm^3
# Si number density = 19.322873 Si / 1000 Ang^3
#
#
#
# Elastic Constant Matrix: (Units=GPa)
#
#
# Indices 1 2 3 4 5 6 
#
# 1 100.9761 0.1959 67.0710 0.0000 0.0000 0.0000
# 2 0.1959 82.3761 28.8318 0.0000 0.0000 0.0000
# 3 67.0710 28.8318 132.7961 0.0000 0.0000 0.0000
# 4 0.0000 0.0000 0.0000 22.7449 0.0000 0.0000
# 5 0.0000 0.0000 0.0000 0.0000 42.7685 0.0000
# 6 0.0000 0.0000 0.0000 0.0000 0.0000 17.8595
#
#
#
# Elastic Compliance Matrix: (Units=1/GPa)
#
#
# Indices 1 2 3 4 5 6 
#
# 1 0.015531 0.002931 -0.008480 0.000000 0.000000 0.000000
# 2 0.002931 0.013691 -0.004453 0.000000 0.000000 0.000000
# 3 -0.008480 -0.004453 0.012780 0.000000 0.000000 0.000000
# 4 0.000000 0.000000 0.000000 0.043966 0.000000 0.000000
# 5 0.000000 0.000000 0.000000 0.000000 0.023382 0.000000
# 6 0.000000 0.000000 0.000000 0.000000 0.000000 0.055993
#
#
# Mechanical properties :
#
#
# Convention : Reuss Voigt Hill
#
# Bulk Modulus (GPa) = 45.45949 56.48286 50.97118
# Shear Modulus (GPa) = 25.94990 31.34454 28.64722
#
# Velocity S-wave (km/s) = 3.66862 4.03196 3.85457
# Velocity P-wave (km/s) = 6.44379 7.13934 6.80046
#
# Compressibility (1/GPa) = 0.02199761
#
# Stress axis : x y z
#
# Youngs Moduli (GPa) = 64.38927 73.04062 78.24541
#
# Poissons Ratio (x) = -0.21410 0.66355
# Poissons Ratio (y) = -0.18874 0.34842
# Poissons Ratio (z) = 0.54605 0.32525
#
# Static dielectric constant tensor:
#      x y z
#    x 1.718330 0.000000 0.000000 
#    y 0.000000 1.737270 0.000000 
#    z 0.000000 0.000000 2.053730 
# 
# From -- ./inp_files/17316.got.cif
#   From: 2010.05.17/outbox.cif.g08.bks.cpg/sg68_9_cif.got.tgz:17316.got - 2010.06.03 18:57:09.
