data_PCOD9506272
_publ_section_title
;
Structure prediction by ZEFSAII (Michael W. Deem and Ramdas Pophale) SiO2 
 PCOD9506272
Probable space group: C C C A
;
_chemical_formula_sum "Si O2"
_cell_formula_units_Z 120
_cell_length_a 17.093355
_cell_length_b 18.316660
_cell_length_c 15.041288
_cell_angle_alpha 90.000000
_cell_angle_beta 90.000000
_cell_angle_gamma 90.000000
_cell_volume 4709.324568
_symmetry_space_group_name_H-M "C C C A"
_symmetry_group_IT_number 68
_space_group.IT_coordinate_system_code '2'
_symmetry_cell_setting 'orthorhombic'
loop_
_space_group_symop_operation_xyz
x,y,z
-x,1/2-y,z
x,1/2-y,1/2-z
-x,y,1/2-z
-x,-y,-z
x,1/2+y,-z
-x,1/2+y,1/2+z
x,-y,1/2+z
1/2+x,1/2+y,z
1/2-x,-y,z
1/2+x,-y,1/2-z
1/2-x,1/2+y,1/2-z
1/2-x,1/2-y,-z
1/2+x,y,-z
1/2-x,y,1/2+z
1/2+x,1/2-y,1/2+z
loop_
_atom_site_type_symbol
_atom_site_label
_atom_site_fract_x
_atom_site_fract_y
_atom_site_fract_z
Si Si1 0.137681 0.791638 0.070768
Si Si2 0.816155 0.670364 0.795358
Si Si3 0.969033 0.829787 0.585993
Si Si4 0.359752 0.521936 0.192282
Si Si5 0.250000 0.000000 0.465746
Si Si6 0.587394 0.103700 0.289156
Si Si7 0.024399 0.976833 0.598669
Si Si8 0.287506 0.155941 0.472597
O O1 0.119005 0.822068 0.167991
O O2 0.135951 0.706055 0.043450
O O3 0.077429 0.834619 0.007259
O O4 0.225915 0.812578 0.044065
O O5 0.805986 0.750000 0.750000
O O6 0.902106 0.668352 0.839578
O O7 0.823789 0.588726 0.749976
O O8 0.754523 0.665773 0.876309
O O9 0.036429 0.890118 0.595031
O O10 0.000000 0.750000 0.591657
O O11 0.317143 0.530511 0.098381
O O12 0.353049 0.437657 0.223090
O O13 0.450821 0.522921 0.166884
O O14 0.291622 0.071762 0.503688
O O15 0.500000 0.116825 0.250000
O O16 0.581235 0.037589 0.361794
O O17 0.000000 0.000000 0.500000
#
# Coordination Sequence:
#
# PCOD9506272 Si02
#       8
#    16  16  16  16   8  16  16  16
#     4  10  20  41  59  86 125 154 207 256 311 372
#     4   9  19  36  56  82 118 154 193 247 316 369
#     4  10  21  34  54  87 116 153 197 252 305 367
#     4   9  21  36  57  88 119 154 208 253 305 382
#     4  10  20  40  62  82 118 158 206 248 318 368
#     4  10  21  38  63  90 126 166 210 265 323 389
#     4  10  19  36  61  81 118 165 200 252 312 371
#     4   9  21  39  63  86 116 163 204 261 304 375
#
# _framework density 25.481361
#
# number of rings (size 3 to 8) (size 9 to 14) (size 15 to 20)
#    0.000    2.400    1.333    0.800    1.867    3.467 
#    0.000    2.000    0.000    0.000    0.000    0.000 
#    0.000    0.000    0.000    0.000    0.000    0.000 
#
# Total GULP energy -334311.961005 kJ/mol
# GULP energy per Si atom -5571.866017 kJ/mol
# Density = 2.542336 g / cm^3
# Si number density = 25.481361 Si / 1000 Ang^3
#
#
#
# Elastic Constant Matrix: (Units=GPa)
#
#
# Indices 1 2 3 4 5 6 
#
# 1 48.3105 41.7072 17.3750 0.0000 0.0000 0.0000
# 2 41.7072 160.2372 20.4391 0.0000 0.0000 0.0000
# 3 17.3750 20.4391 46.2501 0.0000 0.0000 0.0000
# 4 0.0000 0.0000 0.0000 32.8284 0.0000 0.0000
# 5 0.0000 0.0000 0.0000 0.0000 13.7636 0.0000
# 6 0.0000 0.0000 0.0000 0.0000 0.0000 28.6085
#
#
#
# Elastic Compliance Matrix: (Units=1/GPa)
#
#
# Indices 1 2 3 4 5 6 
#
# 1 0.029304 -0.006595 -0.008094 0.000000 0.000000 0.000000
# 2 -0.006595 0.008098 -0.001101 0.000000 0.000000 0.000000
# 3 -0.008094 -0.001101 0.025149 0.000000 0.000000 0.000000
# 4 0.000000 0.000000 0.000000 0.030461 0.000000 0.000000
# 5 0.000000 0.000000 0.000000 0.000000 0.072655 0.000000
# 6 0.000000 0.000000 0.000000 0.000000 0.000000 0.034955
#
#
# Mechanical properties :
#
#
# Convention : Reuss Voigt Hill
#
# Bulk Modulus (GPa) = 32.28913 45.98229 39.13571
# Shear Modulus (GPa) = 20.61632 26.72520 23.67076
#
# Velocity S-wave (km/s) = 2.84751 3.24205 3.05117
# Velocity P-wave (km/s) = 4.84874 5.66561 5.27302
#
# Compressibility (1/GPa) = 0.03097018
#
# Stress axis : x y z
#
# Youngs Moduli (GPa) = 34.12492 123.49115 39.76300
#
# Poissons Ratio (x) = 0.81441 0.32186
# Poissons Ratio (y) = 0.22505 0.04378
# Poissons Ratio (z) = 0.27622 0.13597
#
# Static dielectric constant tensor:
#      x y z
#    x 2.103450 0.000000 0.000000 
#    y 0.000000 2.282110 0.000000 
#    z 0.000000 0.000000 2.194930 
# 
# From -- ./inp_files/33176.got.cif
#   From: 2010.05.17/outbox.cif.g08.bks.cpg/sg68_17_cif.got.tgz:33176.got - 2010.06.03 18:57:09.
