data_PCOD9506868
_publ_section_title
;
Structure prediction by ZEFSAII (Michael W. Deem and Ramdas Pophale) SiO2 
 PCOD9506868
Probable space group: C C C A
;
_chemical_formula_sum "Si O2"
_cell_formula_units_Z 100
_cell_length_a 15.498668
_cell_length_b 14.628482
_cell_length_c 22.408815
_cell_angle_alpha 90.000000
_cell_angle_beta 90.000000
_cell_angle_gamma 90.000000
_cell_volume 5080.571038
_symmetry_space_group_name_H-M "C C C A"
_symmetry_group_IT_number 68
_space_group.IT_coordinate_system_code '2'
_symmetry_cell_setting 'orthorhombic'
loop_
_space_group_symop_operation_xyz
x,y,z
-x,1/2-y,z
x,1/2-y,1/2-z
-x,y,1/2-z
-x,-y,-z
x,1/2+y,-z
-x,1/2+y,1/2+z
x,-y,1/2+z
1/2+x,1/2+y,z
1/2-x,-y,z
1/2+x,-y,1/2-z
1/2-x,1/2+y,1/2-z
1/2-x,1/2-y,-z
1/2+x,y,-z
1/2-x,y,1/2+z
1/2+x,1/2-y,1/2+z
loop_
_atom_site_type_symbol
_atom_site_label
_atom_site_fract_x
_atom_site_fract_y
_atom_site_fract_z
Si Si1 0.597997 0.591798 0.306970
Si Si2 0.404546 0.570204 0.769221
Si Si3 0.538163 0.151116 0.494774
Si Si4 0.292143 0.627224 0.656532
Si Si5 0.000000 0.750000 0.750000
Si Si6 0.582588 0.511177 0.919033
Si Si7 0.902965 0.796513 0.374002
O O1 0.601281 0.537612 0.244053
O O2 0.691808 0.610220 0.334478
O O3 0.555340 0.686569 0.292920
O O4 0.548414 0.526236 0.354464
O O5 0.500000 0.601897 0.750000
O O6 0.336435 0.605196 0.720227
O O7 0.391977 0.614595 0.833127
O O8 0.500000 0.250000 0.516745
O O9 0.580059 0.081631 0.542079
O O10 0.603865 0.179790 0.443184
O O11 0.469715 0.087653 0.456967
O O12 0.332296 0.563657 0.604253
O O13 0.327880 0.726953 0.642711
O O14 0.000000 0.750000 0.365578
#
# Coordination Sequence:
#
# PCOD9506868 Si02
#       7
#    16  16  16  16   4  16  16
#     4  11  26  44  62  87 130 175 214 267 325 399
#     4  11  19  34  61  93 126 166 207 257 324 379
#     4  10  20  36  65 100 128 167 223 266 302 385
#     4  11  22  39  64  92 130 171 208 267 328 384
#     4  12  28  44  60  92 124 172 236 252 334 424
#     4  10  20  40  66  92 129 172 213 257 323 380
#     4  11  19  34  62 100 129 160 218 266 316 377
#
# _framework density 19.682827
#
# number of rings (size 3 to 8) (size 9 to 14) (size 15 to 20)
#    0.000    1.280    5.600    3.360    3.360    0.000 
#    0.000    0.800    0.000    3.840    0.000    0.000 
#    0.000    0.000    0.000    0.000    0.000    0.000 
#
# Total GULP energy -278428.955621 kJ/mol
# GULP energy per Si atom -5568.579112 kJ/mol
# Density = 1.963803 g / cm^3
# Si number density = 19.682827 Si / 1000 Ang^3
#
#
#
# Elastic Constant Matrix: (Units=GPa)
#
#
# Indices 1 2 3 4 5 6 
#
# 1 74.3190 35.1210 26.4817 0.0000 0.0000 0.0000
# 2 35.1210 141.9946 35.7896 0.0000 0.0000 0.0000
# 3 26.4817 35.7896 67.2919 0.0000 0.0000 0.0000
# 4 0.0000 0.0000 0.0000 22.8775 0.0000 0.0000
# 5 0.0000 0.0000 0.0000 0.0000 18.9715 0.0000
# 6 0.0000 0.0000 0.0000 0.0000 0.0000 23.5779
#
#
#
# Elastic Compliance Matrix: (Units=1/GPa)
#
#
# Indices 1 2 3 4 5 6 
#
# 1 0.016584 -0.002837 -0.005017 0.000000 0.000000 0.000000
# 2 -0.002837 0.008618 -0.003467 0.000000 0.000000 0.000000
# 3 -0.005017 -0.003467 0.018679 0.000000 0.000000 0.000000
# 4 0.000000 0.000000 0.000000 0.043711 0.000000 0.000000
# 5 0.000000 0.000000 0.000000 0.000000 0.052711 0.000000
# 6 0.000000 0.000000 0.000000 0.000000 0.000000 0.042413
#
#
# Mechanical properties :
#
#
# Convention : Reuss Voigt Hill
#
# Bulk Modulus (GPa) = 47.08556 53.15447 50.12001
# Shear Modulus (GPa) = 23.53619 25.49958 24.51789
#
# Velocity S-wave (km/s) = 3.46175 3.60324 3.53320
# Velocity P-wave (km/s) = 6.32079 6.66148 6.49337
#
# Compressibility (1/GPa) = 0.02123793
#
# Stress axis : x y z
#
# Youngs Moduli (GPa) = 60.29848 116.03400 53.53569
#
# Poissons Ratio (x) = 0.32922 0.26861
# Poissons Ratio (y) = 0.17109 0.18561
# Poissons Ratio (z) = 0.30254 0.40229
#
# Static dielectric constant tensor:
#      x y z
#    x 1.718350 0.000000 0.000000 
#    y 0.000000 1.804320 0.000000 
#    z 0.000000 0.000000 1.701780 
# 
# From -- ./inp_files/45482.got.cif
#   From: 2010.05.17/outbox.cif.g08.bks.cpg/sg68_23_cif.got.tgz:45482.got - 2010.06.03 18:57:09.
