data_PCOD9506087
_publ_section_title
;
Structure prediction by ZEFSAII (Michael W. Deem and Ramdas Pophale) SiO2 
 PCOD9506087
Probable space group: C C C A
;
_chemical_formula_sum "Si O2"
_cell_formula_units_Z 112
_cell_length_a 22.650372
_cell_length_b 16.730727
_cell_length_c 15.561175
_cell_angle_alpha 90.000000
_cell_angle_beta 90.000000
_cell_angle_gamma 90.000000
_cell_volume 5897.019157
_symmetry_space_group_name_H-M "C C C A"
_symmetry_group_IT_number 68
_space_group.IT_coordinate_system_code '2'
_symmetry_cell_setting 'orthorhombic'
loop_
_space_group_symop_operation_xyz
x,y,z
-x,1/2-y,z
x,1/2-y,1/2-z
-x,y,1/2-z
-x,-y,-z
x,1/2+y,-z
-x,1/2+y,1/2+z
x,-y,1/2+z
1/2+x,1/2+y,z
1/2-x,-y,z
1/2+x,-y,1/2-z
1/2-x,1/2+y,1/2-z
1/2-x,1/2-y,-z
1/2+x,y,-z
1/2-x,y,1/2+z
1/2+x,1/2-y,1/2+z
loop_
_atom_site_type_symbol
_atom_site_label
_atom_site_fract_x
_atom_site_fract_y
_atom_site_fract_z
Si Si1 0.107829 0.013487 0.005535
Si Si2 0.052621 0.888409 0.361974
Si Si3 0.262597 0.749094 0.348091
Si Si4 0.771276 0.084532 0.437349
Si Si5 0.840384 0.858065 0.551829
Si Si6 0.081556 0.412731 0.825363
Si Si7 0.365788 0.239875 0.101704
O O1 0.061935 0.065595 0.951783
O O2 0.119928 0.936133 0.945755
O O3 0.168319 0.063732 0.013982
O O4 0.093350 0.980293 0.101701
O O5 0.078232 0.932863 0.276062
O O6 0.088411 0.805982 0.369083
O O7 0.983227 0.877848 0.346896
O O8 0.246885 0.750000 0.250000
O O9 0.280853 0.660178 0.376577
O O10 0.313450 0.812768 0.367794
O O11 0.201561 0.769954 0.396358
O O12 0.717273 0.111268 0.498542
O O13 0.750000 0.000000 0.896123
O O14 0.874505 0.792821 0.494362
O O15 0.127629 0.340579 0.841068
#
# Coordination Sequence:
#
# PCOD9506087 Si02
#       7
#    16  16  16  16  16  16  16
#     4  10  20  35  53  72 101 137 165 202 251 295
#     4  11  20  34  54  74  98 132 166 207 256 295
#     4  11  20  31  50  76 104 134 165 201 245 302
#     4   9  18  33  51  71  99 132 167 205 245 294
#     4   9  19  34  49  73 102 131 167 202 241 300
#     4  10  22  34  50  77 102 124 167 214 248 296
#     4  10  19  34  53  72  99 131 163 206 256 296
#
# _framework density 18.992645
#
# number of rings (size 3 to 8) (size 9 to 14) (size 15 to 20)
#    0.000    2.000    0.000    6.429    0.000    2.286 
#    0.000    2.143    0.000    0.000    0.000    0.000 
#    0.000    9.143    0.000    0.000    0.000    0.000 
#
# Total GULP energy -312047.638998 kJ/mol
# GULP energy per Si atom -5572.279268 kJ/mol
# Density = 1.894942 g / cm^3
# Si number density = 18.992645 Si / 1000 Ang^3
#
#
#
# Elastic Constant Matrix: (Units=GPa)
#
#
# Indices 1 2 3 4 5 6 
#
# 1 37.7804 4.3206 5.7234 0.0000 0.0000 0.0000
# 2 4.3206 63.6533 27.2640 0.0000 0.0000 0.0000
# 3 5.7234 27.2640 36.6685 0.0000 0.0000 0.0000
# 4 0.0000 0.0000 0.0000 11.7014 0.0000 0.0000
# 5 0.0000 0.0000 0.0000 0.0000 24.0403 0.0000
# 6 0.0000 0.0000 0.0000 0.0000 0.0000 19.4430
#
#
#
# Elastic Compliance Matrix: (Units=1/GPa)
#
#
# Indices 1 2 3 4 5 6 
#
# 1 0.027110 -0.000041 -0.004201 0.000000 0.000000 0.000000
# 2 -0.000041 0.023051 -0.017133 0.000000 0.000000 0.000000
# 3 -0.004201 -0.017133 0.040666 0.000000 0.000000 0.000000
# 4 0.000000 0.000000 0.000000 0.085460 0.000000 0.000000
# 5 0.000000 0.000000 0.000000 0.000000 0.041597 0.000000
# 6 0.000000 0.000000 0.000000 0.000000 0.000000 0.051432
#
#
# Mechanical properties :
#
#
# Convention : Reuss Voigt Hill
#
# Bulk Modulus (GPa) = 20.79980 23.63539 22.21760
# Shear Modulus (GPa) = 15.23966 17.75654 16.49810
#
# Velocity S-wave (km/s) = 2.83574 3.06096 2.95050
# Velocity P-wave (km/s) = 4.65802 4.99641 4.83018
#
# Compressibility (1/GPa) = 0.04807738
#
# Stress axis : x y z
#
# Youngs Moduli (GPa) = 36.88701 43.38166 24.59069
#
# Poissons Ratio (x) = 0.00177 0.10331
# Poissons Ratio (y) = 0.00150 0.42131
# Poissons Ratio (z) = 0.15497 0.74325
#
# Static dielectric constant tensor:
#      x y z
#    x 1.665230 0.000000 0.000000 
#    y 0.000000 1.680840 0.000000 
#    z 0.000000 0.000000 1.665490 
# 
# From -- ./inp_files/25489.got.cif
#   From: 2010.05.17/outbox.cif.g08.bks.cpg/sg68_13_cif.got.tgz:25489.got - 2010.06.03 18:57:09.
