data_PCOD9506196
_publ_section_title
;
Structure prediction by ZEFSAII (Michael W. Deem and Ramdas Pophale) SiO2 
 PCOD9506196
Probable space group: C C C A
;
_chemical_formula_sum "Si O2"
_cell_formula_units_Z 72
_cell_length_a 25.259548
_cell_length_b 15.836221
_cell_length_c 8.945728
_cell_angle_alpha 90.000000
_cell_angle_beta 90.000000
_cell_angle_gamma 90.000000
_cell_volume 3578.432404
_symmetry_space_group_name_H-M "C C C A"
_symmetry_group_IT_number 68
_space_group.IT_coordinate_system_code '2'
_symmetry_cell_setting 'orthorhombic'
loop_
_space_group_symop_operation_xyz
x,y,z
-x,1/2-y,z
x,1/2-y,1/2-z
-x,y,1/2-z
-x,-y,-z
x,1/2+y,-z
-x,1/2+y,1/2+z
x,-y,1/2+z
1/2+x,1/2+y,z
1/2-x,-y,z
1/2+x,-y,1/2-z
1/2-x,1/2+y,1/2-z
1/2-x,1/2-y,-z
1/2+x,y,-z
1/2-x,y,1/2+z
1/2+x,1/2-y,1/2+z
loop_
_atom_site_type_symbol
_atom_site_label
_atom_site_fract_x
_atom_site_fract_y
_atom_site_fract_z
Si Si1 0.250000 0.000000 0.764250
Si Si2 0.006789 0.127767 0.413724
Si Si3 0.578622 0.459879 0.399710
Si Si4 0.592273 0.328003 0.138996
Si Si5 0.323064 0.933259 0.504741
O O1 0.207490 0.042898 0.655706
O O2 0.280192 0.065708 0.872316
O O3 0.041879 0.179881 0.531084
O O4 0.000000 0.163687 0.250000
O O5 0.951077 0.102555 0.486707
O O6 0.040743 0.041337 0.388348
O O7 0.583471 0.410938 0.243155
O O8 0.634480 0.494173 0.459426
O O9 0.598996 0.250000 0.250000
O O10 0.642912 0.349635 0.036671
#
# Coordination Sequence:
#
# PCOD9506196 Si02
#       5
#     8  16  16  16  16
#     4  10  20  36  66  92 110 156 218 270 300 362
#     4  10  20  34  61  87 115 160 213 249 293 367
#     4  10  19  35  59  88 120 159 202 251 299 371
#     4  11  23  39  58  89 132 166 196 251 323 379
#     4  10  20  37  63  89 119 155 211 259 311 365
#
# _framework density 20.120540999999999
#
# number of rings (size 3 to 8) (size 9 to 14) (size 15 to 20)
#    0.000    1.778    2.222    4.667    3.111    1.778 
#    0.000    3.333    0.000    0.000    0.000    0.000 
#    0.000    0.000    0.000    0.000    0.000    0.000 
#
# Total GULP energy -201150.686070 kJ/mol
# GULP energy per Si atom -5587.519058 kJ/mol
# Density = 2.007475 g / cm^3
# Si number density = 20.120541 Si / 1000 Ang^3
#
#
#
# Elastic Constant Matrix: (Units=GPa)
#
#
# Indices 1 2 3 4 5 6 
#
# 1 115.9782 25.2224 62.4058 0.0000 0.0000 0.0000
# 2 25.2224 63.2508 25.8719 0.0000 0.0000 0.0000
# 3 62.4058 25.8719 144.2834 0.0000 0.0000 0.0000
# 4 0.0000 0.0000 0.0000 -13.4833 0.0000 0.0000
# 5 0.0000 0.0000 0.0000 0.0000 45.5827 0.0000
# 6 0.0000 0.0000 0.0000 0.0000 0.0000 13.5531
#
#
#
# Elastic Compliance Matrix: (Units=1/GPa)
#
#
# Indices 1 2 3 4 5 6 
#
# 1 0.011679 -0.002796 -0.004550 0.000000 0.000000 0.000000
# 2 -0.002796 0.017731 -0.001970 0.000000 0.000000 0.000000
# 3 -0.004550 -0.001970 0.009252 0.000000 0.000000 0.000000
# 4 0.000000 0.000000 0.000000 -0.074166 0.000000 0.000000
# 5 0.000000 0.000000 0.000000 0.000000 0.021938 0.000000
# 6 0.000000 0.000000 0.000000 0.000000 0.000000 0.073784
#
#
# Mechanical properties :
#
#
# Convention : Reuss Voigt Hill
#
# Bulk Modulus (GPa) = 49.92613 61.16805 55.54709
# Shear Modulus (GPa) = 58.46196 23.13132 40.79664
#
# Velocity S-wave (km/s) = 5.39620 3.39431 4.50779
# Velocity P-wave (km/s) = 7.98077 6.76968 7.40004
#
# Compressibility (1/GPa) = 0.02002959
#
# Stress axis : x y z
#
# Youngs Moduli (GPa) = 85.62687 56.39889 108.08483
#
# Poissons Ratio (x) = 0.15769 0.49177
# Poissons Ratio (y) = 0.23941 0.21293
# Poissons Ratio (z) = 0.38959 0.11111
#
# Static dielectric constant tensor:
#      x y z
#    x 1.729590 0.000000 0.000000 
#    y 0.000000 1.730430 0.000000 
#    z 0.000000 0.000000 1.726820 
# 
# From -- ./inp_files/6096.got.cif
#   From: 2010.05.17/outbox.cif.g08.bks.cpg/sg68_4_cif.got.tgz:6096.got - 2010.06.03 18:57:09.
