data_PCOD9506844
_publ_section_title
;
Structure prediction by ZEFSAII (Michael W. Deem and Ramdas Pophale) SiO2 
 PCOD9506844
Probable space group: C C C A
;
_chemical_formula_sum "Si O2"
_cell_formula_units_Z 40
_cell_length_a 10.155623
_cell_length_b 10.731401
_cell_length_c 13.217512
_cell_angle_alpha 90.000000
_cell_angle_beta 90.000000
_cell_angle_gamma 90.000000
_cell_volume 1440.498158
_symmetry_space_group_name_H-M "C C C A"
_symmetry_group_IT_number 68
_space_group.IT_coordinate_system_code '2'
_symmetry_cell_setting 'orthorhombic'
loop_
_space_group_symop_operation_xyz
x,y,z
-x,1/2-y,z
x,1/2-y,1/2-z
-x,y,1/2-z
-x,-y,-z
x,1/2+y,-z
-x,1/2+y,1/2+z
x,-y,1/2+z
1/2+x,1/2+y,z
1/2-x,-y,z
1/2+x,-y,1/2-z
1/2-x,1/2+y,1/2-z
1/2-x,1/2-y,-z
1/2+x,y,-z
1/2-x,y,1/2+z
1/2+x,1/2-y,1/2+z
loop_
_atom_site_type_symbol
_atom_site_label
_atom_site_fract_x
_atom_site_fract_y
_atom_site_fract_z
Si Si1 0.500000 0.934250 0.250000
Si Si2 0.135813 0.828918 0.163257
Si Si3 0.622681 0.078807 0.547645
O O1 0.393856 0.033624 0.205382
O O2 0.438647 0.869609 0.348440
O O3 0.209268 0.750000 0.250000
O O4 0.000000 0.750000 0.151755
O O5 0.176968 0.843402 0.047929
O O6 0.500000 0.000000 0.500000
O O7 0.750000 0.000000 0.578811
#
# Coordination Sequence:
#
# PCOD9506844 Si02
#       3
#     8  16  16
#     4   8  17  32  53  84 120 160 204 250 305 380
#     4   8  16  35  59  86 123 164 203 263 329 376
#     4  10  20  36  62  92 122 166 217 264 319 390
#
# _framework density 27.768172
#
# number of rings (size 3 to 8) (size 9 to 14) (size 15 to 20)
#    0.000    3.600    0.000    0.000    0.000    6.400 
#    0.000   19.000    0.000    0.000    0.000    0.000 
#    0.000    0.000    0.000    0.000    0.000    0.000 
#
# Total GULP energy -111607.118319 kJ/mol
# GULP energy per Si atom -5580.355916 kJ/mol
# Density = 2.770497 g / cm^3
# Si number density = 27.768172 Si / 1000 Ang^3
#
#
#
# Elastic Constant Matrix: (Units=GPa)
#
#
# Indices 1 2 3 4 5 6 
#
# 1 129.4717 40.8298 48.2430 0.0000 0.0000 0.0000
# 2 40.8298 81.1105 74.1388 0.0000 0.0000 0.0000
# 3 48.2430 74.1388 352.9610 0.0000 0.0000 0.0000
# 4 0.0000 0.0000 0.0000 2.4848 0.0000 0.0000
# 5 0.0000 0.0000 0.0000 0.0000 39.2614 0.0000
# 6 0.0000 0.0000 0.0000 0.0000 0.0000 31.0838
#
#
#
# Elastic Compliance Matrix: (Units=1/GPa)
#
#
# Indices 1 2 3 4 5 6 
#
# 1 0.009217 -0.004317 -0.000353 0.000000 0.000000 0.000000
# 2 -0.004317 0.017280 -0.003040 0.000000 0.000000 0.000000
# 3 -0.000353 -0.003040 0.003520 0.000000 0.000000 0.000000
# 4 0.000000 0.000000 0.000000 0.402443 0.000000 0.000000
# 5 0.000000 0.000000 0.000000 0.000000 0.025470 0.000000
# 6 0.000000 0.000000 0.000000 0.000000 0.000000 0.032171
#
#
# Mechanical properties :
#
#
# Convention : Reuss Voigt Hill
#
# Bulk Modulus (GPa) = 68.50359 98.88517 83.69438
# Shear Modulus (GPa) = 9.79651 41.25478 25.52564
#
# Velocity S-wave (km/s) = 1.88033 3.85864 3.03519
# Velocity P-wave (km/s) = 5.42564 7.45255 6.51836
#
# Compressibility (1/GPa) = 0.01459778
#
# Stress axis : x y z
#
# Youngs Moduli (GPa) = 108.50024 57.86944 284.09930
#
# Poissons Ratio (x) = 0.24981 0.10028
# Poissons Ratio (y) = 0.46838 0.86357
# Poissons Ratio (z) = 0.03830 0.17590
#
# Static dielectric constant tensor:
#      x y z
#    x 2.169680 0.000000 0.000000 
#    y 0.000000 2.233820 0.000000 
#    z 0.000000 0.000000 2.248930 
# 
# From -- ./inp_files/11107.got.cif
#   From: 2010.05.17/outbox.cif.g08.bks.cpg/sg68_6_cif.got.tgz:11107.got - 2010.06.03 18:57:09.
