data_PCOD9506654
_publ_section_title
;
Structure prediction by ZEFSAII (Michael W. Deem and Ramdas Pophale) SiO2 
 PCOD9506654
Probable space group: C C C A
;
_chemical_formula_sum "Si O2"
_cell_formula_units_Z 80
_cell_length_a 15.086268
_cell_length_b 7.479366
_cell_length_c 27.818915
_cell_angle_alpha 90.000000
_cell_angle_beta 90.000000
_cell_angle_gamma 90.000000
_cell_volume 3138.967302
_symmetry_space_group_name_H-M "C C C A"
_symmetry_group_IT_number 68
_space_group.IT_coordinate_system_code '2'
_symmetry_cell_setting 'orthorhombic'
loop_
_space_group_symop_operation_xyz
x,y,z
-x,1/2-y,z
x,1/2-y,1/2-z
-x,y,1/2-z
-x,-y,-z
x,1/2+y,-z
-x,1/2+y,1/2+z
x,-y,1/2+z
1/2+x,1/2+y,z
1/2-x,-y,z
1/2+x,-y,1/2-z
1/2-x,1/2+y,1/2-z
1/2-x,1/2-y,-z
1/2+x,y,-z
1/2-x,y,1/2+z
1/2+x,1/2-y,1/2+z
loop_
_atom_site_type_symbol
_atom_site_label
_atom_site_fract_x
_atom_site_fract_y
_atom_site_fract_z
Si Si1 0.644361 0.465196 0.146020
Si Si2 0.075933 0.405496 0.551738
Si Si3 0.144555 0.536997 0.146714
Si Si4 0.356056 0.535384 0.751022
Si Si5 0.348527 0.559441 0.958247
O O1 0.750000 0.500000 0.146219
O O2 0.630210 0.251569 0.148284
O O3 0.609334 0.533945 0.197478
O O4 0.616966 0.523883 0.092383
O O5 0.089374 0.519515 0.599907
O O6 0.089008 0.514746 0.503056
O O7 0.000000 0.250000 0.555277
O O8 0.159476 0.270963 0.549560
O O9 0.250000 0.500000 0.141525
O O10 0.114603 0.465658 0.198866
O O11 0.369913 0.750000 0.750000
O O12 0.250000 0.500000 0.751422
O O13 0.250000 0.500000 0.967676
#
# Coordination Sequence:
#
# PCOD9506654 Si02
#       5
#    16  16  16  16  16
#     4   8  15  27  46  72  97 122 160 209 252 290
#     4  11  22  35  50  74 106 136 167 207 254 300
#     4   9  17  29  48  71  97 129 165 204 246 298
#     4   8  13  24  43  68  96 121 154 203 252 290
#     4  10  20  35  54  74  98 132 174 212 247 296
#
# _framework density 25.486089
#
# number of rings (size 3 to 8) (size 9 to 14) (size 15 to 20)
#    0.000    2.800    0.000    1.800    0.000    3.200 
#    0.000    0.000    0.000   15.000    0.000    0.000 
#    0.000    1.600    0.000    0.000    0.000    0.000 
#
# Total GULP energy -222850.807576 kJ/mol
# GULP energy per Si atom -5571.270189 kJ/mol
# Density = 2.542808 g / cm^3
# Si number density = 25.486089 Si / 1000 Ang^3
#
#
#
# Elastic Constant Matrix: (Units=GPa)
#
#
# Indices 1 2 3 4 5 6 
#
# 1 60.5278 -12.6083 33.7685 0.0000 0.0000 0.0000
# 2 -12.6083 49.4334 7.4339 0.0000 0.0000 0.0000
# 3 33.7685 7.4339 352.9724 0.0000 0.0000 0.0000
# 4 0.0000 0.0000 0.0000 14.7621 0.0000 0.0000
# 5 0.0000 0.0000 0.0000 0.0000 -15.9649 0.0000
# 6 0.0000 0.0000 0.0000 0.0000 0.0000 15.6491
#
#
#
# Elastic Compliance Matrix: (Units=1/GPa)
#
#
# Indices 1 2 3 4 5 6 
#
# 1 0.018623 0.005034 -0.001888 0.000000 0.000000 0.000000
# 2 0.005034 0.021654 -0.000938 0.000000 0.000000 0.000000
# 3 -0.001888 -0.000938 0.003033 0.000000 0.000000 0.000000
# 4 0.000000 0.000000 0.000000 0.067741 0.000000 0.000000
# 5 0.000000 0.000000 0.000000 0.000000 -0.062637 0.000000
# 6 0.000000 0.000000 0.000000 0.000000 0.000000 0.063901
#
#
# Mechanical properties :
#
#
# Convention : Reuss Voigt Hill
#
# Bulk Modulus (GPa) = 20.95221 57.79131 39.37176
# Shear Modulus (GPa) = 40.38513 31.84522 36.11518
#
# Velocity S-wave (km/s) = 3.98502 3.53868 3.76846
# Velocity P-wave (km/s) = 5.42335 6.27863 5.86660
#
# Compressibility (1/GPa) = 0.04772767
#
# Stress axis : x y z
#
# Youngs Moduli (GPa) = 53.69689 46.18049 329.66071
#
# Poissons Ratio (x) = -0.23246 0.62229
# Poissons Ratio (y) = -0.27030 0.30910
# Poissons Ratio (z) = 0.10136 0.04330
#
# Static dielectric constant tensor:
#      x y z
#    x 2.106900 0.000000 0.000000 
#    y 0.000000 2.117970 0.000000 
#    z 0.000000 0.000000 2.191670 
# 
# From -- ./inp_files/51285.got.cif
#   From: 2010.05.17/outbox.cif.g08.bks.cpg/sg68_26_cif.got.tgz:51285.got - 2010.06.03 18:57:09.
