data_PCOD9506139
_publ_section_title
;
Structure prediction by ZEFSAII (Michael W. Deem and Ramdas Pophale) SiO2 
 PCOD9506139
Probable space group: C C C A
;
_chemical_formula_sum "Si O2"
_cell_formula_units_Z 112
_cell_length_a 14.557615
_cell_length_b 25.473827
_cell_length_c 15.715314
_cell_angle_alpha 90.000000
_cell_angle_beta 90.000000
_cell_angle_gamma 90.000000
_cell_volume 5827.838223
_symmetry_space_group_name_H-M "C C C A"
_symmetry_group_IT_number 68
_space_group.IT_coordinate_system_code '2'
_symmetry_cell_setting 'orthorhombic'
loop_
_space_group_symop_operation_xyz
x,y,z
-x,1/2-y,z
x,1/2-y,1/2-z
-x,y,1/2-z
-x,-y,-z
x,1/2+y,-z
-x,1/2+y,1/2+z
x,-y,1/2+z
1/2+x,1/2+y,z
1/2-x,-y,z
1/2+x,-y,1/2-z
1/2-x,1/2+y,1/2-z
1/2-x,1/2-y,-z
1/2+x,y,-z
1/2-x,y,1/2+z
1/2+x,1/2-y,1/2+z
loop_
_atom_site_type_symbol
_atom_site_label
_atom_site_fract_x
_atom_site_fract_y
_atom_site_fract_z
Si Si1 0.013108 0.311591 0.373043
Si Si2 0.050447 0.069363 0.836288
Si Si3 0.705229 0.558224 0.526588
Si Si4 0.384933 0.874110 0.278079
Si Si5 0.893976 0.383782 0.003990
Si Si6 0.034456 0.955012 0.898085
Si Si7 0.283987 0.940516 0.718819
O O1 0.911657 0.337735 0.359805
O O2 0.000000 0.250000 0.364120
O O3 0.073113 0.339582 0.298607
O O4 0.069436 0.329709 0.455756
O O5 0.063154 0.110478 0.910858
O O6 0.149791 0.056157 0.798954
O O7 0.000000 0.085757 0.750000
O O8 0.014972 0.015436 0.878291
O O9 0.750000 0.500000 0.522677
O O10 0.786794 0.599597 0.502758
O O11 0.618257 0.554927 0.463777
O O12 0.677693 0.571537 0.624201
O O13 0.433287 0.927411 0.311219
O O14 0.289054 0.895864 0.244364
O O15 0.944176 0.427227 0.064505
O O16 0.250000 0.000000 0.709463
#
# Coordination Sequence:
#
# PCOD9506139 Si02
#       7
#    16  16  16  16  16  16  16
#     4  10  22  41  66  95 118 155 215 280 320 355
#     4  12  25  35  55  86 128 172 210 242 304 378
#     4  11  22  36  55  84 128 176 210 241 299 377
#     4  10  19  34  59  90 122 157 196 252 321 360
#     4  11  23  39  60  87 122 172 209 260 315 367
#     4  11  23  35  54  85 132 171 206 244 301 385
#     4  11  22  34  53  86 131 172 205 243 295 382
#
# _framework density 19.218104
#
# number of rings (size 3 to 8) (size 9 to 14) (size 15 to 20)
#    0.000    1.143    4.286    3.000    8.000    0.000 
#    0.000    0.000    0.000    8.143    7.429    0.000 
#    0.000    0.000    0.000    0.000    0.000    0.000 
#
# Total GULP energy -312050.250434 kJ/mol
# GULP energy per Si atom -5572.325901 kJ/mol
# Density = 1.917436 g / cm^3
# Si number density = 19.218104 Si / 1000 Ang^3
#
#
#
# Elastic Constant Matrix: (Units=GPa)
#
#
# Indices 1 2 3 4 5 6 
#
# 1 54.4041 20.2966 13.7311 0.0000 0.0000 0.0000
# 2 20.2966 74.8555 10.0534 0.0000 0.0000 0.0000
# 3 13.7311 10.0534 81.2609 0.0000 0.0000 0.0000
# 4 0.0000 0.0000 0.0000 16.9449 0.0000 0.0000
# 5 0.0000 0.0000 0.0000 0.0000 -5.2057 0.0000
# 6 0.0000 0.0000 0.0000 0.0000 0.0000 14.5460
#
#
#
# Elastic Compliance Matrix: (Units=1/GPa)
#
#
# Indices 1 2 3 4 5 6 
#
# 1 0.021104 -0.005332 -0.002906 0.000000 0.000000 0.000000
# 2 -0.005332 0.014932 -0.000946 0.000000 0.000000 0.000000
# 3 -0.002906 -0.000946 0.012914 0.000000 0.000000 0.000000
# 4 0.000000 0.000000 0.000000 0.059015 0.000000 0.000000
# 5 0.000000 0.000000 0.000000 0.000000 -0.192097 0.000000
# 6 0.000000 0.000000 0.000000 0.000000 0.000000 0.068747
#
#
# Mechanical properties :
#
#
# Convention : Reuss Voigt Hill
#
# Bulk Modulus (GPa) = 32.70039 33.18694 32.94367
# Shear Modulus (GPa) = 379.42066 16.35300 197.88683
#
# Velocity S-wave (km/s) = 14.06618 2.92021 10.15837
# Velocity P-wave (km/s) = 16.75894 5.35502 12.44063
#
# Compressibility (1/GPa) = 0.03058067
#
# Stress axis : x y z
#
# Youngs Moduli (GPa) = 47.38517 66.97094 77.43394
#
# Poissons Ratio (x) = 0.35707 0.22505
# Poissons Ratio (y) = 0.25265 0.07328
# Poissons Ratio (z) = 0.13772 0.06338
#
# Static dielectric constant tensor:
#      x y z
#    x 1.801420 0.000000 0.000000 
#    y 0.000000 1.643300 0.000000 
#    z 0.000000 0.000000 1.745040 
# 
# From -- ./inp_files/22752.got.cif
#   From: 2010.05.17/outbox.cif.g08.bks.cpg/sg68_12_cif.got.tgz:22752.got - 2010.06.03 18:57:09.
