data_PCOD9506721
_publ_section_title
;
Structure prediction by ZEFSAII (Michael W. Deem and Ramdas Pophale) SiO2 
 PCOD9506721
Probable space group: C C C A
;
_chemical_formula_sum "Si O2"
_cell_formula_units_Z 88
_cell_length_a 14.441192
_cell_length_b 16.368117
_cell_length_c 18.464522
_cell_angle_alpha 90.000000
_cell_angle_beta 90.000000
_cell_angle_gamma 90.000000
_cell_volume 4364.553609
_symmetry_space_group_name_H-M "C C C A"
_symmetry_group_IT_number 68
_space_group.IT_coordinate_system_code '2'
_symmetry_cell_setting 'orthorhombic'
loop_
_space_group_symop_operation_xyz
x,y,z
-x,1/2-y,z
x,1/2-y,1/2-z
-x,y,1/2-z
-x,-y,-z
x,1/2+y,-z
-x,1/2+y,1/2+z
x,-y,1/2+z
1/2+x,1/2+y,z
1/2-x,-y,z
1/2+x,-y,1/2-z
1/2-x,1/2+y,1/2-z
1/2-x,1/2-y,-z
1/2+x,y,-z
1/2-x,y,1/2+z
1/2+x,1/2-y,1/2+z
loop_
_atom_site_type_symbol
_atom_site_label
_atom_site_fract_x
_atom_site_fract_y
_atom_site_fract_z
Si Si1 0.853879 0.250000 0.250000
Si Si2 0.750000 0.500000 0.600180
Si Si3 0.500000 0.119102 0.250000
Si Si4 0.058046 0.468551 0.603536
Si Si5 0.250000 0.500000 0.156937
Si Si6 0.917611 0.398079 0.042182
Si Si7 0.500000 0.250000 0.633004
Si Si8 0.199341 0.125867 0.718883
O O1 0.783822 0.188272 0.290057
O O2 0.922516 0.286598 0.311432
O O3 0.817316 0.561186 0.557055
O O4 0.805566 0.439587 0.654077
O O5 0.473445 0.063759 0.318844
O O6 0.596746 0.161936 0.270608
O O7 0.158102 0.510578 0.610677
O O8 0.066502 0.396652 0.544099
O O9 0.986954 0.534543 0.574442
O O10 0.228783 0.576100 0.209267
O O11 0.946013 0.315557 0.083571
#
# Coordination Sequence:
#
# PCOD9506721 Si02
#       8
#     8   8   8  16   8  16   8  16
#     4  11  22  39  60  96 132 171 210 271 340 388
#     4  11  19  38  64  90 130 172 218 260 330 412
#     4  10  20  39  64  89 118 168 222 278 298 391
#     4  10  21  37  63  89 123 163 223 263 330 386
#     4   9  19  36  58  86 116 164 216 272 298 396
#     4  11  22  38  63  95 126 168 211 274 334 406
#     4  11  24  38  62  95 138 168 214 281 344 392
#     4  10  20  35  61  92 123 165 218 266 326 385
#
# _framework density 20.162428999999999
#
# number of rings (size 3 to 8) (size 9 to 14) (size 15 to 20)
#    0.000    1.636    3.636    1.636    0.000    1.818 
#    0.000    3.636    0.000   10.909    0.000    0.000 
#    0.000    0.000    0.000    0.000    0.000    0.000 
#
# Total GULP energy -245206.444363 kJ/mol
# GULP energy per Si atom -5572.873736 kJ/mol
# Density = 2.011654 g / cm^3
# Si number density = 20.162429 Si / 1000 Ang^3
#
#
#
# Elastic Constant Matrix: (Units=GPa)
#
#
# Indices 1 2 3 4 5 6 
#
# 1 145.9118 23.8881 31.3674 0.0000 0.0000 0.0000
# 2 23.8881 55.7152 23.3748 0.0000 0.0000 0.0000
# 3 31.3674 23.3748 117.3429 0.0000 0.0000 0.0000
# 4 0.0000 0.0000 0.0000 11.8569 0.0000 0.0000
# 5 0.0000 0.0000 0.0000 0.0000 -2.6599 0.0000
# 6 0.0000 0.0000 0.0000 0.0000 0.0000 9.2197
#
#
#
# Elastic Compliance Matrix: (Units=1/GPa)
#
#
# Indices 1 2 3 4 5 6 
#
# 1 0.007608 -0.002629 -0.001510 0.000000 0.000000 0.000000
# 2 -0.002629 0.020493 -0.003380 0.000000 0.000000 0.000000
# 3 -0.001510 -0.003380 0.009599 0.000000 0.000000 0.000000
# 4 0.000000 0.000000 0.000000 0.084339 0.000000 0.000000
# 5 0.000000 0.000000 0.000000 0.000000 -0.375954 0.000000
# 6 0.000000 0.000000 0.000000 0.000000 0.000000 0.108463
#
#
# Mechanical properties :
#
#
# Convention : Reuss Voigt Hill
#
# Bulk Modulus (GPa) = 44.12302 52.91449 48.51876
# Shear Modulus (GPa) = -40.69716 19.70597 -10.49559
#
# Velocity S-wave (km/s) = -4.49761 3.12967 -2.28404
# Velocity P-wave (km/s) = 2.24500 6.27382 4.14251
#
# Compressibility (1/GPa) = 0.02266391
#
# Stress axis : x y z
#
# Youngs Moduli (GPa) = 131.43272 48.79637 104.17793
#
# Poissons Ratio (x) = 0.12826 0.15733
# Poissons Ratio (y) = 0.34548 0.35208
# Poissons Ratio (z) = 0.19849 0.16491
#
# Static dielectric constant tensor:
#      x y z
#    x 1.769610 0.000000 0.000000 
#    y 0.000000 1.702820 0.000000 
#    z 0.000000 0.000000 1.726740 
# 
# From -- ./inp_files/30976.got.cif
#   From: 2010.05.17/outbox.cif.g08.bks.cpg/sg68_16_cif.got.tgz:30976.got - 2010.06.03 18:57:09.
