data_PCOD9506724
_publ_section_title
;
Structure prediction by ZEFSAII (Michael W. Deem and Ramdas Pophale) SiO2 
 PCOD9506724
Probable space group: C C C A
;
_chemical_formula_sum "Si O2"
_cell_formula_units_Z 96
_cell_length_a 19.703080
_cell_length_b 14.335909
_cell_length_c 18.325097
_cell_angle_alpha 90.000000
_cell_angle_beta 90.000000
_cell_angle_gamma 90.000000
_cell_volume 5176.135521
_symmetry_space_group_name_H-M "C C C A"
_symmetry_group_IT_number 68
_space_group.IT_coordinate_system_code '2'
_symmetry_cell_setting 'orthorhombic'
loop_
_space_group_symop_operation_xyz
x,y,z
-x,1/2-y,z
x,1/2-y,1/2-z
-x,y,1/2-z
-x,-y,-z
x,1/2+y,-z
-x,1/2+y,1/2+z
x,-y,1/2+z
1/2+x,1/2+y,z
1/2-x,-y,z
1/2+x,-y,1/2-z
1/2-x,1/2+y,1/2-z
1/2-x,1/2-y,-z
1/2+x,y,-z
1/2-x,y,1/2+z
1/2+x,1/2-y,1/2+z
loop_
_atom_site_type_symbol
_atom_site_label
_atom_site_fract_x
_atom_site_fract_y
_atom_site_fract_z
Si Si1 0.963460 0.993190 0.828315
Si Si2 0.951947 0.661307 0.921057
Si Si3 0.061794 0.820778 0.083932
Si Si4 0.824418 0.693446 0.825258
Si Si5 0.670774 0.201428 0.171848
Si Si6 0.326548 0.001465 0.252925
O O1 0.960839 0.094806 0.864246
O O2 0.883973 0.978514 0.807103
O O3 0.000000 0.993286 0.750000
O O4 0.005335 0.919906 0.878916
O O5 0.887265 0.701831 0.878271
O O6 0.000000 0.750000 0.926549
O O7 0.928133 0.636562 0.003038
O O8 0.122678 0.757637 0.116577
O O9 0.000000 0.750000 0.080454
O O10 0.834658 0.750000 0.750000
O O11 0.748796 0.714754 0.852906
O O12 0.825002 0.584635 0.807041
O O13 0.663250 0.250000 0.250000
O O14 0.659019 0.093507 0.197354
O O15 0.250000 0.000000 0.220369
#
# Coordination Sequence:
#
# PCOD9506724 Si02
#       6
#    16  16  16  16  16  16
#     4  12  22  38  67  92 119 166 212 259 311 377
#     4  11  25  41  58  89 128 164 201 260 318 379
#     4  11  25  40  59  91 127 161 203 260 323 378
#     4  10  21  38  64  91 122 161 213 260 303 372
#     4  10  20  38  63  91 121 162 209 259 309 371
#     4  10  20  35  61  96 124 153 209 266 306 364
#
# _framework density 18.546655000000001
#
# number of rings (size 3 to 8) (size 9 to 14) (size 15 to 20)
#    0.000    1.333    3.333    2.500    0.000    0.667 
#    0.000    0.000    0.000    0.000    0.000    0.000 
#    0.000    0.000    0.000    0.000    0.000    0.000 
#
# Total GULP energy -267286.524480 kJ/mol
# GULP energy per Si atom -5568.469260 kJ/mol
# Density = 1.850444 g / cm^3
# Si number density = 18.546655 Si / 1000 Ang^3
#
#
#
# Elastic Constant Matrix: (Units=GPa)
#
#
# Indices 1 2 3 4 5 6 
#
# 1 135.0873 37.9730 71.4037 0.0000 0.0000 0.0000
# 2 37.9730 109.5535 51.0600 0.0000 0.0000 0.0000
# 3 71.4037 51.0600 90.0448 0.0000 0.0000 0.0000
# 4 0.0000 0.0000 0.0000 22.8888 0.0000 0.0000
# 5 0.0000 0.0000 0.0000 0.0000 -49.4702 0.0000
# 6 0.0000 0.0000 0.0000 0.0000 0.0000 30.7992
#
#
#
# Elastic Compliance Matrix: (Units=1/GPa)
#
#
# Indices 1 2 3 4 5 6 
#
# 1 0.012757 0.000398 -0.010342 0.000000 0.000000 0.000000
# 2 0.000398 0.012419 -0.007358 0.000000 0.000000 0.000000
# 3 -0.010342 -0.007358 0.023479 0.000000 0.000000 0.000000
# 4 0.000000 0.000000 0.000000 0.043689 0.000000 0.000000
# 5 0.000000 0.000000 0.000000 0.000000 -0.020214 0.000000
# 6 0.000000 0.000000 0.000000 0.000000 0.000000 0.032468
#
#
# Mechanical properties :
#
#
# Convention : Reuss Voigt Hill
#
# Bulk Modulus (GPa) = 71.16587 72.83988 72.00287
# Shear Modulus (GPa) = 34.74935 12.46015 23.60475
#
# Velocity S-wave (km/s) = 4.33323 2.59477 3.57139
# Velocity P-wave (km/s) = 7.96809 6.95243 7.47752
#
# Compressibility (1/GPa) = 0.01405168
#
# Stress axis : x y z
#
# Youngs Moduli (GPa) = 78.38692 80.51912 42.59086
#
# Poissons Ratio (x) = -0.03207 0.44048
# Poissons Ratio (y) = -0.03122 0.31340
# Poissons Ratio (z) = 0.81069 0.59248
#
# Static dielectric constant tensor:
#      x y z
#    x 1.756730 0.000000 0.000000 
#    y 0.000000 1.806840 0.000000 
#    z 0.000000 0.000000 1.673840 
# 
# From -- ./inp_files/24467.got.cif
#   From: 2010.05.17/outbox.cif.g08.bks.cpg/sg68_13_cif.got.tgz:24467.got - 2010.06.03 18:57:09.
