data_PCOD9506128
_publ_section_title
;
Structure prediction by ZEFSAII (Michael W. Deem and Ramdas Pophale) SiO2 
 PCOD9506128
Probable space group: C C C A
;
_chemical_formula_sum "Si O2"
_cell_formula_units_Z 120
_cell_length_a 24.147130
_cell_length_b 11.641633
_cell_length_c 22.376004
_cell_angle_alpha 90.000000
_cell_angle_beta 90.000000
_cell_angle_gamma 90.000000
_cell_volume 6290.163806
_symmetry_space_group_name_H-M "C C C A"
_symmetry_group_IT_number 68
_space_group.IT_coordinate_system_code '2'
_symmetry_cell_setting 'orthorhombic'
loop_
_space_group_symop_operation_xyz
x,y,z
-x,1/2-y,z
x,1/2-y,1/2-z
-x,y,1/2-z
-x,-y,-z
x,1/2+y,-z
-x,1/2+y,1/2+z
x,-y,1/2+z
1/2+x,1/2+y,z
1/2-x,-y,z
1/2+x,-y,1/2-z
1/2-x,1/2+y,1/2-z
1/2-x,1/2-y,-z
1/2+x,y,-z
1/2-x,y,1/2+z
1/2+x,1/2-y,1/2+z
loop_
_atom_site_type_symbol
_atom_site_label
_atom_site_fract_x
_atom_site_fract_y
_atom_site_fract_z
Si Si1 0.250000 0.500000 0.375685
Si Si2 0.434459 0.263137 0.320072
Si Si3 0.727042 0.265473 0.679652
Si Si4 0.842853 0.107359 0.095546
Si Si5 0.664357 0.842217 0.617544
Si Si6 0.471131 0.865126 0.440904
Si Si7 0.556911 0.930759 0.929377
Si Si8 0.170607 0.131741 0.535718
O O1 0.278039 0.599190 0.335992
O O2 0.213438 0.575166 0.420117
O O3 0.500000 0.250000 0.322306
O O4 0.419187 0.250000 0.250000
O O5 0.395272 0.170313 0.351083
O O6 0.428730 0.372691 0.365289
O O7 0.723597 0.250000 0.750000
O O8 0.680418 0.191917 0.645647
O O9 0.786380 0.214232 0.656810
O O10 0.909134 0.119043 0.084827
O O11 0.826499 0.975752 0.107230
O O12 0.813878 0.139778 0.032938
O O13 0.659315 0.760619 0.559352
O O14 0.500000 0.750000 0.418844
O O15 0.467018 0.858830 0.513825
O O16 0.512621 0.968256 0.423750
O O17 0.617589 0.952912 0.956944
#
# Coordination Sequence:
#
# PCOD9506128 Si02
#       8
#     8  16  16  16  16  16  16  16
#     4  10  24  40  64  92 124 158 208 262 316 376
#     4  10  19  34  58  87 117 157 207 259 307 358
#     4  11  26  44  64  90 122 175 212 254 306 378
#     4  11  24  38  65  94 123 165 205 262 317 373
#     4  10  22  41  61  90 125 161 208 258 313 379
#     4  10  21  36  60  92 126 163 202 252 322 382
#     4   9  19  36  57  87 124 163 201 254 305 379
#     4   9  22  37  63  96 124 160 198 264 324 368
#
# _framework density 19.077404999999999
#
# number of rings (size 3 to 8) (size 9 to 14) (size 15 to 20)
#    0.000    2.000    0.000    2.000    7.467    8.533 
#    0.000    0.000    0.000    0.400    0.000    0.000 
#    0.000    0.000    0.000    0.000    0.000    0.000 
#
# Total GULP energy -334033.973138 kJ/mol
# GULP energy per Si atom -5567.232886 kJ/mol
# Density = 1.903398 g / cm^3
# Si number density = 19.077405 Si / 1000 Ang^3
#
#
#
# Elastic Constant Matrix: (Units=GPa)
#
#
# Indices 1 2 3 4 5 6 
#
# 1 40.3355 28.9223 24.3139 0.0000 0.0000 0.0000
# 2 28.9223 113.5677 55.7749 0.0000 0.0000 0.0000
# 3 24.3139 55.7749 137.7068 0.0000 0.0000 0.0000
# 4 0.0000 0.0000 0.0000 11.2839 0.0000 0.0000
# 5 0.0000 0.0000 0.0000 0.0000 -45.3959 0.0000
# 6 0.0000 0.0000 0.0000 0.0000 0.0000 27.6187
#
#
#
# Elastic Compliance Matrix: (Units=1/GPa)
#
#
# Indices 1 2 3 4 5 6 
#
# 1 0.031208 -0.006543 -0.002860 0.000000 0.000000 0.000000
# 2 -0.006543 0.012364 -0.003852 0.000000 0.000000 0.000000
# 3 -0.002860 -0.003852 0.009327 0.000000 0.000000 0.000000
# 4 0.000000 0.000000 0.000000 0.088622 0.000000 0.000000
# 5 0.000000 0.000000 0.000000 0.000000 -0.022028 0.000000
# 6 0.000000 0.000000 0.000000 0.000000 0.000000 0.036207
#
#
# Mechanical properties :
#
#
# Convention : Reuss Voigt Hill
#
# Bulk Modulus (GPa) = 37.89659 56.62578 47.26119
# Shear Modulus (GPa) = 26.17717 10.87460 18.52588
#
# Velocity S-wave (km/s) = 3.70828 2.39011 3.11961
# Velocity P-wave (km/s) = 6.18408 6.11256 6.14843
#
# Compressibility (1/GPa) = 0.02638760
#
# Stress axis : x y z
#
# Youngs Moduli (GPa) = 32.04333 80.88278 107.21489
#
# Poissons Ratio (x) = 0.52922 0.30664
# Poissons Ratio (y) = 0.20966 0.41302
# Poissons Ratio (z) = 0.09164 0.31159
#
# Static dielectric constant tensor:
#      x y z
#    x 1.727810 0.000000 0.000000 
#    y 0.000000 1.664180 0.000000 
#    z 0.000000 0.000000 1.706370 
# 
# From -- ./inp_files/40931.got.cif
#   From: 2010.05.17/outbox.cif.g08.bks.cpg/sg68_21_cif.got.tgz:40931.got - 2010.06.03 18:57:09.
