data_PCOD9506949
_publ_section_title
;
Structure prediction by ZEFSAII (Michael W. Deem and Ramdas Pophale) SiO2 
 PCOD9506949
Probable space group: C C C A
;
_chemical_formula_sum "Si O2"
_cell_formula_units_Z 96
_cell_length_a 12.318864
_cell_length_b 16.431844
_cell_length_c 22.974292
_cell_angle_alpha 90.000000
_cell_angle_beta 90.000000
_cell_angle_gamma 90.000000
_cell_volume 4650.494129
_symmetry_space_group_name_H-M "C C C A"
_symmetry_group_IT_number 68
_space_group.IT_coordinate_system_code '2'
_symmetry_cell_setting 'orthorhombic'
loop_
_space_group_symop_operation_xyz
x,y,z
-x,1/2-y,z
x,1/2-y,1/2-z
-x,y,1/2-z
-x,-y,-z
x,1/2+y,-z
-x,1/2+y,1/2+z
x,-y,1/2+z
1/2+x,1/2+y,z
1/2-x,-y,z
1/2+x,-y,1/2-z
1/2-x,1/2+y,1/2-z
1/2-x,1/2-y,-z
1/2+x,y,-z
1/2-x,y,1/2+z
1/2+x,1/2-y,1/2+z
loop_
_atom_site_type_symbol
_atom_site_label
_atom_site_fract_x
_atom_site_fract_y
_atom_site_fract_z
Si Si1 0.112399 0.776474 0.340492
Si Si2 0.813432 0.339759 0.561189
Si Si3 0.750000 0.000000 0.369119
Si Si4 0.194218 0.250000 0.250000
Si Si5 0.256301 0.088144 0.856934
Si Si6 0.881440 0.286181 0.438089
Si Si7 0.381141 0.921316 0.235046
O O1 0.118876 0.717708 0.395672
O O2 0.218778 0.760460 0.301835
O O3 0.136735 0.870330 0.355801
O O4 0.000000 0.750000 0.311987
O O5 0.795767 0.427260 0.590803
O O6 0.870629 0.335444 0.498718
O O7 0.699014 0.291457 0.556555
O O8 0.663590 0.962313 0.323253
O O9 0.120951 0.175992 0.228681
O O10 0.335616 0.151309 0.889797
O O11 0.304299 0.072653 0.792167
O O12 0.250000 0.000000 0.886191
O O13 0.000000 0.250000 0.426849
O O14 0.500000 0.952703 0.250000
#
# Coordination Sequence:
#
# PCOD9506949 Si02
#       7
#    16  16   8   8  16  16  16
#     4  10  20  37  62  85 130 180 215 272 353 407
#     4  10  23  43  65  93 138 172 223 291 336 423
#     4  12  24  44  62 104 140 172 232 290 350 414
#     4  10  20  40  58  94 122 172 238 274 322 420
#     4  10  23  41  63  99 135 168 231 291 334 415
#     4  10  23  45  72  96 130 182 236 278 350 415
#     4  11  24  41  65  92 137 179 220 281 351 408
#
# _framework density 20.642969000000001
#
# number of rings (size 3 to 8) (size 9 to 14) (size 15 to 20)
#    0.000    1.667    2.500    1.000    3.500    1.333 
#    0.000    0.833    0.000    0.000    0.000    0.000 
#    0.000    0.000    0.000    0.000    0.000    0.000 
#
# Total GULP energy -267585.384144 kJ/mol
# GULP energy per Si atom -5574.695503 kJ/mol
# Density = 2.059598 g / cm^3
# Si number density = 20.642969 Si / 1000 Ang^3
#
#
#
# Elastic Constant Matrix: (Units=GPa)
#
#
# Indices 1 2 3 4 5 6 
#
# 1 99.7505 48.6437 19.6383 0.0000 0.0000 0.0000
# 2 48.6437 142.5240 47.3152 0.0000 0.0000 0.0000
# 3 19.6383 47.3152 120.8514 0.0000 0.0000 0.0000
# 4 0.0000 0.0000 0.0000 35.2202 0.0000 0.0000
# 5 0.0000 0.0000 0.0000 0.0000 7.0083 0.0000
# 6 0.0000 0.0000 0.0000 0.0000 0.0000 -5.8752
#
#
#
# Elastic Compliance Matrix: (Units=1/GPa)
#
#
# Indices 1 2 3 4 5 6 
#
# 1 0.012043 -0.003978 -0.000400 0.000000 0.000000 0.000000
# 2 -0.003978 0.009378 -0.003025 0.000000 0.000000 0.000000
# 3 -0.000400 -0.003025 0.009524 0.000000 0.000000 0.000000
# 4 0.000000 0.000000 0.000000 0.028393 0.000000 0.000000
# 5 0.000000 0.000000 0.000000 0.000000 0.142687 0.000000
# 6 0.000000 0.000000 0.000000 0.000000 0.000000 -0.170207
#
#
# Mechanical properties :
#
#
# Convention : Reuss Voigt Hill
#
# Bulk Modulus (GPa) = 61.95719 66.03560 63.99639
# Shear Modulus (GPa) = 96.14495 23.77258 59.95876
#
# Velocity S-wave (km/s) = 6.83200 3.39721 5.39524
# Velocity P-wave (km/s) = 9.60801 6.88817 8.35945
#
# Compressibility (1/GPa) = 0.01614018
#
# Stress axis : x y z
#
# Youngs Moduli (GPa) = 83.03249 106.62855 104.99724
#
# Poissons Ratio (x) = 0.42414 0.04197
# Poissons Ratio (y) = 0.33028 0.31766
# Poissons Ratio (z) = 0.03319 0.32259
#
# Static dielectric constant tensor:
#      x y z
#    x 1.683000 0.000000 0.000000 
#    y 0.000000 1.817960 0.000000 
#    z 0.000000 0.000000 1.783520 
# 
# From -- ./inp_files/44474.got.cif
#   From: 2010.05.17/outbox.cif.g08.bks.cpg/sg68_23_cif.got.tgz:44474.got - 2010.06.03 18:57:09.
