data_PCOD9506762
_publ_section_title
;
Structure prediction by ZEFSAII (Michael W. Deem and Ramdas Pophale) SiO2 
 PCOD9506762
Probable space group: C C C A
;
_chemical_formula_sum "Si O2"
_cell_formula_units_Z 88
_cell_length_a 24.743592
_cell_length_b 10.264847
_cell_length_c 15.165570
_cell_angle_alpha 90.000000
_cell_angle_beta 90.000000
_cell_angle_gamma 90.000000
_cell_volume 3851.890781
_symmetry_space_group_name_H-M "C C C A"
_symmetry_group_IT_number 68
_space_group.IT_coordinate_system_code '2'
_symmetry_cell_setting 'orthorhombic'
loop_
_space_group_symop_operation_xyz
x,y,z
-x,1/2-y,z
x,1/2-y,1/2-z
-x,y,1/2-z
-x,-y,-z
x,1/2+y,-z
-x,1/2+y,1/2+z
x,-y,1/2+z
1/2+x,1/2+y,z
1/2-x,-y,z
1/2+x,-y,1/2-z
1/2-x,1/2+y,1/2-z
1/2-x,1/2-y,-z
1/2+x,y,-z
1/2-x,y,1/2+z
1/2+x,1/2-y,1/2+z
loop_
_atom_site_type_symbol
_atom_site_label
_atom_site_fract_x
_atom_site_fract_y
_atom_site_fract_z
Si Si1 0.086914 0.250000 0.250000
Si Si2 0.671196 0.430177 0.816789
Si Si3 0.839071 0.718535 0.077562
Si Si4 0.582978 0.866355 0.684765
Si Si5 0.762789 0.750000 0.250000
Si Si6 0.500000 0.048631 0.750000
Si Si7 0.808428 0.036864 0.488970
O O1 0.126988 0.314263 0.179344
O O2 0.046757 0.358845 0.288107
O O3 0.633729 0.546898 0.778985
O O4 0.721921 0.371613 0.764937
O O5 0.689308 0.483206 0.910787
O O6 0.893964 0.796079 0.099061
O O7 0.799019 0.733539 0.162150
O O8 0.815208 0.807927 0.997679
O O9 0.847379 0.565931 0.059315
O O10 0.570353 0.750000 0.750000
O O11 0.531486 0.959238 0.680189
O O12 0.750000 0.000000 0.451989
#
# Coordination Sequence:
#
# PCOD9506762 Si02
#       7
#     8  16  16  16   8   8  16
#     4   8  16  35  60  94 108 157 202 264 326 358
#     4   9  20  35  59  87 125 160 210 252 305 370
#     4  11  24  40  60  88 128 168 215 253 309 369
#     4  10  20  36  56  90 116 151 200 266 309 366
#     4  11  20  39  62  86 124 163 216 265 284 368
#     4   9  17  34  62  88 117 141 202 278 322 373
#     4  11  22  40  55  86 129 178 208 247 307 378
#
# _framework density 22.845922999999999
#
# number of rings (size 3 to 8) (size 9 to 14) (size 15 to 20)
#    0.000    2.000    2.727    0.818    0.000    1.455 
#    6.545    0.000    0.000    1.091   14.182    0.000 
#    0.000    0.000    0.000    0.000    0.000    0.000 
#
# Total GULP energy -245278.717785 kJ/mol
# GULP energy per Si atom -5574.516313 kJ/mol
# Density = 2.279392 g / cm^3
# Si number density = 22.845923 Si / 1000 Ang^3
#
#
#
# Elastic Constant Matrix: (Units=GPa)
#
#
# Indices 1 2 3 4 5 6 
#
# 1 87.8248 35.8059 20.9897 0.0000 0.0000 0.0000
# 2 35.8059 104.6001 26.7042 0.0000 0.0000 0.0000
# 3 20.9897 26.7042 33.9223 0.0000 0.0000 0.0000
# 4 0.0000 0.0000 0.0000 29.3350 0.0000 0.0000
# 5 0.0000 0.0000 0.0000 0.0000 11.4420 0.0000
# 6 0.0000 0.0000 0.0000 0.0000 0.0000 38.1151
#
#
#
# Elastic Compliance Matrix: (Units=1/GPa)
#
#
# Indices 1 2 3 4 5 6 
#
# 1 0.014207 -0.003278 -0.006210 0.000000 0.000000 0.000000
# 2 -0.003278 0.012721 -0.007986 0.000000 0.000000 0.000000
# 3 -0.006210 -0.007986 0.039609 0.000000 0.000000 0.000000
# 4 0.000000 0.000000 0.000000 0.034089 0.000000 0.000000
# 5 0.000000 0.000000 0.000000 0.000000 0.087398 0.000000
# 6 0.000000 0.000000 0.000000 0.000000 0.000000 0.026236
#
#
# Mechanical properties :
#
#
# Convention : Reuss Voigt Hill
#
# Bulk Modulus (GPa) = 31.65736 43.70519 37.68128
# Shear Modulus (GPa) = 19.25023 25.30157 22.27590
#
# Velocity S-wave (km/s) = 2.90593 3.33150 3.12597
# Velocity P-wave (km/s) = 5.01460 5.82842 5.43676
#
# Compressibility (1/GPa) = 0.03158823
#
# Stress axis : x y z
#
# Youngs Moduli (GPa) = 70.38862 78.60990 25.24701
#
# Poissons Ratio (x) = 0.25766 0.15679
# Poissons Ratio (y) = 0.23071 0.20163
# Poissons Ratio (z) = 0.43714 0.62779
#
# Static dielectric constant tensor:
#      x y z
#    x 1.889000 0.000000 0.000000 
#    y 0.000000 1.994330 0.000000 
#    z 0.000000 0.000000 1.869450 
# 
# From -- ./inp_files/25981.got.cif
#   From: 2010.05.17/outbox.cif.g08.bks.cpg/sg68_13_cif.got.tgz:25981.got - 2010.06.03 18:57:09.
