data_PCOD9506325
_publ_section_title
;
Structure prediction by ZEFSAII (Michael W. Deem and Ramdas Pophale) SiO2 
 PCOD9506325
Probable space group: C C C A
;
_chemical_formula_sum "Si O2"
_cell_formula_units_Z 68
_cell_length_a 19.992266
_cell_length_b 5.086344
_cell_length_c 32.596897
_cell_angle_alpha 90.000000
_cell_angle_beta 90.000000
_cell_angle_gamma 90.000000
_cell_volume 3314.698340
_symmetry_space_group_name_H-M "C C C A"
_symmetry_group_IT_number 68
_space_group.IT_coordinate_system_code '2'
_symmetry_cell_setting 'orthorhombic'
loop_
_space_group_symop_operation_xyz
x,y,z
-x,1/2-y,z
x,1/2-y,1/2-z
-x,y,1/2-z
-x,-y,-z
x,1/2+y,-z
-x,1/2+y,1/2+z
x,-y,1/2+z
1/2+x,1/2+y,z
1/2-x,-y,z
1/2+x,-y,1/2-z
1/2-x,1/2+y,1/2-z
1/2-x,1/2-y,-z
1/2+x,y,-z
1/2-x,y,1/2+z
1/2+x,1/2-y,1/2+z
loop_
_atom_site_type_symbol
_atom_site_label
_atom_site_fract_x
_atom_site_fract_y
_atom_site_fract_z
Si Si1 0.104189 0.483174 0.029020
Si Si2 0.500000 0.750000 0.647437
Si Si3 0.250000 0.500000 0.529524
Si Si4 0.750000 0.000000 0.779991
Si Si5 0.000000 0.750000 0.750000
Si Si6 0.500000 0.750000 0.092847
Si Si7 0.106333 0.115419 0.706414
O O1 0.177813 0.485258 0.049865
O O2 0.053352 0.387039 0.062997
O O3 0.096823 0.768730 0.007900
O O4 0.520642 0.495002 0.621206
O O5 0.566106 0.799816 0.675074
O O6 0.250000 0.750000 0.500000
O O7 0.739245 0.250000 0.750000
O O8 0.819102 0.026133 0.805786
O O9 0.050154 0.595008 0.780181
O O10 0.119249 0.250000 0.750000
#
# Coordination Sequence:
#
# PCOD9506325 Si02
#       7
#    16   8   8   8   4   8  16
#     4  10  19  37  61  84 112 149 196 241 286 346
#     4  12  25  39  56  84 124 154 197 235 298 363
#     4   8  16  30  56  86 106 138 190 242 280 330
#     4  10  22  36  60  90 116 138 202 258 294 336
#     4  12  16  36  64  90 110 148 200 236 300 342
#     4  12  25  37  55  88 119 156 187 242 295 351
#     4  11  22  38  62  88 112 158 199 249 291 354
#
# _framework density 20.514689000000001
#
# number of rings (size 3 to 8) (size 9 to 14) (size 15 to 20)
#    0.000    1.412    3.529    2.824    0.000    0.000 
#    0.000    2.353    0.000    0.000    0.000    0.000 
#    0.000    0.000    0.000    0.000    0.000    0.000 
#
# Total GULP energy -189379.715382 kJ/mol
# GULP energy per Si atom -5569.991629 kJ/mol
# Density = 2.046800 g / cm^3
# Si number density = 20.514689 Si / 1000 Ang^3
#
#
#
# Elastic Constant Matrix: (Units=GPa)
#
#
# Indices 1 2 3 4 5 6 
#
# 1 164.2514 -3.5989 22.3007 0.0000 0.0000 0.0000
# 2 -3.5989 82.1052 -8.8558 0.0000 0.0000 0.0000
# 3 22.3007 -8.8558 41.8138 0.0000 0.0000 0.0000
# 4 0.0000 0.0000 0.0000 24.6671 0.0000 0.0000
# 5 0.0000 0.0000 0.0000 0.0000 -38.0562 0.0000
# 6 0.0000 0.0000 0.0000 0.0000 0.0000 30.1202
#
#
#
# Elastic Compliance Matrix: (Units=1/GPa)
#
#
# Indices 1 2 3 4 5 6 
#
# 1 0.006564 -0.000092 -0.003520 0.000000 0.000000 0.000000
# 2 -0.000092 0.012466 0.002689 0.000000 0.000000 0.000000
# 3 -0.003520 0.002689 0.026363 0.000000 0.000000 0.000000
# 4 0.000000 0.000000 0.000000 0.040540 0.000000 0.000000
# 5 0.000000 0.000000 0.000000 0.000000 -0.026277 0.000000
# 6 0.000000 0.000000 0.000000 0.000000 0.000000 0.033200
#
#
# Mechanical properties :
#
#
# Convention : Reuss Voigt Hill
#
# Bulk Modulus (GPa) = 22.96427 34.20691 28.58559
# Shear Modulus (GPa) = 45.78035 21.90119 33.84077
#
# Velocity S-wave (km/s) = 4.72909 3.27094 4.06592
# Velocity P-wave (km/s) = 6.40605 5.56560 6.00056
#
# Compressibility (1/GPa) = 0.04354591
#
# Stress axis : x y z
#
# Youngs Moduli (GPa) = 152.34197 80.22127 37.93253
#
# Poissons Ratio (x) = 0.00738 0.13354
# Poissons Ratio (y) = 0.01401 -0.10201
# Poissons Ratio (z) = 0.53630 -0.21573
#
# Static dielectric constant tensor:
#      x y z
#    x 1.963490 0.000000 0.000000 
#    y 0.000000 1.803140 0.000000 
#    z 0.000000 0.000000 1.743500 
# 
# From -- ./inp_files/48248.got.cif
#   From: 2010.05.17/outbox.cif.g08.bks.cpg/sg68_25_cif.got.tgz:48248.got - 2010.06.03 18:57:09.
