data_PCOD9506755
_publ_section_title
;
Structure prediction by ZEFSAII (Michael W. Deem and Ramdas Pophale) SiO2 
 PCOD9506755
Probable space group: C C C A
;
_chemical_formula_sum "Si O2"
_cell_formula_units_Z 64
_cell_length_a 9.358100
_cell_length_b 11.052605
_cell_length_c 23.611738
_cell_angle_alpha 90.000000
_cell_angle_beta 90.000000
_cell_angle_gamma 90.000000
_cell_volume 2442.194713
_symmetry_space_group_name_H-M "C C C A"
_symmetry_group_IT_number 68
_space_group.IT_coordinate_system_code '2'
_symmetry_cell_setting 'orthorhombic'
loop_
_space_group_symop_operation_xyz
x,y,z
-x,1/2-y,z
x,1/2-y,1/2-z
-x,y,1/2-z
-x,-y,-z
x,1/2+y,-z
-x,1/2+y,1/2+z
x,-y,1/2+z
1/2+x,1/2+y,z
1/2-x,-y,z
1/2+x,-y,1/2-z
1/2-x,1/2+y,1/2-z
1/2-x,1/2-y,-z
1/2+x,y,-z
1/2-x,y,1/2+z
1/2+x,1/2-y,1/2+z
loop_
_atom_site_type_symbol
_atom_site_label
_atom_site_fract_x
_atom_site_fract_y
_atom_site_fract_z
Si Si1 0.581694 0.379109 0.476836
Si Si2 0.066517 0.481938 0.642947
Si Si3 0.769410 0.695673 0.310476
Si Si4 0.140596 0.841072 0.595070
O O1 0.500000 0.250000 0.469751
O O2 0.500000 0.500000 0.500000
O O3 0.630665 0.423026 0.415177
O O4 0.687699 0.356789 0.530207
O O5 0.080406 0.373754 0.686872
O O6 0.152474 0.592587 0.672028
O O7 0.919356 0.536554 0.622127
O O8 0.736138 0.750000 0.250000
O O9 0.752756 0.790298 0.361007
O O10 0.000000 0.750000 0.591893
#
# Coordination Sequence:
#
# PCOD9506755 Si02
#       4
#    16  16  16  16
#     4   9  17  34  59  88 121 156 204 262 329 405
#     4   9  19  35  56  81 113 151 199 264 318 375
#     4  10  20  36  56  81 117 159 208 257 310 387
#     4   8  16  32  56  82 110 152 196 246 318 385
#
# _framework density 26.205936000000001
#
# number of rings (size 3 to 8) (size 9 to 14) (size 15 to 20)
#    0.000    3.000    0.000    1.500    0.000    5.500 
#    0.000   12.500    0.000    0.000    0.000    0.000 
#    0.000    0.000    0.000    0.000    0.000    0.000 
#
# Total GULP energy -178633.004487 kJ/mol
# GULP energy per Si atom -5582.281390 kJ/mol
# Density = 2.614629 g / cm^3
# Si number density = 26.205936 Si / 1000 Ang^3
#
#
#
# Elastic Constant Matrix: (Units=GPa)
#
#
# Indices 1 2 3 4 5 6 
#
# 1 53.5532 57.7283 35.7834 0.0000 0.0000 0.0000
# 2 57.7283 191.6289 99.6061 0.0000 0.0000 0.0000
# 3 35.7834 99.6061 207.3759 0.0000 0.0000 0.0000
# 4 0.0000 0.0000 0.0000 58.7195 0.0000 0.0000
# 5 0.0000 0.0000 0.0000 0.0000 24.0418 0.0000
# 6 0.0000 0.0000 0.0000 0.0000 0.0000 56.0018
#
#
#
# Elastic Compliance Matrix: (Units=1/GPa)
#
#
# Indices 1 2 3 4 5 6 
#
# 1 0.027818 -0.007843 -0.001033 0.000000 0.000000 0.000000
# 2 -0.007843 0.009166 -0.003049 0.000000 0.000000 0.000000
# 3 -0.001033 -0.003049 0.006465 0.000000 0.000000 0.000000
# 4 0.000000 0.000000 0.000000 0.017030 0.000000 0.000000
# 5 0.000000 0.000000 0.000000 0.000000 0.041594 0.000000
# 6 0.000000 0.000000 0.000000 0.000000 0.000000 0.017857
#
#
# Mechanical properties :
#
#
# Convention : Reuss Voigt Hill
#
# Bulk Modulus (GPa) = 51.02487 93.19929 72.11208
# Shear Modulus (GPa) = 33.26380 45.04864 39.15622
#
# Velocity S-wave (km/s) = 3.56662 4.15061 3.86965
# Velocity P-wave (km/s) = 6.03937 7.65581 6.89513
#
# Compressibility (1/GPa) = 0.01959829
#
# Stress axis : x y z
#
# Youngs Moduli (GPa) = 35.94809 109.09646 154.67913
#
# Poissons Ratio (x) = 0.85568 0.15975
# Poissons Ratio (y) = 0.28195 0.47166
# Poissons Ratio (z) = 0.03713 0.33267
#
# Static dielectric constant tensor:
#      x y z
#    x 2.136480 0.000000 0.000000 
#    y 0.000000 2.116420 0.000000 
#    z 0.000000 0.000000 1.975770 
# 
# From -- ./inp_files/30474.got.cif
#   From: 2010.05.17/outbox.cif.g08.bks.cpg/sg68_16_cif.got.tgz:30474.got - 2010.06.03 18:57:09.
