data_PCOD9506856
_publ_section_title
;
Structure prediction by ZEFSAII (Michael W. Deem and Ramdas Pophale) SiO2 
 PCOD9506856
Probable space group: C C C A
;
_chemical_formula_sum "Si O2"
_cell_formula_units_Z 60
_cell_length_a 8.145337
_cell_length_b 13.130393
_cell_length_c 24.455421
_cell_angle_alpha 90.000000
_cell_angle_beta 90.000000
_cell_angle_gamma 90.000000
_cell_volume 2615.543370
_symmetry_space_group_name_H-M "C C C A"
_symmetry_group_IT_number 68
_space_group.IT_coordinate_system_code '2'
_symmetry_cell_setting 'orthorhombic'
loop_
_space_group_symop_operation_xyz
x,y,z
-x,1/2-y,z
x,1/2-y,1/2-z
-x,y,1/2-z
-x,-y,-z
x,1/2+y,-z
-x,1/2+y,1/2+z
x,-y,1/2+z
1/2+x,1/2+y,z
1/2-x,-y,z
1/2+x,-y,1/2-z
1/2-x,1/2+y,1/2-z
1/2-x,1/2-y,-z
1/2+x,y,-z
1/2-x,y,1/2+z
1/2+x,1/2-y,1/2+z
loop_
_atom_site_type_symbol
_atom_site_label
_atom_site_fract_x
_atom_site_fract_y
_atom_site_fract_z
Si Si1 0.500000 0.750000 0.750000
Si Si2 0.471435 0.531368 0.115512
Si Si3 0.666397 0.839415 0.647217
Si Si4 0.671995 0.313604 0.567803
Si Si5 0.750000 0.500000 0.987871
O O1 0.625087 0.798721 0.706276
O O2 0.481832 0.417467 0.135610
O O3 0.330836 0.593176 0.146970
O O4 0.623817 0.604707 0.114227
O O5 0.402518 0.516844 0.053479
O O6 0.700606 0.763672 0.596102
O O7 0.500000 0.250000 0.555327
O O8 0.731024 0.392470 0.520653
#
# Coordination Sequence:
#
# PCOD9506856 Si02
#       5
#     4  16  16  16   8
#     4  12  24  44  62  92 110 164 220 266 324 362
#     4   9  21  44  58  94 133 158 202 256 300 387
#     4   9  22  41  61  87 124 155 213 262 306 361
#     4  10  21  39  62  94 128 167 201 247 304 373
#     4  10  20  36  64 100 130 170 202 228 320 376
#
# _framework density 22.939784
#
# number of rings (size 3 to 8) (size 9 to 14) (size 15 to 20)
#    0.000    2.667    0.000    0.800    3.733    9.600 
#   19.200    4.667    0.000    0.000    0.000    0.000 
#    0.000    0.000    0.000    0.000    0.000    0.000 
#
# Total GULP energy -167074.049855 kJ/mol
# GULP energy per Si atom -5569.134995 kJ/mol
# Density = 2.288757 g / cm^3
# Si number density = 22.939784 Si / 1000 Ang^3
#
#
#
# Elastic Constant Matrix: (Units=GPa)
#
#
# Indices 1 2 3 4 5 6 
#
# 1 60.3978 34.2625 31.8762 0.0000 0.0000 0.0000
# 2 34.2625 148.9396 78.4002 0.0000 0.0000 0.0000
# 3 31.8762 78.4002 147.0732 0.0000 0.0000 0.0000
# 4 0.0000 0.0000 0.0000 918.3082 0.0000 0.0000
# 5 0.0000 0.0000 0.0000 0.0000 20.1792 0.0000
# 6 0.0000 0.0000 0.0000 0.0000 0.0000 37.8271
#
#
#
# Elastic Compliance Matrix: (Units=1/GPa)
#
#
# Indices 1 2 3 4 5 6 
#
# 1 0.019722 -0.003179 -0.002580 0.000000 0.000000 0.000000
# 2 -0.003179 0.009845 -0.004559 0.000000 0.000000 0.000000
# 3 -0.002580 -0.004559 0.009789 0.000000 0.000000 0.000000
# 4 0.000000 0.000000 0.000000 0.001089 0.000000 0.000000
# 5 0.000000 0.000000 0.000000 0.000000 0.049556 0.000000
# 6 0.000000 0.000000 0.000000 0.000000 0.000000 0.026436
#
#
# Mechanical properties :
#
#
# Convention : Reuss Voigt Hill
#
# Bulk Modulus (GPa) = 53.41876 71.72095 62.56986
# Shear Modulus (GPa) = 34.88864 209.38767 122.13816
#
# Velocity S-wave (km/s) = 3.90408 9.56427 7.30469
# Velocity P-wave (km/s) = 6.60753 12.38143 9.92369
#
# Compressibility (1/GPa) = 0.01872001
#
# Stress axis : x y z
#
# Youngs Moduli (GPa) = 50.70534 101.57070 102.15638
#
# Poissons Ratio (x) = 0.32288 0.26355
# Poissons Ratio (y) = 0.16118 0.46576
# Poissons Ratio (z) = 0.13082 0.46309
#
# Static dielectric constant tensor:
#      x y z
#    x 1.869620 0.000000 0.000000 
#    y 0.000000 1.978410 0.000000 
#    z 0.000000 0.000000 1.810030 
# 
# From -- ./inp_files/37088.got.cif
#   From: 2010.05.17/outbox.cif.g08.bks.cpg/sg68_19_cif.got.tgz:37088.got - 2010.06.03 18:57:09.
