data_PCOD9506767
_publ_section_title
;
Structure prediction by ZEFSAII (Michael W. Deem and Ramdas Pophale) SiO2 
 PCOD9506767
Probable space group: C C C A
;
_chemical_formula_sum "Si O2"
_cell_formula_units_Z 96
_cell_length_a 23.244763
_cell_length_b 8.196259
_cell_length_c 25.989446
_cell_angle_alpha 90.000000
_cell_angle_beta 90.000000
_cell_angle_gamma 90.000000
_cell_volume 4951.511797
_symmetry_space_group_name_H-M "C C C A"
_symmetry_group_IT_number 68
_space_group.IT_coordinate_system_code '2'
_symmetry_cell_setting 'orthorhombic'
loop_
_space_group_symop_operation_xyz
x,y,z
-x,1/2-y,z
x,1/2-y,1/2-z
-x,y,1/2-z
-x,-y,-z
x,1/2+y,-z
-x,1/2+y,1/2+z
x,-y,1/2+z
1/2+x,1/2+y,z
1/2-x,-y,z
1/2+x,-y,1/2-z
1/2-x,1/2+y,1/2-z
1/2-x,1/2-y,-z
1/2+x,y,-z
1/2-x,y,1/2+z
1/2+x,1/2-y,1/2+z
loop_
_atom_site_type_symbol
_atom_site_label
_atom_site_fract_x
_atom_site_fract_y
_atom_site_fract_z
Si Si1 0.884207 0.341669 0.414956
Si Si2 0.954269 0.361941 0.515567
Si Si3 0.565878 0.698520 0.806525
Si Si4 0.743850 0.305222 0.941543
Si Si5 0.633063 0.739947 0.906491
Si Si6 0.934455 0.810430 0.694545
O O1 0.927732 0.298573 0.461416
O O2 0.820854 0.270287 0.424261
O O3 0.879725 0.543566 0.417242
O O4 0.904782 0.273189 0.360044
O O5 0.899205 0.358158 0.552777
O O6 0.000000 0.250000 0.545474
O O7 0.000000 0.500000 0.500000
O O8 0.500000 0.750000 0.815067
O O9 0.584458 0.750000 0.750000
O O10 0.606415 0.768151 0.850702
O O11 0.566493 0.504587 0.805692
O O12 0.750000 0.500000 0.938920
O O13 0.798566 0.236288 0.910734
O O14 0.750000 0.250000 0.000000
O O15 0.910599 0.750000 0.750000
O O16 0.000000 0.750000 0.692158
#
# Coordination Sequence:
#
# PCOD9506767 Si02
#       6
#    16  16  16  16  16  16
#     4  10  21  37  57  80 113 150 186 231 285 333
#     4  12  22  34  53  86 117 147 182 229 285 343
#     4  10  20  36  57  82 112 148 183 229 286 339
#     4  10  20  38  57  78 108 151 190 228 276 334
#     4  10  21  37  57  80 114 149 188 230 280 339
#     4  10  20  37  56  83 112 143 187 233 282 335
#
# _framework density 19.388017999999999
#
# number of rings (size 3 to 8) (size 9 to 14) (size 15 to 20)
#    0.000    1.667    3.333    3.000    2.333    0.000 
#    3.000    0.833    0.000    0.000    0.000    0.000 
#    0.000    0.000    0.000    0.000    0.000    0.000 
#
# Total GULP energy -267403.906610 kJ/mol
# GULP energy per Si atom -5570.914721 kJ/mol
# Density = 1.934389 g / cm^3
# Si number density = 19.388018 Si / 1000 Ang^3
#
#
#
# Elastic Constant Matrix: (Units=GPa)
#
#
# Indices 1 2 3 4 5 6 
#
# 1 149.4124 20.7666 94.5107 0.0000 0.0000 0.0000
# 2 20.7666 18.4930 15.7543 0.0000 0.0000 0.0000
# 3 94.5107 15.7543 184.7553 0.0000 0.0000 0.0000
# 4 0.0000 0.0000 0.0000 48.2514 0.0000 0.0000
# 5 0.0000 0.0000 0.0000 0.0000 27.6221 0.0000
# 6 0.0000 0.0000 0.0000 0.0000 0.0000 16.5844
#
#
#
# Elastic Compliance Matrix: (Units=1/GPa)
#
#
# Indices 1 2 3 4 5 6 
#
# 1 0.010911 -0.008085 -0.004892 0.000000 0.000000 0.000000
# 2 -0.008085 0.064301 -0.001347 0.000000 0.000000 0.000000
# 3 -0.004892 -0.001347 0.008030 0.000000 0.000000 0.000000
# 4 0.000000 0.000000 0.000000 0.020725 0.000000 0.000000
# 5 0.000000 0.000000 0.000000 0.000000 0.036203 0.000000
# 6 0.000000 0.000000 0.000000 0.000000 0.000000 0.060298
#
#
# Mechanical properties :
#
#
# Convention : Reuss Voigt Hill
#
# Bulk Modulus (GPa) = 18.31715 68.30267 43.30991
# Shear Modulus (GPa) = 20.21722 33.26685 26.74204
#
# Velocity S-wave (km/s) = 3.23270 4.14677 3.71793
# Velocity P-wave (km/s) = 4.83756 7.63108 6.38887
#
# Compressibility (1/GPa) = 0.05459363
#
# Stress axis : x y z
#
# Youngs Moduli (GPa) = 91.64990 15.55184 124.53340
#
# Poissons Ratio (x) = 0.12574 0.60923
# Poissons Ratio (y) = 0.74098 0.16778
# Poissons Ratio (z) = 0.44836 0.02095
#
# Static dielectric constant tensor:
#      x y z
#    x 1.760080 0.000000 0.000000 
#    y 0.000000 1.784350 0.000000 
#    z 0.000000 0.000000 1.700420 
# 
# From -- ./inp_files/52098.got.cif
#   From: 2010.05.17/outbox.cif.g08.bks.cpg/sg68_27_cif.got.tgz:52098.got - 2010.06.03 18:57:09.
