data_PCOD9506146
_publ_section_title
;
Structure prediction by ZEFSAII (Michael W. Deem and Ramdas Pophale) SiO2 
 PCOD9506146
Probable space group: C C C A
;
_chemical_formula_sum "Si O2"
_cell_formula_units_Z 120
_cell_length_a 22.643627
_cell_length_b 21.927972
_cell_length_c 12.004916
_cell_angle_alpha 90.000000
_cell_angle_beta 90.000000
_cell_angle_gamma 90.000000
_cell_volume 5960.786762
_symmetry_space_group_name_H-M "C C C A"
_symmetry_group_IT_number 68
_space_group.IT_coordinate_system_code '2'
_symmetry_cell_setting 'orthorhombic'
loop_
_space_group_symop_operation_xyz
x,y,z
-x,1/2-y,z
x,1/2-y,1/2-z
-x,y,1/2-z
-x,-y,-z
x,1/2+y,-z
-x,1/2+y,1/2+z
x,-y,1/2+z
1/2+x,1/2+y,z
1/2-x,-y,z
1/2+x,-y,1/2-z
1/2-x,1/2+y,1/2-z
1/2-x,1/2-y,-z
1/2+x,y,-z
1/2-x,y,1/2+z
1/2+x,1/2-y,1/2+z
loop_
_atom_site_type_symbol
_atom_site_label
_atom_site_fract_x
_atom_site_fract_y
_atom_site_fract_z
Si Si1 0.178877 0.158916 0.200259
Si Si2 0.392930 0.042614 0.624175
Si Si3 0.093457 0.586612 0.325506
Si Si4 0.647075 0.779937 0.071788
Si Si5 0.500000 0.913139 0.250000
Si Si6 0.687404 0.195203 0.337873
Si Si7 0.983247 0.186207 0.062021
Si Si8 0.036800 0.902565 0.417483
O O1 0.153223 0.095503 0.154978
O O2 0.148292 0.213697 0.129905
O O3 0.164204 0.173228 0.329400
O O4 0.248771 0.166335 0.187161
O O5 0.444280 0.047395 0.717285
O O6 0.426659 0.058876 0.508835
O O7 0.371169 0.973811 0.636597
O O8 0.136692 0.644150 0.333281
O O9 0.069310 0.589832 0.199127
O O10 0.032963 0.582944 0.399339
O O11 0.583383 0.800993 0.027995
O O12 0.688078 0.780093 0.964063
O O13 0.514304 0.868856 0.148018
O O14 0.677258 0.250000 0.250000
O O15 0.000000 0.250000 0.117075
O O16 0.029100 0.166492 0.965623
#
# Coordination Sequence:
#
# PCOD9506146 Si02
#       8
#    16  16  16  16   8  16  16  16
#     4  11  25  42  70  99 122 179 222 283 321 383
#     4  11  23  41  68  95 131 167 224 267 329 380
#     4  11  25  43  64  98 131 179 217 263 328 401
#     4  11  22  44  65  95 133 163 228 265 336 382
#     4  10  19  34  60  96 129 160 204 266 334 380
#     4  12  27  44  68  92 136 179 220 267 335 390
#     4  11  21  33  61  98 132 167 203 274 326 387
#     4  10  23  42  64  95 135 171 219 261 329 402
#
# _framework density 20.131571000000001
#
# number of rings (size 3 to 8) (size 9 to 14) (size 15 to 20)
#    0.000    1.067    4.000    3.400    5.600    2.667 
#    0.000    1.333    0.000    3.200    0.000    0.000 
#    0.000    0.000    0.000    0.000    0.000    0.000 
#
# Total GULP energy -334804.460762 kJ/mol
# GULP energy per Si atom -5580.074346 kJ/mol
# Density = 2.008575 g / cm^3
# Si number density = 20.131571 Si / 1000 Ang^3
#
#
#
# Elastic Constant Matrix: (Units=GPa)
#
#
# Indices 1 2 3 4 5 6 
#
# 1 88.9614 55.5783 38.1977 0.0000 0.0000 0.0000
# 2 55.5783 125.1949 58.8709 0.0000 0.0000 0.0000
# 3 38.1977 58.8709 120.6285 0.0000 0.0000 0.0000
# 4 0.0000 0.0000 0.0000 6.5643 0.0000 0.0000
# 5 0.0000 0.0000 0.0000 0.0000 13.3142 0.0000
# 6 0.0000 0.0000 0.0000 0.0000 0.0000 -28.9700
#
#
#
# Elastic Compliance Matrix: (Units=1/GPa)
#
#
# Indices 1 2 3 4 5 6 
#
# 1 0.015943 -0.006105 -0.002069 0.000000 0.000000 0.000000
# 2 -0.006105 0.012704 -0.004267 0.000000 0.000000 0.000000
# 3 -0.002069 -0.004267 0.011028 0.000000 0.000000 0.000000
# 4 0.000000 0.000000 0.000000 0.152339 0.000000 0.000000
# 5 0.000000 0.000000 0.000000 0.000000 0.075108 0.000000
# 6 0.000000 0.000000 0.000000 0.000000 0.000000 -0.034519
#
#
# Mechanical properties :
#
#
# Convention : Reuss Voigt Hill
#
# Bulk Modulus (GPa) = 67.59894 71.11984 69.35939
# Shear Modulus (GPa) = 19.05371 10.32423 14.68897
#
# Velocity S-wave (km/s) = 3.07980 2.26705 2.70413
# Velocity P-wave (km/s) = 6.80429 6.50053 6.65414
#
# Compressibility (1/GPa) = 0.01479313
#
# Stress axis : x y z
#
# Youngs Moduli (GPa) = 62.72268 78.71472 90.68192
#
# Poissons Ratio (x) = 0.48053 0.18764
# Poissons Ratio (y) = 0.38290 0.38693
# Poissons Ratio (z) = 0.12979 0.33587
#
# Static dielectric constant tensor:
#      x y z
#    x 1.724160 0.000000 0.000000 
#    y 0.000000 1.739860 0.000000 
#    z 0.000000 0.000000 1.747350 
# 
# From -- ./inp_files/16609.got.cif
#   From: 2010.05.17/outbox.cif.g08.bks.cpg/sg68_9_cif.got.tgz:16609.got - 2010.06.03 18:57:09.
