data_PCOD9506511
_publ_section_title
;
Structure prediction by ZEFSAII (Michael W. Deem and Ramdas Pophale) SiO2 
 PCOD9506511
Probable space group: C C C A
;
_chemical_formula_sum "Si O2"
_cell_formula_units_Z 68
_cell_length_a 12.504825
_cell_length_b 24.442624
_cell_length_c 11.006853
_cell_angle_alpha 90.000000
_cell_angle_beta 90.000000
_cell_angle_gamma 90.000000
_cell_volume 3364.252717
_symmetry_space_group_name_H-M "C C C A"
_symmetry_group_IT_number 68
_space_group.IT_coordinate_system_code '2'
_symmetry_cell_setting 'orthorhombic'
loop_
_space_group_symop_operation_xyz
x,y,z
-x,1/2-y,z
x,1/2-y,1/2-z
-x,y,1/2-z
-x,-y,-z
x,1/2+y,-z
-x,1/2+y,1/2+z
x,-y,1/2+z
1/2+x,1/2+y,z
1/2-x,-y,z
1/2+x,-y,1/2-z
1/2-x,1/2+y,1/2-z
1/2-x,1/2-y,-z
1/2+x,y,-z
1/2-x,y,1/2+z
1/2+x,1/2-y,1/2+z
loop_
_atom_site_type_symbol
_atom_site_label
_atom_site_fract_x
_atom_site_fract_y
_atom_site_fract_z
Si Si1 0.248037 0.632247 0.883359
Si Si2 0.970695 0.577574 0.605205
Si Si3 0.346863 0.837952 0.359344
Si Si4 0.576651 0.456282 0.145517
Si Si5 0.500000 0.750000 0.250000
O O1 0.125277 0.619613 0.915653
O O2 0.239374 0.661133 0.750918
O O3 0.312512 0.575891 0.860043
O O4 0.300925 0.659594 0.003394
O O5 0.920392 0.521817 0.660623
O O6 0.075208 0.608730 0.659064
O O7 0.016254 0.557377 0.477652
O O8 0.424090 0.787144 0.333654
O O9 0.500000 0.433874 0.250000
#
# Coordination Sequence:
#
# PCOD9506511 Si02
#       5
#    16  16  16  16   4
#     4  11  21  39  63  93 119 167 203 256 302 386
#     4  10  20  37  56  91 129 167 201 245 307 379
#     4  11  24  41  68  88 127 159 218 258 317 368
#     4  10  20  32  57  90 132 164 199 247 302 369
#     4  12  24  48  68  86 118 176 200 286 332 366
#
# _framework density 20.212512
#
# number of rings (size 3 to 8) (size 9 to 14) (size 15 to 20)
#    0.000    1.412    2.353    3.529    0.000    0.941 
#    0.000    7.059    0.000    1.412    0.000    0.000 
#    0.000    0.000    0.000    0.000    0.000    0.000 
#
# Total GULP energy -189404.255732 kJ/mol
# GULP energy per Si atom -5570.713404 kJ/mol
# Density = 2.016651 g / cm^3
# Si number density = 20.212512 Si / 1000 Ang^3
#
#
#
# Elastic Constant Matrix: (Units=GPa)
#
#
# Indices 1 2 3 4 5 6 
#
# 1 93.2649 25.6730 58.5073 0.0000 0.0000 0.0000
# 2 25.6730 77.7880 59.7642 0.0000 0.0000 0.0000
# 3 58.5073 59.7642 129.1132 0.0000 0.0000 0.0000
# 4 0.0000 0.0000 0.0000 21.7915 0.0000 0.0000
# 5 0.0000 0.0000 0.0000 0.0000 36.5230 0.0000
# 6 0.0000 0.0000 0.0000 0.0000 0.0000 466.2181
#
#
#
# Elastic Compliance Matrix: (Units=1/GPa)
#
#
# Indices 1 2 3 4 5 6 
#
# 1 0.014990 0.000421 -0.006988 0.000000 0.000000 0.000000
# 2 0.000421 0.019962 -0.009431 0.000000 0.000000 0.000000
# 3 -0.006988 -0.009431 0.015277 0.000000 0.000000 0.000000
# 4 0.000000 0.000000 0.000000 0.045889 0.000000 0.000000
# 5 0.000000 0.000000 0.000000 0.000000 0.027380 0.000000
# 6 0.000000 0.000000 0.000000 0.000000 0.000000 0.002145
#
#
# Mechanical properties :
#
#
# Convention : Reuss Voigt Hill
#
# Bulk Modulus (GPa) = 54.84169 65.33946 60.09057
# Shear Modulus (GPa) = 30.54068 115.32129 72.93099
#
# Velocity S-wave (km/s) = 3.89135 7.56163 6.01335
# Velocity P-wave (km/s) = 6.88343 10.42277 8.83220
#
# Compressibility (1/GPa) = 0.01823430
#
# Stress axis : x y z
#
# Youngs Moduli (GPa) = 66.71287 50.09446 65.45778
#
# Poissons Ratio (x) = -0.02111 0.45739
# Poissons Ratio (y) = -0.02811 0.61734
# Poissons Ratio (z) = 0.46616 0.47245
#
# Static dielectric constant tensor:
#      x y z
#    x 1.706450 0.000000 0.000000 
#    y 0.000000 1.734280 0.000000 
#    z 0.000000 0.000000 1.822550 
# 
# From -- ./inp_files/11827.got.cif
#   From: 2010.05.17/outbox.cif.g08.bks.cpg/sg68_6_cif.got.tgz:11827.got - 2010.06.03 18:57:09.
