data_PCOD9506900
_publ_section_title
;
Structure prediction by ZEFSAII (Michael W. Deem and Ramdas Pophale) SiO2 
 PCOD9506900
Probable space group: C C C A
;
_chemical_formula_sum "Si O2"
_cell_formula_units_Z 64
_cell_length_a 26.221003
_cell_length_b 13.134805
_cell_length_c 8.271383
_cell_angle_alpha 90.000000
_cell_angle_beta 90.000000
_cell_angle_gamma 90.000000
_cell_volume 2848.728502
_symmetry_space_group_name_H-M "C C C A"
_symmetry_group_IT_number 68
_space_group.IT_coordinate_system_code '2'
_symmetry_cell_setting 'orthorhombic'
loop_
_space_group_symop_operation_xyz
x,y,z
-x,1/2-y,z
x,1/2-y,1/2-z
-x,y,1/2-z
-x,-y,-z
x,1/2+y,-z
-x,1/2+y,1/2+z
x,-y,1/2+z
1/2+x,1/2+y,z
1/2-x,-y,z
1/2+x,-y,1/2-z
1/2-x,1/2+y,1/2-z
1/2-x,1/2-y,-z
1/2+x,y,-z
1/2-x,y,1/2+z
1/2+x,1/2-y,1/2+z
loop_
_atom_site_type_symbol
_atom_site_label
_atom_site_fract_x
_atom_site_fract_y
_atom_site_fract_z
Si Si1 0.250000 0.500000 0.426854
Si Si2 0.589350 0.885681 0.546392
Si Si3 0.500000 0.750000 0.963851
Si Si4 0.198470 0.140986 0.815971
Si Si5 0.945367 0.088788 0.191067
O O1 0.229063 0.407985 0.535094
O O2 0.206204 0.552789 0.318596
O O3 0.540218 0.826132 0.616326
O O4 0.640978 0.845241 0.622679
O O5 0.584910 0.879320 0.351833
O O6 0.584249 0.003759 0.592907
O O7 0.463588 0.680139 0.076861
O O8 0.217195 0.250000 0.750000
O O9 0.000000 0.044531 0.250000
#
# Coordination Sequence:
#
# PCOD9506900 Si02
#       5
#     8  16   8  16  16
#     4  10  24  48  68  94 136 166 218 296 330 386
#     4  11  22  37  60  91 123 163 211 258 316 390
#     4  10  21  38  59  88 131 172 213 262 315 386
#     4  11  24  43  70  99 128 173 220 271 346 402
#     4  10  20  37  56  83 125 169 207 256 312 372
#
# _framework density 22.466163000000002
#
# number of rings (size 3 to 8) (size 9 to 14) (size 15 to 20)
#    0.000    1.500    0.000    8.625    0.000    6.000 
#    0.000    8.750    0.000    0.000    0.000    0.000 
#    0.000    0.000    0.000    0.000    0.000    0.000 
#
# Total GULP energy -178821.479743 kJ/mol
# GULP energy per Si atom -5588.171242 kJ/mol
# Density = 2.241503 g / cm^3
# Si number density = 22.466163 Si / 1000 Ang^3
#
#
#
# Elastic Constant Matrix: (Units=GPa)
#
#
# Indices 1 2 3 4 5 6 
#
# 1 91.9724 25.1160 45.9713 0.0000 0.0000 0.0000
# 2 25.1160 108.5873 37.7317 0.0000 0.0000 0.0000
# 3 45.9713 37.7317 84.5290 0.0000 0.0000 0.0000
# 4 0.0000 0.0000 0.0000 32.3786 0.0000 0.0000
# 5 0.0000 0.0000 0.0000 0.0000 -64.5991 0.0000
# 6 0.0000 0.0000 0.0000 0.0000 0.0000 30.4588
#
#
#
# Elastic Compliance Matrix: (Units=1/GPa)
#
#
# Indices 1 2 3 4 5 6 
#
# 1 0.014983 -0.000751 -0.007814 0.000000 0.000000 0.000000
# 2 -0.000751 0.010937 -0.004474 0.000000 0.000000 0.000000
# 3 -0.007814 -0.004474 0.018077 0.000000 0.000000 0.000000
# 4 0.000000 0.000000 0.000000 0.030885 0.000000 0.000000
# 5 0.000000 0.000000 0.000000 0.000000 -0.015480 0.000000
# 6 0.000000 0.000000 0.000000 0.000000 0.000000 0.032831
#
#
# Mechanical properties :
#
#
# Convention : Reuss Voigt Hill
#
# Bulk Modulus (GPa) = 55.80012 55.85851 55.82931
# Shear Modulus (GPa) = 40.23060 11.39900 25.81480
#
# Velocity S-wave (km/s) = 4.23628 2.25496 3.39344
# Velocity P-wave (km/s) = 6.98709 5.63003 6.34494
#
# Compressibility (1/GPa) = 0.01792111
#
# Stress axis : x y z
#
# Youngs Moduli (GPa) = 66.74068 91.42941 55.31933
#
# Poissons Ratio (x) = 0.06862 0.43225
# Poissons Ratio (y) = 0.05009 0.24750
# Poissons Ratio (z) = 0.52149 0.40906
#
# Static dielectric constant tensor:
#      x y z
#    x 1.795030 0.000000 0.000000 
#    y 0.000000 1.841940 0.000000 
#    z 0.000000 0.000000 1.921400 
# 
# From -- ./inp_files/5051.got.cif
#   From: 2010.05.17/outbox.cif.g08.bks.cpg/sg68_3_cif.got.tgz:5051.got - 2010.06.03 18:57:09.
