data_PCOD9506659
_publ_section_title
;
Structure prediction by ZEFSAII (Michael W. Deem and Ramdas Pophale) SiO2 
 PCOD9506659
Probable space group: C C C A
;
_chemical_formula_sum "Si O2"
_cell_formula_units_Z 72
_cell_length_a 11.522532
_cell_length_b 18.850948
_cell_length_c 13.311756
_cell_angle_alpha 90.000000
_cell_angle_beta 90.000000
_cell_angle_gamma 90.000000
_cell_volume 2891.455194
_symmetry_space_group_name_H-M "C C C A"
_symmetry_group_IT_number 68
_space_group.IT_coordinate_system_code '2'
_symmetry_cell_setting 'orthorhombic'
loop_
_space_group_symop_operation_xyz
x,y,z
-x,1/2-y,z
x,1/2-y,1/2-z
-x,y,1/2-z
-x,-y,-z
x,1/2+y,-z
-x,1/2+y,1/2+z
x,-y,1/2+z
1/2+x,1/2+y,z
1/2-x,-y,z
1/2+x,-y,1/2-z
1/2-x,1/2+y,1/2-z
1/2-x,1/2-y,-z
1/2+x,y,-z
1/2-x,y,1/2+z
1/2+x,1/2-y,1/2+z
loop_
_atom_site_type_symbol
_atom_site_label
_atom_site_fract_x
_atom_site_fract_y
_atom_site_fract_z
Si Si1 0.702478 0.230765 0.108398
Si Si2 0.750000 0.500000 0.422998
Si Si3 0.368300 0.884243 0.284432
Si Si4 0.066486 0.402619 0.597804
Si Si5 0.340330 0.387581 0.323762
O O1 0.803916 0.184919 0.165896
O O2 0.594320 0.179662 0.085668
O O3 0.661364 0.302332 0.162907
O O4 0.750000 0.250000 0.000000
O O5 0.661750 0.552281 0.361166
O O6 0.843483 0.553737 0.468615
O O7 0.500000 0.874176 0.250000
O O8 0.293799 0.905508 0.185755
O O9 0.110351 0.410810 0.714428
O O10 0.930288 0.417276 0.595444
#
# Coordination Sequence:
#
# PCOD9506659 Si02
#       5
#    16   8  16  16  16
#     4  10  20  35  54  83 118 151 196 241 300 357
#     4   8  18  32  60  86 112 140 204 240 292 356
#     4  10  21  35  58  87 118 155 192 251 304 361
#     4   9  17  34  59  83 105 151 189 247 282 350
#     4   9  18  33  55  82 108 145 194 232 292 348
#
# _framework density 24.900956000000001
#
# number of rings (size 3 to 8) (size 9 to 14) (size 15 to 20)
#    0.000    3.111    0.000    3.333    6.222    5.333 
#    8.000    0.000    0.000   26.667    0.000    0.000 
#    0.000    0.000    0.000    0.000    0.000    0.000 
#
# Total GULP energy -200474.678610 kJ/mol
# GULP energy per Si atom -5568.741072 kJ/mol
# Density = 2.484428 g / cm^3
# Si number density = 24.900956 Si / 1000 Ang^3
#
#
#
# Elastic Constant Matrix: (Units=GPa)
#
#
# Indices 1 2 3 4 5 6 
#
# 1 196.0407 -1.6969 38.3871 0.0000 0.0000 0.0000
# 2 -1.6969 61.0829 31.6576 0.0000 0.0000 0.0000
# 3 38.3871 31.6576 88.2398 0.0000 0.0000 0.0000
# 4 0.0000 0.0000 0.0000 16.2325 0.0000 0.0000
# 5 0.0000 0.0000 0.0000 0.0000 -7.5217 0.0000
# 6 0.0000 0.0000 0.0000 0.0000 0.0000 18.7293
#
#
#
# Elastic Compliance Matrix: (Units=1/GPa)
#
#
# Indices 1 2 3 4 5 6 
#
# 1 0.005730 0.001782 -0.003132 0.000000 0.000000 0.000000
# 2 0.001782 0.020665 -0.008189 0.000000 0.000000 0.000000
# 3 -0.003132 -0.008189 0.015633 0.000000 0.000000 0.000000
# 4 0.000000 0.000000 0.000000 0.061605 0.000000 0.000000
# 5 0.000000 0.000000 0.000000 0.000000 -0.132949 0.000000
# 6 0.000000 0.000000 0.000000 0.000000 0.000000 0.053392
#
#
# Mechanical properties :
#
#
# Convention : Reuss Voigt Hill
#
# Bulk Modulus (GPa) = 43.57276 53.56211 48.56743
# Shear Modulus (GPa) = 98.41610 23.95573 61.18591
#
# Velocity S-wave (km/s) = 6.29355 3.10504 4.96236
# Velocity P-wave (km/s) = 8.38738 5.86616 7.23740
#
# Compressibility (1/GPa) = 0.02295012
#
# Stress axis : x y z
#
# Youngs Moduli (GPa) = 174.52889 48.39091 63.96560
#
# Poissons Ratio (x) = -0.08625 0.20035
# Poissons Ratio (y) = -0.31109 0.52384
# Poissons Ratio (z) = 0.54664 0.39629
#
# Static dielectric constant tensor:
#      x y z
#    x 8.525720 0.000000 0.000000 
#    y 0.000000 2.079250 0.000000 
#    z 0.000000 0.000000 2.035180 
# 
# From -- ./inp_files/29372.got.cif
#   From: 2010.05.17/outbox.cif.g08.bks.cpg/sg68_15_cif.got.tgz:29372.got - 2010.06.03 18:57:09.
