data_PCOD9506567
_publ_section_title
;
Structure prediction by ZEFSAII (Michael W. Deem and Ramdas Pophale) SiO2 
 PCOD9506567
Probable space group: C C C A
;
_chemical_formula_sum "Si O2"
_cell_formula_units_Z 112
_cell_length_a 14.421880
_cell_length_b 27.736024
_cell_length_c 14.381713
_cell_angle_alpha 90.000000
_cell_angle_beta 90.000000
_cell_angle_gamma 90.000000
_cell_volume 5752.765879
_symmetry_space_group_name_H-M "C C C A"
_symmetry_group_IT_number 68
_space_group.IT_coordinate_system_code '2'
_symmetry_cell_setting 'orthorhombic'
loop_
_space_group_symop_operation_xyz
x,y,z
-x,1/2-y,z
x,1/2-y,1/2-z
-x,y,1/2-z
-x,-y,-z
x,1/2+y,-z
-x,1/2+y,1/2+z
x,-y,1/2+z
1/2+x,1/2+y,z
1/2-x,-y,z
1/2+x,-y,1/2-z
1/2-x,1/2+y,1/2-z
1/2-x,1/2-y,-z
1/2+x,y,-z
1/2-x,y,1/2+z
1/2+x,1/2-y,1/2+z
loop_
_atom_site_type_symbol
_atom_site_label
_atom_site_fract_x
_atom_site_fract_y
_atom_site_fract_z
Si Si1 0.687501 0.453626 0.322999
Si Si2 0.922573 0.893271 0.311275
Si Si3 0.774979 0.630903 0.603402
Si Si4 0.796063 0.367622 0.402661
Si Si5 0.130232 0.534663 0.961482
Si Si6 0.933992 0.436733 0.506244
Si Si7 0.890903 0.807609 0.750573
O O1 0.750000 0.500000 0.296906
O O2 0.608570 0.439829 0.249647
O O3 0.743189 0.403586 0.333093
O O4 0.654463 0.461532 0.428906
O O5 0.827142 0.869580 0.348849
O O6 0.973059 0.908664 0.405639
O O7 0.000000 0.866043 0.250000
O O8 0.762669 0.646060 0.494671
O O9 0.816186 0.575980 0.595196
O O10 0.841625 0.665353 0.662758
O O11 0.876707 0.401083 0.443527
O O12 0.839753 0.325689 0.342456
O O13 0.135984 0.476938 0.950794
O O14 0.020207 0.543102 0.949270
O O15 0.883282 0.750000 0.750000
O O16 0.000000 0.820510 0.750000
#
# Coordination Sequence:
#
# PCOD9506567 Si02
#       7
#    16  16  16  16  16  16  16
#     4  11  20  34  53  79 118 160 202 247 297 358
#     4  11  22  35  54  82 115 160 207 251 306 362
#     4  10  23  39  63  88 119 162 203 258 316 375
#     4  10  21  38  61  88 121 163 201 249 307 368
#     4  10  20  35  53  81 120 160 204 250 301 363
#     4  10  20  34  53  83 121 161 205 249 299 369
#     4  11  24  44  68  96 125 158 210 269 319 373
#
# _framework density 19.468896000000001
#
# number of rings (size 3 to 8) (size 9 to 14) (size 15 to 20)
#    0.000    1.571    4.286    0.857    2.000    0.571 
#    0.000    1.429    0.000    0.429    0.000    0.000 
#    0.000    0.000    0.000    0.000    0.000    0.000 
#
# Total GULP energy -312010.480058 kJ/mol
# GULP energy per Si atom -5571.615715 kJ/mol
# Density = 1.942458 g / cm^3
# Si number density = 19.468896 Si / 1000 Ang^3
#
#
#
# Elastic Constant Matrix: (Units=GPa)
#
#
# Indices 1 2 3 4 5 6 
#
# 1 92.9580 43.1770 29.0843 0.0000 0.0000 0.0000
# 2 43.1770 72.7327 33.2285 0.0000 0.0000 0.0000
# 3 29.0843 33.2285 81.5884 0.0000 0.0000 0.0000
# 4 0.0000 0.0000 0.0000 27.2455 0.0000 0.0000
# 5 0.0000 0.0000 0.0000 0.0000 21.9359 0.0000
# 6 0.0000 0.0000 0.0000 0.0000 0.0000 20.1231
#
#
#
# Elastic Compliance Matrix: (Units=1/GPa)
#
#
# Indices 1 2 3 4 5 6 
#
# 1 0.015150 -0.008018 -0.002135 0.000000 0.000000 0.000000
# 2 -0.008018 0.021136 -0.005750 0.000000 0.000000 0.000000
# 3 -0.002135 -0.005750 0.015359 0.000000 0.000000 0.000000
# 4 0.000000 0.000000 0.000000 0.036703 0.000000 0.000000
# 5 0.000000 0.000000 0.000000 0.000000 0.045587 0.000000
# 6 0.000000 0.000000 0.000000 0.000000 0.000000 0.049694
#
#
# Mechanical properties :
#
#
# Convention : Reuss Voigt Hill
#
# Bulk Modulus (GPa) = 50.40507 50.91762 50.66134
# Shear Modulus (GPa) = 22.51765 23.31353 22.91559
#
# Velocity S-wave (km/s) = 3.40457 3.46421 3.43452
# Velocity P-wave (km/s) = 6.43436 6.49701 6.46576
#
# Compressibility (1/GPa) = 0.01983928
#
# Stress axis : x y z
#
# Youngs Moduli (GPa) = 66.00760 47.31357 65.10686
#
# Poissons Ratio (x) = 0.37937 0.13900
# Poissons Ratio (y) = 0.52926 0.37434
# Poissons Ratio (z) = 0.14093 0.27204
#
# Static dielectric constant tensor:
#      x y z
#    x 1.785640 0.000000 0.000000 
#    y 0.000000 1.688870 0.000000 
#    z 0.000000 0.000000 1.716260 
# 
# From -- ./inp_files/22749.got.cif
#   From: 2010.05.17/outbox.cif.g08.bks.cpg/sg68_12_cif.got.tgz:22749.got - 2010.06.03 18:57:09.
