data_PCOD9506131
_publ_section_title
;
Structure prediction by ZEFSAII (Michael W. Deem and Ramdas Pophale) SiO2 
 PCOD9506131
Probable space group: C C C A
;
_chemical_formula_sum "Si O2"
_cell_formula_units_Z 72
_cell_length_a 12.269586
_cell_length_b 9.020500
_cell_length_c 32.493888
_cell_angle_alpha 90.000000
_cell_angle_beta 90.000000
_cell_angle_gamma 90.000000
_cell_volume 3596.352054
_symmetry_space_group_name_H-M "C C C A"
_symmetry_group_IT_number 68
_space_group.IT_coordinate_system_code '2'
_symmetry_cell_setting 'orthorhombic'
loop_
_space_group_symop_operation_xyz
x,y,z
-x,1/2-y,z
x,1/2-y,1/2-z
-x,y,1/2-z
-x,-y,-z
x,1/2+y,-z
-x,1/2+y,1/2+z
x,-y,1/2+z
1/2+x,1/2+y,z
1/2-x,-y,z
1/2+x,-y,1/2-z
1/2-x,1/2+y,1/2-z
1/2-x,1/2-y,-z
1/2+x,y,-z
1/2-x,y,1/2+z
1/2+x,1/2-y,1/2+z
loop_
_atom_site_type_symbol
_atom_site_label
_atom_site_fract_x
_atom_site_fract_y
_atom_site_fract_z
Si Si1 0.336332 0.637194 0.858015
Si Si2 0.005269 0.503595 0.795874
Si Si3 0.682769 0.773511 0.205094
Si Si4 0.625834 0.229566 0.451422
Si Si5 0.250000 0.500000 0.008422
O O1 0.250000 0.500000 0.860887
O O2 0.444992 0.591161 0.832924
O O3 0.271257 0.752459 0.829804
O O4 0.359864 0.692901 0.903478
O O5 0.092964 0.640077 0.794232
O O6 0.000000 0.435574 0.750000
O O7 0.887501 0.578773 0.801663
O O8 0.735567 0.750000 0.250000
O O9 0.500000 0.250000 0.460999
O O10 0.688137 0.379341 0.464031
O O11 0.671944 0.095037 0.478748
#
# Coordination Sequence:
#
# PCOD9506131 Si02
#       5
#    16  16  16  16   8
#     4  10  19  34  58  89 123 156 201 256 300 361
#     4   8  15  30  52  78 113 161 205 244 295 351
#     4   8  15  30  51  77 115 162 203 241 295 354
#     4  11  23  43  67  96 124 160 206 257 315 383
#     4  10  24  46  70  90 124 166 202 258 330 378
#
# _framework density 20.020288000000001
#
# number of rings (size 3 to 8) (size 9 to 14) (size 15 to 20)
#    0.000    2.667    1.111    2.000    0.000    1.778 
#    4.000    0.000    2.444    0.000    0.000    0.000 
#    0.000    0.000    0.000    0.000    0.000    0.000 
#
# Total GULP energy -201025.537244 kJ/mol
# GULP energy per Si atom -5584.042701 kJ/mol
# Density = 1.997472 g / cm^3
# Si number density = 20.020288 Si / 1000 Ang^3
#
#
#
# Elastic Constant Matrix: (Units=GPa)
#
#
# Indices 1 2 3 4 5 6 
#
# 1 106.7428 55.8347 75.4957 0.0000 0.0000 0.0000
# 2 55.8347 105.1629 78.4886 0.0000 0.0000 0.0000
# 3 75.4957 78.4886 179.3062 0.0000 0.0000 0.0000
# 4 0.0000 0.0000 0.0000 53.1957 0.0000 0.0000
# 5 0.0000 0.0000 0.0000 0.0000 48.4657 0.0000
# 6 0.0000 0.0000 0.0000 0.0000 0.0000 19.3512
#
#
#
# Elastic Compliance Matrix: (Units=1/GPa)
#
#
# Indices 1 2 3 4 5 6 
#
# 1 0.014788 -0.004759 -0.004143 0.000000 0.000000 0.000000
# 2 -0.004759 0.015655 -0.004849 0.000000 0.000000 0.000000
# 3 -0.004143 -0.004849 0.009444 0.000000 0.000000 0.000000
# 4 0.000000 0.000000 0.000000 0.018799 0.000000 0.000000
# 5 0.000000 0.000000 0.000000 0.000000 0.020633 0.000000
# 6 0.000000 0.000000 0.000000 0.000000 0.000000 0.051676
#
#
# Mechanical properties :
#
#
# Convention : Reuss Voigt Hill
#
# Bulk Modulus (GPa) = 80.74620 90.09443 85.42032
# Shear Modulus (GPa) = 30.74548 36.29538 33.52043
#
# Velocity S-wave (km/s) = 3.92307 4.26247 4.09629
# Velocity P-wave (km/s) = 7.80643 8.32611 8.07046
#
# Compressibility (1/GPa) = 0.01238448
#
# Stress axis : x y z
#
# Youngs Moduli (GPa) = 67.62202 63.87799 105.88760
#
# Poissons Ratio (x) = 0.30401 0.43871
# Poissons Ratio (y) = 0.32183 0.51343
# Poissons Ratio (z) = 0.28017 0.30973
#
# Static dielectric constant tensor:
#      x y z
#    x 1.697920 0.000000 0.000000 
#    y 0.000000 1.735880 0.000000 
#    z 0.000000 0.000000 1.666520 
# 
# From -- ./inp_files/50736.got.cif
#   From: 2010.05.17/outbox.cif.g08.bks.cpg/sg68_26_cif.got.tgz:50736.got - 2010.06.03 18:57:09.
