data_PCOD9506894
_publ_section_title
;
Structure prediction by ZEFSAII (Michael W. Deem and Ramdas Pophale) SiO2 
 PCOD9506894
Probable space group: C C C A
;
_chemical_formula_sum "Si O2"
_cell_formula_units_Z 92
_cell_length_a 25.963928
_cell_length_b 8.150607
_cell_length_c 20.980367
_cell_angle_alpha 90.000000
_cell_angle_beta 90.000000
_cell_angle_gamma 90.000000
_cell_volume 4439.902469
_symmetry_space_group_name_H-M "C C C A"
_symmetry_group_IT_number 68
_space_group.IT_coordinate_system_code '2'
_symmetry_cell_setting 'orthorhombic'
loop_
_space_group_symop_operation_xyz
x,y,z
-x,1/2-y,z
x,1/2-y,1/2-z
-x,y,1/2-z
-x,-y,-z
x,1/2+y,-z
-x,1/2+y,1/2+z
x,-y,1/2+z
1/2+x,1/2+y,z
1/2-x,-y,z
1/2+x,-y,1/2-z
1/2-x,1/2+y,1/2-z
1/2-x,1/2-y,-z
1/2+x,y,-z
1/2-x,y,1/2+z
1/2+x,1/2-y,1/2+z
loop_
_atom_site_type_symbol
_atom_site_label
_atom_site_fract_x
_atom_site_fract_y
_atom_site_fract_z
Si Si1 0.852616 0.178515 0.413325
Si Si2 0.756107 0.307391 0.865966
Si Si3 0.850104 0.795488 0.445269
Si Si4 0.443603 0.800242 0.323870
Si Si5 0.086186 0.331570 0.669353
Si Si6 0.500000 0.750000 0.750000
Si Si7 0.680045 0.750000 0.750000
O O1 0.799224 0.239331 0.383506
O O2 0.860323 0.268721 0.480786
O O3 0.898717 0.221177 0.365706
O O4 0.848359 0.986245 0.427762
O O5 0.750000 0.500000 0.848453
O O6 0.795919 0.287606 0.924571
O O7 0.782209 0.206196 0.807879
O O8 0.893284 0.717067 0.399543
O O9 0.500000 0.750000 0.346223
O O10 0.437832 0.750000 0.250000
O O11 0.441788 0.996142 0.328725
O O12 0.045336 0.200190 0.698593
O O13 0.137916 0.359387 0.712351
#
# Coordination Sequence:
#
# PCOD9506894 Si02
#       7
#    16  16  16  16  16   4   8
#     4  12  25  44  69  97 135 182 227 281 335 407
#     4  11  23  41  68  98 139 178 222 277 338 410
#     4  11  25  45  67  99 136 178 227 275 346 405
#     4  11  26  44  69 100 138 176 229 277 341 394
#     4  10  22  42  66  98 137 171 224 275 331 401
#     4  10  20  36  74  92 132 176 214 272 338 384
#     4   9  22  37  64 100 137 170 219 268 338 388
#
# _framework density 20.721174999999999
#
# number of rings (size 3 to 8) (size 9 to 14) (size 15 to 20)
#    0.000    1.217    0.000    6.261   10.957    2.783 
#    1.565    1.739    0.000    0.000    0.000    0.000 
#    0.000    0.000    0.000    0.000    0.000    0.000 
#
# Total GULP energy -256562.173504 kJ/mol
# GULP energy per Si atom -5577.438554 kJ/mol
# Density = 2.067401 g / cm^3
# Si number density = 20.721175 Si / 1000 Ang^3
#
#
#
# Elastic Constant Matrix: (Units=GPa)
#
#
# Indices 1 2 3 4 5 6 
#
# 1 174.5348 25.5376 85.8367 0.0000 0.0000 0.0000
# 2 25.5376 88.8478 16.3337 0.0000 0.0000 0.0000
# 3 85.8367 16.3337 101.6890 0.0000 0.0000 0.0000
# 4 0.0000 0.0000 0.0000 17.6529 0.0000 0.0000
# 5 0.0000 0.0000 0.0000 0.0000 -102.7807 0.0000
# 6 0.0000 0.0000 0.0000 0.0000 0.0000 18.6919
#
#
#
# Elastic Compliance Matrix: (Units=1/GPa)
#
#
# Indices 1 2 3 4 5 6 
#
# 1 0.009952 -0.001356 -0.008183 0.000000 0.000000 0.000000
# 2 -0.001356 0.011782 -0.000748 0.000000 0.000000 0.000000
# 3 -0.008183 -0.000748 0.016861 0.000000 0.000000 0.000000
# 4 0.000000 0.000000 0.000000 0.056648 0.000000 0.000000
# 5 0.000000 0.000000 0.000000 0.000000 -0.009729 0.000000
# 6 0.000000 0.000000 0.000000 0.000000 0.000000 0.053499
#
#
# Mechanical properties :
#
#
# Convention : Reuss Voigt Hill
#
# Bulk Modulus (GPa) = 55.48709 68.94306 62.21508
# Shear Modulus (GPa) = 30.19403 2.53705 16.36554
#
# Velocity S-wave (km/s) = 3.82142 1.10772 2.81338
# Velocity P-wave (km/s) = 6.80493 5.91439 6.37523
#
# Compressibility (1/GPa) = 0.01802221
#
# Stress axis : x y z
#
# Youngs Moduli (GPa) = 100.47791 84.87163 59.30688
#
# Poissons Ratio (x) = 0.11511 0.48531
# Poissons Ratio (y) = 0.13627 0.04435
# Poissons Ratio (z) = 0.82222 0.06346
#
# Static dielectric constant tensor:
#      x y z
#    x 1.728550 0.000000 0.000000 
#    y 0.000000 1.815970 0.000000 
#    z 0.000000 0.000000 1.773700 
# 
# From -- ./inp_files/41287.got.cif
#   From: 2010.05.17/outbox.cif.g08.bks.cpg/sg68_21_cif.got.tgz:41287.got - 2010.06.03 18:57:09.
