data_PCOD9506937
_publ_section_title
;
Structure prediction by ZEFSAII (Michael W. Deem and Ramdas Pophale) SiO2 
 PCOD9506937
Probable space group: C C C A
;
_chemical_formula_sum "Si O2"
_cell_formula_units_Z 96
_cell_length_a 8.545619
_cell_length_b 14.193770
_cell_length_c 28.850559
_cell_angle_alpha 90.000000
_cell_angle_beta 90.000000
_cell_angle_gamma 90.000000
_cell_volume 3499.415588
_symmetry_space_group_name_H-M "C C C A"
_symmetry_group_IT_number 68
_space_group.IT_coordinate_system_code '2'
_symmetry_cell_setting 'orthorhombic'
loop_
_space_group_symop_operation_xyz
x,y,z
-x,1/2-y,z
x,1/2-y,1/2-z
-x,y,1/2-z
-x,-y,-z
x,1/2+y,-z
-x,1/2+y,1/2+z
x,-y,1/2+z
1/2+x,1/2+y,z
1/2-x,-y,z
1/2+x,-y,1/2-z
1/2-x,1/2+y,1/2-z
1/2-x,1/2-y,-z
1/2+x,y,-z
1/2-x,y,1/2+z
1/2+x,1/2-y,1/2+z
loop_
_atom_site_type_symbol
_atom_site_label
_atom_site_fract_x
_atom_site_fract_y
_atom_site_fract_z
Si Si1 0.485572 0.417398 0.156364
Si Si2 0.987643 0.365381 0.022069
Si Si3 0.312926 0.616905 0.567576
Si Si4 0.244257 0.671521 0.905034
Si Si5 0.250983 0.115147 0.271151
Si Si6 0.071835 0.370869 0.318465
O O1 0.350300 0.425211 0.117584
O O2 0.618154 0.370053 0.125668
O O3 0.407193 0.363470 0.199920
O O4 0.552701 0.516917 0.173075
O O5 0.144460 0.406114 0.045044
O O6 0.000000 0.250000 0.022169
O O7 0.834472 0.385571 0.053160
O O8 0.949522 0.396724 0.970170
O O9 0.299554 0.728870 0.576227
O O10 0.107482 0.675486 0.867071
O O11 0.212172 0.143484 0.218565
O O12 0.097354 0.153685 0.297558
O O13 0.250000 0.000000 0.272057
#
# Coordination Sequence:
#
# PCOD9506937 Si02
#       6
#    16  16  16  16  16  16
#     4  11  21  36  61  92 123 160 209 262 313 380
#     4  10  20  37  61  87 121 166 212 254 314 397
#     4  11  22  39  63  90 121 162 212 261 318 383
#     4  11  21  35  58  91 123 162 207 258 314 378
#     4   9  19  37  60  84 114 161 207 248 307 384
#     4  10  21  38  60  86 120 159 205 255 312 379
#
# _framework density 27.433153000000001
#
# number of rings (size 3 to 8) (size 9 to 14) (size 15 to 20)
#    0.000    1.667    0.000    7.000    0.000    2.000 
#    0.000    1.667    0.000   20.000    0.000    0.000 
#    0.000    0.000    0.000    0.000    0.000    0.000 
#
# Total GULP energy -269209.513884 kJ/mol
# GULP energy per Si atom -5608.531539 kJ/mol
# Density = 2.737071 g / cm^3
# Si number density = 27.433153 Si / 1000 Ang^3
#
#
#
# Elastic Constant Matrix: (Units=GPa)
#
#
# Indices 1 2 3 4 5 6 
#
# 1 136.1332 45.4349 52.6337 0.0000 0.0000 0.0000
# 2 45.4349 57.0782 20.6909 0.0000 0.0000 0.0000
# 3 52.6337 20.6909 183.9084 0.0000 0.0000 0.0000
# 4 0.0000 0.0000 0.0000 6.7465 0.0000 0.0000
# 5 0.0000 0.0000 0.0000 0.0000 189.5266 0.0000
# 6 0.0000 0.0000 0.0000 0.0000 0.0000 30.2204
#
#
#
# Elastic Compliance Matrix: (Units=1/GPa)
#
#
# Indices 1 2 3 4 5 6 
#
# 1 0.010805 -0.007798 -0.002215 0.000000 0.000000 0.000000
# 2 -0.007798 0.023892 -0.000456 0.000000 0.000000 0.000000
# 3 -0.002215 -0.000456 0.006123 0.000000 0.000000 0.000000
# 4 0.000000 0.000000 0.000000 0.148225 0.000000 0.000000
# 5 0.000000 0.000000 0.000000 0.000000 0.005276 0.000000
# 6 0.000000 0.000000 0.000000 0.000000 0.000000 0.033090
#
#
# Mechanical properties :
#
#
# Convention : Reuss Voigt Hill
#
# Bulk Modulus (GPa) = 50.29761 68.29321 59.29541
# Shear Modulus (GPa) = 19.60968 62.52272 41.06620
#
# Velocity S-wave (km/s) = 2.67651 4.77916 3.87325
# Velocity P-wave (km/s) = 5.28451 7.44327 6.45478
#
# Compressibility (1/GPa) = 0.01988166
#
# Stress axis : x y z
#
# Youngs Moduli (GPa) = 92.55292 41.85443 163.32560
#
# Poissons Ratio (x) = 0.32637 0.36176
# Poissons Ratio (y) = 0.72170 0.07454
# Poissons Ratio (z) = 0.20500 0.01910
#
# Static dielectric constant tensor:
#      x y z
#    x 2.167870 0.000000 0.000000 
#    y 0.000000 2.173500 0.000000 
#    z 0.000000 0.000000 2.046230 
# 
# From -- ./inp_files/49329.got.cif
#   From: 2010.05.17/outbox.cif.g08.bks.cpg/sg68_25_cif.got.tgz:49329.got - 2010.06.03 18:57:09.
