data_PCOD9506523
_publ_section_title
;
Structure prediction by ZEFSAII (Michael W. Deem and Ramdas Pophale) SiO2 
 PCOD9506523
Probable space group: C C C A
;
_chemical_formula_sum "Si O2"
_cell_formula_units_Z 112
_cell_length_a 14.702984
_cell_length_b 15.756097
_cell_length_c 24.424132
_cell_angle_alpha 90.000000
_cell_angle_beta 90.000000
_cell_angle_gamma 90.000000
_cell_volume 5658.134526
_symmetry_space_group_name_H-M "C C C A"
_symmetry_group_IT_number 68
_space_group.IT_coordinate_system_code '2'
_symmetry_cell_setting 'orthorhombic'
loop_
_space_group_symop_operation_xyz
x,y,z
-x,1/2-y,z
x,1/2-y,1/2-z
-x,y,1/2-z
-x,-y,-z
x,1/2+y,-z
-x,1/2+y,1/2+z
x,-y,1/2+z
1/2+x,1/2+y,z
1/2-x,-y,z
1/2+x,-y,1/2-z
1/2-x,1/2+y,1/2-z
1/2-x,1/2-y,-z
1/2+x,y,-z
1/2-x,y,1/2+z
1/2+x,1/2-y,1/2+z
loop_
_atom_site_type_symbol
_atom_site_label
_atom_site_fract_x
_atom_site_fract_y
_atom_site_fract_z
Si Si1 0.204744 0.279625 0.140283
Si Si2 0.457956 0.655565 0.195400
Si Si3 0.084387 0.349396 0.519320
Si Si4 0.081205 0.126696 0.098624
Si Si5 0.780294 0.091675 0.040503
Si Si6 0.412859 0.561467 0.939131
Si Si7 0.097360 0.228588 0.623206
O O1 0.148902 0.327019 0.188390
O O2 0.155302 0.190238 0.125239
O O3 0.196435 0.341110 0.087451
O O4 0.311167 0.263352 0.150619
O O5 0.500000 0.750000 0.194044
O O6 0.500000 0.614938 0.250000
O O7 0.499032 0.614562 0.141113
O O8 0.049948 0.331675 0.458531
O O9 0.188573 0.375537 0.511867
O O10 0.089943 0.274934 0.563667
O O11 0.018733 0.421611 0.544855
O O12 0.109758 0.031981 0.081798
O O13 0.750000 0.000000 0.064129
O O14 0.855409 0.081078 0.993747
O O15 0.392785 0.630289 0.892101
O O16 0.000000 0.250000 0.650411
#
# Coordination Sequence:
#
# PCOD9506523 Si02
#       7
#    16  16  16  16  16  16  16
#     4  10  21  35  55  80 112 147 190 234 274 339
#     4   9  20  38  59  86 105 135 184 240 298 334
#     4  10  20  33  48  77 118 158 185 222 266 331
#     4  11  20  32  54  83 108 149 188 235 290 334
#     4  11  21  32  49  78 114 155 188 216 271 335
#     4  11  21  32  49  78 120 151 191 228 270 340
#     4   9  20  35  51  77 116 159 189 219 265 331
#
# _framework density 19.794509000000001
#
# number of rings (size 3 to 8) (size 9 to 14) (size 15 to 20)
#    0.000    1.857    1.429    3.000    2.000    6.286 
#    0.000    0.000    0.000    0.000   18.571    8.000 
#    0.000    1.143    0.000    0.000    0.000    0.000 
#
# Total GULP energy -312240.234005 kJ/mol
# GULP energy per Si atom -5575.718464 kJ/mol
# Density = 1.974946 g / cm^3
# Si number density = 19.794509 Si / 1000 Ang^3
#
#
#
# Elastic Constant Matrix: (Units=GPa)
#
#
# Indices 1 2 3 4 5 6 
#
# 1 141.9113 28.4600 38.6180 0.0000 0.0000 0.0000
# 2 28.4600 90.2036 -0.0417 0.0000 0.0000 0.0000
# 3 38.6180 -0.0417 50.7289 0.0000 0.0000 0.0000
# 4 0.0000 0.0000 0.0000 6.1980 0.0000 0.0000
# 5 0.0000 0.0000 0.0000 0.0000 13.0752 0.0000
# 6 0.0000 0.0000 0.0000 0.0000 0.0000 20.6759
#
#
#
# Elastic Compliance Matrix: (Units=1/GPa)
#
#
# Indices 1 2 3 4 5 6 
#
# 1 0.009661 -0.003051 -0.007357 0.000000 0.000000 0.000000
# 2 -0.003051 0.012050 0.002333 0.000000 0.000000 0.000000
# 3 -0.007357 0.002333 0.025315 0.000000 0.000000 0.000000
# 4 0.000000 0.000000 0.000000 0.161343 0.000000 0.000000
# 5 0.000000 0.000000 0.000000 0.000000 0.076481 0.000000
# 6 0.000000 0.000000 0.000000 0.000000 0.000000 0.048366
#
#
# Mechanical properties :
#
#
# Convention : Reuss Voigt Hill
#
# Bulk Modulus (GPa) = 32.38893 46.32404 39.35648
# Shear Modulus (GPa) = 13.90213 22.37697 18.13955
#
# Velocity S-wave (km/s) = 2.65301 3.36588 3.03048
# Velocity P-wave (km/s) = 5.07767 6.20958 5.67193
#
# Compressibility (1/GPa) = 0.03087475
#
# Stress axis : x y z
#
# Youngs Moduli (GPa) = 103.51341 82.98859 39.50232
#
# Poissons Ratio (x) = 0.25323 0.29061
# Poissons Ratio (y) = 0.31586 -0.09215
# Poissons Ratio (z) = 0.76152 -0.19360
#
# Static dielectric constant tensor:
#      x y z
#    x 1.779480 0.000000 0.000000 
#    y 0.000000 1.748680 0.000000 
#    z 0.000000 0.000000 1.735680 
# 
# From -- ./inp_files/45534.got.cif
#   From: 2010.05.17/outbox.cif.g08.bks.cpg/sg68_23_cif.got.tgz:45534.got - 2010.06.03 18:57:09.
