data_PCOD9506398
_publ_section_title
;
Structure prediction by ZEFSAII (Michael W. Deem and Ramdas Pophale) SiO2 
 PCOD9506398
Probable space group: C C C A
;
_chemical_formula_sum "Si O2"
_cell_formula_units_Z 88
_cell_length_a 18.142398
_cell_length_b 13.293938
_cell_length_c 19.544071
_cell_angle_alpha 90.000000
_cell_angle_beta 90.000000
_cell_angle_gamma 90.000000
_cell_volume 4713.715543
_symmetry_space_group_name_H-M "C C C A"
_symmetry_group_IT_number 68
_space_group.IT_coordinate_system_code '2'
_symmetry_cell_setting 'orthorhombic'
loop_
_space_group_symop_operation_xyz
x,y,z
-x,1/2-y,z
x,1/2-y,1/2-z
-x,y,1/2-z
-x,-y,-z
x,1/2+y,-z
-x,1/2+y,1/2+z
x,-y,1/2+z
1/2+x,1/2+y,z
1/2-x,-y,z
1/2+x,-y,1/2-z
1/2-x,1/2+y,1/2-z
1/2-x,1/2-y,-z
1/2+x,y,-z
1/2-x,y,1/2+z
1/2+x,1/2-y,1/2+z
loop_
_atom_site_type_symbol
_atom_site_label
_atom_site_fract_x
_atom_site_fract_y
_atom_site_fract_z
Si Si1 0.808519 0.588258 0.880379
Si Si2 0.000000 0.250000 0.452979
Si Si3 0.912133 0.130831 0.244068
Si Si4 0.109682 0.899092 0.025555
Si Si5 0.743504 0.708591 0.576574
Si Si6 0.112571 0.093661 0.107649
O O1 0.750000 0.500000 0.868552
O O2 0.873864 0.591137 0.824649
O O3 0.765887 0.695771 0.877655
O O4 0.843839 0.576749 0.956272
O O5 0.044897 0.172601 0.499759
O O6 0.058004 0.312289 0.407156
O O7 0.895449 0.250000 0.250000
O O8 0.882874 0.075999 0.311769
O O9 0.000000 0.119441 0.250000
O O10 0.163059 0.839794 0.078301
O O11 0.085367 0.000227 0.063101
O O12 0.750000 0.750000 0.500000
O O13 0.806022 0.624867 0.584422
#
# Coordination Sequence:
#
# PCOD9506398 Si02
#       6
#    16   8  16  16  16  16
#     4  11  22  38  64  93 126 167 206 262 320 372
#     4  12  22  38  61  96 131 158 214 264 320 368
#     4  11  22  41  63  91 128 161 208 265 312 371
#     4  11  23  39  63  95 125 166 205 263 315 380
#     4  10  19  39  58  86 124 155 204 257 305 367
#     4  12  22  39  64  91 123 167 209 256 315 374
#
# _framework density 18.668924000000001
#
# number of rings (size 3 to 8) (size 9 to 14) (size 15 to 20)
#    0.000    0.909    5.455    5.455    0.000    1.455 
#    0.000    0.000    0.000    0.000    0.000    0.000 
#    0.000    0.000    0.000    0.000    0.000    0.000 
#
# Total GULP energy -245715.079028 kJ/mol
# GULP energy per Si atom -5584.433614 kJ/mol
# Density = 1.862643 g / cm^3
# Si number density = 18.668924 Si / 1000 Ang^3
#
#
#
# Elastic Constant Matrix: (Units=GPa)
#
#
# Indices 1 2 3 4 5 6 
#
# 1 69.6465 19.9839 28.9211 0.0000 0.0000 0.0000
# 2 19.9839 79.6804 32.5871 0.0000 0.0000 0.0000
# 3 28.9211 32.5871 98.3561 0.0000 0.0000 0.0000
# 4 0.0000 0.0000 0.0000 17.4765 0.0000 0.0000
# 5 0.0000 0.0000 0.0000 0.0000 14.7923 0.0000
# 6 0.0000 0.0000 0.0000 0.0000 0.0000 31.3411
#
#
#
# Elastic Compliance Matrix: (Units=1/GPa)
#
#
# Indices 1 2 3 4 5 6 
#
# 1 0.016786 -0.002535 -0.004096 0.000000 0.000000 0.000000
# 2 -0.002535 0.014900 -0.004191 0.000000 0.000000 0.000000
# 3 -0.004096 -0.004191 0.012760 0.000000 0.000000 0.000000
# 4 0.000000 0.000000 0.000000 0.057220 0.000000 0.000000
# 5 0.000000 0.000000 0.000000 0.000000 0.067603 0.000000
# 6 0.000000 0.000000 0.000000 0.000000 0.000000 0.031907
#
#
# Mechanical properties :
#
#
# Convention : Reuss Voigt Hill
#
# Bulk Modulus (GPa) = 43.85543 45.62970 44.74256
# Shear Modulus (GPa) = 21.69940 23.80139 22.75040
#
# Velocity S-wave (km/s) = 3.41299 3.57448 3.49467
# Velocity P-wave (km/s) = 6.25088 6.44441 6.34838
#
# Compressibility (1/GPa) = 0.02280219
#
# Stress axis : x y z
#
# Youngs Moduli (GPa) = 59.57169 67.11411 78.36850
#
# Poissons Ratio (x) = 0.17012 0.32101
# Poissons Ratio (y) = 0.15101 0.32846
# Poissons Ratio (z) = 0.24401 0.28129
#
# Static dielectric constant tensor:
#      x y z
#    x 1.650540 0.000000 0.000000 
#    y 0.000000 1.655980 0.000000 
#    z 0.000000 0.000000 1.635400 
# 
# From -- ./inp_files/31866.got.cif
#   From: 2010.05.17/outbox.cif.g08.bks.cpg/sg68_16_cif.got.tgz:31866.got - 2010.06.03 18:57:09.
