data_PCOD9506751
_publ_section_title
;
Structure prediction by ZEFSAII (Michael W. Deem and Ramdas Pophale) SiO2 
 PCOD9506751
Probable space group: C C C A
;
_chemical_formula_sum "Si O2"
_cell_formula_units_Z 96
_cell_length_a 14.496788
_cell_length_b 19.577500
_cell_length_c 16.236558
_cell_angle_alpha 90.000000
_cell_angle_beta 90.000000
_cell_angle_gamma 90.000000
_cell_volume 4608.111604
_symmetry_space_group_name_H-M "C C C A"
_symmetry_group_IT_number 68
_space_group.IT_coordinate_system_code '2'
_symmetry_cell_setting 'orthorhombic'
loop_
_space_group_symop_operation_xyz
x,y,z
-x,1/2-y,z
x,1/2-y,1/2-z
-x,y,1/2-z
-x,-y,-z
x,1/2+y,-z
-x,1/2+y,1/2+z
x,-y,1/2+z
1/2+x,1/2+y,z
1/2-x,-y,z
1/2+x,-y,1/2-z
1/2-x,1/2+y,1/2-z
1/2-x,1/2-y,-z
1/2+x,y,-z
1/2-x,y,1/2+z
1/2+x,1/2-y,1/2+z
loop_
_atom_site_type_symbol
_atom_site_label
_atom_site_fract_x
_atom_site_fract_y
_atom_site_fract_z
Si Si1 0.619873 0.919573 0.391394
Si Si2 0.750000 0.500000 0.983242
Si Si3 0.340699 0.111274 0.870254
Si Si4 0.048632 0.324455 0.827849
Si Si5 0.471469 0.171186 0.988243
Si Si6 0.000000 0.441251 0.250000
Si Si7 0.241843 0.324167 0.273974
O O1 0.545495 0.875703 0.441939
O O2 0.566868 0.968186 0.323973
O O3 0.682030 0.866527 0.339135
O O4 0.683206 0.958395 0.456148
O O5 0.688369 0.453598 0.923169
O O6 0.376867 0.164965 0.937109
O O7 0.424577 0.098690 0.805900
O O8 0.257623 0.135536 0.812606
O O9 0.155838 0.315481 0.808277
O O10 0.000000 0.250000 0.832840
O O11 0.000000 0.360817 0.750000
O O12 0.038074 0.355042 0.918361
O O13 0.500000 0.250000 0.988224
O O14 0.201617 0.250000 0.250000
#
# Coordination Sequence:
#
# PCOD9506751 Si02
#       7
#    16   8  16  16  16   8  16
#     4  10  23  41  67  92 132 175 219 280 316 403
#     4  12  26  42  62  96 134 186 236 256 320 394
#     4  10  23  41  65  95 131 175 223 276 317 403
#     4  10  20  36  55  88 132 160 199 262 332 405
#     4  10  21  40  67  98 128 168 220 280 348 385
#     4   8  20  42  61  90 122 164 217 264 336 366
#     4  11  21  39  68  96 129 168 219 278 343 390
#
# _framework density 20.832829
#
# number of rings (size 3 to 8) (size 9 to 14) (size 15 to 20)
#    0.000    1.833    1.667    2.000    2.333    5.333 
#    0.000   10.833    7.333    0.000    0.000    0.000 
#    0.000    0.000    0.000    0.000    0.000    0.000 
#
# Total GULP energy -267543.734935 kJ/mol
# GULP energy per Si atom -5573.827811 kJ/mol
# Density = 2.078541 g / cm^3
# Si number density = 20.832829 Si / 1000 Ang^3
#
#
#
# Elastic Constant Matrix: (Units=GPa)
#
#
# Indices 1 2 3 4 5 6 
#
# 1 91.9790 24.2301 58.5462 0.0000 0.0000 0.0000
# 2 24.2301 58.6245 50.4966 0.0000 0.0000 0.0000
# 3 58.5462 50.4966 190.7644 0.0000 0.0000 0.0000
# 4 0.0000 0.0000 0.0000 9.7529 0.0000 0.0000
# 5 0.0000 0.0000 0.0000 0.0000 -60.9895 0.0000
# 6 0.0000 0.0000 0.0000 0.0000 0.0000 28.4994
#
#
#
# Elastic Compliance Matrix: (Units=1/GPa)
#
#
# Indices 1 2 3 4 5 6 
#
# 1 0.013826 -0.002668 -0.003537 0.000000 0.000000 0.000000
# 2 -0.002668 0.022610 -0.005166 0.000000 0.000000 0.000000
# 3 -0.003537 -0.005166 0.007695 0.000000 0.000000 0.000000
# 4 0.000000 0.000000 0.000000 0.102533 0.000000 0.000000
# 5 0.000000 0.000000 0.000000 0.000000 -0.016396 0.000000
# 6 0.000000 0.000000 0.000000 0.000000 0.000000 0.035088
#
#
# Mechanical properties :
#
#
# Convention : Reuss Voigt Hill
#
# Bulk Modulus (GPa) = 46.75239 67.54599 57.14919
# Shear Modulus (GPa) = 25.61087 9.32558 17.46822
#
# Velocity S-wave (km/s) = 3.51001 2.11804 2.89882
# Velocity P-wave (km/s) = 6.23838 6.20280 6.22061
#
# Compressibility (1/GPa) = 0.02138928
#
# Stress axis : x y z
#
# Youngs Moduli (GPa) = 72.32601 44.22737 129.95103
#
# Poissons Ratio (x) = 0.11799 0.45966
# Poissons Ratio (y) = 0.19295 0.67138
# Poissons Ratio (z) = 0.25583 0.22850
#
# Static dielectric constant tensor:
#      x y z
#    x 1.748430 0.000000 0.000000 
#    y 0.000000 1.762450 0.000000 
#    z 0.000000 0.000000 1.767020 
# 
# From -- ./inp_files/22407.got.cif
#   From: 2010.05.17/outbox.cif.g08.bks.cpg/sg68_12_cif.got.tgz:22407.got - 2010.06.03 18:57:09.
