data_PCOD9506435
_publ_section_title
;
Structure prediction by ZEFSAII (Michael W. Deem and Ramdas Pophale) SiO2 
 PCOD9506435
Probable space group: C C C A
;
_chemical_formula_sum "Si O2"
_cell_formula_units_Z 96
_cell_length_a 20.642146
_cell_length_b 9.716435
_cell_length_c 20.025171
_cell_angle_alpha 90.000000
_cell_angle_beta 90.000000
_cell_angle_gamma 90.000000
_cell_volume 4016.409896
_symmetry_space_group_name_H-M "C C C A"
_symmetry_group_IT_number 68
_space_group.IT_coordinate_system_code '2'
_symmetry_cell_setting 'orthorhombic'
loop_
_space_group_symop_operation_xyz
x,y,z
-x,1/2-y,z
x,1/2-y,1/2-z
-x,y,1/2-z
-x,-y,-z
x,1/2+y,-z
-x,1/2+y,1/2+z
x,-y,1/2+z
1/2+x,1/2+y,z
1/2-x,-y,z
1/2+x,-y,1/2-z
1/2-x,1/2+y,1/2-z
1/2-x,1/2-y,-z
1/2+x,y,-z
1/2-x,y,1/2+z
1/2+x,1/2-y,1/2+z
loop_
_atom_site_type_symbol
_atom_site_label
_atom_site_fract_x
_atom_site_fract_y
_atom_site_fract_z
Si Si1 0.882885 0.411342 0.694452
Si Si2 0.913498 0.540235 0.554195
Si Si3 0.817127 0.768466 0.928403
Si Si4 0.750000 0.000000 0.095697
Si Si5 0.056423 0.119606 0.432724
Si Si6 0.386816 0.590252 0.661210
Si Si7 0.250000 0.500000 0.338613
O O1 0.900257 0.497487 0.629549
O O2 0.892351 0.253713 0.672966
O O3 0.910418 0.459803 0.765200
O O4 0.806771 0.437141 0.704655
O O5 0.853649 0.625866 0.522501
O O6 0.920711 0.407504 0.508330
O O7 0.978930 0.629119 0.558074
O O8 0.775283 0.634475 0.944740
O O9 0.885121 0.706105 0.897800
O O10 0.775514 0.871399 0.882791
O O11 0.813045 0.950791 0.139036
O O12 0.065403 0.973586 0.393631
#
# Coordination Sequence:
#
# PCOD9506435 Si02
#       7
#    16  16  16   8  16  16   8
#     4  10  21  38  63  96 132 171 217 269 329 396
#     4  10  23  42  65  92 130 176 224 271 327 390
#     4  10  21  40  66  95 126 166 218 268 320 387
#     4  10  19  40  65  94 131 170 213 260 331 398
#     4  10  23  42  65  92 130 176 224 271 327 390
#     4  10  21  38  63  96 132 171 217 269 329 396
#     4  10  19  40  65  94 131 170 213 260 331 398
#
# _framework density 23.901944
#
# number of rings (size 3 to 8) (size 9 to 14) (size 15 to 20)
#    0.000    2.000    1.667    1.000    2.333    1.333 
#    0.000   29.167    0.000    8.000    0.000    0.000 
#    0.000    0.000    0.000    0.000    0.000    0.000 
#
# Total GULP energy -267210.567242 kJ/mol
# GULP energy per Si atom -5566.886818 kJ/mol
# Density = 2.384754 g / cm^3
# Si number density = 23.901944 Si / 1000 Ang^3
#
#
#
# Elastic Constant Matrix: (Units=GPa)
#
#
# Indices 1 2 3 4 5 6 
#
# 1 89.5909 9.2996 15.7079 0.0000 0.0000 0.0000
# 2 9.2996 34.3630 -11.6739 0.0000 0.0000 0.0000
# 3 15.7079 -11.6739 70.2807 0.0000 0.0000 0.0000
# 4 0.0000 0.0000 0.0000 -75.8415 0.0000 0.0000
# 5 0.0000 0.0000 0.0000 0.0000 1.1768 0.0000
# 6 0.0000 0.0000 0.0000 0.0000 0.0000 6.3808
#
#
#
# Elastic Compliance Matrix: (Units=1/GPa)
#
#
# Indices 1 2 3 4 5 6 
#
# 1 0.012239 -0.004495 -0.003482 0.000000 0.000000 0.000000
# 2 -0.004495 0.032492 0.006402 0.000000 0.000000 0.000000
# 3 -0.003482 0.006402 0.016070 0.000000 0.000000 0.000000
# 4 0.000000 0.000000 0.000000 -0.013185 0.000000 0.000000
# 5 0.000000 0.000000 0.000000 0.000000 0.849776 0.000000
# 6 0.000000 0.000000 0.000000 0.000000 0.000000 0.156720
#
#
# Mechanical properties :
#
#
# Convention : Reuss Voigt Hill
#
# Bulk Modulus (GPa) = 17.34584 24.54466 20.94525
# Shear Modulus (GPa) = 4.64476 -1.59673 1.52402
#
# Velocity S-wave (km/s) = 1.39552 -0.81822 0.79937
# Velocity P-wave (km/s) = 3.14157 3.06570 3.10387
#
# Compressibility (1/GPa) = 0.05765072
#
# Stress axis : x y z
#
# Youngs Moduli (GPa) = 81.70619 30.77638 62.22668
#
# Poissons Ratio (x) = 0.13835 0.21668
# Poissons Ratio (y) = 0.36728 -0.39836
# Poissons Ratio (z) = 0.28451 -0.19702
#
# Static dielectric constant tensor:
#      x y z
#    x 1.985560 0.000000 0.000000 
#    y 0.000000 2.123170 0.000000 
#    z 0.000000 0.000000 1.859120 
# 
# From -- ./inp_files/46983.got.cif
#   From: 2010.05.17/outbox.cif.g08.bks.cpg/sg68_24_cif.got.tgz:46983.got - 2010.06.03 18:57:09.
