data_PCOD9506299
_publ_section_title
;
Structure prediction by ZEFSAII (Michael W. Deem and Ramdas Pophale) SiO2 
 PCOD9506299
Probable space group: C C C A
;
_chemical_formula_sum "Si O2"
_cell_formula_units_Z 96
_cell_length_a 20.149565
_cell_length_b 17.426561
_cell_length_c 11.900030
_cell_angle_alpha 90.000000
_cell_angle_beta 90.000000
_cell_angle_gamma 90.000000
_cell_volume 4178.548255
_symmetry_space_group_name_H-M "C C C A"
_symmetry_group_IT_number 68
_space_group.IT_coordinate_system_code '2'
_symmetry_cell_setting 'orthorhombic'
loop_
_space_group_symop_operation_xyz
x,y,z
-x,1/2-y,z
x,1/2-y,1/2-z
-x,y,1/2-z
-x,-y,-z
x,1/2+y,-z
-x,1/2+y,1/2+z
x,-y,1/2+z
1/2+x,1/2+y,z
1/2-x,-y,z
1/2+x,-y,1/2-z
1/2-x,1/2+y,1/2-z
1/2-x,1/2-y,-z
1/2+x,y,-z
1/2-x,y,1/2+z
1/2+x,1/2-y,1/2+z
loop_
_atom_site_type_symbol
_atom_site_label
_atom_site_fract_x
_atom_site_fract_y
_atom_site_fract_z
Si Si1 0.674021 0.609256 0.770955
Si Si2 0.500000 0.750000 0.424833
Si Si3 0.816354 0.667193 0.690745
Si Si4 0.137768 0.097158 0.538144
Si Si5 0.750000 0.500000 0.431726
Si Si6 0.130177 0.218776 0.960852
Si Si7 0.438437 0.399462 0.680118
O O1 0.743832 0.637301 0.719431
O O2 0.627346 0.580780 0.669851
O O3 0.696496 0.543230 0.855176
O O4 0.644460 0.678682 0.843467
O O5 0.554234 0.791371 0.501671
O O6 0.536614 0.686331 0.351987
O O7 0.824021 0.750000 0.750000
O O8 0.827024 0.679557 0.558919
O O9 0.873368 0.612764 0.742830
O O10 0.142764 0.189979 0.534938
O O11 0.084993 0.070895 0.442982
O O12 0.207050 0.058825 0.503817
O O13 0.500000 0.434876 0.750000
#
# Coordination Sequence:
#
# PCOD9506299 Si02
#       7
#    16   8  16  16   8  16  16
#     4  12  26  41  63 105 144 172 223 292 358 404
#     4  10  19  36  65  98 134 181 223 270 336 404
#     4  12  19  33  63  98 135 172 221 278 332 402
#     4  11  24  42  66 100 133 179 226 279 346 410
#     4  12  24  46  66  94 136 188 232 278 344 414
#     4  11  23  40  69 105 140 177 224 286 346 412
#     4  11  19  37  64  99 132 174 228 277 319 410
#
# _framework density 22.974487
#
# number of rings (size 3 to 8) (size 9 to 14) (size 15 to 20)
#    0.000    0.667    6.667    3.250    0.000    2.000 
#    0.000    6.667    0.000    9.000    0.000    0.000 
#    0.000    0.000    0.000    0.000    0.000    0.000 
#
# Total GULP energy -268542.912123 kJ/mol
# GULP energy per Si atom -5594.644003 kJ/mol
# Density = 2.292220 g / cm^3
# Si number density = 22.974487 Si / 1000 Ang^3
#
#
#
# Elastic Constant Matrix: (Units=GPa)
#
#
# Indices 1 2 3 4 5 6 
#
# 1 76.3360 4.5142 30.6818 0.0000 0.0000 0.0000
# 2 4.5142 49.3106 22.2266 0.0000 0.0000 0.0000
# 3 30.6818 22.2266 154.7181 0.0000 0.0000 0.0000
# 4 0.0000 0.0000 0.0000 3.3201 0.0000 0.0000
# 5 0.0000 0.0000 0.0000 0.0000 90.2402 0.0000
# 6 0.0000 0.0000 0.0000 0.0000 0.0000 13.9725
#
#
#
# Elastic Compliance Matrix: (Units=1/GPa)
#
#
# Indices 1 2 3 4 5 6 
#
# 1 0.014235 -0.000033 -0.002818 0.000000 0.000000 0.000000
# 2 -0.000033 0.021684 -0.003109 0.000000 0.000000 0.000000
# 3 -0.002818 -0.003109 0.007469 0.000000 0.000000 0.000000
# 4 0.000000 0.000000 0.000000 0.301199 0.000000 0.000000
# 5 0.000000 0.000000 0.000000 0.000000 0.011082 0.000000
# 6 0.000000 0.000000 0.000000 0.000000 0.000000 0.071569
#
#
# Mechanical properties :
#
#
# Convention : Reuss Voigt Hill
#
# Bulk Modulus (GPa) = 31.77817 43.91221 37.84519
# Shear Modulus (GPa) = 11.11987 36.36935 23.74461
#
# Velocity S-wave (km/s) = 2.20241 3.98305 3.21833
# Velocity P-wave (km/s) = 4.50882 6.34885 5.50624
#
# Compressibility (1/GPa) = 0.03146814
#
# Stress axis : x y z
#
# Youngs Moduli (GPa) = 70.25131 46.11739 133.89052
#
# Poissons Ratio (x) = 0.00152 0.37732
# Poissons Ratio (y) = 0.00231 0.41620
# Poissons Ratio (z) = 0.19798 0.14336
#
# Static dielectric constant tensor:
#      x y z
#    x 1.844790 0.000000 0.000000 
#    y 0.000000 1.911020 0.000000 
#    z 0.000000 0.000000 1.917730 
# 
# From -- ./inp_files/14683.got.cif
#   From: 2010.05.17/outbox.cif.g08.bks.cpg/sg68_8_cif.got.tgz:14683.got - 2010.06.03 18:57:09.
