data_PCOD9506122
_publ_section_title
;
Structure prediction by ZEFSAII (Michael W. Deem and Ramdas Pophale) SiO2 
 PCOD9506122
Probable space group: C C C A
;
_chemical_formula_sum "Si O2"
_cell_formula_units_Z 80
_cell_length_a 8.763797
_cell_length_b 16.573490
_cell_length_c 29.137059
_cell_angle_alpha 90.000000
_cell_angle_beta 90.000000
_cell_angle_gamma 90.000000
_cell_volume 4232.061724
_symmetry_space_group_name_H-M "C C C A"
_symmetry_group_IT_number 68
_space_group.IT_coordinate_system_code '2'
_symmetry_cell_setting 'orthorhombic'
loop_
_space_group_symop_operation_xyz
x,y,z
-x,1/2-y,z
x,1/2-y,1/2-z
-x,y,1/2-z
-x,-y,-z
x,1/2+y,-z
-x,1/2+y,1/2+z
x,-y,1/2+z
1/2+x,1/2+y,z
1/2-x,-y,z
1/2+x,-y,1/2-z
1/2-x,1/2+y,1/2-z
1/2-x,1/2-y,-z
1/2+x,y,-z
1/2-x,y,1/2+z
1/2+x,1/2-y,1/2+z
loop_
_atom_site_type_symbol
_atom_site_label
_atom_site_fract_x
_atom_site_fract_y
_atom_site_fract_z
Si Si1 0.815344 0.154774 0.800597
Si Si2 0.332571 0.649431 0.696329
Si Si3 0.897337 0.831185 0.880887
Si Si4 0.305531 0.411092 0.603081
Si Si5 0.819332 0.759944 0.050391
O O1 0.785594 0.128294 0.748302
O O2 0.819665 0.252949 0.804324
O O3 0.684827 0.132537 0.836322
O O4 0.988844 0.128721 0.811383
O O5 0.235497 0.610935 0.655917
O O6 0.766232 0.802299 0.915646
O O7 0.000000 0.750000 0.870825
O O8 0.015076 0.894289 0.902278
O O9 0.250000 0.500000 0.593100
O O10 0.220369 0.346998 0.571148
O O11 0.000000 0.750000 0.050106
O O12 0.750000 0.750000 0.000000
#
# Coordination Sequence:
#
# PCOD9506122 Si02
#       5
#    16  16  16  16  16
#     4   9  16  31  55  83 112 160 213 244 276 339
#     4   9  17  31  54  82 119 157 202 248 288 339
#     4  10  19  34  57  87 116 155 206 240 283 355
#     4  11  23  39  57  90 129 154 187 251 308 346
#     4  11  22  42  68  90 113 150 201 244 287 363
#
# _framework density 18.903314999999999
#
# number of rings (size 3 to 8) (size 9 to 14) (size 15 to 20)
#    0.000    2.000    4.000    4.200    0.000    0.800 
#    0.000   12.000    0.000    0.000    0.000    0.000 
#    0.000    0.000    0.000    0.000    0.000    0.000 
#
# Total GULP energy -223221.981388 kJ/mol
# GULP energy per Si atom -5580.549535 kJ/mol
# Density = 1.886029 g / cm^3
# Si number density = 18.903315 Si / 1000 Ang^3
#
#
#
# Elastic Constant Matrix: (Units=GPa)
#
#
# Indices 1 2 3 4 5 6 
#
# 1 156.0283 45.0552 69.7946 0.0000 0.0000 0.0000
# 2 45.0552 74.5547 30.9344 0.0000 0.0000 0.0000
# 3 69.7946 30.9344 104.1615 0.0000 0.0000 0.0000
# 4 0.0000 0.0000 0.0000 4.7011 0.0000 0.0000
# 5 0.0000 0.0000 0.0000 0.0000 37.2313 0.0000
# 6 0.0000 0.0000 0.0000 0.0000 0.0000 15.5129
#
#
#
# Elastic Compliance Matrix: (Units=1/GPa)
#
#
# Indices 1 2 3 4 5 6 
#
# 1 0.009979 -0.003714 -0.005584 0.000000 0.000000 0.000000
# 2 -0.003714 0.016680 -0.002465 0.000000 0.000000 0.000000
# 3 -0.005584 -0.002465 0.014074 0.000000 0.000000 0.000000
# 4 0.000000 0.000000 0.000000 0.212718 0.000000 0.000000
# 5 0.000000 0.000000 0.000000 0.000000 0.026859 0.000000
# 6 0.000000 0.000000 0.000000 0.000000 0.000000 0.064463
#
#
# Mechanical properties :
#
#
# Convention : Reuss Voigt Hill
#
# Bulk Modulus (GPa) = 58.11315 69.59034 63.85174
# Shear Modulus (GPa) = 13.36774 24.08639 18.72707
#
# Velocity S-wave (km/s) = 2.66214 3.57345 3.15092
# Velocity P-wave (km/s) = 6.34495 7.34301 6.86215
#
# Compressibility (1/GPa) = 0.01720781
#
# Stress axis : x y z
#
# Youngs Moduli (GPa) = 100.20798 59.95113 71.05261
#
# Poissons Ratio (x) = 0.22265 0.39674
# Poissons Ratio (y) = 0.37216 0.17516
# Poissons Ratio (z) = 0.55954 0.14780
#
# Static dielectric constant tensor:
#      x y z
#    x 1.669760 0.000000 0.000000 
#    y 0.000000 1.650210 0.000000 
#    z 0.000000 0.000000 1.661700 
# 
# From -- ./inp_files/49120.got.cif
#   From: 2010.05.17/outbox.cif.g08.bks.cpg/sg68_25_cif.got.tgz:49120.got - 2010.06.03 18:57:09.
