data_PCOD9506678
_publ_section_title
;
Structure prediction by ZEFSAII (Michael W. Deem and Ramdas Pophale) SiO2 
 PCOD9506678
Probable space group: C C C A
;
_chemical_formula_sum "Si O2"
_cell_formula_units_Z 72
_cell_length_a 13.534395
_cell_length_b 15.712291
_cell_length_c 18.136025
_cell_angle_alpha 90.000000
_cell_angle_beta 90.000000
_cell_angle_gamma 90.000000
_cell_volume 3856.740930
_symmetry_space_group_name_H-M "C C C A"
_symmetry_group_IT_number 68
_space_group.IT_coordinate_system_code '2'
_symmetry_cell_setting 'orthorhombic'
loop_
_space_group_symop_operation_xyz
x,y,z
-x,1/2-y,z
x,1/2-y,1/2-z
-x,y,1/2-z
-x,-y,-z
x,1/2+y,-z
-x,1/2+y,1/2+z
x,-y,1/2+z
1/2+x,1/2+y,z
1/2-x,-y,z
1/2+x,-y,1/2-z
1/2-x,1/2+y,1/2-z
1/2-x,1/2-y,-z
1/2+x,y,-z
1/2-x,y,1/2+z
1/2+x,1/2-y,1/2+z
loop_
_atom_site_type_symbol
_atom_site_label
_atom_site_fract_x
_atom_site_fract_y
_atom_site_fract_z
Si Si1 0.490637 0.073666 0.598388
Si Si2 0.652469 0.552080 0.971360
Si Si3 0.500000 0.475352 0.250000
Si Si4 0.326590 0.250000 0.750000
Si Si5 0.000000 0.250000 0.358230
Si Si6 0.698374 0.594482 0.814478
O O1 0.395217 0.084335 0.546740
O O2 0.536935 0.167017 0.600808
O O3 0.569633 0.010773 0.561940
O O4 0.474215 0.034441 0.679559
O O5 0.750000 0.500000 0.989553
O O6 0.678552 0.612012 0.901591
O O7 0.405652 0.419063 0.227042
O O8 0.405195 0.219840 0.688407
O O9 0.262342 0.170089 0.778646
O O10 0.750000 0.500000 0.811702
#
# Coordination Sequence:
#
# PCOD9506678 Si02
#       6
#    16  16   8   8   8  16
#     4  10  20  35  57  81 107 146 184 230 283 332
#     4   9  19  37  56  77 111 147 180 223 283 344
#     4  10  20  36  58  82 110 144 190 233 272 333
#     4  11  22  35  58  84 110 147 188 237 284 328
#     4  11  20  34  54  82 110 135 188 242 276 327
#     4  10  20  37  58  84 115 149 188 233 284 336
#
# _framework density 18.668613000000001
#
# number of rings (size 3 to 8) (size 9 to 14) (size 15 to 20)
#    0.000    2.000    0.000    6.667    0.000    3.111 
#    0.000   11.111    0.000    0.000    0.000    0.000 
#    0.000    0.000    0.000    0.000    0.000    0.000 
#
# Total GULP energy -200539.607993 kJ/mol
# GULP energy per Si atom -5570.544666 kJ/mol
# Density = 1.862612 g / cm^3
# Si number density = 18.668613 Si / 1000 Ang^3
#
#
#
# Elastic Constant Matrix: (Units=GPa)
#
#
# Indices 1 2 3 4 5 6 
#
# 1 107.6855 22.6578 49.3152 0.0000 0.0000 0.0000
# 2 22.6578 76.7537 39.4788 0.0000 0.0000 0.0000
# 3 49.3152 39.4788 107.9575 0.0000 0.0000 0.0000
# 4 0.0000 0.0000 0.0000 10.0496 0.0000 0.0000
# 5 0.0000 0.0000 0.0000 0.0000 55.6004 0.0000
# 6 0.0000 0.0000 0.0000 0.0000 0.0000 27.2032
#
#
#
# Elastic Compliance Matrix: (Units=1/GPa)
#
#
# Indices 1 2 3 4 5 6 
#
# 1 0.011790 -0.000875 -0.005066 0.000000 0.000000 0.000000
# 2 -0.000875 0.016112 -0.005492 0.000000 0.000000 0.000000
# 3 -0.005066 -0.005492 0.013586 0.000000 0.000000 0.000000
# 4 0.000000 0.000000 0.000000 0.099506 0.000000 0.000000
# 5 0.000000 0.000000 0.000000 0.000000 0.017985 0.000000
# 6 0.000000 0.000000 0.000000 0.000000 0.000000 0.036760
#
#
# Mechanical properties :
#
#
# Convention : Reuss Voigt Hill
#
# Bulk Modulus (GPa) = 53.70098 57.25557 55.47827
# Shear Modulus (GPa) = 22.24066 30.63364 26.43715
#
# Velocity S-wave (km/s) = 3.45532 4.05522 3.76723
# Velocity P-wave (km/s) = 6.68931 7.25689 6.97887
#
# Compressibility (1/GPa) = 0.01862163
#
# Stress axis : x y z
#
# Youngs Moduli (GPa) = 84.81518 62.06570 73.60782
#
# Poissons Ratio (x) = 0.05430 0.37289
# Poissons Ratio (y) = 0.07420 0.40428
# Poissons Ratio (z) = 0.42967 0.34089
#
# Static dielectric constant tensor:
#      x y z
#    x 1.655470 0.000000 0.000000 
#    y 0.000000 1.658090 0.000000 
#    z 0.000000 0.000000 1.713700 
# 
# From -- ./inp_files/30704.got.cif
#   From: 2010.05.17/outbox.cif.g08.bks.cpg/sg68_16_cif.got.tgz:30704.got - 2010.06.03 18:57:09.
