data_PCOD9506517
_publ_section_title
;
Structure prediction by ZEFSAII (Michael W. Deem and Ramdas Pophale) SiO2 
 PCOD9506517
Probable space group: C C C A
;
_chemical_formula_sum "Si O2"
_cell_formula_units_Z 88
_cell_length_a 24.805541
_cell_length_b 20.706609
_cell_length_c 8.994988
_cell_angle_alpha 90.000000
_cell_angle_beta 90.000000
_cell_angle_gamma 90.000000
_cell_volume 4620.173390
_symmetry_space_group_name_H-M "C C C A"
_symmetry_group_IT_number 68
_space_group.IT_coordinate_system_code '2'
_symmetry_cell_setting 'orthorhombic'
loop_
_space_group_symop_operation_xyz
x,y,z
-x,1/2-y,z
x,1/2-y,1/2-z
-x,y,1/2-z
-x,-y,-z
x,1/2+y,-z
-x,1/2+y,1/2+z
x,-y,1/2+z
1/2+x,1/2+y,z
1/2-x,-y,z
1/2+x,-y,1/2-z
1/2-x,1/2+y,1/2-z
1/2-x,1/2-y,-z
1/2+x,y,-z
1/2-x,y,1/2+z
1/2+x,1/2-y,1/2+z
loop_
_atom_site_type_symbol
_atom_site_label
_atom_site_fract_x
_atom_site_fract_y
_atom_site_fract_z
Si Si1 0.309605 0.250000 0.750000
Si Si2 0.266321 0.870467 0.799504
Si Si3 0.563498 0.325187 0.274632
Si Si4 0.639670 0.151968 0.961555
Si Si5 0.144925 0.584439 0.385590
Si Si6 0.662774 0.951673 0.216416
O O1 0.271238 0.192269 0.803988
O O2 0.345515 0.280924 0.880487
O O3 0.301158 0.873827 0.647559
O O4 0.225514 0.930661 0.797530
O O5 0.310286 0.866930 0.930386
O O6 0.577634 0.250000 0.250000
O O7 0.500000 0.332634 0.250000
O O8 0.586973 0.343207 0.436686
O O9 0.595431 0.371285 0.162120
O O10 0.637117 0.098143 0.834030
O O11 0.152539 0.522907 0.277506
O O12 0.140412 0.559495 0.552077
#
# Coordination Sequence:
#
# PCOD9506517 Si02
#       6
#     8  16  16  16  16  16
#     4  10  20  32  58  91 131 162 204 242 306 360
#     4  10  21  34  56  90 131 170 205 238 296 368
#     4  10  24  45  68  88 116 156 208 262 324 366
#     4  10  22  37  62  90 127 163 210 252 302 370
#     4  11  23  38  63  86 127 166 206 254 302 365
#     4  11  22  39  58  94 127 166 200 246 306 365
#
# _framework density 19.046904000000001
#
# number of rings (size 3 to 8) (size 9 to 14) (size 15 to 20)
#    0.000    1.636    0.000    5.455   10.182    1.455 
#    0.000    4.545    0.000    0.000    0.000    0.000 
#    0.000    0.000    0.000    0.000    0.000    0.000 
#
# Total GULP energy -245842.575902 kJ/mol
# GULP energy per Si atom -5587.331271 kJ/mol
# Density = 1.900355 g / cm^3
# Si number density = 19.046904 Si / 1000 Ang^3
#
#
#
# Elastic Constant Matrix: (Units=GPa)
#
#
# Indices 1 2 3 4 5 6 
#
# 1 96.4566 64.3225 58.5693 0.0000 0.0000 0.0000
# 2 64.3225 108.5622 44.0857 0.0000 0.0000 0.0000
# 3 58.5693 44.0857 143.8709 0.0000 0.0000 0.0000
# 4 0.0000 0.0000 0.0000 35.4365 0.0000 0.0000
# 5 0.0000 0.0000 0.0000 0.0000 11.1630 0.0000
# 6 0.0000 0.0000 0.0000 0.0000 0.0000 21.4784
#
#
#
# Elastic Compliance Matrix: (Units=1/GPa)
#
#
# Indices 1 2 3 4 5 6 
#
# 1 0.020005 -0.009760 -0.005153 0.000000 0.000000 0.000000
# 2 -0.009760 0.015282 -0.000710 0.000000 0.000000 0.000000
# 3 -0.005153 -0.000710 0.009266 0.000000 0.000000 0.000000
# 4 0.000000 0.000000 0.000000 0.028220 0.000000 0.000000
# 5 0.000000 0.000000 0.000000 0.000000 0.089582 0.000000
# 6 0.000000 0.000000 0.000000 0.000000 0.000000 0.046558
#
#
# Mechanical properties :
#
#
# Convention : Reuss Voigt Hill
#
# Bulk Modulus (GPa) = 75.14624 75.87162 75.50893
# Shear Modulus (GPa) = 20.44193 25.74304 23.09249
#
# Velocity S-wave (km/s) = 3.27959 3.68035 3.48573
# Velocity P-wave (km/s) = 7.34029 7.61449 7.47865
#
# Compressibility (1/GPa) = 0.01330739
#
# Stress axis : x y z
#
# Youngs Moduli (GPa) = 49.98721 65.43497 107.92208
#
# Poissons Ratio (x) = 0.63866 0.55615
# Poissons Ratio (y) = 0.48789 0.07657
# Poissons Ratio (z) = 0.25759 0.04643
#
# Static dielectric constant tensor:
#      x y z
#    x 1.640560 0.000000 0.000000 
#    y 0.000000 1.690910 0.000000 
#    z 0.000000 0.000000 1.693730 
# 
# From -- ./inp_files/7985.got.cif
#   From: 2010.05.17/outbox.cif.g08.bks.cpg/sg68_4_cif.got.tgz:7985.got - 2010.06.03 18:57:09.
