data_PCOD9506296
_publ_section_title
;
Structure prediction by ZEFSAII (Michael W. Deem and Ramdas Pophale) SiO2 
 PCOD9506296
Probable space group: C C C A
;
_chemical_formula_sum "Si O2"
_cell_formula_units_Z 100
_cell_length_a 18.348770
_cell_length_b 14.133832
_cell_length_c 21.061165
_cell_angle_alpha 90.000000
_cell_angle_beta 90.000000
_cell_angle_gamma 90.000000
_cell_volume 5461.969520
_symmetry_space_group_name_H-M "C C C A"
_symmetry_group_IT_number 68
_space_group.IT_coordinate_system_code '2'
_symmetry_cell_setting 'orthorhombic'
loop_
_space_group_symop_operation_xyz
x,y,z
-x,1/2-y,z
x,1/2-y,1/2-z
-x,y,1/2-z
-x,-y,-z
x,1/2+y,-z
-x,1/2+y,1/2+z
x,-y,1/2+z
1/2+x,1/2+y,z
1/2-x,-y,z
1/2+x,-y,1/2-z
1/2-x,1/2+y,1/2-z
1/2-x,1/2-y,-z
1/2+x,y,-z
1/2-x,y,1/2+z
1/2+x,1/2-y,1/2+z
loop_
_atom_site_type_symbol
_atom_site_label
_atom_site_fract_x
_atom_site_fract_y
_atom_site_fract_z
Si Si1 0.831603 0.541900 0.381366
Si Si2 0.312268 0.631202 0.934345
Si Si3 0.000000 0.250000 0.250000
Si Si4 0.889658 0.648378 0.843581
Si Si5 0.580509 0.742123 0.474663
Si Si6 0.653344 0.069263 0.973697
Si Si7 0.273108 0.730919 0.675976
O O1 0.750000 0.500000 0.389214
O O2 0.874975 0.463692 0.341555
O O3 0.862828 0.550282 0.452370
O O4 0.821615 0.643033 0.348644
O O5 0.350049 0.528081 0.934568
O O6 0.235730 0.609779 0.969336
O O7 0.292824 0.678966 0.867558
O O8 0.361056 0.702805 0.975276
O O9 0.947554 0.186392 0.206407
O O10 0.917059 0.674216 0.913989
O O11 0.811396 0.700546 0.834550
O O12 0.500000 0.750000 0.502620
O O13 0.602934 0.846117 0.450916
O O14 0.284276 0.750000 0.750000
#
# Coordination Sequence:
#
# PCOD9506296 Si02
#       7
#    16  16   4  16  16  16  16
#     4  10  19  36  65  89 116 155 203 258 309 355
#     4  11  21  38  64  91 122 160 207 270 313 358
#     4  12  24  44  60  88 138 172 196 248 312 396
#     4  11  22  40  61  91 124 167 205 248 313 375
#     4  12  23  37  61  91 128 162 200 258 324 374
#     4  11  20  37  65  94 121 151 209 268 315 358
#     4  11  22  40  63  90 124 162 211 260 306 367
#
# _framework density 18.308413999999999
#
# number of rings (size 3 to 8) (size 9 to 14) (size 15 to 20)
#    0.000    0.960    8.000    1.440    0.000    0.640 
#   11.520    0.000    0.000    0.480    0.000    0.000 
#    0.000    0.000    0.000    0.000    0.000    0.000 
#
# Total GULP energy -279170.198447 kJ/mol
# GULP energy per Si atom -5583.403969 kJ/mol
# Density = 1.826674 g / cm^3
# Si number density = 18.308414 Si / 1000 Ang^3
#
#
#
# Elastic Constant Matrix: (Units=GPa)
#
#
# Indices 1 2 3 4 5 6 
#
# 1 52.6972 44.4892 29.9263 0.0000 0.0000 0.0000
# 2 44.4892 125.9551 34.5708 0.0000 0.0000 0.0000
# 3 29.9263 34.5708 103.2684 0.0000 0.0000 0.0000
# 4 0.0000 0.0000 0.0000 17.0793 0.0000 0.0000
# 5 0.0000 0.0000 0.0000 0.0000 11.7450 0.0000
# 6 0.0000 0.0000 0.0000 0.0000 0.0000 12.8892
#
#
#
# Elastic Compliance Matrix: (Units=1/GPa)
#
#
# Indices 1 2 3 4 5 6 
#
# 1 0.029730 -0.008960 -0.005616 0.000000 0.000000 0.000000
# 2 -0.008960 0.011443 -0.001234 0.000000 0.000000 0.000000
# 3 -0.005616 -0.001234 0.011724 0.000000 0.000000 0.000000
# 4 0.000000 0.000000 0.000000 0.058550 0.000000 0.000000
# 5 0.000000 0.000000 0.000000 0.000000 0.085142 0.000000
# 6 0.000000 0.000000 0.000000 0.000000 0.000000 0.077584
#
#
# Mechanical properties :
#
#
# Convention : Reuss Voigt Hill
#
# Bulk Modulus (GPa) = 46.99928 55.54370 51.27149
# Shear Modulus (GPa) = 15.98026 19.87165 17.92596
#
# Velocity S-wave (km/s) = 2.95759 3.29809 3.13247
# Velocity P-wave (km/s) = 6.11471 6.70126 6.41469
#
# Compressibility (1/GPa) = 0.02127692
#
# Stress axis : x y z
#
# Youngs Moduli (GPa) = 33.63643 87.39163 85.29384
#
# Poissons Ratio (x) = 0.78299 0.47901
# Poissons Ratio (y) = 0.30137 0.10527
# Poissons Ratio (z) = 0.18890 0.10786
#
# Static dielectric constant tensor:
#      x y z
#    x 1.637860 0.000000 0.000000 
#    y 0.000000 1.651860 0.000000 
#    z 0.000000 0.000000 1.604570 
# 
# From -- ./inp_files/39641.got.cif
#   From: 2010.05.17/outbox.cif.g08.bks.cpg/sg68_20_cif.got.tgz:39641.got - 2010.06.03 18:57:09.
