data_PCOD9506983
_publ_section_title
;
Structure prediction by ZEFSAII (Michael W. Deem and Ramdas Pophale) SiO2 
 PCOD9506983
Probable space group: C C C A
;
_chemical_formula_sum "Si O2"
_cell_formula_units_Z 96
_cell_length_a 14.774646
_cell_length_b 13.520342
_cell_length_c 21.045308
_cell_angle_alpha 90.000000
_cell_angle_beta 90.000000
_cell_angle_gamma 90.000000
_cell_volume 4203.974251
_symmetry_space_group_name_H-M "C C C A"
_symmetry_group_IT_number 68
_space_group.IT_coordinate_system_code '2'
_symmetry_cell_setting 'orthorhombic'
loop_
_space_group_symop_operation_xyz
x,y,z
-x,1/2-y,z
x,1/2-y,1/2-z
-x,y,1/2-z
-x,-y,-z
x,1/2+y,-z
-x,1/2+y,1/2+z
x,-y,1/2+z
1/2+x,1/2+y,z
1/2-x,-y,z
1/2+x,-y,1/2-z
1/2-x,1/2+y,1/2-z
1/2-x,1/2-y,-z
1/2+x,y,-z
1/2-x,y,1/2+z
1/2+x,1/2-y,1/2+z
loop_
_atom_site_type_symbol
_atom_site_label
_atom_site_fract_x
_atom_site_fract_y
_atom_site_fract_z
Si Si1 0.852723 0.517924 0.862858
Si Si2 0.848936 0.613547 0.079395
Si Si3 0.472405 0.608401 0.028974
Si Si4 0.608202 0.636885 0.239197
Si Si5 0.501861 0.132365 0.322501
Si Si6 0.348262 0.884515 0.091513
O O1 0.750000 0.500000 0.884537
O O2 0.906123 0.588439 0.911657
O O3 0.848864 0.568232 0.793331
O O4 0.917808 0.421355 0.857100
O O5 0.902447 0.610589 0.145342
O O6 0.750433 0.662160 0.081566
O O7 0.839518 0.496602 0.065921
O O8 0.916517 0.658148 0.027564
O O9 0.564018 0.656878 0.055701
O O10 0.500000 0.500000 0.000000
O O11 0.637542 0.750000 0.250000
O O12 0.500000 0.632447 0.250000
O O13 0.631341 0.611722 0.166644
O O14 0.500000 0.250000 0.323776
O O15 0.500000 0.097781 0.250000
#
# Coordination Sequence:
#
# PCOD9506983 Si02
#       6
#    16  16  16  16  16  16
#     4  12  25  40  69  98 134 175 227 283 347 408
#     4  10  21  37  67  94 124 174 222 268 338 406
#     4  10  20  39  64  94 128 174 223 272 334 411
#     4  11  23  42  65  97 134 172 218 279 346 408
#     4  11  24  43  65  95 138 180 226 281 341 413
#     4  10  20  37  66  91 127 167 218 274 330 402
#
# _framework density 22.835533999999999
#
# number of rings (size 3 to 8) (size 9 to 14) (size 15 to 20)
#    0.000    1.333    5.000    1.500    9.333    1.333 
#    0.000    1.667    0.000    3.000    0.000    0.000 
#    0.000    0.000    0.000    0.000    0.000    0.000 
#
# Total GULP energy -268183.715440 kJ/mol
# GULP energy per Si atom -5587.160738 kJ/mol
# Density = 2.278356 g / cm^3
# Si number density = 22.835534 Si / 1000 Ang^3
#
#
#
# Elastic Constant Matrix: (Units=GPa)
#
#
# Indices 1 2 3 4 5 6 
#
# 1 210.0480 9.5283 73.6869 0.0000 0.0000 0.0000
# 2 9.5283 60.4507 -1.0744 0.0000 0.0000 0.0000
# 3 73.6869 -1.0744 130.5683 0.0000 0.0000 0.0000
# 4 0.0000 0.0000 0.0000 56.7241 0.0000 0.0000
# 5 0.0000 0.0000 0.0000 0.0000 4049.0648 0.0000
# 6 0.0000 0.0000 0.0000 0.0000 0.0000 9.7090
#
#
#
# Elastic Compliance Matrix: (Units=1/GPa)
#
#
# Indices 1 2 3 4 5 6 
#
# 1 0.005997 -0.001005 -0.003392 0.000000 0.000000 0.000000
# 2 -0.001005 0.016713 0.000705 0.000000 0.000000 0.000000
# 3 -0.003392 0.000705 0.009579 0.000000 0.000000 0.000000
# 4 0.000000 0.000000 0.000000 0.017629 0.000000 0.000000
# 5 0.000000 0.000000 0.000000 0.000000 0.000247 0.000000
# 6 0.000000 0.000000 0.000000 0.000000 0.000000 0.102998
#
#
# Mechanical properties :
#
#
# Convention : Reuss Voigt Hill
#
# Bulk Modulus (GPa) = 40.15542 62.81652 51.48597
# Shear Modulus (GPa) = 29.61210 844.36131 436.98670
#
# Velocity S-wave (km/s) = 3.60496 19.24994 13.84839
# Velocity P-wave (km/s) = 5.91189 22.83962 16.68231
#
# Compressibility (1/GPa) = 0.02490324
#
# Stress axis : x y z
#
# Youngs Moduli (GPa) = 166.76310 59.83211 104.39318
#
# Poissons Ratio (x) = 0.06016 0.35415
# Poissons Ratio (y) = 0.16768 -0.07359
# Poissons Ratio (z) = 0.56573 -0.04218
#
# Static dielectric constant tensor:
#      x y z
#    x 1.985110 0.000000 0.000000 
#    y 0.000000 2.014220 0.000000 
#    z 0.000000 0.000000 1.842890 
# 
# From -- ./inp_files/38554.got.cif
#   From: 2010.05.17/outbox.cif.g08.bks.cpg/sg68_20_cif.got.tgz:38554.got - 2010.06.03 18:57:09.
