data_PCOD9506528
_publ_section_title
;
Structure prediction by ZEFSAII (Michael W. Deem and Ramdas Pophale) SiO2 
 PCOD9506528
Probable space group: C C C A
;
_chemical_formula_sum "Si O2"
_cell_formula_units_Z 52
_cell_length_a 31.449856
_cell_length_b 5.390746
_cell_length_c 14.561007
_cell_angle_alpha 90.000000
_cell_angle_beta 90.000000
_cell_angle_gamma 90.000000
_cell_volume 2468.646705
_symmetry_space_group_name_H-M "C C C A"
_symmetry_group_IT_number 68
_space_group.IT_coordinate_system_code '2'
_symmetry_cell_setting 'orthorhombic'
loop_
_space_group_symop_operation_xyz
x,y,z
-x,1/2-y,z
x,1/2-y,1/2-z
-x,y,1/2-z
-x,-y,-z
x,1/2+y,-z
-x,1/2+y,1/2+z
x,-y,1/2+z
1/2+x,1/2+y,z
1/2-x,-y,z
1/2+x,-y,1/2-z
1/2-x,1/2+y,1/2-z
1/2-x,1/2-y,-z
1/2+x,y,-z
1/2-x,y,1/2+z
1/2+x,1/2-y,1/2+z
loop_
_atom_site_type_symbol
_atom_site_label
_atom_site_fract_x
_atom_site_fract_y
_atom_site_fract_z
Si Si1 0.386731 0.488890 0.141433
Si Si2 0.500000 0.750000 0.250000
Si Si3 0.204629 0.444435 0.560034
Si Si4 0.422390 0.012920 0.653506
O O1 0.337299 0.463250 0.120883
O O2 0.396246 0.500648 0.250296
O O3 0.403746 0.748854 0.102277
O O4 0.413705 0.251060 0.108781
O O5 0.530208 0.920292 0.313199
O O6 0.203437 0.670322 0.485550
O O7 0.250000 0.500000 0.607991
#
# Coordination Sequence:
#
# PCOD9506528 Si02
#       4
#    16   4  16  16
#     4   9  17  31  45  71  98 119 157 195 237 284
#     4   8  16  30  48  78 100 122 160 190 240 300
#     4  10  20  33  50  69  92 127 167 200 230 277
#     4   9  18  29  50  73  96 123 151 194 242 287
#
# _framework density 21.064174000000001
#
# number of rings (size 3 to 8) (size 9 to 14) (size 15 to 20)
#    0.000    3.077    0.000    1.846    0.000    9.846 
#    0.000    6.154    0.000    0.000    0.000  114.154 
#    0.000    0.000    0.000    0.000    0.000    0.000 
#
# Total GULP energy -144830.205662 kJ/mol
# GULP energy per Si atom -5570.392525 kJ/mol
# Density = 2.101623 g / cm^3
# Si number density = 21.064174 Si / 1000 Ang^3
#
#
#
# Elastic Constant Matrix: (Units=GPa)
#
#
# Indices 1 2 3 4 5 6 
#
# 1 182.3329 35.1151 14.0389 0.0000 0.0000 0.0000
# 2 35.1151 196.6078 -0.9786 0.0000 0.0000 0.0000
# 3 14.0389 -0.9786 43.2917 0.0000 0.0000 0.0000
# 4 0.0000 0.0000 0.0000 -5.8257 0.0000 0.0000
# 5 0.0000 0.0000 0.0000 0.0000 -44.3495 0.0000
# 6 0.0000 0.0000 0.0000 0.0000 0.0000 37.4092
#
#
#
# Elastic Compliance Matrix: (Units=1/GPa)
#
#
# Indices 1 2 3 4 5 6 
#
# 1 0.005835 -0.001052 -0.001916 0.000000 0.000000 0.000000
# 2 -0.001052 0.005276 0.000460 0.000000 0.000000 0.000000
# 3 -0.001916 0.000460 0.023731 0.000000 0.000000 0.000000
# 4 0.000000 0.000000 0.000000 -0.171653 0.000000 0.000000
# 5 0.000000 0.000000 0.000000 0.000000 -0.022548 0.000000
# 6 0.000000 0.000000 0.000000 0.000000 0.000000 0.026731
#
#
# Mechanical properties :
#
#
# Convention : Reuss Voigt Hill
#
# Bulk Modulus (GPa) = 33.52620 57.62034 45.57327
# Shear Modulus (GPa) = -42.49139 22.38393 -10.05373
#
# Velocity S-wave (km/s) = -4.49624 3.26337 -2.18707
# Velocity P-wave (km/s) = 3.31724 6.45085 3.91213
#
# Compressibility (1/GPa) = 0.02982742
#
# Stress axis : x y z
#
# Youngs Moduli (GPa) = 171.39397 189.52380 42.13934
#
# Poissons Ratio (x) = 0.19930 0.08073
# Poissons Ratio (y) = 0.18024 -0.01940
# Poissons Ratio (z) = 0.32836 -0.08724
#
# Static dielectric constant tensor:
#      x y z
#    x 1.748660 0.000000 0.000000 
#    y 0.000000 2.156240 0.000000 
#    z 0.000000 0.000000 1.700320 
# 
# From -- ./inp_files/26945.got.cif
#   From: 2010.05.17/outbox.cif.g08.bks.cpg/sg68_14_cif.got.tgz:26945.got - 2010.06.03 18:57:09.
