data_PCOD9506640
_publ_section_title
;
Structure prediction by ZEFSAII (Michael W. Deem and Ramdas Pophale) SiO2 
 PCOD9506640
Probable space group: C C C A
;
_chemical_formula_sum "Si O2"
_cell_formula_units_Z 88
_cell_length_a 22.248874
_cell_length_b 18.286095
_cell_length_c 10.406872
_cell_angle_alpha 90.000000
_cell_angle_beta 90.000000
_cell_angle_gamma 90.000000
_cell_volume 4233.984085
_symmetry_space_group_name_H-M "C C C A"
_symmetry_group_IT_number 68
_space_group.IT_coordinate_system_code '2'
_symmetry_cell_setting 'orthorhombic'
loop_
_space_group_symop_operation_xyz
x,y,z
-x,1/2-y,z
x,1/2-y,1/2-z
-x,y,1/2-z
-x,-y,-z
x,1/2+y,-z
-x,1/2+y,1/2+z
x,-y,1/2+z
1/2+x,1/2+y,z
1/2-x,-y,z
1/2+x,-y,1/2-z
1/2-x,1/2+y,1/2-z
1/2-x,1/2-y,-z
1/2+x,y,-z
1/2-x,y,1/2+z
1/2+x,1/2-y,1/2+z
loop_
_atom_site_type_symbol
_atom_site_label
_atom_site_fract_x
_atom_site_fract_y
_atom_site_fract_z
Si Si1 0.656523 0.821211 0.875914
Si Si2 0.538150 0.472382 0.378511
Si Si3 0.621183 0.837108 0.598570
Si Si4 0.250000 0.500000 0.995406
Si Si5 0.787529 0.853901 0.864925
Si Si6 0.146792 0.080763 0.375261
O O1 0.647505 0.858932 0.738090
O O2 0.613879 0.750262 0.886118
O O3 0.728391 0.802564 0.872215
O O4 0.640533 0.871848 0.995451
O O5 0.500000 0.459137 0.250000
O O6 0.500000 0.500000 0.500000
O O7 0.569059 0.395906 0.420833
O O8 0.586708 0.536023 0.344185
O O9 0.666581 0.838956 0.479565
O O10 0.194512 0.481523 0.086271
O O11 0.239119 0.567862 0.903728
O O12 0.823964 0.866459 0.733025
#
# Coordination Sequence:
#
# PCOD9506640 Si02
#       6
#    16  16  16   8  16  16
#     4  10  23  40  65  98 134 174 210 268 343 422
#     4  12  26  45  68  95 131 179 236 284 317 383
#     4  11  23  43  63  93 136 176 224 267 330 402
#     4  10  20  34  62  98 134 166 208 274 344 408
#     4  11  21  35  64  98 138 168 207 271 342 404
#     4  11  23  40  66 101 133 174 225 276 340 395
#
# _framework density 20.784206000000001
#
# number of rings (size 3 to 8) (size 9 to 14) (size 15 to 20)
#    0.000    1.091    1.818    5.455    5.091    2.182 
#    0.000    6.364    0.000    1.091    0.000    0.000 
#    0.000    0.000    0.000    0.000    0.000    0.000 
#
# Total GULP energy -245494.152973 kJ/mol
# GULP energy per Si atom -5579.412568 kJ/mol
# Density = 2.073690 g / cm^3
# Si number density = 20.784206 Si / 1000 Ang^3
#
#
#
# Elastic Constant Matrix: (Units=GPa)
#
#
# Indices 1 2 3 4 5 6 
#
# 1 78.6052 35.3071 19.8647 0.0000 0.0000 0.0000
# 2 35.3071 82.9256 24.3237 0.0000 0.0000 0.0000
# 3 19.8647 24.3237 95.3323 0.0000 0.0000 0.0000
# 4 0.0000 0.0000 0.0000 36.0935 0.0000 0.0000
# 5 0.0000 0.0000 0.0000 0.0000 36.7873 0.0000
# 6 0.0000 0.0000 0.0000 0.0000 0.0000 6.2176
#
#
#
# Elastic Compliance Matrix: (Units=1/GPa)
#
#
# Indices 1 2 3 4 5 6 
#
# 1 0.015988 -0.006302 -0.001724 0.000000 0.000000 0.000000
# 2 -0.006302 0.015518 -0.002646 0.000000 0.000000 0.000000
# 3 -0.001724 -0.002646 0.011524 0.000000 0.000000 0.000000
# 4 0.000000 0.000000 0.000000 0.027706 0.000000 0.000000
# 5 0.000000 0.000000 0.000000 0.000000 0.027183 0.000000
# 6 0.000000 0.000000 0.000000 0.000000 0.000000 0.160834
#
#
# Mechanical properties :
#
#
# Convention : Reuss Voigt Hill
#
# Bulk Modulus (GPa) = 46.11049 46.20599 46.15824
# Shear Modulus (GPa) = 17.40189 27.64418 22.52304
#
# Velocity S-wave (km/s) = 2.89669 3.65095 3.29547
# Velocity P-wave (km/s) = 5.78111 6.32868 6.06108
#
# Compressibility (1/GPa) = 0.02168704
#
# Stress axis : x y z
#
# Youngs Moduli (GPa) = 62.54745 64.44032 86.77551
#
# Poissons Ratio (x) = 0.40607 0.14957
# Poissons Ratio (y) = 0.39415 0.22964
# Poissons Ratio (z) = 0.10781 0.17053
#
# Static dielectric constant tensor:
#      x y z
#    x 1.784850 0.000000 0.000000 
#    y 0.000000 1.742650 0.000000 
#    z 0.000000 0.000000 1.735500 
# 
# From -- ./inp_files/8014.got.cif
#   From: 2010.05.17/outbox.cif.g08.bks.cpg/sg68_5_cif.got.tgz:8014.got - 2010.06.03 18:57:09.
