data_PCOD9506362
_publ_section_title
;
Structure prediction by ZEFSAII (Michael W. Deem and Ramdas Pophale) SiO2 
 PCOD9506362
Probable space group: C C C A
;
_chemical_formula_sum "Si O2"
_cell_formula_units_Z 116
_cell_length_a 9.810789
_cell_length_b 20.841711
_cell_length_c 29.120041
_cell_angle_alpha 90.000000
_cell_angle_beta 90.000000
_cell_angle_gamma 90.000000
_cell_volume 5954.280460
_symmetry_space_group_name_H-M "C C C A"
_symmetry_group_IT_number 68
_space_group.IT_coordinate_system_code '2'
_symmetry_cell_setting 'orthorhombic'
loop_
_space_group_symop_operation_xyz
x,y,z
-x,1/2-y,z
x,1/2-y,1/2-z
-x,y,1/2-z
-x,-y,-z
x,1/2+y,-z
-x,1/2+y,1/2+z
x,-y,1/2+z
1/2+x,1/2+y,z
1/2-x,-y,z
1/2+x,-y,1/2-z
1/2-x,1/2+y,1/2-z
1/2-x,1/2-y,-z
1/2+x,y,-z
1/2-x,y,1/2+z
1/2+x,1/2-y,1/2+z
loop_
_atom_site_type_symbol
_atom_site_label
_atom_site_fract_x
_atom_site_fract_y
_atom_site_fract_z
Si Si1 0.017094 0.148848 0.302467
Si Si2 0.243370 0.843068 0.139119
Si Si3 0.802755 0.706682 0.323274
Si Si4 0.035892 0.098022 0.874775
Si Si5 0.500000 0.250000 0.250000
Si Si6 0.907261 0.999528 0.706108
Si Si7 0.600934 0.691242 0.952140
Si Si8 0.362918 0.722576 0.442967
O O1 0.874087 0.149635 0.328685
O O2 0.000000 0.169327 0.250000
O O3 0.142997 0.191374 0.320212
O O4 0.059523 0.074626 0.302662
O O5 0.176088 0.776970 0.156335
O O6 0.297749 0.831690 0.088135
O O7 0.123416 0.894151 0.137227
O O8 0.870859 0.653591 0.353994
O O9 0.893410 0.705893 0.277490
O O10 0.078173 0.037105 0.842842
O O11 0.058966 0.123234 0.928299
O O12 0.000000 0.022119 0.750000
O O13 0.750000 0.000000 0.721004
O O14 0.500000 0.750000 0.937017
O O15 0.753826 0.719107 0.944364
O O16 0.595969 0.693352 0.007728
O O17 0.500000 0.750000 0.420931
#
# Coordination Sequence:
#
# PCOD9506362 Si02
#       8
#    16  16  16  16   4  16  16  16
#     4  11  26  43  58  85 126 162 217 261 307 371
#     4  12  23  39  62  97 127 165 201 259 324 389
#     4  12  22  37  58  88 124 160 203 253 318 387
#     4  12  23  39  64  88 126 162 211 263 309 375
#     4  12  24  32  58  96 124 172 198 244 354 396
#     4  11  27  45  67  88 117 171 225 269 307 365
#     4  10  19  38  59  94 132 160 202 252 316 386
#     4  10  20  33  61  94 132 167 195 248 319 384
#
# _framework density 19.481783
#
# number of rings (size 3 to 8) (size 9 to 14) (size 15 to 20)
#    0.000    0.828    5.517    2.069    4.828    0.552 
#    0.000    0.000    0.000    0.828    0.000    0.000 
#    0.000    0.000    0.000    0.000    0.000    0.000 
#
# Total GULP energy -323060.854608 kJ/mol
# GULP energy per Si atom -5570.014735 kJ/mol
# Density = 1.943744 g / cm^3
# Si number density = 19.481783 Si / 1000 Ang^3
#
#
#
# Elastic Constant Matrix: (Units=GPa)
#
#
# Indices 1 2 3 4 5 6 
#
# 1 123.5664 5.7213 30.7139 0.0000 0.0000 0.0000
# 2 5.7213 43.0393 11.2899 0.0000 0.0000 0.0000
# 3 30.7139 11.2899 85.3584 0.0000 0.0000 0.0000
# 4 0.0000 0.0000 0.0000 38.9918 0.0000 0.0000
# 5 0.0000 0.0000 0.0000 0.0000 40.0788 0.0000
# 6 0.0000 0.0000 0.0000 0.0000 0.0000 66.6149
#
#
#
# Elastic Compliance Matrix: (Units=1/GPa)
#
#
# Indices 1 2 3 4 5 6 
#
# 1 0.008893 -0.000355 -0.003153 0.000000 0.000000 0.000000
# 2 -0.000355 0.024084 -0.003058 0.000000 0.000000 0.000000
# 3 -0.003153 -0.003058 0.013254 0.000000 0.000000 0.000000
# 4 0.000000 0.000000 0.000000 0.025646 0.000000 0.000000
# 5 0.000000 0.000000 0.000000 0.000000 0.024951 0.000000
# 6 0.000000 0.000000 0.000000 0.000000 0.000000 0.015012
#
#
# Mechanical properties :
#
#
# Convention : Reuss Voigt Hill
#
# Bulk Modulus (GPa) = 30.21178 38.60159 34.40668
# Shear Modulus (GPa) = 36.76346 42.75303 39.75825
#
# Velocity S-wave (km/s) = 4.34875 4.68965 4.52241
# Velocity P-wave (km/s) = 6.38411 7.01291 6.70589
#
# Compressibility (1/GPa) = 0.03309967
#
# Stress axis : x y z
#
# Youngs Moduli (GPa) = 112.44858 41.52154 75.44763
#
# Poissons Ratio (x) = 0.01474 0.23788
# Poissons Ratio (y) = 0.03993 0.23069
# Poissons Ratio (z) = 0.35454 0.12696
#
# Static dielectric constant tensor:
#      x y z
#    x 1.753710 0.000000 0.000000 
#    y 0.000000 1.608000 0.000000 
#    z 0.000000 0.000000 1.603590 
# 
# From -- ./inp_files/54211.got.cif
#   From: 2010.05.17/outbox.cif.g08.bks.cpg/sg68_28_cif.got.tgz:54211.got - 2010.06.03 18:57:09.
