data_PCOD9506909
_publ_section_title
;
Structure prediction by ZEFSAII (Michael W. Deem and Ramdas Pophale) SiO2 
 PCOD9506909
Probable space group: C C C A
;
_chemical_formula_sum "Si O2"
_cell_formula_units_Z 104
_cell_length_a 9.448843
_cell_length_b 26.473482
_cell_length_c 19.845259
_cell_angle_alpha 90.000000
_cell_angle_beta 90.000000
_cell_angle_gamma 90.000000
_cell_volume 4964.168004
_symmetry_space_group_name_H-M "C C C A"
_symmetry_group_IT_number 68
_space_group.IT_coordinate_system_code '2'
_symmetry_cell_setting 'orthorhombic'
loop_
_space_group_symop_operation_xyz
x,y,z
-x,1/2-y,z
x,1/2-y,1/2-z
-x,y,1/2-z
-x,-y,-z
x,1/2+y,-z
-x,1/2+y,1/2+z
x,-y,1/2+z
1/2+x,1/2+y,z
1/2-x,-y,z
1/2+x,-y,1/2-z
1/2-x,1/2+y,1/2-z
1/2-x,1/2-y,-z
1/2+x,y,-z
1/2-x,y,1/2+z
1/2+x,1/2-y,1/2+z
loop_
_atom_site_type_symbol
_atom_site_label
_atom_site_fract_x
_atom_site_fract_y
_atom_site_fract_z
Si Si1 0.777759 0.441688 0.231450
Si Si2 0.250000 0.500000 0.951557
Si Si3 0.216653 0.577619 0.060259
Si Si4 0.677063 0.332794 0.025821
Si Si5 0.543156 0.301795 0.584626
Si Si6 0.965881 0.409415 0.352210
Si Si7 0.933253 0.581096 0.126004
O O1 0.750000 0.500000 0.250821
O O2 0.855520 0.410953 0.290236
O O3 0.637182 0.417859 0.199415
O O4 0.896213 0.439254 0.171891
O O5 0.140917 0.466834 0.909331
O O6 0.174621 0.539729 0.001316
O O7 0.232972 0.632261 0.026105
O O8 0.373642 0.566260 0.088013
O O9 0.100846 0.575819 0.118741
O O10 0.556836 0.306420 0.981633
O O11 0.610167 0.370878 0.080553
O O12 0.793276 0.299377 0.063196
O O13 0.500000 0.250000 0.620653
O O14 0.513923 0.353479 0.625594
#
# Coordination Sequence:
#
# PCOD9506909 Si02
#       7
#    16   8  16  16  16  16  16
#     4  11  24  41  62  80 120 168 217 259 304 362
#     4  10  22  30  54  90 118 166 208 246 306 392
#     4  10  22  34  57  85 129 155 201 258 314 371
#     4  10  20  37  58  96 127 157 197 258 321 396
#     4  11  21  40  68  96 128 166 207 265 330 378
#     4  10  25  43  58  90 125 159 219 263 300 382
#     4  11  20  36  57  82 125 168 205 256 316 363
#
# _framework density 20.950136000000001
#
# number of rings (size 3 to 8) (size 9 to 14) (size 15 to 20)
#    0.000    1.538    3.846    0.923    3.231    1.846 
#    0.000    1.538    0.000    0.000    0.000    0.000 
#    9.231    0.000    0.000    0.000    0.000    0.000 
#
# Total GULP energy -290558.353307 kJ/mol
# GULP energy per Si atom -5587.660641 kJ/mol
# Density = 2.090245 g / cm^3
# Si number density = 20.950136 Si / 1000 Ang^3
#
#
#
# Elastic Constant Matrix: (Units=GPa)
#
#
# Indices 1 2 3 4 5 6 
#
# 1 97.4910 13.7139 10.8604 0.0000 0.0000 0.0000
# 2 13.7139 57.7408 6.6170 0.0000 0.0000 0.0000
# 3 10.8604 6.6170 45.9034 0.0000 0.0000 0.0000
# 4 0.0000 0.0000 0.0000 12.0692 0.0000 0.0000
# 5 0.0000 0.0000 0.0000 0.0000 43.0198 0.0000
# 6 0.0000 0.0000 0.0000 0.0000 0.0000 19.2248
#
#
#
# Elastic Compliance Matrix: (Units=1/GPa)
#
#
# Indices 1 2 3 4 5 6 
#
# 1 0.010832 -0.002317 -0.002229 0.000000 0.000000 0.000000
# 2 -0.002317 0.018105 -0.002062 0.000000 0.000000 0.000000
# 3 -0.002229 -0.002062 0.022609 0.000000 0.000000 0.000000
# 4 0.000000 0.000000 0.000000 0.082856 0.000000 0.000000
# 5 0.000000 0.000000 0.000000 0.000000 0.023245 0.000000
# 6 0.000000 0.000000 0.000000 0.000000 0.000000 0.052016
#
#
# Mechanical properties :
#
#
# Convention : Reuss Voigt Hill
#
# Bulk Modulus (GPa) = 26.08831 29.27973 27.68402
# Shear Modulus (GPa) = 21.21742 26.19235 23.70488
#
# Velocity S-wave (km/s) = 3.18584 3.53969 3.36741
# Velocity P-wave (km/s) = 5.10023 5.54185 5.32562
#
# Compressibility (1/GPa) = 0.03833135
#
# Stress axis : x y z
#
# Youngs Moduli (GPa) = 92.32262 55.23220 44.22946
#
# Poissons Ratio (x) = 0.12798 0.09857
# Poissons Ratio (y) = 0.21393 0.09119
# Poissons Ratio (z) = 0.20575 0.11387
#
# Static dielectric constant tensor:
#      x y z
#    x 1.773600 0.000000 0.000000 
#    y 0.000000 1.739820 0.000000 
#    z 0.000000 0.000000 1.811660 
# 
# From -- ./inp_files/43473.got.cif
#   From: 2010.05.17/outbox.cif.g08.bks.cpg/sg68_22_cif.got.tgz:43473.got - 2010.06.03 18:57:09.
