data_PCOD9506232
_publ_section_title
;
Structure prediction by ZEFSAII (Michael W. Deem and Ramdas Pophale) SiO2 
 PCOD9506232
Probable space group: C C C A
;
_chemical_formula_sum "Si O2"
_cell_formula_units_Z 108
_cell_length_a 11.846310
_cell_length_b 20.772088
_cell_length_c 23.560347
_cell_angle_alpha 90.000000
_cell_angle_beta 90.000000
_cell_angle_gamma 90.000000
_cell_volume 5797.555697
_symmetry_space_group_name_H-M "C C C A"
_symmetry_group_IT_number 68
_space_group.IT_coordinate_system_code '2'
_symmetry_cell_setting 'orthorhombic'
loop_
_space_group_symop_operation_xyz
x,y,z
-x,1/2-y,z
x,1/2-y,1/2-z
-x,y,1/2-z
-x,-y,-z
x,1/2+y,-z
-x,1/2+y,1/2+z
x,-y,1/2+z
1/2+x,1/2+y,z
1/2-x,-y,z
1/2+x,-y,1/2-z
1/2-x,1/2+y,1/2-z
1/2-x,1/2-y,-z
1/2+x,y,-z
1/2-x,y,1/2+z
1/2+x,1/2-y,1/2+z
loop_
_atom_site_type_symbol
_atom_site_label
_atom_site_fract_x
_atom_site_fract_y
_atom_site_fract_z
Si Si1 0.500000 0.750000 0.250000
Si Si2 0.989814 0.327929 0.959917
Si Si3 0.238406 0.072876 0.780644
Si Si4 0.470192 0.325769 0.586880
Si Si5 0.873729 0.361436 0.185208
Si Si6 0.867016 0.683879 0.145642
Si Si7 0.000000 0.127605 0.750000
Si Si8 0.785332 0.672749 0.382176
O O1 0.418407 0.796885 0.215487
O O2 0.875244 0.348897 0.929098
O O3 0.000000 0.250000 0.964040
O O4 0.085897 0.342974 0.913782
O O5 0.996791 0.350240 0.024404
O O6 0.338648 0.088783 0.735241
O O7 0.238300 0.125104 0.830427
O O8 0.111236 0.084158 0.757704
O O9 0.250000 0.000000 0.800332
O O10 0.500000 0.250000 0.594687
O O11 0.532355 0.368173 0.635628
O O12 0.335962 0.322213 0.589644
O O13 0.752129 0.348801 0.158075
O O14 0.958953 0.669897 0.195424
O O15 0.835791 0.759317 0.139939
#
# Coordination Sequence:
#
# PCOD9506232 Si02
#       8
#     4  16  16  16  16  16   8  16
#     4  12  20  38  56  96 128 148 196 244 330 380
#     4   9  21  33  55  86 125 158 192 239 302 370
#     4  11  25  41  60  86 120 163 208 252 301 361
#     4  11  21  35  57  92 128 159 189 246 311 374
#     4  11  21  34  59  87 119 156 192 246 306 364
#     4  10  19  36  56  89 119 151 195 246 305 365
#     4  10  22  38  62  89 118 157 198 258 306 359
#     4  11  21  38  59  88 120 162 200 246 303 363
#
# _framework density 18.628540999999998
#
# number of rings (size 3 to 8) (size 9 to 14) (size 15 to 20)
#    0.000    1.481    3.704    1.778    2.074    5.926 
#    0.000    0.000    0.000    1.778    0.000    0.000 
#    0.000    0.000    0.000    0.000    0.000    0.000 
#
# Total GULP energy -300783.164846 kJ/mol
# GULP energy per Si atom -5570.058608 kJ/mol
# Density = 1.858614 g / cm^3
# Si number density = 18.628541 Si / 1000 Ang^3
#
#
#
# Elastic Constant Matrix: (Units=GPa)
#
#
# Indices 1 2 3 4 5 6 
#
# 1 102.9976 1.2592 25.2627 0.0000 0.0000 0.0000
# 2 1.2592 35.5118 11.9890 0.0000 0.0000 0.0000
# 3 25.2627 11.9890 96.7459 0.0000 0.0000 0.0000
# 4 0.0000 0.0000 0.0000 -33.3087 0.0000 0.0000
# 5 0.0000 0.0000 0.0000 0.0000 -6.2987 0.0000
# 6 0.0000 0.0000 0.0000 0.0000 0.0000 10.5429
#
#
#
# Elastic Compliance Matrix: (Units=1/GPa)
#
#
# Indices 1 2 3 4 5 6 
#
# 1 0.010384 0.000571 -0.002782 0.000000 0.000000 0.000000
# 2 0.000571 0.029421 -0.003795 0.000000 0.000000 0.000000
# 3 -0.002782 -0.003795 0.011533 0.000000 0.000000 0.000000
# 4 0.000000 0.000000 0.000000 -0.030022 0.000000 0.000000
# 5 0.000000 0.000000 0.000000 0.000000 -0.158762 0.000000
# 6 0.000000 0.000000 0.000000 0.000000 0.000000 0.094850
#
#
# Mechanical properties :
#
#
# Convention : Reuss Voigt Hill
#
# Bulk Modulus (GPa) = 25.42866 34.69745 30.06306
# Shear Modulus (GPa) = -286.12894 7.30338 -139.41278
#
# Velocity S-wave (km/s) = -12.40687 1.98218 -8.66030
# Velocity P-wave (km/s) = 13.84054 4.88929 9.15575
#
# Compressibility (1/GPa) = 0.03932571
#
# Stress axis : x y z
#
# Youngs Moduli (GPa) = 96.29799 33.98972 86.70625
#
# Poissons Ratio (x) = -0.01941 0.24125
# Poissons Ratio (y) = -0.05500 0.32905
# Poissons Ratio (z) = 0.26794 0.12899
#
# Static dielectric constant tensor:
#      x y z
#    x 1.805680 0.000000 0.000000 
#    y 0.000000 1.649550 0.000000 
#    z 0.000000 0.000000 1.713160 
# 
# From -- ./inp_files/44606.got.cif
#   From: 2010.05.17/outbox.cif.g08.bks.cpg/sg68_23_cif.got.tgz:44606.got - 2010.06.03 18:57:09.
