data_PCOD9506961
_publ_section_title
;
Structure prediction by ZEFSAII (Michael W. Deem and Ramdas Pophale) SiO2 
 PCOD9506961
Probable space group: C C C A
;
_chemical_formula_sum "Si O2"
_cell_formula_units_Z 120
_cell_length_a 19.848508
_cell_length_b 22.137487
_cell_length_c 14.691566
_cell_angle_alpha 90.000000
_cell_angle_beta 90.000000
_cell_angle_gamma 90.000000
_cell_volume 6455.416624
_symmetry_space_group_name_H-M "C C C A"
_symmetry_group_IT_number 68
_space_group.IT_coordinate_system_code '2'
_symmetry_cell_setting 'orthorhombic'
loop_
_space_group_symop_operation_xyz
x,y,z
-x,1/2-y,z
x,1/2-y,1/2-z
-x,y,1/2-z
-x,-y,-z
x,1/2+y,-z
-x,1/2+y,1/2+z
x,-y,1/2+z
1/2+x,1/2+y,z
1/2-x,-y,z
1/2+x,-y,1/2-z
1/2-x,1/2+y,1/2-z
1/2-x,1/2-y,-z
1/2+x,y,-z
1/2-x,y,1/2+z
1/2+x,1/2-y,1/2+z
loop_
_atom_site_type_symbol
_atom_site_label
_atom_site_fract_x
_atom_site_fract_y
_atom_site_fract_z
Si Si1 0.171973 0.824007 0.987068
Si Si2 0.932519 0.928738 0.479453
Si Si3 0.622161 0.564674 0.722588
Si Si4 0.327918 0.301593 0.312394
Si Si5 0.750000 0.000000 0.834426
Si Si6 0.309132 0.389652 0.955802
Si Si7 0.075994 0.055971 0.922170
Si Si8 0.828222 0.280318 0.162041
O O1 0.115799 0.876459 0.981859
O O2 0.156468 0.790996 0.082315
O O3 0.244959 0.854991 0.001116
O O4 0.175101 0.774602 0.909094
O O5 0.908857 0.947564 0.377285
O O6 0.010199 0.911428 0.463733
O O7 0.927918 0.987013 0.543383
O O8 0.645430 0.633877 0.716837
O O9 0.688795 0.523836 0.726310
O O10 0.578374 0.556992 0.812862
O O11 0.357294 0.250000 0.250000
O O12 0.246856 0.299969 0.305573
O O13 0.722100 0.054940 0.897073
O O14 0.348876 0.341478 0.891248
O O15 0.357705 0.414698 0.033774
O O16 0.863431 0.250000 0.250000
#
# Coordination Sequence:
#
# PCOD9506961 Si02
#       8
#    16  16  16  16   8  16  16  16
#     4  10  20  37  63  82 121 156 199 250 299 358
#     4  10  22  45  56  87 123 162 203 255 302 373
#     4  11  22  37  61  90 123 155 201 255 305 363
#     4   9  18  33  55  86 116 152 187 239 298 360
#     4  12  20  38  56  98 130 148 202 270 296 358
#     4  11  20  36  60  89 119 158 198 254 299 360
#     4  11  24  37  66  84 120 166 203 245 317 368
#     4  10  21  34  57  88 121 155 191 245 306 364
#
# _framework density 18.589041000000002
#
# number of rings (size 3 to 8) (size 9 to 14) (size 15 to 20)
#    0.000    1.600    5.333    2.000    5.600    2.667 
#    0.000    0.667    0.000    1.600    0.000    0.000 
#    0.000    0.000    0.000    0.000    0.000    0.000 
#
# Total GULP energy -334514.892788 kJ/mol
# GULP energy per Si atom -5575.248213 kJ/mol
# Density = 1.854673 g / cm^3
# Si number density = 18.589041 Si / 1000 Ang^3
#
#
#
# Elastic Constant Matrix: (Units=GPa)
#
#
# Indices 1 2 3 4 5 6 
#
# 1 58.6385 12.4515 14.1754 0.0000 0.0000 0.0000
# 2 12.4515 56.0523 44.2617 0.0000 0.0000 0.0000
# 3 14.1754 44.2617 75.1093 0.0000 0.0000 0.0000
# 4 0.0000 0.0000 0.0000 32.5038 0.0000 0.0000
# 5 0.0000 0.0000 0.0000 0.0000 16.5450 0.0000
# 6 0.0000 0.0000 0.0000 0.0000 0.0000 5.5608
#
#
#
# Elastic Compliance Matrix: (Units=1/GPa)
#
#
# Indices 1 2 3 4 5 6 
#
# 1 0.018050 -0.002468 -0.001952 0.000000 0.000000 0.000000
# 2 -0.002468 0.033705 -0.019397 0.000000 0.000000 0.000000
# 3 -0.001952 -0.019397 0.025113 0.000000 0.000000 0.000000
# 4 0.000000 0.000000 0.000000 0.030766 0.000000 0.000000
# 5 0.000000 0.000000 0.000000 0.000000 0.060441 0.000000
# 6 0.000000 0.000000 0.000000 0.000000 0.000000 0.179829
#
#
# Mechanical properties :
#
#
# Convention : Reuss Voigt Hill
#
# Bulk Modulus (GPa) = 34.20671 36.84194 35.52432
# Shear Modulus (GPa) = 12.33709 18.84935 15.59322
#
# Velocity S-wave (km/s) = 2.57898 3.18780 2.89941
# Velocity P-wave (km/s) = 5.22587 5.78028 5.51005
#
# Compressibility (1/GPa) = 0.02923403
#
# Stress axis : x y z
#
# Youngs Moduli (GPa) = 55.40283 29.66888 39.82044
#
# Poissons Ratio (x) = 0.07323 0.07773
# Poissons Ratio (y) = 0.13674 0.77238
# Poissons Ratio (z) = 0.10815 0.57548
#
# Static dielectric constant tensor:
#      x y z
#    x 1.658620 0.000000 0.000000 
#    y 0.000000 1.642740 0.000000 
#    z 0.000000 0.000000 1.687190 
# 
# From -- ./inp_files/24817.got.cif
#   From: 2010.05.17/outbox.cif.g08.bks.cpg/sg68_13_cif.got.tgz:24817.got - 2010.06.03 18:57:09.
