data_PCOD9506038
_publ_section_title
;
Structure prediction by ZEFSAII (Michael W. Deem and Ramdas Pophale) SiO2 
 PCOD9506038
Probable space group: C C C A
;
_chemical_formula_sum "Si O2"
_cell_formula_units_Z 64
_cell_length_a 9.363056
_cell_length_b 10.980551
_cell_length_c 23.474786
_cell_angle_alpha 90.000000
_cell_angle_beta 90.000000
_cell_angle_gamma 90.000000
_cell_volume 2413.478288
_symmetry_space_group_name_H-M "C C C A"
_symmetry_group_IT_number 68
_space_group.IT_coordinate_system_code '2'
_symmetry_cell_setting 'orthorhombic'
loop_
_space_group_symop_operation_xyz
x,y,z
-x,1/2-y,z
x,1/2-y,1/2-z
-x,y,1/2-z
-x,-y,-z
x,1/2+y,-z
-x,1/2+y,1/2+z
x,-y,1/2+z
1/2+x,1/2+y,z
1/2-x,-y,z
1/2+x,-y,1/2-z
1/2-x,1/2+y,1/2-z
1/2-x,1/2-y,-z
1/2+x,y,-z
1/2-x,y,1/2+z
1/2+x,1/2-y,1/2+z
loop_
_atom_site_type_symbol
_atom_site_label
_atom_site_fract_x
_atom_site_fract_y
_atom_site_fract_z
Si Si1 0.818201 0.237535 0.854869
Si Si2 0.608355 0.090359 0.593806
Si Si3 0.529542 0.952361 0.811585
Si Si4 0.668570 0.870068 0.975229
O O1 0.670806 0.291029 0.876056
O O2 0.908683 0.347426 0.826263
O O3 0.879679 0.176648 0.913561
O O4 0.825371 0.125525 0.811832
O O5 0.561936 0.107787 0.528682
O O6 0.750000 0.000000 0.590743
O O7 0.489988 0.040815 0.635780
O O8 0.500000 0.005787 0.750000
O O9 0.750000 0.000000 0.968081
O O10 0.750000 0.750000 0.000000
#
# Coordination Sequence:
#
# PCOD9506038 Si02
#       4
#    16  16  16  16
#     4   9  17  31  52  79 108 145 193 249 308 367
#     4   8  16  31  51  76 110 146 185 249 309 360
#     4  10  19  33  53  81 113 153 206 248 294 376
#     4   9  17  32  55  84 117 152 198 254 322 393
#
# _framework density 26.517745000000001
#
# number of rings (size 3 to 8) (size 9 to 14) (size 15 to 20)
#    0.000    3.000    0.000    3.000    0.000    1.000 
#    0.000    6.250    0.000    4.500    0.000   28.000 
#    0.000    0.000    0.000    0.000    0.000    0.000 
#
# Total GULP energy -178566.335264 kJ/mol
# GULP energy per Si atom -5580.197977 kJ/mol
# Density = 2.645739 g / cm^3
# Si number density = 26.517745 Si / 1000 Ang^3
#
#
#
# Elastic Constant Matrix: (Units=GPa)
#
#
# Indices 1 2 3 4 5 6 
#
# 1 51.8129 42.5723 9.4363 0.0000 0.0000 0.0000
# 2 42.5723 136.8488 18.5877 0.0000 0.0000 0.0000
# 3 9.4363 18.5877 115.1622 0.0000 0.0000 0.0000
# 4 0.0000 0.0000 0.0000 16.2900 0.0000 0.0000
# 5 0.0000 0.0000 0.0000 0.0000 28.7611 0.0000
# 6 0.0000 0.0000 0.0000 0.0000 0.0000 48.5253
#
#
#
# Elastic Compliance Matrix: (Units=1/GPa)
#
#
# Indices 1 2 3 4 5 6 
#
# 1 0.026007 -0.007976 -0.000844 0.000000 0.000000 0.000000
# 2 -0.007976 0.009917 -0.000947 0.000000 0.000000 0.000000
# 3 -0.000844 -0.000947 0.008905 0.000000 0.000000 0.000000
# 4 0.000000 0.000000 0.000000 0.061387 0.000000 0.000000
# 5 0.000000 0.000000 0.000000 0.000000 0.034769 0.000000
# 6 0.000000 0.000000 0.000000 0.000000 0.000000 0.020608
#
#
# Mechanical properties :
#
#
# Convention : Reuss Voigt Hill
#
# Bulk Modulus (GPa) = 39.53136 49.44628 44.48882
# Shear Modulus (GPa) = 26.37684 34.26378 30.32031
#
# Velocity S-wave (km/s) = 3.15729 3.59849 3.38508
# Velocity P-wave (km/s) = 5.31330 5.99604 5.66496
#
# Compressibility (1/GPa) = 0.02529637
#
# Stress axis : x y z
#
# Youngs Moduli (GPa) = 38.45060 100.83444 112.29132
#
# Poissons Ratio (x) = 0.80426 0.09474
# Poissons Ratio (y) = 0.30668 0.10636
# Poissons Ratio (z) = 0.03244 0.09550
#
# Static dielectric constant tensor:
#      x y z
#    x 2.189050 0.000000 0.000000 
#    y 0.000000 2.157100 0.000000 
#    z 0.000000 0.000000 2.008070 
# 
# From -- ./inp_files/37040.got.cif
#   From: 2010.05.17/outbox.cif.g08.bks.cpg/sg68_19_cif.got.tgz:37040.got - 2010.06.03 18:57:09.
