data_PCOD9506354
_publ_section_title
;
Structure prediction by ZEFSAII (Michael W. Deem and Ramdas Pophale) SiO2 
 PCOD9506354
Probable space group: C C C A
;
_chemical_formula_sum "Si O2"
_cell_formula_units_Z 64
_cell_length_a 11.030123
_cell_length_b 10.160489
_cell_length_c 26.337926
_cell_angle_alpha 90.000000
_cell_angle_beta 90.000000
_cell_angle_gamma 90.000000
_cell_volume 2951.729383
_symmetry_space_group_name_H-M "C C C A"
_symmetry_group_IT_number 68
_space_group.IT_coordinate_system_code '2'
_symmetry_cell_setting 'orthorhombic'
loop_
_space_group_symop_operation_xyz
x,y,z
-x,1/2-y,z
x,1/2-y,1/2-z
-x,y,1/2-z
-x,-y,-z
x,1/2+y,-z
-x,1/2+y,1/2+z
x,-y,1/2+z
1/2+x,1/2+y,z
1/2-x,-y,z
1/2+x,-y,1/2-z
1/2-x,1/2+y,1/2-z
1/2-x,1/2-y,-z
1/2+x,y,-z
1/2-x,y,1/2+z
1/2+x,1/2-y,1/2+z
loop_
_atom_site_type_symbol
_atom_site_label
_atom_site_fract_x
_atom_site_fract_y
_atom_site_fract_z
Si Si1 0.181543 0.189148 0.909887
Si Si2 0.253886 0.839031 0.796185
Si Si3 0.000000 0.750000 0.662673
Si Si4 0.051713 0.915335 0.926772
Si Si5 0.500000 0.250000 0.016592
O O1 0.179802 0.199085 0.849047
O O2 0.320511 0.165796 0.924729
O O3 0.113796 0.287809 0.947482
O O4 0.101159 0.060752 0.922089
O O5 0.302681 0.750000 0.750000
O O6 0.116227 0.790277 0.805475
O O7 0.250000 0.000000 0.790082
O O8 0.979954 0.628167 0.623763
O O9 0.981854 0.868792 0.976441
#
# Coordination Sequence:
#
# PCOD9506354 Si02
#       5
#    16  16   8  16   8
#     4  10  19  38  56  86 134 157 208 277 307 382
#     4  11  22  43  68  93 127 171 222 275 326 386
#     4   9  17  38  67  88 115 170 219 249 322 400
#     4   9  18  35  61  83 122 169 205 251 318 389
#     4  11  20  30  58  96 120 170 206 249 334 388
#
# _framework density 21.682203999999999
#
# number of rings (size 3 to 8) (size 9 to 14) (size 15 to 20)
#    0.000    2.000    5.000    1.875    0.000    0.000 
#    4.500    0.625    0.000    0.000    0.000    0.000 
#    0.000    0.000    0.000    0.000    0.000    0.000 
#
# Total GULP energy -178183.585746 kJ/mol
# GULP energy per Si atom -5568.237055 kJ/mol
# Density = 2.163285 g / cm^3
# Si number density = 21.682204 Si / 1000 Ang^3
#
#
#
# Elastic Constant Matrix: (Units=GPa)
#
#
# Indices 1 2 3 4 5 6 
#
# 1 59.6914 21.7467 26.4484 0.0000 0.0000 0.0000
# 2 21.7467 55.4505 31.9369 0.0000 0.0000 0.0000
# 3 26.4484 31.9369 185.8792 0.0000 0.0000 0.0000
# 4 0.0000 0.0000 0.0000 24.3786 0.0000 0.0000
# 5 0.0000 0.0000 0.0000 0.0000 23.2940 0.0000
# 6 0.0000 0.0000 0.0000 0.0000 0.0000 36.9396
#
#
#
# Elastic Compliance Matrix: (Units=1/GPa)
#
#
# Indices 1 2 3 4 5 6 
#
# 1 0.019998 -0.006885 -0.001662 0.000000 0.000000 0.000000
# 2 -0.006885 0.022385 -0.002866 0.000000 0.000000 0.000000
# 3 -0.001662 -0.002866 0.006109 0.000000 0.000000 0.000000
# 4 0.000000 0.000000 0.000000 0.041019 0.000000 0.000000
# 5 0.000000 0.000000 0.000000 0.000000 0.042930 0.000000
# 6 0.000000 0.000000 0.000000 0.000000 0.000000 0.027071
#
#
# Mechanical properties :
#
#
# Convention : Reuss Voigt Hill
#
# Bulk Modulus (GPa) = 38.96558 51.25390 45.10974
# Shear Modulus (GPa) = 26.19235 31.64838 28.92036
#
# Velocity S-wave (km/s) = 3.47942 3.82468 3.65613
# Velocity P-wave (km/s) = 5.84397 6.57223 6.21877
#
# Compressibility (1/GPa) = 0.02566368
#
# Stress axis : x y z
#
# Youngs Moduli (GPa) = 50.00525 44.67208 163.69598
#
# Poissons Ratio (x) = 0.30758 0.27214
# Poissons Ratio (y) = 0.34430 0.46923
# Poissons Ratio (z) = 0.08313 0.12805
#
# Static dielectric constant tensor:
#      x y z
#    x 1.910300 0.000000 0.000000 
#    y 0.000000 1.999740 0.000000 
#    z 0.000000 0.000000 1.852680 
# 
# From -- ./inp_files/43913.got.cif
#   From: 2010.05.17/outbox.cif.g08.bks.cpg/sg68_22_cif.got.tgz:43913.got - 2010.06.03 18:57:09.
