data_PCOD9506317
_publ_section_title
;
Structure prediction by ZEFSAII (Michael W. Deem and Ramdas Pophale) SiO2 
 PCOD9506317
Probable space group: C C C A
;
_chemical_formula_sum "Si O2"
_cell_formula_units_Z 116
_cell_length_a 27.250369
_cell_length_b 19.774819
_cell_length_c 8.531709
_cell_angle_alpha 90.000000
_cell_angle_beta 90.000000
_cell_angle_gamma 90.000000
_cell_volume 4597.491539
_symmetry_space_group_name_H-M "C C C A"
_symmetry_group_IT_number 68
_space_group.IT_coordinate_system_code '2'
_symmetry_cell_setting 'orthorhombic'
loop_
_space_group_symop_operation_xyz
x,y,z
-x,1/2-y,z
x,1/2-y,1/2-z
-x,y,1/2-z
-x,-y,-z
x,1/2+y,-z
-x,1/2+y,1/2+z
x,-y,1/2+z
1/2+x,1/2+y,z
1/2-x,-y,z
1/2+x,-y,1/2-z
1/2-x,1/2+y,1/2-z
1/2-x,1/2-y,-z
1/2+x,y,-z
1/2-x,y,1/2+z
1/2+x,1/2-y,1/2+z
loop_
_atom_site_type_symbol
_atom_site_label
_atom_site_fract_x
_atom_site_fract_y
_atom_site_fract_z
Si Si1 0.368241 0.423423 0.268022
Si Si2 0.070273 0.406259 0.348788
Si Si3 0.282383 0.396421 0.512495
Si Si4 0.816954 0.250724 0.562225
Si Si5 0.814300 0.890777 0.869190
Si Si6 0.087135 0.802019 0.437162
Si Si7 0.923928 0.020092 0.052764
Si Si8 0.000000 0.250000 0.750000
O O1 0.318278 0.420064 0.369817
O O2 0.380668 0.356774 0.165327
O O3 0.378315 0.484349 0.146096
O O4 0.408058 0.436576 0.403841
O O5 0.129845 0.415348 0.365183
O O6 0.069391 0.328868 0.394946
O O7 0.053276 0.431437 0.182034
O O8 0.048366 0.454854 0.483341
O O9 0.287505 0.314470 0.500444
O O10 0.227397 0.422455 0.480464
O O11 0.296478 0.404771 0.692943
O O12 0.804332 0.250000 0.750000
O O13 0.813793 0.186568 0.441009
O O14 0.876374 0.261399 0.555534
O O15 0.036969 0.793638 0.349281
#
# Coordination Sequence:
#
# PCOD9506317 Si02
#       8
#    16  16  16  16  16  16  16   4
#     4  10  19  37  59  84 110 157 193 243 288 340
#     4   9  19  37  57  85 108 156 194 241 285 338
#     4  12  22  35  51  78 118 155 200 253 295 339
#     4  11  20  38  55  79 107 158 196 235 285 354
#     4  11  24  34  51  80 115 156 201 252 295 340
#     4  10  21  36  65  87 122 147 186 232 285 374
#     4   9  18  35  62  80 110 148 209 235 284 342
#     4  12  20  40  64 106 120 152 176 218 304 354
#
# _framework density 25.231148999999998
#
# number of rings (size 3 to 8) (size 9 to 14) (size 15 to 20)
#    0.000    1.655    3.448    1.655    3.862    0.000 
#    0.000    4.138    0.000   14.897    0.000    0.000 
#    0.000    0.000    0.000    0.000    0.000    0.000 
#
# Total GULP energy -323185.826116 kJ/mol
# GULP energy per Si atom -5572.169416 kJ/mol
# Density = 2.517372 g / cm^3
# Si number density = 25.231149 Si / 1000 Ang^3
#
#
#
# Elastic Constant Matrix: (Units=GPa)
#
#
# Indices 1 2 3 4 5 6 
#
# 1 94.6622 -7.9262 12.6913 0.0000 0.0000 0.0000
# 2 -7.9262 32.1846 4.1639 0.0000 0.0000 0.0000
# 3 12.6913 4.1639 142.8775 0.0000 0.0000 0.0000
# 4 0.0000 0.0000 0.0000 33.2868 0.0000 0.0000
# 5 0.0000 0.0000 0.0000 0.0000 11.5095 0.0000
# 6 0.0000 0.0000 0.0000 0.0000 0.0000 8.8636
#
#
#
# Elastic Compliance Matrix: (Units=1/GPa)
#
#
# Indices 1 2 3 4 5 6 
#
# 1 0.010942 0.002831 -0.001054 0.000000 0.000000 0.000000
# 2 0.002831 0.031921 -0.001182 0.000000 0.000000 0.000000
# 3 -0.001054 -0.001182 0.007127 0.000000 0.000000 0.000000
# 4 0.000000 0.000000 0.000000 0.030042 0.000000 0.000000
# 5 0.000000 0.000000 0.000000 0.000000 0.086885 0.000000
# 6 0.000000 0.000000 0.000000 0.000000 0.000000 0.112821
#
#
# Mechanical properties :
#
#
# Convention : Reuss Voigt Hill
#
# Bulk Modulus (GPa) = 19.53876 31.95358 25.74617
# Shear Modulus (GPa) = 16.91425 28.11833 22.51629
#
# Velocity S-wave (km/s) = 2.59196 3.34193 2.99055
# Velocity P-wave (km/s) = 4.08882 5.25197 4.70646
#
# Compressibility (1/GPa) = 0.05118032
#
# Stress axis : x y z
#
# Youngs Moduli (GPa) = 91.38835 31.32741 140.30936
#
# Poissons Ratio (x) = -0.08869 0.14795
# Poissons Ratio (y) = -0.25874 0.16581
# Poissons Ratio (z) = 0.09637 0.03702
#
# Static dielectric constant tensor:
#      x y z
#    x 2.046910 0.000000 0.000000 
#    y 0.000000 2.387910 0.000000 
#    z 0.000000 0.000000 1.997670 
# 
# From -- ./inp_files/8429.got.cif
#   From: 2010.05.17/outbox.cif.g08.bks.cpg/sg68_5_cif.got.tgz:8429.got - 2010.06.03 18:57:09.
