data_PCOD9506828
_publ_section_title
;
Structure prediction by ZEFSAII (Michael W. Deem and Ramdas Pophale) SiO2 
 PCOD9506828
Probable space group: C C C A
;
_chemical_formula_sum "Si O2"
_cell_formula_units_Z 116
_cell_length_a 24.479190
_cell_length_b 8.893932
_cell_length_c 27.184732
_cell_angle_alpha 90.000000
_cell_angle_beta 90.000000
_cell_angle_gamma 90.000000
_cell_volume 5918.557943
_symmetry_space_group_name_H-M "C C C A"
_symmetry_group_IT_number 68
_space_group.IT_coordinate_system_code '2'
_symmetry_cell_setting 'orthorhombic'
loop_
_space_group_symop_operation_xyz
x,y,z
-x,1/2-y,z
x,1/2-y,1/2-z
-x,y,1/2-z
-x,-y,-z
x,1/2+y,-z
-x,1/2+y,1/2+z
x,-y,1/2+z
1/2+x,1/2+y,z
1/2-x,-y,z
1/2+x,-y,1/2-z
1/2-x,1/2+y,1/2-z
1/2-x,1/2-y,-z
1/2+x,y,-z
1/2-x,y,1/2+z
1/2+x,1/2-y,1/2+z
loop_
_atom_site_type_symbol
_atom_site_label
_atom_site_fract_x
_atom_site_fract_y
_atom_site_fract_z
Si Si1 0.394732 0.724585 0.101297
Si Si2 0.693521 0.570914 0.254218
Si Si3 0.605809 0.785195 0.885098
Si Si4 0.088875 0.052254 0.189317
Si Si5 0.038902 0.521081 0.072076
Si Si6 0.084338 0.505489 0.965060
Si Si7 0.312010 0.022029 0.368025
Si Si8 0.500000 0.250000 0.750000
O O1 0.390833 0.828588 0.148716
O O2 0.450327 0.628439 0.103000
O O3 0.396617 0.832644 0.054273
O O4 0.348262 0.599695 0.103317
O O5 0.697927 0.750000 0.250000
O O6 0.750000 0.500000 0.234512
O O7 0.638614 0.523656 0.226494
O O8 0.687503 0.521934 0.310631
O O9 0.559299 0.664137 0.898342
O O10 0.659017 0.684788 0.872294
O O11 0.583708 0.898677 0.842847
O O12 0.617678 0.881254 0.934725
O O13 0.039032 0.136856 0.217710
O O14 0.977094 0.524821 0.054829
O O15 0.076812 0.504894 0.023293
O O16 0.250000 0.000000 0.384998
#
# Coordination Sequence:
#
# PCOD9506828 Si02
#       8
#    16  16  16  16  16  16  16   4
#     4  10  20  36  61  84 120 162 200 247 303 383
#     4  11  23  42  67  93 119 161 225 279 316 354
#     4  10  23  37  60  94 126 156 210 258 303 375
#     4  11  24  40  61  92 124 176 211 244 327 381
#     4  10  20  37  60  91 125 158 205 251 308 349
#     4  10  20  36  61  92 122 160 203 256 298 361
#     4  10  22  41  64  88 121 159 203 272 321 356
#     4  12  24  44  64  82 144 184 206 242 312 460
#
# _framework density 19.599368999999999
#
# number of rings (size 3 to 8) (size 9 to 14) (size 15 to 20)
#    0.000    1.655    2.069    1.655    7.724    2.207 
#    2.483    2.069    0.000   14.897    0.000    1.931 
#    0.000    0.000    0.000    0.000    0.000    0.000 
#
# Total GULP energy -323553.025514 kJ/mol
# GULP energy per Si atom -5578.500440 kJ/mol
# Density = 1.955476 g / cm^3
# Si number density = 19.599369 Si / 1000 Ang^3
#
#
#
# Elastic Constant Matrix: (Units=GPa)
#
#
# Indices 1 2 3 4 5 6 
#
# 1 106.3520 51.3045 56.0073 0.0000 0.0000 0.0000
# 2 51.3045 135.7792 41.9129 0.0000 0.0000 0.0000
# 3 56.0073 41.9129 69.4712 0.0000 0.0000 0.0000
# 4 0.0000 0.0000 0.0000 26.5144 0.0000 0.0000
# 5 0.0000 0.0000 0.0000 0.0000 20.9763 0.0000
# 6 0.0000 0.0000 0.0000 0.0000 0.0000 28.4457
#
#
#
# Elastic Compliance Matrix: (Units=1/GPa)
#
#
# Indices 1 2 3 4 5 6 
#
# 1 0.017117 -0.002713 -0.012162 0.000000 0.000000 0.000000
# 2 -0.002713 0.009480 -0.003532 0.000000 0.000000 0.000000
# 3 -0.012162 -0.003532 0.026331 0.000000 0.000000 0.000000
# 4 0.000000 0.000000 0.000000 0.037715 0.000000 0.000000
# 5 0.000000 0.000000 0.000000 0.000000 0.047673 0.000000
# 6 0.000000 0.000000 0.000000 0.000000 0.000000 0.035155
#
#
# Mechanical properties :
#
#
# Convention : Reuss Voigt Hill
#
# Bulk Modulus (GPa) = 62.06543 67.78352 64.92447
# Shear Modulus (GPa) = 23.18496 26.01246 24.59871
#
# Velocity S-wave (km/s) = 3.44313 3.64704 3.54655
# Velocity P-wave (km/s) = 6.89512 7.23838 7.06883
#
# Compressibility (1/GPa) = 0.01611203
#
# Stress axis : x y z
#
# Youngs Moduli (GPa) = 58.42297 105.48016 37.97844
#
# Poissons Ratio (x) = 0.28619 0.46191
# Poissons Ratio (y) = 0.15851 0.13415
# Poissons Ratio (z) = 0.71056 0.37259
#
# Static dielectric constant tensor:
#      x y z
#    x 1.706910 0.000000 0.000000 
#    y 0.000000 1.717960 0.000000 
#    z 0.000000 0.000000 1.697640 
# 
# From -- ./inp_files/56088.got.cif
#   From: 2010.05.17/outbox.cif.g08.bks.cpg/sg68_29_cif.got.tgz:56088.got - 2010.06.03 18:57:09.
