data_PCOD9506100
_publ_section_title
;
Structure prediction by ZEFSAII (Michael W. Deem and Ramdas Pophale) SiO2 
 PCOD9506100
Probable space group: C C C A
;
_chemical_formula_sum "Si O2"
_cell_formula_units_Z 88
_cell_length_a 25.665555
_cell_length_b 13.386174
_cell_length_c 14.195439
_cell_angle_alpha 90.000000
_cell_angle_beta 90.000000
_cell_angle_gamma 90.000000
_cell_volume 4877.035914
_symmetry_space_group_name_H-M "C C C A"
_symmetry_group_IT_number 68
_space_group.IT_coordinate_system_code '2'
_symmetry_cell_setting 'orthorhombic'
loop_
_space_group_symop_operation_xyz
x,y,z
-x,1/2-y,z
x,1/2-y,1/2-z
-x,y,1/2-z
-x,-y,-z
x,1/2+y,-z
-x,1/2+y,1/2+z
x,-y,1/2+z
1/2+x,1/2+y,z
1/2-x,-y,z
1/2+x,-y,1/2-z
1/2-x,1/2+y,1/2-z
1/2-x,1/2-y,-z
1/2+x,y,-z
1/2-x,y,1/2+z
1/2+x,1/2-y,1/2+z
loop_
_atom_site_type_symbol
_atom_site_label
_atom_site_fract_x
_atom_site_fract_y
_atom_site_fract_z
Si Si1 0.238426 0.834049 0.424404
Si Si2 0.576593 0.994919 0.429182
Si Si3 0.332925 0.478477 0.565462
Si Si4 0.827185 0.750000 0.250000
Si Si5 0.098928 0.434623 0.731003
Si Si6 0.021974 0.861507 0.428692
O O1 0.250000 0.750000 0.500000
O O2 0.292713 0.891702 0.408163
O O3 0.209904 0.783850 0.335446
O O4 0.199792 0.921727 0.459028
O O5 0.561121 0.894114 0.486309
O O6 0.627606 0.039811 0.479888
O O7 0.583986 0.993899 0.317220
O O8 0.528423 0.069626 0.441275
O O9 0.367208 0.504620 0.656043
O O10 0.865552 0.656525 0.230421
O O11 0.051652 0.388198 0.669087
O O12 0.000000 0.750000 0.429976
#
# Coordination Sequence:
#
# PCOD9506100 Si02
#       6
#    16  16  16   8  16  16
#     4  10  20  36  55  78 109 144 182 227 277 330
#     4  10  20  35  57  81 110 147 183 227 284 337
#     4   9  21  36  52  79 112 142 181 229 275 333
#     4  10  20  32  55  84 106 142 193 230 274 338
#     4  10  19  34  55  80 110 144 184 231 279 333
#     4  10  21  36  57  84 111 142 188 235 279 335
#
# _framework density 18.043745999999999
#
# number of rings (size 3 to 8) (size 9 to 14) (size 15 to 20)
#    0.000    2.182    0.000    2.727    0.000    5.091 
#    0.000    3.636    0.000   22.909    0.000    0.000 
#    0.000    0.000    0.000    0.000    0.000    0.000 
#
# Total GULP energy -245248.356966 kJ/mol
# GULP energy per Si atom -5573.826295 kJ/mol
# Density = 1.800268 g / cm^3
# Si number density = 18.043746 Si / 1000 Ang^3
#
#
#
# Elastic Constant Matrix: (Units=GPa)
#
#
# Indices 1 2 3 4 5 6 
#
# 1 105.8748 47.2521 51.1835 0.0000 0.0000 0.0000
# 2 47.2521 65.4336 51.9060 0.0000 0.0000 0.0000
# 3 51.1835 51.9060 107.9532 0.0000 0.0000 0.0000
# 4 0.0000 0.0000 0.0000 18.8181 0.0000 0.0000
# 5 0.0000 0.0000 0.0000 0.0000 28.2912 0.0000
# 6 0.0000 0.0000 0.0000 0.0000 0.0000 24.7473
#
#
#
# Elastic Compliance Matrix: (Units=1/GPa)
#
#
# Indices 1 2 3 4 5 6 
#
# 1 0.014505 -0.008114 -0.002976 0.000000 0.000000 0.000000
# 2 -0.008114 0.029245 -0.010214 0.000000 0.000000 0.000000
# 3 -0.002976 -0.010214 0.015585 0.000000 0.000000 0.000000
# 4 0.000000 0.000000 0.000000 0.053140 0.000000 0.000000
# 5 0.000000 0.000000 0.000000 0.000000 0.035347 0.000000
# 6 0.000000 0.000000 0.000000 0.000000 0.000000 0.040408
#
#
# Mechanical properties :
#
#
# Convention : Reuss Voigt Hill
#
# Bulk Modulus (GPa) = 59.78429 64.43831 62.11130
# Shear Modulus (GPa) = 21.14923 22.96597 22.05760
#
# Velocity S-wave (km/s) = 3.42732 3.57149 3.50015
# Velocity P-wave (km/s) = 6.99049 7.26617 7.12966
#
# Compressibility (1/GPa) = 0.01672680
#
# Stress axis : x y z
#
# Youngs Moduli (GPa) = 68.94154 34.19403 64.16224
#
# Poissons Ratio (x) = 0.27745 0.19094
# Poissons Ratio (y) = 0.55939 0.65538
# Poissons Ratio (z) = 0.20516 0.34927
#
# Static dielectric constant tensor:
#      x y z
#    x 1.871380 0.000000 0.000000 
#    y 0.000000 1.611700 0.000000 
#    z 0.000000 0.000000 1.624160 
# 
# From -- ./inp_files/17093.got.cif
#   From: 2010.05.17/outbox.cif.g08.bks.cpg/sg68_9_cif.got.tgz:17093.got - 2010.06.03 18:57:09.
