data_PCOD9506789
_publ_section_title
;
Structure prediction by ZEFSAII (Michael W. Deem and Ramdas Pophale) SiO2 
 PCOD9506789
Probable space group: C C C A
;
_chemical_formula_sum "Si O2"
_cell_formula_units_Z 104
_cell_length_a 20.937479
_cell_length_b 25.767597
_cell_length_c 9.461784
_cell_angle_alpha 90.000000
_cell_angle_beta 90.000000
_cell_angle_gamma 90.000000
_cell_volume 5104.713093
_symmetry_space_group_name_H-M "C C C A"
_symmetry_group_IT_number 68
_space_group.IT_coordinate_system_code '2'
_symmetry_cell_setting 'orthorhombic'
loop_
_space_group_symop_operation_xyz
x,y,z
-x,1/2-y,z
x,1/2-y,1/2-z
-x,y,1/2-z
-x,-y,-z
x,1/2+y,-z
-x,1/2+y,1/2+z
x,-y,1/2+z
1/2+x,1/2+y,z
1/2-x,-y,z
1/2+x,-y,1/2-z
1/2-x,1/2+y,1/2-z
1/2-x,1/2-y,-z
1/2+x,y,-z
1/2-x,y,1/2+z
1/2+x,1/2-y,1/2+z
loop_
_atom_site_type_symbol
_atom_site_label
_atom_site_fract_x
_atom_site_fract_y
_atom_site_fract_z
Si Si1 0.825672 0.193886 0.527033
Si Si2 0.212147 0.582460 0.936116
Si Si3 0.475913 0.195967 0.413474
Si Si4 0.200101 0.545324 0.658129
Si Si5 0.990646 0.582224 0.083473
Si Si6 0.767795 0.250000 0.250000
Si Si7 0.398287 0.002978 0.490635
O O1 0.812928 0.132968 0.511486
O O2 0.899461 0.198608 0.572483
O O3 0.808931 0.220149 0.373029
O O4 0.779398 0.215884 0.649972
O O5 0.278866 0.566478 0.005513
O O6 0.163325 0.534513 0.955814
O O7 0.212424 0.590194 0.769579
O O8 0.500000 0.250000 0.479538
O O9 0.500000 0.196390 0.250000
O O10 0.502959 0.141112 0.473861
O O11 0.250000 0.500000 0.696145
O O12 0.129707 0.521400 0.654743
O O13 0.000000 0.586319 0.250000
O O14 0.046791 0.545752 0.022784
O O15 0.927080 0.548182 0.062556
#
# Coordination Sequence:
#
# PCOD9506789 Si02
#       7
#    16  16  16  16  16   8  16
#     4  11  22  45  67  99 128 169 215 277 327 396
#     4  11  21  38  61  91 129 163 208 259 326 385
#     4  10  21  41  67  93 122 166 220 264 314 378
#     4  10  21  36  57  90 127 167 205 254 315 388
#     4  10  20  36  59  89 120 166 212 259 312 370
#     4  10  24  42  70  96 132 164 218 272 340 386
#     4  10  20  36  58  88 126 168 207 259 310 388
#
# _framework density 20.373328999999998
#
# number of rings (size 3 to 8) (size 9 to 14) (size 15 to 20)
#    0.000    1.692    1.538    4.154    0.000    1.231 
#   13.846    0.385    0.000    0.000    0.000    0.000 
#    0.000    0.000    0.000    0.000    0.000    0.000 
#
# Total GULP energy -289541.340289 kJ/mol
# GULP energy per Si atom -5568.102698 kJ/mol
# Density = 2.032696 g / cm^3
# Si number density = 20.373329 Si / 1000 Ang^3
#
#
#
# Elastic Constant Matrix: (Units=GPa)
#
#
# Indices 1 2 3 4 5 6 
#
# 1 104.6978 63.8283 24.4757 0.0000 0.0000 0.0000
# 2 63.8283 154.3734 33.9831 0.0000 0.0000 0.0000
# 3 24.4757 33.9831 82.4011 0.0000 0.0000 0.0000
# 4 0.0000 0.0000 0.0000 21.7679 0.0000 0.0000
# 5 0.0000 0.0000 0.0000 0.0000 13.8962 0.0000
# 6 0.0000 0.0000 0.0000 0.0000 0.0000 31.6842
#
#
#
# Elastic Compliance Matrix: (Units=1/GPa)
#
#
# Indices 1 2 3 4 5 6 
#
# 1 0.013011 -0.004981 -0.001810 0.000000 0.000000 0.000000
# 2 -0.004981 0.009032 -0.002245 0.000000 0.000000 0.000000
# 3 -0.001810 -0.002245 0.013599 0.000000 0.000000 0.000000
# 4 0.000000 0.000000 0.000000 0.045939 0.000000 0.000000
# 5 0.000000 0.000000 0.000000 0.000000 0.071962 0.000000
# 6 0.000000 0.000000 0.000000 0.000000 0.000000 0.031561
#
#
# Mechanical properties :
#
#
# Convention : Reuss Voigt Hill
#
# Bulk Modulus (GPa) = 56.91937 65.11627 61.01782
# Shear Modulus (GPa) = 23.91941 28.08200 26.00071
#
# Velocity S-wave (km/s) = 3.43017 3.71667 3.57629
# Velocity P-wave (km/s) = 6.60961 7.10275 6.86061
#
# Compressibility (1/GPa) = 0.01756871
#
# Stress axis : x y z
#
# Youngs Moduli (GPa) = 76.85640 110.72244 73.53240
#
# Poissons Ratio (x) = 0.55153 0.13313
# Poissons Ratio (y) = 0.38284 0.16509
# Poissons Ratio (z) = 0.13915 0.24859
#
# Static dielectric constant tensor:
#      x y z
#    x 1.744690 0.000000 0.000000 
#    y 0.000000 1.763070 0.000000 
#    z 0.000000 0.000000 1.784760 
# 
# From -- ./inp_files/7394.got.cif
#   From: 2010.05.17/outbox.cif.g08.bks.cpg/sg68_4_cif.got.tgz:7394.got - 2010.06.03 18:57:09.
