data_PCOD9506077
_publ_section_title
;
Structure prediction by ZEFSAII (Michael W. Deem and Ramdas Pophale) SiO2 
 PCOD9506077
Probable space group: C C C A
;
_chemical_formula_sum "Si O2"
_cell_formula_units_Z 56
_cell_length_a 17.699951
_cell_length_b 4.984464
_cell_length_c 25.043455
_cell_angle_alpha 90.000000
_cell_angle_beta 90.000000
_cell_angle_gamma 90.000000
_cell_volume 2209.453021
_symmetry_space_group_name_H-M "C C C A"
_symmetry_group_IT_number 68
_space_group.IT_coordinate_system_code '2'
_symmetry_cell_setting 'orthorhombic'
loop_
_space_group_symop_operation_xyz
x,y,z
-x,1/2-y,z
x,1/2-y,1/2-z
-x,y,1/2-z
-x,-y,-z
x,1/2+y,-z
-x,1/2+y,1/2+z
x,-y,1/2+z
1/2+x,1/2+y,z
1/2-x,-y,z
1/2+x,-y,1/2-z
1/2-x,1/2+y,1/2-z
1/2-x,1/2-y,-z
1/2+x,y,-z
1/2-x,y,1/2+z
1/2+x,1/2-y,1/2+z
loop_
_atom_site_type_symbol
_atom_site_label
_atom_site_fract_x
_atom_site_fract_y
_atom_site_fract_z
Si Si1 0.129511 0.722279 0.375850
Si Si2 0.413190 0.072215 0.971547
Si Si3 0.750000 0.500000 0.939109
Si Si4 0.409719 0.289750 0.689692
O O1 0.077471 0.883327 0.419862
O O2 0.211368 0.778442 0.401015
O O3 0.117769 0.420966 0.355788
O O4 0.114176 0.911456 0.325557
O O5 0.321354 0.106473 0.971856
O O6 0.436904 0.880284 0.021005
O O7 0.500000 0.250000 0.689870
O O8 0.381845 0.250000 0.750000
#
# Coordination Sequence:
#
# PCOD9506077 Si02
#       4
#    16  16   8  16
#     4  10  22  36  61  92 120 147 200 251 299 354
#     4  10  19  33  58  90 122 159 193 231 288 363
#     4   8  22  32  62  90 126 152 190 238 298 360
#     4  11  23  42  64  83 109 157 213 256 297 353
#
# _framework density 25.345638000000001
#
# number of rings (size 3 to 8) (size 9 to 14) (size 15 to 20)
#    1.714    0.286    0.000    4.286    0.000    5.714 
#    0.000    2.857    0.000   17.143    0.000    0.000 
#    0.000    0.000    0.000    0.000    0.000    0.000 
#
# Total GULP energy -156201.180069 kJ/mol
# GULP energy per Si atom -5578.613574 kJ/mol
# Density = 2.528795 g / cm^3
# Si number density = 25.345638 Si / 1000 Ang^3
#
#
#
# Elastic Constant Matrix: (Units=GPa)
#
#
# Indices 1 2 3 4 5 6 
#
# 1 58.5739 31.5377 -1.4376 0.0000 0.0000 0.0000
# 2 31.5377 109.1742 1.8572 0.0000 0.0000 0.0000
# 3 -1.4376 1.8572 91.2916 0.0000 0.0000 0.0000
# 4 0.0000 0.0000 0.0000 37.8129 0.0000 0.0000
# 5 0.0000 0.0000 0.0000 0.0000 -41.8657 0.0000
# 6 0.0000 0.0000 0.0000 0.0000 0.0000 35.0146
#
#
#
# Elastic Compliance Matrix: (Units=1/GPa)
#
#
# Indices 1 2 3 4 5 6 
#
# 1 0.020234 -0.005853 0.000438 0.000000 0.000000 0.000000
# 2 -0.005853 0.010856 -0.000313 0.000000 0.000000 0.000000
# 3 0.000438 -0.000313 0.010967 0.000000 0.000000 0.000000
# 4 0.000000 0.000000 0.000000 0.026446 0.000000 0.000000
# 5 0.000000 0.000000 0.000000 0.000000 -0.023886 0.000000
# 6 0.000000 0.000000 0.000000 0.000000 0.000000 0.028560
#
#
# Mechanical properties :
#
#
# Convention : Reuss Voigt Hill
#
# Bulk Modulus (GPa) = 32.67831 35.88380 34.28106
# Shear Modulus (GPa) = 52.72413 21.33120 37.02766
#
# Velocity S-wave (km/s) = 4.56587 2.90420 3.82633
# Velocity P-wave (km/s) = 6.38101 5.04325 5.75116
#
# Compressibility (1/GPa) = 0.03060134
#
# Stress axis : x y z
#
# Youngs Moduli (GPa) = 49.42077 92.11760 91.18126
#
# Poissons Ratio (x) = 0.53913 -0.03991
# Poissons Ratio (y) = 0.28924 0.02854
# Poissons Ratio (z) = -0.02163 0.02883
#
# Static dielectric constant tensor:
#      x y z
#    x 1.902700 0.000000 0.000000 
#    y 0.000000 1.920730 0.000000 
#    z 0.000000 0.000000 2.049040 
# 
# From -- ./inp_files/46800.got.cif
#   From: 2010.05.17/outbox.cif.g08.bks.cpg/sg68_24_cif.got.tgz:46800.got - 2010.06.03 18:57:09.
