data_PCOD9506550
_publ_section_title
;
Structure prediction by ZEFSAII (Michael W. Deem and Ramdas Pophale) SiO2 
 PCOD9506550
Probable space group: C C C A
;
_chemical_formula_sum "Si O2"
_cell_formula_units_Z 112
_cell_length_a 20.324058
_cell_length_b 23.016701
_cell_length_c 12.173047
_cell_angle_alpha 90.000000
_cell_angle_beta 90.000000
_cell_angle_gamma 90.000000
_cell_volume 5694.463328
_symmetry_space_group_name_H-M "C C C A"
_symmetry_group_IT_number 68
_space_group.IT_coordinate_system_code '2'
_symmetry_cell_setting 'orthorhombic'
loop_
_space_group_symop_operation_xyz
x,y,z
-x,1/2-y,z
x,1/2-y,1/2-z
-x,y,1/2-z
-x,-y,-z
x,1/2+y,-z
-x,1/2+y,1/2+z
x,-y,1/2+z
1/2+x,1/2+y,z
1/2-x,-y,z
1/2+x,-y,1/2-z
1/2-x,1/2+y,1/2-z
1/2-x,1/2-y,-z
1/2+x,y,-z
1/2-x,y,1/2+z
1/2+x,1/2-y,1/2+z
loop_
_atom_site_type_symbol
_atom_site_label
_atom_site_fract_x
_atom_site_fract_y
_atom_site_fract_z
Si Si1 0.329334 0.492733 0.854155
Si Si2 0.926145 0.587180 0.236473
Si Si3 0.300023 0.398686 0.686648
Si Si4 0.284716 0.816504 0.107779
Si Si5 0.659212 0.201060 0.543102
Si Si6 0.930807 0.717559 0.148919
Si Si7 0.165337 0.589094 0.055885
O O1 0.250000 0.500000 0.858377
O O2 0.374610 0.548324 0.832937
O O3 0.337142 0.450491 0.748382
O O4 0.346724 0.462016 0.968673
O O5 0.934335 0.650230 0.181726
O O6 0.891409 0.594241 0.354654
O O7 0.000000 0.562095 0.250000
O O8 0.277362 0.355141 0.784085
O O9 0.344594 0.359209 0.607791
O O10 0.235288 0.418778 0.619688
O O11 0.316941 0.753536 0.120164
O O12 0.215022 0.807558 0.049737
O O13 0.326320 0.853566 0.018843
O O14 0.598235 0.220612 0.471976
O O15 0.893077 0.750000 0.250000
O O16 0.000000 0.750000 0.143904
#
# Coordination Sequence:
#
# PCOD9506550 Si02
#       7
#    16  16  16  16  16  16  16
#     4  11  25  41  67  99 138 182 231 284 344 404
#     4  12  25  43  69  97 130 181 230 285 339 413
#     4  10  20  39  61  98 134 173 217 275 338 408
#     4   9  19  34  58  99 131 167 209 277 338 403
#     4  10  20  33  64  94 129 171 214 275 340 395
#     4  11  23  43  65  95 130 173 226 278 338 412
#     4  10  22  38  64  95 138 171 227 277 343 397
#
# _framework density 19.668227999999999
#
# number of rings (size 3 to 8) (size 9 to 14) (size 15 to 20)
#    0.000    1.571    2.857    2.143    6.000    2.857 
#    0.000    0.000    0.000    0.857    0.000    0.000 
#    0.000    0.000    0.000    0.000    0.000    0.000 
#
# Total GULP energy -312677.551100 kJ/mol
# GULP energy per Si atom -5583.527698 kJ/mol
# Density = 1.962346 g / cm^3
# Si number density = 19.668228 Si / 1000 Ang^3
#
#
#
# Elastic Constant Matrix: (Units=GPa)
#
#
# Indices 1 2 3 4 5 6 
#
# 1 75.8549 43.2548 31.7126 0.0000 0.0000 0.0000
# 2 43.2548 108.8359 34.0941 0.0000 0.0000 0.0000
# 3 31.7126 34.0941 94.8153 0.0000 0.0000 0.0000
# 4 0.0000 0.0000 0.0000 21.1522 0.0000 0.0000
# 5 0.0000 0.0000 0.0000 0.0000 15.9171 0.0000
# 6 0.0000 0.0000 0.0000 0.0000 0.0000 30.3070
#
#
#
# Elastic Compliance Matrix: (Units=1/GPa)
#
#
# Indices 1 2 3 4 5 6 
#
# 1 0.018267 -0.006025 -0.003943 0.000000 0.000000 0.000000
# 2 -0.006025 0.012341 -0.002423 0.000000 0.000000 0.000000
# 3 -0.003943 -0.002423 0.012737 0.000000 0.000000 0.000000
# 4 0.000000 0.000000 0.000000 0.047276 0.000000 0.000000
# 5 0.000000 0.000000 0.000000 0.000000 0.062826 0.000000
# 6 0.000000 0.000000 0.000000 0.000000 0.000000 0.032996
#
#
# Mechanical properties :
#
#
# Convention : Reuss Voigt Hill
#
# Bulk Modulus (GPa) = 53.86774 55.29212 54.57993
# Shear Modulus (GPa) = 22.99774 24.83824 23.91799
#
# Velocity S-wave (km/s) = 3.42319 3.55753 3.49101
# Velocity P-wave (km/s) = 6.56292 6.71179 6.63777
#
# Compressibility (1/GPa) = 0.01856399
#
# Stress axis : x y z
#
# Youngs Moduli (GPa) = 54.74332 81.02762 78.51177
#
# Poissons Ratio (x) = 0.48816 0.30960
# Poissons Ratio (y) = 0.32981 0.19022
# Poissons Ratio (z) = 0.21587 0.19631
#
# Static dielectric constant tensor:
#      x y z
#    x 1.706210 0.000000 0.000000 
#    y 0.000000 1.726070 0.000000 
#    z 0.000000 0.000000 1.708250 
# 
# From -- ./inp_files/15744.got.cif
#   From: 2010.05.17/outbox.cif.g08.bks.cpg/sg68_8_cif.got.tgz:15744.got - 2010.06.03 18:57:09.
