data_PCOD9506781
_publ_section_title
;
Structure prediction by ZEFSAII (Michael W. Deem and Ramdas Pophale) SiO2 
 PCOD9506781
Probable space group: C C C A
;
_chemical_formula_sum "Si O2"
_cell_formula_units_Z 88
_cell_length_a 18.868582
_cell_length_b 7.954039
_cell_length_c 29.707686
_cell_angle_alpha 90.000000
_cell_angle_beta 90.000000
_cell_angle_gamma 90.000000
_cell_volume 4458.572208
_symmetry_space_group_name_H-M "C C C A"
_symmetry_group_IT_number 68
_space_group.IT_coordinate_system_code '2'
_symmetry_cell_setting 'orthorhombic'
loop_
_space_group_symop_operation_xyz
x,y,z
-x,1/2-y,z
x,1/2-y,1/2-z
-x,y,1/2-z
-x,-y,-z
x,1/2+y,-z
-x,1/2+y,1/2+z
x,-y,1/2+z
1/2+x,1/2+y,z
1/2-x,-y,z
1/2+x,-y,1/2-z
1/2-x,1/2+y,1/2-z
1/2-x,1/2-y,-z
1/2+x,y,-z
1/2-x,y,1/2+z
1/2+x,1/2-y,1/2+z
loop_
_atom_site_type_symbol
_atom_site_label
_atom_site_fract_x
_atom_site_fract_y
_atom_site_fract_z
Si Si1 0.112900 0.092591 0.881476
Si Si2 0.275421 0.808543 0.950847
Si Si3 0.608138 0.666520 0.705542
Si Si4 0.969906 0.066060 0.359255
Si Si5 0.826650 0.283734 0.123151
Si Si6 0.750000 0.000000 0.802925
O O1 0.151631 0.912572 0.872782
O O2 0.029928 0.041673 0.884435
O O3 0.147237 0.178725 0.926065
O O4 0.121231 0.209759 0.837304
O O5 0.228138 0.701286 0.916954
O O6 0.250000 0.000000 0.948976
O O7 0.250000 0.750000 0.000000
O O8 0.579099 0.750000 0.750000
O O9 0.554412 0.530448 0.685251
O O10 0.682820 0.583351 0.720594
O O11 0.897064 0.106308 0.385330
O O12 0.000000 0.250000 0.348364
O O13 0.787258 0.357571 0.166388
#
# Coordination Sequence:
#
# PCOD9506781 Si02
#       6
#    16  16  16  16  16   8
#     4  10  20  38  58  84 121 154 199 251 304 361
#     4  10  21  35  59  88 116 153 199 249 308 374
#     4  11  23  37  60  90 120 160 209 250 301 366
#     4   9  20  39  61  83 118 161 197 250 308 361
#     4   9  19  37  59  84 116 158 197 245 309 365
#     4  10  20  36  58  84 118 162 196 248 308 346
#
# _framework density 19.737261
#
# number of rings (size 3 to 8) (size 9 to 14) (size 15 to 20)
#    0.000    2.182    1.818    0.545    1.273    2.909 
#    0.000   10.909    0.000    4.364    0.000    0.000 
#    0.000    0.000    0.000    0.000    0.000    0.000 
#
# Total GULP energy -245055.480622 kJ/mol
# GULP energy per Si atom -5569.442741 kJ/mol
# Density = 1.969234 g / cm^3
# Si number density = 19.737261 Si / 1000 Ang^3
#
#
#
# Elastic Constant Matrix: (Units=GPa)
#
#
# Indices 1 2 3 4 5 6 
#
# 1 151.1125 41.1767 37.3636 0.0000 0.0000 0.0000
# 2 41.1767 69.6362 32.7854 0.0000 0.0000 0.0000
# 3 37.3636 32.7854 74.1207 0.0000 0.0000 0.0000
# 4 0.0000 0.0000 0.0000 27.8611 0.0000 0.0000
# 5 0.0000 0.0000 0.0000 0.0000 12.1581 0.0000
# 6 0.0000 0.0000 0.0000 0.0000 0.0000 15.7426
#
#
#
# Elastic Compliance Matrix: (Units=1/GPa)
#
#
# Indices 1 2 3 4 5 6 
#
# 1 0.008247 -0.003687 -0.002526 0.000000 0.000000 0.000000
# 2 -0.003687 0.019786 -0.006893 0.000000 0.000000 0.000000
# 3 -0.002526 -0.006893 0.017814 0.000000 0.000000 0.000000
# 4 0.000000 0.000000 0.000000 0.035892 0.000000 0.000000
# 5 0.000000 0.000000 0.000000 0.000000 0.082250 0.000000
# 6 0.000000 0.000000 0.000000 0.000000 0.000000 0.063522
#
#
# Mechanical properties :
#
#
# Convention : Reuss Voigt Hill
#
# Bulk Modulus (GPa) = 50.93277 57.50232 54.21754
# Shear Modulus (GPa) = 19.21094 23.38861 21.29977
#
# Velocity S-wave (km/s) = 3.12321 3.44611 3.28863
# Velocity P-wave (km/s) = 6.23437 6.71054 6.47683
#
# Compressibility (1/GPa) = 0.01963372
#
# Stress axis : x y z
#
# Youngs Moduli (GPa) = 121.25720 50.54091 56.13559
#
# Poissons Ratio (x) = 0.18635 0.14182
# Poissons Ratio (y) = 0.44709 0.38695
# Poissons Ratio (z) = 0.30633 0.34839
#
# Static dielectric constant tensor:
#      x y z
#    x 1.790580 0.000000 0.000000 
#    y 0.000000 1.673060 0.000000 
#    z 0.000000 0.000000 1.688740 
# 
# From -- ./inp_files/46509.got.cif
#   From: 2010.05.17/outbox.cif.g08.bks.cpg/sg68_24_cif.got.tgz:46509.got - 2010.06.03 18:57:09.
