data_PCOD9506574
_publ_section_title
;
Structure prediction by ZEFSAII (Michael W. Deem and Ramdas Pophale) SiO2 
 PCOD9506574
Probable space group: C C C A
;
_chemical_formula_sum "Si O2"
_cell_formula_units_Z 92
_cell_length_a 25.598926
_cell_length_b 20.580377
_cell_length_c 8.728200
_cell_angle_alpha 90.000000
_cell_angle_beta 90.000000
_cell_angle_gamma 90.000000
_cell_volume 4598.326029
_symmetry_space_group_name_H-M "C C C A"
_symmetry_group_IT_number 68
_space_group.IT_coordinate_system_code '2'
_symmetry_cell_setting 'orthorhombic'
loop_
_space_group_symop_operation_xyz
x,y,z
-x,1/2-y,z
x,1/2-y,1/2-z
-x,y,1/2-z
-x,-y,-z
x,1/2+y,-z
-x,1/2+y,1/2+z
x,-y,1/2+z
1/2+x,1/2+y,z
1/2-x,-y,z
1/2+x,-y,1/2-z
1/2-x,1/2+y,1/2-z
1/2-x,1/2-y,-z
1/2+x,y,-z
1/2-x,y,1/2+z
1/2+x,1/2-y,1/2+z
loop_
_atom_site_type_symbol
_atom_site_label
_atom_site_fract_x
_atom_site_fract_y
_atom_site_fract_z
Si Si1 0.134961 0.972824 0.747328
Si Si2 0.500000 0.250000 0.250000
Si Si3 0.096604 0.682511 0.295683
Si Si4 0.677413 0.087109 0.457818
Si Si5 0.890144 0.086238 0.546516
Si Si6 0.728928 0.250000 0.750000
Si Si7 0.716123 0.657612 0.994708
O O1 0.101387 0.929854 0.630296
O O2 0.169149 0.021434 0.640712
O O3 0.102226 0.020849 0.855904
O O4 0.168489 0.930240 0.864256
O O5 0.540191 0.207314 0.351049
O O6 0.124807 0.750000 0.250000
O O7 0.132919 0.637520 0.399674
O O8 0.083297 0.643574 0.139696
O O9 0.734061 0.118284 0.442779
O O10 0.829162 0.108822 0.554300
O O11 0.697403 0.294511 0.630487
O O12 0.763274 0.297465 0.856794
#
# Coordination Sequence:
#
# PCOD9506574 Si02
#       7
#    16   4  16  16  16   8  16
#     4   9  20  34  52  79 109 154 186 228 263 321
#     4   8  20  38  68  82 100 148 184 224 298 354
#     4   9  20  37  61  84 106 143 182 232 283 338
#     4  10  20  34  54  77 114 146 190 224 273 320
#     4  10  20  34  54  77 114 146 190 224 273 320
#     4  10  22  29  40  62 108 132 194 221 278 298
#     4  11  22  31  46  76 106 161 183 230 260 330
#
# _framework density 20.007280999999999
#
# number of rings (size 3 to 8) (size 9 to 14) (size 15 to 20)
#    0.522    1.739    0.000    3.130    7.304    4.174 
#    0.000    0.000    0.000   18.783    0.000    0.000 
#    0.000    0.000    0.000    0.000    0.000    0.000 
#
# Total GULP energy -256336.330422 kJ/mol
# GULP energy per Si atom -5572.528922 kJ/mol
# Density = 1.996174 g / cm^3
# Si number density = 20.007281 Si / 1000 Ang^3
#
#
#
# Elastic Constant Matrix: (Units=GPa)
#
#
# Indices 1 2 3 4 5 6 
#
# 1 66.3849 17.4992 0.0016 0.0000 0.0000 0.0000
# 2 17.4992 90.8169 32.0168 0.0000 0.0000 0.0000
# 3 0.0016 32.0168 105.1466 0.0000 0.0000 0.0000
# 4 0.0000 0.0000 0.0000 41.2438 0.0000 0.0000
# 5 0.0000 0.0000 0.0000 0.0000 6.8960 0.0000
# 6 0.0000 0.0000 0.0000 0.0000 0.0000 -21.5110
#
#
#
# Elastic Compliance Matrix: (Units=1/GPa)
#
#
# Indices 1 2 3 4 5 6 
#
# 1 0.015972 -0.003448 0.001050 0.000000 0.000000 0.000000
# 2 -0.003448 0.013080 -0.003983 0.000000 0.000000 0.000000
# 3 0.001050 -0.003983 0.010723 0.000000 0.000000 0.000000
# 4 0.000000 0.000000 0.000000 0.024246 0.000000 0.000000
# 5 0.000000 0.000000 0.000000 0.000000 0.145011 0.000000
# 6 0.000000 0.000000 0.000000 0.000000 0.000000 -0.046488
#
#
# Mechanical properties :
#
#
# Convention : Reuss Voigt Hill
#
# Bulk Modulus (GPa) = 37.01826 40.15374 38.58600
# Shear Modulus (GPa) = 27.12807 19.51448 23.32128
#
# Velocity S-wave (km/s) = 3.68626 3.12648 3.41785
# Velocity P-wave (km/s) = 6.05480 5.75728 5.90791
#
# Compressibility (1/GPa) = 0.02701370
#
# Stress axis : x y z
#
# Youngs Moduli (GPa) = 62.60776 76.45532 93.25564
#
# Poissons Ratio (x) = 0.26360 -0.09788
# Poissons Ratio (y) = 0.21585 0.37140
# Poissons Ratio (z) = -0.06571 0.30449
#
# Static dielectric constant tensor:
#      x y z
#    x 1.674300 0.000000 0.000000 
#    y 0.000000 1.755280 0.000000 
#    z 0.000000 0.000000 1.785830 
# 
# From -- ./inp_files/9575.got.cif
#   From: 2010.05.17/outbox.cif.g08.bks.cpg/sg68_5_cif.got.tgz:9575.got - 2010.06.03 18:57:09.
