data_PCOD9506777
_publ_section_title
;
Structure prediction by ZEFSAII (Michael W. Deem and Ramdas Pophale) SiO2 
 PCOD9506777
Probable space group: C C C A
;
_chemical_formula_sum "Si O2"
_cell_formula_units_Z 96
_cell_length_a 21.362293
_cell_length_b 15.121483
_cell_length_c 17.038989
_cell_angle_alpha 90.000000
_cell_angle_beta 90.000000
_cell_angle_gamma 90.000000
_cell_volume 5504.096957
_symmetry_space_group_name_H-M "C C C A"
_symmetry_group_IT_number 68
_space_group.IT_coordinate_system_code '2'
_symmetry_cell_setting 'orthorhombic'
loop_
_space_group_symop_operation_xyz
x,y,z
-x,1/2-y,z
x,1/2-y,1/2-z
-x,y,1/2-z
-x,-y,-z
x,1/2+y,-z
-x,1/2+y,1/2+z
x,-y,1/2+z
1/2+x,1/2+y,z
1/2-x,-y,z
1/2+x,-y,1/2-z
1/2-x,1/2+y,1/2-z
1/2-x,1/2-y,-z
1/2+x,y,-z
1/2-x,y,1/2+z
1/2+x,1/2-y,1/2+z
loop_
_atom_site_type_symbol
_atom_site_label
_atom_site_fract_x
_atom_site_fract_y
_atom_site_fract_z
Si Si1 0.134487 0.607508 0.014916
Si Si2 0.021946 0.353284 0.397017
Si Si3 0.730399 0.095769 0.872544
Si Si4 0.884850 0.579566 0.909604
Si Si5 0.381841 0.647687 0.264389
Si Si6 0.685409 0.709719 0.533773
O O1 0.130216 0.520939 0.067907
O O2 0.147695 0.701947 0.055223
O O3 0.072430 0.626725 0.964286
O O4 0.190587 0.586881 0.953259
O O5 0.058985 0.381676 0.317691
O O6 0.000000 0.250000 0.392429
O O7 0.959079 0.405452 0.415775
O O8 0.681623 0.140695 0.814284
O O9 0.792288 0.150558 0.893699
O O10 0.750000 0.000000 0.843244
O O11 0.871578 0.601242 0.818753
O O12 0.849289 0.648851 0.968238
O O13 0.394897 0.750000 0.250000
O O14 0.750000 0.750000 0.500000
#
# Coordination Sequence:
#
# PCOD9506777 Si02
#       6
#    16  16  16  16  16  16
#     4  10  21  36  59  88 113 150 198 235 294 349
#     4  11  20  36  61  86 121 150 189 249 300 350
#     4  10  20  40  56  77 119 153 189 237 289 348
#     4  12  21  36  61  88 117 151 193 242 298 350
#     4  11  22  37  57  89 114 150 193 245 298 345
#     4  10  20  36  58  80 115 153 187 240 283 343
#
# _framework density 17.441552999999999
#
# number of rings (size 3 to 8) (size 9 to 14) (size 15 to 20)
#    0.000    1.333    5.000    3.000    0.000    0.000 
#    9.000    0.000    0.000    0.000    0.000    0.000 
#    0.000    0.000    0.000    0.000    0.000    0.000 
#
# Total GULP energy -267538.345957 kJ/mol
# GULP energy per Si atom -5573.715541 kJ/mol
# Density = 1.740186 g / cm^3
# Si number density = 17.441553 Si / 1000 Ang^3
#
#
#
# Elastic Constant Matrix: (Units=GPa)
#
#
# Indices 1 2 3 4 5 6 
#
# 1 90.3157 34.0411 45.7973 0.0000 0.0000 0.0000
# 2 34.0411 118.2098 54.1374 0.0000 0.0000 0.0000
# 3 45.7973 54.1374 63.8816 0.0000 0.0000 0.0000
# 4 0.0000 0.0000 0.0000 20.9942 0.0000 0.0000
# 5 0.0000 0.0000 0.0000 0.0000 72.9081 0.0000
# 6 0.0000 0.0000 0.0000 0.0000 0.0000 15.4911
#
#
#
# Elastic Compliance Matrix: (Units=1/GPa)
#
#
# Indices 1 2 3 4 5 6 
#
# 1 0.017492 0.001154 -0.013518 0.000000 0.000000 0.000000
# 2 0.001154 0.013902 -0.012608 0.000000 0.000000 0.000000
# 3 -0.013518 -0.012608 0.036030 0.000000 0.000000 0.000000
# 4 0.000000 0.000000 0.000000 0.047632 0.000000 0.000000
# 5 0.000000 0.000000 0.000000 0.000000 0.013716 0.000000
# 6 0.000000 0.000000 0.000000 0.000000 0.000000 0.064553
#
#
# Mechanical properties :
#
#
# Convention : Reuss Voigt Hill
#
# Bulk Modulus (GPa) = 57.21192 60.03986 58.62589
# Shear Modulus (GPa) = 20.07256 31.10744 25.59000
#
# Velocity S-wave (km/s) = 3.39609 4.22776 3.83454
# Velocity P-wave (km/s) = 6.94631 7.63742 7.30005
#
# Compressibility (1/GPa) = 0.01747887
#
# Stress axis : x y z
#
# Youngs Moduli (GPa) = 57.16860 71.93440 27.75458
#
# Poissons Ratio (x) = -0.08299 0.37519
# Poissons Ratio (y) = -0.06595 0.34993
# Poissons Ratio (z) = 0.77280 0.90696
#
# Static dielectric constant tensor:
#      x y z
#    x 1.609080 0.000000 0.000000 
#    y 0.000000 1.615510 0.000000 
#    z 0.000000 0.000000 1.595290 
# 
# From -- ./inp_files/22346.got.cif
#   From: 2010.05.17/outbox.cif.g08.bks.cpg/sg68_12_cif.got.tgz:22346.got - 2010.06.03 18:57:09.
