data_PCOD9506343
_publ_section_title
;
Structure prediction by ZEFSAII (Michael W. Deem and Ramdas Pophale) SiO2 
 PCOD9506343
Probable space group: C C C A
;
_chemical_formula_sum "Si O2"
_cell_formula_units_Z 48
_cell_length_a 13.714853
_cell_length_b 5.032279
_cell_length_c 32.751927
_cell_angle_alpha 90.000000
_cell_angle_beta 90.000000
_cell_angle_gamma 90.000000
_cell_volume 2260.438656
_symmetry_space_group_name_H-M "C C C A"
_symmetry_group_IT_number 68
_space_group.IT_coordinate_system_code '2'
_symmetry_cell_setting 'orthorhombic'
loop_
_space_group_symop_operation_xyz
x,y,z
-x,1/2-y,z
x,1/2-y,1/2-z
-x,y,1/2-z
-x,-y,-z
x,1/2+y,-z
-x,1/2+y,1/2+z
x,-y,1/2+z
1/2+x,1/2+y,z
1/2-x,-y,z
1/2+x,-y,1/2-z
1/2-x,1/2+y,1/2-z
1/2-x,1/2-y,-z
1/2+x,y,-z
1/2-x,y,1/2+z
1/2+x,1/2-y,1/2+z
loop_
_atom_site_type_symbol
_atom_site_label
_atom_site_fract_x
_atom_site_fract_y
_atom_site_fract_z
Si Si1 0.750000 0.500000 0.529574
Si Si2 0.062155 0.479955 0.914480
Si Si3 0.822177 0.751054 0.339078
Si Si4 0.821584 0.750000 0.250000
O O1 0.750000 0.750000 0.500000
O O2 0.843296 0.535642 0.558597
O O3 0.102088 0.329269 0.873991
O O4 0.000000 0.250000 0.936534
O O5 0.000000 0.750000 0.907017
O O6 0.750000 0.500000 0.347388
O O7 0.871626 0.724698 0.294210
O O8 0.750000 0.000000 0.337046
O O9 0.750000 0.500000 0.248666
#
# Coordination Sequence:
#
# PCOD9506343 Si02
#       4
#     8  16  16   8
#     4  12  28  48  72  98 134 172 218 278 344 404
#     4  12  26  43  70 103 134 174 222 274 334 404
#     4  10  19  37  65  93 134 176 223 270 327 388
#     4   8  16  30  57  94 123 172 222 266 315 378
#
# _framework density 21.234815999999999
#
# number of rings (size 3 to 8) (size 9 to 14) (size 15 to 20)
#    0.000    1.333    1.667    4.000    2.333    4.000 
#    0.000    0.833    0.000    2.000    0.000    0.000 
#    0.000    0.000    0.000    0.000    0.000    0.000 
#
# Total GULP energy -133884.603521 kJ/mol
# GULP energy per Si atom -5578.525147 kJ/mol
# Density = 2.118648 g / cm^3
# Si number density = 21.234816 Si / 1000 Ang^3
#
#
#
# Elastic Constant Matrix: (Units=GPa)
#
#
# Indices 1 2 3 4 5 6 
#
# 1 123.3449 55.3091 73.8671 0.0000 0.0000 0.0000
# 2 55.3091 193.0757 49.2976 0.0000 0.0000 0.0000
# 3 73.8671 49.2976 155.2418 0.0000 0.0000 0.0000
# 4 0.0000 0.0000 0.0000 25.8410 0.0000 0.0000
# 5 0.0000 0.0000 0.0000 0.0000 -16.1218 0.0000
# 6 0.0000 0.0000 0.0000 0.0000 0.0000 33.0473
#
#
#
# Elastic Compliance Matrix: (Units=1/GPa)
#
#
# Indices 1 2 3 4 5 6 
#
# 1 0.012124 -0.002177 -0.005078 0.000000 0.000000 0.000000
# 2 -0.002177 0.006027 -0.000878 0.000000 0.000000 0.000000
# 3 -0.005078 -0.000878 0.009137 0.000000 0.000000 0.000000
# 4 0.000000 0.000000 0.000000 0.038698 0.000000 0.000000
# 5 0.000000 0.000000 0.000000 0.000000 -0.062028 0.000000
# 6 0.000000 0.000000 0.000000 0.000000 0.000000 0.030260
#
#
# Mechanical properties :
#
#
# Convention : Reuss Voigt Hill
#
# Bulk Modulus (GPa) = 90.72261 92.06777 91.39519
# Shear Modulus (GPa) = 92.32335 28.09920 60.21127
#
# Velocity S-wave (km/s) = 6.60089 3.64161 5.33072
# Velocity P-wave (km/s) = 10.04549 7.81875 9.00124
#
# Compressibility (1/GPa) = 0.01102261
#
# Stress axis : x y z
#
# Youngs Moduli (GPa) = 82.47899 165.91764 109.45048
#
# Poissons Ratio (x) = 0.36115 0.55576
# Poissons Ratio (y) = 0.17953 0.09612
# Poissons Ratio (z) = 0.41881 0.14571
#
# Static dielectric constant tensor:
#      x y z
#    x 1.807200 0.000000 0.000000 
#    y 0.000000 1.688980 0.000000 
#    z 0.000000 0.000000 1.857380 
# 
# From -- ./inp_files/55004.got.cif
#   From: 2010.05.17/outbox.cif.g08.bks.cpg/sg68_28_cif.got.tgz:55004.got - 2010.06.03 18:57:09.
