data_PCOD9506520
_publ_section_title
;
Structure prediction by ZEFSAII (Michael W. Deem and Ramdas Pophale) SiO2 
 PCOD9506520
Probable space group: C C C A
;
_chemical_formula_sum "Si O2"
_cell_formula_units_Z 88
_cell_length_a 9.554239
_cell_length_b 18.081989
_cell_length_c 21.625608
_cell_angle_alpha 90.000000
_cell_angle_beta 90.000000
_cell_angle_gamma 90.000000
_cell_volume 3736.032350
_symmetry_space_group_name_H-M "C C C A"
_symmetry_group_IT_number 68
_space_group.IT_coordinate_system_code '2'
_symmetry_cell_setting 'orthorhombic'
loop_
_space_group_symop_operation_xyz
x,y,z
-x,1/2-y,z
x,1/2-y,1/2-z
-x,y,1/2-z
-x,-y,-z
x,1/2+y,-z
-x,1/2+y,1/2+z
x,-y,1/2+z
1/2+x,1/2+y,z
1/2-x,-y,z
1/2+x,-y,1/2-z
1/2-x,1/2+y,1/2-z
1/2-x,1/2-y,-z
1/2+x,y,-z
1/2-x,y,1/2+z
1/2+x,1/2-y,1/2+z
loop_
_atom_site_type_symbol
_atom_site_label
_atom_site_fract_x
_atom_site_fract_y
_atom_site_fract_z
Si Si1 0.750000 0.000000 0.554683
Si Si2 0.298034 0.297325 0.617043
Si Si3 0.466054 0.388064 0.119800
Si Si4 0.595458 0.360532 0.618096
Si Si5 0.193325 0.859686 0.016442
Si Si6 0.606650 0.994892 0.297532
O O1 0.634109 0.952939 0.591705
O O2 0.829300 0.940003 0.513433
O O3 0.148893 0.327187 0.638218
O O4 0.431912 0.348452 0.631291
O O5 0.330999 0.215249 0.640440
O O6 0.303418 0.303714 0.541540
O O7 0.575960 0.353949 0.070013
O O8 0.548802 0.428896 0.174580
O O9 0.652802 0.362665 0.547999
O O10 0.637421 0.437361 0.648042
O O11 0.500000 0.960870 0.250000
O O12 0.750000 0.000000 0.260889
#
# Coordination Sequence:
#
# PCOD9506520 Si02
#       6
#     8  16  16  16  16  16
#     4  10  20  32  60  94 138 180 212 266 336 408
#     4  10  23  38  66  97 143 184 210 258 342 428
#     4  11  22  40  63  98 135 173 226 281 331 405
#     4  11  23  43  62  99 140 178 226 274 332 412
#     4  11  19  36  60  99 142 181 224 261 332 410
#     4  12  27  47  73  96 125 173 238 303 351 390
#
# _framework density 23.554399
#
# number of rings (size 3 to 8) (size 9 to 14) (size 15 to 20)
#    0.000    1.091    1.818    6.545    3.818    2.182 
#    0.000    1.818    0.000    1.091    0.000    0.000 
#    0.000    0.000    0.000    0.000    0.000    0.000 
#
# Total GULP energy -245773.746175 kJ/mol
# GULP energy per Si atom -5585.766959 kJ/mol
# Density = 2.350079 g / cm^3
# Si number density = 23.554399 Si / 1000 Ang^3
#
#
#
# Elastic Constant Matrix: (Units=GPa)
#
#
# Indices 1 2 3 4 5 6 
#
# 1 140.2416 19.4988 13.9608 0.0000 0.0000 0.0000
# 2 19.4988 71.3795 5.1469 0.0000 0.0000 0.0000
# 3 13.9608 5.1469 27.7313 0.0000 0.0000 0.0000
# 4 0.0000 0.0000 0.0000 -2.9172 0.0000 0.0000
# 5 0.0000 0.0000 0.0000 0.0000 26.8138 0.0000
# 6 0.0000 0.0000 0.0000 0.0000 0.0000 27.4418
#
#
#
# Elastic Compliance Matrix: (Units=1/GPa)
#
#
# Indices 1 2 3 4 5 6 
#
# 1 0.007743 -0.001859 -0.003553 0.000000 0.000000 0.000000
# 2 -0.001859 0.014646 -0.001782 0.000000 0.000000 0.000000
# 3 -0.003553 -0.001782 0.038180 0.000000 0.000000 0.000000
# 4 0.000000 0.000000 0.000000 -0.342795 0.000000 0.000000
# 5 0.000000 0.000000 0.000000 0.000000 0.037294 0.000000
# 6 0.000000 0.000000 0.000000 0.000000 0.000000 0.036441
#
#
# Mechanical properties :
#
#
# Convention : Reuss Voigt Hill
#
# Bulk Modulus (GPa) = 21.65441 35.17394 28.41417
# Shear Modulus (GPa) = -27.97838 23.65074 -2.16382
#
# Velocity S-wave (km/s) = -3.45021 3.17218 -0.95950
# Velocity P-wave (km/s) = 2.58044 5.32751 3.29574
#
# Compressibility (1/GPa) = 0.04617997
#
# Stress axis : x y z
#
# Youngs Moduli (GPa) = 129.15400 68.27832 26.19184
#
# Poissons Ratio (x) = 0.12692 0.09306
# Poissons Ratio (y) = 0.24008 0.04669
# Poissons Ratio (z) = 0.45887 0.12170
#
# Static dielectric constant tensor:
#      x y z
#    x 2.038240 0.000000 0.000000 
#    y 0.000000 1.916320 0.000000 
#    z 0.000000 0.000000 1.871430 
# 
# From -- ./inp_files/43155.got.cif
#   From: 2010.05.17/outbox.cif.g08.bks.cpg/sg68_22_cif.got.tgz:43155.got - 2010.06.03 18:57:09.
