data_PCOD9506187
_publ_section_title
;
Structure prediction by ZEFSAII (Michael W. Deem and Ramdas Pophale) SiO2 
 PCOD9506187
Probable space group: C C C A
;
_chemical_formula_sum "Si O2"
_cell_formula_units_Z 88
_cell_length_a 14.069567
_cell_length_b 30.191923
_cell_length_c 10.762946
_cell_angle_alpha 90.000000
_cell_angle_beta 90.000000
_cell_angle_gamma 90.000000
_cell_volume 4571.962594
_symmetry_space_group_name_H-M "C C C A"
_symmetry_group_IT_number 68
_space_group.IT_coordinate_system_code '2'
_symmetry_cell_setting 'orthorhombic'
loop_
_space_group_symop_operation_xyz
x,y,z
-x,1/2-y,z
x,1/2-y,1/2-z
-x,y,1/2-z
-x,-y,-z
x,1/2+y,-z
-x,1/2+y,1/2+z
x,-y,1/2+z
1/2+x,1/2+y,z
1/2-x,-y,z
1/2+x,-y,1/2-z
1/2-x,1/2+y,1/2-z
1/2-x,1/2-y,-z
1/2+x,y,-z
1/2-x,y,1/2+z
1/2+x,1/2-y,1/2+z
loop_
_atom_site_type_symbol
_atom_site_label
_atom_site_fract_x
_atom_site_fract_y
_atom_site_fract_z
Si Si1 0.062644 0.496071 0.626438
Si Si2 0.377755 0.086745 0.934837
Si Si3 0.457921 0.898154 0.876821
Si Si4 0.783066 0.655928 0.449299
Si Si5 0.190558 0.199399 0.205641
Si Si6 0.000000 0.648074 0.750000
O O1 0.135487 0.536828 0.613747
O O2 0.096610 0.445291 0.638886
O O3 0.000000 0.504390 0.750000
O O4 0.000000 0.500000 0.500000
O O5 0.283652 0.113204 0.967768
O O6 0.440333 0.115370 0.838216
O O7 0.447644 0.087768 0.051271
O O8 0.500000 0.879656 0.750000
O O9 0.389870 0.862735 0.940302
O O10 0.769986 0.688619 0.567184
O O11 0.750449 0.675528 0.316004
O O12 0.188165 0.250000 0.250000
O O13 0.083730 0.179717 0.200664
#
# Coordination Sequence:
#
# PCOD9506187 Si02
#       6
#    16  16  16  16  16   8
#     4   9  18  31  54  81 119 162 197 241 286 341
#     4  10  19  35  58  85 118 157 202 237 291 356
#     4  10  20  37  56  86 126 160 198 247 301 353
#     4  11  23  37  64  88 118 158 201 249 312 365
#     4  11  23  41  61  89 116 153 201 259 311 373
#     4  10  19  36  64  80 110 158 204 240 295 372
#
# _framework density 19.247751000000001
#
# number of rings (size 3 to 8) (size 9 to 14) (size 15 to 20)
#    0.000    1.818    2.727    1.909    0.000    0.727 
#    0.000    0.000    0.000    9.818    0.000    0.000 
#    0.000    0.000    0.000    0.000    0.000    0.000 
#
# Total GULP energy -244936.238432 kJ/mol
# GULP energy per Si atom -5566.732692 kJ/mol
# Density = 1.920394 g / cm^3
# Si number density = 19.247751 Si / 1000 Ang^3
#
#
#
# Elastic Constant Matrix: (Units=GPa)
#
#
# Indices 1 2 3 4 5 6 
#
# 1 33.1353 3.1070 24.2985 0.0000 0.0000 0.0000
# 2 3.1070 87.5352 32.2928 0.0000 0.0000 0.0000
# 3 24.2985 32.2928 113.6919 0.0000 0.0000 0.0000
# 4 0.0000 0.0000 0.0000 30.4643 0.0000 0.0000
# 5 0.0000 0.0000 0.0000 0.0000 18.2725 0.0000
# 6 0.0000 0.0000 0.0000 0.0000 0.0000 20.5110
#
#
#
# Elastic Compliance Matrix: (Units=1/GPa)
#
#
# Indices 1 2 3 4 5 6 
#
# 1 0.036025 0.001745 -0.008195 0.000000 0.000000 0.000000
# 2 0.001745 0.012846 -0.004021 0.000000 0.000000 0.000000
# 3 -0.008195 -0.004021 0.011689 0.000000 0.000000 0.000000
# 4 0.000000 0.000000 0.000000 0.032825 0.000000 0.000000
# 5 0.000000 0.000000 0.000000 0.000000 0.054727 0.000000
# 6 0.000000 0.000000 0.000000 0.000000 0.000000 0.048754
#
#
# Mechanical properties :
#
#
# Convention : Reuss Voigt Hill
#
# Bulk Modulus (GPa) = 25.24206 39.30654 32.27430
# Shear Modulus (GPa) = 21.64355 25.49386 23.56871
#
# Velocity S-wave (km/s) = 3.35695 3.64333 3.50307
# Velocity P-wave (km/s) = 5.30738 6.17772 5.75901
#
# Compressibility (1/GPa) = 0.03961642
#
# Stress axis : x y z
#
# Youngs Moduli (GPa) = 27.75845 77.84751 85.54781
#
# Poissons Ratio (x) = -0.13581 0.70105
# Poissons Ratio (y) = -0.04843 0.34403
# Poissons Ratio (z) = 0.22748 0.31306
#
# Static dielectric constant tensor:
#      x y z
#    x 1.646750 0.000000 0.000000 
#    y 0.000000 1.705000 0.000000 
#    z 0.000000 0.000000 1.697460 
# 
# From -- ./inp_files/13452.got.cif
#   From: 2010.05.17/outbox.cif.g08.bks.cpg/sg68_7_cif.got.tgz:13452.got - 2010.06.03 18:57:09.
