data_PCOD9506671
_publ_section_title
;
Structure prediction by ZEFSAII (Michael W. Deem and Ramdas Pophale) SiO2 
 PCOD9506671
Probable space group: C C C A
;
_chemical_formula_sum "Si O2"
_cell_formula_units_Z 64
_cell_length_a 14.358991
_cell_length_b 10.137881
_cell_length_c 20.565639
_cell_angle_alpha 90.000000
_cell_angle_beta 90.000000
_cell_angle_gamma 90.000000
_cell_volume 2993.734764
_symmetry_space_group_name_H-M "C C C A"
_symmetry_group_IT_number 68
_space_group.IT_coordinate_system_code '2'
_symmetry_cell_setting 'orthorhombic'
loop_
_space_group_symop_operation_xyz
x,y,z
-x,1/2-y,z
x,1/2-y,1/2-z
-x,y,1/2-z
-x,-y,-z
x,1/2+y,-z
-x,1/2+y,1/2+z
x,-y,1/2+z
1/2+x,1/2+y,z
1/2-x,-y,z
1/2+x,-y,1/2-z
1/2-x,1/2+y,1/2-z
1/2-x,1/2-y,-z
1/2+x,y,-z
1/2-x,y,1/2+z
1/2+x,1/2-y,1/2+z
loop_
_atom_site_type_symbol
_atom_site_label
_atom_site_fract_x
_atom_site_fract_y
_atom_site_fract_z
Si Si1 0.650682 0.940443 0.286004
Si Si2 0.135547 0.007868 0.575554
Si Si3 0.856822 0.273925 0.479076
Si Si4 0.598935 0.176085 0.659355
O O1 0.606848 0.012205 0.348825
O O2 0.665811 0.793618 0.315680
O O3 0.598053 0.927693 0.217673
O O4 0.750000 0.000000 0.270878
O O5 0.104729 0.870873 0.540687
O O6 0.250000 0.000000 0.575950
O O7 0.103442 0.135738 0.536311
O O8 0.750000 0.250000 0.500000
O O9 0.868120 0.358643 0.412543
O O10 0.500000 0.250000 0.657552
#
# Coordination Sequence:
#
# PCOD9506671 Si02
#       4
#    16  16  16  16
#     4   9  17  31  52  79 109 147 193 238 280 342
#     4   8  15  28  48  75 108 143 184 236 282 332
#     4   9  17  31  52  78 111 151 194 238 289 353
#     4  10  20  35  56  84 116 152 194 244 300 355
#
# _framework density 21.377980000000001
#
# number of rings (size 3 to 8) (size 9 to 14) (size 15 to 20)
#    0.000    3.000    0.000    3.000    0.000    3.000 
#    0.000    5.000    0.000    3.000    0.000   24.500 
#    0.000    0.000    0.000    0.000    0.000    0.000 
#
# Total GULP energy -178159.768381 kJ/mol
# GULP energy per Si atom -5567.492762 kJ/mol
# Density = 2.132932 g / cm^3
# Si number density = 21.377980 Si / 1000 Ang^3
#
#
#
# Elastic Constant Matrix: (Units=GPa)
#
#
# Indices 1 2 3 4 5 6 
#
# 1 63.8032 21.9829 47.1492 0.0000 0.0000 0.0000
# 2 21.9829 59.0685 47.0466 0.0000 0.0000 0.0000
# 3 47.1492 47.0466 219.9216 0.0000 0.0000 0.0000
# 4 0.0000 0.0000 0.0000 36.8311 0.0000 0.0000
# 5 0.0000 0.0000 0.0000 0.0000 21.3064 0.0000
# 6 0.0000 0.0000 0.0000 0.0000 0.0000 16.9812
#
#
#
# Elastic Compliance Matrix: (Units=1/GPa)
#
#
# Indices 1 2 3 4 5 6 
#
# 1 0.019682 -0.004778 -0.003198 0.000000 0.000000 0.000000
# 2 -0.004778 0.021566 -0.003589 0.000000 0.000000 0.000000
# 3 -0.003198 -0.003589 0.006000 0.000000 0.000000 0.000000
# 4 0.000000 0.000000 0.000000 0.027151 0.000000 0.000000
# 5 0.000000 0.000000 0.000000 0.000000 0.046934 0.000000
# 6 0.000000 0.000000 0.000000 0.000000 0.000000 0.058889
#
#
# Mechanical properties :
#
#
# Convention : Reuss Voigt Hill
#
# Bulk Modulus (GPa) = 41.46045 63.90561 52.68303
# Shear Modulus (GPa) = 23.65263 30.13137 26.89200
#
# Velocity S-wave (km/s) = 3.32987 3.75835 3.55058
# Velocity P-wave (km/s) = 5.84980 6.98510 6.44251
#
# Compressibility (1/GPa) = 0.02411937
#
# Stress axis : x y z
#
# Youngs Moduli (GPa) = 50.80679 46.36834 166.65516
#
# Poissons Ratio (x) = 0.22156 0.53289
# Poissons Ratio (y) = 0.24277 0.59816
# Poissons Ratio (z) = 0.16246 0.16642
#
# Static dielectric constant tensor:
#      x y z
#    x 1.853770 0.000000 0.000000 
#    y 0.000000 1.824190 0.000000 
#    z 0.000000 0.000000 1.843440 
# 
# From -- ./inp_files/37133.got.cif
#   From: 2010.05.17/outbox.cif.g08.bks.cpg/sg68_19_cif.got.tgz:37133.got - 2010.06.03 18:57:09.
