data_PCOD9506076
_publ_section_title
;
Structure prediction by ZEFSAII (Michael W. Deem and Ramdas Pophale) SiO2 
 PCOD9506076
Probable space group: C C C A
;
_chemical_formula_sum "Si O2"
_cell_formula_units_Z 80
_cell_length_a 15.044135
_cell_length_b 8.725243
_cell_length_c 26.923989
_cell_angle_alpha 90.000000
_cell_angle_beta 90.000000
_cell_angle_gamma 90.000000
_cell_volume 3534.143320
_symmetry_space_group_name_H-M "C C C A"
_symmetry_group_IT_number 68
_space_group.IT_coordinate_system_code '2'
_symmetry_cell_setting 'orthorhombic'
loop_
_space_group_symop_operation_xyz
x,y,z
-x,1/2-y,z
x,1/2-y,1/2-z
-x,y,1/2-z
-x,-y,-z
x,1/2+y,-z
-x,1/2+y,1/2+z
x,-y,1/2+z
1/2+x,1/2+y,z
1/2-x,-y,z
1/2+x,-y,1/2-z
1/2-x,1/2+y,1/2-z
1/2-x,1/2-y,-z
1/2+x,y,-z
1/2-x,y,1/2+z
1/2+x,1/2-y,1/2+z
loop_
_atom_site_type_symbol
_atom_site_label
_atom_site_fract_x
_atom_site_fract_y
_atom_site_fract_z
Si Si1 0.917410 0.369537 0.336974
Si Si2 0.653314 0.083140 0.960931
Si Si3 0.849979 0.942665 0.560191
Si Si4 0.649184 0.432553 0.247427
Si Si5 0.651674 0.563110 0.146928
O O1 0.907960 0.450872 0.390031
O O2 0.903087 0.482164 0.291400
O O3 0.000000 0.250000 0.334208
O O4 0.839108 0.242058 0.339179
O O5 0.659376 0.266113 0.957014
O O6 0.750000 0.000000 0.962776
O O7 0.610540 0.040580 0.907687
O O8 0.611692 0.034908 0.013177
O O9 0.750000 0.000000 0.571751
O O10 0.649904 0.250000 0.250000
O O11 0.750000 0.500000 0.249314
O O12 0.609324 0.479688 0.193848
O O13 0.750000 0.500000 0.142145
#
# Coordination Sequence:
#
# PCOD9506076 Si02
#       5
#    16  16  16  16  16
#     4  11  24  41  60  89 129 169 207 258 319 377
#     4   9  17  30  54  87 116 150 204 262 308 360
#     4  10  19  33  58  87 118 163 213 258 311 372
#     4  11  22  38  66  96 120 158 210 264 319 382
#     4   9  19  37  59  85 118 157 202 253 310 372
#
# _framework density 22.636320999999999
#
# number of rings (size 3 to 8) (size 9 to 14) (size 15 to 20)
#    0.000    2.000    0.000    6.000    0.000    8.000 
#    0.000    6.000    0.000    0.000    0.000    0.000 
#    0.000    0.000    0.000    0.000    0.000    0.200 
#
# Total GULP energy -223250.954278 kJ/mol
# GULP energy per Si atom -5581.273857 kJ/mol
# Density = 2.258480 g / cm^3
# Si number density = 22.636321 Si / 1000 Ang^3
#
#
#
# Elastic Constant Matrix: (Units=GPa)
#
#
# Indices 1 2 3 4 5 6 
#
# 1 80.8657 23.5070 37.6232 0.0000 0.0000 0.0000
# 2 23.5070 110.9571 77.9041 0.0000 0.0000 0.0000
# 3 37.6232 77.9041 223.0705 0.0000 0.0000 0.0000
# 4 0.0000 0.0000 0.0000 40.7435 0.0000 0.0000
# 5 0.0000 0.0000 0.0000 0.0000 -12.0053 0.0000
# 6 0.0000 0.0000 0.0000 0.0000 0.0000 16.7052
#
#
#
# Elastic Compliance Matrix: (Units=1/GPa)
#
#
# Indices 1 2 3 4 5 6 
#
# 1 0.013654 -0.001690 -0.001713 0.000000 0.000000 0.000000
# 2 -0.001690 0.012150 -0.003958 0.000000 0.000000 0.000000
# 3 -0.001713 -0.003958 0.006154 0.000000 0.000000 0.000000
# 4 0.000000 0.000000 0.000000 0.024544 0.000000 0.000000
# 5 0.000000 0.000000 0.000000 0.000000 -0.083297 0.000000
# 6 0.000000 0.000000 0.000000 0.000000 0.000000 0.059861
#
#
# Mechanical properties :
#
#
# Convention : Reuss Voigt Hill
#
# Bulk Modulus (GPa) = 58.01784 76.99575 67.50679
# Shear Modulus (GPa) = 93.39906 27.47930 60.43918
#
# Velocity S-wave (km/s) = 6.43042 3.48795 5.17282
# Velocity P-wave (km/s) = 8.98998 7.09290 8.09719
#
# Compressibility (1/GPa) = 0.01723608
#
# Stress axis : x y z
#
# Youngs Moduli (GPa) = 73.23673 82.30785 162.49603
#
# Poissons Ratio (x) = 0.13913 0.27830
# Poissons Ratio (y) = 0.12379 0.64315
# Poissons Ratio (z) = 0.12543 0.32577
#
# Static dielectric constant tensor:
#      x y z
#    x 1.937630 0.000000 0.000000 
#    y 0.000000 1.815510 0.000000 
#    z 0.000000 0.000000 1.914170 
# 
# From -- ./inp_files/51299.got.cif
#   From: 2010.05.17/outbox.cif.g08.bks.cpg/sg68_26_cif.got.tgz:51299.got - 2010.06.03 18:57:09.
