data_PCOD9506778
_publ_section_title
;
Structure prediction by ZEFSAII (Michael W. Deem and Ramdas Pophale) SiO2 
 PCOD9506778
Probable space group: C C C A
;
_chemical_formula_sum "Si O2"
_cell_formula_units_Z 64
_cell_length_a 8.828228
_cell_length_b 16.049278
_cell_length_c 21.207755
_cell_angle_alpha 90.000000
_cell_angle_beta 90.000000
_cell_angle_gamma 90.000000
_cell_volume 3004.856511
_symmetry_space_group_name_H-M "C C C A"
_symmetry_group_IT_number 68
_space_group.IT_coordinate_system_code '2'
_symmetry_cell_setting 'orthorhombic'
loop_
_space_group_symop_operation_xyz
x,y,z
-x,1/2-y,z
x,1/2-y,1/2-z
-x,y,1/2-z
-x,-y,-z
x,1/2+y,-z
-x,1/2+y,1/2+z
x,-y,1/2+z
1/2+x,1/2+y,z
1/2-x,-y,z
1/2+x,-y,1/2-z
1/2-x,1/2+y,1/2-z
1/2-x,1/2-y,-z
1/2+x,y,-z
1/2-x,y,1/2+z
1/2+x,1/2-y,1/2+z
loop_
_atom_site_type_symbol
_atom_site_label
_atom_site_fract_x
_atom_site_fract_y
_atom_site_fract_z
Si Si1 0.637712 0.920906 0.445698
Si Si2 0.631289 0.577532 0.198056
Si Si3 0.071916 0.158431 0.689204
Si Si4 0.438327 0.843501 0.549760
O O1 0.574743 0.924712 0.374461
O O2 0.512645 0.902713 0.497779
O O3 0.756948 0.844926 0.453098
O O4 0.750000 0.000000 0.454400
O O5 0.500000 0.580493 0.250000
O O6 0.750000 0.500000 0.205556
O O7 0.748185 0.655495 0.199578
O O8 0.031319 0.122455 0.620795
O O9 0.000000 0.250000 0.687081
O O10 0.000000 0.114936 0.750000
O O11 0.500000 0.750000 0.544071
#
# Coordination Sequence:
#
# PCOD9506778 Si02
#       4
#    16  16  16  16
#     4  10  21  37  57  87 119 148 192 242 290 351
#     4  10  21  38  60  87 119 157 201 245 294 355
#     4   9  19  37  58  82 116 155 195 244 297 349
#     4  10  20  36  58  82 115 155 191 235 290 350
#
# _framework density 21.298853999999999
#
# number of rings (size 3 to 8) (size 9 to 14) (size 15 to 20)
#    0.000    2.250    0.000    2.250    0.000    2.000 
#    0.000   10.000    0.000    0.000    0.000    0.000 
#    0.000    0.000    0.000    0.000    0.000    0.000 
#
# Total GULP energy -178318.091344 kJ/mol
# GULP energy per Si atom -5572.440355 kJ/mol
# Density = 2.125038 g / cm^3
# Si number density = 21.298854 Si / 1000 Ang^3
#
#
#
# Elastic Constant Matrix: (Units=GPa)
#
#
# Indices 1 2 3 4 5 6 
#
# 1 99.5930 33.2489 109.1248 0.0000 0.0000 0.0000
# 2 33.2489 77.5719 26.2165 0.0000 0.0000 0.0000
# 3 109.1248 26.2165 247.4271 0.0000 0.0000 0.0000
# 4 0.0000 0.0000 0.0000 15.5410 0.0000 0.0000
# 5 0.0000 0.0000 0.0000 0.0000 51.1559 0.0000
# 6 0.0000 0.0000 0.0000 0.0000 0.0000 34.8650
#
#
#
# Elastic Compliance Matrix: (Units=1/GPa)
#
#
# Indices 1 2 3 4 5 6 
#
# 1 0.022135 -0.006418 -0.009082 0.000000 0.000000 0.000000
# 2 -0.006418 0.015231 0.001217 0.000000 0.000000 0.000000
# 3 -0.009082 0.001217 0.007918 0.000000 0.000000 0.000000
# 4 0.000000 0.000000 0.000000 0.064346 0.000000 0.000000
# 5 0.000000 0.000000 0.000000 0.000000 0.019548 0.000000
# 6 0.000000 0.000000 0.000000 0.000000 0.000000 0.028682
#
#
# Mechanical properties :
#
#
# Convention : Reuss Voigt Hill
#
# Bulk Modulus (GPa) = 59.81898 84.64140 72.23019
# Shear Modulus (GPa) = 26.04161 37.37917 31.71039
#
# Velocity S-wave (km/s) = 3.50047 4.19380 3.86272
# Velocity P-wave (km/s) = 6.66965 7.95467 7.34033
#
# Compressibility (1/GPa) = 0.01671710
#
# Stress axis : x y z
#
# Youngs Moduli (GPa) = 45.17685 65.65579 126.28857
#
# Poissons Ratio (x) = 0.42138 1.14701
# Poissons Ratio (y) = 0.28995 -0.15367
# Poissons Ratio (z) = 0.41032 -0.07989
#
# Static dielectric constant tensor:
#      x y z
#    x 1.819820 0.000000 0.000000 
#    y 0.000000 1.907440 0.000000 
#    z 0.000000 0.000000 1.816870 
# 
# From -- ./inp_files/35736.got.cif
#   From: 2010.05.17/outbox.cif.g08.bks.cpg/sg68_18_cif.got.tgz:35736.got - 2010.06.03 18:57:09.
