data_PCOD9506152
_publ_section_title
;
Structure prediction by ZEFSAII (Michael W. Deem and Ramdas Pophale) SiO2 
 PCOD9506152
Probable space group: C C C A
;
_chemical_formula_sum "Si O2"
_cell_formula_units_Z 56
_cell_length_a 13.672063
_cell_length_b 5.261266
_cell_length_c 26.997171
_cell_angle_alpha 90.000000
_cell_angle_beta 90.000000
_cell_angle_gamma 90.000000
_cell_volume 1941.970229
_symmetry_space_group_name_H-M "C C C A"
_symmetry_group_IT_number 68
_space_group.IT_coordinate_system_code '2'
_symmetry_cell_setting 'orthorhombic'
loop_
_space_group_symop_operation_xyz
x,y,z
-x,1/2-y,z
x,1/2-y,1/2-z
-x,y,1/2-z
-x,-y,-z
x,1/2+y,-z
-x,1/2+y,1/2+z
x,-y,1/2+z
1/2+x,1/2+y,z
1/2-x,-y,z
1/2+x,-y,1/2-z
1/2-x,1/2+y,1/2-z
1/2-x,1/2-y,-z
1/2+x,y,-z
1/2-x,y,1/2+z
1/2+x,1/2-y,1/2+z
loop_
_atom_site_type_symbol
_atom_site_label
_atom_site_fract_x
_atom_site_fract_y
_atom_site_fract_z
Si Si1 0.134345 0.948068 0.649759
Si Si2 0.750000 0.000000 0.538666
Si Si3 0.106196 0.125287 0.551603
Si Si4 0.134840 0.567221 0.202665
O O1 0.104292 0.902662 0.592351
O O2 0.101625 0.716138 0.685290
O O3 0.098977 0.232205 0.661869
O O4 0.250000 0.000000 0.657745
O O5 0.839172 0.932943 0.500695
O O6 0.693922 0.803011 0.572294
O O7 0.000000 0.250000 0.544909
O O8 0.112335 0.750000 0.250000
O O9 0.250000 0.500000 0.207521
#
# Coordination Sequence:
#
# PCOD9506152 Si02
#       4
#    16   8  16  16
#     4  10  21  36  63  98 150 191 248 323 375 453
#     4  10  24  42  70 100 158 210 256 334 382 460
#     4  11  23  42  68 106 153 205 265 318 392 465
#     4  10  19  34  62 101 144 191 243 308 384 461
#
# _framework density 28.836694999999999
#
# number of rings (size 3 to 8) (size 9 to 14) (size 15 to 20)
#    0.000    1.714    1.429    4.286    6.000    0.000 
#    0.000    7.143    0.000    0.857    0.000   20.000 
#    0.000    0.000    0.000    0.000    0.000    0.000 
#
# Total GULP energy -155932.073267 kJ/mol
# GULP energy per Si atom -5569.002617 kJ/mol
# Density = 2.877106 g / cm^3
# Si number density = 28.836695 Si / 1000 Ang^3
#
#
#
# Elastic Constant Matrix: (Units=GPa)
#
#
# Indices 1 2 3 4 5 6 
#
# 1 234.5453 41.7266 32.4410 0.0000 0.0000 0.0000
# 2 41.7266 183.3121 51.6078 0.0000 0.0000 0.0000
# 3 32.4410 51.6078 166.7736 0.0000 0.0000 0.0000
# 4 0.0000 0.0000 0.0000 12.8707 0.0000 0.0000
# 5 0.0000 0.0000 0.0000 0.0000 83.3056 0.0000
# 6 0.0000 0.0000 0.0000 0.0000 0.0000 -2.9221
#
#
#
# Elastic Compliance Matrix: (Units=1/GPa)
#
#
# Indices 1 2 3 4 5 6 
#
# 1 0.004500 -0.000852 -0.000612 0.000000 0.000000 0.000000
# 2 -0.000852 0.006137 -0.001733 0.000000 0.000000 0.000000
# 3 -0.000612 -0.001733 0.006652 0.000000 0.000000 0.000000
# 4 0.000000 0.000000 0.000000 0.077696 0.000000 0.000000
# 5 0.000000 0.000000 0.000000 0.000000 0.012004 0.000000
# 6 0.000000 0.000000 0.000000 0.000000 0.000000 -0.342218
#
#
# Mechanical properties :
#
#
# Convention : Reuss Voigt Hill
#
# Bulk Modulus (GPa) = 91.79154 92.90909 92.35031
# Shear Modulus (GPa) = -22.20206 49.24123 13.51958
#
# Velocity S-wave (km/s) = -2.77776 4.13678 2.16760
# Velocity P-wave (km/s) = 4.64894 7.42336 6.19350
#
# Compressibility (1/GPa) = 0.01089425
#
# Stress axis : x y z
#
# Youngs Moduli (GPa) = 222.23452 162.94272 150.34168
#
# Poissons Ratio (x) = 0.13884 0.09195
# Poissons Ratio (y) = 0.18936 0.26060
# Poissons Ratio (z) = 0.13592 0.28244
#
# Static dielectric constant tensor:
#      x y z
#    x 2.273950 0.000000 0.000000 
#    y 0.000000 2.705230 0.000000 
#    z 0.000000 0.000000 2.365110 
# 
# From -- ./inp_files/49901.got.cif
#   From: 2010.05.17/outbox.cif.g08.bks.cpg/sg68_25_cif.got.tgz:49901.got - 2010.06.03 18:57:09.
