data_PCOD9506108
_publ_section_title
;
Structure prediction by ZEFSAII (Michael W. Deem and Ramdas Pophale) SiO2 
 PCOD9506108
Probable space group: C C C A
;
_chemical_formula_sum "Si O2"
_cell_formula_units_Z 64
_cell_length_a 27.342691
_cell_length_b 24.519906
_cell_length_c 5.246046
_cell_angle_alpha 90.000000
_cell_angle_beta 90.000000
_cell_angle_gamma 90.000000
_cell_volume 3517.160198
_symmetry_space_group_name_H-M "C C C A"
_symmetry_group_IT_number 68
_space_group.IT_coordinate_system_code '2'
_symmetry_cell_setting 'orthorhombic'
loop_
_space_group_symop_operation_xyz
x,y,z
-x,1/2-y,z
x,1/2-y,1/2-z
-x,y,1/2-z
-x,-y,-z
x,1/2+y,-z
-x,1/2+y,1/2+z
x,-y,1/2+z
1/2+x,1/2+y,z
1/2-x,-y,z
1/2+x,-y,1/2-z
1/2-x,1/2+y,1/2-z
1/2-x,1/2-y,-z
1/2+x,y,-z
1/2-x,y,1/2+z
1/2+x,1/2-y,1/2+z
loop_
_atom_site_type_symbol
_atom_site_label
_atom_site_fract_x
_atom_site_fract_y
_atom_site_fract_z
Si Si1 0.944015 0.356324 0.274879
Si Si2 0.279154 0.183596 0.246844
Si Si3 0.392173 0.815241 0.778246
Si Si4 0.055309 0.020683 0.067555
O O1 0.924135 0.343877 0.556852
O O2 0.944120 0.419842 0.191885
O O3 0.000000 0.337084 0.250000
O O4 0.911194 0.328075 0.060357
O O5 0.279151 0.250000 0.250000
O O6 0.249814 0.165655 0.496423
O O7 0.335760 0.167257 0.248440
O O8 0.395132 0.750000 0.750000
O O9 0.078126 0.982060 0.285425
O O10 0.000000 0.000000 0.000000
#
# Coordination Sequence:
#
# PCOD9506108 Si02
#       4
#    16  16  16  16
#     4  12  23  35  55  77 112 157 185 218 268 324
#     4   9  17  33  56  75  98 137 181 232 280 302
#     4  11  24  37  51  80 117 149 189 221 252 334
#     4  10  19  34  56  76  98 136 179 245 280 298
#
# _framework density 18.1965
#
# number of rings (size 3 to 8) (size 9 to 14) (size 15 to 20)
#    0.000    1.500    2.500    4.500    3.500    7.000 
#    0.000    0.000    0.000    0.000    0.000    0.000 
#    0.000   70.000    0.000    0.000    0.000    0.000 
#
# Total GULP energy -178445.219721 kJ/mol
# GULP energy per Si atom -5576.413116 kJ/mol
# Density = 1.815508 g / cm^3
# Si number density = 18.196500 Si / 1000 Ang^3
#
#
#
# Elastic Constant Matrix: (Units=GPa)
#
#
# Indices 1 2 3 4 5 6 
#
# 1 84.7294 -8.8386 7.8244 0.0000 0.0000 0.0000
# 2 -8.8386 44.5817 -11.6054 0.0000 0.0000 0.0000
# 3 7.8244 -11.6054 105.6037 0.0000 0.0000 0.0000
# 4 0.0000 0.0000 0.0000 31.0281 0.0000 0.0000
# 5 0.0000 0.0000 0.0000 0.0000 31.7269 0.0000
# 6 0.0000 0.0000 0.0000 0.0000 0.0000 -24.9069
#
#
#
# Elastic Compliance Matrix: (Units=1/GPa)
#
#
# Indices 1 2 3 4 5 6 
#
# 1 0.012095 0.002228 -0.000651 0.000000 0.000000 0.000000
# 2 0.002228 0.023502 0.002418 0.000000 0.000000 0.000000
# 3 -0.000651 0.002418 0.009783 0.000000 0.000000 0.000000
# 4 0.000000 0.000000 0.000000 0.032229 0.000000 0.000000
# 5 0.000000 0.000000 0.000000 0.000000 0.031519 0.000000
# 6 0.000000 0.000000 0.000000 0.000000 0.000000 -0.040150
#
#
# Mechanical properties :
#
#
# Convention : Reuss Voigt Hill
#
# Bulk Modulus (GPa) = 18.73728 23.29729 21.01728
# Shear Modulus (GPa) = 63.46903 24.07194 43.77049
#
# Velocity S-wave (km/s) = 5.91232 3.64110 4.90984
# Velocity P-wave (km/s) = 7.54499 5.52338 6.61191
#
# Compressibility (1/GPa) = 0.05336955
#
# Stress axis : x y z
#
# Youngs Moduli (GPa) = 82.67974 42.54980 102.21490
#
# Poissons Ratio (x) = -0.09482 0.06657
# Poissons Ratio (y) = -0.18424 -0.24712
# Poissons Ratio (z) = 0.05385 -0.10287
#
# Static dielectric constant tensor:
#      x y z
#    x 1.634160 0.000000 0.000000 
#    y 0.000000 1.659540 0.000000 
#    z 0.000000 0.000000 1.689080 
# 
# From -- ./inp_files/1791.got.cif
#   From: 2010.05.17/outbox.cif.g08.bks.cpg/sg68_1_cif.got.tgz:1791.got - 2010.06.03 18:57:09.
