data_PCOD9506121
_publ_section_title
;
Structure prediction by ZEFSAII (Michael W. Deem and Ramdas Pophale) SiO2 
 PCOD9506121
Probable space group: C C C A
;
_chemical_formula_sum "Si O2"
_cell_formula_units_Z 104
_cell_length_a 12.099539
_cell_length_b 19.988514
_cell_length_c 24.144182
_cell_angle_alpha 90.000000
_cell_angle_beta 90.000000
_cell_angle_gamma 90.000000
_cell_volume 5839.313990
_symmetry_space_group_name_H-M "C C C A"
_symmetry_group_IT_number 68
_space_group.IT_coordinate_system_code '2'
_symmetry_cell_setting 'orthorhombic'
loop_
_space_group_symop_operation_xyz
x,y,z
-x,1/2-y,z
x,1/2-y,1/2-z
-x,y,1/2-z
-x,-y,-z
x,1/2+y,-z
-x,1/2+y,1/2+z
x,-y,1/2+z
1/2+x,1/2+y,z
1/2-x,-y,z
1/2+x,-y,1/2-z
1/2-x,1/2+y,1/2-z
1/2-x,1/2-y,-z
1/2+x,y,-z
1/2-x,y,1/2+z
1/2+x,1/2-y,1/2+z
loop_
_atom_site_type_symbol
_atom_site_label
_atom_site_fract_x
_atom_site_fract_y
_atom_site_fract_z
Si Si1 0.191017 0.315661 0.477439
Si Si2 0.865457 0.829161 0.390315
Si Si3 0.758819 0.578026 0.691878
Si Si4 0.231622 0.425492 0.178244
Si Si5 0.500000 0.750000 0.097847
Si Si6 0.126620 0.831426 0.401644
Si Si7 0.502284 0.638516 0.313158
O O1 0.250000 0.250000 0.500000
O O2 0.283077 0.351631 0.440035
O O3 0.154226 0.349767 0.534465
O O4 0.090248 0.287043 0.440456
O O5 0.822386 0.870535 0.338230
O O6 0.852550 0.747976 0.389003
O O7 0.995208 0.842077 0.396763
O O8 0.750000 0.500000 0.674579
O O9 0.733131 0.580083 0.757435
O O10 0.882136 0.605732 0.679123
O O11 0.250000 0.500000 0.157308
O O12 0.298708 0.373894 0.140278
O O13 0.100420 0.414180 0.181789
O O14 0.535717 0.807221 0.140917
O O15 0.500000 0.665836 0.250000
#
# Coordination Sequence:
#
# PCOD9506121 Si02
#       7
#    16  16  16  16   8  16  16
#     4  10  19  34  57  87 116 154 190 234 295 351
#     4  10  20  38  60  88 118 150 194 247 287 350
#     4  10  22  39  60  84 118 159 196 237 300 358
#     4  10  23  40  59  83 118 160 197 242 294 354
#     4  12  19  34  62  88 116 151 182 252 304 334
#     4  10  22  38  60  90 116 153 201 241 290 352
#     4  10  21  36  58  89 116 149 198 243 293 356
#
# _framework density 17.810310999999999
#
# number of rings (size 3 to 8) (size 9 to 14) (size 15 to 20)
#    0.000    1.846    1.538    3.923    2.154    1.231 
#    0.000    2.308    0.000    2.769    0.000    0.000 
#    0.000    0.000    0.000    0.000    0.000    0.000 
#
# Total GULP energy -289589.638492 kJ/mol
# GULP energy per Si atom -5569.031509 kJ/mol
# Density = 1.776977 g / cm^3
# Si number density = 17.810311 Si / 1000 Ang^3
#
#
#
# Elastic Constant Matrix: (Units=GPa)
#
#
# Indices 1 2 3 4 5 6 
#
# 1 106.4313 38.3243 50.6922 0.0000 0.0000 0.0000
# 2 38.3243 61.4551 39.6523 0.0000 0.0000 0.0000
# 3 50.6922 39.6523 94.1989 0.0000 0.0000 0.0000
# 4 0.0000 0.0000 0.0000 6.0886 0.0000 0.0000
# 5 0.0000 0.0000 0.0000 0.0000 32.4047 0.0000
# 6 0.0000 0.0000 0.0000 0.0000 0.0000 12.6946
#
#
#
# Elastic Compliance Matrix: (Units=1/GPa)
#
#
# Indices 1 2 3 4 5 6 
#
# 1 0.013754 -0.005219 -0.005205 0.000000 0.000000 0.000000
# 2 -0.005219 0.024320 -0.007429 0.000000 0.000000 0.000000
# 3 -0.005205 -0.007429 0.016544 0.000000 0.000000 0.000000
# 4 0.000000 0.000000 0.000000 0.164240 0.000000 0.000000
# 5 0.000000 0.000000 0.000000 0.000000 0.030860 0.000000
# 6 0.000000 0.000000 0.000000 0.000000 0.000000 0.078774
#
#
# Mechanical properties :
#
#
# Convention : Reuss Voigt Hill
#
# Bulk Modulus (GPa) = 52.87419 57.71365 55.29392
# Shear Modulus (GPa) = 13.49526 19.13203 16.31364
#
# Velocity S-wave (km/s) = 2.75566 3.28107 3.02978
# Velocity P-wave (km/s) = 6.31480 6.84316 6.58428
#
# Compressibility (1/GPa) = 0.01891282
#
# Stress axis : x y z
#
# Youngs Moduli (GPa) = 72.70652 41.11871 60.44602
#
# Poissons Ratio (x) = 0.21460 0.31460
# Poissons Ratio (y) = 0.37946 0.44903
# Poissons Ratio (z) = 0.37841 0.30546
#
# Static dielectric constant tensor:
#      x y z
#    x 1.811130 0.000000 0.000000 
#    y 0.000000 1.583960 0.000000 
#    z 0.000000 0.000000 1.635370 
# 
# From -- ./inp_files/50312.got.cif
#   From: 2010.05.17/outbox.cif.g08.bks.cpg/sg68_26_cif.got.tgz:50312.got - 2010.06.03 18:57:09.
