data_PCOD9506817
_publ_section_title
;
Structure prediction by ZEFSAII (Michael W. Deem and Ramdas Pophale) SiO2 
 PCOD9506817
Probable space group: C C C A
;
_chemical_formula_sum "Si O2"
_cell_formula_units_Z 88
_cell_length_a 11.624535
_cell_length_b 27.278408
_cell_length_c 14.290192
_cell_angle_alpha 90.000000
_cell_angle_beta 90.000000
_cell_angle_gamma 90.000000
_cell_volume 4531.402857
_symmetry_space_group_name_H-M "C C C A"
_symmetry_group_IT_number 68
_space_group.IT_coordinate_system_code '2'
_symmetry_cell_setting 'orthorhombic'
loop_
_space_group_symop_operation_xyz
x,y,z
-x,1/2-y,z
x,1/2-y,1/2-z
-x,y,1/2-z
-x,-y,-z
x,1/2+y,-z
-x,1/2+y,1/2+z
x,-y,1/2+z
1/2+x,1/2+y,z
1/2-x,-y,z
1/2+x,-y,1/2-z
1/2-x,1/2+y,1/2-z
1/2-x,1/2-y,-z
1/2+x,y,-z
1/2-x,y,1/2+z
1/2+x,1/2-y,1/2+z
loop_
_atom_site_type_symbol
_atom_site_label
_atom_site_fract_x
_atom_site_fract_y
_atom_site_fract_z
Si Si1 0.922202 0.923378 0.027609
Si Si2 0.750000 0.500000 0.376855
Si Si3 0.419575 0.149300 0.132073
Si Si4 0.143709 0.800487 0.303864
Si Si5 0.223289 0.345160 0.046672
Si Si6 0.068641 0.077673 0.343906
O O1 0.839419 0.966587 0.063963
O O2 0.834270 0.877735 0.018227
O O3 0.019685 0.902083 0.100463
O O4 0.983368 0.936883 0.929911
O O5 0.835815 0.463869 0.322656
O O6 0.348689 0.153914 0.229101
O O7 0.521378 0.187991 0.149303
O O8 0.342637 0.166900 0.047098
O O9 0.150517 0.750000 0.250000
O O10 0.234962 0.802419 0.386325
O O11 0.139351 0.377885 0.110733
O O12 0.000000 0.089291 0.250000
#
# Coordination Sequence:
#
# PCOD9506817 Si02
#       6
#    16   8  16  16  16  16
#     4   9  19  36  56  78 112 151 186 234 286 335
#     4  10  20  38  52  82 112 146 196 236 284 334
#     4   9  18  35  56  82 112 149 185 230 285 340
#     4  10  20  36  60  87 111 149 194 238 280 350
#     4   9  20  36  57  84 111 150 192 230 291 341
#     4  10  21  36  54  81 114 148 186 239 284 342
#
# _framework density 19.420034999999999
#
# number of rings (size 3 to 8) (size 9 to 14) (size 15 to 20)
#    0.000    2.545    0.000    1.636    2.545    1.455 
#    9.818    0.000    0.000    0.000    0.000    0.000 
#    0.000    0.000    0.000    0.000    0.000    0.000 
#
# Total GULP energy -245026.688402 kJ/mol
# GULP energy per Si atom -5568.788373 kJ/mol
# Density = 1.937583 g / cm^3
# Si number density = 19.420035 Si / 1000 Ang^3
#
#
#
# Elastic Constant Matrix: (Units=GPa)
#
#
# Indices 1 2 3 4 5 6 
#
# 1 68.0782 7.8689 44.9268 0.0000 0.0000 0.0000
# 2 7.8689 36.5798 10.8085 0.0000 0.0000 0.0000
# 3 44.9268 10.8085 88.0748 0.0000 0.0000 0.0000
# 4 0.0000 0.0000 0.0000 2.2625 0.0000 0.0000
# 5 0.0000 0.0000 0.0000 0.0000 37.8959 0.0000
# 6 0.0000 0.0000 0.0000 0.0000 0.0000 11.7579
#
#
#
# Elastic Compliance Matrix: (Units=1/GPa)
#
#
# Indices 1 2 3 4 5 6 
#
# 1 0.022220 -0.001485 -0.011152 0.000000 0.000000 0.000000
# 2 -0.001485 0.028465 -0.002736 0.000000 0.000000 0.000000
# 3 -0.011152 -0.002736 0.017379 0.000000 0.000000 0.000000
# 4 0.000000 0.000000 0.000000 0.441987 0.000000 0.000000
# 5 0.000000 0.000000 0.000000 0.000000 0.026388 0.000000
# 6 0.000000 0.000000 0.000000 0.000000 0.000000 0.085049
#
#
# Mechanical properties :
#
#
# Convention : Reuss Voigt Hill
#
# Bulk Modulus (GPa) = 26.79653 35.54901 31.17277
# Shear Modulus (GPa) = 7.52248 18.99182 13.25715
#
# Velocity S-wave (km/s) = 1.97027 3.13061 2.61560
# Velocity P-wave (km/s) = 4.35939 5.60470 5.02081
#
# Compressibility (1/GPa) = 0.03731826
#
# Stress axis : x y z
#
# Youngs Moduli (GPa) = 45.00379 35.13051 57.54223
#
# Poissons Ratio (x) = 0.05216 0.64173
# Poissons Ratio (y) = 0.06682 0.15743
# Poissons Ratio (z) = 0.50190 0.09611
#
# Static dielectric constant tensor:
#      x y z
#    x 1.721220 0.000000 0.000000 
#    y 0.000000 1.706500 0.000000 
#    z 0.000000 0.000000 1.688120 
# 
# From -- ./inp_files/12056.got.cif
#   From: 2010.05.17/outbox.cif.g08.bks.cpg/sg68_7_cif.got.tgz:12056.got - 2010.06.03 18:57:09.
