data_PCOD9506968
_publ_section_title
;
Structure prediction by ZEFSAII (Michael W. Deem and Ramdas Pophale) SiO2 
 PCOD9506968
Probable space group: C C C A
;
_chemical_formula_sum "Si O2"
_cell_formula_units_Z 88
_cell_length_a 10.757837
_cell_length_b 18.564950
_cell_length_c 21.854872
_cell_angle_alpha 90.000000
_cell_angle_beta 90.000000
_cell_angle_gamma 90.000000
_cell_volume 4364.826756
_symmetry_space_group_name_H-M "C C C A"
_symmetry_group_IT_number 68
_space_group.IT_coordinate_system_code '2'
_symmetry_cell_setting 'orthorhombic'
loop_
_space_group_symop_operation_xyz
x,y,z
-x,1/2-y,z
x,1/2-y,1/2-z
-x,y,1/2-z
-x,-y,-z
x,1/2+y,-z
-x,1/2+y,1/2+z
x,-y,1/2+z
1/2+x,1/2+y,z
1/2-x,-y,z
1/2+x,-y,1/2-z
1/2-x,1/2+y,1/2-z
1/2-x,1/2-y,-z
1/2+x,y,-z
1/2-x,y,1/2+z
1/2+x,1/2-y,1/2+z
loop_
_atom_site_type_symbol
_atom_site_label
_atom_site_fract_x
_atom_site_fract_y
_atom_site_fract_z
Si Si1 0.500000 0.750000 0.458614
Si Si2 0.351852 0.327670 0.755653
Si Si3 0.156856 0.627955 0.893350
Si Si4 0.129804 0.530011 0.713426
Si Si5 0.107958 0.608709 0.479575
Si Si6 0.055303 0.008388 0.417523
O O1 0.407559 0.701817 0.417288
O O2 0.430784 0.811479 0.498456
O O3 0.291313 0.250000 0.750000
O O4 0.500000 0.318785 0.750000
O O5 0.321763 0.361650 0.821302
O O6 0.331630 0.386644 0.703553
O O7 0.280220 0.613551 0.931958
O O8 0.062353 0.561721 0.904332
O O9 0.250000 0.500000 0.747844
O O10 0.000000 0.525509 0.750000
O O11 0.112053 0.493035 0.648397
O O12 0.993587 0.563878 0.449775
O O13 0.139150 0.557875 0.537959
#
# Coordination Sequence:
#
# PCOD9506968 Si02
#       6
#     8  16  16  16  16  16
#     4  10  22  38  55  94 127 166 206 258 328 376
#     4  10  20  37  63  96 121 160 214 265 314 370
#     4  11  20  37  65  88 125 166 216 267 313 385
#     4  11  24  41  67  96 130 168 212 269 324 381
#     4  10  23  38  64  89 127 170 210 262 325 386
#     4  10  22  41  60  93 125 163 217 264 316 384
#
# _framework density 20.161166999999999
#
# number of rings (size 3 to 8) (size 9 to 14) (size 15 to 20)
#    0.000    1.636    3.636    2.182    5.091    4.364 
#    3.273    0.000    0.000    0.545    0.000    0.000 
#    0.000    0.000    0.000    0.000    0.000    0.000 
#
# Total GULP energy -245353.777524 kJ/mol
# GULP energy per Si atom -5576.222216 kJ/mol
# Density = 2.011528 g / cm^3
# Si number density = 20.161167 Si / 1000 Ang^3
#
#
#
# Elastic Constant Matrix: (Units=GPa)
#
#
# Indices 1 2 3 4 5 6 
#
# 1 74.8135 19.1252 23.0177 0.0000 0.0000 0.0000
# 2 19.1252 90.9149 -0.0544 0.0000 0.0000 0.0000
# 3 23.0177 -0.0544 93.9820 0.0000 0.0000 0.0000
# 4 0.0000 0.0000 0.0000 24.3741 0.0000 0.0000
# 5 0.0000 0.0000 0.0000 0.0000 27.7786 0.0000
# 6 0.0000 0.0000 0.0000 0.0000 0.0000 21.8176
#
#
#
# Elastic Compliance Matrix: (Units=1/GPa)
#
#
# Indices 1 2 3 4 5 6 
#
# 1 0.015350 -0.003231 -0.003761 0.000000 0.000000 0.000000
# 2 -0.003231 0.011680 0.000798 0.000000 0.000000 0.000000
# 3 -0.003761 0.000798 0.011562 0.000000 0.000000 0.000000
# 4 0.000000 0.000000 0.000000 0.041027 0.000000 0.000000
# 5 0.000000 0.000000 0.000000 0.000000 0.035999 0.000000
# 6 0.000000 0.000000 0.000000 0.000000 0.000000 0.045835
#
#
# Mechanical properties :
#
#
# Convention : Reuss Voigt Hill
#
# Bulk Modulus (GPa) = 38.16431 38.20972 38.18701
# Shear Modulus (GPa) = 27.38600 29.30219 28.34410
#
# Velocity S-wave (km/s) = 3.68958 3.81648 3.75357
# Velocity P-wave (km/s) = 6.09273 6.19790 6.14554
#
# Compressibility (1/GPa) = 0.02620249
#
# Stress axis : x y z
#
# Youngs Moduli (GPa) = 65.14723 85.61993 86.49020
#
# Poissons Ratio (x) = 0.27666 0.32532
# Poissons Ratio (y) = 0.21051 -0.06903
# Poissons Ratio (z) = 0.24504 -0.06834
#
# Static dielectric constant tensor:
#      x y z
#    x 1.740010 0.000000 0.000000 
#    y 0.000000 1.778840 0.000000 
#    z 0.000000 0.000000 1.739960 
# 
# From -- ./inp_files/37436.got.cif
#   From: 2010.05.17/outbox.cif.g08.bks.cpg/sg68_19_cif.got.tgz:37436.got - 2010.06.03 18:57:09.
