data_PCOD9506849
_publ_section_title
;
Structure prediction by ZEFSAII (Michael W. Deem and Ramdas Pophale) SiO2 
 PCOD9506849
Probable space group: C C C A
;
_chemical_formula_sum "Si O2"
_cell_formula_units_Z 92
_cell_length_a 26.179122
_cell_length_b 20.561386
_cell_length_c 8.051645
_cell_angle_alpha 90.000000
_cell_angle_beta 90.000000
_cell_angle_gamma 90.000000
_cell_volume 4334.031681
_symmetry_space_group_name_H-M "C C C A"
_symmetry_group_IT_number 68
_space_group.IT_coordinate_system_code '2'
_symmetry_cell_setting 'orthorhombic'
loop_
_space_group_symop_operation_xyz
x,y,z
-x,1/2-y,z
x,1/2-y,1/2-z
-x,y,1/2-z
-x,-y,-z
x,1/2+y,-z
-x,1/2+y,1/2+z
x,-y,1/2+z
1/2+x,1/2+y,z
1/2-x,-y,z
1/2+x,-y,1/2-z
1/2-x,1/2+y,1/2-z
1/2-x,1/2-y,-z
1/2+x,y,-z
1/2-x,y,1/2+z
1/2+x,1/2-y,1/2+z
loop_
_atom_site_type_symbol
_atom_site_label
_atom_site_fract_x
_atom_site_fract_y
_atom_site_fract_z
Si Si1 0.000000 0.250000 0.250000
Si Si2 0.582440 0.839157 0.134103
Si Si3 0.097621 0.061050 0.665759
Si Si4 0.283196 0.936971 0.722144
Si Si5 0.203485 0.363865 0.476640
Si Si6 0.409838 0.579722 0.453947
Si Si7 0.826990 0.250000 0.250000
O O1 0.037143 0.288305 0.125230
O O2 0.569230 0.873478 0.310822
O O3 0.635545 0.799918 0.153817
O O4 0.587474 0.887728 0.980424
O O5 0.158565 0.045720 0.681572
O O6 0.075931 0.992224 0.606000
O O7 0.078959 0.083711 0.848648
O O8 0.249480 0.910402 0.574407
O O9 0.250000 0.000000 0.783745
O O10 0.290392 0.869911 0.827705
O O11 0.150590 0.402018 0.440913
O O12 0.202113 0.295396 0.382716
#
# Coordination Sequence:
#
# PCOD9506849 Si02
#       7
#     4  16  16  16  16  16   8
#     4  10  24  52  78  96 120 174 212 258 338 418
#     4  10  22  45  71  91 128 163 211 271 334 399
#     4  11  21  36  63  97 132 170 211 265 327 380
#     4  11  22  33  55  91 125 172 228 270 314 362
#     4  10  22  34  52  82 125 176 226 264 305 361
#     4  10  20  36  62  97 128 168 208 259 331 379
#     4   9  22  41  56  80 126 178 218 265 314 381
#
# _framework density 21.227347000000002
#
# number of rings (size 3 to 8) (size 9 to 14) (size 15 to 20)
#    0.000    1.739    3.478    0.522    7.304    0.696 
#    0.000   15.652    0.000    0.000    0.000    0.000 
#    0.000    0.000    0.000    0.000    0.000    0.000 
#
# Total GULP energy -256071.194705 kJ/mol
# GULP energy per Si atom -5566.765102 kJ/mol
# Density = 2.117903 g / cm^3
# Si number density = 21.227347 Si / 1000 Ang^3
#
#
#
# Elastic Constant Matrix: (Units=GPa)
#
#
# Indices 1 2 3 4 5 6 
#
# 1 25.9073 8.2319 16.7581 0.0000 0.0000 0.0000
# 2 8.2319 105.4462 48.0595 0.0000 0.0000 0.0000
# 3 16.7581 48.0595 94.7242 0.0000 0.0000 0.0000
# 4 0.0000 0.0000 0.0000 263.9499 0.0000 0.0000
# 5 0.0000 0.0000 0.0000 0.0000 -1.9286 0.0000
# 6 0.0000 0.0000 0.0000 0.0000 0.0000 19.9055
#
#
#
# Elastic Compliance Matrix: (Units=1/GPa)
#
#
# Indices 1 2 3 4 5 6 
#
# 1 0.043589 0.000145 -0.007785 0.000000 0.000000 0.000000
# 2 0.000145 0.012337 -0.006285 0.000000 0.000000 0.000000
# 3 -0.007785 -0.006285 0.015123 0.000000 0.000000 0.000000
# 4 0.000000 0.000000 0.000000 0.003789 0.000000 0.000000
# 5 0.000000 0.000000 0.000000 0.000000 -0.518524 0.000000
# 6 0.000000 0.000000 0.000000 0.000000 0.000000 0.050237
#
#
# Mechanical properties :
#
#
# Convention : Reuss Voigt Hill
#
# Bulk Modulus (GPa) = 23.14870 41.35299 32.25085
# Shear Modulus (GPa) = -14.23687 66.58725 26.17519
#
# Velocity S-wave (km/s) = -2.59257 5.60685 3.51535
# Velocity P-wave (km/s) = 1.40247 7.83830 5.63053
#
# Compressibility (1/GPa) = 0.04319898
#
# Stress axis : x y z
#
# Youngs Moduli (GPa) = 22.94169 81.05940 66.12443
#
# Poissons Ratio (x) = -0.01179 0.51480
# Poissons Ratio (y) = -0.00334 0.41558
# Poissons Ratio (z) = 0.17861 0.50945
#
# Static dielectric constant tensor:
#      x y z
#    x 1.865790 0.000000 0.000000 
#    y 0.000000 1.775230 0.000000 
#    z 0.000000 0.000000 1.883050 
# 
# From -- ./inp_files/8962.got.cif
#   From: 2010.05.17/outbox.cif.g08.bks.cpg/sg68_5_cif.got.tgz:8962.got - 2010.06.03 18:57:09.
