data_PCOD9506907
_publ_section_title
;
Structure prediction by ZEFSAII (Michael W. Deem and Ramdas Pophale) SiO2 
 PCOD9506907
Probable space group: C C C A
;
_chemical_formula_sum "Si O2"
_cell_formula_units_Z 100
_cell_length_a 14.131857
_cell_length_b 11.551072
_cell_length_c 31.524583
_cell_angle_alpha 90.000000
_cell_angle_beta 90.000000
_cell_angle_gamma 90.000000
_cell_volume 5146.012960
_symmetry_space_group_name_H-M "C C C A"
_symmetry_group_IT_number 68
_space_group.IT_coordinate_system_code '2'
_symmetry_cell_setting 'orthorhombic'
loop_
_space_group_symop_operation_xyz
x,y,z
-x,1/2-y,z
x,1/2-y,1/2-z
-x,y,1/2-z
-x,-y,-z
x,1/2+y,-z
-x,1/2+y,1/2+z
x,-y,1/2+z
1/2+x,1/2+y,z
1/2-x,-y,z
1/2+x,-y,1/2-z
1/2-x,1/2+y,1/2-z
1/2-x,1/2-y,-z
1/2+x,y,-z
1/2-x,y,1/2+z
1/2+x,1/2-y,1/2+z
loop_
_atom_site_type_symbol
_atom_site_label
_atom_site_fract_x
_atom_site_fract_y
_atom_site_fract_z
Si Si1 0.156823 0.424670 0.928036
Si Si2 0.000000 0.250000 0.250000
Si Si3 0.879950 0.913003 0.691509
Si Si4 0.605765 0.214195 0.118234
Si Si5 0.552089 0.375028 0.989687
Si Si6 0.330752 0.832431 0.791326
Si Si7 0.952411 0.530411 0.900808
O O1 0.250000 0.500000 0.926789
O O2 0.173360 0.308939 0.901191
O O3 0.062592 0.490613 0.908945
O O4 0.134283 0.382603 0.975691
O O5 0.062928 0.170667 0.279092
O O6 0.773923 0.861749 0.690771
O O7 0.875176 0.039684 0.713586
O O8 0.930204 0.920009 0.645677
O O9 0.500000 0.250000 0.105353
O O10 0.614155 0.220264 0.168780
O O11 0.612900 0.085236 0.100110
O O12 0.500000 0.250000 0.996069
O O13 0.574473 0.387617 0.939930
O O14 0.500000 0.500000 0.000000
O O15 0.330050 0.750000 0.750000
#
# Coordination Sequence:
#
# PCOD9506907 Si02
#       7
#    16   4  16  16  16  16  16
#     4  10  20  37  58  94 124 157 212 263 318 373
#     4  12  24  40  62  92 134 164 196 274 320 380
#     4  10  23  40  62  92 124 164 209 255 326 379
#     4   9  19  38  62  85 121 163 201 260 313 376
#     4  10  20  39  63  87 123 171 209 260 317 383
#     4  10  21  42  63  90 122 161 214 260 309 379
#     4   9  20  40  62  83 122 169 208 251 320 395
#
# _framework density 19.43252
#
# number of rings (size 3 to 8) (size 9 to 14) (size 15 to 20)
#    0.000    2.240    0.800    2.400    1.120    5.440 
#   11.520    4.000    0.000    0.000    0.000    0.000 
#    0.000    0.000    0.000    0.000    0.000    0.000 
#
# Total GULP energy -278450.901446 kJ/mol
# GULP energy per Si atom -5569.018029 kJ/mol
# Density = 1.938829 g / cm^3
# Si number density = 19.432520 Si / 1000 Ang^3
#
#
#
# Elastic Constant Matrix: (Units=GPa)
#
#
# Indices 1 2 3 4 5 6 
#
# 1 66.4544 54.5563 51.6567 0.0000 0.0000 0.0000
# 2 54.5563 113.2780 84.4080 0.0000 0.0000 0.0000
# 3 51.6567 84.4080 123.7586 0.0000 0.0000 0.0000
# 4 0.0000 0.0000 0.0000 61.3901 0.0000 0.0000
# 5 0.0000 0.0000 0.0000 0.0000 -26.1357 0.0000
# 6 0.0000 0.0000 0.0000 0.0000 0.0000 31.7609
#
#
#
# Elastic Compliance Matrix: (Units=1/GPa)
#
#
# Indices 1 2 3 4 5 6 
#
# 1 0.026185 -0.009083 -0.004735 0.000000 0.000000 0.000000
# 2 -0.009083 0.021101 -0.010601 0.000000 0.000000 0.000000
# 3 -0.004735 -0.010601 0.017286 0.000000 0.000000 0.000000
# 4 0.000000 0.000000 0.000000 0.016289 0.000000 0.000000
# 5 0.000000 0.000000 0.000000 0.000000 -0.038262 0.000000
# 6 0.000000 0.000000 0.000000 0.000000 0.000000 0.031485
#
#
# Mechanical properties :
#
#
# Convention : Reuss Voigt Hill
#
# Bulk Modulus (GPa) = 63.54768 76.08144 69.81456
# Shear Modulus (GPa) = 39.01136 20.92774 29.96955
#
# Velocity S-wave (km/s) = 4.48541 3.28524 3.93139
# Velocity P-wave (km/s) = 7.71997 7.32305 7.52413
#
# Compressibility (1/GPa) = 0.01573622
#
# Stress axis : x y z
#
# Youngs Moduli (GPa) = 38.18959 47.39027 57.84873
#
# Poissons Ratio (x) = 0.43046 0.27389
# Poissons Ratio (y) = 0.34688 0.61323
# Poissons Ratio (z) = 0.18081 0.50237
#
# Static dielectric constant tensor:
#      x y z
#    x 1.695140 0.000000 0.000000 
#    y 0.000000 1.733040 0.000000 
#    z 0.000000 0.000000 1.672190 
# 
# From -- ./inp_files/55225.got.cif
#   From: 2010.05.17/outbox.cif.g08.bks.cpg/sg68_28_cif.got.tgz:55225.got - 2010.06.03 18:57:09.
