data_PCOD9506240
_publ_section_title
;
Structure prediction by ZEFSAII (Michael W. Deem and Ramdas Pophale) SiO2 
 PCOD9506240
Probable space group: C C C A
;
_chemical_formula_sum "Si O2"
_cell_formula_units_Z 84
_cell_length_a 9.761593
_cell_length_b 19.398142
_cell_length_c 22.958831
_cell_angle_alpha 90.000000
_cell_angle_beta 90.000000
_cell_angle_gamma 90.000000
_cell_volume 4347.410016
_symmetry_space_group_name_H-M "C C C A"
_symmetry_group_IT_number 68
_space_group.IT_coordinate_system_code '2'
_symmetry_cell_setting 'orthorhombic'
loop_
_space_group_symop_operation_xyz
x,y,z
-x,1/2-y,z
x,1/2-y,1/2-z
-x,y,1/2-z
-x,-y,-z
x,1/2+y,-z
-x,1/2+y,1/2+z
x,-y,1/2+z
1/2+x,1/2+y,z
1/2-x,-y,z
1/2+x,-y,1/2-z
1/2-x,1/2+y,1/2-z
1/2-x,1/2-y,-z
1/2+x,y,-z
1/2-x,y,1/2+z
1/2+x,1/2-y,1/2+z
loop_
_atom_site_type_symbol
_atom_site_label
_atom_site_fract_x
_atom_site_fract_y
_atom_site_fract_z
Si Si1 0.679660 0.783935 0.856385
Si Si2 0.368767 0.549163 0.496643
Si Si3 0.500000 0.750000 0.750000
Si Si4 0.669060 0.090074 0.862512
Si Si5 0.919180 0.144481 0.600033
Si Si6 0.036037 0.964942 0.182945
O O1 0.600586 0.789419 0.794199
O O2 0.817991 0.827599 0.856300
O O3 0.570717 0.820758 0.899835
O O4 0.679521 0.703930 0.874515
O O5 0.500000 0.500000 0.500000
O O6 0.250000 0.500000 0.519545
O O7 0.336780 0.570203 0.430404
O O8 0.383346 0.615557 0.537199
O O9 0.813243 0.064422 0.834235
O O10 0.549139 0.045901 0.832700
O O11 0.932765 0.078831 0.642932
O O12 0.000000 0.955483 0.250000
#
# Coordination Sequence:
#
# PCOD9506240 Si02
#       6
#    16  16   4  16  16  16
#     4   9  19  34  57  94 121 160 212 261 319 375
#     4  12  21  40  63  89 130 168 213 266 322 389
#     4   8  16  32  60  80 118 160 208 260 292 418
#     4  10  20  36  57  86 123 161 199 274 325 351
#     4   9  19  33  58  91 117 163 213 250 312 379
#     4  10  19  36  57  89 124 157 213 264 315 376
#
# _framework density 19.321849
#
# number of rings (size 3 to 8) (size 9 to 14) (size 15 to 20)
#    0.000    2.286    3.810    1.143   12.000    0.762 
#    3.429    0.000    0.000    0.000    0.000    0.000 
#    0.000    0.000    0.000    0.000    0.000    0.000 
#
# Total GULP energy -233919.272069 kJ/mol
# GULP energy per Si atom -5569.506478 kJ/mol
# Density = 1.927787 g / cm^3
# Si number density = 19.321849 Si / 1000 Ang^3
#
#
#
# Elastic Constant Matrix: (Units=GPa)
#
#
# Indices 1 2 3 4 5 6 
#
# 1 42.5287 44.2904 27.7342 0.0000 0.0000 0.0000
# 2 44.2904 126.4105 44.3888 0.0000 0.0000 0.0000
# 3 27.7342 44.3888 145.8825 0.0000 0.0000 0.0000
# 4 0.0000 0.0000 0.0000 21.5377 0.0000 0.0000
# 5 0.0000 0.0000 0.0000 0.0000 25.7048 0.0000
# 6 0.0000 0.0000 0.0000 0.0000 0.0000 36.7399
#
#
#
# Elastic Compliance Matrix: (Units=1/GPa)
#
#
# Indices 1 2 3 4 5 6 
#
# 1 0.038652 -0.012274 -0.003614 0.000000 0.000000 0.000000
# 2 -0.012274 0.012754 -0.001548 0.000000 0.000000 0.000000
# 3 -0.003614 -0.001548 0.008013 0.000000 0.000000 0.000000
# 4 0.000000 0.000000 0.000000 0.046430 0.000000 0.000000
# 5 0.000000 0.000000 0.000000 0.000000 0.038903 0.000000
# 6 0.000000 0.000000 0.000000 0.000000 0.000000 0.027218
#
#
# Mechanical properties :
#
#
# Convention : Reuss Voigt Hill
#
# Bulk Modulus (GPa) = 40.73374 60.84981 50.79177
# Shear Modulus (GPa) = 23.25323 30.02370 26.63846
#
# Velocity S-wave (km/s) = 3.47287 3.94620 3.71707
# Velocity P-wave (km/s) = 6.09988 7.23356 6.69077
#
# Compressibility (1/GPa) = 0.02454967
#
# Stress axis : x y z
#
# Youngs Moduli (GPa) = 25.87182 78.40414 124.80156
#
# Poissons Ratio (x) = 0.96230 0.45099
# Poissons Ratio (y) = 0.31754 0.19313
# Poissons Ratio (z) = 0.09349 0.12133
#
# Static dielectric constant tensor:
#      x y z
#    x 1.651370 0.000000 0.000000 
#    y 0.000000 1.764080 0.000000 
#    z 0.000000 0.000000 1.672920 
# 
# From -- ./inp_files/37605.got.cif
#   From: 2010.05.17/outbox.cif.g08.bks.cpg/sg68_19_cif.got.tgz:37605.got - 2010.06.03 18:57:09.
