data_PCOD9506075
_publ_section_title
;
Structure prediction by ZEFSAII (Michael W. Deem and Ramdas Pophale) SiO2 
 PCOD9506075
Probable space group: C C C A
;
_chemical_formula_sum "Si O2"
_cell_formula_units_Z 104
_cell_length_a 16.110461
_cell_length_b 21.958204
_cell_length_c 14.068353
_cell_angle_alpha 90.000000
_cell_angle_beta 90.000000
_cell_angle_gamma 90.000000
_cell_volume 4976.775386
_symmetry_space_group_name_H-M "C C C A"
_symmetry_group_IT_number 68
_space_group.IT_coordinate_system_code '2'
_symmetry_cell_setting 'orthorhombic'
loop_
_space_group_symop_operation_xyz
x,y,z
-x,1/2-y,z
x,1/2-y,1/2-z
-x,y,1/2-z
-x,-y,-z
x,1/2+y,-z
-x,1/2+y,1/2+z
x,-y,1/2+z
1/2+x,1/2+y,z
1/2-x,-y,z
1/2+x,-y,1/2-z
1/2-x,1/2+y,1/2-z
1/2-x,1/2-y,-z
1/2+x,y,-z
1/2-x,y,1/2+z
1/2+x,1/2-y,1/2+z
loop_
_atom_site_type_symbol
_atom_site_label
_atom_site_fract_x
_atom_site_fract_y
_atom_site_fract_z
Si Si1 0.580680 0.868750 0.969995
Si Si2 0.841582 0.301254 0.077382
Si Si3 0.279681 0.678937 0.102476
Si Si4 0.586073 0.577778 0.053022
Si Si5 0.191906 0.441308 0.637903
Si Si6 0.500000 0.250000 0.031969
Si Si7 0.157403 0.469912 0.844028
O O1 0.541114 0.808970 0.918089
O O2 0.640484 0.909033 0.904347
O O3 0.635551 0.845390 0.057299
O O4 0.504964 0.905529 0.016423
O O5 0.800002 0.247346 0.138771
O O6 0.868388 0.367833 0.112222
O O7 0.781413 0.311165 0.987376
O O8 0.927388 0.276811 0.033200
O O9 0.240549 0.622301 0.158603
O O10 0.592398 0.518164 0.115572
O O11 0.638251 0.567771 0.956289
O O12 0.250000 0.500000 0.620015
O O13 0.143396 0.456606 0.733716
O O14 0.250000 0.500000 0.855389
#
# Coordination Sequence:
#
# PCOD9506075 Si02
#       7
#    16  16  16  16  16   8  16
#     4  10  19  33  58  86 115 153 198 244 303 369
#     4   8  15  28  54  80 108 146 189 232 285 353
#     4   9  16  31  54  80 110 148 187 234 292 355
#     4  10  19  35  57  82 113 151 192 244 299 353
#     4  10  21  35  54  81 116 153 194 244 297 358
#     4   8  16  30  52  87 114 143 192 240 294 361
#     4  11  22  35  55  82 114 155 199 243 297 366
#
# _framework density 20.897065000000001
#
# number of rings (size 3 to 8) (size 9 to 14) (size 15 to 20)
#    0.000    2.462    0.000    3.692    0.000    0.615 
#    0.000    1.538    0.000   72.923    0.000    0.000 
#    0.000   71.385    0.000    0.000    0.000    1.615 
#
# Total GULP energy -289698.787869 kJ/mol
# GULP energy per Si atom -5571.130536 kJ/mol
# Density = 2.084950 g / cm^3
# Si number density = 20.897065 Si / 1000 Ang^3
#
#
#
# Elastic Constant Matrix: (Units=GPa)
#
#
# Indices 1 2 3 4 5 6 
#
# 1 63.5618 19.1545 19.2554 0.0000 0.0000 0.0000
# 2 19.1545 120.7359 42.7586 0.0000 0.0000 0.0000
# 3 19.2554 42.7586 63.1133 0.0000 0.0000 0.0000
# 4 0.0000 0.0000 0.0000 -22.8843 0.0000 0.0000
# 5 0.0000 0.0000 0.0000 0.0000 1.9131 0.0000
# 6 0.0000 0.0000 0.0000 0.0000 0.0000 9.8580
#
#
#
# Elastic Compliance Matrix: (Units=1/GPa)
#
#
# Indices 1 2 3 4 5 6 
#
# 1 0.017458 -0.001162 -0.004539 0.000000 0.000000 0.000000
# 2 -0.001162 0.010974 -0.007081 0.000000 0.000000 0.000000
# 3 -0.004539 -0.007081 0.022026 0.000000 0.000000 0.000000
# 4 0.000000 0.000000 0.000000 -0.043698 0.000000 0.000000
# 5 0.000000 0.000000 0.000000 0.000000 0.522710 0.000000
# 6 0.000000 0.000000 0.000000 0.000000 0.000000 0.101440
#
#
# Mechanical properties :
#
#
# Convention : Reuss Voigt Hill
#
# Bulk Modulus (GPa) = 40.16796 45.52755 42.84775
# Shear Modulus (GPa) = 7.52137 8.86020 8.19079
#
# Velocity S-wave (km/s) = 1.89923 2.06134 1.98194
# Velocity P-wave (km/s) = 4.90642 5.24399 5.07801
#
# Compressibility (1/GPa) = 0.02489547
#
# Stress axis : x y z
#
# Youngs Moduli (GPa) = 57.28046 91.12045 45.40039
#
# Poissons Ratio (x) = 0.10590 0.20607
# Poissons Ratio (y) = 0.06657 0.32146
# Poissons Ratio (z) = 0.25999 0.64518
#
# Static dielectric constant tensor:
#      x y z
#    x 2.105410 0.000000 0.000000 
#    y 0.000000 1.863810 0.000000 
#    z 0.000000 0.000000 1.699910 
# 
# From -- ./inp_files/23784.got.cif
#   From: 2010.05.17/outbox.cif.g08.bks.cpg/sg68_12_cif.got.tgz:23784.got - 2010.06.03 18:57:09.
