data_PCOD9506245
_publ_section_title
;
Structure prediction by ZEFSAII (Michael W. Deem and Ramdas Pophale) SiO2 
 PCOD9506245
Probable space group: C C C A
;
_chemical_formula_sum "Si O2"
_cell_formula_units_Z 112
_cell_length_a 16.071074
_cell_length_b 22.551989
_cell_length_c 16.431766
_cell_angle_alpha 90.000000
_cell_angle_beta 90.000000
_cell_angle_gamma 90.000000
_cell_volume 5955.441919
_symmetry_space_group_name_H-M "C C C A"
_symmetry_group_IT_number 68
_space_group.IT_coordinate_system_code '2'
_symmetry_cell_setting 'orthorhombic'
loop_
_space_group_symop_operation_xyz
x,y,z
-x,1/2-y,z
x,1/2-y,1/2-z
-x,y,1/2-z
-x,-y,-z
x,1/2+y,-z
-x,1/2+y,1/2+z
x,-y,1/2+z
1/2+x,1/2+y,z
1/2-x,-y,z
1/2+x,-y,1/2-z
1/2-x,1/2+y,1/2-z
1/2-x,1/2-y,-z
1/2+x,y,-z
1/2-x,y,1/2+z
1/2+x,1/2-y,1/2+z
loop_
_atom_site_type_symbol
_atom_site_label
_atom_site_fract_x
_atom_site_fract_y
_atom_site_fract_z
Si Si1 0.842174 0.975455 0.059849
Si Si2 0.215153 0.868629 0.540566
Si Si3 0.630294 0.285290 0.404372
Si Si4 0.572468 0.710678 0.448506
Si Si5 0.792510 0.233976 0.340089
Si Si6 0.093601 0.593018 0.484370
Si Si7 0.535526 0.396747 0.340494
O O1 0.888917 0.940351 0.131945
O O2 0.750000 0.000000 0.082330
O O3 0.829454 0.930082 0.983779
O O4 0.895437 0.030859 0.028996
O O5 0.182563 0.824906 0.469459
O O6 0.197118 0.832549 0.623706
O O7 0.313458 0.882234 0.534316
O O8 0.586165 0.237014 0.461169
O O9 0.696214 0.251720 0.348777
O O10 0.570454 0.330297 0.357066
O O11 0.500000 0.750000 0.410124
O O12 0.655231 0.723379 0.399076
O O13 0.551773 0.642183 0.457449
O O14 0.820369 0.250000 0.250000
O O15 0.038246 0.590070 0.404167
O O16 0.500000 0.403522 0.250000
#
# Coordination Sequence:
#
# PCOD9506245 Si02
#       7
#    16  16  16  16  16  16  16
#     4   9  21  41  66  84 113 169 217 243 294 372
#     4   9  18  37  60  84 112 156 212 240 287 373
#     4  10  19  36  58  83 115 160 193 240 307 374
#     4  11  20  37  61  86 115 160 205 246 296 370
#     4  11  22  35  58  88 126 157 197 252 311 368
#     4  11  19  37  63  84 114 160 204 248 297 361
#     4  11  24  37  58  94 127 147 193 266 317 359
#
# _framework density 18.806329999999999
#
# number of rings (size 3 to 8) (size 9 to 14) (size 15 to 20)
#    0.000    1.714    4.286    1.286    2.000    0.286 
#    0.000    4.286    0.000    0.000    0.000    0.000 
#    0.000    0.000    0.000    0.000    0.000    0.000 
#
# Total GULP energy -312307.540098 kJ/mol
# GULP energy per Si atom -5576.920359 kJ/mol
# Density = 1.876353 g / cm^3
# Si number density = 18.806330 Si / 1000 Ang^3
#
#
#
# Elastic Constant Matrix: (Units=GPa)
#
#
# Indices 1 2 3 4 5 6 
#
# 1 67.7574 26.8262 35.1832 0.0000 0.0000 0.0000
# 2 26.8262 123.1543 46.1689 0.0000 0.0000 0.0000
# 3 35.1832 46.1689 99.6830 0.0000 0.0000 0.0000
# 4 0.0000 0.0000 0.0000 16.1909 0.0000 0.0000
# 5 0.0000 0.0000 0.0000 0.0000 18.4603 0.0000
# 6 0.0000 0.0000 0.0000 0.0000 0.0000 27.3303
#
#
#
# Elastic Compliance Matrix: (Units=1/GPa)
#
#
# Indices 1 2 3 4 5 6 
#
# 1 0.018433 -0.001907 -0.005623 0.000000 0.000000 0.000000
# 2 -0.001907 0.010023 -0.003969 0.000000 0.000000 0.000000
# 3 -0.005623 -0.003969 0.013855 0.000000 0.000000 0.000000
# 4 0.000000 0.000000 0.000000 0.061763 0.000000 0.000000
# 5 0.000000 0.000000 0.000000 0.000000 0.054170 0.000000
# 6 0.000000 0.000000 0.000000 0.000000 0.000000 0.036589
#
#
# Mechanical properties :
#
#
# Convention : Reuss Voigt Hill
#
# Bulk Modulus (GPa) = 51.77881 56.32792 54.05337
# Shear Modulus (GPa) = 22.29451 24.55736 23.42594
#
# Velocity S-wave (km/s) = 3.44681 3.61751 3.53319
# Velocity P-wave (km/s) = 6.59038 6.88949 6.74160
#
# Compressibility (1/GPa) = 0.01931292
#
# Stress axis : x y z
#
# Youngs Moduli (GPa) = 54.24972 99.76678 72.17784
#
# Poissons Ratio (x) = 0.19030 0.40583
# Poissons Ratio (y) = 0.10348 0.28649
# Poissons Ratio (z) = 0.30503 0.39599
#
# Static dielectric constant tensor:
#      x y z
#    x 1.710480 0.000000 0.000000 
#    y 0.000000 1.677280 0.000000 
#    z 0.000000 0.000000 1.608810 
# 
# From -- ./inp_files/22631.got.cif
#   From: 2010.05.17/outbox.cif.g08.bks.cpg/sg68_12_cif.got.tgz:22631.got - 2010.06.03 18:57:09.
