data_PCOD9506660
_publ_section_title
;
Structure prediction by ZEFSAII (Michael W. Deem and Ramdas Pophale) SiO2 
 PCOD9506660
Probable space group: C C C A
;
_chemical_formula_sum "Si O2"
_cell_formula_units_Z 96
_cell_length_a 7.577315
_cell_length_b 17.663925
_cell_length_c 27.780292
_cell_angle_alpha 90.000000
_cell_angle_beta 90.000000
_cell_angle_gamma 90.000000
_cell_volume 3718.256624
_symmetry_space_group_name_H-M "C C C A"
_symmetry_group_IT_number 68
_space_group.IT_coordinate_system_code '2'
_symmetry_cell_setting 'orthorhombic'
loop_
_space_group_symop_operation_xyz
x,y,z
-x,1/2-y,z
x,1/2-y,1/2-z
-x,y,1/2-z
-x,-y,-z
x,1/2+y,-z
-x,1/2+y,1/2+z
x,-y,1/2+z
1/2+x,1/2+y,z
1/2-x,-y,z
1/2+x,-y,1/2-z
1/2-x,1/2+y,1/2-z
1/2-x,1/2-y,-z
1/2+x,y,-z
1/2-x,y,1/2+z
1/2+x,1/2-y,1/2+z
loop_
_atom_site_type_symbol
_atom_site_label
_atom_site_fract_x
_atom_site_fract_y
_atom_site_fract_z
Si Si1 0.816738 0.384828 0.838953
Si Si2 0.407077 0.418973 0.823765
Si Si3 0.250000 0.500000 0.906986
Si Si4 0.205601 0.736455 0.807464
Si Si5 0.743572 0.673832 0.437199
Si Si6 0.750000 0.500000 0.266632
Si Si7 0.173829 0.656005 0.951786
O O1 0.608240 0.394009 0.825898
O O2 0.843908 0.298387 0.824734
O O3 0.829988 0.379940 0.896578
O O4 0.877591 0.449093 0.801415
O O5 0.396148 0.477308 0.867776
O O6 0.272755 0.347611 0.829039
O O7 0.345340 0.446698 0.771917
O O8 0.265045 0.577164 0.936848
O O9 0.205979 0.750000 0.750000
O O10 0.000000 0.750000 0.822307
O O11 0.817735 0.660463 0.490382
O O12 0.532950 0.656399 0.437211
O O13 0.755615 0.765618 0.430856
#
# Coordination Sequence:
#
# PCOD9506660 Si02
#       7
#    16  16   8  16  16   8  16
#     4  11  20  36  58  86 118 161 210 253 314 390
#     4  10  20  35  54  87 121 154 200 257 321 367
#     4  11  20  35  60  90 118 159 202 259 322 382
#     4   9  16  29  55  81 107 148 196 250 295 368
#     4  10  22  42  65  89 125 168 214 266 324 399
#     4  11  22  31  50  86 128 155 192 257 316 368
#     4  10  22  41  64  93 123 164 211 276 332 383
#
# _framework density 25.818549999999998
#
# number of rings (size 3 to 8) (size 9 to 14) (size 15 to 20)
#    0.000    1.833    3.333    1.500    4.667    1.333 
#    3.000    0.000    0.000    0.000    0.000   14.000 
#    0.000    0.000    0.000    0.000    0.000    0.000 
#
# Total GULP energy -267722.383641 kJ/mol
# GULP energy per Si atom -5577.549659 kJ/mol
# Density = 2.575979 g / cm^3
# Si number density = 25.818550 Si / 1000 Ang^3
#
#
#
# Elastic Constant Matrix: (Units=GPa)
#
#
# Indices 1 2 3 4 5 6 
#
# 1 31.0808 23.6326 7.0243 0.0000 0.0000 0.0000
# 2 23.6326 172.2802 79.6779 0.0000 0.0000 0.0000
# 3 7.0243 79.6779 179.9363 0.0000 0.0000 0.0000
# 4 0.0000 0.0000 0.0000 62.2380 0.0000 0.0000
# 5 0.0000 0.0000 0.0000 0.0000 29.4700 0.0000
# 6 0.0000 0.0000 0.0000 0.0000 0.0000 29.4961
#
#
#
# Elastic Compliance Matrix: (Units=1/GPa)
#
#
# Indices 1 2 3 4 5 6 
#
# 1 0.036059 -0.005402 0.000984 0.000000 0.000000 0.000000
# 2 -0.005402 0.008109 -0.003380 0.000000 0.000000 0.000000
# 3 0.000984 -0.003380 0.007016 0.000000 0.000000 0.000000
# 4 0.000000 0.000000 0.000000 0.016067 0.000000 0.000000
# 5 0.000000 0.000000 0.000000 0.000000 0.033933 0.000000
# 6 0.000000 0.000000 0.000000 0.000000 0.000000 0.033903
#
#
# Mechanical properties :
#
#
# Convention : Reuss Voigt Hill
#
# Bulk Modulus (GPa) = 28.09854 67.10742 47.60298
# Shear Modulus (GPa) = 30.76105 42.43830 36.59967
#
# Velocity S-wave (km/s) = 3.45546 4.05867 3.76915
# Velocity P-wave (km/s) = 5.17947 6.92908 6.11715
#
# Compressibility (1/GPa) = 0.03558904
#
# Stress axis : x y z
#
# Youngs Moduli (GPa) = 27.73239 123.32676 142.53806
#
# Poissons Ratio (x) = 0.66616 -0.14029
# Poissons Ratio (y) = 0.14980 0.48174
# Poissons Ratio (z) = -0.02730 0.41681
#
# Static dielectric constant tensor:
#      x y z
#    x 2.117540 0.000000 0.000000 
#    y 0.000000 2.367050 0.000000 
#    z 0.000000 0.000000 2.019670 
# 
# From -- ./inp_files/44457.got.cif
#   From: 2010.05.17/outbox.cif.g08.bks.cpg/sg68_23_cif.got.tgz:44457.got - 2010.06.03 18:57:09.
