data_PCOD9506745
_publ_section_title
;
Structure prediction by ZEFSAII (Michael W. Deem and Ramdas Pophale) SiO2 
 PCOD9506745
Probable space group: C C C A
;
_chemical_formula_sum "Si O2"
_cell_formula_units_Z 96
_cell_length_a 27.092259
_cell_length_b 16.122245
_cell_length_c 10.888972
_cell_angle_alpha 90.000000
_cell_angle_beta 90.000000
_cell_angle_gamma 90.000000
_cell_volume 4756.172707
_symmetry_space_group_name_H-M "C C C A"
_symmetry_group_IT_number 68
_space_group.IT_coordinate_system_code '2'
_symmetry_cell_setting 'orthorhombic'
loop_
_space_group_symop_operation_xyz
x,y,z
-x,1/2-y,z
x,1/2-y,1/2-z
-x,y,1/2-z
-x,-y,-z
x,1/2+y,-z
-x,1/2+y,1/2+z
x,-y,1/2+z
1/2+x,1/2+y,z
1/2-x,-y,z
1/2+x,-y,1/2-z
1/2-x,1/2+y,1/2-z
1/2-x,1/2-y,-z
1/2+x,y,-z
1/2-x,y,1/2+z
1/2+x,1/2-y,1/2+z
loop_
_atom_site_type_symbol
_atom_site_label
_atom_site_fract_x
_atom_site_fract_y
_atom_site_fract_z
Si Si1 0.806780 0.005945 0.687093
Si Si2 0.555714 0.151839 0.225816
Si Si3 0.326455 0.845200 0.209817
Si Si4 0.860532 0.584429 0.095553
Si Si5 0.225348 0.703733 0.382712
Si Si6 0.879893 0.416201 0.982625
O O1 0.829243 0.912918 0.681554
O O2 0.750000 0.000000 0.656166
O O3 0.820745 0.031087 0.825239
O O4 0.831992 0.077087 0.605705
O O5 0.556680 0.250000 0.250000
O O6 0.500000 0.122585 0.250000
O O7 0.594964 0.113356 0.318977
O O8 0.576001 0.125390 0.092295
O O9 0.330990 0.750000 0.250000
O O10 0.270738 0.855778 0.157460
O O11 0.365682 0.867251 0.104939
O O12 0.825682 0.663709 0.069645
O O13 0.885549 0.514178 0.010807
O O14 0.215200 0.750000 0.250000
O O15 0.250000 0.750000 0.500000
#
# Coordination Sequence:
#
# PCOD9506745 Si02
#       6
#    16  16  16  16  16  16
#     4  10  20  36  53  82 126 166 213 250 310 383
#     4  10  23  44  67  90 118 161 224 288 345 398
#     4  10  23  37  53  88 130 174 212 261 314 389
#     4  10  22  38  60  90 126 167 217 264 323 396
#     4  11  25  36  58  97 135 186 220 265 320 393
#     4  10  24  36  62  92 121 173 211 274 334 399
#
# _framework density 20.184296
#
# number of rings (size 3 to 8) (size 9 to 14) (size 15 to 20)
#    0.000    1.833    1.667    0.500   14.000    0.667 
#    0.000    0.000    0.000    0.000    0.000    1.167 
#    0.000    0.000    0.000    0.000    0.000    0.000 
#
# Total GULP energy -267356.846604 kJ/mol
# GULP energy per Si atom -5569.934304 kJ/mol
# Density = 2.013836 g / cm^3
# Si number density = 20.184296 Si / 1000 Ang^3
#
#
#
# Elastic Constant Matrix: (Units=GPa)
#
#
# Indices 1 2 3 4 5 6 
#
# 1 131.7275 44.2517 43.6486 0.0000 0.0000 0.0000
# 2 44.2517 95.1721 47.7092 0.0000 0.0000 0.0000
# 3 43.6486 47.7092 79.1938 0.0000 0.0000 0.0000
# 4 0.0000 0.0000 0.0000 27.9614 0.0000 0.0000
# 5 0.0000 0.0000 0.0000 0.0000 14.2978 0.0000
# 6 0.0000 0.0000 0.0000 0.0000 0.0000 22.8401
#
#
#
# Elastic Compliance Matrix: (Units=1/GPa)
#
#
# Indices 1 2 3 4 5 6 
#
# 1 0.009726 -0.002629 -0.003777 0.000000 0.000000 0.000000
# 2 -0.002629 0.015764 -0.008048 0.000000 0.000000 0.000000
# 3 -0.003777 -0.008048 0.019557 0.000000 0.000000 0.000000
# 4 0.000000 0.000000 0.000000 0.035764 0.000000 0.000000
# 5 0.000000 0.000000 0.000000 0.000000 0.069941 0.000000
# 6 0.000000 0.000000 0.000000 0.000000 0.000000 0.043783
#
#
# Mechanical properties :
#
#
# Convention : Reuss Voigt Hill
#
# Bulk Modulus (GPa) = 61.95790 64.14582 63.05186
# Shear Modulus (GPa) = 21.85109 24.38544 23.11826
#
# Velocity S-wave (km/s) = 3.29383 3.47960 3.38799
# Velocity P-wave (km/s) = 6.72521 6.92767 6.82719
#
# Compressibility (1/GPa) = 0.01613999
#
# Stress axis : x y z
#
# Youngs Moduli (GPa) = 102.81644 63.43573 51.13203
#
# Poissons Ratio (x) = 0.16677 0.19312
# Poissons Ratio (y) = 0.27030 0.41150
# Poissons Ratio (z) = 0.38832 0.51052
#
# Static dielectric constant tensor:
#      x y z
#    x 1.692150 0.000000 0.000000 
#    y 0.000000 1.846390 0.000000 
#    z 0.000000 0.000000 1.862740 
# 
# From -- ./inp_files/17156.got.cif
#   From: 2010.05.17/outbox.cif.g08.bks.cpg/sg68_9_cif.got.tgz:17156.got - 2010.06.03 18:57:09.
