data_PCOD9506199
_publ_section_title
;
Structure prediction by ZEFSAII (Michael W. Deem and Ramdas Pophale) SiO2 
 PCOD9506199
Probable space group: C C C A
;
_chemical_formula_sum "Si O2"
_cell_formula_units_Z 80
_cell_length_a 14.836997
_cell_length_b 9.156495
_cell_length_c 24.464238
_cell_angle_alpha 90.000000
_cell_angle_beta 90.000000
_cell_angle_gamma 90.000000
_cell_volume 3323.586334
_symmetry_space_group_name_H-M "C C C A"
_symmetry_group_IT_number 68
_space_group.IT_coordinate_system_code '2'
_symmetry_cell_setting 'orthorhombic'
loop_
_space_group_symop_operation_xyz
x,y,z
-x,1/2-y,z
x,1/2-y,1/2-z
-x,y,1/2-z
-x,-y,-z
x,1/2+y,-z
-x,1/2+y,1/2+z
x,-y,1/2+z
1/2+x,1/2+y,z
1/2-x,-y,z
1/2+x,-y,1/2-z
1/2-x,1/2+y,1/2-z
1/2-x,1/2-y,-z
1/2+x,y,-z
1/2-x,y,1/2+z
1/2+x,1/2-y,1/2+z
loop_
_atom_site_type_symbol
_atom_site_label
_atom_site_fract_x
_atom_site_fract_y
_atom_site_fract_z
Si Si1 0.399610 0.816436 0.569140
Si Si2 0.146562 0.464453 0.516126
Si Si3 0.582890 0.139982 0.320361
Si Si4 0.043999 0.909335 0.879800
Si Si5 0.608150 0.410092 0.764482
O O1 0.500000 0.750000 0.573477
O O2 0.359115 0.708193 0.524060
O O3 0.389087 0.973484 0.541182
O O4 0.357984 0.793876 0.630027
O O5 0.250000 0.500000 0.521548
O O6 0.089127 0.538705 0.564626
O O7 0.500000 0.250000 0.305525
O O8 0.533880 0.015802 0.356898
O O9 0.632105 0.055461 0.270802
O O10 0.114774 0.921701 0.829478
O O11 0.000000 0.750000 0.883262
O O12 0.645996 0.250000 0.750000
O O13 0.500000 0.403031 0.750000
#
# Coordination Sequence:
#
# PCOD9506199 Si02
#       5
#    16  16  16  16  16
#     4  11  23  42  64  93 120 162 220 262 312 368
#     4  12  26  42  61  90 131 170 207 262 324 376
#     4  10  19  35  59  98 123 151 208 272 304 350
#     4  11  20  36  62  94 123 163 207 255 305 374
#     4   9  16  30  54  93 124 148 197 258 309 358
#
# _framework density 24.070383
#
# number of rings (size 3 to 8) (size 9 to 14) (size 15 to 20)
#    0.000    1.400    8.000    1.800    2.800    3.600 
#    0.000    0.000    0.000    3.600    0.000    0.000 
#    0.000    0.000    0.000    0.000    0.000    0.000 
#
# Total GULP energy -223071.167993 kJ/mol
# GULP energy per Si atom -5576.779200 kJ/mol
# Density = 2.401560 g / cm^3
# Si number density = 24.070383 Si / 1000 Ang^3
#
#
#
# Elastic Constant Matrix: (Units=GPa)
#
#
# Indices 1 2 3 4 5 6 
#
# 1 34.9620 5.4780 5.1193 0.0000 0.0000 0.0000
# 2 5.4780 110.9636 38.4463 0.0000 0.0000 0.0000
# 3 5.1193 38.4463 153.1171 0.0000 0.0000 0.0000
# 4 0.0000 0.0000 0.0000 37.2832 0.0000 0.0000
# 5 0.0000 0.0000 0.0000 0.0000 -35.4996 0.0000
# 6 0.0000 0.0000 0.0000 0.0000 0.0000 11.3816
#
#
#
# Elastic Compliance Matrix: (Units=1/GPa)
#
#
# Indices 1 2 3 4 5 6 
#
# 1 0.028887 -0.001195 -0.000666 0.000000 0.000000 0.000000
# 2 -0.001195 0.009920 -0.002451 0.000000 0.000000 0.000000
# 3 -0.000666 -0.002451 0.007169 0.000000 0.000000 0.000000
# 4 0.000000 0.000000 0.000000 0.026822 0.000000 0.000000
# 5 0.000000 0.000000 0.000000 0.000000 -0.028169 0.000000
# 6 0.000000 0.000000 0.000000 0.000000 0.000000 0.087861
#
#
# Mechanical properties :
#
#
# Convention : Reuss Voigt Hill
#
# Bulk Modulus (GPa) = 26.77230 44.12554 35.44892
# Shear Modulus (GPa) = 32.55960 19.29964 25.92962
#
# Velocity S-wave (km/s) = 3.68187 2.83468 3.28570
# Velocity P-wave (km/s) = 5.40570 5.39310 5.39940
#
# Compressibility (1/GPa) = 0.03735204
#
# Stress axis : x y z
#
# Youngs Moduli (GPa) = 34.61731 100.80486 139.49720
#
# Poissons Ratio (x) = 0.12051 0.09286
# Poissons Ratio (y) = 0.04138 0.34189
# Poissons Ratio (z) = 0.02304 0.24706
#
# Static dielectric constant tensor:
#      x y z
#    x 1.967870 0.000000 0.000000 
#    y 0.000000 2.123460 0.000000 
#    z 0.000000 0.000000 2.080920 
# 
# From -- ./inp_files/51306.got.cif
#   From: 2010.05.17/outbox.cif.g08.bks.cpg/sg68_26_cif.got.tgz:51306.got - 2010.06.03 18:57:09.
