data_PCOD9506709
_publ_section_title
;
Structure prediction by ZEFSAII (Michael W. Deem and Ramdas Pophale) SiO2 
 PCOD9506709
Probable space group: C C C A
;
_chemical_formula_sum "Si O2"
_cell_formula_units_Z 60
_cell_length_a 19.330732
_cell_length_b 31.135404
_cell_length_c 4.803169
_cell_angle_alpha 90.000000
_cell_angle_beta 90.000000
_cell_angle_gamma 90.000000
_cell_volume 2890.884049
_symmetry_space_group_name_H-M "C C C A"
_symmetry_group_IT_number 68
_space_group.IT_coordinate_system_code '2'
_symmetry_cell_setting 'orthorhombic'
loop_
_space_group_symop_operation_xyz
x,y,z
-x,1/2-y,z
x,1/2-y,1/2-z
-x,y,1/2-z
-x,-y,-z
x,1/2+y,-z
-x,1/2+y,1/2+z
x,-y,1/2+z
1/2+x,1/2+y,z
1/2-x,-y,z
1/2+x,-y,1/2-z
1/2-x,1/2+y,1/2-z
1/2-x,1/2-y,-z
1/2+x,y,-z
1/2-x,y,1/2+z
1/2+x,1/2-y,1/2+z
loop_
_atom_site_type_symbol
_atom_site_label
_atom_site_fract_x
_atom_site_fract_y
_atom_site_fract_z
Si Si1 0.500000 0.750000 0.250000
Si Si2 0.921921 0.470559 0.708159
Si Si3 0.203520 0.084115 0.941540
Si Si4 0.906216 0.750000 0.250000
Si Si5 0.795608 0.685828 0.490453
O O1 0.550520 0.729699 0.487840
O O2 0.915764 0.485821 0.391212
O O3 0.862825 0.439549 0.820245
O O4 0.000000 0.453602 0.750000
O O5 0.269715 0.073244 0.748198
O O6 0.190997 0.135338 0.943099
O O7 0.858927 0.713822 0.388354
O O8 0.772310 0.695301 0.803459
#
# Coordination Sequence:
#
# PCOD9506709 Si02
#       5
#     4  16  16   8  16
#     4  10  24  36  52  80 116 150 180 240 260 330
#     4  10  21  37  56  78 111 148 188 224 274 342
#     4  10  21  36  56  85 115 139 186 238 279 325
#     4  11  20  39  58  79 118 149 190 224 276 333
#     4  10  20  35  60  85 109 144 187 238 279 329
#
# _framework density 20.754899000000002
#
# number of rings (size 3 to 8) (size 9 to 14) (size 15 to 20)
#    0.000    1.867    0.000    4.000    0.000    3.200 
#    4.800    0.000    5.867    0.000    0.000    0.000 
#    0.000    0.000    0.000    0.000    0.000    0.000 
#
# Total GULP energy -167309.412358 kJ/mol
# GULP energy per Si atom -5576.980412 kJ/mol
# Density = 2.070766 g / cm^3
# Si number density = 20.754899 Si / 1000 Ang^3
#
#
#
# Elastic Constant Matrix: (Units=GPa)
#
#
# Indices 1 2 3 4 5 6 
#
# 1 89.3933 33.8237 2.9890 0.0000 0.0000 0.0000
# 2 33.8237 26.2247 -1.1018 0.0000 0.0000 0.0000
# 3 2.9890 -1.1018 88.5503 0.0000 0.0000 0.0000
# 4 0.0000 0.0000 0.0000 18.7401 0.0000 0.0000
# 5 0.0000 0.0000 0.0000 0.0000 21.5970 0.0000
# 6 0.0000 0.0000 0.0000 0.0000 0.0000 -16.1271
#
#
#
# Elastic Compliance Matrix: (Units=1/GPa)
#
#
# Indices 1 2 3 4 5 6 
#
# 1 0.021954 -0.028362 -0.001094 0.000000 0.000000 0.000000
# 2 -0.028362 0.074792 0.001888 0.000000 0.000000 0.000000
# 3 -0.001094 0.001888 0.011353 0.000000 0.000000 0.000000
# 4 0.000000 0.000000 0.000000 0.053362 0.000000 0.000000
# 5 0.000000 0.000000 0.000000 0.000000 0.046303 0.000000
# 6 0.000000 0.000000 0.000000 0.000000 0.000000 -0.062007
#
#
# Mechanical properties :
#
#
# Convention : Reuss Voigt Hill
#
# Bulk Modulus (GPa) = 18.88093 30.62114 24.75104
# Shear Modulus (GPa) = 22.87837 16.07249 19.47543
#
# Velocity S-wave (km/s) = 3.32371 2.78581 3.06658
# Velocity P-wave (km/s) = 4.88326 5.01332 4.94872
#
# Compressibility (1/GPa) = 0.05296349
#
# Stress axis : x y z
#
# Youngs Moduli (GPa) = 45.54887 13.37046 88.07902
#
# Poissons Ratio (x) = 0.37921 0.09636
# Poissons Ratio (y) = 1.29186 -0.16629
# Poissons Ratio (z) = 0.04983 -0.02524
#
# Static dielectric constant tensor:
#      x y z
#    x 1.778270 0.000000 0.000000 
#    y 0.000000 1.714460 0.000000 
#    z 0.000000 0.000000 1.734490 
# 
# From -- ./inp_files/1011.got.cif
#   From: 2010.05.17/outbox.cif.g08.bks.cpg/sg68_1_cif.got.tgz:1011.got - 2010.06.03 18:57:09.
