data_PCOD9506358
_publ_section_title
;
Structure prediction by ZEFSAII (Michael W. Deem and Ramdas Pophale) SiO2 
 PCOD9506358
Probable space group: C C C A
;
_chemical_formula_sum "Si O2"
_cell_formula_units_Z 112
_cell_length_a 14.438772
_cell_length_b 13.379890
_cell_length_c 27.814734
_cell_angle_alpha 90.000000
_cell_angle_beta 90.000000
_cell_angle_gamma 90.000000
_cell_volume 5373.505684
_symmetry_space_group_name_H-M "C C C A"
_symmetry_group_IT_number 68
_space_group.IT_coordinate_system_code '2'
_symmetry_cell_setting 'orthorhombic'
loop_
_space_group_symop_operation_xyz
x,y,z
-x,1/2-y,z
x,1/2-y,1/2-z
-x,y,1/2-z
-x,-y,-z
x,1/2+y,-z
-x,1/2+y,1/2+z
x,-y,1/2+z
1/2+x,1/2+y,z
1/2-x,-y,z
1/2+x,-y,1/2-z
1/2-x,1/2+y,1/2-z
1/2-x,1/2-y,-z
1/2+x,y,-z
1/2-x,y,1/2+z
1/2+x,1/2-y,1/2+z
loop_
_atom_site_type_symbol
_atom_site_label
_atom_site_fract_x
_atom_site_fract_y
_atom_site_fract_z
Si Si1 0.052049 0.959627 0.703169
Si Si2 0.414822 0.306900 0.300962
Si Si3 0.701397 0.799306 0.302895
Si Si4 0.842070 0.225709 0.406989
Si Si5 0.521618 0.039113 0.901799
Si Si6 0.342844 0.938066 0.457718
Si Si7 0.820072 0.586379 0.071438
O O1 0.151923 0.906996 0.699894
O O2 0.997819 0.939421 0.653611
O O3 0.000000 0.919566 0.750000
O O4 0.062164 0.078003 0.707404
O O5 0.500000 0.250000 0.327214
O O6 0.408574 0.250000 0.250000
O O7 0.308979 0.302372 0.317929
O O8 0.691700 0.750000 0.250000
O O9 0.652587 0.751858 0.349885
O O10 0.916859 0.136627 0.418045
O O11 0.850846 0.326664 0.436473
O O12 0.740175 0.184109 0.420604
O O13 0.435891 0.015107 0.935868
O O14 0.586666 0.940723 0.901091
O O15 0.341575 0.930423 0.515280
O O16 0.250000 0.000000 0.443899
O O17 0.750000 0.500000 0.088122
#
# Coordination Sequence:
#
# PCOD9506358 Si02
#       7
#    16  16  16  16  16  16  16
#     4  11  22  38  61  90 123 165 211 254 304 362
#     4  10  19  38  59  85 117 161 210 248 306 367
#     4  10  23  38  60  90 124 165 212 255 301 365
#     4  10  21  41  63  90 123 165 209 252 316 381
#     4  10  22  40  64  88 123 165 209 254 310 386
#     4  11  23  39  60  94 127 157 201 265 326 358
#     4   9  19  39  67  90 118 158 210 262 307 383
#
# _framework density 20.843004000000001
#
# number of rings (size 3 to 8) (size 9 to 14) (size 15 to 20)
#    0.000    1.857    1.429    2.571    2.000    3.714 
#    0.000    2.143    0.000    0.000    0.000    0.000 
#    0.000    0.000    0.000    0.000    0.000    0.000 
#
# Total GULP energy -312149.099779 kJ/mol
# GULP energy per Si atom -5574.091067 kJ/mol
# Density = 2.079556 g / cm^3
# Si number density = 20.843004 Si / 1000 Ang^3
#
#
#
# Elastic Constant Matrix: (Units=GPa)
#
#
# Indices 1 2 3 4 5 6 
#
# 1 105.9059 21.3288 39.5462 0.0000 0.0000 0.0000
# 2 21.3288 63.4303 -9.4331 0.0000 0.0000 0.0000
# 3 39.5462 -9.4331 80.0429 0.0000 0.0000 0.0000
# 4 0.0000 0.0000 0.0000 22.1776 0.0000 0.0000
# 5 0.0000 0.0000 0.0000 0.0000 21.0915 0.0000
# 6 0.0000 0.0000 0.0000 0.0000 0.0000 76.7767
#
#
#
# Elastic Compliance Matrix: (Units=1/GPa)
#
#
# Indices 1 2 3 4 5 6 
#
# 1 0.013240 -0.005522 -0.007192 0.000000 0.000000 0.000000
# 2 -0.005522 0.018349 0.004890 0.000000 0.000000 0.000000
# 3 -0.007192 0.004890 0.016623 0.000000 0.000000 0.000000
# 4 0.000000 0.000000 0.000000 0.045090 0.000000 0.000000
# 5 0.000000 0.000000 0.000000 0.000000 0.047412 0.000000
# 6 0.000000 0.000000 0.000000 0.000000 0.000000 0.013025
#
#
# Mechanical properties :
#
#
# Convention : Reuss Voigt Hill
#
# Bulk Modulus (GPa) = 30.70703 39.14034 34.92368
# Shear Modulus (GPa) = 27.74056 37.20499 32.47277
#
# Velocity S-wave (km/s) = 3.65215 4.22952 3.95139
# Velocity P-wave (km/s) = 5.70515 6.53232 6.13270
#
# Compressibility (1/GPa) = 0.03256584
#
# Stress axis : x y z
#
# Youngs Moduli (GPa) = 75.52901 54.49802 60.15766
#
# Poissons Ratio (x) = 0.30092 0.43266
# Poissons Ratio (y) = 0.41704 -0.29420
# Poissons Ratio (z) = 0.54321 -0.26652
#
# Static dielectric constant tensor:
#      x y z
#    x 1.834990 0.000000 0.000000 
#    y 0.000000 1.735420 0.000000 
#    z 0.000000 0.000000 1.653080 
# 
# From -- ./inp_files/55279.got.cif
#   From: 2010.05.17/outbox.cif.g08.bks.cpg/sg68_28_cif.got.tgz:55279.got - 2010.06.03 18:57:09.
