data_PCOD9506821
_publ_section_title
;
Structure prediction by ZEFSAII (Michael W. Deem and Ramdas Pophale) SiO2 
 PCOD9506821
Probable space group: C C C A
;
_chemical_formula_sum "Si O2"
_cell_formula_units_Z 104
_cell_length_a 7.951965
_cell_length_b 22.044627
_cell_length_c 30.232036
_cell_angle_alpha 90.000000
_cell_angle_beta 90.000000
_cell_angle_gamma 90.000000
_cell_volume 5299.618541
_symmetry_space_group_name_H-M "C C C A"
_symmetry_group_IT_number 68
_space_group.IT_coordinate_system_code '2'
_symmetry_cell_setting 'orthorhombic'
loop_
_space_group_symop_operation_xyz
x,y,z
-x,1/2-y,z
x,1/2-y,1/2-z
-x,y,1/2-z
-x,-y,-z
x,1/2+y,-z
-x,1/2+y,1/2+z
x,-y,1/2+z
1/2+x,1/2+y,z
1/2-x,-y,z
1/2+x,-y,1/2-z
1/2-x,1/2+y,1/2-z
1/2-x,1/2-y,-z
1/2+x,y,-z
1/2-x,y,1/2+z
1/2+x,1/2-y,1/2+z
loop_
_atom_site_type_symbol
_atom_site_label
_atom_site_fract_x
_atom_site_fract_y
_atom_site_fract_z
Si Si1 0.588922 0.184219 0.053718
Si Si2 0.612556 0.809282 0.371115
Si Si3 0.935696 0.025002 0.452985
Si Si4 0.734363 0.348037 0.537337
Si Si5 0.198234 0.256573 0.700764
Si Si6 0.250000 0.000000 0.887712
Si Si7 0.718887 0.867895 0.139456
O O1 0.500000 0.250000 0.058301
O O2 0.431543 0.138932 0.044646
O O3 0.692850 0.162396 0.096181
O O4 0.704658 0.182075 0.010187
O O5 0.500000 0.750000 0.367694
O O6 0.687843 0.809058 0.419774
O O7 0.742452 0.797347 0.331983
O O8 0.483665 0.864274 0.365132
O O9 0.890944 0.095449 0.459583
O O10 0.085756 0.011259 0.418676
O O11 0.750000 0.000000 0.440541
O O12 0.000000 0.000000 0.500000
O O13 0.272059 0.250000 0.750000
O O14 0.237596 0.322336 0.679465
O O15 0.000000 0.250000 0.703398
O O16 0.272770 0.937956 0.860024
#
# Coordination Sequence:
#
# PCOD9506821 Si02
#       7
#    16  16  16  16  16   8  16
#     4  12  24  37  57  86 125 176 217 276 324 378
#     4  10  20  36  60  89 121 153 204 257 310 380
#     4  12  24  38  58  84 122 181 236 273 309 380
#     4  12  22  37  54  84 124 167 222 265 322 370
#     4  10  22  42  72 100 125 158 203 263 330 401
#     4  12  24  42  62  92 134 174 224 270 324 380
#     4  11  22  40  62  93 128 168 210 262 322 383
#
# _framework density 19.624054000000001
#
# number of rings (size 3 to 8) (size 9 to 14) (size 15 to 20)
#    0.000    0.769    2.308    7.846    0.000    2.769 
#    0.000    0.000    0.000    3.692    0.000    0.000 
#    0.000    0.000    0.000    0.000    0.000    0.000 
#
# Total GULP energy -290324.813042 kJ/mol
# GULP energy per Si atom -5583.169482 kJ/mol
# Density = 1.957939 g / cm^3
# Si number density = 19.624054 Si / 1000 Ang^3
#
#
#
# Elastic Constant Matrix: (Units=GPa)
#
#
# Indices 1 2 3 4 5 6 
#
# 1 102.4531 18.1039 28.1602 0.0000 0.0000 0.0000
# 2 18.1039 114.3073 47.7104 0.0000 0.0000 0.0000
# 3 28.1602 47.7104 113.5656 0.0000 0.0000 0.0000
# 4 0.0000 0.0000 0.0000 15.6142 0.0000 0.0000
# 5 0.0000 0.0000 0.0000 0.0000 16.1387 0.0000
# 6 0.0000 0.0000 0.0000 0.0000 0.0000 33.4404
#
#
#
# Elastic Compliance Matrix: (Units=1/GPa)
#
#
# Indices 1 2 3 4 5 6 
#
# 1 0.010520 -0.000700 -0.002315 0.000000 0.000000 0.000000
# 2 -0.000700 0.010655 -0.004303 0.000000 0.000000 0.000000
# 3 -0.002315 -0.004303 0.011187 0.000000 0.000000 0.000000
# 4 0.000000 0.000000 0.000000 0.064044 0.000000 0.000000
# 5 0.000000 0.000000 0.000000 0.000000 0.061963 0.000000
# 6 0.000000 0.000000 0.000000 0.000000 0.000000 0.029904
#
#
# Mechanical properties :
#
#
# Convention : Reuss Voigt Hill
#
# Bulk Modulus (GPa) = 56.40879 57.58612 56.99746
# Shear Modulus (GPa) = 23.94431 28.79544 26.36987
#
# Velocity S-wave (km/s) = 3.49686 3.83476 3.66970
# Velocity P-wave (km/s) = 6.71648 7.00111 6.86027
#
# Compressibility (1/GPa) = 0.01772773
#
# Stress axis : x y z
#
# Youngs Moduli (GPa) = 95.05287 93.85127 89.38908
#
# Poissons Ratio (x) = 0.06571 0.20690
# Poissons Ratio (y) = 0.06655 0.38462
# Poissons Ratio (z) = 0.22000 0.40382
#
# Static dielectric constant tensor:
#      x y z
#    x 1.759380 0.000000 0.000000 
#    y 0.000000 1.770270 0.000000 
#    z 0.000000 0.000000 1.802710 
# 
# From -- ./inp_files/49578.got.cif
#   From: 2010.05.17/outbox.cif.g08.bks.cpg/sg68_25_cif.got.tgz:49578.got - 2010.06.03 18:57:09.
