data_PCOD9506730
_publ_section_title
;
Structure prediction by ZEFSAII (Michael W. Deem and Ramdas Pophale) SiO2 
 PCOD9506730
Probable space group: C C C A
;
_chemical_formula_sum "Si O2"
_cell_formula_units_Z 80
_cell_length_a 14.037490
_cell_length_b 11.658635
_cell_length_c 23.340725
_cell_angle_alpha 90.000000
_cell_angle_beta 90.000000
_cell_angle_gamma 90.000000
_cell_volume 3819.895724
_symmetry_space_group_name_H-M "C C C A"
_symmetry_group_IT_number 68
_space_group.IT_coordinate_system_code '2'
_symmetry_cell_setting 'orthorhombic'
loop_
_space_group_symop_operation_xyz
x,y,z
-x,1/2-y,z
x,1/2-y,1/2-z
-x,y,1/2-z
-x,-y,-z
x,1/2+y,-z
-x,1/2+y,1/2+z
x,-y,1/2+z
1/2+x,1/2+y,z
1/2-x,-y,z
1/2+x,-y,1/2-z
1/2-x,1/2+y,1/2-z
1/2-x,1/2-y,-z
1/2+x,y,-z
1/2-x,y,1/2+z
1/2+x,1/2-y,1/2+z
loop_
_atom_site_type_symbol
_atom_site_label
_atom_site_fract_x
_atom_site_fract_y
_atom_site_fract_z
Si Si1 0.761622 0.750000 0.750000
Si Si2 0.983718 0.613771 0.317249
Si Si3 0.638023 0.410806 0.842619
Si Si4 0.706507 0.254182 0.937189
Si Si5 0.000000 0.750000 0.600635
Si Si6 0.681495 0.396172 0.151530
O O1 0.821702 0.656470 0.786854
O O2 0.694195 0.812635 0.794752
O O3 0.887569 0.544269 0.333475
O O4 0.000000 0.750000 0.327113
O O5 0.000000 0.590579 0.250000
O O6 0.073257 0.566039 0.353201
O O7 0.700111 0.371244 0.898404
O O8 0.538085 0.349830 0.858258
O O9 0.594462 0.217550 0.935350
O O10 0.773197 0.168996 0.901653
O O11 0.750000 0.250000 0.000000
O O12 0.750000 0.500000 0.164512
#
# Coordination Sequence:
#
# PCOD9506730 Si02
#       6
#     8  16  16  16   8  16
#     4  10  20  35  63  98 122 168 220 271 322 385
#     4  11  23  38  56  89 141 178 206 259 334 394
#     4   9  20  35  64  95 123 164 224 266 319 395
#     4   9  20  41  64  94 121 160 221 280 329 381
#     4   8  18  35  66  96 122 151 220 280 318 378
#     4  11  22  39  62  92 130 171 215 265 322 392
#
# _framework density 20.942981
#
# number of rings (size 3 to 8) (size 9 to 14) (size 15 to 20)
#    1.200    1.000    0.000    3.600    2.800    0.000 
#    1.800    6.000    0.000    0.000    0.000    0.000 
#    0.000    0.000    0.000    0.000    0.000    0.000 
#
# Total GULP energy -222670.219297 kJ/mol
# GULP energy per Si atom -5566.755482 kJ/mol
# Density = 2.089531 g / cm^3
# Si number density = 20.942981 Si / 1000 Ang^3
#
#
#
# Elastic Constant Matrix: (Units=GPa)
#
#
# Indices 1 2 3 4 5 6 
#
# 1 129.4737 35.9727 53.0767 0.0000 0.0000 0.0000
# 2 35.9727 95.9214 20.6865 0.0000 0.0000 0.0000
# 3 53.0767 20.6865 104.2317 0.0000 0.0000 0.0000
# 4 0.0000 0.0000 0.0000 6.5614 0.0000 0.0000
# 5 0.0000 0.0000 0.0000 0.0000 5.8250 0.0000
# 6 0.0000 0.0000 0.0000 0.0000 0.0000 40.6881
#
#
#
# Elastic Compliance Matrix: (Units=1/GPa)
#
#
# Indices 1 2 3 4 5 6 
#
# 1 0.010482 -0.002904 -0.004761 0.000000 0.000000 0.000000
# 2 -0.002904 0.011696 -0.000842 0.000000 0.000000 0.000000
# 3 -0.004761 -0.000842 0.012186 0.000000 0.000000 0.000000
# 4 0.000000 0.000000 0.000000 0.152406 0.000000 0.000000
# 5 0.000000 0.000000 0.000000 0.000000 0.171675 0.000000
# 6 0.000000 0.000000 0.000000 0.000000 0.000000 0.024577
#
#
# Mechanical properties :
#
#
# Convention : Reuss Voigt Hill
#
# Bulk Modulus (GPa) = 57.64322 61.01097 59.32709
# Shear Modulus (GPa) = 12.32070 25.27429 18.79750
#
# Velocity S-wave (km/s) = 2.42812 3.47769 2.99917
# Velocity P-wave (km/s) = 5.95354 6.73209 6.35475
#
# Compressibility (1/GPa) = 0.01734809
#
# Stress axis : x y z
#
# Youngs Moduli (GPa) = 95.39797 85.49902 82.06276
#
# Poissons Ratio (x) = 0.24831 0.39074
# Poissons Ratio (y) = 0.27706 0.06913
# Poissons Ratio (z) = 0.45423 0.07202
#
# Static dielectric constant tensor:
#      x y z
#    x 1.800130 0.000000 0.000000 
#    y 0.000000 1.632120 0.000000 
#    z 0.000000 0.000000 1.698010 
# 
# From -- ./inp_files/45249.got.cif
#   From: 2010.05.17/outbox.cif.g08.bks.cpg/sg68_23_cif.got.tgz:45249.got - 2010.06.03 18:57:09.
