data_PCOD9506030
_publ_section_title
;
Structure prediction by ZEFSAII (Michael W. Deem and Ramdas Pophale) SiO2 
 PCOD9506030
Probable space group: C C C A
;
_chemical_formula_sum "Si O2"
_cell_formula_units_Z 104
_cell_length_a 7.977132
_cell_length_b 25.083472
_cell_length_c 25.417831
_cell_angle_alpha 90.000000
_cell_angle_beta 90.000000
_cell_angle_gamma 90.000000
_cell_volume 5085.959725
_symmetry_space_group_name_H-M "C C C A"
_symmetry_group_IT_number 68
_space_group.IT_coordinate_system_code '2'
_symmetry_cell_setting 'orthorhombic'
loop_
_space_group_symop_operation_xyz
x,y,z
-x,1/2-y,z
x,1/2-y,1/2-z
-x,y,1/2-z
-x,-y,-z
x,1/2+y,-z
-x,1/2+y,1/2+z
x,-y,1/2+z
1/2+x,1/2+y,z
1/2-x,-y,z
1/2+x,-y,1/2-z
1/2-x,1/2+y,1/2-z
1/2-x,1/2-y,-z
1/2+x,y,-z
1/2-x,y,1/2+z
1/2+x,1/2-y,1/2+z
loop_
_atom_site_type_symbol
_atom_site_label
_atom_site_fract_x
_atom_site_fract_y
_atom_site_fract_z
Si Si1 0.067418 0.022490 0.056046
Si Si2 0.465261 0.166827 0.443329
Si Si3 0.765394 0.260158 0.084812
Si Si4 0.004243 0.357400 0.440746
Si Si5 0.250000 0.500000 0.632051
Si Si6 0.311693 0.774459 0.803839
Si Si7 0.723919 0.116536 0.144742
O O1 0.099037 0.086230 0.056327
O O2 0.250000 0.000000 0.068658
O O3 0.915466 0.008784 0.095927
O O4 0.000000 0.000000 0.000000
O O5 0.605224 0.201611 0.416048
O O6 0.303471 0.207928 0.447291
O O7 0.543325 0.146790 0.497443
O O8 0.412307 0.121627 0.402486
O O9 0.910437 0.299662 0.066470
O O10 0.788772 0.243757 0.144864
O O11 0.887491 0.367507 0.389903
O O12 0.268066 0.555718 0.662896
O O13 0.500000 0.750000 0.807745
O O14 0.242370 0.750000 0.750000
O O15 0.313464 0.838616 0.811450
#
# Coordination Sequence:
#
# PCOD9506030 Si02
#       7
#    16  16  16  16   8  16  16
#     4  11  23  35  52  80 116 169 218 246 284 344
#     4  10  19  33  52  78 116 161 185 235 279 343
#     4  10  20  35  51  83 110 147 194 232 293 358
#     4  11  23  32  53  81 121 158 195 240 290 350
#     4  10  22  38  58  84 118 162 206 256 296 344
#     4  10  20  39  63  89 111 145 195 247 311 372
#     4  10  21  38  57  87 116 155 202 242 294 355
#
# _framework density 20.448450999999999
#
# number of rings (size 3 to 8) (size 9 to 14) (size 15 to 20)
#    0.000    1.692    3.846    2.308    6.462    6.154 
#    0.000    1.538    0.000    0.000   18.000    0.000 
#    0.000    0.000    0.000    0.000    0.000    0.000 
#
# Total GULP energy -289492.888912 kJ/mol
# GULP energy per Si atom -5567.170941 kJ/mol
# Density = 2.040191 g / cm^3
# Si number density = 20.448451 Si / 1000 Ang^3
#
#
#
# Elastic Constant Matrix: (Units=GPa)
#
#
# Indices 1 2 3 4 5 6 
#
# 1 59.7703 27.0222 4.4826 0.0000 0.0000 0.0000
# 2 27.0222 186.0369 37.9427 0.0000 0.0000 0.0000
# 3 4.4826 37.9427 79.5171 0.0000 0.0000 0.0000
# 4 0.0000 0.0000 0.0000 -9.9838 0.0000 0.0000
# 5 0.0000 0.0000 0.0000 0.0000 23.0131 0.0000
# 6 0.0000 0.0000 0.0000 0.0000 0.0000 24.2237
#
#
#
# Elastic Compliance Matrix: (Units=1/GPa)
#
#
# Indices 1 2 3 4 5 6 
#
# 1 0.017911 -0.002654 0.000257 0.000000 0.000000 0.000000
# 2 -0.002654 0.006348 -0.002879 0.000000 0.000000 0.000000
# 3 0.000257 -0.002879 0.013935 0.000000 0.000000 0.000000
# 4 0.000000 0.000000 0.000000 -0.100162 0.000000 0.000000
# 5 0.000000 0.000000 0.000000 0.000000 0.043453 0.000000
# 6 0.000000 0.000000 0.000000 0.000000 0.000000 0.041282
#
#
# Mechanical properties :
#
#
# Convention : Reuss Voigt Hill
#
# Bulk Modulus (GPa) = 36.17780 51.57993 43.87886
# Shear Modulus (GPa) = 117.54889 24.50904 71.02896
#
# Velocity S-wave (km/s) = 7.59014 3.46580 5.90009
# Velocity P-wave (km/s) = 9.72339 6.42611 8.24133
#
# Compressibility (1/GPa) = 0.02764126
#
# Stress axis : x y z
#
# Youngs Moduli (GPa) = 55.83052 157.52871 71.75966
#
# Poissons Ratio (x) = 0.41808 -0.01842
# Poissons Ratio (y) = 0.14817 0.20663
# Poissons Ratio (z) = -0.01433 0.45360
#
# Static dielectric constant tensor:
#      x y z
#    x 1.709260 0.000000 0.000000 
#    y 0.000000 1.794760 0.000000 
#    z 0.000000 0.000000 1.699890 
# 
# From -- ./inp_files/49572.got.cif
#   From: 2010.05.17/outbox.cif.g08.bks.cpg/sg68_25_cif.got.tgz:49572.got - 2010.06.03 18:57:09.
