data_PCOD9506451
_publ_section_title
;
Structure prediction by ZEFSAII (Michael W. Deem and Ramdas Pophale) SiO2 
 PCOD9506451
Probable space group: C C C A
;
_chemical_formula_sum "Si O2"
_cell_formula_units_Z 88
_cell_length_a 13.048267
_cell_length_b 12.071882
_cell_length_c 25.114110
_cell_angle_alpha 90.000000
_cell_angle_beta 90.000000
_cell_angle_gamma 90.000000
_cell_volume 3955.902769
_symmetry_space_group_name_H-M "C C C A"
_symmetry_group_IT_number 68
_space_group.IT_coordinate_system_code '2'
_symmetry_cell_setting 'orthorhombic'
loop_
_space_group_symop_operation_xyz
x,y,z
-x,1/2-y,z
x,1/2-y,1/2-z
-x,y,1/2-z
-x,-y,-z
x,1/2+y,-z
-x,1/2+y,1/2+z
x,-y,1/2+z
1/2+x,1/2+y,z
1/2-x,-y,z
1/2+x,-y,1/2-z
1/2-x,1/2+y,1/2-z
1/2-x,1/2-y,-z
1/2+x,y,-z
1/2-x,y,1/2+z
1/2+x,1/2-y,1/2+z
loop_
_atom_site_type_symbol
_atom_site_label
_atom_site_fract_x
_atom_site_fract_y
_atom_site_fract_z
Si Si1 0.500000 0.750000 0.632077
Si Si2 0.606887 0.813790 0.161330
Si Si3 0.198234 0.114184 0.446485
Si Si4 0.469996 0.030709 0.310423
Si Si5 0.681722 0.665254 0.562040
Si Si6 0.677258 0.910815 0.344463
O O1 0.553621 0.849979 0.664580
O O2 0.582418 0.682904 0.597713
O O3 0.500000 0.750000 0.170533
O O4 0.621247 0.843132 0.098844
O O5 0.681975 0.714065 0.177898
O O6 0.613238 0.931899 0.189305
O O7 0.283652 0.209305 0.450192
O O8 0.157322 0.104526 0.506679
O O9 0.250000 0.000000 0.429523
O O10 0.500000 0.050066 0.250000
O O11 0.565644 0.968287 0.340856
O O12 0.773857 0.610331 0.596478
O O13 0.750000 0.000000 0.317118
#
# Coordination Sequence:
#
# PCOD9506451 Si02
#       6
#     8  16  16  16  16  16
#     4  12  23  40  64  92 134 166 223 272 328 390
#     4   9  21  38  62  92 128 160 215 270 315 382
#     4  10  20  37  59  91 130 164 218 256 321 393
#     4  11  24  43  65  91 128 169 219 277 325 383
#     4  10  22  37  62  91 126 175 203 266 324 389
#     4  10  19  41  65  89 124 168 208 255 327 391
#
# _framework density 22.245238000000001
#
# number of rings (size 3 to 8) (size 9 to 14) (size 15 to 20)
#    0.000    1.818    1.818    1.909    1.273    3.273 
#    0.000    8.182    0.000    0.000    0.000    0.000 
#    0.000    0.000    0.000    0.000    0.000    0.000 
#
# Total GULP energy -245074.285238 kJ/mol
# GULP energy per Si atom -5569.870119 kJ/mol
# Density = 2.219461 g / cm^3
# Si number density = 22.245238 Si / 1000 Ang^3
#
#
#
# Elastic Constant Matrix: (Units=GPa)
#
#
# Indices 1 2 3 4 5 6 
#
# 1 7.8966 9.6880 2.1740 0.0000 0.0000 0.0000
# 2 9.6880 150.9115 3.1276 0.0000 0.0000 0.0000
# 3 2.1740 3.1276 61.9761 0.0000 0.0000 0.0000
# 4 0.0000 0.0000 0.0000 16.4377 0.0000 0.0000
# 5 0.0000 0.0000 0.0000 0.0000 11.6972 0.0000
# 6 0.0000 0.0000 0.0000 0.0000 0.0000 23.3255
#
#
#
# Elastic Compliance Matrix: (Units=1/GPa)
#
#
# Indices 1 2 3 4 5 6 
#
# 1 0.138662 -0.008810 -0.004419 0.000000 0.000000 0.000000
# 2 -0.008810 0.007193 -0.000054 0.000000 0.000000 0.000000
# 3 -0.004419 -0.000054 0.016293 0.000000 0.000000 0.000000
# 4 0.000000 0.000000 0.000000 0.060836 0.000000 0.000000
# 5 0.000000 0.000000 0.000000 0.000000 0.085490 0.000000
# 6 0.000000 0.000000 0.000000 0.000000 0.000000 0.042872
#
#
# Mechanical properties :
#
#
# Convention : Reuss Voigt Hill
#
# Bulk Modulus (GPa) = 7.37567 27.86261 17.61914
# Shear Modulus (GPa) = 11.81737 24.01172 17.91454
#
# Velocity S-wave (km/s) = 2.30735 3.28900 2.84090
# Velocity P-wave (km/s) = 3.22820 5.19382 4.32418
#
# Compressibility (1/GPa) = 0.13558098
#
# Stress axis : x y z
#
# Youngs Moduli (GPa) = 7.21179 139.02223 61.37600
#
# Poissons Ratio (x) = 1.22479 0.27125
# Poissons Ratio (y) = 0.06354 0.00331
# Poissons Ratio (z) = 0.03187 0.00750
#
# Static dielectric constant tensor:
#      x y z
#    x 1.881080 0.000000 0.000000 
#    y 0.000000 1.890250 0.000000 
#    z 0.000000 0.000000 1.858470 
# 
# From -- ./inp_files/45326.got.cif
#   From: 2010.05.17/outbox.cif.g08.bks.cpg/sg68_23_cif.got.tgz:45326.got - 2010.06.03 18:57:09.
