data_PCOD9506748
_publ_section_title
;
Structure prediction by ZEFSAII (Michael W. Deem and Ramdas Pophale) SiO2 
 PCOD9506748
Probable space group: C C C A
;
_chemical_formula_sum "Si O2"
_cell_formula_units_Z 108
_cell_length_a 15.852671
_cell_length_b 23.502125
_cell_length_c 14.731051
_cell_angle_alpha 90.000000
_cell_angle_beta 90.000000
_cell_angle_gamma 90.000000
_cell_volume 5488.369111
_symmetry_space_group_name_H-M "C C C A"
_symmetry_group_IT_number 68
_space_group.IT_coordinate_system_code '2'
_symmetry_cell_setting 'orthorhombic'
loop_
_space_group_symop_operation_xyz
x,y,z
-x,1/2-y,z
x,1/2-y,1/2-z
-x,y,1/2-z
-x,-y,-z
x,1/2+y,-z
-x,1/2+y,1/2+z
x,-y,1/2+z
1/2+x,1/2+y,z
1/2-x,-y,z
1/2+x,-y,1/2-z
1/2-x,1/2+y,1/2-z
1/2-x,1/2-y,-z
1/2+x,y,-z
1/2-x,y,1/2+z
1/2+x,1/2-y,1/2+z
loop_
_atom_site_type_symbol
_atom_site_label
_atom_site_fract_x
_atom_site_fract_y
_atom_site_fract_z
Si Si1 0.095890 0.436149 0.734228
Si Si2 0.851375 0.876734 0.967717
Si Si3 0.410295 0.996362 0.948939
Si Si4 0.000000 0.750000 0.250000
Si Si5 0.696844 0.942745 0.918282
Si Si6 0.147920 0.819424 0.348105
Si Si7 0.449219 0.194717 0.658491
Si Si8 0.791514 0.750000 0.750000
O O1 0.092403 0.487416 0.660048
O O2 0.134839 0.445154 0.832944
O O3 0.144768 0.382798 0.692492
O O4 0.000000 0.418542 0.750000
O O5 0.761009 0.889653 0.920968
O O6 0.929600 0.858443 0.904742
O O7 0.872279 0.936974 0.014161
O O8 0.847182 0.828195 0.044206
O O9 0.500000 0.000000 0.000000
O O10 0.354304 0.048185 0.987814
O O11 0.936233 0.712967 0.312708
O O12 0.750000 0.000000 0.907173
O O13 0.229704 0.788008 0.310199
O O14 0.500000 0.250000 0.620278
O O15 0.500000 0.179616 0.750000
O O16 0.355944 0.215093 0.687178
#
# Coordination Sequence:
#
# PCOD9506748 Si02
#       8
#    16  16  16   4  16  16  16   8
#     4  11  20  36  62  85 116 159 200 243 309 355
#     4  10  22  39  59  90 120 155 206 249 310 364
#     4  10  21  40  59  88 121 153 201 250 299 367
#     4  10  20  36  54  88 124 156 206 244 312 362
#     4  10  22  40  59  87 125 155 200 259 298 369
#     4  10  21  35  58  88 120 158 196 257 301 375
#     4   9  20  41  60  82 122 158 199 252 296 361
#     4   9  19  39  59  82 120 156 205 245 309 361
#
# _framework density 19.677976000000001
#
# number of rings (size 3 to 8) (size 9 to 14) (size 15 to 20)
#    0.000    2.222    2.222    0.889    1.037    3.556 
#   10.667    0.000    0.000    0.000    0.000    0.000 
#    0.000    0.000    0.000    0.000    0.000    0.000 
#
# Total GULP energy -300808.340039 kJ/mol
# GULP energy per Si atom -5570.524816 kJ/mol
# Density = 1.963319 g / cm^3
# Si number density = 19.677976 Si / 1000 Ang^3
#
#
#
# Elastic Constant Matrix: (Units=GPa)
#
#
# Indices 1 2 3 4 5 6 
#
# 1 122.0329 28.3019 38.8473 0.0000 0.0000 0.0000
# 2 28.3019 42.7376 32.6828 0.0000 0.0000 0.0000
# 3 38.8473 32.6828 87.3940 0.0000 0.0000 0.0000
# 4 0.0000 0.0000 0.0000 22.2858 0.0000 0.0000
# 5 0.0000 0.0000 0.0000 0.0000 19.7635 0.0000
# 6 0.0000 0.0000 0.0000 0.0000 0.0000 22.4328
#
#
#
# Elastic Compliance Matrix: (Units=1/GPa)
#
#
# Indices 1 2 3 4 5 6 
#
# 1 0.010147 -0.004580 -0.002798 0.000000 0.000000 0.000000
# 2 -0.004580 0.034838 -0.010992 0.000000 0.000000 0.000000
# 3 -0.002798 -0.010992 0.016797 0.000000 0.000000 0.000000
# 4 0.000000 0.000000 0.000000 0.044872 0.000000 0.000000
# 5 0.000000 0.000000 0.000000 0.000000 0.050598 0.000000
# 6 0.000000 0.000000 0.000000 0.000000 0.000000 0.044578
#
#
# Mechanical properties :
#
#
# Convention : Reuss Voigt Hill
#
# Bulk Modulus (GPa) = 39.93385 50.20317 45.06851
# Shear Modulus (GPa) = 20.24964 23.05191 21.65078
#
# Velocity S-wave (km/s) = 3.21136 3.42637 3.32061
# Velocity P-wave (km/s) = 5.83851 6.42037 6.13634
#
# Compressibility (1/GPa) = 0.02504141
#
# Stress axis : x y z
#
# Youngs Moduli (GPa) = 98.54746 28.70424 59.53501
#
# Poissons Ratio (x) = 0.13148 0.16656
# Poissons Ratio (y) = 0.45139 0.65443
# Poissons Ratio (z) = 0.27570 0.31553
#
# Static dielectric constant tensor:
#      x y z
#    x 1.798540 0.000000 0.000000 
#    y 0.000000 1.703460 0.000000 
#    z 0.000000 0.000000 1.803620 
# 
# From -- ./inp_files/22640.got.cif
#   From: 2010.05.17/outbox.cif.g08.bks.cpg/sg68_12_cif.got.tgz:22640.got - 2010.06.03 18:57:09.
