data_PCOD9506946
_publ_section_title
;
Structure prediction by ZEFSAII (Michael W. Deem and Ramdas Pophale) SiO2 
 PCOD9506946
Probable space group: C C C A
;
_chemical_formula_sum "Si O2"
_cell_formula_units_Z 104
_cell_length_a 8.033819
_cell_length_b 22.149807
_cell_length_c 30.405636
_cell_angle_alpha 90.000000
_cell_angle_beta 90.000000
_cell_angle_gamma 90.000000
_cell_volume 5410.608138
_symmetry_space_group_name_H-M "C C C A"
_symmetry_group_IT_number 68
_space_group.IT_coordinate_system_code '2'
_symmetry_cell_setting 'orthorhombic'
loop_
_space_group_symop_operation_xyz
x,y,z
-x,1/2-y,z
x,1/2-y,1/2-z
-x,y,1/2-z
-x,-y,-z
x,1/2+y,-z
-x,1/2+y,1/2+z
x,-y,1/2+z
1/2+x,1/2+y,z
1/2-x,-y,z
1/2+x,-y,1/2-z
1/2-x,1/2+y,1/2-z
1/2-x,1/2-y,-z
1/2+x,y,-z
1/2-x,y,1/2+z
1/2+x,1/2-y,1/2+z
loop_
_atom_site_type_symbol
_atom_site_label
_atom_site_fract_x
_atom_site_fract_y
_atom_site_fract_z
Si Si1 0.556046 0.489161 0.800285
Si Si2 0.470213 0.117904 0.635759
Si Si3 0.341175 0.565251 0.050246
Si Si4 0.000000 0.750000 0.890367
Si Si5 0.184060 0.724882 0.453566
Si Si6 0.493830 0.600159 0.961181
Si Si7 0.638841 0.058726 0.371456
O O1 0.500000 0.489577 0.750000
O O2 0.750000 0.500000 0.802899
O O3 0.517385 0.425248 0.823659
O O4 0.466995 0.541880 0.828654
O O5 0.554830 0.086870 0.592588
O O6 0.523071 0.187664 0.636359
O O7 0.269558 0.112826 0.633493
O O8 0.250000 0.500000 0.054332
O O9 0.190394 0.612709 0.041735
O O10 0.455507 0.566815 0.006891
O O11 0.164798 0.738215 0.920151
O O12 0.250000 0.750000 0.500000
O O13 0.135463 0.655001 0.459173
O O14 0.000000 0.750000 0.441244
O O15 0.463122 0.565540 0.915729
O O16 0.750000 0.000000 0.378305
#
# Coordination Sequence:
#
# PCOD9506946 Si02
#       7
#    16  16  16   8  16  16  16
#     4  11  23  43  73 102 127 160 203 263 332 400
#     4  11  22  41  62  93 128 167 214 264 319 385
#     4  12  24  37  57  86 126 172 221 266 332 381
#     4  12  24  42  63  90 130 176 224 272 319 382
#     4  12  24  38  58  84 122 179 234 275 316 372
#     4  12  22  37  54  85 123 171 220 270 316 381
#     4  10  20  37  61  89 124 155 202 260 318 378
#
# _framework density 19.221499000000001
#
# number of rings (size 3 to 8) (size 9 to 14) (size 15 to 20)
#    0.000    0.615    2.308    9.231    0.000    0.000 
#    0.000    0.385    0.000    0.000    0.000    1.077 
#    0.000    0.000    0.000    0.000    0.000    0.000 
#
# Total GULP energy -290345.956085 kJ/mol
# GULP energy per Si atom -5583.576079 kJ/mol
# Density = 1.917775 g / cm^3
# Si number density = 19.221499 Si / 1000 Ang^3
#
#
#
# Elastic Constant Matrix: (Units=GPa)
#
#
# Indices 1 2 3 4 5 6 
#
# 1 128.6257 20.2871 50.2478 0.0000 0.0000 0.0000
# 2 20.2871 74.9427 26.4421 0.0000 0.0000 0.0000
# 3 50.2478 26.4421 136.4936 0.0000 0.0000 0.0000
# 4 0.0000 0.0000 0.0000 -16.6943 0.0000 0.0000
# 5 0.0000 0.0000 0.0000 0.0000 34.6155 0.0000
# 6 0.0000 0.0000 0.0000 0.0000 0.0000 37.0707
#
#
#
# Elastic Compliance Matrix: (Units=1/GPa)
#
#
# Indices 1 2 3 4 5 6 
#
# 1 0.009214 -0.001393 -0.003122 0.000000 0.000000 0.000000
# 2 -0.001393 0.014533 -0.002303 0.000000 0.000000 0.000000
# 3 -0.003122 -0.002303 0.008922 0.000000 0.000000 0.000000
# 4 0.000000 0.000000 0.000000 -0.059901 0.000000 0.000000
# 5 0.000000 0.000000 0.000000 0.000000 0.028889 0.000000
# 6 0.000000 0.000000 0.000000 0.000000 0.000000 0.026975
#
#
# Mechanical properties :
#
#
# Convention : Reuss Voigt Hill
#
# Bulk Modulus (GPa) = 52.53847 59.33510 55.93679
# Shear Modulus (GPa) = 102.85591 27.20405 65.02998
#
# Velocity S-wave (km/s) = 7.32305 3.76612 5.82283
# Velocity P-wave (km/s) = 9.94461 7.06029 8.62389
#
# Compressibility (1/GPa) = 0.01903367
#
# Stress axis : x y z
#
# Youngs Moduli (GPa) = 108.53277 68.80903 112.08496
#
# Poissons Ratio (x) = 0.09582 0.34994
# Poissons Ratio (y) = 0.15114 0.25810
# Poissons Ratio (z) = 0.33885 0.15845
#
# Static dielectric constant tensor:
#      x y z
#    x 1.720240 0.000000 0.000000 
#    y 0.000000 1.767550 0.000000 
#    z 0.000000 0.000000 1.585680 
# 
# From -- ./inp_files/49420.got.cif
#   From: 2010.05.17/outbox.cif.g08.bks.cpg/sg68_25_cif.got.tgz:49420.got - 2010.06.03 18:57:09.
