data_PCOD9506448
_publ_section_title
;
Structure prediction by ZEFSAII (Michael W. Deem and Ramdas Pophale) SiO2 
 PCOD9506448
Probable space group: C C C A
;
_chemical_formula_sum "Si O2"
_cell_formula_units_Z 64
_cell_length_a 16.246917
_cell_length_b 12.845002
_cell_length_c 13.684856
_cell_angle_alpha 90.000000
_cell_angle_beta 90.000000
_cell_angle_gamma 90.000000
_cell_volume 2855.915608
_symmetry_space_group_name_H-M "C C C A"
_symmetry_group_IT_number 68
_space_group.IT_coordinate_system_code '2'
_symmetry_cell_setting 'orthorhombic'
loop_
_space_group_symop_operation_xyz
x,y,z
-x,1/2-y,z
x,1/2-y,1/2-z
-x,y,1/2-z
-x,-y,-z
x,1/2+y,-z
-x,1/2+y,1/2+z
x,-y,1/2+z
1/2+x,1/2+y,z
1/2-x,-y,z
1/2+x,-y,1/2-z
1/2-x,1/2+y,1/2-z
1/2-x,1/2-y,-z
1/2+x,y,-z
1/2-x,y,1/2+z
1/2+x,1/2-y,1/2+z
loop_
_atom_site_type_symbol
_atom_site_label
_atom_site_fract_x
_atom_site_fract_y
_atom_site_fract_z
Si Si1 0.804322 0.635455 0.418441
Si Si2 0.000000 0.750000 0.899683
Si Si3 0.863882 0.351475 0.538222
Si Si4 0.750000 0.000000 0.249121
Si Si5 0.385839 0.430099 0.883928
O O1 0.826980 0.755296 0.400443
O O2 0.713560 0.621089 0.467119
O O3 0.807040 0.567775 0.321829
O O4 0.865082 0.600480 0.504522
O O5 0.049448 0.655774 0.847705
O O6 0.065038 0.810433 0.967645
O O7 0.898825 0.445862 0.603289
O O8 0.694903 0.926322 0.316759
#
# Coordination Sequence:
#
# PCOD9506448 Si02
#       5
#    16   8  16   8  16
#     4  10  21  38  65  98 125 171 231 278 323 403
#     4  10  24  38  67  91 136 178 216 280 343 411
#     4  10  19  41  64  91 129 175 227 267 340 404
#     4  12  20  38  68  96 140 164 226 298 326 400
#     4  11  21  42  65  98 128 178 225 275 339 401
#
# _framework density 22.409625999999999
#
# number of rings (size 3 to 8) (size 9 to 14) (size 15 to 20)
#    0.000    1.500    5.000    0.750    0.000    1.000 
#    0.000    2.500    0.000    6.000    0.000    0.000 
#    0.000    0.000    0.000    0.000    0.000    0.000 
#
# Total GULP energy -178582.624763 kJ/mol
# GULP energy per Si atom -5580.707024 kJ/mol
# Density = 2.235862 g / cm^3
# Si number density = 22.409626 Si / 1000 Ang^3
#
#
#
# Elastic Constant Matrix: (Units=GPa)
#
#
# Indices 1 2 3 4 5 6 
#
# 1 66.0452 33.7162 5.8710 0.0000 0.0000 0.0000
# 2 33.7162 161.8878 42.0072 0.0000 0.0000 0.0000
# 3 5.8710 42.0072 78.5983 0.0000 0.0000 0.0000
# 4 0.0000 0.0000 0.0000 -2.5871 0.0000 0.0000
# 5 0.0000 0.0000 0.0000 0.0000 13.0171 0.0000
# 6 0.0000 0.0000 0.0000 0.0000 0.0000 45.5853
#
#
#
# Elastic Compliance Matrix: (Units=1/GPa)
#
#
# Indices 1 2 3 4 5 6 
#
# 1 0.016978 -0.003723 0.000722 0.000000 0.000000 0.000000
# 2 -0.003723 0.007988 -0.003991 0.000000 0.000000 0.000000
# 3 0.000722 -0.003991 0.014802 0.000000 0.000000 0.000000
# 4 0.000000 0.000000 0.000000 -0.386526 0.000000 0.000000
# 5 0.000000 0.000000 0.000000 0.000000 0.076822 0.000000
# 6 0.000000 0.000000 0.000000 0.000000 0.000000 0.021937
#
#
# Mechanical properties :
#
#
# Convention : Reuss Voigt Hill
#
# Bulk Modulus (GPa) = 38.78580 52.19112 45.48846
# Shear Modulus (GPa) = -22.18084 26.19884 2.00900
#
# Velocity S-wave (km/s) = -3.14951 3.42290 0.94786
# Velocity P-wave (km/s) = 2.02962 6.24194 4.64119
#
# Compressibility (1/GPa) = 0.02578263
#
# Stress axis : x y z
#
# Youngs Moduli (GPa) = 58.90080 125.18466 67.55777
#
# Poissons Ratio (x) = 0.46609 -0.04876
# Poissons Ratio (y) = 0.21930 0.26964
# Poissons Ratio (z) = -0.04251 0.49964
#
# Static dielectric constant tensor:
#      x y z
#    x 1.846590 0.000000 0.000000 
#    y 0.000000 1.947870 0.000000 
#    z 0.000000 0.000000 1.794910 
# 
# From -- ./inp_files/14035.got.cif
#   From: 2010.05.17/outbox.cif.g08.bks.cpg/sg68_8_cif.got.tgz:14035.got - 2010.06.03 18:57:09.
