data_PCOD9506596
_publ_section_title
;
Structure prediction by ZEFSAII (Michael W. Deem and Ramdas Pophale) SiO2 
 PCOD9506596
Probable space group: C C C A
;
_chemical_formula_sum "Si O2"
_cell_formula_units_Z 96
_cell_length_a 28.320116
_cell_length_b 9.732638
_cell_length_c 16.906035
_cell_angle_alpha 90.000000
_cell_angle_beta 90.000000
_cell_angle_gamma 90.000000
_cell_volume 4659.800911
_symmetry_space_group_name_H-M "C C C A"
_symmetry_group_IT_number 68
_space_group.IT_coordinate_system_code '2'
_symmetry_cell_setting 'orthorhombic'
loop_
_space_group_symop_operation_xyz
x,y,z
-x,1/2-y,z
x,1/2-y,1/2-z
-x,y,1/2-z
-x,-y,-z
x,1/2+y,-z
-x,1/2+y,1/2+z
x,-y,1/2+z
1/2+x,1/2+y,z
1/2-x,-y,z
1/2+x,-y,1/2-z
1/2-x,1/2+y,1/2-z
1/2-x,1/2-y,-z
1/2+x,y,-z
1/2-x,y,1/2+z
1/2+x,1/2-y,1/2+z
loop_
_atom_site_type_symbol
_atom_site_label
_atom_site_fract_x
_atom_site_fract_y
_atom_site_fract_z
Si Si1 0.863995 0.461282 0.855756
Si Si2 0.459552 0.858501 0.925581
Si Si3 0.177812 0.742153 0.581276
Si Si4 0.476698 0.616454 0.394854
Si Si5 0.387342 0.609180 0.300066
Si Si6 0.774572 0.856711 0.077537
O O1 0.907782 0.371727 0.888135
O O2 0.853569 0.602120 0.908070
O O3 0.872660 0.503467 0.766275
O O4 0.814491 0.386190 0.859934
O O5 0.500000 0.750000 0.898530
O O6 0.483280 0.005933 0.910825
O O7 0.455168 0.838917 0.020219
O O8 0.149571 0.856288 0.630207
O O9 0.195668 0.784168 0.493363
O O10 0.230029 0.718149 0.616737
O O11 0.500000 0.750000 0.357327
O O12 0.435454 0.562238 0.340508
O O13 0.394368 0.750000 0.250000
O O14 0.750000 0.000000 0.047423
#
# Coordination Sequence:
#
# PCOD9506596 Si02
#       6
#    16  16  16  16  16  16
#     4  10  20  35  57  84 115 152 189 240 303 357
#     4  10  22  38  59  84 115 151 193 245 292 343
#     4   9  18  35  58  84 113 151 200 243 287 354
#     4  10  20  36  58  85 111 148 197 238 281 341
#     4  10  20  34  56  84 113 148 188 235 288 346
#     4   9  18  34  59  86 113 150 193 243 298 347
#
# _framework density 20.601739999999999
#
# number of rings (size 3 to 8) (size 9 to 14) (size 15 to 20)
#    0.000    2.333    0.000    3.000    0.000    5.000 
#    0.000    9.167    0.000    6.000    0.000    0.000 
#    0.000    0.000    0.000    0.000    0.000    0.000 
#
# Total GULP energy -267400.483844 kJ/mol
# GULP energy per Si atom -5570.843413 kJ/mol
# Density = 2.055485 g / cm^3
# Si number density = 20.601740 Si / 1000 Ang^3
#
#
#
# Elastic Constant Matrix: (Units=GPa)
#
#
# Indices 1 2 3 4 5 6 
#
# 1 120.6519 15.6749 38.2021 0.0000 0.0000 0.0000
# 2 15.6749 23.3968 -5.1632 0.0000 0.0000 0.0000
# 3 38.2021 -5.1632 31.1190 0.0000 0.0000 0.0000
# 4 0.0000 0.0000 0.0000 14.6888 0.0000 0.0000
# 5 0.0000 0.0000 0.0000 0.0000 15.0147 0.0000
# 6 0.0000 0.0000 0.0000 0.0000 0.0000 13.9136
#
#
#
# Elastic Compliance Matrix: (Units=1/GPa)
#
#
# Indices 1 2 3 4 5 6 
#
# 1 0.019137 -0.018689 -0.026593 0.000000 0.000000 0.000000
# 2 -0.018689 0.062618 0.033333 0.000000 0.000000 0.000000
# 3 -0.026593 0.033333 0.070311 0.000000 0.000000 0.000000
# 4 0.000000 0.000000 0.000000 0.068079 0.000000 0.000000
# 5 0.000000 0.000000 0.000000 0.000000 0.066601 0.000000
# 6 0.000000 0.000000 0.000000 0.000000 0.000000 0.071872
#
#
# Mechanical properties :
#
#
# Convention : Reuss Voigt Hill
#
# Bulk Modulus (GPa) = 7.80239 30.28839 19.04539
# Shear Modulus (GPa) = 11.75807 17.15370 14.45588
#
# Velocity S-wave (km/s) = 2.39159 2.88867 2.65180
# Velocity P-wave (km/s) = 3.37961 5.08524 4.31749
#
# Compressibility (1/GPa) = 0.12816590
#
# Stress axis : x y z
#
# Youngs Moduli (GPa) = 52.25567 15.96990 14.22244
#
# Poissons Ratio (x) = 0.29847 0.37822
# Poissons Ratio (y) = 0.97663 -0.47407
# Poissons Ratio (z) = 1.38965 -0.53232
#
# Static dielectric constant tensor:
#      x y z
#    x 1.735540 0.000000 0.000000 
#    y 0.000000 1.817810 0.000000 
#    z 0.000000 0.000000 1.740790 
# 
# From -- ./inp_files/33525.got.cif
#   From: 2010.05.17/outbox.cif.g08.bks.cpg/sg68_17_cif.got.tgz:33525.got - 2010.06.03 18:57:09.
