data_PCOD9506697
_publ_section_title
;
Structure prediction by ZEFSAII (Michael W. Deem and Ramdas Pophale) SiO2 
 PCOD9506697
Probable space group: C C C A
;
_chemical_formula_sum "Si O2"
_cell_formula_units_Z 112
_cell_length_a 13.589295
_cell_length_b 12.592326
_cell_length_c 27.234152
_cell_angle_alpha 90.000000
_cell_angle_beta 90.000000
_cell_angle_gamma 90.000000
_cell_volume 4660.330769
_symmetry_space_group_name_H-M "C C C A"
_symmetry_group_IT_number 68
_space_group.IT_coordinate_system_code '2'
_symmetry_cell_setting 'orthorhombic'
loop_
_space_group_symop_operation_xyz
x,y,z
-x,1/2-y,z
x,1/2-y,1/2-z
-x,y,1/2-z
-x,-y,-z
x,1/2+y,-z
-x,1/2+y,1/2+z
x,-y,1/2+z
1/2+x,1/2+y,z
1/2-x,-y,z
1/2+x,-y,1/2-z
1/2-x,1/2+y,1/2-z
1/2-x,1/2-y,-z
1/2+x,y,-z
1/2-x,y,1/2+z
1/2+x,1/2-y,1/2+z
loop_
_atom_site_type_symbol
_atom_site_label
_atom_site_fract_x
_atom_site_fract_y
_atom_site_fract_z
Si Si1 0.149336 0.303499 0.901999
Si Si2 0.646305 0.190320 0.697815
Si Si3 0.373942 0.199853 0.302902
Si Si4 0.019256 0.503852 0.170390
Si Si5 0.645247 0.058197 0.073885
Si Si6 0.129012 0.001348 0.533617
Si Si7 0.635413 0.125557 0.875852
O O1 0.103322 0.275128 0.849349
O O2 0.160952 0.186399 0.926079
O O3 0.102035 0.386438 0.940266
O O4 0.249212 0.361870 0.885204
O O5 0.641678 0.250000 0.750000
O O6 0.760799 0.160146 0.687894
O O7 0.574852 0.091487 0.697248
O O8 0.612559 0.266901 0.653259
O O9 0.369500 0.250000 0.250000
O O10 0.452824 0.107589 0.300597
O O11 0.075946 0.524740 0.118793
O O12 0.908619 0.467517 0.158488
O O13 0.750000 0.000000 0.080600
O O14 0.600501 0.018930 0.022327
O O15 0.250000 0.000000 0.531084
O O16 0.097397 0.905862 0.570075
#
# Coordination Sequence:
#
# PCOD9506697 Si02
#       7
#    16  16  16  16  16  16  16
#     4   9  19  38  59  83 113 152 202 246 294 364
#     4  10  21  37  58  83 115 155 195 239 293 360
#     4   9  19  37  61  84 111 156 207 246 290 359
#     4  11  21  35  57  89 122 149 191 250 308 360
#     4  10  20  35  59  84 113 154 200 246 293 358
#     4   9  20  36  57  81 112 155 200 241 289 357
#     4  10  21  35  55  84 118 149 186 242 304 358
#
# _framework density 24.032629
#
# number of rings (size 3 to 8) (size 9 to 14) (size 15 to 20)
#    0.000    2.286    0.000    3.429    0.000    9.143 
#    0.000    7.143    0.000   11.143    0.000    9.000 
#    0.000    0.000    0.000    0.000    0.000    0.000 
#
# Total GULP energy -312936.772657 kJ/mol
# GULP energy per Si atom -5588.156655 kJ/mol
# Density = 2.397793 g / cm^3
# Si number density = 24.032629 Si / 1000 Ang^3
#
#
#
# Elastic Constant Matrix: (Units=GPa)
#
#
# Indices 1 2 3 4 5 6 
#
# 1 107.6115 45.8209 23.8836 0.0000 0.0000 0.0000
# 2 45.8209 134.4531 55.7568 0.0000 0.0000 0.0000
# 3 23.8836 55.7568 145.7766 0.0000 0.0000 0.0000
# 4 0.0000 0.0000 0.0000 23.1713 0.0000 0.0000
# 5 0.0000 0.0000 0.0000 0.0000 30.4800 0.0000
# 6 0.0000 0.0000 0.0000 0.0000 0.0000 30.0414
#
#
#
# Elastic Compliance Matrix: (Units=1/GPa)
#
#
# Indices 1 2 3 4 5 6 
#
# 1 0.010893 -0.003532 -0.000434 0.000000 0.000000 0.000000
# 2 -0.003532 0.009985 -0.003240 0.000000 0.000000 0.000000
# 3 -0.000434 -0.003240 0.008170 0.000000 0.000000 0.000000
# 4 0.000000 0.000000 0.000000 0.043157 0.000000 0.000000
# 5 0.000000 0.000000 0.000000 0.000000 0.032808 0.000000
# 6 0.000000 0.000000 0.000000 0.000000 0.000000 0.033287
#
#
# Mechanical properties :
#
#
# Convention : Reuss Voigt Hill
#
# Bulk Modulus (GPa) = 68.32683 70.97378 69.65030
# Shear Modulus (GPa) = 31.72742 34.23055 32.97898
#
# Velocity S-wave (km/s) = 3.63737 3.77813 3.70842
# Velocity P-wave (km/s) = 6.79214 6.97343 6.88338
#
# Compressibility (1/GPa) = 0.01463554
#
# Stress axis : x y z
#
# Youngs Moduli (GPa) = 91.80163 100.14862 122.39554
#
# Poissons Ratio (x) = 0.35377 0.05307
# Poissons Ratio (y) = 0.32429 0.39661
# Poissons Ratio (z) = 0.03980 0.32452
#
# Static dielectric constant tensor:
#      x y z
#    x 1.992280 0.000000 0.000000 
#    y 0.000000 1.944790 0.000000 
#    z 0.000000 0.000000 1.903040 
# 
# From -- ./inp_files/55256.got.cif
#   From: 2010.05.17/outbox.cif.g08.bks.cpg/sg68_28_cif.got.tgz:55256.got - 2010.06.03 18:57:09.
