data_PCOD9506782
_publ_section_title
;
Structure prediction by ZEFSAII (Michael W. Deem and Ramdas Pophale) SiO2 
 PCOD9506782
Probable space group: C C C A
;
_chemical_formula_sum "Si O2"
_cell_formula_units_Z 108
_cell_length_a 11.153304
_cell_length_b 24.888873
_cell_length_c 18.131103
_cell_angle_alpha 90.000000
_cell_angle_beta 90.000000
_cell_angle_gamma 90.000000
_cell_volume 5033.070299
_symmetry_space_group_name_H-M "C C C A"
_symmetry_group_IT_number 68
_space_group.IT_coordinate_system_code '2'
_symmetry_cell_setting 'orthorhombic'
loop_
_space_group_symop_operation_xyz
x,y,z
-x,1/2-y,z
x,1/2-y,1/2-z
-x,y,1/2-z
-x,-y,-z
x,1/2+y,-z
-x,1/2+y,1/2+z
x,-y,1/2+z
1/2+x,1/2+y,z
1/2-x,-y,z
1/2+x,-y,1/2-z
1/2-x,1/2+y,1/2-z
1/2-x,1/2-y,-z
1/2+x,y,-z
1/2-x,y,1/2+z
1/2+x,1/2-y,1/2+z
loop_
_atom_site_type_symbol
_atom_site_label
_atom_site_fract_x
_atom_site_fract_y
_atom_site_fract_z
Si Si1 0.031647 0.059317 0.171596
Si Si2 0.487590 0.171193 0.625381
Si Si3 0.465949 0.691283 0.547438
Si Si4 0.250000 0.000000 0.134263
Si Si5 0.868021 0.971571 0.091595
Si Si6 0.598258 0.586346 0.542679
Si Si7 0.500000 0.750000 0.250000
Si Si8 0.237268 0.630792 0.600070
O O1 0.000000 0.083016 0.250000
O O2 0.062915 0.110696 0.122686
O O3 0.148014 0.024656 0.183417
O O4 0.934701 0.018024 0.138056
O O5 0.472556 0.192120 0.542186
O O6 0.438534 0.209734 0.689722
O O7 0.629543 0.160210 0.642297
O O8 0.500000 0.750000 0.574882
O O9 0.555676 0.643982 0.574545
O O10 0.333902 0.673206 0.571531
O O11 0.184914 0.952717 0.088218
O O12 0.812684 0.919379 0.133619
O O13 0.970823 0.946536 0.038063
O O14 0.750000 0.000000 0.058336
O O15 0.666735 0.604121 0.469013
#
# Coordination Sequence:
#
# PCOD9506782 Si02
#       8
#    16  16  16   8  16  16   4  16
#     4  11  23  38  59  85 117 162 207 247 298 358
#     4  11  22  39  61  86 118 159 202 247 304 355
#     4  10  21  39  60  89 121 155 201 253 309 367
#     4  10  22  38  56  88 124 154 196 252 308 372
#     4  10  20  36  58  84 120 156 195 243 299 367
#     4   9  21  35  56  88 118 155 191 241 311 367
#     4  12  24  44  56  84 122 156 208 250 282 360
#     4  10  21  37  62  90 121 155 199 248 311 368
#
# _framework density 21.458075000000001
#
# number of rings (size 3 to 8) (size 9 to 14) (size 15 to 20)
#    0.000    1.778    2.963    0.889    2.074    2.963 
#    2.667    0.000    0.000    0.000    0.000    0.000 
#    0.000    0.000    0.000    0.000    0.000    0.000 
#
# Total GULP energy -300787.889518 kJ/mol
# GULP energy per Si atom -5570.146102 kJ/mol
# Density = 2.140924 g / cm^3
# Si number density = 21.458075 Si / 1000 Ang^3
#
#
#
# Elastic Constant Matrix: (Units=GPa)
#
#
# Indices 1 2 3 4 5 6 
#
# 1 99.3901 37.4074 -1.1748 0.0000 0.0000 0.0000
# 2 37.4074 144.7873 14.6578 0.0000 0.0000 0.0000
# 3 -1.1748 14.6578 25.3339 0.0000 0.0000 0.0000
# 4 0.0000 0.0000 0.0000 25.7656 0.0000 0.0000
# 5 0.0000 0.0000 0.0000 0.0000 2.9380 0.0000
# 6 0.0000 0.0000 0.0000 0.0000 0.0000 23.3213
#
#
#
# Elastic Compliance Matrix: (Units=1/GPa)
#
#
# Indices 1 2 3 4 5 6 
#
# 1 0.011275 -0.003150 0.002346 0.000000 0.000000 0.000000
# 2 -0.003150 0.008217 -0.004900 0.000000 0.000000 0.000000
# 3 0.002346 -0.004900 0.042417 0.000000 0.000000 0.000000
# 4 0.000000 0.000000 0.000000 0.038811 0.000000 0.000000
# 5 0.000000 0.000000 0.000000 0.000000 0.340366 0.000000
# 6 0.000000 0.000000 0.000000 0.000000 0.000000 0.042879
#
#
# Mechanical properties :
#
#
# Convention : Reuss Voigt Hill
#
# Bulk Modulus (GPa) = 19.80265 41.25469 30.52867
# Shear Modulus (GPa) = 9.76167 24.97970 17.37069
#
# Velocity S-wave (km/s) = 2.13520 3.41562 2.84829
# Velocity P-wave (km/s) = 3.91501 5.90108 5.00750
#
# Compressibility (1/GPa) = 0.05049829
#
# Stress axis : x y z
#
# Youngs Moduli (GPa) = 88.69323 121.70321 23.57562
#
# Poissons Ratio (x) = 0.38342 -0.05530
# Poissons Ratio (y) = 0.27942 0.11552
# Poissons Ratio (z) = -0.20804 0.59636
#
# Static dielectric constant tensor:
#      x y z
#    x 1.813570 0.000000 0.000000 
#    y 0.000000 1.835290 0.000000 
#    z 0.000000 0.000000 1.768720 
# 
# From -- ./inp_files/37851.got.cif
#   From: 2010.05.17/outbox.cif.g08.bks.cpg/sg68_19_cif.got.tgz:37851.got - 2010.06.03 18:57:09.
