data_PCOD9506397
_publ_section_title
;
Structure prediction by ZEFSAII (Michael W. Deem and Ramdas Pophale) SiO2 
 PCOD9506397
Probable space group: C C C A
;
_chemical_formula_sum "Si O2"
_cell_formula_units_Z 92
_cell_length_a 8.562048
_cell_length_b 17.499165
_cell_length_c 25.583878
_cell_angle_alpha 90.000000
_cell_angle_beta 90.000000
_cell_angle_gamma 90.000000
_cell_volume 3833.198944
_symmetry_space_group_name_H-M "C C C A"
_symmetry_group_IT_number 68
_space_group.IT_coordinate_system_code '2'
_symmetry_cell_setting 'orthorhombic'
loop_
_space_group_symop_operation_xyz
x,y,z
-x,1/2-y,z
x,1/2-y,1/2-z
-x,y,1/2-z
-x,-y,-z
x,1/2+y,-z
-x,1/2+y,1/2+z
x,-y,1/2+z
1/2+x,1/2+y,z
1/2-x,-y,z
1/2+x,-y,1/2-z
1/2-x,1/2+y,1/2-z
1/2-x,1/2-y,-z
1/2+x,y,-z
1/2-x,y,1/2+z
1/2+x,1/2-y,1/2+z
loop_
_atom_site_type_symbol
_atom_site_label
_atom_site_fract_x
_atom_site_fract_y
_atom_site_fract_z
Si Si1 0.250000 0.000000 0.150278
Si Si2 0.454298 0.901900 0.449802
Si Si3 0.908086 0.545205 0.836836
Si Si4 0.262593 0.799841 0.835073
Si Si5 0.500000 0.750000 0.917116
Si Si6 0.813643 0.392521 0.553968
Si Si7 0.000000 0.250000 0.391421
Si Si8 0.500000 0.250000 0.250000
O O1 0.412841 0.976413 0.179734
O O2 0.189003 0.933603 0.110347
O O3 0.419507 0.955920 0.400467
O O4 0.634676 0.889764 0.459444
O O5 0.385977 0.931868 0.503426
O O6 0.422575 0.816083 0.426920
O O7 0.750000 0.500000 0.820840
O O8 0.858041 0.631958 0.824858
O O9 0.389070 0.803810 0.881646
O O10 0.378857 0.794314 0.786540
O O11 0.147440 0.730392 0.853324
O O12 0.392134 0.690436 0.946524
#
# Coordination Sequence:
#
# PCOD9506397 Si02
#       8
#     8  16  16  16   8  16   8   4
#     4  10  24  40  58  92 134 190 236 276 320 376
#     4  10  23  33  55  89 130 181 230 275 314 363
#     4  10  22  41  64  93 134 181 221 268 322 398
#     4  10  22  41  70  97 130 159 209 270 344 411
#     4  11  21  37  62  92 126 178 222 283 331 395
#     4  11  23  35  54  88 133 182 235 281 315 367
#     4  10  19  39  57  90 130 170 211 263 335 392
#     4  10  24  46  74 112 124 150 202 282 352 432
#
# _framework density 24.000841000000001
#
# number of rings (size 3 to 8) (size 9 to 14) (size 15 to 20)
#    0.000    1.739    1.739    1.565    8.522    3.130 
#    0.000    0.000    0.000    4.174    4.522    0.000 
#    0.000    0.000    0.000    0.000    0.000    0.000 
#
# Total GULP energy -256086.058933 kJ/mol
# GULP energy per Si atom -5567.088238 kJ/mol
# Density = 2.394621 g / cm^3
# Si number density = 24.000841 Si / 1000 Ang^3
#
#
#
# Elastic Constant Matrix: (Units=GPa)
#
#
# Indices 1 2 3 4 5 6 
#
# 1 205.1622 43.0764 41.5753 0.0000 0.0000 0.0000
# 2 43.0764 77.3001 1.8767 0.0000 0.0000 0.0000
# 3 41.5753 1.8767 33.6436 0.0000 0.0000 0.0000
# 4 0.0000 0.0000 0.0000 2.7019 0.0000 0.0000
# 5 0.0000 0.0000 0.0000 0.0000 17.0726 0.0000
# 6 0.0000 0.0000 0.0000 0.0000 0.0000 49.9578
#
#
#
# Elastic Compliance Matrix: (Units=1/GPa)
#
#
# Indices 1 2 3 4 5 6 
#
# 1 0.007560 -0.003992 -0.009120 0.000000 0.000000 0.000000
# 2 -0.003992 0.015062 0.004093 0.000000 0.000000 0.000000
# 3 -0.009120 0.004093 0.040765 0.000000 0.000000 0.000000
# 4 0.000000 0.000000 0.000000 0.370103 0.000000 0.000000
# 5 0.000000 0.000000 0.000000 0.000000 0.058573 0.000000
# 6 0.000000 0.000000 0.000000 0.000000 0.000000 0.020017
#
#
# Mechanical properties :
#
#
# Convention : Reuss Voigt Hill
#
# Bulk Modulus (GPa) = 22.05122 54.35140 38.20131
# Shear Modulus (GPa) = 9.17034 29.25165 19.21100
#
# Velocity S-wave (km/s) = 1.95682 3.49488 2.83226
# Velocity P-wave (km/s) = 3.78327 6.24343 5.16205
#
# Compressibility (1/GPa) = 0.04534897
#
# Stress axis : x y z
#
# Youngs Moduli (GPa) = 132.26648 66.39362 24.53058
#
# Poissons Ratio (x) = 0.26503 0.22373
# Poissons Ratio (y) = 0.52798 -0.10040
# Poissons Ratio (z) = 1.20630 -0.27173
#
# Static dielectric constant tensor:
#      x y z
#    x 1.999330 0.000000 0.000000 
#    y 0.000000 2.079690 0.000000 
#    z 0.000000 0.000000 2.074960 
# 
# From -- ./inp_files/43220.got.cif
#   From: 2010.05.17/outbox.cif.g08.bks.cpg/sg68_22_cif.got.tgz:43220.got - 2010.06.03 18:57:09.
