data_PCOD9506465
_publ_section_title
;
Structure prediction by ZEFSAII (Michael W. Deem and Ramdas Pophale) SiO2 
 PCOD9506465
Probable space group: C C C A
;
_chemical_formula_sum "Si O2"
_cell_formula_units_Z 88
_cell_length_a 8.757662
_cell_length_b 21.379648
_cell_length_c 22.324431
_cell_angle_alpha 90.000000
_cell_angle_beta 90.000000
_cell_angle_gamma 90.000000
_cell_volume 4179.931154
_symmetry_space_group_name_H-M "C C C A"
_symmetry_group_IT_number 68
_space_group.IT_coordinate_system_code '2'
_symmetry_cell_setting 'orthorhombic'
loop_
_space_group_symop_operation_xyz
x,y,z
-x,1/2-y,z
x,1/2-y,1/2-z
-x,y,1/2-z
-x,-y,-z
x,1/2+y,-z
-x,1/2+y,1/2+z
x,-y,1/2+z
1/2+x,1/2+y,z
1/2-x,-y,z
1/2+x,-y,1/2-z
1/2-x,1/2+y,1/2-z
1/2-x,1/2-y,-z
1/2+x,y,-z
1/2-x,y,1/2+z
1/2+x,1/2-y,1/2+z
loop_
_atom_site_type_symbol
_atom_site_label
_atom_site_fract_x
_atom_site_fract_y
_atom_site_fract_z
Si Si1 0.750000 0.500000 0.675332
Si Si2 0.500000 0.072530 0.750000
Si Si3 0.000000 0.850641 0.250000
Si Si4 0.272444 0.642582 0.165692
Si Si5 0.160244 0.777509 0.145434
Si Si6 0.309334 0.570218 0.550525
Si Si7 0.664345 0.900635 0.924345
O O1 0.618233 0.471805 0.716129
O O2 0.696282 0.554868 0.631746
O O3 0.412667 0.116347 0.797019
O O4 0.118169 0.880040 0.297938
O O5 0.112930 0.810587 0.207797
O O6 0.263964 0.717646 0.158929
O O7 0.270775 0.613997 0.099613
O O8 0.203863 0.831159 0.099056
O O9 0.000000 0.750000 0.121665
O O10 0.250000 0.500000 0.563695
O O11 0.488719 0.584850 0.558333
O O12 0.263271 0.583812 0.482425
#
# Coordination Sequence:
#
# PCOD9506465 Si02
#       7
#     8   8   8  16  16  16  16
#     4  12  30  50  72 110 148 192 242 292 384 434
#     4  12  30  43  76 112 152 187 240 316 360 460
#     4  10  19  43  77  98 137 195 232 291 378 445
#     4  11  24  45  72 109 142 188 247 299 378 433
#     4  10  20  43  74 101 135 194 235 296 371 434
#     4  12  26  45  75  99 148 196 249 302 361 438
#     4  12  26  48  73 103 146 195 248 301 366 434
#
# _framework density 21.052978
#
# number of rings (size 3 to 8) (size 9 to 14) (size 15 to 20)
#    0.000    0.727    4.545    5.182    6.364    1.455 
#    0.000    7.273    0.000    0.000    0.000    0.000 
#    0.000    0.000    0.000    0.000    0.000    0.000 
#
# Total GULP energy -246005.304442 kJ/mol
# GULP energy per Si atom -5591.029646 kJ/mol
# Density = 2.100506 g / cm^3
# Si number density = 21.052978 Si / 1000 Ang^3
#
#
#
# Elastic Constant Matrix: (Units=GPa)
#
#
# Indices 1 2 3 4 5 6 
#
# 1 107.4824 57.2377 65.9235 0.0000 0.0000 0.0000
# 2 57.2377 122.5998 71.4319 0.0000 0.0000 0.0000
# 3 65.9235 71.4319 108.1551 0.0000 0.0000 0.0000
# 4 0.0000 0.0000 0.0000 35.3468 0.0000 0.0000
# 5 0.0000 0.0000 0.0000 0.0000 12.6910 0.0000
# 6 0.0000 0.0000 0.0000 0.0000 0.0000 40.8646
#
#
#
# Elastic Compliance Matrix: (Units=1/GPa)
#
#
# Indices 1 2 3 4 5 6 
#
# 1 0.015429 -0.002802 -0.007554 0.000000 0.000000 0.000000
# 2 -0.002802 0.013768 -0.007385 0.000000 0.000000 0.000000
# 3 -0.007554 -0.007385 0.018728 0.000000 0.000000 0.000000
# 4 0.000000 0.000000 0.000000 0.028291 0.000000 0.000000
# 5 0.000000 0.000000 0.000000 0.000000 0.078796 0.000000
# 6 0.000000 0.000000 0.000000 0.000000 0.000000 0.024471
#
#
# Mechanical properties :
#
#
# Convention : Reuss Voigt Hill
#
# Bulk Modulus (GPa) = 80.36869 80.82484 80.59676
# Shear Modulus (GPa) = 22.81941 27.35678 25.08809
#
# Velocity S-wave (km/s) = 3.29584 3.60867 3.45579
# Velocity P-wave (km/s) = 7.26229 7.47247 7.36813
#
# Compressibility (1/GPa) = 0.01244266
#
# Stress axis : x y z
#
# Youngs Moduli (GPa) = 64.81251 72.63403 53.39706
#
# Poissons Ratio (x) = 0.20354 0.40335
# Poissons Ratio (y) = 0.18162 0.39433
# Poissons Ratio (z) = 0.48958 0.53640
#
# Static dielectric constant tensor:
#      x y z
#    x 1.781710 0.000000 0.000000 
#    y 0.000000 1.834390 0.000000 
#    z 0.000000 0.000000 1.723630 
# 
# From -- ./inp_files/43181.got.cif
#   From: 2010.05.17/outbox.cif.g08.bks.cpg/sg68_22_cif.got.tgz:43181.got - 2010.06.03 18:57:09.
