data_PCOD9506830
_publ_section_title
;
Structure prediction by ZEFSAII (Michael W. Deem and Ramdas Pophale) SiO2 
 PCOD9506830
Probable space group: C C C A
;
_chemical_formula_sum "Si O2"
_cell_formula_units_Z 64
_cell_length_a 8.560021
_cell_length_b 16.700896
_cell_length_c 23.988871
_cell_angle_alpha 90.000000
_cell_angle_beta 90.000000
_cell_angle_gamma 90.000000
_cell_volume 3429.449489
_symmetry_space_group_name_H-M "C C C A"
_symmetry_group_IT_number 68
_space_group.IT_coordinate_system_code '2'
_symmetry_cell_setting 'orthorhombic'
loop_
_space_group_symop_operation_xyz
x,y,z
-x,1/2-y,z
x,1/2-y,1/2-z
-x,y,1/2-z
-x,-y,-z
x,1/2+y,-z
-x,1/2+y,1/2+z
x,-y,1/2+z
1/2+x,1/2+y,z
1/2-x,-y,z
1/2+x,-y,1/2-z
1/2-x,1/2+y,1/2-z
1/2-x,1/2-y,-z
1/2+x,y,-z
1/2-x,y,1/2+z
1/2+x,1/2-y,1/2+z
loop_
_atom_site_type_symbol
_atom_site_label
_atom_site_fract_x
_atom_site_fract_y
_atom_site_fract_z
Si Si1 0.698551 0.909492 0.128166
Si Si2 0.315707 0.763288 0.938423
Si Si3 0.320778 0.346796 0.246782
Si Si4 0.107315 0.671707 0.848642
O O1 0.776785 0.852182 0.082700
O O2 0.753344 0.878392 0.188936
O O3 0.513732 0.892181 0.126826
O O4 0.750000 0.000000 0.121088
O O5 0.500000 0.750000 0.936338
O O6 0.226063 0.705477 0.894859
O O7 0.250000 0.750000 0.000000
O O8 0.326365 0.250000 0.250000
O O9 0.500000 0.375612 0.250000
O O10 0.204875 0.365428 0.297774
O O11 0.000000 0.750000 0.831781
#
# Coordination Sequence:
#
# PCOD9506830 Si02
#       4
#    16  16  16  16
#     4  11  24  39  61  95 127 155 203 264 313 353
#     4  11  22  42  67  90 115 163 213 247 302 383
#     4  11  20  34  59  91 127 168 209 243 296 376
#     4  10  20  36  61  87 121 168 206 244 303 374
#
# _framework density 18.661887
#
# number of rings (size 3 to 8) (size 9 to 14) (size 15 to 20)
#    0.000    1.250    5.000    4.500    0.000    2.000 
#    0.000    8.750    0.000    0.000    0.000    0.000 
#    0.000    0.000    0.000    0.000    0.000    0.000 
#
# Total GULP energy -178730.139290 kJ/mol
# GULP energy per Si atom -5585.316853 kJ/mol
# Density = 1.861941 g / cm^3
# Si number density = 18.661887 Si / 1000 Ang^3
#
#
#
# Elastic Constant Matrix: (Units=GPa)
#
#
# Indices 1 2 3 4 5 6 
#
# 1 182.1992 60.1542 67.1907 0.0000 0.0000 0.0000
# 2 60.1542 123.6813 61.9265 0.0000 0.0000 0.0000
# 3 67.1907 61.9265 144.4834 0.0000 0.0000 0.0000
# 4 0.0000 0.0000 0.0000 11.1485 0.0000 0.0000
# 5 0.0000 0.0000 0.0000 0.0000 35.8217 0.0000
# 6 0.0000 0.0000 0.0000 0.0000 0.0000 19.5061
#
#
#
# Elastic Compliance Matrix: (Units=1/GPa)
#
#
# Indices 1 2 3 4 5 6 
#
# 1 0.007101 -0.002292 -0.002320 0.000000 0.000000 0.000000
# 2 -0.002292 0.011034 -0.003663 0.000000 0.000000 0.000000
# 3 -0.002320 -0.003663 0.009570 0.000000 0.000000 0.000000
# 4 0.000000 0.000000 0.000000 0.089698 0.000000 0.000000
# 5 0.000000 0.000000 0.000000 0.000000 0.027916 0.000000
# 6 0.000000 0.000000 0.000000 0.000000 0.000000 0.051266
#
#
# Mechanical properties :
#
#
# Convention : Reuss Voigt Hill
#
# Bulk Modulus (GPa) = 89.64848 92.10074 90.87461
# Shear Modulus (GPa) = 23.05694 30.70142 26.87918
#
# Velocity S-wave (km/s) = 3.51879 4.06043 3.79928
# Velocity P-wave (km/s) = 8.04063 8.45235 8.24906
#
# Compressibility (1/GPa) = 0.01115468
#
# Stress axis : x y z
#
# Youngs Moduli (GPa) = 140.83133 90.62606 104.49130
#
# Poissons Ratio (x) = 0.20772 0.24239
# Poissons Ratio (y) = 0.32279 0.38280
# Poissons Ratio (z) = 0.32669 0.33201
#
# Static dielectric constant tensor:
#      x y z
#    x 1.673520 0.000000 0.000000 
#    y 0.000000 1.639060 0.000000 
#    z 0.000000 0.000000 1.627850 
# 
# From -- ./inp_files/35747.got.cif
#   From: 2010.05.17/outbox.cif.g08.bks.cpg/sg68_18_cif.got.tgz:35747.got - 2010.06.03 18:57:09.
