data_PCOD9506203
_publ_section_title
;
Structure prediction by ZEFSAII (Michael W. Deem and Ramdas Pophale) SiO2 
 PCOD9506203
Probable space group: C C C A
;
_chemical_formula_sum "Si O2"
_cell_formula_units_Z 112
_cell_length_a 15.108005
_cell_length_b 28.760332
_cell_length_c 11.309100
_cell_angle_alpha 90.000000
_cell_angle_beta 90.000000
_cell_angle_gamma 90.000000
_cell_volume 4913.931060
_symmetry_space_group_name_H-M "C C C A"
_symmetry_group_IT_number 68
_space_group.IT_coordinate_system_code '2'
_symmetry_cell_setting 'orthorhombic'
loop_
_space_group_symop_operation_xyz
x,y,z
-x,1/2-y,z
x,1/2-y,1/2-z
-x,y,1/2-z
-x,-y,-z
x,1/2+y,-z
-x,1/2+y,1/2+z
x,-y,1/2+z
1/2+x,1/2+y,z
1/2-x,-y,z
1/2+x,-y,1/2-z
1/2-x,1/2+y,1/2-z
1/2-x,1/2-y,-z
1/2+x,y,-z
1/2-x,y,1/2+z
1/2+x,1/2-y,1/2+z
loop_
_atom_site_type_symbol
_atom_site_label
_atom_site_fract_x
_atom_site_fract_y
_atom_site_fract_z
Si Si1 0.892029 0.646690 0.475057
Si Si2 0.447351 0.351484 0.625677
Si Si3 0.086368 0.945499 0.335585
Si Si4 0.205286 0.853951 0.029778
Si Si5 0.106336 0.196449 0.739879
Si Si6 0.754912 0.446894 0.649029
Si Si7 0.911793 0.953217 0.678430
O O1 0.907804 0.592975 0.437994
O O2 0.807484 0.658806 0.554259
O O3 0.862557 0.669487 0.354052
O O4 0.981700 0.666070 0.530211
O O5 0.500000 0.344225 0.750000
O O6 0.346553 0.338057 0.590161
O O7 0.436510 0.407013 0.609277
O O8 0.168182 0.941299 0.245984
O O9 0.000000 0.938458 0.250000
O O10 0.100062 0.997722 0.387175
O O11 0.144961 0.830818 0.129305
O O12 0.218617 0.909797 0.048440
O O13 0.132994 0.250000 0.750000
O O14 0.000000 0.194203 0.750000
O O15 0.750000 0.500000 0.605700
O O16 0.664981 0.440457 0.726591
O O17 0.000000 0.963969 0.750000
#
# Coordination Sequence:
#
# PCOD9506203 Si02
#       7
#    16  16  16  16  16  16  16
#     4  12  24  39  72  98 129 176 221 274 340 403
#     4  11  24  40  59  97 139 178 220 271 338 397
#     4  10  19  35  60  90 129 176 232 276 319 385
#     4  12  24  40  72  99 133 178 221 277 340 405
#     4  11  25  50  77 102 129 165 228 288 345 410
#     4  10  20  36  60  96 135 178 228 279 327 388
#     4   9  19  35  55  86 138 178 220 275 322 383
#
# _framework density 22.792342000000001
#
# number of rings (size 3 to 8) (size 9 to 14) (size 15 to 20)
#    0.000    1.286    2.857    3.857    2.000    2.286 
#    0.000    0.000    0.000    0.857    0.000    0.000 
#    0.000    0.000    0.000    0.000    0.000    0.000 
#
# Total GULP energy -312011.011114 kJ/mol
# GULP energy per Si atom -5571.625198 kJ/mol
# Density = 2.274047 g / cm^3
# Si number density = 22.792342 Si / 1000 Ang^3
#
#
#
# Elastic Constant Matrix: (Units=GPa)
#
#
# Indices 1 2 3 4 5 6 
#
# 1 163.2318 2.1360 36.4383 0.0000 0.0000 0.0000
# 2 2.1360 29.5021 6.3921 0.0000 0.0000 0.0000
# 3 36.4383 6.3921 52.7701 0.0000 0.0000 0.0000
# 4 0.0000 0.0000 0.0000 -3.8674 0.0000 0.0000
# 5 0.0000 0.0000 0.0000 0.0000 53.5103 0.0000
# 6 0.0000 0.0000 0.0000 0.0000 0.0000 27.0283
#
#
#
# Elastic Compliance Matrix: (Units=1/GPa)
#
#
# Indices 1 2 3 4 5 6 
#
# 1 0.007252 0.000575 -0.005077 0.000000 0.000000 0.000000
# 2 0.000575 0.034855 -0.004619 0.000000 0.000000 0.000000
# 3 -0.005077 -0.004619 0.023016 0.000000 0.000000 0.000000
# 4 0.000000 0.000000 0.000000 -0.258571 0.000000 0.000000
# 5 0.000000 0.000000 0.000000 0.000000 0.018688 0.000000
# 6 0.000000 0.000000 0.000000 0.000000 0.000000 0.036998
#
#
# Mechanical properties :
#
#
# Convention : Reuss Voigt Hill
#
# Bulk Modulus (GPa) = 21.33106 37.27075 29.30091
# Shear Modulus (GPa) = -48.12689 28.70340 -9.71174
#
# Velocity S-wave (km/s) = -4.60013 3.55257 -2.06645
# Velocity P-wave (km/s) = 4.34002 5.76329 2.68139
#
# Compressibility (1/GPa) = 0.04687999
#
# Stress axis : x y z
#
# Youngs Moduli (GPa) = 137.89019 28.69021 43.44881
#
# Poissons Ratio (x) = -0.01650 0.22060
# Poissons Ratio (y) = -0.07929 0.20069
# Poissons Ratio (z) = 0.70011 0.13252
#
# Static dielectric constant tensor:
#      x y z
#    x 2.486830 0.000000 0.000000 
#    y 0.000000 1.905070 0.000000 
#    z 0.000000 0.000000 1.848270 
# 
# From -- ./inp_files/13586.got.cif
#   From: 2010.05.17/outbox.cif.g08.bks.cpg/sg68_7_cif.got.tgz:13586.got - 2010.06.03 18:57:09.
