data_PCOD9506436
_publ_section_title
;
Structure prediction by ZEFSAII (Michael W. Deem and Ramdas Pophale) SiO2 
 PCOD9506436
Probable space group: C C C A
;
_chemical_formula_sum "Si O2"
_cell_formula_units_Z 64
_cell_length_a 7.994751
_cell_length_b 16.707153
_cell_length_c 21.254014
_cell_angle_alpha 90.000000
_cell_angle_beta 90.000000
_cell_angle_gamma 90.000000
_cell_volume 2838.888621
_symmetry_space_group_name_H-M "C C C A"
_symmetry_group_IT_number 68
_space_group.IT_coordinate_system_code '2'
_symmetry_cell_setting 'orthorhombic'
loop_
_space_group_symop_operation_xyz
x,y,z
-x,1/2-y,z
x,1/2-y,1/2-z
-x,y,1/2-z
-x,-y,-z
x,1/2+y,-z
-x,1/2+y,1/2+z
x,-y,1/2+z
1/2+x,1/2+y,z
1/2-x,-y,z
1/2+x,-y,1/2-z
1/2-x,1/2+y,1/2-z
1/2-x,1/2-y,-z
1/2+x,y,-z
1/2-x,y,1/2+z
1/2+x,1/2-y,1/2+z
loop_
_atom_site_type_symbol
_atom_site_label
_atom_site_fract_x
_atom_site_fract_y
_atom_site_fract_z
Si Si1 0.682199 0.609538 0.967434
Si Si2 0.750000 0.500000 0.191837
Si Si3 0.176946 0.675569 0.284187
Si Si4 0.522016 0.957705 0.420376
Si Si5 0.500000 0.750000 0.598106
O O1 0.552727 0.541481 0.944677
O O2 0.859852 0.597933 0.933194
O O3 0.606105 0.692653 0.946600
O O4 0.672750 0.586176 0.041324
O O5 0.759351 0.585605 0.225434
O O6 0.590597 0.517909 0.147201
O O7 0.270294 0.750000 0.250000
O O8 0.000000 0.671484 0.250000
O O9 0.126635 0.701397 0.355316
#
# Coordination Sequence:
#
# PCOD9506436 Si02
#       5
#    16   8  16  16   8
#     4  10  20  37  58  95 140 173 210 254 308 401
#     4  12  20  44  72  94 126 172 214 282 332 392
#     4   9  22  44  67  91 119 166 223 269 332 385
#     4  10  21  35  62  95 129 173 217 247 317 398
#     4  10  19  40  66  86 132 182 203 266 322 386
#
# _framework density 22.544032000000001
#
# number of rings (size 3 to 8) (size 9 to 14) (size 15 to 20)
#    0.000    2.250    2.500    3.000    0.000    1.000 
#    9.000    0.000    0.000    0.000    0.000    0.000 
#    0.000    0.000    0.000    0.000    0.000    0.000 
#
# Total GULP energy -178191.154568 kJ/mol
# GULP energy per Si atom -5568.473580 kJ/mol
# Density = 2.249272 g / cm^3
# Si number density = 22.544032 Si / 1000 Ang^3
#
#
#
# Elastic Constant Matrix: (Units=GPa)
#
#
# Indices 1 2 3 4 5 6 
#
# 1 85.9716 31.1080 3.7087 0.0000 0.0000 0.0000
# 2 31.1080 181.9175 36.0565 0.0000 0.0000 0.0000
# 3 3.7087 36.0565 30.2445 0.0000 0.0000 0.0000
# 4 0.0000 0.0000 0.0000 -13.1041 0.0000 0.0000
# 5 0.0000 0.0000 0.0000 0.0000 12.3294 0.0000
# 6 0.0000 0.0000 0.0000 0.0000 0.0000 40.7215
#
#
#
# Elastic Compliance Matrix: (Units=1/GPa)
#
#
# Indices 1 2 3 4 5 6 
#
# 1 0.012439 -0.002389 0.001323 0.000000 0.000000 0.000000
# 2 -0.002389 0.007657 -0.008835 0.000000 0.000000 0.000000
# 3 0.001323 -0.008835 0.043434 0.000000 0.000000 0.000000
# 4 0.000000 0.000000 0.000000 -0.076312 0.000000 0.000000
# 5 0.000000 0.000000 0.000000 0.000000 0.081107 0.000000
# 6 0.000000 0.000000 0.000000 0.000000 0.000000 0.024557
#
#
# Mechanical properties :
#
#
# Convention : Reuss Voigt Hill
#
# Bulk Modulus (GPa) = 22.86872 48.87557 35.87214
# Shear Modulus (GPa) = 39.28935 23.14006 31.21470
#
# Velocity S-wave (km/s) = 4.17919 3.20728 3.72507
# Velocity P-wave (km/s) = 5.78391 5.95337 5.86925
#
# Compressibility (1/GPa) = 0.04372786
#
# Stress axis : x y z
#
# Youngs Moduli (GPa) = 80.39080 130.60429 23.02320
#
# Poissons Ratio (x) = 0.31206 -0.03046
# Poissons Ratio (y) = 0.19208 0.20341
# Poissons Ratio (z) = -0.10637 1.15390
#
# Static dielectric constant tensor:
#      x y z
#    x 1.835610 0.000000 0.000000 
#    y 0.000000 2.077270 0.000000 
#    z 0.000000 0.000000 2.020890 
# 
# From -- ./inp_files/35806.got.cif
#   From: 2010.05.17/outbox.cif.g08.bks.cpg/sg68_18_cif.got.tgz:35806.got - 2010.06.03 18:57:09.
