data_PCOD9506998
_publ_section_title
;
Structure prediction by ZEFSAII (Michael W. Deem and Ramdas Pophale) SiO2 
 PCOD9506998
Probable space group: C C C A
;
_chemical_formula_sum "Si O2"
_cell_formula_units_Z 72
_cell_length_a 29.338979
_cell_length_b 5.008841
_cell_length_c 23.915198
_cell_angle_alpha 90.000000
_cell_angle_beta 90.000000
_cell_angle_gamma 90.000000
_cell_volume 3514.440725
_symmetry_space_group_name_H-M "C C C A"
_symmetry_group_IT_number 68
_space_group.IT_coordinate_system_code '2'
_symmetry_cell_setting 'orthorhombic'
loop_
_space_group_symop_operation_xyz
x,y,z
-x,1/2-y,z
x,1/2-y,1/2-z
-x,y,1/2-z
-x,-y,-z
x,1/2+y,-z
-x,1/2+y,1/2+z
x,-y,1/2+z
1/2+x,1/2+y,z
1/2-x,-y,z
1/2+x,-y,1/2-z
1/2-x,1/2+y,1/2-z
1/2-x,1/2-y,-z
1/2+x,y,-z
1/2-x,y,1/2+z
1/2+x,1/2-y,1/2+z
loop_
_atom_site_type_symbol
_atom_site_label
_atom_site_fract_x
_atom_site_fract_y
_atom_site_fract_z
Si Si1 0.695851 0.502851 0.535224
Si Si2 0.624760 0.105997 0.871540
Si Si3 0.349138 0.107769 0.310242
Si Si4 0.946108 0.222819 0.036897
Si Si5 0.750000 0.000000 0.210282
O O1 0.684111 0.300583 0.484576
O O2 0.750000 0.500000 0.544689
O O3 0.668926 0.398406 0.588459
O O4 0.632410 0.311733 0.820791
O O5 0.583103 0.197407 0.909703
O O6 0.622817 0.804996 0.849856
O O7 0.351185 0.250000 0.250000
O O8 0.294755 0.090345 0.323095
O O9 0.000000 0.250000 0.048444
O O10 0.935711 0.430481 0.986799
O O11 0.736408 0.750000 0.250000
#
# Coordination Sequence:
#
# PCOD9506998 Si02
#       5
#    16  16  16  16   8
#     4  10  21  35  51  78 115 148 183 229 283 354
#     4  12  22  36  62  84 114 157 197 241 295 363
#     4  11  24  38  57  83 117 155 202 256 290 339
#     4  10  21  39  64  93 121 148 190 246 299 359
#     4  10  20  38  56  76 110 154 206 256 296 330
#
# _framework density 20.486902000000001
#
# number of rings (size 3 to 8) (size 9 to 14) (size 15 to 20)
#    0.000    1.333    0.000    7.333    3.111    0.000 
#    0.000    0.000    0.000    4.000    0.000    0.000 
#    0.000    0.000    0.000    0.000    0.000    0.000 
#
# Total GULP energy -201217.710383 kJ/mol
# GULP energy per Si atom -5589.380844 kJ/mol
# Density = 2.044027 g / cm^3
# Si number density = 20.486902 Si / 1000 Ang^3
#
#
#
# Elastic Constant Matrix: (Units=GPa)
#
#
# Indices 1 2 3 4 5 6 
#
# 1 74.0032 21.0503 30.2690 0.0000 0.0000 0.0000
# 2 21.0503 95.5150 7.7834 0.0000 0.0000 0.0000
# 3 30.2690 7.7834 52.3450 0.0000 0.0000 0.0000
# 4 0.0000 0.0000 0.0000 32.5766 0.0000 0.0000
# 5 0.0000 0.0000 0.0000 0.0000 52.1465 0.0000
# 6 0.0000 0.0000 0.0000 0.0000 0.0000 22.0913
#
#
#
# Elastic Compliance Matrix: (Units=1/GPa)
#
#
# Indices 1 2 3 4 5 6 
#
# 1 0.018658 -0.003272 -0.010302 0.000000 0.000000 0.000000
# 2 -0.003272 0.011172 0.000231 0.000000 0.000000 0.000000
# 3 -0.010302 0.000231 0.025027 0.000000 0.000000 0.000000
# 4 0.000000 0.000000 0.000000 0.030697 0.000000 0.000000
# 5 0.000000 0.000000 0.000000 0.000000 0.019177 0.000000
# 6 0.000000 0.000000 0.000000 0.000000 0.000000 0.045267
#
#
# Mechanical properties :
#
#
# Convention : Reuss Voigt Hill
#
# Bulk Modulus (GPa) = 35.49960 37.78540 36.64250
# Shear Modulus (GPa) = 26.87100 32.21357 29.54228
#
# Velocity S-wave (km/s) = 3.62556 3.96965 3.80150
# Velocity P-wave (km/s) = 5.90693 6.28447 6.09862
#
# Compressibility (1/GPa) = 0.02816933
#
# Stress axis : x y z
#
# Youngs Moduli (GPa) = 53.59721 89.51009 39.95661
#
# Poissons Ratio (x) = 0.29291 0.41165
# Poissons Ratio (y) = 0.17539 -0.00923
# Poissons Ratio (z) = 0.55218 -0.02068
#
# Static dielectric constant tensor:
#      x y z
#    x 1.705010 0.000000 0.000000 
#    y 0.000000 1.727720 0.000000 
#    z 0.000000 0.000000 1.741120 
# 
# From -- ./inp_files/47140.got.cif
#   From: 2010.05.17/outbox.cif.g08.bks.cpg/sg68_24_cif.got.tgz:47140.got - 2010.06.03 18:57:09.
