data_PCOD9506875
_publ_section_title
;
Structure prediction by ZEFSAII (Michael W. Deem and Ramdas Pophale) SiO2 
 PCOD9506875
Probable space group: C C C A
;
_chemical_formula_sum "Si O2"
_cell_formula_units_Z 116
_cell_length_a 16.378262
_cell_length_b 19.134730
_cell_length_c 19.089275
_cell_angle_alpha 90.000000
_cell_angle_beta 90.000000
_cell_angle_gamma 90.000000
_cell_volume 5982.457019
_symmetry_space_group_name_H-M "C C C A"
_symmetry_group_IT_number 68
_space_group.IT_coordinate_system_code '2'
_symmetry_cell_setting 'orthorhombic'
loop_
_space_group_symop_operation_xyz
x,y,z
-x,1/2-y,z
x,1/2-y,1/2-z
-x,y,1/2-z
-x,-y,-z
x,1/2+y,-z
-x,1/2+y,1/2+z
x,-y,1/2+z
1/2+x,1/2+y,z
1/2-x,-y,z
1/2+x,-y,1/2-z
1/2-x,1/2+y,1/2-z
1/2-x,1/2-y,-z
1/2+x,y,-z
1/2-x,y,1/2+z
1/2+x,1/2-y,1/2+z
loop_
_atom_site_type_symbol
_atom_site_label
_atom_site_fract_x
_atom_site_fract_y
_atom_site_fract_z
Si Si1 0.114036 0.930910 0.882477
Si Si2 0.176213 0.441943 0.959259
Si Si3 0.500000 0.750000 0.250000
Si Si4 0.670646 0.537624 0.771033
Si Si5 0.248191 0.788280 0.074086
Si Si6 0.568268 0.484086 0.653998
Si Si7 0.237757 0.172462 0.312574
Si Si8 0.634584 0.164853 0.824568
O O1 0.156806 0.861066 0.850665
O O2 0.019641 0.949736 0.864530
O O3 0.157874 0.992191 0.840061
O O4 0.138850 0.933437 0.963258
O O5 0.250000 0.500000 0.959830
O O6 0.203753 0.364287 0.931996
O O7 0.105672 0.473532 0.910321
O O8 0.445715 0.798336 0.201674
O O9 0.750000 0.500000 0.735396
O O10 0.590962 0.531462 0.721899
O O11 0.694511 0.614027 0.796870
O O12 0.338482 0.808388 0.100195
O O13 0.250000 0.750000 0.000000
O O14 0.274282 0.768913 0.865246
O O15 0.622078 0.416552 0.671675
O O16 0.202372 0.183130 0.233904
#
# Coordination Sequence:
#
# PCOD9506875 Si02
#       8
#    16  16   4  16  16  16  16  16
#     4  11  23  38  63  97 135 168 217 279 340 400
#     4  12  24  43  65  91 132 176 228 275 335 407
#     4  12  24  36  64 100 152 168 206 296 368 400
#     4  10  20  36  65  94 129 168 218 268 328 401
#     4  12  25  41  63  94 133 178 227 271 334 413
#     4  12  23  39  64  98 130 168 218 282 340 400
#     4  11  21  42  64  97 132 176 226 271 338 407
#     4  12  23  38  63  97 132 172 220 274 342 408
#
# _framework density 19.390027
#
# number of rings (size 3 to 8) (size 9 to 14) (size 15 to 20)
#    0.000    0.552    6.897    4.138    0.000    0.000 
#    0.000    0.000    0.000    2.483    0.000    1.931 
#    0.000    0.000    0.000    0.000    0.000    0.000 
#
# Total GULP energy -322995.114202 kJ/mol
# GULP energy per Si atom -5568.881279 kJ/mol
# Density = 1.934589 g / cm^3
# Si number density = 19.390027 Si / 1000 Ang^3
#
#
#
# Elastic Constant Matrix: (Units=GPa)
#
#
# Indices 1 2 3 4 5 6 
#
# 1 84.8959 46.5378 52.3663 0.0000 0.0000 0.0000
# 2 46.5378 114.7002 48.5090 0.0000 0.0000 0.0000
# 3 52.3663 48.5090 134.4035 0.0000 0.0000 0.0000
# 4 0.0000 0.0000 0.0000 39.4038 0.0000 0.0000
# 5 0.0000 0.0000 0.0000 0.0000 25.5012 0.0000
# 6 0.0000 0.0000 0.0000 0.0000 0.0000 18.1730
#
#
#
# Elastic Compliance Matrix: (Units=1/GPa)
#
#
# Indices 1 2 3 4 5 6 
#
# 1 0.017657 -0.005021 -0.005067 0.000000 0.000000 0.000000
# 2 -0.005021 0.011717 -0.002272 0.000000 0.000000 0.000000
# 3 -0.005067 -0.002272 0.010235 0.000000 0.000000 0.000000
# 4 0.000000 0.000000 0.000000 0.025378 0.000000 0.000000
# 5 0.000000 0.000000 0.000000 0.000000 0.039214 0.000000
# 6 0.000000 0.000000 0.000000 0.000000 0.000000 0.055027
#
#
# Mechanical properties :
#
#
# Convention : Reuss Voigt Hill
#
# Bulk Modulus (GPa) = 67.17332 69.86955 68.52143
# Shear Modulus (GPa) = 26.46736 29.05469 27.76103
#
# Velocity S-wave (km/s) = 3.69860 3.87516 3.78791
# Velocity P-wave (km/s) = 7.27722 7.49229 7.38554
#
# Compressibility (1/GPa) = 0.01488686
#
# Stress axis : x y z
#
# Youngs Moduli (GPa) = 56.63384 85.34850 97.70545
#
# Poissons Ratio (x) = 0.42854 0.49512
# Poissons Ratio (y) = 0.28436 0.22203
# Poissons Ratio (z) = 0.28699 0.19395
#
# Static dielectric constant tensor:
#      x y z
#    x 1.757100 0.000000 0.000000 
#    y 0.000000 1.678400 0.000000 
#    z 0.000000 0.000000 1.710830 
# 
# From -- ./inp_files/31260.got.cif
#   From: 2010.05.17/outbox.cif.g08.bks.cpg/sg68_16_cif.got.tgz:31260.got - 2010.06.03 18:57:09.
