data_PCOD9506915
_publ_section_title
;
Structure prediction by ZEFSAII (Michael W. Deem and Ramdas Pophale) SiO2 
 PCOD9506915
Probable space group: C C C A
;
_chemical_formula_sum "Si O2"
_cell_formula_units_Z 112
_cell_length_a 20.563368
_cell_length_b 24.548187
_cell_length_c 10.440211
_cell_angle_alpha 90.000000
_cell_angle_beta 90.000000
_cell_angle_gamma 90.000000
_cell_volume 5270.149639
_symmetry_space_group_name_H-M "C C C A"
_symmetry_group_IT_number 68
_space_group.IT_coordinate_system_code '2'
_symmetry_cell_setting 'orthorhombic'
loop_
_space_group_symop_operation_xyz
x,y,z
-x,1/2-y,z
x,1/2-y,1/2-z
-x,y,1/2-z
-x,-y,-z
x,1/2+y,-z
-x,1/2+y,1/2+z
x,-y,1/2+z
1/2+x,1/2+y,z
1/2-x,-y,z
1/2+x,-y,1/2-z
1/2-x,1/2+y,1/2-z
1/2-x,1/2-y,-z
1/2+x,y,-z
1/2-x,y,1/2+z
1/2+x,1/2-y,1/2+z
loop_
_atom_site_type_symbol
_atom_site_label
_atom_site_fract_x
_atom_site_fract_y
_atom_site_fract_z
Si Si1 0.318005 0.900647 0.593121
Si Si2 0.059547 0.969865 0.354197
Si Si3 0.818817 0.132416 0.349336
Si Si4 0.372503 0.012319 0.613464
Si Si5 0.186625 0.189083 0.394325
Si Si6 0.926082 0.852105 0.230424
Si Si7 0.170233 0.283147 0.577007
O O1 0.257315 0.881095 0.679468
O O2 0.306044 0.869135 0.462260
O O3 0.386317 0.879418 0.651722
O O4 0.321837 0.965129 0.574936
O O5 0.071850 0.991265 0.499933
O O6 0.067340 0.904633 0.363050
O O7 0.000000 0.977843 0.250000
O O8 0.113311 0.996101 0.261322
O O9 0.850525 0.074392 0.376924
O O10 0.845795 0.171850 0.238012
O O11 0.825061 0.168691 0.474293
O O12 0.153553 0.228557 0.498768
O O13 0.255946 0.218707 0.370851
O O14 0.881654 0.803835 0.178223
O O15 0.000000 0.833943 0.250000
#
# Coordination Sequence:
#
# PCOD9506915 Si02
#       7
#    16  16  16  16  16  16  16
#     4  10  22  36  55  90 123 159 212 261 330 388
#     4  10  21  37  57  85 124 168 219 265 318 394
#     4  11  20  36  59  88 124 162 208 266 338 394
#     4  11  21  35  59  88 125 167 212 272 325 389
#     4  10  21  36  60  85 124 159 209 268 322 400
#     4  10  20  39  61  86 123 162 211 268 321 395
#     4  10  20  37  59  88 118 163 210 261 326 388
#
# _framework density 21.251768999999999
#
# number of rings (size 3 to 8) (size 9 to 14) (size 15 to 20)
#    0.000    1.714    2.857    2.143    0.000    0.571 
#    0.000    4.286    0.000    0.000    0.000    2.000 
#    0.000    0.000    0.000    0.000    0.000    0.000 
#
# Total GULP energy -311750.828000 kJ/mol
# GULP energy per Si atom -5566.979071 kJ/mol
# Density = 2.120340 g / cm^3
# Si number density = 21.251769 Si / 1000 Ang^3
#
#
#
# Elastic Constant Matrix: (Units=GPa)
#
#
# Indices 1 2 3 4 5 6 
#
# 1 47.6530 4.2207 17.4190 0.0000 0.0000 0.0000
# 2 4.2207 114.5433 26.5277 0.0000 0.0000 0.0000
# 3 17.4190 26.5277 94.6440 0.0000 0.0000 0.0000
# 4 0.0000 0.0000 0.0000 35.6521 0.0000 0.0000
# 5 0.0000 0.0000 0.0000 0.0000 19.3842 0.0000
# 6 0.0000 0.0000 0.0000 0.0000 0.0000 18.3365
#
#
#
# Elastic Compliance Matrix: (Units=1/GPa)
#
#
# Indices 1 2 3 4 5 6 
#
# 1 0.022501 0.000139 -0.004180 0.000000 0.000000 0.000000
# 2 0.000139 0.009337 -0.002643 0.000000 0.000000 0.000000
# 3 -0.004180 -0.002643 0.012076 0.000000 0.000000 0.000000
# 4 0.000000 0.000000 0.000000 0.028049 0.000000 0.000000
# 5 0.000000 0.000000 0.000000 0.000000 0.051588 0.000000
# 6 0.000000 0.000000 0.000000 0.000000 0.000000 0.054536
#
#
# Mechanical properties :
#
#
# Convention : Reuss Voigt Hill
#
# Bulk Modulus (GPa) = 32.73730 39.24169 35.98949
# Shear Modulus (GPa) = 24.79704 28.58609 26.69156
#
# Velocity S-wave (km/s) = 3.41958 3.67156 3.54781
# Velocity P-wave (km/s) = 5.57040 6.03979 5.80984
#
# Compressibility (1/GPa) = 0.03054620
#
# Stress axis : x y z
#
# Youngs Moduli (GPa) = 44.44300 107.09796 82.80898
#
# Poissons Ratio (x) = -0.01489 0.34616
# Poissons Ratio (y) = -0.00618 0.21884
# Poissons Ratio (z) = 0.18578 0.28303
#
# Static dielectric constant tensor:
#      x y z
#    x 1.853210 0.000000 0.000000 
#    y 0.000000 1.774500 0.000000 
#    z 0.000000 0.000000 1.818380 
# 
# From -- ./inp_files/15754.got.cif
#   From: 2010.05.17/outbox.cif.g08.bks.cpg/sg68_8_cif.got.tgz:15754.got - 2010.06.03 18:57:09.
