data_PCOD9506772
_publ_section_title
;
Structure prediction by ZEFSAII (Michael W. Deem and Ramdas Pophale) SiO2 
 PCOD9506772
Probable space group: C C C A
;
_chemical_formula_sum "Si O2"
_cell_formula_units_Z 72
_cell_length_a 12.855609
_cell_length_b 13.874088
_cell_length_c 18.453802
_cell_angle_alpha 90.000000
_cell_angle_beta 90.000000
_cell_angle_gamma 90.000000
_cell_volume 3291.417367
_symmetry_space_group_name_H-M "C C C A"
_symmetry_group_IT_number 68
_space_group.IT_coordinate_system_code '2'
_symmetry_cell_setting 'orthorhombic'
loop_
_space_group_symop_operation_xyz
x,y,z
-x,1/2-y,z
x,1/2-y,1/2-z
-x,y,1/2-z
-x,-y,-z
x,1/2+y,-z
-x,1/2+y,1/2+z
x,-y,1/2+z
1/2+x,1/2+y,z
1/2-x,-y,z
1/2+x,-y,1/2-z
1/2-x,1/2+y,1/2-z
1/2-x,1/2-y,-z
1/2+x,y,-z
1/2-x,y,1/2+z
1/2+x,1/2-y,1/2+z
loop_
_atom_site_type_symbol
_atom_site_label
_atom_site_fract_x
_atom_site_fract_y
_atom_site_fract_z
Si Si1 0.750000 0.000000 0.312598
Si Si2 0.603386 0.934554 0.187104
Si Si3 0.500000 0.250000 0.873235
Si Si4 0.083114 0.625706 0.988101
Si Si5 0.951122 0.942308 0.388446
Si Si6 0.750000 0.500000 0.936938
O O1 0.674407 0.939958 0.258716
O O2 0.832314 0.937186 0.359931
O O3 0.540658 0.836628 0.175822
O O4 0.675621 0.943016 0.116964
O O5 0.529520 0.028755 0.176343
O O6 0.586424 0.213133 0.931620
O O7 0.189033 0.580540 0.018145
O O8 0.003114 0.634187 0.056364
O O9 0.044549 0.539254 0.936493
#
# Coordination Sequence:
#
# PCOD9506772 Si02
#       6
#     8  16   8  16  16   8
#     4  11  19  34  60  80 107 159 208 232 270 353
#     4   9  20  35  54  85 120 151 191 241 291 345
#     4  10  20  36  57  88 127 150 176 248 308 334
#     4   9  18  34  57  84 114 144 188 239 293 338
#     4   9  18  33  55  81 109 151 197 235 274 344
#     4   9  17  34  58  84 111 155 202 232 274 355
#
# _framework density 21.875076
#
# number of rings (size 3 to 8) (size 9 to 14) (size 15 to 20)
#    0.000    2.667    0.000    2.667    0.000    0.889 
#    0.000   11.111    0.000   13.333    0.000   14.000 
#    0.000    0.000    0.000    0.000    0.000    0.000 
#
# Total GULP energy -200406.379147 kJ/mol
# GULP energy per Si atom -5566.843865 kJ/mol
# Density = 2.182529 g / cm^3
# Si number density = 21.875076 Si / 1000 Ang^3
#
#
#
# Elastic Constant Matrix: (Units=GPa)
#
#
# Indices 1 2 3 4 5 6 
#
# 1 125.3208 14.8390 66.2178 0.0000 0.0000 0.0000
# 2 14.8390 53.8355 27.5850 0.0000 0.0000 0.0000
# 3 66.2178 27.5850 137.1016 0.0000 0.0000 0.0000
# 4 0.0000 0.0000 0.0000 117.7447 0.0000 0.0000
# 5 0.0000 0.0000 0.0000 0.0000 24.7289 0.0000
# 6 0.0000 0.0000 0.0000 0.0000 0.0000 18.9282
#
#
#
# Elastic Compliance Matrix: (Units=1/GPa)
#
#
# Indices 1 2 3 4 5 6 
#
# 1 0.010719 -0.000337 -0.005109 0.000000 0.000000 0.000000
# 2 -0.000337 0.020721 -0.004007 0.000000 0.000000 0.000000
# 3 -0.005109 -0.004007 0.010568 0.000000 0.000000 0.000000
# 4 0.000000 0.000000 0.000000 0.008493 0.000000 0.000000
# 5 0.000000 0.000000 0.000000 0.000000 0.040439 0.000000
# 6 0.000000 0.000000 0.000000 0.000000 0.000000 0.052831
#
#
# Mechanical properties :
#
#
# Convention : Reuss Voigt Hill
#
# Bulk Modulus (GPa) = 43.28500 59.28239 51.28369
# Shear Modulus (GPa) = 29.34679 46.12141 37.73410
#
# Velocity S-wave (km/s) = 3.66671 4.59671 4.15780
# Velocity P-wave (km/s) = 6.14464 7.43857 6.82235
#
# Compressibility (1/GPa) = 0.02310269
#
# Stress axis : x y z
#
# Youngs Moduli (GPa) = 93.29113 48.26071 94.62747
#
# Poissons Ratio (x) = 0.01624 0.48349
# Poissons Ratio (y) = 0.03140 0.37913
# Poissons Ratio (z) = 0.47667 0.19336
#
# Static dielectric constant tensor:
#      x y z
#    x 2.059960 0.000000 0.000000 
#    y 0.000000 1.811990 0.000000 
#    z 0.000000 0.000000 1.900070 
# 
# From -- ./inp_files/30709.got.cif
#   From: 2010.05.17/outbox.cif.g08.bks.cpg/sg68_16_cif.got.tgz:30709.got - 2010.06.03 18:57:09.
