data_PCOD9506899
_publ_section_title
;
Structure prediction by ZEFSAII (Michael W. Deem and Ramdas Pophale) SiO2 
 PCOD9506899
Probable space group: C C C A
;
_chemical_formula_sum "Si O2"
_cell_formula_units_Z 80
_cell_length_a 5.210851
_cell_length_b 24.740474
_cell_length_c 29.258892
_cell_angle_alpha 90.000000
_cell_angle_beta 90.000000
_cell_angle_gamma 90.000000
_cell_volume 3772.024865
_symmetry_space_group_name_H-M "C C C A"
_symmetry_group_IT_number 68
_space_group.IT_coordinate_system_code '2'
_symmetry_cell_setting 'orthorhombic'
loop_
_space_group_symop_operation_xyz
x,y,z
-x,1/2-y,z
x,1/2-y,1/2-z
-x,y,1/2-z
-x,-y,-z
x,1/2+y,-z
-x,1/2+y,1/2+z
x,-y,1/2+z
1/2+x,1/2+y,z
1/2-x,-y,z
1/2+x,-y,1/2-z
1/2-x,1/2+y,1/2-z
1/2-x,1/2-y,-z
1/2+x,y,-z
1/2-x,y,1/2+z
1/2+x,1/2-y,1/2+z
loop_
_atom_site_type_symbol
_atom_site_label
_atom_site_fract_x
_atom_site_fract_y
_atom_site_fract_z
Si Si1 0.040590 0.623596 0.627933
Si Si2 0.000000 0.750000 0.969012
Si Si3 0.117423 0.050341 0.204865
Si Si4 0.978508 0.313386 0.654078
Si Si5 0.534637 0.128995 0.968367
Si Si6 0.000000 0.137471 0.750000
O O1 0.312106 0.653872 0.625160
O O2 0.062869 0.579807 0.668631
O O3 0.803768 0.662477 0.643853
O O4 0.975979 0.596882 0.579027
O O5 0.750000 0.750000 0.000000
O O6 0.982453 0.809277 0.947833
O O7 0.290453 0.097406 0.227775
O O8 0.000000 0.023884 0.250000
O O9 0.250000 0.000000 0.180185
O O10 0.063245 0.324636 0.706733
O O11 0.000000 0.250000 0.643762
O O12 0.292003 0.122086 0.001994
#
# Coordination Sequence:
#
# PCOD9506899 Si02
#       6
#    16   8  16  16  16   8
#     4  11  24  39  60  91 120 161 212 249 305 376
#     4   8  16  28  48  74  99 140 193 232 282 342
#     4  11  21  39  65  90 123 156 202 267 319 366
#     4  11  23  37  57  85 127 168 204 245 294 367
#     4  10  20  37  56  79 116 158 198 253 303 352
#     4  10  21  38  56  86 122 162 205 244 304 368
#
# _framework density 21.208767999999999
#
# number of rings (size 3 to 8) (size 9 to 14) (size 15 to 20)
#    0.000    1.600    3.000    2.100    2.800    0.000 
#    3.600    2.000    0.000    1.200    0.000    0.000 
#    0.000    0.000    0.000    0.000    0.000    0.000 
#
# Total GULP energy -222894.375303 kJ/mol
# GULP energy per Si atom -5572.359383 kJ/mol
# Density = 2.116050 g / cm^3
# Si number density = 21.208768 Si / 1000 Ang^3
#
#
#
# Elastic Constant Matrix: (Units=GPa)
#
#
# Indices 1 2 3 4 5 6 
#
# 1 73.9007 7.5442 -8.2220 0.0000 0.0000 0.0000
# 2 7.5442 45.3659 -2.5665 0.0000 0.0000 0.0000
# 3 -8.2220 -2.5665 102.1095 0.0000 0.0000 0.0000
# 4 0.0000 0.0000 0.0000 97.8014 0.0000 0.0000
# 5 0.0000 0.0000 0.0000 0.0000 29.2669 0.0000
# 6 0.0000 0.0000 0.0000 0.0000 0.0000 20.0165
#
#
#
# Elastic Compliance Matrix: (Units=1/GPa)
#
#
# Indices 1 2 3 4 5 6 
#
# 1 0.013879 -0.002248 0.001061 0.000000 0.000000 0.000000
# 2 -0.002248 0.022439 0.000383 0.000000 0.000000 0.000000
# 3 0.001061 0.000383 0.009888 0.000000 0.000000 0.000000
# 4 0.000000 0.000000 0.000000 0.010225 0.000000 0.000000
# 5 0.000000 0.000000 0.000000 0.000000 0.034168 0.000000
# 6 0.000000 0.000000 0.000000 0.000000 0.000000 0.049959
#
#
# Mechanical properties :
#
#
# Convention : Reuss Voigt Hill
#
# Bulk Modulus (GPa) = 22.42243 23.87639 23.14941
# Shear Modulus (GPa) = 31.84060 44.39163 38.11612
#
# Velocity S-wave (km/s) = 3.87886 4.57998 4.24392
# Velocity P-wave (km/s) = 5.53678 6.26503 5.91213
#
# Compressibility (1/GPa) = 0.04459819
#
# Stress axis : x y z
#
# Youngs Moduli (GPa) = 72.05020 44.56625 101.12781
#
# Poissons Ratio (x) = 0.10019 -0.10730
# Poissons Ratio (y) = 0.16197 -0.03873
# Poissons Ratio (z) = -0.07645 -0.01707
#
# Static dielectric constant tensor:
#      x y z
#    x 1.843560 0.000000 0.000000 
#    y 0.000000 1.803400 0.000000 
#    z 0.000000 0.000000 1.779860 
# 
# From -- ./inp_files/48450.got.cif
#   From: 2010.05.17/outbox.cif.g08.bks.cpg/sg68_25_cif.got.tgz:48450.got - 2010.06.03 18:57:09.
