data_PCOD9506360
_publ_section_title
;
Structure prediction by ZEFSAII (Michael W. Deem and Ramdas Pophale) SiO2 
 PCOD9506360
Probable space group: C C C A
;
_chemical_formula_sum "Si O2"
_cell_formula_units_Z 96
_cell_length_a 14.173893
_cell_length_b 15.249853
_cell_length_c 21.465373
_cell_angle_alpha 90.000000
_cell_angle_beta 90.000000
_cell_angle_gamma 90.000000
_cell_volume 4639.735752
_symmetry_space_group_name_H-M "C C C A"
_symmetry_group_IT_number 68
_space_group.IT_coordinate_system_code '2'
_symmetry_cell_setting 'orthorhombic'
loop_
_space_group_symop_operation_xyz
x,y,z
-x,1/2-y,z
x,1/2-y,1/2-z
-x,y,1/2-z
-x,-y,-z
x,1/2+y,-z
-x,1/2+y,1/2+z
x,-y,1/2+z
1/2+x,1/2+y,z
1/2-x,-y,z
1/2+x,-y,1/2-z
1/2-x,1/2+y,1/2-z
1/2-x,1/2-y,-z
1/2+x,y,-z
1/2-x,y,1/2+z
1/2+x,1/2-y,1/2+z
loop_
_atom_site_type_symbol
_atom_site_label
_atom_site_fract_x
_atom_site_fract_y
_atom_site_fract_z
Si Si1 0.820908 0.364198 0.021808
Si Si2 0.610373 0.126863 0.739110
Si Si3 0.456684 0.661050 0.582757
Si Si4 0.884755 0.063821 0.999189
Si Si5 0.111703 0.223385 0.145155
Si Si6 0.638005 0.499020 0.866325
O O1 0.867042 0.463129 0.023955
O O2 0.711745 0.383812 0.011358
O O3 0.845079 0.303144 0.079930
O O4 0.869420 0.318990 0.962786
O O5 0.500000 0.146299 0.750000
O O6 0.641226 0.141687 0.809583
O O7 0.648260 0.196495 0.688088
O O8 0.622691 0.038188 0.702295
O O9 0.500000 0.750000 0.608404
O O10 0.534175 0.611469 0.539699
O O11 0.413424 0.591806 0.630223
O O12 0.902642 0.056021 0.074118
O O13 0.000000 0.250000 0.135830
O O14 0.750000 0.500000 0.879036
#
# Coordination Sequence:
#
# PCOD9506360 Si02
#       6
#    16  16  16  16  16  16
#     4  10  19  38  59  89 125 158 194 248 310 360
#     4   9  21  36  58  87 112 150 202 250 303 356
#     4  11  24  36  58  92 125 163 206 247 310 375
#     4  10  22  37  58  92 125 162 203 243 304 383
#     4   9  19  35  58  92 116 144 198 253 306 353
#     4  11  21  42  60  84 128 165 206 251 312 383
#
# _framework density 20.690833000000001
#
# number of rings (size 3 to 8) (size 9 to 14) (size 15 to 20)
#    0.000    2.000    3.333    3.500   11.667    2.000 
#    3.000    0.000    0.000    0.500    0.000    0.000 
#    0.000    0.000    0.000    0.000    0.000    0.000 
#
# Total GULP energy -267520.605898 kJ/mol
# GULP energy per Si atom -5573.345956 kJ/mol
# Density = 2.064374 g / cm^3
# Si number density = 20.690833 Si / 1000 Ang^3
#
#
#
# Elastic Constant Matrix: (Units=GPa)
#
#
# Indices 1 2 3 4 5 6 
#
# 1 82.9192 39.3228 8.5547 0.0000 0.0000 0.0000
# 2 39.3228 95.8856 35.5161 0.0000 0.0000 0.0000
# 3 8.5547 35.5161 75.3849 0.0000 0.0000 0.0000
# 4 0.0000 0.0000 0.0000 33.7655 0.0000 0.0000
# 5 0.0000 0.0000 0.0000 0.0000 78.9989 0.0000
# 6 0.0000 0.0000 0.0000 0.0000 0.0000 30.2148
#
#
#
# Elastic Compliance Matrix: (Units=1/GPa)
#
#
# Indices 1 2 3 4 5 6 
#
# 1 0.015103 -0.006734 0.001459 0.000000 0.000000 0.000000
# 2 -0.006734 0.015636 -0.006603 0.000000 0.000000 0.000000
# 3 0.001459 -0.006603 0.016210 0.000000 0.000000 0.000000
# 4 0.000000 0.000000 0.000000 0.029616 0.000000 0.000000
# 5 0.000000 0.000000 0.000000 0.000000 0.012658 0.000000
# 6 0.000000 0.000000 0.000000 0.000000 0.000000 0.033096
#
#
# Mechanical properties :
#
#
# Convention : Reuss Voigt Hill
#
# Bulk Modulus (GPa) = 43.11484 46.77523 44.94504
# Shear Modulus (GPa) = 32.50815 39.98224 36.24520
#
# Velocity S-wave (km/s) = 3.96806 4.40064 4.18993
# Velocity P-wave (km/s) = 6.47123 6.96252 6.72136
#
# Compressibility (1/GPa) = 0.02319387
#
# Stress axis : x y z
#
# Youngs Moduli (GPa) = 66.21232 63.95362 61.68878
#
# Poissons Ratio (x) = 0.43067 -0.08999
# Poissons Ratio (y) = 0.44588 0.40730
# Poissons Ratio (z) = -0.09659 0.42226
#
# Static dielectric constant tensor:
#      x y z
#    x 1.754890 0.000000 0.000000 
#    y 0.000000 1.838310 0.000000 
#    z 0.000000 0.000000 1.742880 
# 
# From -- ./inp_files/38547.got.cif
#   From: 2010.05.17/outbox.cif.g08.bks.cpg/sg68_20_cif.got.tgz:38547.got - 2010.06.03 18:57:09.
