data_PCOD9506653
_publ_section_title
;
Structure prediction by ZEFSAII (Michael W. Deem and Ramdas Pophale) SiO2 
 PCOD9506653
Probable space group: C C C A
;
_chemical_formula_sum "Si O2"
_cell_formula_units_Z 96
_cell_length_a 7.371140
_cell_length_b 23.509211
_cell_length_c 26.023970
_cell_angle_alpha 90.000000
_cell_angle_beta 90.000000
_cell_angle_gamma 90.000000
_cell_volume 4509.685579
_symmetry_space_group_name_H-M "C C C A"
_symmetry_group_IT_number 68
_space_group.IT_coordinate_system_code '2'
_symmetry_cell_setting 'orthorhombic'
loop_
_space_group_symop_operation_xyz
x,y,z
-x,1/2-y,z
x,1/2-y,1/2-z
-x,y,1/2-z
-x,-y,-z
x,1/2+y,-z
-x,1/2+y,1/2+z
x,-y,1/2+z
1/2+x,1/2+y,z
1/2-x,-y,z
1/2+x,-y,1/2-z
1/2-x,1/2+y,1/2-z
1/2-x,1/2-y,-z
1/2+x,y,-z
1/2-x,y,1/2+z
1/2+x,1/2-y,1/2+z
loop_
_atom_site_type_symbol
_atom_site_label
_atom_site_fract_x
_atom_site_fract_y
_atom_site_fract_z
Si Si1 0.724881 0.568019 0.301181
Si Si2 0.794288 0.066184 0.311697
Si Si3 0.172016 0.117409 0.080491
Si Si4 0.714223 0.744483 0.060448
Si Si5 0.862670 0.546770 0.479039
Si Si6 0.732111 0.365038 0.401396
O O1 0.750000 0.500000 0.308689
O O2 0.508749 0.575516 0.305037
O O3 0.787288 0.583798 0.243454
O O4 0.802769 0.607917 0.345731
O O5 0.752034 0.093748 0.366144
O O6 0.750000 0.000000 0.316458
O O7 0.255749 0.179768 0.073997
O O8 0.209235 0.076848 0.031514
O O9 0.948200 0.123020 0.084125
O O10 0.500000 0.750000 0.069509
O O11 0.798952 0.797864 0.090626
O O12 0.750000 0.750000 0.000000
O O13 0.750000 0.500000 0.446055
O O14 0.887197 0.599627 0.441982
O O15 0.000000 0.500000 0.500000
#
# Coordination Sequence:
#
# PCOD9506653 Si02
#       6
#    16  16  16  16  16  16
#     4   9  18  33  55  76 106 137 171 214 267 317
#     4   9  18  34  53  79 103 136 174 216 262 315
#     4  10  20  35  53  75 107 137 176 220 260 311
#     4  10  20  36  53  71 102 142 177 215 258 313
#     4  12  22  32  50  79 110 138 169 216 270 320
#     4  10  20  35  53  76 106 139 175 216 264 315
#
# _framework density 21.287514999999999
#
# number of rings (size 3 to 8) (size 9 to 14) (size 15 to 20)
#    0.000    2.000    3.333    1.000    2.333    0.000 
#    0.000    0.833    0.000    5.000    0.000    0.000 
#    0.000    6.667    0.000    0.000    0.000    0.000 
#
# Total GULP energy -267548.697072 kJ/mol
# GULP energy per Si atom -5573.931189 kJ/mol
# Density = 2.123906 g / cm^3
# Si number density = 21.287515 Si / 1000 Ang^3
#
#
#
# Elastic Constant Matrix: (Units=GPa)
#
#
# Indices 1 2 3 4 5 6 
#
# 1 48.6836 17.5465 8.6326 0.0000 0.0000 0.0000
# 2 17.5465 188.4918 119.0856 0.0000 0.0000 0.0000
# 3 8.6326 119.0856 218.0767 0.0000 0.0000 0.0000
# 4 0.0000 0.0000 0.0000 27.3392 0.0000 0.0000
# 5 0.0000 0.0000 0.0000 0.0000 -3.0421 0.0000
# 6 0.0000 0.0000 0.0000 0.0000 0.0000 25.9144
#
#
#
# Elastic Compliance Matrix: (Units=1/GPa)
#
#
# Indices 1 2 3 4 5 6 
#
# 1 0.021273 -0.002211 0.000365 0.000000 0.000000 0.000000
# 2 -0.002211 0.008329 -0.004461 0.000000 0.000000 0.000000
# 3 0.000365 -0.004461 0.007007 0.000000 0.000000 0.000000
# 4 0.000000 0.000000 0.000000 0.036578 0.000000 0.000000
# 5 0.000000 0.000000 0.000000 0.000000 -0.328725 0.000000
# 6 0.000000 0.000000 0.000000 0.000000 0.000000 0.038589
#
#
# Mechanical properties :
#
#
# Convention : Reuss Voigt Hill
#
# Bulk Modulus (GPa) = 41.67353 82.86461 62.26907
# Shear Modulus (GPa) = -25.46643 30.70814 2.62086
#
# Velocity S-wave (km/s) = -3.46252 3.80220 1.11078
# Velocity P-wave (km/s) = 1.90620 7.63456 5.56418
#
# Compressibility (1/GPa) = 0.02399605
#
# Stress axis : x y z
#
# Youngs Moduli (GPa) = 47.00806 120.05612 142.71287
#
# Poissons Ratio (x) = 0.26545 -0.05214
# Poissons Ratio (y) = 0.10394 0.63663
# Poissons Ratio (z) = -0.01717 0.53556
#
# Static dielectric constant tensor:
#      x y z
#    x 1.994530 0.000000 0.000000 
#    y 0.000000 1.742380 0.000000 
#    z 0.000000 0.000000 1.752340 
# 
# From -- ./inp_files/43309.got.cif
#   From: 2010.05.17/outbox.cif.g08.bks.cpg/sg68_22_cif.got.tgz:43309.got - 2010.06.03 18:57:09.
