data_PCOD9506727
_publ_section_title
;
Structure prediction by ZEFSAII (Michael W. Deem and Ramdas Pophale) SiO2 
 PCOD9506727
Probable space group: C C C A
;
_chemical_formula_sum "Si O2"
_cell_formula_units_Z 104
_cell_length_a 18.370658
_cell_length_b 21.377409
_cell_length_c 13.684832
_cell_angle_alpha 90.000000
_cell_angle_beta 90.000000
_cell_angle_gamma 90.000000
_cell_volume 5374.267122
_symmetry_space_group_name_H-M "C C C A"
_symmetry_group_IT_number 68
_space_group.IT_coordinate_system_code '2'
_symmetry_cell_setting 'orthorhombic'
loop_
_space_group_symop_operation_xyz
x,y,z
-x,1/2-y,z
x,1/2-y,1/2-z
-x,y,1/2-z
-x,-y,-z
x,1/2+y,-z
-x,1/2+y,1/2+z
x,-y,1/2+z
1/2+x,1/2+y,z
1/2-x,-y,z
1/2+x,-y,1/2-z
1/2-x,1/2+y,1/2-z
1/2-x,1/2-y,-z
1/2+x,y,-z
1/2-x,y,1/2+z
1/2+x,1/2-y,1/2+z
loop_
_atom_site_type_symbol
_atom_site_label
_atom_site_fract_x
_atom_site_fract_y
_atom_site_fract_z
Si Si1 0.430791 0.521912 0.060692
Si Si2 0.500000 0.589339 0.250000
Si Si3 0.747027 0.182784 0.140195
Si Si4 0.681537 0.451978 0.319859
Si Si5 0.752705 0.814300 0.412836
Si Si6 0.813921 0.550259 0.100740
Si Si7 0.879901 0.686681 0.708958
O O1 0.461243 0.555767 0.158045
O O2 0.381158 0.467145 0.103969
O O3 0.500000 0.500000 0.000000
O O4 0.374743 0.554695 0.983742
O O5 0.436898 0.632073 0.295795
O O6 0.702279 0.120272 0.162061
O O7 0.714325 0.253820 0.143094
O O8 0.816248 0.176419 0.210782
O O9 0.769701 0.183892 0.026904
O O10 0.750000 0.500000 0.335424
O O11 0.656046 0.466519 0.208612
O O12 0.777644 0.882445 0.380030
O O13 0.666474 0.807478 0.390325
O O14 0.750000 0.500000 0.076338
O O15 0.915136 0.750000 0.750000
#
# Coordination Sequence:
#
# PCOD9506727 Si02
#       7
#    16   8  16  16  16  16  16
#     4  12  27  41  59  88 126 167 211 256 308 384
#     4  12  25  40  60  82 132 171 202 248 312 378
#     4  10  20  36  62  93 126 155 204 258 310 362
#     4  11  22  39  65  92 122 162 209 263 317 369
#     4  10  20  35  62  94 124 156 203 258 310 367
#     4  11  23  39  67  92 122 161 211 264 321 367
#     4  10  21  38  61  94 122 159 204 253 312 372
#
# _framework density 19.351476000000002
#
# number of rings (size 3 to 8) (size 9 to 14) (size 15 to 20)
#    0.000    1.231    1.538    5.308    6.462    0.000 
#    0.000    0.000    0.000    0.000    0.000    2.154 
#    0.000    0.000    0.000    0.000    0.000    0.000 
#
# Total GULP energy -289675.758116 kJ/mol
# GULP energy per Si atom -5570.687656 kJ/mol
# Density = 1.930743 g / cm^3
# Si number density = 19.351476 Si / 1000 Ang^3
#
#
#
# Elastic Constant Matrix: (Units=GPa)
#
#
# Indices 1 2 3 4 5 6 
#
# 1 83.6787 55.8976 34.5343 0.0000 0.0000 0.0000
# 2 55.8976 140.9658 29.8024 0.0000 0.0000 0.0000
# 3 34.5343 29.8024 108.0015 0.0000 0.0000 0.0000
# 4 0.0000 0.0000 0.0000 13.1824 0.0000 0.0000
# 5 0.0000 0.0000 0.0000 0.0000 39.0390 0.0000
# 6 0.0000 0.0000 0.0000 0.0000 0.0000 31.6305
#
#
#
# Elastic Compliance Matrix: (Units=1/GPa)
#
#
# Indices 1 2 3 4 5 6 
#
# 1 0.017718 -0.006189 -0.003958 0.000000 0.000000 0.000000
# 2 -0.006189 0.009695 -0.000696 0.000000 0.000000 0.000000
# 3 -0.003958 -0.000696 0.010717 0.000000 0.000000 0.000000
# 4 0.000000 0.000000 0.000000 0.075859 0.000000 0.000000
# 5 0.000000 0.000000 0.000000 0.000000 0.025615 0.000000
# 6 0.000000 0.000000 0.000000 0.000000 0.000000 0.031615
#
#
# Mechanical properties :
#
#
# Convention : Reuss Voigt Hill
#
# Bulk Modulus (GPa) = 60.81249 63.67940 62.24594
# Shear Modulus (GPa) = 25.20326 30.93117 28.06722
#
# Velocity S-wave (km/s) = 3.61279 4.00232 3.81253
# Velocity P-wave (km/s) = 6.99260 7.37131 7.18445
#
# Compressibility (1/GPa) = 0.01644399
#
# Stress axis : x y z
#
# Youngs Moduli (GPa) = 56.43932 103.14249 93.31168
#
# Poissons Ratio (x) = 0.63836 0.36930
# Poissons Ratio (y) = 0.34931 0.06498
# Poissons Ratio (z) = 0.22337 0.07182
#
# Static dielectric constant tensor:
#      x y z
#    x 1.715330 0.000000 0.000000 
#    y 0.000000 1.757750 0.000000 
#    z 0.000000 0.000000 1.759330 
# 
# From -- ./inp_files/23797.got.cif
#   From: 2010.05.17/outbox.cif.g08.bks.cpg/sg68_12_cif.got.tgz:23797.got - 2010.06.03 18:57:09.
