data_PCOD9506324
_publ_section_title
;
Structure prediction by ZEFSAII (Michael W. Deem and Ramdas Pophale) SiO2 
 PCOD9506324
Probable space group: C C C A
;
_chemical_formula_sum "Si O2"
_cell_formula_units_Z 48
_cell_length_a 13.055972
_cell_length_b 14.398523
_cell_length_c 11.568229
_cell_angle_alpha 90.000000
_cell_angle_beta 90.000000
_cell_angle_gamma 90.000000
_cell_volume 2174.673346
_symmetry_space_group_name_H-M "C C C A"
_symmetry_group_IT_number 68
_space_group.IT_coordinate_system_code '2'
_symmetry_cell_setting 'orthorhombic'
loop_
_space_group_symop_operation_xyz
x,y,z
-x,1/2-y,z
x,1/2-y,1/2-z
-x,y,1/2-z
-x,-y,-z
x,1/2+y,-z
-x,1/2+y,1/2+z
x,-y,1/2+z
1/2+x,1/2+y,z
1/2-x,-y,z
1/2+x,-y,1/2-z
1/2-x,1/2+y,1/2-z
1/2-x,1/2-y,-z
1/2+x,y,-z
1/2-x,y,1/2+z
1/2+x,1/2-y,1/2+z
loop_
_atom_site_type_symbol
_atom_site_label
_atom_site_fract_x
_atom_site_fract_y
_atom_site_fract_z
Si Si1 0.021845 0.645066 0.036846
Si Si2 0.382058 0.655256 0.295488
Si Si3 0.358816 0.023497 0.897644
O O1 0.104422 0.653501 0.931824
O O2 0.000000 0.750000 0.077445
O O3 0.922711 0.595478 0.978143
O O4 0.071589 0.567953 0.118845
O O5 0.332745 0.750000 0.250000
O O6 0.500000 0.655510 0.250000
O O7 0.336312 0.570583 0.225623
O O8 0.250000 0.000000 0.952446
#
# Coordination Sequence:
#
# PCOD9506324 Si02
#       3
#    16  16  16
#     4  10  19  37  61  80 113 155 187 229 284 339
#     4   9  15  34  58  74 101 154 193 214 268 346
#     4  10  21  33  57  90 113 142 194 236 274 332
#
# _framework density 22.072282000000001
#
# number of rings (size 3 to 8) (size 9 to 14) (size 15 to 20)
#    0.000    2.333    6.667    0.000    0.000    2.667 
#    0.000    0.000    0.000    2.000    0.000    0.000 
#    0.000    0.000    0.000    0.000    0.000    0.000 
#
# Total GULP energy -133760.390419 kJ/mol
# GULP energy per Si atom -5573.349601 kJ/mol
# Density = 2.202204 g / cm^3
# Si number density = 22.072282 Si / 1000 Ang^3
#
#
#
# Elastic Constant Matrix: (Units=GPa)
#
#
# Indices 1 2 3 4 5 6 
#
# 1 70.0131 46.4179 -8.5704 0.0000 0.0000 0.0000
# 2 46.4179 196.4546 20.3875 0.0000 0.0000 0.0000
# 3 -8.5704 20.3875 30.0733 0.0000 0.0000 0.0000
# 4 0.0000 0.0000 0.0000 -37.3238 0.0000 0.0000
# 5 0.0000 0.0000 0.0000 0.0000 -1.6342 0.0000
# 6 0.0000 0.0000 0.0000 0.0000 0.0000 229.9257
#
#
#
# Elastic Compliance Matrix: (Units=1/GPa)
#
#
# Indices 1 2 3 4 5 6 
#
# 1 0.018999 -0.005433 0.009098 0.000000 0.000000 0.000000
# 2 -0.005433 0.007029 -0.006314 0.000000 0.000000 0.000000
# 3 0.009098 -0.006314 0.040125 0.000000 0.000000 0.000000
# 4 0.000000 0.000000 0.000000 -0.026793 0.000000 0.000000
# 5 0.000000 0.000000 0.000000 0.000000 -0.611929 0.000000
# 6 0.000000 0.000000 0.000000 0.000000 0.000000 0.004349
#
#
# Mechanical properties :
#
#
# Convention : Reuss Voigt Hill
#
# Bulk Modulus (GPa) = 16.43261 45.89011 31.16136
# Shear Modulus (GPa) = -9.21427 54.08061 22.43317
#
# Velocity S-wave (km/s) = -2.04540 4.95528 3.19148
# Velocity P-wave (km/s) = 1.37218 7.31954 5.26586
#
# Compressibility (1/GPa) = 0.06085459
#
# Stress axis : x y z
#
# Youngs Moduli (GPa) = 52.63496 142.26429 24.92219
#
# Poissons Ratio (x) = 0.77294 -0.22673
# Poissons Ratio (y) = 0.28597 0.15735
# Poissons Ratio (z) = -0.47885 0.89820
#
# Static dielectric constant tensor:
#      x y z
#    x 1.857780 0.000000 0.000000 
#    y 0.000000 1.901840 0.000000 
#    z 0.000000 0.000000 1.906200 
# 
# From -- ./inp_files/12352.got.cif
#   From: 2010.05.17/outbox.cif.g08.bks.cpg/sg68_7_cif.got.tgz:12352.got - 2010.06.03 18:57:09.
