data_PCOD9506634
_publ_section_title
;
Structure prediction by ZEFSAII (Michael W. Deem and Ramdas Pophale) SiO2 
 PCOD9506634
Probable space group: C C C A
;
_chemical_formula_sum "Si O2"
_cell_formula_units_Z 96
_cell_length_a 15.149463
_cell_length_b 11.362073
_cell_length_c 25.922221
_cell_angle_alpha 90.000000
_cell_angle_beta 90.000000
_cell_angle_gamma 90.000000
_cell_volume 4461.973872
_symmetry_space_group_name_H-M "C C C A"
_symmetry_group_IT_number 68
_space_group.IT_coordinate_system_code '2'
_symmetry_cell_setting 'orthorhombic'
loop_
_space_group_symop_operation_xyz
x,y,z
-x,1/2-y,z
x,1/2-y,1/2-z
-x,y,1/2-z
-x,-y,-z
x,1/2+y,-z
-x,1/2+y,1/2+z
x,-y,1/2+z
1/2+x,1/2+y,z
1/2-x,-y,z
1/2+x,-y,1/2-z
1/2-x,1/2+y,1/2-z
1/2-x,1/2-y,-z
1/2+x,y,-z
1/2-x,y,1/2+z
1/2+x,1/2-y,1/2+z
loop_
_atom_site_type_symbol
_atom_site_label
_atom_site_fract_x
_atom_site_fract_y
_atom_site_fract_z
Si Si1 0.500000 0.250000 0.084560
Si Si2 0.004937 0.110052 0.127832
Si Si3 0.612560 0.954927 0.556709
Si Si4 0.750000 0.500000 0.707381
Si Si5 0.851658 0.090691 0.877848
Si Si6 0.250000 0.000000 0.858593
Si Si7 0.373508 0.873652 0.281626
Si Si8 0.750000 0.500000 0.031827
O O1 0.451843 0.346068 0.050463
O O2 0.571546 0.315387 0.119327
O O3 0.960180 0.093227 0.184978
O O4 0.000000 0.250000 0.122329
O O5 0.096464 0.036416 0.125005
O O6 0.946819 0.058837 0.080568
O O7 0.680775 0.936552 0.603791
O O8 0.669230 0.970964 0.505762
O O9 0.785960 0.399015 0.669822
O O10 0.664981 0.463701 0.739874
O O11 0.791648 0.094854 0.929032
O O12 0.297662 0.102077 0.825230
O O13 0.380382 0.750000 0.250000
#
# Coordination Sequence:
#
# PCOD9506634 Si02
#       8
#     8  16  16   8  16   8  16   8
#     4  10  22  38  64  89 122 164 198 257 306 366
#     4  10  21  40  62  90 123 163 200 256 309 364
#     4   9  20  41  63  89 123 158 205 249 307 369
#     4  10  22  38  58  88 124 160 206 254 298 366
#     4  10  23  42  61  89 126 162 204 252 312 363
#     4   8  18  36  58  86 122 158 198 252 302 360
#     4  10  20  34  61  88 116 158 208 250 299 358
#     4  10  22  46  62  92 122 160 210 252 304 374
#
# _framework density 21.515142000000001
#
# number of rings (size 3 to 8) (size 9 to 14) (size 15 to 20)
#    0.000    2.333    0.000    1.000    2.333    5.667 
#   15.000    0.000    0.000    2.000    0.000    0.000 
#    0.000    0.000    0.000    0.000    0.000    0.000 
#
# Total GULP energy -267397.493129 kJ/mol
# GULP energy per Si atom -5570.781107 kJ/mol
# Density = 2.146617 g / cm^3
# Si number density = 21.515142 Si / 1000 Ang^3
#
#
#
# Elastic Constant Matrix: (Units=GPa)
#
#
# Indices 1 2 3 4 5 6 
#
# 1 90.5264 25.5361 39.3671 0.0000 0.0000 0.0000
# 2 25.5361 71.4899 30.2109 0.0000 0.0000 0.0000
# 3 39.3671 30.2109 123.4423 0.0000 0.0000 0.0000
# 4 0.0000 0.0000 0.0000 -26.2050 0.0000 0.0000
# 5 0.0000 0.0000 0.0000 0.0000 -9.8603 0.0000
# 6 0.0000 0.0000 0.0000 0.0000 0.0000 28.0115
#
#
#
# Elastic Compliance Matrix: (Units=1/GPa)
#
#
# Indices 1 2 3 4 5 6 
#
# 1 0.013509 -0.003351 -0.003488 0.000000 0.000000 0.000000
# 2 -0.003351 0.016433 -0.002953 0.000000 0.000000 0.000000
# 3 -0.003488 -0.002953 0.009936 0.000000 0.000000 0.000000
# 4 0.000000 0.000000 0.000000 -0.038161 0.000000 0.000000
# 5 0.000000 0.000000 0.000000 0.000000 -0.101417 0.000000
# 6 0.000000 0.000000 0.000000 0.000000 0.000000 0.035700
#
#
# Mechanical properties :
#
#
# Convention : Reuss Voigt Hill
#
# Bulk Modulus (GPa) = 49.27748 52.85407 51.06578
# Shear Modulus (GPa) = -132.79687 11.07888 -60.85899
#
# Velocity S-wave (km/s) = -7.86489 2.27168 -5.32428
# Velocity P-wave (km/s) = 7.71505 5.61249 3.74313
#
# Compressibility (1/GPa) = 0.02029325
#
# Stress axis : x y z
#
# Youngs Moduli (GPa) = 74.02682 60.85323 100.64445
#
# Poissons Ratio (x) = 0.20394 0.35103
# Poissons Ratio (y) = 0.24809 0.29720
# Poissons Ratio (z) = 0.25819 0.17970
#
# Static dielectric constant tensor:
#      x y z
#    x 1.823470 0.000000 0.000000 
#    y 0.000000 5.208020 0.000000 
#    z 0.000000 0.000000 1.794280 
# 
# From -- ./inp_files/46054.got.cif
#   From: 2010.05.17/outbox.cif.g08.bks.cpg/sg68_24_cif.got.tgz:46054.got - 2010.06.03 18:57:09.
