data_PCOD9506470
_publ_section_title
;
Structure prediction by ZEFSAII (Michael W. Deem and Ramdas Pophale) SiO2 
 PCOD9506470
Probable space group: C C C A
;
_chemical_formula_sum "Si O2"
_cell_formula_units_Z 84
_cell_length_a 23.592347
_cell_length_b 8.967240
_cell_length_c 23.325934
_cell_angle_alpha 90.000000
_cell_angle_beta 90.000000
_cell_angle_gamma 90.000000
_cell_volume 4934.793490
_symmetry_space_group_name_H-M "C C C A"
_symmetry_group_IT_number 68
_space_group.IT_coordinate_system_code '2'
_symmetry_cell_setting 'orthorhombic'
loop_
_space_group_symop_operation_xyz
x,y,z
-x,1/2-y,z
x,1/2-y,1/2-z
-x,y,1/2-z
-x,-y,-z
x,1/2+y,-z
-x,1/2+y,1/2+z
x,-y,1/2+z
1/2+x,1/2+y,z
1/2-x,-y,z
1/2+x,-y,1/2-z
1/2-x,1/2+y,1/2-z
1/2-x,1/2-y,-z
1/2+x,y,-z
1/2-x,y,1/2+z
1/2+x,1/2-y,1/2+z
loop_
_atom_site_type_symbol
_atom_site_label
_atom_site_fract_x
_atom_site_fract_y
_atom_site_fract_z
Si Si1 0.339148 0.494158 0.987609
Si Si2 0.642675 0.769528 0.576854
Si Si3 0.500000 0.250000 0.250000
Si Si4 0.110260 0.366798 0.703203
Si Si5 0.279679 0.224053 0.924714
Si Si6 0.801573 0.380872 0.296456
O O1 0.372020 0.606021 0.945932
O O2 0.302568 0.381273 0.948567
O O3 0.375652 0.390605 0.029728
O O4 0.303344 0.600341 0.030915
O O5 0.622811 0.809189 0.639710
O O6 0.711652 0.776414 0.576726
O O7 0.456907 0.146123 0.285560
O O8 0.135067 0.250000 0.750000
O O9 0.140925 0.524120 0.711403
O O10 0.299871 0.185535 0.860794
O O11 0.796025 0.250000 0.250000
O O12 0.750000 0.500000 0.291881
#
# Coordination Sequence:
#
# PCOD9506470 Si02
#       6
#    16  16   4  16  16  16
#     4  10  20  30  49  82 124 166 185 225 291 375
#     4  11  18  32  53  79 120 149 200 230 291 359
#     4   8  24  44  70  76 108 160 222 242 310 340
#     4  10  22  42  61  83 106 158 209 249 296 354
#     4  11  19  31  48  81 123 162 188 226 291 363
#     4  12  24  36  55  91 129 153 193 247 311 361
#
# _framework density 17.021989000000001
#
# number of rings (size 3 to 8) (size 9 to 14) (size 15 to 20)
#    0.571    0.762    3.810    5.143    2.667    0.000 
#    0.000    0.476    0.000    1.143    0.000    0.000 
#    0.000    0.000    0.000    0.000    0.000    0.000 
#
# Total GULP energy -234173.350360 kJ/mol
# GULP energy per Si atom -5575.555961 kJ/mol
# Density = 1.698325 g / cm^3
# Si number density = 17.021989 Si / 1000 Ang^3
#
#
#
# Elastic Constant Matrix: (Units=GPa)
#
#
# Indices 1 2 3 4 5 6 
#
# 1 57.3277 30.6876 37.2778 0.0000 0.0000 0.0000
# 2 30.6876 131.6546 76.9040 0.0000 0.0000 0.0000
# 3 37.2778 76.9040 140.7497 0.0000 0.0000 0.0000
# 4 0.0000 0.0000 0.0000 33.3800 0.0000 0.0000
# 5 0.0000 0.0000 0.0000 0.0000 10.8487 0.0000
# 6 0.0000 0.0000 0.0000 0.0000 0.0000 17.3714
#
#
#
# Elastic Compliance Matrix: (Units=1/GPa)
#
#
# Indices 1 2 3 4 5 6 
#
# 1 0.021614 -0.002488 -0.004365 0.000000 0.000000 0.000000
# 2 -0.002488 0.011443 -0.005593 0.000000 0.000000 0.000000
# 3 -0.004365 -0.005593 0.011317 0.000000 0.000000 0.000000
# 4 0.000000 0.000000 0.000000 0.029958 0.000000 0.000000
# 5 0.000000 0.000000 0.000000 0.000000 0.092177 0.000000
# 6 0.000000 0.000000 0.000000 0.000000 0.000000 0.057566
#
#
# Mechanical properties :
#
#
# Convention : Reuss Voigt Hill
#
# Bulk Modulus (GPa) = 51.33258 68.83009 60.08133
# Shear Modulus (GPa) = 19.57249 24.64421 22.10835
#
# Velocity S-wave (km/s) = 3.39460 3.80911 3.60781
# Velocity P-wave (km/s) = 6.75178 7.73754 7.26141
#
# Compressibility (1/GPa) = 0.01948081
#
# Stress axis : x y z
#
# Youngs Moduli (GPa) = 46.26655 87.39112 88.36345
#
# Poissons Ratio (x) = 0.21746 0.38569
# Poissons Ratio (y) = 0.11513 0.49423
# Poissons Ratio (z) = 0.20195 0.48879
#
# Static dielectric constant tensor:
#      x y z
#    x 1.566640 0.000000 0.000000 
#    y 0.000000 1.615830 0.000000 
#    z 0.000000 0.000000 1.587270 
# 
# From -- ./inp_files/47175.got.cif
#   From: 2010.05.17/outbox.cif.g08.bks.cpg/sg68_24_cif.got.tgz:47175.got - 2010.06.03 18:57:09.
