data_PCOD9506044
_publ_section_title
;
Structure prediction by ZEFSAII (Michael W. Deem and Ramdas Pophale) SiO2 
 PCOD9506044
Probable space group: C C C A
;
_chemical_formula_sum "Si O2"
_cell_formula_units_Z 96
_cell_length_a 26.918373
_cell_length_b 16.447855
_cell_length_c 11.617244
_cell_angle_alpha 90.000000
_cell_angle_beta 90.000000
_cell_angle_gamma 90.000000
_cell_volume 5143.528925
_symmetry_space_group_name_H-M "C C C A"
_symmetry_group_IT_number 68
_space_group.IT_coordinate_system_code '2'
_symmetry_cell_setting 'orthorhombic'
loop_
_space_group_symop_operation_xyz
x,y,z
-x,1/2-y,z
x,1/2-y,1/2-z
-x,y,1/2-z
-x,-y,-z
x,1/2+y,-z
-x,1/2+y,1/2+z
x,-y,1/2+z
1/2+x,1/2+y,z
1/2-x,-y,z
1/2+x,-y,1/2-z
1/2-x,1/2+y,1/2-z
1/2-x,1/2-y,-z
1/2+x,y,-z
1/2-x,y,1/2+z
1/2+x,1/2-y,1/2+z
loop_
_atom_site_type_symbol
_atom_site_label
_atom_site_fract_x
_atom_site_fract_y
_atom_site_fract_z
Si Si1 0.372247 0.535551 0.653776
Si Si2 0.125014 0.896168 0.019988
Si Si3 0.712347 0.868108 0.538271
Si Si4 0.697389 0.998518 0.840288
Si Si5 0.190120 0.785653 0.878590
Si Si6 0.058442 0.841975 0.223534
O O1 0.385313 0.480774 0.544714
O O2 0.329384 0.601092 0.625535
O O3 0.346792 0.479431 0.752427
O O4 0.417535 0.588138 0.698268
O O5 0.141830 0.832296 0.924218
O O6 0.173410 0.917626 0.100787
O O7 0.079850 0.864868 0.097576
O O8 0.763257 0.846814 0.603500
O O9 0.698040 0.787842 0.467945
O O10 0.711029 0.938934 0.442113
O O11 0.750000 0.000000 0.774233
O O12 0.188244 0.750000 0.750000
O O13 0.076204 0.750000 0.250000
O O14 0.000000 0.842862 0.250000
#
# Coordination Sequence:
#
# PCOD9506044 Si02
#       6
#    16  16  16  16  16  16
#     4  10  22  34  60  84 114 153 190 254 297 353
#     4  10  21  37  55  87 117 151 200 254 297 361
#     4  10  22  34  48  78 113 156 198 231 282 346
#     4  10  19  33  54  76 114 157 201 237 285 354
#     4  11  22  33  51  78 118 162 197 236 291 354
#     4  10  22  42  66  87 111 152 203 257 319 373
#
# _framework density 18.664228000000001
#
# number of rings (size 3 to 8) (size 9 to 14) (size 15 to 20)
#    0.000    1.833    1.667    2.000    4.667    2.667 
#    0.000    0.000    0.000    0.000    0.000    1.167 
#    0.000    0.000    0.000    0.000    0.000    0.000 
#
# Total GULP energy -267523.725781 kJ/mol
# GULP energy per Si atom -5573.410954 kJ/mol
# Density = 1.862175 g / cm^3
# Si number density = 18.664228 Si / 1000 Ang^3
#
#
#
# Elastic Constant Matrix: (Units=GPa)
#
#
# Indices 1 2 3 4 5 6 
#
# 1 89.4331 44.5449 47.0403 0.0000 0.0000 0.0000
# 2 44.5449 83.4075 46.5111 0.0000 0.0000 0.0000
# 3 47.0403 46.5111 108.3537 0.0000 0.0000 0.0000
# 4 0.0000 0.0000 0.0000 40.9794 0.0000 0.0000
# 5 0.0000 0.0000 0.0000 0.0000 18.9378 0.0000
# 6 0.0000 0.0000 0.0000 0.0000 0.0000 25.8381
#
#
#
# Elastic Compliance Matrix: (Units=1/GPa)
#
#
# Indices 1 2 3 4 5 6 
#
# 1 0.016761 -0.006434 -0.004515 0.000000 0.000000 0.000000
# 2 -0.006434 0.018232 -0.005033 0.000000 0.000000 0.000000
# 3 -0.004515 -0.005033 0.013349 0.000000 0.000000 0.000000
# 4 0.000000 0.000000 0.000000 0.024403 0.000000 0.000000
# 5 0.000000 0.000000 0.000000 0.000000 0.052804 0.000000
# 6 0.000000 0.000000 0.000000 0.000000 0.000000 0.038703
#
#
# Mechanical properties :
#
#
# Convention : Reuss Voigt Hill
#
# Bulk Modulus (GPa) = 61.05297 61.93187 61.49242
# Shear Modulus (GPa) = 24.79245 26.69092 25.74168
#
# Velocity S-wave (km/s) = 3.64859 3.78571 3.71779
# Velocity P-wave (km/s) = 7.10858 7.23623 7.17269
#
# Compressibility (1/GPa) = 0.01637922
#
# Stress axis : x y z
#
# Youngs Moduli (GPa) = 59.66326 54.84890 74.90929
#
# Poissons Ratio (x) = 0.35288 0.33820
# Poissons Ratio (y) = 0.38386 0.37702
# Poissons Ratio (z) = 0.26937 0.27605
#
# Static dielectric constant tensor:
#      x y z
#    x 1.653080 0.000000 0.000000 
#    y 0.000000 1.688700 0.000000 
#    z 0.000000 0.000000 1.713430 
# 
# From -- ./inp_files/14641.got.cif
#   From: 2010.05.17/outbox.cif.g08.bks.cpg/sg68_8_cif.got.tgz:14641.got - 2010.06.03 18:57:09.
