data_PCOD9506136
_publ_section_title
;
Structure prediction by ZEFSAII (Michael W. Deem and Ramdas Pophale) SiO2 
 PCOD9506136
Probable space group: C C C A
;
_chemical_formula_sum "Si O2"
_cell_formula_units_Z 80
_cell_length_a 15.535745
_cell_length_b 8.084306
_cell_length_c 29.235030
_cell_angle_alpha 90.000000
_cell_angle_beta 90.000000
_cell_angle_gamma 90.000000
_cell_volume 3671.794540
_symmetry_space_group_name_H-M "C C C A"
_symmetry_group_IT_number 68
_space_group.IT_coordinate_system_code '2'
_symmetry_cell_setting 'orthorhombic'
loop_
_space_group_symop_operation_xyz
x,y,z
-x,1/2-y,z
x,1/2-y,1/2-z
-x,y,1/2-z
-x,-y,-z
x,1/2+y,-z
-x,1/2+y,1/2+z
x,-y,1/2+z
1/2+x,1/2+y,z
1/2-x,-y,z
1/2+x,-y,1/2-z
1/2-x,1/2+y,1/2-z
1/2-x,1/2-y,-z
1/2+x,y,-z
1/2-x,y,1/2+z
1/2+x,1/2-y,1/2+z
loop_
_atom_site_type_symbol
_atom_site_label
_atom_site_fract_x
_atom_site_fract_y
_atom_site_fract_z
Si Si1 0.394337 0.756215 0.697039
Si Si2 0.081020 0.377943 0.543738
Si Si3 0.890111 0.423560 0.142249
Si Si4 0.095741 0.556545 0.638538
Si Si5 0.344346 0.454697 0.458879
O O1 0.500000 0.750000 0.695023
O O2 0.369875 0.750000 0.750000
O O3 0.367801 0.595374 0.667934
O O4 0.360640 0.925442 0.674174
O O5 0.094193 0.504125 0.585232
O O6 0.089275 0.472881 0.495968
O O7 0.155274 0.241940 0.544849
O O8 0.000000 0.250000 0.550365
O O9 0.862307 0.233824 0.149280
O O10 0.866840 0.470379 0.090367
O O11 0.993605 0.426326 0.148461
O O12 0.250000 0.500000 0.474161
#
# Coordination Sequence:
#
# PCOD9506136 Si02
#       5
#    16  16  16  16  16
#     4   9  17  33  56  87 122 150 190 256 310 349
#     4  12  22  39  60  84 123 166 212 250 298 366
#     4  10  20  35  56  86 119 153 201 247 299 362
#     4  10  19  34  59  87 116 155 201 249 296 357
#     4  12  25  38  56  88 125 161 204 257 307 357
#
# _framework density 21.787713
#
# number of rings (size 3 to 8) (size 9 to 14) (size 15 to 20)
#    0.000    1.400    4.000    3.000    2.800    0.800 
#    0.000    4.000    0.000    0.000    5.200    0.000 
#    0.000    0.000    0.000    0.000    0.000    0.000 
#
# Total GULP energy -223309.622304 kJ/mol
# GULP energy per Si atom -5582.740558 kJ/mol
# Density = 2.173812 g / cm^3
# Si number density = 21.787713 Si / 1000 Ang^3
#
#
#
# Elastic Constant Matrix: (Units=GPa)
#
#
# Indices 1 2 3 4 5 6 
#
# 1 40.4851 12.6493 1.2475 0.0000 0.0000 0.0000
# 2 12.6493 208.6086 94.4478 0.0000 0.0000 0.0000
# 3 1.2475 94.4478 166.0695 0.0000 0.0000 0.0000
# 4 0.0000 0.0000 0.0000 32.7272 0.0000 0.0000
# 5 0.0000 0.0000 0.0000 0.0000 -30.2247 0.0000
# 6 0.0000 0.0000 0.0000 0.0000 0.0000 10.3355
#
#
#
# Elastic Compliance Matrix: (Units=1/GPa)
#
#
# Indices 1 2 3 4 5 6 
#
# 1 0.025281 -0.001949 0.000918 0.000000 0.000000 0.000000
# 2 -0.001949 0.006606 -0.003742 0.000000 0.000000 0.000000
# 3 0.000918 -0.003742 0.008143 0.000000 0.000000 0.000000
# 4 0.000000 0.000000 0.000000 0.030556 0.000000 0.000000
# 5 0.000000 0.000000 0.000000 0.000000 -0.033085 0.000000
# 6 0.000000 0.000000 0.000000 0.000000 0.000000 0.096754
#
#
# Mechanical properties :
#
#
# Convention : Reuss Voigt Hill
#
# Bulk Modulus (GPa) = 32.80334 70.20582 51.50458
# Shear Modulus (GPa) = 32.47560 23.02217 27.74889
#
# Velocity S-wave (km/s) = 3.86495 3.25416 3.57263
# Velocity P-wave (km/s) = 5.91656 6.81263 6.38035
#
# Compressibility (1/GPa) = 0.03048471
#
# Stress axis : x y z
#
# Youngs Moduli (GPa) = 39.55534 151.37176 122.80294
#
# Poissons Ratio (x) = 0.29499 -0.11278
# Poissons Ratio (y) = 0.07708 0.45959
# Poissons Ratio (z) = -0.03633 0.56651
#
# Static dielectric constant tensor:
#      x y z
#    x 1.930140 0.000000 0.000000 
#    y 0.000000 1.822430 0.000000 
#    z 0.000000 0.000000 1.759390 
# 
# From -- ./inp_files/49150.got.cif
#   From: 2010.05.17/outbox.cif.g08.bks.cpg/sg68_25_cif.got.tgz:49150.got - 2010.06.03 18:57:09.
