data_PCOD9506863
_publ_section_title
;
Structure prediction by ZEFSAII (Michael W. Deem and Ramdas Pophale) SiO2 
 PCOD9506863
Probable space group: C C C A
;
_chemical_formula_sum "Si O2"
_cell_formula_units_Z 88
_cell_length_a 12.901563
_cell_length_b 17.454595
_cell_length_c 18.936946
_cell_angle_alpha 90.000000
_cell_angle_beta 90.000000
_cell_angle_gamma 90.000000
_cell_volume 4264.440355
_symmetry_space_group_name_H-M "C C C A"
_symmetry_group_IT_number 68
_space_group.IT_coordinate_system_code '2'
_symmetry_cell_setting 'orthorhombic'
loop_
_space_group_symop_operation_xyz
x,y,z
-x,1/2-y,z
x,1/2-y,1/2-z
-x,y,1/2-z
-x,-y,-z
x,1/2+y,-z
-x,1/2+y,1/2+z
x,-y,1/2+z
1/2+x,1/2+y,z
1/2-x,-y,z
1/2+x,-y,1/2-z
1/2-x,1/2+y,1/2-z
1/2-x,1/2-y,-z
1/2+x,y,-z
1/2-x,y,1/2+z
1/2+x,1/2-y,1/2+z
loop_
_atom_site_type_symbol
_atom_site_label
_atom_site_fract_x
_atom_site_fract_y
_atom_site_fract_z
Si Si1 0.241404 0.583940 0.171734
Si Si2 0.053928 0.582007 0.980447
Si Si3 0.389297 0.050336 0.186805
Si Si4 0.484741 0.109315 0.823960
Si Si5 0.954793 0.166286 0.623214
Si Si6 0.750000 0.500000 0.562703
O O1 0.250000 0.500000 0.135419
O O2 0.185835 0.567412 0.247588
O O3 0.360645 0.606256 0.173576
O O4 0.165715 0.647078 0.138281
O O5 0.174627 0.557579 0.977757
O O6 0.020829 0.619853 0.905547
O O7 0.028341 0.639013 0.043306
O O8 0.000000 0.500000 0.000000
O O9 0.479285 0.110920 0.173821
O O10 0.321549 0.048470 0.115946
O O11 0.447062 0.968414 0.190361
O O12 0.500000 0.155135 0.750000
O O13 0.000000 0.250000 0.634345
#
# Coordination Sequence:
#
# PCOD9506863 Si02
#       6
#    16  16  16  16  16   8
#     4  12  20  35  68  98 133 179 229 276 340 410
#     4  11  22  39  65  94 133 172 231 283 331 410
#     4  11  20  37  63 100 136 163 216 285 339 396
#     4  11  20  37  63 101 126 162 230 300 329 381
#     4  12  27  42  60  98 147 182 216 278 366 425
#     4  10  20  36  64  96 122 166 222 292 328 370
#
# _framework density 20.635767999999999
#
# number of rings (size 3 to 8) (size 9 to 14) (size 15 to 20)
#    0.000    0.727    8.182    1.636    3.818    1.455 
#    0.000    3.636    0.000    2.727    0.000    0.000 
#    0.000    0.000    0.000    0.000    0.000    0.000 
#
# Total GULP energy -245091.399090 kJ/mol
# GULP energy per Si atom -5570.259070 kJ/mol
# Density = 2.058880 g / cm^3
# Si number density = 20.635768 Si / 1000 Ang^3
#
#
#
# Elastic Constant Matrix: (Units=GPa)
#
#
# Indices 1 2 3 4 5 6 
#
# 1 142.6430 11.3183 22.9049 0.0000 0.0000 0.0000
# 2 11.3183 37.8930 4.1704 0.0000 0.0000 0.0000
# 3 22.9049 4.1704 125.1783 0.0000 0.0000 0.0000
# 4 0.0000 0.0000 0.0000 -23.7388 0.0000 0.0000
# 5 0.0000 0.0000 0.0000 0.0000 37.7574 0.0000
# 6 0.0000 0.0000 0.0000 0.0000 0.0000 21.4519
#
#
#
# Elastic Compliance Matrix: (Units=1/GPa)
#
#
# Indices 1 2 3 4 5 6 
#
# 1 0.007380 -0.002063 -0.001282 0.000000 0.000000 0.000000
# 2 -0.002063 0.027064 -0.000524 0.000000 0.000000 0.000000
# 3 -0.001282 -0.000524 0.008241 0.000000 0.000000 0.000000
# 4 0.000000 0.000000 0.000000 -0.042125 0.000000 0.000000
# 5 0.000000 0.000000 0.000000 0.000000 0.026485 0.000000
# 6 0.000000 0.000000 0.000000 0.000000 0.000000 0.046616
#
#
# Mechanical properties :
#
#
# Convention : Reuss Voigt Hill
#
# Bulk Modulus (GPa) = 28.61513 42.50016 35.55765
# Shear Modulus (GPa) = 53.73611 24.91548 39.32580
#
# Velocity S-wave (km/s) = 5.10850 3.47853 4.37018
# Velocity P-wave (km/s) = 6.97801 6.06413 6.53706
#
# Compressibility (1/GPa) = 0.03494655
#
# Stress axis : x y z
#
# Youngs Moduli (GPa) = 135.50087 36.94940 121.35066
#
# Poissons Ratio (x) = 0.07624 0.15553
# Poissons Ratio (y) = 0.27958 0.06360
# Poissons Ratio (z) = 0.17366 0.01937
#
# Static dielectric constant tensor:
#      x y z
#    x 1.790300 0.000000 0.000000 
#    y 0.000000 1.750620 0.000000 
#    z 0.000000 0.000000 1.846450 
# 
# From -- ./inp_files/37453.got.cif
#   From: 2010.05.17/outbox.cif.g08.bks.cpg/sg68_19_cif.got.tgz:37453.got - 2010.06.03 18:57:09.
