data_PCOD9506314
_publ_section_title
;
Structure prediction by ZEFSAII (Michael W. Deem and Ramdas Pophale) SiO2 
 PCOD9506314
Probable space group: C C C A
;
_chemical_formula_sum "Si O2"
_cell_formula_units_Z 104
_cell_length_a 22.908325
_cell_length_b 14.116012
_cell_length_c 17.701958
_cell_angle_alpha 90.000000
_cell_angle_beta 90.000000
_cell_angle_gamma 90.000000
_cell_volume 5724.356340
_symmetry_space_group_name_H-M "C C C A"
_symmetry_group_IT_number 68
_space_group.IT_coordinate_system_code '2'
_symmetry_cell_setting 'orthorhombic'
loop_
_space_group_symop_operation_xyz
x,y,z
-x,1/2-y,z
x,1/2-y,1/2-z
-x,y,1/2-z
-x,-y,-z
x,1/2+y,-z
-x,1/2+y,1/2+z
x,-y,1/2+z
1/2+x,1/2+y,z
1/2-x,-y,z
1/2+x,-y,1/2-z
1/2-x,1/2+y,1/2-z
1/2-x,1/2-y,-z
1/2+x,y,-z
1/2-x,y,1/2+z
1/2+x,1/2-y,1/2+z
loop_
_atom_site_type_symbol
_atom_site_label
_atom_site_fract_x
_atom_site_fract_y
_atom_site_fract_z
Si Si1 0.021517 0.490549 0.377781
Si Si2 0.913708 0.049312 0.232331
Si Si3 0.533320 0.151901 0.017957
Si Si4 0.283227 0.767907 0.397087
Si Si5 0.668148 0.334848 0.458556
Si Si6 0.645280 0.250000 0.750000
Si Si7 0.186652 0.520321 0.621991
O O1 0.071336 0.496881 0.313299
O O2 0.036488 0.413210 0.442304
O O3 0.967288 0.456492 0.326226
O O4 0.001034 0.586237 0.420830
O O5 0.895070 0.158089 0.243075
O O6 0.860579 0.003806 0.186391
O O7 0.500000 0.250000 0.003304
O O8 0.598769 0.178796 0.044941
O O9 0.306041 0.699631 0.462261
O O10 0.213211 0.782752 0.400783
O O11 0.311379 0.735132 0.319765
O O12 0.311538 0.872712 0.408187
O O13 0.676860 0.446238 0.444605
O O14 0.250000 0.500000 0.655598
#
# Coordination Sequence:
#
# PCOD9506314 Si02
#       7
#    16  16  16  16  16   8  16
#     4  10  23  38  58  87 118 152 206 241 288 354
#     4  10  20  37  60  87 119 151 193 248 299 354
#     4  11  24  38  58  85 119 163 198 243 289 347
#     4   9  20  34  61  92 113 148 196 241 305 352
#     4  10  19  37  58  82 119 156 190 236 290 361
#     4  10  20  35  62  94 115 142 188 260 310 346
#     4   9  18  35  61  87 116 155 186 241 304 349
#
# _framework density 18.167981999999999
#
# number of rings (size 3 to 8) (size 9 to 14) (size 15 to 20)
#    0.000    2.154    1.538    0.923    6.462    0.615 
#    0.000    6.154    0.000   34.154    0.000    0.000 
#    0.000    0.000    0.000    0.000    0.000    0.000 
#
# Total GULP energy -289622.412888 kJ/mol
# GULP energy per Si atom -5569.661786 kJ/mol
# Density = 1.812663 g / cm^3
# Si number density = 18.167982 Si / 1000 Ang^3
#
#
#
# Elastic Constant Matrix: (Units=GPa)
#
#
# Indices 1 2 3 4 5 6 
#
# 1 95.5493 33.7050 29.7086 0.0000 0.0000 0.0000
# 2 33.7050 71.8529 42.4029 0.0000 0.0000 0.0000
# 3 29.7086 42.4029 100.2590 0.0000 0.0000 0.0000
# 4 0.0000 0.0000 0.0000 17.9945 0.0000 0.0000
# 5 0.0000 0.0000 0.0000 0.0000 -4.8620 0.0000
# 6 0.0000 0.0000 0.0000 0.0000 0.0000 12.9104
#
#
#
# Elastic Compliance Matrix: (Units=1/GPa)
#
#
# Indices 1 2 3 4 5 6 
#
# 1 0.012746 -0.004997 -0.001663 0.000000 0.000000 0.000000
# 2 -0.004997 0.020506 -0.007192 0.000000 0.000000 0.000000
# 3 -0.001663 -0.007192 0.013509 0.000000 0.000000 0.000000
# 4 0.000000 0.000000 0.000000 0.055572 0.000000 0.000000
# 5 0.000000 0.000000 0.000000 0.000000 -0.205676 0.000000
# 6 0.000000 0.000000 0.000000 0.000000 0.000000 0.077457
#
#
# Mechanical properties :
#
#
# Convention : Reuss Voigt Hill
#
# Bulk Modulus (GPa) = 52.47850 53.25492 52.86671
# Shear Modulus (GPa) = 612.04286 15.99823 314.02054
#
# Velocity S-wave (km/s) = 18.37420 2.97066 13.16123
# Velocity P-wave (km/s) = 21.88827 6.41425 16.12822
#
# Compressibility (1/GPa) = 0.01905542
#
# Stress axis : x y z
#
# Youngs Moduli (GPa) = 78.45762 48.76731 74.02662
#
# Poissons Ratio (x) = 0.24370 0.12313
# Poissons Ratio (y) = 0.39207 0.53238
# Poissons Ratio (z) = 0.13050 0.35072
#
# Static dielectric constant tensor:
#      x y z
#    x 1.670110 0.000000 0.000000 
#    y 0.000000 1.618140 0.000000 
#    z 0.000000 0.000000 1.621730 
# 
# From -- ./inp_files/32995.got.cif
#   From: 2010.05.17/outbox.cif.g08.bks.cpg/sg68_17_cif.got.tgz:32995.got - 2010.06.03 18:57:09.
