data_PCOD9506886
_publ_section_title
;
Structure prediction by ZEFSAII (Michael W. Deem and Ramdas Pophale) SiO2 
 PCOD9506886
Probable space group: C C C A
;
_chemical_formula_sum "Si O2"
_cell_formula_units_Z 72
_cell_length_a 29.069315
_cell_length_b 8.625838
_cell_length_c 12.047131
_cell_angle_alpha 90.000000
_cell_angle_beta 90.000000
_cell_angle_gamma 90.000000
_cell_volume 3020.784390
_symmetry_space_group_name_H-M "C C C A"
_symmetry_group_IT_number 68
_space_group.IT_coordinate_system_code '2'
_symmetry_cell_setting 'orthorhombic'
loop_
_space_group_symop_operation_xyz
x,y,z
-x,1/2-y,z
x,1/2-y,1/2-z
-x,y,1/2-z
-x,-y,-z
x,1/2+y,-z
-x,1/2+y,1/2+z
x,-y,1/2+z
1/2+x,1/2+y,z
1/2-x,-y,z
1/2+x,-y,1/2-z
1/2-x,1/2+y,1/2-z
1/2-x,1/2-y,-z
1/2+x,y,-z
1/2-x,y,1/2+z
1/2+x,1/2-y,1/2+z
loop_
_atom_site_type_symbol
_atom_site_label
_atom_site_fract_x
_atom_site_fract_y
_atom_site_fract_z
Si Si1 0.467993 0.119541 0.570432
Si Si2 0.384005 0.508114 0.275846
Si Si3 0.887610 0.293564 0.920326
Si Si4 0.750000 0.000000 0.549552
Si Si5 0.687807 0.216224 0.895142
O O1 0.500000 0.250000 0.620973
O O2 0.437259 0.201230 0.475563
O O3 0.500000 0.000000 0.500000
O O4 0.431593 0.066220 0.666029
O O5 0.384184 0.455831 0.147306
O O6 0.378351 0.347100 0.339170
O O7 0.340795 0.618345 0.302507
O O8 0.852908 0.256183 0.018240
O O9 0.718252 0.904393 0.465610
O O10 0.779434 0.869375 0.617495
#
# Coordination Sequence:
#
# PCOD9506886 Si02
#       5
#    16  16  16   8  16
#     4  11  22  40  62  93 133 176 227 287 343 402
#     4  10  21  39  65  93 130 182 224 275 345 416
#     4  10  21  39  65  93 131 179 226 277 345 413
#     4  10  20  36  66  94 132 170 214 268 348 406
#     4  10  20  39  64  98 130 176 214 279 339 417
#
# _framework density 23.834871
#
# number of rings (size 3 to 8) (size 9 to 14) (size 15 to 20)
#    0.000    1.778    4.444    0.000    0.000    0.889 
#    0.000    6.667    0.000    0.000    0.000    0.000 
#    0.000    0.000    0.000    0.000    0.000    0.000 
#
# Total GULP energy -200712.222628 kJ/mol
# GULP energy per Si atom -5575.339517 kJ/mol
# Density = 2.378062 g / cm^3
# Si number density = 23.834871 Si / 1000 Ang^3
#
#
#
# Elastic Constant Matrix: (Units=GPa)
#
#
# Indices 1 2 3 4 5 6 
#
# 1 130.1655 77.9616 16.1410 0.0000 0.0000 0.0000
# 2 77.9616 156.7911 41.1835 0.0000 0.0000 0.0000
# 3 16.1410 41.1835 53.7797 0.0000 0.0000 0.0000
# 4 0.0000 0.0000 0.0000 46.1763 0.0000 0.0000
# 5 0.0000 0.0000 0.0000 0.0000 -2.1740 0.0000
# 6 0.0000 0.0000 0.0000 0.0000 0.0000 23.3208
#
#
#
# Elastic Compliance Matrix: (Units=1/GPa)
#
#
# Indices 1 2 3 4 5 6 
#
# 1 0.010994 -0.005758 0.001110 0.000000 0.000000 0.000000
# 2 -0.005758 0.010999 -0.006695 0.000000 0.000000 0.000000
# 3 0.001110 -0.006695 0.023388 0.000000 0.000000 0.000000
# 4 0.000000 0.000000 0.000000 0.021656 0.000000 0.000000
# 5 0.000000 0.000000 0.000000 0.000000 -0.459984 0.000000
# 6 0.000000 0.000000 0.000000 0.000000 0.000000 0.042880
#
#
# Mechanical properties :
#
#
# Convention : Reuss Voigt Hill
#
# Bulk Modulus (GPa) = 44.06277 67.92318 55.99297
# Shear Modulus (GPa) = -15.63404 27.16131 5.76364
#
# Velocity S-wave (km/s) = -2.56389 3.37940 1.55673
# Velocity P-wave (km/s) = 3.12443 6.61713 5.17438
#
# Compressibility (1/GPa) = 0.02269490
#
# Stress axis : x y z
#
# Youngs Moduli (GPa) = 90.96273 90.91366 42.75650
#
# Poissons Ratio (x) = 0.52346 -0.04745
# Poissons Ratio (y) = 0.52375 0.28626
# Poissons Ratio (z) = -0.10094 0.60867
#
# Static dielectric constant tensor:
#      x y z
#    x -114.862230 0.000000 0.000000 
#    y 0.000000 1.974490 0.000000 
#    z 0.000000 0.000000 1.974360 
# 
# From -- ./inp_files/25840.got.cif
#   From: 2010.05.17/outbox.cif.g08.bks.cpg/sg68_13_cif.got.tgz:25840.got - 2010.06.03 18:57:09.
