data_PCOD9506276
_publ_section_title
;
Structure prediction by ZEFSAII (Michael W. Deem and Ramdas Pophale) SiO2 
 PCOD9506276
Probable space group: C C C A
;
_chemical_formula_sum "Si O2"
_cell_formula_units_Z 80
_cell_length_a 25.742700
_cell_length_b 7.731327
_cell_length_c 16.821060
_cell_angle_alpha 90.000000
_cell_angle_beta 90.000000
_cell_angle_gamma 90.000000
_cell_volume 3347.815362
_symmetry_space_group_name_H-M "C C C A"
_symmetry_group_IT_number 68
_space_group.IT_coordinate_system_code '2'
_symmetry_cell_setting 'orthorhombic'
loop_
_space_group_symop_operation_xyz
x,y,z
-x,1/2-y,z
x,1/2-y,1/2-z
-x,y,1/2-z
-x,-y,-z
x,1/2+y,-z
-x,1/2+y,1/2+z
x,-y,1/2+z
1/2+x,1/2+y,z
1/2-x,-y,z
1/2+x,-y,1/2-z
1/2-x,1/2+y,1/2-z
1/2-x,1/2-y,-z
1/2+x,y,-z
1/2-x,y,1/2+z
1/2+x,1/2-y,1/2+z
loop_
_atom_site_type_symbol
_atom_site_label
_atom_site_fract_x
_atom_site_fract_y
_atom_site_fract_z
Si Si1 0.918760 0.553998 0.666624
Si Si2 0.197087 0.062695 0.114436
Si Si3 0.076951 0.962331 0.843674
Si Si4 0.339687 0.878142 0.454817
Si Si5 0.055237 0.762970 0.039614
O O1 0.855736 0.552613 0.664184
O O2 0.932858 0.483269 0.753460
O O3 0.934825 0.755839 0.658994
O O4 0.938387 0.430202 0.596573
O O5 0.250000 0.000000 0.152406
O O6 0.184319 0.965275 0.031629
O O7 0.202645 0.257761 0.085055
O O8 0.050929 0.092966 0.905181
O O9 0.135337 0.979379 0.880365
O O10 0.391229 0.772282 0.488564
O O11 0.000000 0.750000 0.995075
#
# Coordination Sequence:
#
# PCOD9506276 Si02
#       5
#    16  16  16  16  16
#     4   9  22  39  62  86 120 166 196 250 305 362
#     4  10  19  36  61  87 117 153 199 245 300 358
#     4  10  20  41  60  82 128 158 199 248 305 356
#     4  10  20  38  59  89 119 158 195 254 299 354
#     4  11  23  39  64  90 121 161 206 248 304 362
#
# _framework density 23.896180999999999
#
# number of rings (size 3 to 8) (size 9 to 14) (size 15 to 20)
#    0.000    2.000    2.000    1.200    0.000    3.200 
#    0.000    3.000   26.400    0.000    0.000    0.000 
#    0.000    0.000    0.000    0.000    0.000    0.000 
#
# Total GULP energy -223058.764339 kJ/mol
# GULP energy per Si atom -5576.469108 kJ/mol
# Density = 2.384179 g / cm^3
# Si number density = 23.896181 Si / 1000 Ang^3
#
#
#
# Elastic Constant Matrix: (Units=GPa)
#
#
# Indices 1 2 3 4 5 6 
#
# 1 69.0357 16.0286 -16.5670 0.0000 0.0000 0.0000
# 2 16.0286 60.5977 -3.6303 0.0000 0.0000 0.0000
# 3 -16.5670 -3.6303 78.4026 0.0000 0.0000 0.0000
# 4 0.0000 0.0000 0.0000 23.1235 0.0000 0.0000
# 5 0.0000 0.0000 0.0000 0.0000 2.9819 0.0000
# 6 0.0000 0.0000 0.0000 0.0000 0.0000 7.9474
#
#
#
# Elastic Compliance Matrix: (Units=1/GPa)
#
#
# Indices 1 2 3 4 5 6 
#
# 1 0.016213 -0.004094 0.003236 0.000000 0.000000 0.000000
# 2 -0.004094 0.017582 -0.000051 0.000000 0.000000 0.000000
# 3 0.003236 -0.000051 0.013436 0.000000 0.000000 0.000000
# 4 0.000000 0.000000 0.000000 0.043246 0.000000 0.000000
# 5 0.000000 0.000000 0.000000 0.000000 0.335357 0.000000
# 6 0.000000 0.000000 0.000000 0.000000 0.000000 0.125828
#
#
# Mechanical properties :
#
#
# Convention : Reuss Voigt Hill
#
# Bulk Modulus (GPa) = 22.02046 22.18872 22.10459
# Shear Modulus (GPa) = 8.79325 20.95754 14.87539
#
# Velocity S-wave (km/s) = 1.92035 2.96467 2.49770
# Velocity P-wave (km/s) = 3.76192 4.58527 4.19385
#
# Compressibility (1/GPa) = 0.04541230
#
# Stress axis : x y z
#
# Youngs Moduli (GPa) = 61.68071 56.87555 74.42608
#
# Poissons Ratio (x) = 0.23287 -0.24086
# Poissons Ratio (y) = 0.25255 0.00380
# Poissons Ratio (z) = -0.19961 0.00290
#
# Static dielectric constant tensor:
#      x y z
#    x 1.913090 0.000000 0.000000 
#    y 0.000000 2.029950 0.000000 
#    z 0.000000 0.000000 1.910640 
# 
# From -- ./inp_files/28330.got.cif
#   From: 2010.05.17/outbox.cif.g08.bks.cpg/sg68_15_cif.got.tgz:28330.got - 2010.06.03 18:57:09.
