data_PCOD9506408
_publ_section_title
;
Structure prediction by ZEFSAII (Michael W. Deem and Ramdas Pophale) SiO2 
 PCOD9506408
Probable space group: C C C A
;
_chemical_formula_sum "Si O2"
_cell_formula_units_Z 80
_cell_length_a 20.737684
_cell_length_b 13.882711
_cell_length_c 13.314884
_cell_angle_alpha 90.000000
_cell_angle_beta 90.000000
_cell_angle_gamma 90.000000
_cell_volume 3833.292175
_symmetry_space_group_name_H-M "C C C A"
_symmetry_group_IT_number 68
_space_group.IT_coordinate_system_code '2'
_symmetry_cell_setting 'orthorhombic'
loop_
_space_group_symop_operation_xyz
x,y,z
-x,1/2-y,z
x,1/2-y,1/2-z
-x,y,1/2-z
-x,-y,-z
x,1/2+y,-z
-x,1/2+y,1/2+z
x,-y,1/2+z
1/2+x,1/2+y,z
1/2-x,-y,z
1/2+x,-y,1/2-z
1/2-x,1/2+y,1/2-z
1/2-x,1/2-y,-z
1/2+x,y,-z
1/2-x,y,1/2+z
1/2+x,1/2-y,1/2+z
loop_
_atom_site_type_symbol
_atom_site_label
_atom_site_fract_x
_atom_site_fract_y
_atom_site_fract_z
Si Si1 0.359795 0.374536 0.534294
Si Si2 0.875190 0.342980 0.044137
Si Si3 0.318897 0.473491 0.348960
Si Si4 0.386219 0.057363 0.344478
Si Si5 0.498779 0.857096 0.562564
O O1 0.353051 0.264562 0.566956
O O2 0.309977 0.409288 0.449203
O O3 0.363718 0.450887 0.623641
O O4 0.428488 0.383887 0.474940
O O5 0.851417 0.427145 0.115221
O O6 0.856341 0.371521 0.929101
O O7 0.953080 0.347467 0.033538
O O8 0.250000 0.500000 0.303945
O O9 0.362923 0.422053 0.266500
O O10 0.462607 0.070769 0.365109
O O11 0.500000 0.750000 0.609006
#
# Coordination Sequence:
#
# PCOD9506408 Si02
#       5
#    16  16  16  16  16
#     4  10  19  39  63  82 118 152 188 247 301 345
#     4   8  20  39  59  88 111 151 196 240 293 356
#     4  11  24  38  55  83 119 159 204 239 285 349
#     4   9  20  35  57  88 119 149 187 241 293 348
#     4   8  16  37  62  88 116 137 186 241 295 360
#
# _framework density 20.869789000000001
#
# number of rings (size 3 to 8) (size 9 to 14) (size 15 to 20)
#    1.200    1.600    0.000    0.600    0.000    6.400 
#    0.000    3.000    0.000    3.600    0.000    0.000 
#    0.000    0.000    0.000    0.000    0.000    0.000 
#
# Total GULP energy -222825.319886 kJ/mol
# GULP energy per Si atom -5570.632997 kJ/mol
# Density = 2.082229 g / cm^3
# Si number density = 20.869789 Si / 1000 Ang^3
#
#
#
# Elastic Constant Matrix: (Units=GPa)
#
#
# Indices 1 2 3 4 5 6 
#
# 1 28.0749 -5.0572 0.1665 0.0000 0.0000 0.0000
# 2 -5.0572 73.3270 -8.1637 0.0000 0.0000 0.0000
# 3 0.1665 -8.1637 44.9273 0.0000 0.0000 0.0000
# 4 0.0000 0.0000 0.0000 -1.8653 0.0000 0.0000
# 5 0.0000 0.0000 0.0000 0.0000 10.1263 0.0000
# 6 0.0000 0.0000 0.0000 0.0000 0.0000 8.2581
#
#
#
# Elastic Compliance Matrix: (Units=1/GPa)
#
#
# Indices 1 2 3 4 5 6 
#
# 1 0.036072 0.002524 0.000325 0.000000 0.000000 0.000000
# 2 0.002524 0.014096 0.002552 0.000000 0.000000 0.000000
# 3 0.000325 0.002552 0.022721 0.000000 0.000000 0.000000
# 4 0.000000 0.000000 0.000000 -0.536106 0.000000 0.000000
# 5 0.000000 0.000000 0.000000 0.000000 0.098753 0.000000
# 6 0.000000 0.000000 0.000000 0.000000 0.000000 0.121094
#
#
# Mechanical properties :
#
#
# Convention : Reuss Voigt Hill
#
# Bulk Modulus (GPa) = 11.94886 13.35782 12.65334
# Shear Modulus (GPa) = -22.09691 13.92938 -4.08377
#
# Velocity S-wave (km/s) = -3.25745 2.58629 -1.40037
# Velocity P-wave (km/s) = 2.90002 3.91574 1.86050
#
# Compressibility (1/GPa) = 0.08368996
#
# Stress axis : x y z
#
# Youngs Moduli (GPa) = 27.72249 70.94344 44.01279
#
# Poissons Ratio (x) = -0.17906 -0.01430
# Poissons Ratio (y) = -0.06997 -0.11232
# Poissons Ratio (z) = -0.00901 -0.18104
#
# Static dielectric constant tensor:
#      x y z
#    x 1.795030 0.000000 0.000000 
#    y 0.000000 1.763660 0.000000 
#    z 0.000000 0.000000 1.719820 
# 
# From -- ./inp_files/24304.got.cif
#   From: 2010.05.17/outbox.cif.g08.bks.cpg/sg68_13_cif.got.tgz:24304.got - 2010.06.03 18:57:09.
