data_PCOD9506769
_publ_section_title
;
Structure prediction by ZEFSAII (Michael W. Deem and Ramdas Pophale) SiO2 
 PCOD9506769
Probable space group: C C C A
;
_chemical_formula_sum "Si O2"
_cell_formula_units_Z 112
_cell_length_a 12.330702
_cell_length_b 19.358164
_cell_length_c 20.452592
_cell_angle_alpha 90.000000
_cell_angle_beta 90.000000
_cell_angle_gamma 90.000000
_cell_volume 4882.028629
_symmetry_space_group_name_H-M "C C C A"
_symmetry_group_IT_number 68
_space_group.IT_coordinate_system_code '2'
_symmetry_cell_setting 'orthorhombic'
loop_
_space_group_symop_operation_xyz
x,y,z
-x,1/2-y,z
x,1/2-y,1/2-z
-x,y,1/2-z
-x,-y,-z
x,1/2+y,-z
-x,1/2+y,1/2+z
x,-y,1/2+z
1/2+x,1/2+y,z
1/2-x,-y,z
1/2+x,-y,1/2-z
1/2-x,1/2+y,1/2-z
1/2-x,1/2-y,-z
1/2+x,y,-z
1/2-x,y,1/2+z
1/2+x,1/2-y,1/2+z
loop_
_atom_site_type_symbol
_atom_site_label
_atom_site_fract_x
_atom_site_fract_y
_atom_site_fract_z
Si Si1 0.080140 0.451738 0.937718
Si Si2 0.993855 0.124179 0.821160
Si Si3 0.756494 0.156087 0.678547
Si Si4 0.836858 0.446874 0.975065
Si Si5 0.607667 0.843302 0.056615
Si Si6 0.720721 0.317394 0.178386
Si Si7 0.144995 0.817648 0.551211
O O1 0.083335 0.421657 0.866463
O O2 0.142994 0.521157 0.952440
O O3 0.110223 0.395877 0.994460
O O4 0.951520 0.463373 0.943298
O O5 0.911007 0.188650 0.817596
O O6 0.000000 0.092272 0.750000
O O7 0.118224 0.138323 0.840923
O O8 0.673707 0.132244 0.621438
O O9 0.744804 0.139602 0.756441
O O10 0.740760 0.238223 0.680915
O O11 0.750000 0.500000 0.945560
O O12 0.828255 0.365299 0.987952
O O13 0.479100 0.835363 0.070831
O O14 0.645210 0.764989 0.038166
O O15 0.773934 0.337961 0.109477
#
# Coordination Sequence:
#
# PCOD9506769 Si02
#       7
#    16  16  16  16  16  16  16
#     4  10  22  38  60  85 115 158 198 248 296 357
#     4  10  20  36  57  82 118 154 200 245 294 353
#     4   9  18  32  55  85 123 153 192 237 296 357
#     4  10  21  38  59  80 117 159 196 236 302 359
#     4   9  19  36  58  92 122 146 198 250 303 359
#     4   9  17  33  54  85 119 160 189 234 296 360
#     4   9  18  36  59  86 123 152 197 247 298 361
#
# _framework density 22.941282999999999
#
# number of rings (size 3 to 8) (size 9 to 14) (size 15 to 20)
#    0.000    2.571    0.000    1.286    2.000    2.286 
#   10.286    5.000    9.429    0.857    0.000    0.000 
#    0.000    0.000    0.000    0.000    0.000    0.000 
#
# Total GULP energy -311745.080839 kJ/mol
# GULP energy per Si atom -5566.876444 kJ/mol
# Density = 2.288907 g / cm^3
# Si number density = 22.941283 Si / 1000 Ang^3
#
#
#
# Elastic Constant Matrix: (Units=GPa)
#
#
# Indices 1 2 3 4 5 6 
#
# 1 96.2741 4.2747 2.2897 0.0000 0.0000 0.0000
# 2 4.2747 79.5405 17.8820 0.0000 0.0000 0.0000
# 3 2.2897 17.8820 95.0245 0.0000 0.0000 0.0000
# 4 0.0000 0.0000 0.0000 17.8242 0.0000 0.0000
# 5 0.0000 0.0000 0.0000 0.0000 37.8248 0.0000
# 6 0.0000 0.0000 0.0000 0.0000 0.0000 38.0271
#
#
#
# Elastic Compliance Matrix: (Units=1/GPa)
#
#
# Indices 1 2 3 4 5 6 
#
# 1 0.010414 -0.000525 -0.000152 0.000000 0.000000 0.000000
# 2 -0.000525 0.013154 -0.002463 0.000000 0.000000 0.000000
# 3 -0.000152 -0.002463 0.010991 0.000000 0.000000 0.000000
# 4 0.000000 0.000000 0.000000 0.056103 0.000000 0.000000
# 5 0.000000 0.000000 0.000000 0.000000 0.026438 0.000000
# 6 0.000000 0.000000 0.000000 0.000000 0.000000 0.026297
#
#
# Mechanical properties :
#
#
# Convention : Reuss Voigt Hill
#
# Bulk Modulus (GPa) = 35.36285 35.52577 35.44431
# Shear Modulus (GPa) = 31.42609 35.16141 33.29375
#
# Velocity S-wave (km/s) = 3.70516 3.91918 3.81367
# Velocity P-wave (km/s) = 5.80967 5.99993 5.90556
#
# Compressibility (1/GPa) = 0.02827826
#
# Stress axis : x y z
#
# Youngs Moduli (GPa) = 96.02499 76.02187 90.98589
#
# Poissons Ratio (x) = 0.03995 0.01383
# Poissons Ratio (y) = 0.05046 0.22407
# Poissons Ratio (z) = 0.01460 0.18722
#
# Static dielectric constant tensor:
#      x y z
#    x 1.963400 0.000000 0.000000 
#    y 0.000000 2.074770 0.000000 
#    z 0.000000 0.000000 1.993320 
# 
# From -- ./inp_files/44577.got.cif
#   From: 2010.05.17/outbox.cif.g08.bks.cpg/sg68_23_cif.got.tgz:44577.got - 2010.06.03 18:57:09.
