data_PCOD9506316
_publ_section_title
;
Structure prediction by ZEFSAII (Michael W. Deem and Ramdas Pophale) SiO2 
 PCOD9506316
Probable space group: C C C A
;
_chemical_formula_sum "Si O2"
_cell_formula_units_Z 96
_cell_length_a 11.734231
_cell_length_b 19.745728
_cell_length_c 19.630705
_cell_angle_alpha 90.000000
_cell_angle_beta 90.000000
_cell_angle_gamma 90.000000
_cell_volume 4548.452676
_symmetry_space_group_name_H-M "C C C A"
_symmetry_group_IT_number 68
_space_group.IT_coordinate_system_code '2'
_symmetry_cell_setting 'orthorhombic'
loop_
_space_group_symop_operation_xyz
x,y,z
-x,1/2-y,z
x,1/2-y,1/2-z
-x,y,1/2-z
-x,-y,-z
x,1/2+y,-z
-x,1/2+y,1/2+z
x,-y,1/2+z
1/2+x,1/2+y,z
1/2-x,-y,z
1/2+x,-y,1/2-z
1/2-x,1/2+y,1/2-z
1/2-x,1/2-y,-z
1/2+x,y,-z
1/2-x,y,1/2+z
1/2+x,1/2-y,1/2+z
loop_
_atom_site_type_symbol
_atom_site_label
_atom_site_fract_x
_atom_site_fract_y
_atom_site_fract_z
Si Si1 0.460151 0.941055 0.549752
Si Si2 0.138976 0.818355 0.465055
Si Si3 0.742008 0.893271 0.155001
Si Si4 0.872982 0.327980 0.729607
Si Si5 0.310698 0.169348 0.071973
Si Si6 0.444836 0.996038 0.324739
O O1 0.542441 0.874967 0.545509
O O2 0.342550 0.902818 0.537697
O O3 0.461432 0.977173 0.622860
O O4 0.500000 0.000000 0.500000
O O5 0.231404 0.844455 0.408620
O O6 0.184935 0.819612 0.542283
O O7 0.123917 0.738706 0.449295
O O8 0.770557 0.855416 0.224814
O O9 0.840681 0.951213 0.160971
O O10 0.617406 0.926039 0.155164
O O11 0.880992 0.250000 0.750000
O O12 0.841306 0.337701 0.651159
O O13 0.000000 0.356177 0.750000
O O14 0.500000 0.992822 0.250000
#
# Coordination Sequence:
#
# PCOD9506316 Si02
#       6
#    16  16  16  16  16  16
#     4  11  23  38  59  87 121 163 208 251 302 370
#     4  10  22  39  59  87 122 160 202 253 317 366
#     4  10  19  37  58  84 122 155 198 255 314 369
#     4  11  21  34  62  94 119 148 202 260 309 365
#     4  11  22  38  62  92 123 159 205 262 313 370
#     4  10  21  36  57  84 118 160 200 252 312 371
#
# _framework density 21.106079999999999
#
# number of rings (size 3 to 8) (size 9 to 14) (size 15 to 20)
#    0.000    1.500    1.667    5.000    2.333    3.333 
#    0.000    0.000    0.000    0.500    0.000    0.000 
#    0.000    0.000    0.000    0.000    0.000    0.000 
#
# Total GULP energy -267312.221889 kJ/mol
# GULP energy per Si atom -5569.004623 kJ/mol
# Density = 2.105804 g / cm^3
# Si number density = 21.106080 Si / 1000 Ang^3
#
#
#
# Elastic Constant Matrix: (Units=GPa)
#
#
# Indices 1 2 3 4 5 6 
#
# 1 19.6951 7.7482 8.3412 0.0000 0.0000 0.0000
# 2 7.7482 110.8738 16.8797 0.0000 0.0000 0.0000
# 3 8.3412 16.8797 114.5721 0.0000 0.0000 0.0000
# 4 0.0000 0.0000 0.0000 28.5659 0.0000 0.0000
# 5 0.0000 0.0000 0.0000 0.0000 26.6225 0.0000
# 6 0.0000 0.0000 0.0000 0.0000 0.0000 22.5728
#
#
#
# Elastic Compliance Matrix: (Units=1/GPa)
#
#
# Indices 1 2 3 4 5 6 
#
# 1 0.053488 -0.003217 -0.003420 0.000000 0.000000 0.000000
# 2 -0.003217 0.009420 -0.001154 0.000000 0.000000 0.000000
# 3 -0.003420 -0.001154 0.009147 0.000000 0.000000 0.000000
# 4 0.000000 0.000000 0.000000 0.035007 0.000000 0.000000
# 5 0.000000 0.000000 0.000000 0.000000 0.037562 0.000000
# 6 0.000000 0.000000 0.000000 0.000000 0.000000 0.044301
#
#
# Mechanical properties :
#
#
# Convention : Reuss Voigt Hill
#
# Bulk Modulus (GPa) = 17.70751 34.56436 26.13593
# Shear Modulus (GPa) = 22.38822 29.69701 26.04261
#
# Velocity S-wave (km/s) = 3.26045 3.75512 3.51649
# Velocity P-wave (km/s) = 4.75205 5.93408 5.37565
#
# Compressibility (1/GPa) = 0.05647323
#
# Stress axis : x y z
#
# Youngs Moduli (GPa) = 18.69567 106.16026 109.32456
#
# Poissons Ratio (x) = 0.34155 0.37390
# Poissons Ratio (y) = 0.06015 0.12611
# Poissons Ratio (z) = 0.06394 0.12246
#
# Static dielectric constant tensor:
#      x y z
#    x 1.834830 0.000000 0.000000 
#    y 0.000000 1.795610 0.000000 
#    z 0.000000 0.000000 1.806250 
# 
# From -- ./inp_files/37645.got.cif
#   From: 2010.05.17/outbox.cif.g08.bks.cpg/sg68_19_cif.got.tgz:37645.got - 2010.06.03 18:57:09.
