data_PCOD9506050
_publ_section_title
;
Structure prediction by ZEFSAII (Michael W. Deem and Ramdas Pophale) SiO2 
 PCOD9506050
Probable space group: C C C A
;
_chemical_formula_sum "Si O2"
_cell_formula_units_Z 96
_cell_length_a 9.207534
_cell_length_b 24.410708
_cell_length_c 21.220412
_cell_angle_alpha 90.000000
_cell_angle_beta 90.000000
_cell_angle_gamma 90.000000
_cell_volume 4769.551237
_symmetry_space_group_name_H-M "C C C A"
_symmetry_group_IT_number 68
_space_group.IT_coordinate_system_code '2'
_symmetry_cell_setting 'orthorhombic'
loop_
_space_group_symop_operation_xyz
x,y,z
-x,1/2-y,z
x,1/2-y,1/2-z
-x,y,1/2-z
-x,-y,-z
x,1/2+y,-z
-x,1/2+y,1/2+z
x,-y,1/2+z
1/2+x,1/2+y,z
1/2-x,-y,z
1/2+x,-y,1/2-z
1/2-x,1/2+y,1/2-z
1/2-x,1/2-y,-z
1/2+x,y,-z
1/2-x,y,1/2+z
1/2+x,1/2-y,1/2+z
loop_
_atom_site_type_symbol
_atom_site_label
_atom_site_fract_x
_atom_site_fract_y
_atom_site_fract_z
Si Si1 0.709619 0.631056 0.171938
Si Si2 0.177878 0.058923 0.055112
Si Si3 0.538913 0.314061 0.099704
Si Si4 0.076473 0.306914 0.149530
Si Si5 0.902881 0.123653 0.024925
Si Si6 0.359939 0.168344 0.287268
O O1 0.705778 0.578745 0.126773
O O2 0.803082 0.674722 0.130250
O O3 0.548963 0.655198 0.180020
O O4 0.793230 0.624966 0.237980
O O5 0.010119 0.073078 0.041554
O O6 0.250000 0.000000 0.046793
O O7 0.261272 0.098765 0.006917
O O8 0.500000 0.250000 0.102611
O O9 0.431075 0.347318 0.146180
O O10 0.531972 0.337290 0.029658
O O11 0.120380 0.339449 0.086399
O O12 0.217408 0.297587 0.193216
O O13 0.000000 0.250000 0.134200
O O14 0.500000 0.192235 0.250000
#
# Coordination Sequence:
#
# PCOD9506050 Si02
#       6
#    16  16  16  16  16  16
#     4   9  21  34  51  80 111 146 196 246 288 346
#     4  10  20  37  59  80 109 152 197 254 309 347
#     4  10  19  33  54  81 117 155 188 232 286 350
#     4  11  21  34  55  83 118 156 189 234 291 352
#     4  10  21  36  56  86 116 147 195 243 294 359
#     4  10  21  36  54  77 112 156 199 235 278 340
#
# _framework density 20.127679000000001
#
# number of rings (size 3 to 8) (size 9 to 14) (size 15 to 20)
#    0.000    2.000    0.000    3.500    0.000    7.000 
#    0.000    6.667    0.000   24.000    0.000    0.000 
#    0.000    0.000    0.000    0.000    0.000    0.000 
#
# Total GULP energy -267482.310081 kJ/mol
# GULP energy per Si atom -5572.548127 kJ/mol
# Density = 2.008187 g / cm^3
# Si number density = 20.127679 Si / 1000 Ang^3
#
#
#
# Elastic Constant Matrix: (Units=GPa)
#
#
# Indices 1 2 3 4 5 6 
#
# 1 111.5668 21.3145 38.9240 0.0000 0.0000 0.0000
# 2 21.3145 43.6190 19.1926 0.0000 0.0000 0.0000
# 3 38.9240 19.1926 112.0379 0.0000 0.0000 0.0000
# 4 0.0000 0.0000 0.0000 12.0520 0.0000 0.0000
# 5 0.0000 0.0000 0.0000 0.0000 25.4526 0.0000
# 6 0.0000 0.0000 0.0000 0.0000 0.0000 11.9635
#
#
#
# Elastic Compliance Matrix: (Units=1/GPa)
#
#
# Indices 1 2 3 4 5 6 
#
# 1 0.010785 -0.003917 -0.003076 0.000000 0.000000 0.000000
# 2 -0.003917 0.026217 -0.003130 0.000000 0.000000 0.000000
# 3 -0.003076 -0.003130 0.010530 0.000000 0.000000 0.000000
# 4 0.000000 0.000000 0.000000 0.082973 0.000000 0.000000
# 5 0.000000 0.000000 0.000000 0.000000 0.039289 0.000000
# 6 0.000000 0.000000 0.000000 0.000000 0.000000 0.083588
#
#
# Mechanical properties :
#
#
# Convention : Reuss Voigt Hill
#
# Bulk Modulus (GPa) = 36.64827 47.34290 41.99558
# Shear Modulus (GPa) = 17.68516 22.41313 20.04915
#
# Velocity S-wave (km/s) = 2.96742 3.34061 3.15953
# Velocity P-wave (km/s) = 5.47615 6.20096 5.84979
#
# Compressibility (1/GPa) = 0.02728642
#
# Stress axis : x y z
#
# Youngs Moduli (GPa) = 92.72484 38.14322 94.96307
#
# Poissons Ratio (x) = 0.14939 0.29209
# Poissons Ratio (y) = 0.36316 0.29727
# Poissons Ratio (z) = 0.28521 0.11940
#
# Static dielectric constant tensor:
#      x y z
#    x 1.765210 0.000000 0.000000 
#    y 0.000000 1.681620 0.000000 
#    z 0.000000 0.000000 1.728910 
# 
# From -- ./inp_files/43414.got.cif
#   From: 2010.05.17/outbox.cif.g08.bks.cpg/sg68_22_cif.got.tgz:43414.got - 2010.06.03 18:57:09.
