data_PCOD9506320
_publ_section_title
;
Structure prediction by ZEFSAII (Michael W. Deem and Ramdas Pophale) SiO2 
 PCOD9506320
Probable space group: C C C A
;
_chemical_formula_sum "Si O2"
_cell_formula_units_Z 104
_cell_length_a 16.076007
_cell_length_b 18.041474
_cell_length_c 18.800171
_cell_angle_alpha 90.000000
_cell_angle_beta 90.000000
_cell_angle_gamma 90.000000
_cell_volume 5452.705007
_symmetry_space_group_name_H-M "C C C A"
_symmetry_group_IT_number 68
_space_group.IT_coordinate_system_code '2'
_symmetry_cell_setting 'orthorhombic'
loop_
_space_group_symop_operation_xyz
x,y,z
-x,1/2-y,z
x,1/2-y,1/2-z
-x,y,1/2-z
-x,-y,-z
x,1/2+y,-z
-x,1/2+y,1/2+z
x,-y,1/2+z
1/2+x,1/2+y,z
1/2-x,-y,z
1/2+x,-y,1/2-z
1/2-x,1/2+y,1/2-z
1/2-x,1/2-y,-z
1/2+x,y,-z
1/2-x,y,1/2+z
1/2+x,1/2-y,1/2+z
loop_
_atom_site_type_symbol
_atom_site_label
_atom_site_fract_x
_atom_site_fract_y
_atom_site_fract_z
Si Si1 0.882257 0.615591 0.188075
Si Si2 0.632415 0.953337 0.152176
Si Si3 0.167401 0.251803 0.905619
Si Si4 0.345173 0.183515 0.938887
Si Si5 0.068977 0.613897 0.147178
Si Si6 0.750000 0.000000 0.769071
Si Si7 0.500000 0.250000 0.645302
Si Si8 0.500000 0.625974 0.250000
O O1 0.841919 0.689745 0.157623
O O2 0.906171 0.626509 0.270455
O O3 0.818006 0.546577 0.187184
O O4 0.969304 0.603719 0.146463
O O5 0.652005 0.901704 0.085584
O O6 0.703399 0.947153 0.212516
O O7 0.554255 0.925003 0.198620
O O8 0.614570 0.037057 0.128278
O O9 0.259624 0.218016 0.909419
O O10 0.102342 0.184273 0.896218
O O11 0.152164 0.297224 0.978218
O O12 0.425618 0.218279 0.901255
O O13 0.539268 0.315057 0.694599
#
# Coordination Sequence:
#
# PCOD9506320 Si02
#       8
#    16  16  16  16  16   8   8   8
#     4  10  21  37  61  94 121 158 197 250 296 355
#     4  10  19  37  60  85 117 154 194 247 297 351
#     4  11  23  39  58  88 123 161 200 246 289 366
#     4  10  23  39  58  85 117 161 203 241 299 357
#     4  10  21  39  63  90 120 159 202 244 303 355
#     4  10  20  34  60  92 120 152 194 250 308 352
#     4   9  20  36  58  86 111 154 192 250 299 348
#     4   9  18  34  58  84 115 142 194 250 291 346
#
# _framework density 19.073101999999999
#
# number of rings (size 3 to 8) (size 9 to 14) (size 15 to 20)
#    0.000    2.000    0.000    4.615    4.308    1.231 
#    2.769    4.615    0.000    0.000    0.000    0.000 
#    0.000    0.000    0.000    0.000    0.000    0.000 
#
# Total GULP energy -289941.243476 kJ/mol
# GULP energy per Si atom -5575.793144 kJ/mol
# Density = 1.902969 g / cm^3
# Si number density = 19.073102 Si / 1000 Ang^3
#
#
#
# Elastic Constant Matrix: (Units=GPa)
#
#
# Indices 1 2 3 4 5 6 
#
# 1 93.7690 50.8768 32.8236 0.0000 0.0000 0.0000
# 2 50.8768 125.6146 61.4746 0.0000 0.0000 0.0000
# 3 32.8236 61.4746 49.9789 0.0000 0.0000 0.0000
# 4 0.0000 0.0000 0.0000 -0.8178 0.0000 0.0000
# 5 0.0000 0.0000 0.0000 0.0000 24.7085 0.0000
# 6 0.0000 0.0000 0.0000 0.0000 0.0000 17.9797
#
#
#
# Elastic Compliance Matrix: (Units=1/GPa)
#
#
# Indices 1 2 3 4 5 6 
#
# 1 0.014285 -0.003001 -0.005690 0.000000 0.000000 0.000000
# 2 -0.003001 0.020630 -0.023405 0.000000 0.000000 0.000000
# 3 -0.005690 -0.023405 0.052534 0.000000 0.000000 0.000000
# 4 0.000000 0.000000 0.000000 -1.222837 0.000000 0.000000
# 5 0.000000 0.000000 0.000000 0.000000 0.040472 0.000000
# 6 0.000000 0.000000 0.000000 0.000000 0.000000 0.055618
#
#
# Mechanical properties :
#
#
# Convention : Reuss Voigt Hill
#
# Bulk Modulus (GPa) = 42.99831 62.19030 52.59430
# Shear Modulus (GPa) = -5.16874 16.65323 5.74225
#
# Velocity S-wave (km/s) = -1.64798 2.95808 1.73701
# Velocity P-wave (km/s) = 4.35566 6.65913 5.62654
#
# Compressibility (1/GPa) = 0.02325673
#
# Stress axis : x y z
#
# Youngs Moduli (GPa) = 70.00571 48.47237 19.03537
#
# Poissons Ratio (x) = 0.14545 0.10832
# Poissons Ratio (y) = 0.21007 0.44552
# Poissons Ratio (z) = 0.39836 1.13449
#
# Static dielectric constant tensor:
#      x y z
#    x 1.750750 0.000000 0.000000 
#    y 0.000000 1.680900 0.000000 
#    z 0.000000 0.000000 1.642330 
# 
# From -- ./inp_files/32136.got.cif
#   From: 2010.05.17/outbox.cif.g08.bks.cpg/sg68_17_cif.got.tgz:32136.got - 2010.06.03 18:57:09.
