data_PCOD9506954
_publ_section_title
;
Structure prediction by ZEFSAII (Michael W. Deem and Ramdas Pophale) SiO2 
 PCOD9506954
Probable space group: C C C A
;
_chemical_formula_sum "Si O2"
_cell_formula_units_Z 116
_cell_length_a 22.727592
_cell_length_b 9.755701
_cell_length_c 28.144270
_cell_angle_alpha 90.000000
_cell_angle_beta 90.000000
_cell_angle_gamma 90.000000
_cell_volume 6240.248639
_symmetry_space_group_name_H-M "C C C A"
_symmetry_group_IT_number 68
_space_group.IT_coordinate_system_code '2'
_symmetry_cell_setting 'orthorhombic'
loop_
_space_group_symop_operation_xyz
x,y,z
-x,1/2-y,z
x,1/2-y,1/2-z
-x,y,1/2-z
-x,-y,-z
x,1/2+y,-z
-x,1/2+y,1/2+z
x,-y,1/2+z
1/2+x,1/2+y,z
1/2-x,-y,z
1/2+x,-y,1/2-z
1/2-x,1/2+y,1/2-z
1/2-x,1/2-y,-z
1/2+x,y,-z
1/2-x,y,1/2+z
1/2+x,1/2-y,1/2+z
loop_
_atom_site_type_symbol
_atom_site_label
_atom_site_fract_x
_atom_site_fract_y
_atom_site_fract_z
Si Si1 0.500000 0.250000 0.750000
Si Si2 0.659991 0.795615 0.108103
Si Si3 0.562151 0.938374 0.172745
Si Si4 0.703428 0.262374 0.390031
Si Si5 0.114676 0.231548 0.804027
Si Si6 0.965424 0.610863 0.127714
Si Si7 0.856606 0.504135 0.072915
Si Si8 0.679993 0.987424 0.532479
O O1 0.461165 0.155921 0.784894
O O2 0.615251 0.865617 0.144626
O O3 0.729514 0.804891 0.119577
O O4 0.646911 0.636123 0.102015
O O5 0.656103 0.876838 0.058254
O O6 0.583746 0.084572 0.192042
O O7 0.508736 0.984276 0.137943
O O8 0.667634 0.267597 0.341388
O O9 0.694532 0.111655 0.412392
O O10 0.675601 0.366237 0.428774
O O11 0.132781 0.250000 0.750000
O O12 0.069642 0.346970 0.823915
O O13 0.917166 0.576078 0.088294
O O14 0.000000 0.750000 0.114594
O O15 0.851058 0.468505 0.017633
O O16 0.750000 0.000000 0.523072
#
# Coordination Sequence:
#
# PCOD9506954 Si02
#       8
#     4  16  16  16  16  16  16  16
#     4  12  24  36  58  84 112 152 208 254 294 352
#     4  11  22  37  62  89 128 159 189 257 313 350
#     4  11  22  40  60  84 121 157 202 255 307 357
#     4  10  21  39  61  90 127 162 199 246 305 375
#     4  10  20  38  66  88 113 159 208 247 305 370
#     4   9  21  40  63  86 118 159 205 260 298 360
#     4  11  21  36  63  93 122 156 212 248 297 362
#     4  10  20  37  62  90 122 167 202 241 302 374
#
# _framework density 18.589003000000002
#
# number of rings (size 3 to 8) (size 9 to 14) (size 15 to 20)
#    0.000    1.655    1.379    3.724    0.000    5.241 
#    1.241    0.690    4.552    0.000    0.000    0.000 
#    0.000    0.000    0.000    0.000    0.000    0.000 
#
# Total GULP energy -323816.981045 kJ/mol
# GULP energy per Si atom -5583.051397 kJ/mol
# Density = 1.854669 g / cm^3
# Si number density = 18.589003 Si / 1000 Ang^3
#
#
#
# Elastic Constant Matrix: (Units=GPa)
#
#
# Indices 1 2 3 4 5 6 
#
# 1 93.9140 28.9801 58.8755 0.0000 0.0000 0.0000
# 2 28.9801 80.8671 30.1031 0.0000 0.0000 0.0000
# 3 58.8755 30.1031 120.2959 0.0000 0.0000 0.0000
# 4 0.0000 0.0000 0.0000 20.2782 0.0000 0.0000
# 5 0.0000 0.0000 0.0000 0.0000 17.8486 0.0000
# 6 0.0000 0.0000 0.0000 0.0000 0.0000 31.7621
#
#
#
# Elastic Compliance Matrix: (Units=1/GPa)
#
#
# Indices 1 2 3 4 5 6 
#
# 1 0.016043 -0.003117 -0.007072 0.000000 0.000000 0.000000
# 2 -0.003117 0.014242 -0.002038 0.000000 0.000000 0.000000
# 3 -0.007072 -0.002038 0.012284 0.000000 0.000000 0.000000
# 4 0.000000 0.000000 0.000000 0.049314 0.000000 0.000000
# 5 0.000000 0.000000 0.000000 0.000000 0.056027 0.000000
# 6 0.000000 0.000000 0.000000 0.000000 0.000000 0.031484
#
#
# Mechanical properties :
#
#
# Convention : Reuss Voigt Hill
#
# Bulk Modulus (GPa) = 55.20385 58.99939 57.10162
# Shear Modulus (GPa) = 23.82237 25.78568 24.80403
#
# Velocity S-wave (km/s) = 3.58373 3.72848 3.65682
# Velocity P-wave (km/s) = 6.84731 7.09530 6.97241
#
# Compressibility (1/GPa) = 0.01811468
#
# Stress axis : x y z
#
# Youngs Moduli (GPa) = 62.33119 70.21610 81.40581
#
# Poissons Ratio (x) = 0.21885 0.57570
# Poissons Ratio (y) = 0.19428 0.16594
# Poissons Ratio (z) = 0.44081 0.14313
#
# Static dielectric constant tensor:
#      x y z
#    x 1.661780 0.000000 0.000000 
#    y 0.000000 1.662500 0.000000 
#    z 0.000000 0.000000 1.605080 
# 
# From -- ./inp_files/49629.got.cif
#   From: 2010.05.17/outbox.cif.g08.bks.cpg/sg68_25_cif.got.tgz:49629.got - 2010.06.03 18:57:09.
