data_PCOD9506002
_publ_section_title
;
Structure prediction by ZEFSAII (Michael W. Deem and Ramdas Pophale) SiO2 
 PCOD9506002
Probable space group: C C C A
;
_chemical_formula_sum "Si O2"
_cell_formula_units_Z 88
_cell_length_a 24.177334
_cell_length_b 20.533026
_cell_length_c 8.683056
_cell_angle_alpha 90.000000
_cell_angle_beta 90.000000
_cell_angle_gamma 90.000000
_cell_volume 4310.562726
_symmetry_space_group_name_H-M "C C C A"
_symmetry_group_IT_number 68
_space_group.IT_coordinate_system_code '2'
_symmetry_cell_setting 'orthorhombic'
loop_
_space_group_symop_operation_xyz
x,y,z
-x,1/2-y,z
x,1/2-y,1/2-z
-x,y,1/2-z
-x,-y,-z
x,1/2+y,-z
-x,1/2+y,1/2+z
x,-y,1/2+z
1/2+x,1/2+y,z
1/2-x,-y,z
1/2+x,-y,1/2-z
1/2-x,1/2+y,1/2-z
1/2-x,1/2-y,-z
1/2+x,y,-z
1/2-x,y,1/2+z
1/2+x,1/2-y,1/2+z
loop_
_atom_site_type_symbol
_atom_site_label
_atom_site_fract_x
_atom_site_fract_y
_atom_site_fract_z
Si Si1 0.707835 0.914930 0.943320
Si Si2 0.375472 0.327165 0.285936
Si Si3 0.818515 0.551105 0.703089
Si Si4 0.900238 0.135304 0.454180
Si Si5 0.910997 0.250000 0.250000
Si Si6 0.021366 0.180276 0.510021
O O1 0.674727 0.851212 0.891769
O O2 0.772614 0.912683 0.903224
O O3 0.686903 0.975405 0.838472
O O4 0.695650 0.933182 0.120187
O O5 0.374820 0.250000 0.250000
O O6 0.432467 0.344928 0.374026
O O7 0.375074 0.364090 0.123846
O O8 0.877654 0.577805 0.650728
O O9 0.881604 0.202598 0.369668
O O10 0.966592 0.139216 0.476263
O O11 0.947538 0.298817 0.353449
O O12 0.000000 0.250000 0.572500
#
# Coordination Sequence:
#
# PCOD9506002 Si02
#       6
#    16  16  16  16   8  16
#     4  11  24  44  68  91 124 172 215 269 325 388
#     4  12  22  37  62  96 130 170 214 264 320 381
#     4  11  23  45  68  90 124 170 221 265 326 386
#     4  11  21  34  61  91 125 165 217 255 317 377
#     4  10  19  32  54  88 122 166 200 252 319 378
#     4  10  19  34  57  88 126 169 204 253 316 386
#
# _framework density 20.414967000000001
#
# number of rings (size 3 to 8) (size 9 to 14) (size 15 to 20)
#    0.000    1.091    3.636    8.455    0.000    0.000 
#    1.636    2.727    0.000    2.182    0.000    0.000 
#    0.000    0.000    0.000    0.000    0.000    0.000 
#
# Total GULP energy -245707.428162 kJ/mol
# GULP energy per Si atom -5584.259731 kJ/mol
# Density = 2.036850 g / cm^3
# Si number density = 20.414967 Si / 1000 Ang^3
#
#
#
# Elastic Constant Matrix: (Units=GPa)
#
#
# Indices 1 2 3 4 5 6 
#
# 1 78.5818 38.8009 21.1493 0.0000 0.0000 0.0000
# 2 38.8009 36.3996 16.9626 0.0000 0.0000 0.0000
# 3 21.1493 16.9626 152.8632 0.0000 0.0000 0.0000
# 4 0.0000 0.0000 0.0000 26.7525 0.0000 0.0000
# 5 0.0000 0.0000 0.0000 0.0000 26.5435 0.0000
# 6 0.0000 0.0000 0.0000 0.0000 0.0000 40.5494
#
#
#
# Elastic Compliance Matrix: (Units=1/GPa)
#
#
# Indices 1 2 3 4 5 6 
#
# 1 0.026913 -0.028424 -0.000570 0.000000 0.000000 0.000000
# 2 -0.028424 0.058989 -0.002613 0.000000 0.000000 0.000000
# 3 -0.000570 -0.002613 0.006911 0.000000 0.000000 0.000000
# 4 0.000000 0.000000 0.000000 0.037380 0.000000 0.000000
# 5 0.000000 0.000000 0.000000 0.000000 0.037674 0.000000
# 6 0.000000 0.000000 0.000000 0.000000 0.000000 0.024661
#
#
# Mechanical properties :
#
#
# Convention : Reuss Voigt Hill
#
# Bulk Modulus (GPa) = 33.78306 46.85224 40.31765
# Shear Modulus (GPa) = 18.82472 31.49785 25.16129
#
# Velocity S-wave (km/s) = 3.03991 3.93221 3.51450
# Velocity P-wave (km/s) = 5.37638 6.60425 6.02170
#
# Compressibility (1/GPa) = 0.02960064
#
# Stress axis : x y z
#
# Youngs Moduli (GPa) = 37.15611 16.95219 144.70561
#
# Poissons Ratio (x) = 0.48184 0.08242
# Poissons Ratio (y) = 1.05611 0.37815
# Poissons Ratio (z) = 0.02116 0.04430
#
# Static dielectric constant tensor:
#      x y z
#    x 1.751860 0.000000 0.000000 
#    y 0.000000 1.732380 0.000000 
#    z 0.000000 0.000000 1.774990 
# 
# From -- ./inp_files/7987.got.cif
#   From: 2010.05.17/outbox.cif.g08.bks.cpg/sg68_4_cif.got.tgz:7987.got - 2010.06.03 18:57:09.
