data_PCOD9506306
_publ_section_title
;
Structure prediction by ZEFSAII (Michael W. Deem and Ramdas Pophale) SiO2 
 PCOD9506306
Probable space group: C C C A
;
_chemical_formula_sum "Si O2"
_cell_formula_units_Z 76
_cell_length_a 24.285147
_cell_length_b 11.473338
_cell_length_c 14.454334
_cell_angle_alpha 90.000000
_cell_angle_beta 90.000000
_cell_angle_gamma 90.000000
_cell_volume 4027.435653
_symmetry_space_group_name_H-M "C C C A"
_symmetry_group_IT_number 68
_space_group.IT_coordinate_system_code '2'
_symmetry_cell_setting 'orthorhombic'
loop_
_space_group_symop_operation_xyz
x,y,z
-x,1/2-y,z
x,1/2-y,1/2-z
-x,y,1/2-z
-x,-y,-z
x,1/2+y,-z
-x,1/2+y,1/2+z
x,-y,1/2+z
1/2+x,1/2+y,z
1/2-x,-y,z
1/2+x,-y,1/2-z
1/2-x,1/2+y,1/2-z
1/2-x,1/2-y,-z
1/2+x,y,-z
1/2-x,y,1/2+z
1/2+x,1/2-y,1/2+z
loop_
_atom_site_type_symbol
_atom_site_label
_atom_site_fract_x
_atom_site_fract_y
_atom_site_fract_z
Si Si1 0.250000 0.000000 0.920734
Si Si2 0.902105 0.663586 0.864752
Si Si3 0.345432 0.586668 0.960247
Si Si4 0.270990 0.745995 0.849057
Si Si5 0.500000 0.250000 0.750000
Si Si6 0.342640 0.105374 0.681847
O O1 0.248256 0.122771 0.868513
O O2 0.303725 0.004346 0.983960
O O3 0.961396 0.671331 0.816261
O O4 0.861285 0.603542 0.789172
O O5 0.880939 0.796745 0.864973
O O6 0.893757 0.614394 0.967398
O O7 0.309859 0.699449 0.930412
O O8 0.355165 0.516453 0.866307
O O9 0.300684 0.750000 0.750000
O O10 0.219115 0.656883 0.834389
#
# Coordination Sequence:
#
# PCOD9506306 Si02
#       6
#     8  16  16  16   4  16
#     4  12  22  32  52  78 126 164 200 232 276 360
#     4  10  21  40  59  87 109 155 205 253 295 353
#     4  12  22  34  56  86 125 154 198 240 298 350
#     4  12  23  33  51  84 126 170 196 227 285 360
#     4   8  20  44  72  76 114 154 212 256 296 358
#     4  10  19  37  55  80 119 161 195 237 289 358
#
# _framework density 18.870567000000001
#
# number of rings (size 3 to 8) (size 9 to 14) (size 15 to 20)
#    0.000    1.263    6.316    1.895    5.895    0.000 
#    0.000    4.211    0.000    0.000    0.000    0.000 
#    0.000    0.000    0.000    0.000    0.000    0.000 
#
# Total GULP energy -211829.414776 kJ/mol
# GULP energy per Si atom -5574.458284 kJ/mol
# Density = 1.882762 g / cm^3
# Si number density = 18.870567 Si / 1000 Ang^3
#
#
#
# Elastic Constant Matrix: (Units=GPa)
#
#
# Indices 1 2 3 4 5 6 
#
# 1 79.3462 14.9253 43.7879 0.0000 0.0000 0.0000
# 2 14.9253 81.5342 50.3329 0.0000 0.0000 0.0000
# 3 43.7879 50.3329 94.3298 0.0000 0.0000 0.0000
# 4 0.0000 0.0000 0.0000 11.2302 0.0000 0.0000
# 5 0.0000 0.0000 0.0000 0.0000 32.0821 0.0000
# 6 0.0000 0.0000 0.0000 0.0000 0.0000 11.1378
#
#
#
# Elastic Compliance Matrix: (Units=1/GPa)
#
#
# Indices 1 2 3 4 5 6 
#
# 1 0.017326 0.002674 -0.009470 0.000000 0.000000 0.000000
# 2 0.002674 0.018702 -0.011220 0.000000 0.000000 0.000000
# 3 -0.009470 -0.011220 0.020984 0.000000 0.000000 0.000000
# 4 0.000000 0.000000 0.000000 0.089046 0.000000 0.000000
# 5 0.000000 0.000000 0.000000 0.000000 0.031170 0.000000
# 6 0.000000 0.000000 0.000000 0.000000 0.000000 0.089784
#
#
# Mechanical properties :
#
#
# Convention : Reuss Voigt Hill
#
# Bulk Modulus (GPa) = 47.66424 52.58915 50.12669
# Shear Modulus (GPa) = 16.12714 20.63430 18.38072
#
# Velocity S-wave (km/s) = 2.92656 3.31034 3.12435
# Velocity P-wave (km/s) = 6.06077 6.52227 6.29575
#
# Compressibility (1/GPa) = 0.02098009
#
# Stress axis : x y z
#
# Youngs Moduli (GPa) = 57.71735 53.47057 47.65565
#
# Poissons Ratio (x) = -0.14299 0.45128
# Poissons Ratio (y) = -0.15435 0.53471
# Poissons Ratio (z) = 0.54656 0.59996
#
# Static dielectric constant tensor:
#      x y z
#    x 1.682660 0.000000 0.000000 
#    y 0.000000 1.704180 0.000000 
#    z 0.000000 0.000000 1.727670 
# 
# From -- ./inp_files/25198.got.cif
#   From: 2010.05.17/outbox.cif.g08.bks.cpg/sg68_13_cif.got.tgz:25198.got - 2010.06.03 18:57:09.
