data_PCOD9506262
_publ_section_title
;
Structure prediction by ZEFSAII (Michael W. Deem and Ramdas Pophale) SiO2 
 PCOD9506262
Probable space group: C C C A
;
_chemical_formula_sum "Si O2"
_cell_formula_units_Z 64
_cell_length_a 7.568439
_cell_length_b 12.957246
_cell_length_c 26.335768
_cell_angle_alpha 90.000000
_cell_angle_beta 90.000000
_cell_angle_gamma 90.000000
_cell_volume 2582.646742
_symmetry_space_group_name_H-M "C C C A"
_symmetry_group_IT_number 68
_space_group.IT_coordinate_system_code '2'
_symmetry_cell_setting 'orthorhombic'
loop_
_space_group_symop_operation_xyz
x,y,z
-x,1/2-y,z
x,1/2-y,1/2-z
-x,y,1/2-z
-x,-y,-z
x,1/2+y,-z
-x,1/2+y,1/2+z
x,-y,1/2+z
1/2+x,1/2+y,z
1/2-x,-y,z
1/2+x,-y,1/2-z
1/2-x,1/2+y,1/2-z
1/2-x,1/2-y,-z
1/2+x,y,-z
1/2-x,y,1/2+z
1/2+x,1/2-y,1/2+z
loop_
_atom_site_type_symbol
_atom_site_label
_atom_site_fract_x
_atom_site_fract_y
_atom_site_fract_z
Si Si1 0.700095 0.779715 0.691127
Si Si2 0.856069 0.173684 0.962817
Si Si3 0.500000 0.250000 0.624820
Si Si4 0.004644 0.569557 0.941198
Si Si5 0.250000 0.000000 0.862887
O O1 0.500000 0.750000 0.678346
O O2 0.723469 0.750000 0.750000
O O3 0.843984 0.712623 0.660790
O O4 0.742010 0.898798 0.674146
O O5 0.708604 0.104654 0.935591
O O6 0.000000 0.250000 0.938291
O O7 0.750000 0.250000 0.000000
O O8 0.949231 0.090664 0.000347
O O9 0.414561 0.332541 0.587759
O O10 0.915622 0.486709 0.903412
#
# Coordination Sequence:
#
# PCOD9506262 Si02
#       5
#    16  16   8  16   8
#     4  10  23  48  73 102 140 184 232 299 388 453
#     4   9  16  31  58  90 132 203 244 286 350 421
#     4  10  19  38  66 102 136 182 234 292 353 428
#     4  10  19  36  59  97 142 191 244 295 353 415
#     4  10  24  44  70 108 150 176 248 318 356 466
#
# _framework density 24.78078
#
# number of rings (size 3 to 8) (size 9 to 14) (size 15 to 20)
#    0.000    2.250    3.750    0.375    0.000    2.000 
#   22.500    0.000    0.000    0.000    0.000    0.000 
#    0.000    0.000    0.000    0.000    0.000    0.000 
#
# Total GULP energy -178201.684401 kJ/mol
# GULP energy per Si atom -5568.802638 kJ/mol
# Density = 2.472438 g / cm^3
# Si number density = 24.780780 Si / 1000 Ang^3
#
#
#
# Elastic Constant Matrix: (Units=GPa)
#
#
# Indices 1 2 3 4 5 6 
#
# 1 167.0795 23.9721 66.7357 0.0000 0.0000 0.0000
# 2 23.9721 126.1126 33.0328 0.0000 0.0000 0.0000
# 3 66.7357 33.0328 161.5925 0.0000 0.0000 0.0000
# 4 0.0000 0.0000 0.0000 124.9350 0.0000 0.0000
# 5 0.0000 0.0000 0.0000 0.0000 42.4978 0.0000
# 6 0.0000 0.0000 0.0000 0.0000 0.0000 38.1238
#
#
#
# Elastic Compliance Matrix: (Units=1/GPa)
#
#
# Indices 1 2 3 4 5 6 
#
# 1 0.007214 -0.000624 -0.002852 0.000000 0.000000 0.000000
# 2 -0.000624 0.008432 -0.001466 0.000000 0.000000 0.000000
# 3 -0.002852 -0.001466 0.007666 0.000000 0.000000 0.000000
# 4 0.000000 0.000000 0.000000 0.008004 0.000000 0.000000
# 5 0.000000 0.000000 0.000000 0.000000 0.023531 0.000000
# 6 0.000000 0.000000 0.000000 0.000000 0.000000 0.026230
#
#
# Mechanical properties :
#
#
# Convention : Reuss Voigt Hill
#
# Bulk Modulus (GPa) = 74.47097 78.02955 76.25026
# Shear Modulus (GPa) = 52.39108 63.18092 57.78600
#
# Velocity S-wave (km/s) = 4.60301 5.05483 4.83420
# Velocity P-wave (km/s) = 7.63986 8.10091 7.87376
#
# Compressibility (1/GPa) = 0.01342805
#
# Stress axis : x y z
#
# Youngs Moduli (GPa) = 138.62450 118.59523 130.45097
#
# Poissons Ratio (x) = 0.07404 0.37199
# Poissons Ratio (y) = 0.08654 0.19122
# Poissons Ratio (z) = 0.39530 0.17384
#
# Static dielectric constant tensor:
#      x y z
#    x 2.075690 0.000000 0.000000 
#    y 0.000000 2.247540 0.000000 
#    z 0.000000 0.000000 1.964680 
# 
# From -- ./inp_files/42793.got.cif
#   From: 2010.05.17/outbox.cif.g08.bks.cpg/sg68_22_cif.got.tgz:42793.got - 2010.06.03 18:57:09.
