data_PCOD9506135
_publ_section_title
;
Structure prediction by ZEFSAII (Michael W. Deem and Ramdas Pophale) SiO2 
 PCOD9506135
Probable space group: C C C A
;
_chemical_formula_sum "Si O2"
_cell_formula_units_Z 88
_cell_length_a 13.607091
_cell_length_b 23.407259
_cell_length_c 13.608788
_cell_angle_alpha 90.000000
_cell_angle_beta 90.000000
_cell_angle_gamma 90.000000
_cell_volume 4334.462984
_symmetry_space_group_name_H-M "C C C A"
_symmetry_group_IT_number 68
_space_group.IT_coordinate_system_code '2'
_symmetry_cell_setting 'orthorhombic'
loop_
_space_group_symop_operation_xyz
x,y,z
-x,1/2-y,z
x,1/2-y,1/2-z
-x,y,1/2-z
-x,-y,-z
x,1/2+y,-z
-x,1/2+y,1/2+z
x,-y,1/2+z
1/2+x,1/2+y,z
1/2-x,-y,z
1/2+x,-y,1/2-z
1/2-x,1/2+y,1/2-z
1/2-x,1/2-y,-z
1/2+x,y,-z
1/2-x,y,1/2+z
1/2+x,1/2-y,1/2+z
loop_
_atom_site_type_symbol
_atom_site_label
_atom_site_fract_x
_atom_site_fract_y
_atom_site_fract_z
Si Si1 0.903577 0.064974 0.345426
Si Si2 0.394271 0.487329 0.631803
Si Si3 0.226013 0.076610 0.966662
Si Si4 0.249650 0.750000 0.750000
Si Si5 0.572900 0.303839 0.629833
Si Si6 0.185733 0.703178 0.056215
O O1 0.872734 0.040356 0.239175
O O2 0.817315 0.067014 0.424972
O O3 0.948170 0.129937 0.343385
O O4 0.990825 0.023332 0.381303
O O5 0.328671 0.453508 0.553336
O O6 0.353017 0.550756 0.611902
O O7 0.239726 0.143000 0.949415
O O8 0.173584 0.790446 0.689815
O O9 0.317211 0.779850 0.830851
O O10 0.500000 0.250000 0.648592
O O11 0.590843 0.303500 0.512349
O O12 0.250000 0.750000 0.000000
#
# Coordination Sequence:
#
# PCOD9506135 Si02
#       6
#    16  16  16   8  16  16
#     4  10  22  39  59  89 120 155 203 259 301 363
#     4  10  22  36  63  86 118 156 207 247 298 370
#     4  10  21  39  58  87 121 160 195 250 312 360
#     4  10  19  34  59  86 118 152 196 246 299 364
#     4  10  21  33  59  88 115 149 198 249 307 356
#     4   9  20  36  56  84 121 153 191 247 304 360
#
# _framework density 20.302398
#
# number of rings (size 3 to 8) (size 9 to 14) (size 15 to 20)
#    0.000    2.182    0.000    1.909   10.182    2.909 
#    0.000    0.455   16.000    0.000    0.000    0.000 
#    0.000    0.000    0.000    0.000    0.000    0.000 
#
# Total GULP energy -245108.325380 kJ/mol
# GULP energy per Si atom -5570.643759 kJ/mol
# Density = 2.025619 g / cm^3
# Si number density = 20.302398 Si / 1000 Ang^3
#
#
#
# Elastic Constant Matrix: (Units=GPa)
#
#
# Indices 1 2 3 4 5 6 
#
# 1 34.0941 0.6761 23.5088 0.0000 0.0000 0.0000
# 2 0.6761 110.6797 14.3887 0.0000 0.0000 0.0000
# 3 23.5088 14.3887 136.0567 0.0000 0.0000 0.0000
# 4 0.0000 0.0000 0.0000 10.7216 0.0000 0.0000
# 5 0.0000 0.0000 0.0000 0.0000 21.8237 0.0000
# 6 0.0000 0.0000 0.0000 0.0000 0.0000 22.8267
#
#
#
# Elastic Compliance Matrix: (Units=1/GPa)
#
#
# Indices 1 2 3 4 5 6 
#
# 1 0.033331 0.000553 -0.005818 0.000000 0.000000 0.000000
# 2 0.000553 0.009170 -0.001065 0.000000 0.000000 0.000000
# 3 -0.005818 -0.001065 0.008468 0.000000 0.000000 0.000000
# 4 0.000000 0.000000 0.000000 0.093269 0.000000 0.000000
# 5 0.000000 0.000000 0.000000 0.000000 0.045822 0.000000
# 6 0.000000 0.000000 0.000000 0.000000 0.000000 0.043808
#
#
# Mechanical properties :
#
#
# Convention : Reuss Voigt Hill
#
# Bulk Modulus (GPa) = 26.10384 39.77530 32.93957
# Shear Modulus (GPa) = 19.28281 27.22488 23.25385
#
# Velocity S-wave (km/s) = 3.08519 3.66590 3.38801
# Velocity P-wave (km/s) = 5.05734 6.12800 5.61823
#
# Compressibility (1/GPa) = 0.03830853
#
# Stress axis : x y z
#
# Youngs Moduli (GPa) = 30.00211 109.04888 118.09521
#
# Poissons Ratio (x) = -0.06027 0.68703
# Poissons Ratio (y) = -0.01658 0.12581
# Poissons Ratio (z) = 0.17454 0.11617
#
# Static dielectric constant tensor:
#      x y z
#    x 1.814530 0.000000 0.000000 
#    y 0.000000 1.821270 0.000000 
#    z 0.000000 0.000000 2.973070 
# 
# From -- ./inp_files/13449.got.cif
#   From: 2010.05.17/outbox.cif.g08.bks.cpg/sg68_7_cif.got.tgz:13449.got - 2010.06.03 18:57:09.
