data_PCOD9506729
_publ_section_title
;
Structure prediction by ZEFSAII (Michael W. Deem and Ramdas Pophale) SiO2 
 PCOD9506729
Probable space group: C C C A
;
_chemical_formula_sum "Si O2"
_cell_formula_units_Z 88
_cell_length_a 16.352767
_cell_length_b 11.928152
_cell_length_c 20.211901
_cell_angle_alpha 90.000000
_cell_angle_beta 90.000000
_cell_angle_gamma 90.000000
_cell_volume 3942.498855
_symmetry_space_group_name_H-M "C C C A"
_symmetry_group_IT_number 68
_space_group.IT_coordinate_system_code '2'
_symmetry_cell_setting 'orthorhombic'
loop_
_space_group_symop_operation_xyz
x,y,z
-x,1/2-y,z
x,1/2-y,1/2-z
-x,y,1/2-z
-x,-y,-z
x,1/2+y,-z
-x,1/2+y,1/2+z
x,-y,1/2+z
1/2+x,1/2+y,z
1/2-x,-y,z
1/2+x,-y,1/2-z
1/2-x,1/2+y,1/2-z
1/2-x,1/2-y,-z
1/2+x,y,-z
1/2-x,y,1/2+z
1/2+x,1/2-y,1/2+z
loop_
_atom_site_type_symbol
_atom_site_label
_atom_site_fract_x
_atom_site_fract_y
_atom_site_fract_z
Si Si1 0.688861 0.100301 0.375571
Si Si2 0.832249 0.319385 0.484751
Si Si3 0.723675 0.663063 0.345689
Si Si4 0.450810 0.906574 0.313482
Si Si5 0.881871 0.380438 0.761932
Si Si6 0.000000 0.750000 0.926335
O O1 0.647128 0.119433 0.446591
O O2 0.742618 0.210956 0.357366
O O3 0.632625 0.075086 0.312268
O O4 0.750000 0.000000 0.384960
O O5 0.750000 0.250000 0.500000
O O6 0.802855 0.384204 0.418271
O O7 0.914086 0.250996 0.465333
O O8 0.638722 0.649171 0.308437
O O9 0.796584 0.612778 0.302436
O O10 0.500000 0.871437 0.250000
O O11 0.493112 0.858638 0.378903
O O12 0.439727 0.040783 0.305634
O O13 0.904035 0.250000 0.750000
#
# Coordination Sequence:
#
# PCOD9506729 Si02
#       6
#    16  16  16  16  16   8
#     4  10  20  35  63  95 129 178 230 280 347 421
#     4   9  20  39  63  91 134 178 221 282 341 409
#     4   9  20  40  65  93 127 172 229 278 334 413
#     4  11  23  38  64  97 133 167 213 290 349 403
#     4  10  22  40  64  93 128 177 230 282 345 417
#     4  10  23  40  64 102 131 172 238 286 346 424
#
# _framework density 22.320868999999998
#
# number of rings (size 3 to 8) (size 9 to 14) (size 15 to 20)
#    0.000    2.182    0.000    1.909    0.000   19.273 
#    0.000    5.455    0.000   28.364    0.000    0.000 
#    0.000    0.000    0.000    0.000    0.000    0.000 
#
# Total GULP energy -245422.823561 kJ/mol
# GULP energy per Si atom -5577.791445 kJ/mol
# Density = 2.227007 g / cm^3
# Si number density = 22.320869 Si / 1000 Ang^3
#
#
#
# Elastic Constant Matrix: (Units=GPa)
#
#
# Indices 1 2 3 4 5 6 
#
# 1 145.5897 30.8341 73.4098 0.0000 0.0000 0.0000
# 2 30.8341 95.0659 40.0610 0.0000 0.0000 0.0000
# 3 73.4098 40.0610 155.7772 0.0000 0.0000 0.0000
# 4 0.0000 0.0000 0.0000 1.0013 0.0000 0.0000
# 5 0.0000 0.0000 0.0000 0.0000 39.8927 0.0000
# 6 0.0000 0.0000 0.0000 0.0000 0.0000 16.5289
#
#
#
# Elastic Compliance Matrix: (Units=1/GPa)
#
#
# Indices 1 2 3 4 5 6 
#
# 1 0.009148 -0.001290 -0.003979 0.000000 0.000000 0.000000
# 2 -0.001290 0.011980 -0.002473 0.000000 0.000000 0.000000
# 3 -0.003979 -0.002473 0.008931 0.000000 0.000000 0.000000
# 4 0.000000 0.000000 0.000000 0.998675 0.000000 0.000000
# 5 0.000000 0.000000 0.000000 0.000000 0.025067 0.000000
# 6 0.000000 0.000000 0.000000 0.000000 0.000000 0.060500
#
#
# Mechanical properties :
#
#
# Convention : Reuss Voigt Hill
#
# Bulk Modulus (GPa) = 68.61635 76.11583 72.36609
# Shear Modulus (GPa) = 4.40667 28.29311 16.34989
#
# Velocity S-wave (km/s) = 1.40660 3.56415 2.70940
# Velocity P-wave (km/s) = 5.78322 7.14929 6.50223
#
# Compressibility (1/GPa) = 0.01457379
#
# Stress axis : x y z
#
# Youngs Moduli (GPa) = 109.30918 83.47574 111.97488
#
# Poissons Ratio (x) = 0.10771 0.44558
# Poissons Ratio (y) = 0.14104 0.27688
# Poissons Ratio (z) = 0.43498 0.20641
#
# Static dielectric constant tensor:
#      x y z
#    x 1.728780 0.000000 0.000000 
#    y 0.000000 1.888440 0.000000 
#    z 0.000000 0.000000 1.868550 
# 
# From -- ./inp_files/39445.got.cif
#   From: 2010.05.17/outbox.cif.g08.bks.cpg/sg68_20_cif.got.tgz:39445.got - 2010.06.03 18:57:09.
