data_PCOD9506692
_publ_section_title
;
Structure prediction by ZEFSAII (Michael W. Deem and Ramdas Pophale) SiO2 
 PCOD9506692
Probable space group: C C C A
;
_chemical_formula_sum "Si O2"
_cell_formula_units_Z 64
_cell_length_a 9.366266
_cell_length_b 23.000123
_cell_length_c 12.873490
_cell_angle_alpha 90.000000
_cell_angle_beta 90.000000
_cell_angle_gamma 90.000000
_cell_volume 2773.275060
_symmetry_space_group_name_H-M "C C C A"
_symmetry_group_IT_number 68
_space_group.IT_coordinate_system_code '2'
_symmetry_cell_setting 'orthorhombic'
loop_
_space_group_symop_operation_xyz
x,y,z
-x,1/2-y,z
x,1/2-y,1/2-z
-x,y,1/2-z
-x,-y,-z
x,1/2+y,-z
-x,1/2+y,1/2+z
x,-y,1/2+z
1/2+x,1/2+y,z
1/2-x,-y,z
1/2+x,-y,1/2-z
1/2-x,1/2+y,1/2-z
1/2-x,1/2-y,-z
1/2+x,y,-z
1/2-x,y,1/2+z
1/2+x,1/2-y,1/2+z
loop_
_atom_site_type_symbol
_atom_site_label
_atom_site_fract_x
_atom_site_fract_y
_atom_site_fract_z
Si Si1 0.570911 0.189388 0.640680
Si Si2 0.861702 0.895827 0.456185
Si Si3 0.838717 0.666407 0.248762
Si Si4 0.850802 0.946658 0.109928
O O1 0.500000 0.250000 0.609236
O O2 0.500000 0.168889 0.750000
O O3 0.569804 0.142083 0.550109
O O4 0.732473 0.202095 0.678644
O O5 0.809107 0.849814 0.370128
O O6 0.727157 0.927860 0.504173
O O7 0.979140 0.942253 0.413738
O O8 0.834022 0.603812 0.305623
O O9 0.000000 0.687617 0.250000
O O10 0.750000 0.000000 0.145619
#
# Coordination Sequence:
#
# PCOD9506692 Si02
#       4
#    16  16  16  16
#     4  10  21  40  63  89 119 156 203 256 309 363
#     4  10  20  38  62  88 122 160 201 250 303 362
#     4   9  20  39  58  83 122 158 199 251 301 361
#     4  10  20  35  58  89 120 157 199 246 300 360
#
# _framework density 23.077408999999999
#
# number of rings (size 3 to 8) (size 9 to 14) (size 15 to 20)
#    0.000    2.250    0.000    2.250    0.000    1.000 
#    0.000   51.250    0.000    1.500    0.000    0.000 
#    0.000    0.000    0.000    0.000    0.000    0.000 
#
# Total GULP energy -178468.044534 kJ/mol
# GULP energy per Si atom -5577.126392 kJ/mol
# Density = 2.302488 g / cm^3
# Si number density = 23.077409 Si / 1000 Ang^3
#
#
#
# Elastic Constant Matrix: (Units=GPa)
#
#
# Indices 1 2 3 4 5 6 
#
# 1 109.4245 28.8855 -8.5987 0.0000 0.0000 0.0000
# 2 28.8855 78.1044 1.8676 0.0000 0.0000 0.0000
# 3 -8.5987 1.8676 52.1564 0.0000 0.0000 0.0000
# 4 0.0000 0.0000 0.0000 -6.2814 0.0000 0.0000
# 5 0.0000 0.0000 0.0000 0.0000 23.7639 0.0000
# 6 0.0000 0.0000 0.0000 0.0000 0.0000 22.1257
#
#
#
# Elastic Compliance Matrix: (Units=1/GPa)
#
#
# Indices 1 2 3 4 5 6 
#
# 1 0.010300 -0.003853 0.001836 0.000000 0.000000 0.000000
# 2 -0.003853 0.014256 -0.001146 0.000000 0.000000 0.000000
# 3 0.001836 -0.001146 0.019517 0.000000 0.000000 0.000000
# 4 0.000000 0.000000 0.000000 -0.159201 0.000000 0.000000
# 5 0.000000 0.000000 0.000000 0.000000 0.042081 0.000000
# 6 0.000000 0.000000 0.000000 0.000000 0.000000 0.045196
#
#
# Mechanical properties :
#
#
# Convention : Reuss Voigt Hill
#
# Bulk Modulus (GPa) = 26.49211 31.55491 29.02351
# Shear Modulus (GPa) = -559.05887 22.42372 -268.31757
#
# Velocity S-wave (km/s) = -15.58139 3.12055 -10.79449
# Velocity P-wave (km/s) = 17.66923 5.16594 11.94811
#
# Compressibility (1/GPa) = 0.03774709
#
# Stress axis : x y z
#
# Youngs Moduli (GPa) = 97.08580 70.14678 51.23785
#
# Poissons Ratio (x) = 0.27029 -0.09408
# Poissons Ratio (y) = 0.37409 0.05870
# Poissons Ratio (z) = -0.17826 0.08037
#
# Static dielectric constant tensor:
#      x y z
#    x 1.982030 0.000000 0.000000 
#    y 0.000000 1.874040 0.000000 
#    z 0.000000 0.000000 1.836180 
# 
# From -- ./inp_files/19202.got.cif
#   From: 2010.05.17/outbox.cif.g08.bks.cpg/sg68_10_cif.got.tgz:19202.got - 2010.06.03 18:57:09.
