data_PCOD9506474
_publ_section_title
;
Structure prediction by ZEFSAII (Michael W. Deem and Ramdas Pophale) SiO2 
 PCOD9506474
Probable space group: C C C A
;
_chemical_formula_sum "Si O2"
_cell_formula_units_Z 96
_cell_length_a 23.610774
_cell_length_b 22.532593
_cell_length_c 9.234141
_cell_angle_alpha 90.000000
_cell_angle_beta 90.000000
_cell_angle_gamma 90.000000
_cell_volume 4912.673461
_symmetry_space_group_name_H-M "C C C A"
_symmetry_group_IT_number 68
_space_group.IT_coordinate_system_code '2'
_symmetry_cell_setting 'orthorhombic'
loop_
_space_group_symop_operation_xyz
x,y,z
-x,1/2-y,z
x,1/2-y,1/2-z
-x,y,1/2-z
-x,-y,-z
x,1/2+y,-z
-x,1/2+y,1/2+z
x,-y,1/2+z
1/2+x,1/2+y,z
1/2-x,-y,z
1/2+x,-y,1/2-z
1/2-x,1/2+y,1/2-z
1/2-x,1/2-y,-z
1/2+x,y,-z
1/2-x,y,1/2+z
1/2+x,1/2-y,1/2+z
loop_
_atom_site_type_symbol
_atom_site_label
_atom_site_fract_x
_atom_site_fract_y
_atom_site_fract_z
Si Si1 0.681803 0.204088 0.621861
Si Si2 0.000000 0.750000 0.990290
Si Si3 0.276604 0.564307 0.439726
Si Si4 0.708555 0.639588 0.783592
Si Si5 0.379023 0.790435 0.928118
Si Si6 0.620237 0.884354 0.304400
Si Si7 0.500000 0.147734 0.750000
O O1 0.667391 0.250000 0.750000
O O2 0.746200 0.185938 0.648885
O O3 0.662258 0.237116 0.478564
O O4 0.645427 0.146351 0.660884
O O5 0.010880 0.806528 0.883713
O O6 0.057041 0.733955 0.077614
O O7 0.250000 0.500000 0.436720
O O8 0.289755 0.585523 0.601988
O O9 0.234876 0.613240 0.363768
O O10 0.335387 0.565809 0.350305
O O11 0.648417 0.672793 0.796394
O O12 0.377317 0.837432 0.061865
O O13 0.554324 0.892727 0.279189
#
# Coordination Sequence:
#
# PCOD9506474 Si02
#       7
#    16   8  16  16  16  16   8
#     4   9  15  27  43  71 106 127 154 191 235 302
#     4   9  14  20  40  66 101 132 148 185 237 284
#     4  10  20  35  50  71  95 128 169 219 256 287
#     4  10  20  31  49  73  99 129 166 203 248 297
#     4   9  15  24  39  69 101 126 154 187 238 295
#     4   8  15  24  42  69  97 121 158 200 244 287
#     4   9  12  22  40  68 100 124 148 196 249 278
#
# _framework density 19.541294000000001
#
# number of rings (size 3 to 8) (size 9 to 14) (size 15 to 20)
#    0.000    2.833    1.667    2.000    0.000    0.000 
#    0.000    0.000    0.000    0.000    4.333    9.917 
#    0.000    0.000    0.000    0.000    0.000    0.000 
#
# Total GULP energy -267487.096326 kJ/mol
# GULP energy per Si atom -5572.647840 kJ/mol
# Density = 1.949682 g / cm^3
# Si number density = 19.541294 Si / 1000 Ang^3
#
#
#
# Elastic Constant Matrix: (Units=GPa)
#
#
# Indices 1 2 3 4 5 6 
#
# 1 78.0996 11.2416 3.6768 0.0000 0.0000 0.0000
# 2 11.2416 45.0421 15.6620 0.0000 0.0000 0.0000
# 3 3.6768 15.6620 61.1182 0.0000 0.0000 0.0000
# 4 0.0000 0.0000 0.0000 -3.6081 0.0000 0.0000
# 5 0.0000 0.0000 0.0000 0.0000 14.8039 0.0000
# 6 0.0000 0.0000 0.0000 0.0000 0.0000 29.3018
#
#
#
# Elastic Compliance Matrix: (Units=1/GPa)
#
#
# Indices 1 2 3 4 5 6 
#
# 1 0.013281 -0.003334 0.000055 0.000000 0.000000 0.000000
# 2 -0.003334 0.025210 -0.006260 0.000000 0.000000 0.000000
# 3 0.000055 -0.006260 0.017963 0.000000 0.000000 0.000000
# 4 0.000000 0.000000 0.000000 -0.277158 0.000000 0.000000
# 5 0.000000 0.000000 0.000000 0.000000 0.067550 0.000000
# 6 0.000000 0.000000 0.000000 0.000000 0.000000 0.034128
#
#
# Mechanical properties :
#
#
# Convention : Reuss Voigt Hill
#
# Bulk Modulus (GPa) = 26.75416 27.26897 27.01156
# Shear Modulus (GPa) = -57.14927 18.34483 -19.40222
#
# Velocity S-wave (km/s) = -5.41377 3.06726 -3.15442
# Velocity P-wave (km/s) = 5.03564 5.15063 0.76527
#
# Compressibility (1/GPa) = 0.03737737
#
# Stress axis : x y z
#
# Youngs Moduli (GPa) = 75.29292 39.66650 55.67152
#
# Poissons Ratio (x) = 0.13225 -0.00308
# Poissons Ratio (y) = 0.25103 0.34849
# Poissons Ratio (z) = -0.00417 0.24830
#
# Static dielectric constant tensor:
#      x y z
#    x 1.724690 0.000000 0.000000 
#    y 0.000000 1.681050 0.000000 
#    z 0.000000 0.000000 1.718900 
# 
# From -- ./inp_files/8160.got.cif
#   From: 2010.05.17/outbox.cif.g08.bks.cpg/sg68_5_cif.got.tgz:8160.got - 2010.06.03 18:57:09.
