data_PCOD9506716
_publ_section_title
;
Structure prediction by ZEFSAII (Michael W. Deem and Ramdas Pophale) SiO2 
 PCOD9506716
Probable space group: C C C A
;
_chemical_formula_sum "Si O2"
_cell_formula_units_Z 96
_cell_length_a 20.599836
_cell_length_b 12.583082
_cell_length_c 18.868420
_cell_angle_alpha 90.000000
_cell_angle_beta 90.000000
_cell_angle_gamma 90.000000
_cell_volume 4890.872310
_symmetry_space_group_name_H-M "C C C A"
_symmetry_group_IT_number 68
_space_group.IT_coordinate_system_code '2'
_symmetry_cell_setting 'orthorhombic'
loop_
_space_group_symop_operation_xyz
x,y,z
-x,1/2-y,z
x,1/2-y,1/2-z
-x,y,1/2-z
-x,-y,-z
x,1/2+y,-z
-x,1/2+y,1/2+z
x,-y,1/2+z
1/2+x,1/2+y,z
1/2-x,-y,z
1/2+x,-y,1/2-z
1/2-x,1/2+y,1/2-z
1/2-x,1/2-y,-z
1/2+x,y,-z
1/2-x,y,1/2+z
1/2+x,1/2-y,1/2+z
loop_
_atom_site_type_symbol
_atom_site_label
_atom_site_fract_x
_atom_site_fract_y
_atom_site_fract_z
Si Si1 0.139370 0.375689 0.528065
Si Si2 0.091732 0.250000 0.750000
Si Si3 0.422261 0.865476 0.232785
Si Si4 0.424320 0.544579 0.662367
Si Si5 0.444890 0.034287 0.588384
Si Si6 0.250000 0.000000 0.058306
Si Si7 0.147241 0.841504 0.105908
O O1 0.128585 0.426867 0.604622
O O2 0.073887 0.399996 0.481883
O O3 0.197806 0.434239 0.488131
O O4 0.150482 0.252877 0.548086
O O5 0.057417 0.348434 0.707057
O O6 0.132009 0.301451 0.814795
O O7 0.395543 0.750000 0.250000
O O8 0.500000 0.862786 0.250000
O O9 0.397926 0.959247 0.282368
O O10 0.413162 0.898120 0.152033
O O11 0.483497 0.491834 0.617888
O O12 0.410882 0.920114 0.583306
O O13 0.289133 0.086369 0.103190
#
# Coordination Sequence:
#
# PCOD9506716 Si02
#       7
#    16   8  16  16  16   8  16
#     4  10  22  37  61  86 118 157 202 252 306 360
#     4  10  20  35  60  92 120 158 200 259 302 370
#     4   9  18  33  53  79 120 162 190 229 286 356
#     4  10  20  36  58  93 124 156 200 243 304 369
#     4  10  20  36  58  92 126 155 194 238 307 378
#     4  10  22  42  60  78 118 160 210 260 312 364
#     4  10  21  38  62  86 116 156 206 257 308 359
#
# _framework density 19.628399999999999
#
# number of rings (size 3 to 8) (size 9 to 14) (size 15 to 20)
#    0.000    2.167    1.667    1.000    0.000    6.000 
#    0.000    6.667    7.333    0.000    0.000    0.000 
#    0.000    0.000    0.000    0.000    0.000    0.000 
#
# Total GULP energy -267416.986579 kJ/mol
# GULP energy per Si atom -5571.187220 kJ/mol
# Density = 1.958372 g / cm^3
# Si number density = 19.628400 Si / 1000 Ang^3
#
#
#
# Elastic Constant Matrix: (Units=GPa)
#
#
# Indices 1 2 3 4 5 6 
#
# 1 31.0401 7.6653 7.4357 0.0000 0.0000 0.0000
# 2 7.6653 120.6919 37.6635 0.0000 0.0000 0.0000
# 3 7.4357 37.6635 98.8396 0.0000 0.0000 0.0000
# 4 0.0000 0.0000 0.0000 23.3851 0.0000 0.0000
# 5 0.0000 0.0000 0.0000 0.0000 17.4670 0.0000
# 6 0.0000 0.0000 0.0000 0.0000 0.0000 24.6735
#
#
#
# Elastic Compliance Matrix: (Units=1/GPa)
#
#
# Indices 1 2 3 4 5 6 
#
# 1 0.033046 -0.001502 -0.001914 0.000000 0.000000 0.000000
# 2 -0.001502 0.009472 -0.003496 0.000000 0.000000 0.000000
# 3 -0.001914 -0.003496 0.011594 0.000000 0.000000 0.000000
# 4 0.000000 0.000000 0.000000 0.042762 0.000000 0.000000
# 5 0.000000 0.000000 0.000000 0.000000 0.057251 0.000000
# 6 0.000000 0.000000 0.000000 0.000000 0.000000 0.040529
#
#
# Mechanical properties :
#
#
# Convention : Reuss Voigt Hill
#
# Bulk Modulus (GPa) = 24.82143 39.56673 32.19408
# Shear Modulus (GPa) = 22.53199 26.29226 24.41212
#
# Velocity S-wave (km/s) = 3.39178 3.66389 3.53046
# Velocity P-wave (km/s) = 5.29264 6.17256 5.74946
#
# Compressibility (1/GPa) = 0.04028777
#
# Stress axis : x y z
#
# Youngs Moduli (GPa) = 30.26118 105.57402 86.25358
#
# Poissons Ratio (x) = 0.15852 0.16508
# Poissons Ratio (y) = 0.04544 0.30158
# Poissons Ratio (z) = 0.05792 0.36913
#
# Static dielectric constant tensor:
#      x y z
#    x 1.721040 0.000000 0.000000 
#    y 0.000000 1.728620 0.000000 
#    z 0.000000 0.000000 1.680450 
# 
# From -- ./inp_files/33570.got.cif
#   From: 2010.05.17/outbox.cif.g08.bks.cpg/sg68_17_cif.got.tgz:33570.got - 2010.06.03 18:57:09.
