data_PCOD9506538
_publ_section_title
;
Structure prediction by ZEFSAII (Michael W. Deem and Ramdas Pophale) SiO2 
 PCOD9506538
Probable space group: C C C A
;
_chemical_formula_sum "Si O2"
_cell_formula_units_Z 96
_cell_length_a 11.467303
_cell_length_b 22.727303
_cell_length_c 19.619734
_cell_angle_alpha 90.000000
_cell_angle_beta 90.000000
_cell_angle_gamma 90.000000
_cell_volume 5113.312142
_symmetry_space_group_name_H-M "C C C A"
_symmetry_group_IT_number 68
_space_group.IT_coordinate_system_code '2'
_symmetry_cell_setting 'orthorhombic'
loop_
_space_group_symop_operation_xyz
x,y,z
-x,1/2-y,z
x,1/2-y,1/2-z
-x,y,1/2-z
-x,-y,-z
x,1/2+y,-z
-x,1/2+y,1/2+z
x,-y,1/2+z
1/2+x,1/2+y,z
1/2-x,-y,z
1/2+x,-y,1/2-z
1/2-x,1/2+y,1/2-z
1/2-x,1/2-y,-z
1/2+x,y,-z
1/2-x,y,1/2+z
1/2+x,1/2-y,1/2+z
loop_
_atom_site_type_symbol
_atom_site_label
_atom_site_fract_x
_atom_site_fract_y
_atom_site_fract_z
Si Si1 0.891416 0.353993 0.798698
Si Si2 0.580654 0.693074 0.450917
Si Si3 0.421167 0.357232 0.405351
Si Si4 0.764385 0.750873 0.136017
Si Si5 0.563614 0.338402 0.679676
Si Si6 0.241023 0.069599 0.691139
O O1 0.807554 0.299402 0.811371
O O2 0.822499 0.405003 0.759102
O O3 0.000000 0.338091 0.750000
O O4 0.953110 0.367262 0.870865
O O5 0.500000 0.750000 0.468104
O O6 0.578767 0.648395 0.513651
O O7 0.708377 0.716343 0.429399
O O8 0.525249 0.664532 0.383198
O O9 0.368174 0.293788 0.382293
O O10 0.335886 0.405410 0.371843
O O11 0.660090 0.711260 0.164848
O O12 0.500000 0.326469 0.750000
O O13 0.633764 0.399271 0.685157
O O14 0.250000 0.000000 0.691820
#
# Coordination Sequence:
#
# PCOD9506538 Si02
#       6
#    16  16  16  16  16  16
#     4  10  21  34  55  83 110 144 184 231 280 336
#     4  10  20  34  55  85 118 150 180 220 281 351
#     4  10  21  36  56  83 114 147 183 228 279 337
#     4  10  20  33  54  87 122 149 177 222 283 346
#     4  10  22  36  56  83 114 149 185 228 280 341
#     4  10  23  41  57  76 105 146 193 241 284 324
#
# _framework density 18.774522999999999
#
# number of rings (size 3 to 8) (size 9 to 14) (size 15 to 20)
#    0.000    2.000    0.000    3.000    0.000   23.667 
#    0.000    0.833    0.000    5.000    0.000    0.000 
#    0.000    0.000    0.000    0.000    0.000    0.000 
#
# Total GULP energy -268194.764893 kJ/mol
# GULP energy per Si atom -5587.390935 kJ/mol
# Density = 1.873179 g / cm^3
# Si number density = 18.774523 Si / 1000 Ang^3
#
#
#
# Elastic Constant Matrix: (Units=GPa)
#
#
# Indices 1 2 3 4 5 6 
#
# 1 45.1913 38.6529 28.4065 0.0000 0.0000 0.0000
# 2 38.6529 115.0637 60.4643 0.0000 0.0000 0.0000
# 3 28.4065 60.4643 134.5635 0.0000 0.0000 0.0000
# 4 0.0000 0.0000 0.0000 17.0248 0.0000 0.0000
# 5 0.0000 0.0000 0.0000 0.0000 12.0492 0.0000
# 6 0.0000 0.0000 0.0000 0.0000 0.0000 10.8007
#
#
#
# Elastic Compliance Matrix: (Units=1/GPa)
#
#
# Indices 1 2 3 4 5 6 
#
# 1 0.031676 -0.009330 -0.002495 0.000000 0.000000 0.000000
# 2 -0.009330 0.014125 -0.004377 0.000000 0.000000 0.000000
# 3 -0.002495 -0.004377 0.009925 0.000000 0.000000 0.000000
# 4 0.000000 0.000000 0.000000 0.058738 0.000000 0.000000
# 5 0.000000 0.000000 0.000000 0.000000 0.082993 0.000000
# 6 0.000000 0.000000 0.000000 0.000000 0.000000 0.092587
#
#
# Mechanical properties :
#
#
# Convention : Reuss Voigt Hill
#
# Bulk Modulus (GPa) = 42.87697 61.09620 51.98658
# Shear Modulus (GPa) = 15.14130 19.12792 17.13461
#
# Velocity S-wave (km/s) = 2.84294 3.19536 3.02429
# Velocity P-wave (km/s) = 5.80206 6.79901 6.32022
#
# Compressibility (1/GPa) = 0.02332254
#
# Stress axis : x y z
#
# Youngs Moduli (GPa) = 31.56929 70.79486 100.75575
#
# Poissons Ratio (x) = 0.66052 0.25134
# Poissons Ratio (y) = 0.29454 0.44105
# Poissons Ratio (z) = 0.07875 0.30990
#
# Static dielectric constant tensor:
#      x y z
#    x 1.686210 0.000000 0.000000 
#    y 0.000000 1.615110 0.000000 
#    z 0.000000 0.000000 1.694550 
# 
# From -- ./inp_files/29837.got.cif
#   From: 2010.05.17/outbox.cif.g08.bks.cpg/sg68_15_cif.got.tgz:29837.got - 2010.06.03 18:57:09.
