data_PCOD9506078
_publ_section_title
;
Structure prediction by ZEFSAII (Michael W. Deem and Ramdas Pophale) SiO2 
 PCOD9506078
Probable space group: C C C A
;
_chemical_formula_sum "Si O2"
_cell_formula_units_Z 80
_cell_length_a 15.919676
_cell_length_b 24.954009
_cell_length_c 8.770729
_cell_angle_alpha 90.000000
_cell_angle_beta 90.000000
_cell_angle_gamma 90.000000
_cell_volume 3484.257506
_symmetry_space_group_name_H-M "C C C A"
_symmetry_group_IT_number 68
_space_group.IT_coordinate_system_code '2'
_symmetry_cell_setting 'orthorhombic'
loop_
_space_group_symop_operation_xyz
x,y,z
-x,1/2-y,z
x,1/2-y,1/2-z
-x,y,1/2-z
-x,-y,-z
x,1/2+y,-z
-x,1/2+y,1/2+z
x,-y,1/2+z
1/2+x,1/2+y,z
1/2-x,-y,z
1/2+x,-y,1/2-z
1/2-x,1/2+y,1/2-z
1/2-x,1/2-y,-z
1/2+x,y,-z
1/2-x,y,1/2+z
1/2+x,1/2-y,1/2+z
loop_
_atom_site_type_symbol
_atom_site_label
_atom_site_fract_x
_atom_site_fract_y
_atom_site_fract_z
Si Si1 0.358172 0.963092 0.357406
Si Si2 0.626185 0.776218 0.908115
Si Si3 0.685371 0.679932 0.111789
Si Si4 0.319771 0.436753 0.991505
Si Si5 0.929714 0.645846 0.871707
O O1 0.334809 0.957090 0.180413
O O2 0.275883 0.945891 0.454224
O O3 0.426618 0.917929 0.393892
O O4 0.374728 0.024481 0.401280
O O5 0.601294 0.750000 0.750000
O O6 0.716656 0.805062 0.883677
O O7 0.639430 0.730086 0.034949
O O8 0.564424 0.820550 0.975796
O O9 0.666127 0.626650 0.013587
O O10 0.654579 0.664890 0.281876
O O11 0.000000 0.659415 0.750000
#
# Coordination Sequence:
#
# PCOD9506078 Si02
#       5
#    16  16  16  16  16
#     4  10  20  35  60  94 125 173 216 273 327 389
#     4  11  22  37  66  93 123 165 230 285 330 401
#     4  10  21  38  61  95 127 170 218 278 333 403
#     4  10  19  33  59  89 125 160 224 270 319 386
#     4  11  24  43  63  93 139 179 215 277 355 410
#
# _framework density 22.960415999999999
#
# number of rings (size 3 to 8) (size 9 to 14) (size 15 to 20)
#    0.000    1.600    2.000    5.400    2.800    3.200 
#    0.000    6.000    0.000    0.000    0.000    0.000 
#    0.000    0.000    0.000    0.000    0.000    0.200 
#
# Total GULP energy -223724.362131 kJ/mol
# GULP energy per Si atom -5593.109053 kJ/mol
# Density = 2.290816 g / cm^3
# Si number density = 22.960416 Si / 1000 Ang^3
#
#
#
# Elastic Constant Matrix: (Units=GPa)
#
#
# Indices 1 2 3 4 5 6 
#
# 1 36.6564 22.2091 16.6132 0.0000 0.0000 0.0000
# 2 22.2091 129.9162 27.2803 0.0000 0.0000 0.0000
# 3 16.6132 27.2803 67.7135 0.0000 0.0000 0.0000
# 4 0.0000 0.0000 0.0000 35.4180 0.0000 0.0000
# 5 0.0000 0.0000 0.0000 0.0000 16.8732 0.0000
# 6 0.0000 0.0000 0.0000 0.0000 0.0000 -3.3410
#
#
#
# Elastic Compliance Matrix: (Units=1/GPa)
#
#
# Indices 1 2 3 4 5 6 
#
# 1 0.032727 -0.004270 -0.006309 0.000000 0.000000 0.000000
# 2 -0.004270 0.008966 -0.002565 0.000000 0.000000 0.000000
# 3 -0.006309 -0.002565 0.017349 0.000000 0.000000 0.000000
# 4 0.000000 0.000000 0.000000 0.028234 0.000000 0.000000
# 5 0.000000 0.000000 0.000000 0.000000 0.059266 0.000000
# 6 0.000000 0.000000 0.000000 0.000000 0.000000 -0.299314
#
#
# Mechanical properties :
#
#
# Convention : Reuss Voigt Hill
#
# Bulk Modulus (GPa) = 30.52992 40.72123 35.62558
# Shear Modulus (GPa) = -43.26489 21.00226 -11.13131
#
# Velocity S-wave (km/s) = -4.34559 3.02771 -2.20422
# Velocity P-wave (km/s) = 3.44285 5.47692 3.01192
#
# Compressibility (1/GPa) = 0.03275475
#
# Stress axis : x y z
#
# Youngs Moduli (GPa) = 30.55604 111.53624 57.63949
#
# Poissons Ratio (x) = 0.47624 0.36366
# Poissons Ratio (y) = 0.13047 0.14782
# Poissons Ratio (z) = 0.19278 0.28604
#
# Static dielectric constant tensor:
#      x y z
#    x 1.901950 0.000000 0.000000 
#    y 0.000000 1.896600 0.000000 
#    z 0.000000 0.000000 1.827970 
# 
# From -- ./inp_files/6212.got.cif
#   From: 2010.05.17/outbox.cif.g08.bks.cpg/sg68_4_cif.got.tgz:6212.got - 2010.06.03 18:57:09.
