data_PCOD9506930
_publ_section_title
;
Structure prediction by ZEFSAII (Michael W. Deem and Ramdas Pophale) SiO2 
 PCOD9506930
Probable space group: C C C A
;
_chemical_formula_sum "Si O2"
_cell_formula_units_Z 80
_cell_length_a 14.205670
_cell_length_b 28.223327
_cell_length_c 8.802381
_cell_angle_alpha 90.000000
_cell_angle_beta 90.000000
_cell_angle_gamma 90.000000
_cell_volume 3529.149790
_symmetry_space_group_name_H-M "C C C A"
_symmetry_group_IT_number 68
_space_group.IT_coordinate_system_code '2'
_symmetry_cell_setting 'orthorhombic'
loop_
_space_group_symop_operation_xyz
x,y,z
-x,1/2-y,z
x,1/2-y,1/2-z
-x,y,1/2-z
-x,-y,-z
x,1/2+y,-z
-x,1/2+y,1/2+z
x,-y,1/2+z
1/2+x,1/2+y,z
1/2-x,-y,z
1/2+x,-y,1/2-z
1/2-x,1/2+y,1/2-z
1/2-x,1/2-y,-z
1/2+x,y,-z
1/2-x,y,1/2+z
1/2+x,1/2-y,1/2+z
loop_
_atom_site_type_symbol
_atom_site_label
_atom_site_fract_x
_atom_site_fract_y
_atom_site_fract_z
Si Si1 0.857519 0.662383 0.080582
Si Si2 0.608474 0.124533 0.755583
Si Si3 0.750000 0.500000 0.953147
Si Si4 0.207405 0.932029 0.200161
Si Si5 0.949212 0.296243 0.007018
Si Si6 0.677002 0.250000 0.250000
O O1 0.846433 0.616814 0.185630
O O2 0.790786 0.705035 0.143614
O O3 0.849386 0.645116 0.904268
O O4 0.964086 0.679852 0.079756
O O5 0.500000 0.106204 0.750000
O O6 0.682989 0.084964 0.806407
O O7 0.595273 0.167901 0.873347
O O8 0.806374 0.463854 0.847128
O O9 0.811986 0.533547 0.059440
O O10 0.000000 0.250000 0.079655
O O11 0.878532 0.278479 0.879590
#
# Coordination Sequence:
#
# PCOD9506930 Si02
#       6
#    16  16   8  16  16   8
#     4  10  20  37  60  91 125 163 208 243 307 377
#     4  10  22  39  64  90 130 164 208 259 313 370
#     4  10  24  42  72  84 122 158 210 268 340 358
#     4  11  22  44  66  92 118 165 208 267 317 388
#     4   9  19  37  60  89 129 173 204 248 307 372
#     4  10  21  36  60  98 135 172 209 254 310 368
#
# _framework density 22.668348999999999
#
# number of rings (size 3 to 8) (size 9 to 14) (size 15 to 20)
#    0.000    2.000    2.000    2.700    2.800    9.200 
#    0.000   12.000    0.000    0.000    0.000    0.000 
#    0.000    0.000    0.000    0.000    0.000    0.000 
#
# Total GULP energy -222958.873611 kJ/mol
# GULP energy per Si atom -5573.971840 kJ/mol
# Density = 2.261675 g / cm^3
# Si number density = 22.668349 Si / 1000 Ang^3
#
#
#
# Elastic Constant Matrix: (Units=GPa)
#
#
# Indices 1 2 3 4 5 6 
#
# 1 69.5388 29.6593 1.2185 0.0000 0.0000 0.0000
# 2 29.6593 151.6774 40.1034 0.0000 0.0000 0.0000
# 3 1.2185 40.1034 105.7849 0.0000 0.0000 0.0000
# 4 0.0000 0.0000 0.0000 49.2576 0.0000 0.0000
# 5 0.0000 0.0000 0.0000 0.0000 241.7486 0.0000
# 6 0.0000 0.0000 0.0000 0.0000 0.0000 37.3133
#
#
#
# Elastic Compliance Matrix: (Units=1/GPa)
#
#
# Indices 1 2 3 4 5 6 
#
# 1 0.015803 -0.003381 0.001100 0.000000 0.000000 0.000000
# 2 -0.003381 0.008051 -0.003013 0.000000 0.000000 0.000000
# 3 0.001100 -0.003013 0.010583 0.000000 0.000000 0.000000
# 4 0.000000 0.000000 0.000000 0.020301 0.000000 0.000000
# 5 0.000000 0.000000 0.000000 0.000000 0.004137 0.000000
# 6 0.000000 0.000000 0.000000 0.000000 0.000000 0.026800
#
#
# Mechanical properties :
#
#
# Convention : Reuss Voigt Hill
#
# Bulk Modulus (GPa) = 41.93229 52.10704 47.01966
# Shear Modulus (GPa) = 47.97876 82.73191 65.35534
#
# Velocity S-wave (km/s) = 4.60559 6.04780 5.37528
# Velocity P-wave (km/s) = 6.84254 8.47375 7.70145
#
# Compressibility (1/GPa) = 0.02384797
#
# Stress axis : x y z
#
# Youngs Moduli (GPa) = 63.27832 124.21251 94.49328
#
# Poissons Ratio (x) = 0.41996 -0.10391
# Poissons Ratio (y) = 0.21394 0.28472
# Poissons Ratio (z) = -0.06959 0.37427
#
# Static dielectric constant tensor:
#      x y z
#    x 1.855110 0.000000 0.000000 
#    y 0.000000 1.880320 0.000000 
#    z 0.000000 0.000000 1.903440 
# 
# From -- ./inp_files/6299.got.cif
#   From: 2010.05.17/outbox.cif.g08.bks.cpg/sg68_4_cif.got.tgz:6299.got - 2010.06.03 18:57:09.
