data_PCOD9506502
_publ_section_title
;
Structure prediction by ZEFSAII (Michael W. Deem and Ramdas Pophale) SiO2 
 PCOD9506502
Probable space group: C C C A
;
_chemical_formula_sum "Si O2"
_cell_formula_units_Z 84
_cell_length_a 8.266704
_cell_length_b 24.905481
_cell_length_c 21.307789
_cell_angle_alpha 90.000000
_cell_angle_beta 90.000000
_cell_angle_gamma 90.000000
_cell_volume 4386.980547
_symmetry_space_group_name_H-M "C C C A"
_symmetry_group_IT_number 68
_space_group.IT_coordinate_system_code '2'
_symmetry_cell_setting 'orthorhombic'
loop_
_space_group_symop_operation_xyz
x,y,z
-x,1/2-y,z
x,1/2-y,1/2-z
-x,y,1/2-z
-x,-y,-z
x,1/2+y,-z
-x,1/2+y,1/2+z
x,-y,1/2+z
1/2+x,1/2+y,z
1/2-x,-y,z
1/2+x,-y,1/2-z
1/2-x,1/2+y,1/2-z
1/2-x,1/2-y,-z
1/2+x,y,-z
1/2-x,y,1/2+z
1/2+x,1/2-y,1/2+z
loop_
_atom_site_type_symbol
_atom_site_label
_atom_site_fract_x
_atom_site_fract_y
_atom_site_fract_z
Si Si1 0.000000 0.423685 0.750000
Si Si2 0.000000 0.750000 0.250000
Si Si3 0.595071 0.157598 0.160217
Si Si4 0.059960 0.189353 0.090696
Si Si5 0.562858 0.100640 0.678433
Si Si6 0.750000 0.500000 0.310958
Si Si7 0.576060 0.191157 0.461984
O O1 0.029782 0.383659 0.807424
O O2 0.852022 0.460718 0.767416
O O3 0.906808 0.788233 0.201321
O O4 0.770406 0.133284 0.170356
O O5 0.537291 0.163250 0.089484
O O6 0.241454 0.194040 0.063159
O O7 0.000000 0.250000 0.111192
O O8 0.055930 0.140805 0.140687
O O9 0.943702 0.171009 0.032998
O O10 0.500000 0.095796 0.750000
O O11 0.619055 0.040239 0.656155
O O12 0.500000 0.250000 0.465901
#
# Coordination Sequence:
#
# PCOD9506502 Si02
#       7
#     8   4  16  16  16   8  16
#     4   9  20  33  58  82 113 148 201 246 304 358
#     4  10  20  32  54  84 128 160 194 244 306 364
#     4  10  21  34  57  87 121 160 201 250 303 370
#     4  11  24  38  61  91 125 169 214 256 321 389
#     4  11  24  39  62  92 124 162 209 270 318 377
#     4  10  20  40  60  84 122 156 212 256 320 368
#     4  11  21  39  61  84 130 174 210 249 310 397
#
# _framework density 19.147566000000001
#
# number of rings (size 3 to 8) (size 9 to 14) (size 15 to 20)
#    0.000    1.524    1.905    4.571    8.000    0.381 
#    0.000    0.000    0.000   11.429    0.000    0.000 
#    0.000    0.000    0.000    0.000    0.000    0.000 
#
# Total GULP energy -233815.763948 kJ/mol
# GULP energy per Si atom -5567.041999 kJ/mol
# Density = 1.910399 g / cm^3
# Si number density = 19.147566 Si / 1000 Ang^3
#
#
#
# Elastic Constant Matrix: (Units=GPa)
#
#
# Indices 1 2 3 4 5 6 
#
# 1 84.9329 20.0501 2.6024 0.0000 0.0000 0.0000
# 2 20.0501 92.5846 39.2622 0.0000 0.0000 0.0000
# 3 2.6024 39.2622 69.9152 0.0000 0.0000 0.0000
# 4 0.0000 0.0000 0.0000 18.1183 0.0000 0.0000
# 5 0.0000 0.0000 0.0000 0.0000 21.5087 0.0000
# 6 0.0000 0.0000 0.0000 0.0000 0.0000 33.5823
#
#
#
# Elastic Compliance Matrix: (Units=1/GPa)
#
#
# Indices 1 2 3 4 5 6 
#
# 1 0.012510 -0.003297 0.001386 0.000000 0.000000 0.000000
# 2 -0.003297 0.015046 -0.008327 0.000000 0.000000 0.000000
# 3 0.001386 -0.008327 0.018927 0.000000 0.000000 0.000000
# 4 0.000000 0.000000 0.000000 0.055193 0.000000 0.000000
# 5 0.000000 0.000000 0.000000 0.000000 0.046493 0.000000
# 6 0.000000 0.000000 0.000000 0.000000 0.000000 0.029778
#
#
# Mechanical properties :
#
#
# Convention : Reuss Voigt Hill
#
# Bulk Modulus (GPa) = 38.44991 41.25134 39.85063
# Shear Modulus (GPa) = 24.14397 27.00973 25.57685
#
# Velocity S-wave (km/s) = 3.55483 3.75988 3.65879
# Velocity P-wave (km/s) = 6.08058 6.35922 6.22146
#
# Compressibility (1/GPa) = 0.02600786
#
# Stress axis : x y z
#
# Youngs Moduli (GPa) = 79.93724 66.46315 52.83334
#
# Poissons Ratio (x) = 0.21911 -0.07321
# Poissons Ratio (y) = 0.26353 0.43992
# Poissons Ratio (z) = -0.11077 0.55341
#
# Static dielectric constant tensor:
#      x y z
#    x 1.678270 0.000000 0.000000 
#    y 0.000000 1.735680 0.000000 
#    z 0.000000 0.000000 1.750460 
# 
# From -- ./inp_files/36436.got.cif
#   From: 2010.05.17/outbox.cif.g08.bks.cpg/sg68_19_cif.got.tgz:36436.got - 2010.06.03 18:57:09.
