data_PCOD9506315
_publ_section_title
;
Structure prediction by ZEFSAII (Michael W. Deem and Ramdas Pophale) SiO2 
 PCOD9506315
Probable space group: C C C A
;
_chemical_formula_sum "Si O2"
_cell_formula_units_Z 92
_cell_length_a 12.679459
_cell_length_b 18.693857
_cell_length_c 22.779927
_cell_angle_alpha 90.000000
_cell_angle_beta 90.000000
_cell_angle_gamma 90.000000
_cell_volume 5399.480386
_symmetry_space_group_name_H-M "C C C A"
_symmetry_group_IT_number 68
_space_group.IT_coordinate_system_code '2'
_symmetry_cell_setting 'orthorhombic'
loop_
_space_group_symop_operation_xyz
x,y,z
-x,1/2-y,z
x,1/2-y,1/2-z
-x,y,1/2-z
-x,-y,-z
x,1/2+y,-z
-x,1/2+y,1/2+z
x,-y,1/2+z
1/2+x,1/2+y,z
1/2-x,-y,z
1/2+x,-y,1/2-z
1/2-x,1/2+y,1/2-z
1/2-x,1/2-y,-z
1/2+x,y,-z
1/2-x,y,1/2+z
1/2+x,1/2-y,1/2+z
loop_
_atom_site_type_symbol
_atom_site_label
_atom_site_fract_x
_atom_site_fract_y
_atom_site_fract_z
Si Si1 0.037194 0.607425 0.012618
Si Si2 0.125840 0.486964 0.927702
Si Si3 0.500000 0.750000 0.053974
Si Si4 0.886741 0.160221 0.151472
Si Si5 0.312486 0.572645 0.619948
Si Si6 0.000000 0.250000 0.250000
Si Si7 0.490101 0.010722 0.819658
O O1 0.122395 0.598660 0.064052
O O2 0.924221 0.582656 0.039933
O O3 0.067305 0.551678 0.961492
O O4 0.040660 0.686131 0.986445
O O5 0.250000 0.500000 0.933340
O O6 0.089179 0.487292 0.859658
O O7 0.416533 0.711072 0.097010
O O8 0.768224 0.131136 0.144753
O O9 0.923519 0.202936 0.208982
O O10 0.954792 0.087365 0.154337
O O11 0.250000 0.500000 0.602757
O O12 0.397336 0.545733 0.667210
O O13 0.500000 0.017358 0.750000
#
# Coordination Sequence:
#
# PCOD9506315 Si02
#       7
#    16  16   8  16  16   4  16
#     4  10  21  37  55  82 117 145 185 231 275 346
#     4  10  21  36  58  83 111 148 187 234 284 331
#     4  11  22  35  54  82 115 150 183 230 280 346
#     4  10  20  36  55  84 113 147 185 227 288 333
#     4   9  20  36  60  82 106 149 185 227 288 334
#     4  10  20  36  56  76 122 140 182 250 270 340
#     4  10  19  37  58  83 111 139 192 239 275 335
#
# _framework density 17.038677
#
# number of rings (size 3 to 8) (size 9 to 14) (size 15 to 20)
#    0.000    2.087    2.609    0.522    4.870    2.783 
#    0.000    0.000    3.826    0.000    0.000    0.000 
#    0.000    0.000    0.000    0.000    0.000    0.000 
#
# Total GULP energy -256336.758097 kJ/mol
# GULP energy per Si atom -5572.538220 kJ/mol
# Density = 1.699990 g / cm^3
# Si number density = 17.038677 Si / 1000 Ang^3
#
#
#
# Elastic Constant Matrix: (Units=GPa)
#
#
# Indices 1 2 3 4 5 6 
#
# 1 117.1762 44.7747 57.4824 0.0000 0.0000 0.0000
# 2 44.7747 97.8045 47.1972 0.0000 0.0000 0.0000
# 3 57.4824 47.1972 111.9254 0.0000 0.0000 0.0000
# 4 0.0000 0.0000 0.0000 28.3542 0.0000 0.0000
# 5 0.0000 0.0000 0.0000 0.0000 7.5617 0.0000
# 6 0.0000 0.0000 0.0000 0.0000 0.0000 24.2052
#
#
#
# Elastic Compliance Matrix: (Units=1/GPa)
#
#
# Indices 1 2 3 4 5 6 
#
# 1 0.012159 -0.003205 -0.004893 0.000000 0.000000 0.000000
# 2 -0.003205 0.013682 -0.004123 0.000000 0.000000 0.000000
# 3 -0.004893 -0.004123 0.013186 0.000000 0.000000 0.000000
# 4 0.000000 0.000000 0.000000 0.035268 0.000000 0.000000
# 5 0.000000 0.000000 0.000000 0.000000 0.132246 0.000000
# 6 0.000000 0.000000 0.000000 0.000000 0.000000 0.041313
#
#
# Mechanical properties :
#
#
# Convention : Reuss Voigt Hill
#
# Bulk Modulus (GPa) = 68.56845 69.53497 69.05171
# Shear Modulus (GPa) = 18.04018 23.85433 20.94725
#
# Velocity S-wave (km/s) = 3.25742 3.74573 3.51008
# Velocity P-wave (km/s) = 7.38091 7.72049 7.55261
#
# Compressibility (1/GPa) = 0.01458397
#
# Stress axis : x y z
#
# Youngs Moduli (GPa) = 82.24131 73.09124 75.83677
#
# Poissons Ratio (x) = 0.23427 0.37108
# Poissons Ratio (y) = 0.26360 0.31269
# Poissons Ratio (z) = 0.40242 0.30137
#
# Static dielectric constant tensor:
#      x y z
#    x 1.580550 0.000000 0.000000 
#    y 0.000000 1.567420 0.000000 
#    z 0.000000 0.000000 1.586960 
# 
# From -- ./inp_files/38747.got.cif
#   From: 2010.05.17/outbox.cif.g08.bks.cpg/sg68_20_cif.got.tgz:38747.got - 2010.06.03 18:57:09.
