data_PCOD9506690
_publ_section_title
;
Structure prediction by ZEFSAII (Michael W. Deem and Ramdas Pophale) SiO2 
 PCOD9506690
Probable space group: C C C A
;
_chemical_formula_sum "Si O2"
_cell_formula_units_Z 80
_cell_length_a 8.840150
_cell_length_b 15.014626
_cell_length_c 30.078654
_cell_angle_alpha 90.000000
_cell_angle_beta 90.000000
_cell_angle_gamma 90.000000
_cell_volume 3992.386248
_symmetry_space_group_name_H-M "C C C A"
_symmetry_group_IT_number 68
_space_group.IT_coordinate_system_code '2'
_symmetry_cell_setting 'orthorhombic'
loop_
_space_group_symop_operation_xyz
x,y,z
-x,1/2-y,z
x,1/2-y,1/2-z
-x,y,1/2-z
-x,-y,-z
x,1/2+y,-z
-x,1/2+y,1/2+z
x,-y,1/2+z
1/2+x,1/2+y,z
1/2-x,-y,z
1/2+x,-y,1/2-z
1/2-x,1/2+y,1/2-z
1/2-x,1/2-y,-z
1/2+x,y,-z
1/2-x,y,1/2+z
1/2+x,1/2-y,1/2+z
loop_
_atom_site_type_symbol
_atom_site_label
_atom_site_fract_x
_atom_site_fract_y
_atom_site_fract_z
Si Si1 0.614550 0.665362 0.303637
Si Si2 0.323749 0.598107 0.881256
Si Si3 0.317963 0.250719 0.048881
Si Si4 0.686605 0.099282 0.116973
Si Si5 0.684570 0.904434 0.289106
O O1 0.500000 0.750000 0.308989
O O2 0.737055 0.648964 0.341111
O O3 0.490243 0.585931 0.303934
O O4 0.686521 0.655726 0.254783
O O5 0.250000 0.500000 0.887203
O O6 0.274564 0.666649 0.919808
O O7 0.505162 0.595071 0.880666
O O8 0.271347 0.630527 0.832410
O O9 0.500000 0.250000 0.045851
O O10 0.271810 0.340370 0.074620
O O11 0.250000 0.250000 0.000000
O O12 0.750000 0.000000 0.114160
O O13 0.750000 0.000000 0.277394
#
# Coordination Sequence:
#
# PCOD9506690 Si02
#       5
#    16  16  16  16  16
#     4  11  23  39  60  89 125 168 213 254 308 377
#     4  10  22  41  64  93 128 165 208 260 319 381
#     4  10  24  43  63  89 122 161 208 261 317 379
#     4  11  23  40  64  95 126 163 211 260 316 381
#     4  10  20  35  58  88 121 160 203 250 303 364
#
# _framework density 20.038141
#
# number of rings (size 3 to 8) (size 9 to 14) (size 15 to 20)
#    0.000    1.600    0.000    5.400    0.000    8.800 
#    0.000    4.000    0.000   10.800    0.000    0.000 
#    0.000    0.000    0.000    0.000    0.000    0.000 
#
# Total GULP energy -223309.007112 kJ/mol
# GULP energy per Si atom -5582.725178 kJ/mol
# Density = 1.999253 g / cm^3
# Si number density = 20.038141 Si / 1000 Ang^3
#
#
#
# Elastic Constant Matrix: (Units=GPa)
#
#
# Indices 1 2 3 4 5 6 
#
# 1 75.8943 53.7700 63.7808 0.0000 0.0000 0.0000
# 2 53.7700 150.6448 87.7293 0.0000 0.0000 0.0000
# 3 63.7808 87.7293 196.9686 0.0000 0.0000 0.0000
# 4 0.0000 0.0000 0.0000 30.9778 0.0000 0.0000
# 5 0.0000 0.0000 0.0000 0.0000 43.6762 0.0000
# 6 0.0000 0.0000 0.0000 0.0000 0.0000 32.8443
#
#
#
# Elastic Compliance Matrix: (Units=1/GPa)
#
#
# Indices 1 2 3 4 5 6 
#
# 1 0.020212 -0.004595 -0.004498 0.000000 0.000000 0.000000
# 2 -0.004595 0.010007 -0.002969 0.000000 0.000000 0.000000
# 3 -0.004498 -0.002969 0.007856 0.000000 0.000000 0.000000
# 4 0.000000 0.000000 0.000000 0.032281 0.000000 0.000000
# 5 0.000000 0.000000 0.000000 0.000000 0.022896 0.000000
# 6 0.000000 0.000000 0.000000 0.000000 0.000000 0.030447
#
#
# Mechanical properties :
#
#
# Convention : Reuss Voigt Hill
#
# Bulk Modulus (GPa) = 71.68224 92.67422 82.17823
# Shear Modulus (GPa) = 32.79243 36.04815 34.42029
#
# Velocity S-wave (km/s) = 4.04976 4.24604 4.14906
# Velocity P-wave (km/s) = 7.59723 8.38974 8.00330
#
# Compressibility (1/GPa) = 0.01395046
#
# Stress axis : x y z
#
# Youngs Moduli (GPa) = 49.47598 99.92618 127.28805
#
# Poissons Ratio (x) = 0.45912 0.57260
# Poissons Ratio (y) = 0.22732 0.37798
# Poissons Ratio (z) = 0.22256 0.29673
#
# Static dielectric constant tensor:
#      x y z
#    x 1.708830 0.000000 0.000000 
#    y 0.000000 1.786830 0.000000 
#    z 0.000000 0.000000 1.699150 
# 
# From -- ./inp_files/49085.got.cif
#   From: 2010.05.17/outbox.cif.g08.bks.cpg/sg68_25_cif.got.tgz:49085.got - 2010.06.03 18:57:09.
