data_PCOD9506740
_publ_section_title
;
Structure prediction by ZEFSAII (Michael W. Deem and Ramdas Pophale) SiO2 
 PCOD9506740
Probable space group: C C C A
;
_chemical_formula_sum "Si O2"
_cell_formula_units_Z 76
_cell_length_a 5.155603
_cell_length_b 29.574324
_cell_length_c 32.057047
_cell_angle_alpha 90.000000
_cell_angle_beta 90.000000
_cell_angle_gamma 90.000000
_cell_volume 4887.849307
_symmetry_space_group_name_H-M "C C C A"
_symmetry_group_IT_number 68
_space_group.IT_coordinate_system_code '2'
_symmetry_cell_setting 'orthorhombic'
loop_
_space_group_symop_operation_xyz
x,y,z
-x,1/2-y,z
x,1/2-y,1/2-z
-x,y,1/2-z
-x,-y,-z
x,1/2+y,-z
-x,1/2+y,1/2+z
x,-y,1/2+z
1/2+x,1/2+y,z
1/2-x,-y,z
1/2+x,-y,1/2-z
1/2-x,1/2+y,1/2-z
1/2-x,1/2-y,-z
1/2+x,y,-z
1/2-x,y,1/2+z
1/2+x,1/2-y,1/2+z
loop_
_atom_site_type_symbol
_atom_site_label
_atom_site_fract_x
_atom_site_fract_y
_atom_site_fract_z
Si Si1 0.658004 0.084342 0.832490
Si Si2 0.231567 0.445228 0.523597
Si Si3 0.833443 0.447326 0.880178
Si Si4 0.739677 0.662314 0.723379
Si Si5 0.500000 0.470595 0.750000
Si Si6 0.000000 0.250000 0.750000
O O1 0.396252 0.080841 0.858852
O O2 0.731602 0.135128 0.819090
O O3 0.598704 0.058582 0.789066
O O4 0.895535 0.061275 0.856940
O O5 0.250000 0.500000 0.521420
O O6 0.512025 0.429147 0.508483
O O7 0.154467 0.435049 0.570981
O O8 0.750000 0.500000 0.877026
O O9 0.500000 0.641720 0.750000
O O10 0.667839 0.715435 0.722159
O O11 0.000000 0.657679 0.750000
O O12 0.750000 0.500000 0.763429
#
# Coordination Sequence:
#
# PCOD9506740 Si02
#       6
#    16  16  16  16   8   4
#     4  12  22  34  47  68  98 132 167 212 244 283
#     4   9  17  31  50  67  88 122 166 209 249 292
#     4  11  22  34  47  71 100 133 172 210 248 283
#     4  10  20  36  52  69  92 121 168 202 248 293
#     4  12  24  33  46  61  92 139 184 205 226 268
#     4   8  22  34  58  72  86 120 174 202 250 300
#
# _framework density 15.548761000000001
#
# number of rings (size 3 to 8) (size 9 to 14) (size 15 to 20)
#    0.632    0.842    1.053    6.632    1.474    3.368 
#    0.000    0.000    0.000    0.000    0.000    0.000 
#    0.000    0.000    0.000   18.947    0.000    0.000 
#
# Total GULP energy -211920.302262 kJ/mol
# GULP energy per Si atom -5576.850060 kJ/mol
# Density = 1.551337 g / cm^3
# Si number density = 15.548761 Si / 1000 Ang^3
#
#
#
# Elastic Constant Matrix: (Units=GPa)
#
#
# Indices 1 2 3 4 5 6 
#
# 1 109.5970 9.0333 38.0345 0.0000 0.0000 0.0000
# 2 9.0333 53.2554 20.6577 0.0000 0.0000 0.0000
# 3 38.0345 20.6577 92.4178 0.0000 0.0000 0.0000
# 4 0.0000 0.0000 0.0000 9.8963 0.0000 0.0000
# 5 0.0000 0.0000 0.0000 0.0000 27.0798 0.0000
# 6 0.0000 0.0000 0.0000 0.0000 0.0000 -13.9372
#
#
#
# Elastic Compliance Matrix: (Units=1/GPa)
#
#
# Indices 1 2 3 4 5 6 
#
# 1 0.010645 -0.000116 -0.004355 0.000000 0.000000 0.000000
# 2 -0.000116 0.020561 -0.004548 0.000000 0.000000 0.000000
# 3 -0.004355 -0.004548 0.013629 0.000000 0.000000 0.000000
# 4 0.000000 0.000000 0.000000 0.101048 0.000000 0.000000
# 5 0.000000 0.000000 0.000000 0.000000 0.036928 0.000000
# 6 0.000000 0.000000 0.000000 0.000000 0.000000 -0.071750
#
#
# Mechanical properties :
#
#
# Convention : Reuss Voigt Hill
#
# Bulk Modulus (GPa) = 37.31759 43.41346 40.36553
# Shear Modulus (GPa) = 36.22332 17.11077 26.66705
#
# Velocity S-wave (km/s) = 4.83189 3.32092 4.14582
# Velocity P-wave (km/s) = 7.42846 6.53346 6.99529
#
# Compressibility (1/GPa) = 0.02679701
#
# Stress axis : x y z
#
# Youngs Moduli (GPa) = 93.93811 48.63491 73.37099
#
# Poissons Ratio (x) = 0.00566 0.31954
# Poissons Ratio (y) = 0.01093 0.33370
# Poissons Ratio (z) = 0.40911 0.22120
#
# Static dielectric constant tensor:
#      x y z
#    x 1.535690 0.000000 0.000000 
#    y 0.000000 1.531570 0.000000 
#    z 0.000000 0.000000 1.520210 
# 
# From -- ./inp_files/53430.got.cif
#   From: 2010.05.17/outbox.cif.g08.bks.cpg/sg68_27_cif.got.tgz:53430.got - 2010.06.03 18:57:09.
