data_PCOD9506159
_publ_section_title
;
Structure prediction by ZEFSAII (Michael W. Deem and Ramdas Pophale) SiO2 
 PCOD9506159
Probable space group: C C C A
;
_chemical_formula_sum "Si O2"
_cell_formula_units_Z 128
_cell_length_a 16.607630
_cell_length_b 18.905489
_cell_length_c 19.357898
_cell_angle_alpha 90.000000
_cell_angle_beta 90.000000
_cell_angle_gamma 90.000000
_cell_volume 6077.903115
_symmetry_space_group_name_H-M "C C C A"
_symmetry_group_IT_number 68
_space_group.IT_coordinate_system_code '2'
_symmetry_cell_setting 'orthorhombic'
loop_
_space_group_symop_operation_xyz
x,y,z
-x,1/2-y,z
x,1/2-y,1/2-z
-x,y,1/2-z
-x,-y,-z
x,1/2+y,-z
-x,1/2+y,1/2+z
x,-y,1/2+z
1/2+x,1/2+y,z
1/2-x,-y,z
1/2+x,-y,1/2-z
1/2-x,1/2+y,1/2-z
1/2-x,1/2-y,-z
1/2+x,y,-z
1/2-x,y,1/2+z
1/2+x,1/2-y,1/2+z
loop_
_atom_site_type_symbol
_atom_site_label
_atom_site_fract_x
_atom_site_fract_y
_atom_site_fract_z
Si Si1 0.340780 0.803351 0.886176
Si Si2 0.058088 0.942337 0.071839
Si Si3 0.460889 0.172920 0.509246
Si Si4 0.288090 0.171167 0.778590
Si Si5 0.096614 0.551547 0.749960
Si Si6 0.799670 0.140912 0.863252
Si Si7 0.634844 0.919544 0.405742
Si Si8 0.562158 0.416655 0.311803
O O1 0.381828 0.824785 0.958651
O O2 0.256570 0.828614 0.852507
O O3 0.328874 0.719517 0.883178
O O4 0.402979 0.841292 0.833841
O O5 0.124237 0.906232 0.120411
O O6 0.026305 0.884646 0.017093
O O7 0.981925 0.952048 0.122233
O O8 0.100183 0.015493 0.047750
O O9 0.500000 0.250000 0.509473
O O10 0.424785 0.145692 0.580878
O O11 0.307870 0.250000 0.750000
O O12 0.363780 0.120075 0.783321
O O13 0.230149 0.143354 0.716133
O O14 0.124953 0.552391 0.828628
O O15 0.000000 0.554850 0.750000
O O16 0.878303 0.478099 0.785940
O O17 0.725686 0.109560 0.908738
O O18 0.500000 0.404702 0.250000
#
# Coordination Sequence:
#
# PCOD9506159 Si02
#       8
#    16  16  16  16  16  16  16  16
#     4  10  21  40  61  96 131 164 209 269 333 390
#     4  11  20  40  66  92 122 167 218 266 323 391
#     4  11  24  44  66  93 128 173 222 277 325 393
#     4   9  20  36  59  92 129 167 208 264 326 397
#     4  10  20  40  59  92 127 168 219 271 331 384
#     4  10  21  39  64  93 127 167 209 261 328 398
#     4  11  23  41  66  91 127 175 222 263 322 397
#     4  10  19  34  64  94 127 164 210 271 335 387
#
# _framework density 21.059895999999998
#
# number of rings (size 3 to 8) (size 9 to 14) (size 15 to 20)
#    0.000    1.750    3.750    1.500    0.000    1.250 
#    6.750    0.625    5.500    0.000    0.000    0.000 
#    0.000    0.000    0.000    0.000    0.000    0.000 
#
# Total GULP energy -356638.701766 kJ/mol
# GULP energy per Si atom -5572.479715 kJ/mol
# Density = 2.101196 g / cm^3
# Si number density = 21.059896 Si / 1000 Ang^3
#
#
#
# Elastic Constant Matrix: (Units=GPa)
#
#
# Indices 1 2 3 4 5 6 
#
# 1 59.5707 63.2469 9.4899 0.0000 0.0000 0.0000
# 2 63.2469 129.5872 24.7755 0.0000 0.0000 0.0000
# 3 9.4899 24.7755 25.8070 0.0000 0.0000 0.0000
# 4 0.0000 0.0000 0.0000 -23.5910 0.0000 0.0000
# 5 0.0000 0.0000 0.0000 0.0000 -3.2080 0.0000
# 6 0.0000 0.0000 0.0000 0.0000 0.0000 58.8286
#
#
#
# Elastic Compliance Matrix: (Units=1/GPa)
#
#
# Indices 1 2 3 4 5 6 
#
# 1 0.035235 -0.018029 0.004352 0.000000 0.000000 0.000000
# 2 -0.018029 0.018677 -0.011300 0.000000 0.000000 0.000000
# 3 0.004352 -0.011300 0.047998 0.000000 0.000000 0.000000
# 4 0.000000 0.000000 0.000000 -0.042389 0.000000 0.000000
# 5 0.000000 0.000000 0.000000 0.000000 -0.311719 0.000000
# 6 0.000000 0.000000 0.000000 0.000000 0.000000 0.016999
#
#
# Mechanical properties :
#
#
# Convention : Reuss Voigt Hill
#
# Bulk Modulus (GPa) = 19.24785 45.55439 32.40112
# Shear Modulus (GPa) = -29.77489 14.23609 -7.76940
#
# Velocity S-wave (km/s) = -3.76416 2.60278 -1.92281
# Velocity P-wave (km/s) = 3.11968 5.54170 3.23868
#
# Compressibility (1/GPa) = 0.05195385
#
# Stress axis : x y z
#
# Youngs Moduli (GPa) = 28.38079 53.54290 20.83426
#
# Poissons Ratio (x) = 0.96532 -0.09066
# Poissons Ratio (y) = 0.51168 0.23544
# Poissons Ratio (z) = -0.12350 0.60506
#
# Static dielectric constant tensor:
#      x y z
#    x 1.776170 0.000000 0.000000 
#    y 0.000000 1.804700 0.000000 
#    z 0.000000 0.000000 1.787120 
# 
# From -- ./inp_files/46208.got.cif
#   From: 2010.05.17/outbox.cif.g08.bks.cpg/sg68_24_cif.got.tgz:46208.got - 2010.06.03 18:57:09.
