data_PCOD9506943
_publ_section_title
;
Structure prediction by ZEFSAII (Michael W. Deem and Ramdas Pophale) SiO2 
 PCOD9506943
Probable space group: C C C A
;
_chemical_formula_sum "Si O2"
_cell_formula_units_Z 96
_cell_length_a 25.315110
_cell_length_b 8.471544
_cell_length_c 20.753723
_cell_angle_alpha 90.000000
_cell_angle_beta 90.000000
_cell_angle_gamma 90.000000
_cell_volume 4450.803343
_symmetry_space_group_name_H-M "C C C A"
_symmetry_group_IT_number 68
_space_group.IT_coordinate_system_code '2'
_symmetry_cell_setting 'orthorhombic'
loop_
_space_group_symop_operation_xyz
x,y,z
-x,1/2-y,z
x,1/2-y,1/2-z
-x,y,1/2-z
-x,-y,-z
x,1/2+y,-z
-x,1/2+y,1/2+z
x,-y,1/2+z
1/2+x,1/2+y,z
1/2-x,-y,z
1/2+x,-y,1/2-z
1/2-x,1/2+y,1/2-z
1/2-x,1/2-y,-z
1/2+x,y,-z
1/2-x,y,1/2+z
1/2+x,1/2-y,1/2+z
loop_
_atom_site_type_symbol
_atom_site_label
_atom_site_fract_x
_atom_site_fract_y
_atom_site_fract_z
Si Si1 0.100551 0.036624 0.422549
Si Si2 0.869616 0.644953 0.306925
Si Si3 0.803674 0.080062 0.281364
Si Si4 0.559012 0.285773 0.030831
Si Si5 0.853207 0.561278 0.105727
Si Si6 0.290142 0.114427 0.978058
O O1 0.095591 0.973971 0.349990
O O2 0.094646 0.870891 0.461876
O O3 0.059353 0.149596 0.458094
O O4 0.156903 0.120934 0.435606
O O5 0.895858 0.750000 0.250000
O O6 0.826369 0.538095 0.272383
O O7 0.844461 0.774074 0.355214
O O8 0.796145 0.250000 0.250000
O O9 0.750000 0.000000 0.305928
O O10 0.843807 0.073562 0.341761
O O11 0.500000 0.250000 0.052234
O O12 0.588643 0.413551 0.075805
O O13 0.813816 0.548212 0.045592
O O14 0.250000 0.000000 0.941876
O O15 0.250000 0.250000 0.000000
#
# Coordination Sequence:
#
# PCOD9506943 Si02
#       6
#    16  16  16  16  16  16
#     4  10  21  36  56  86 121 156 201 255 310 381
#     4   9  19  36  54  75 111 155 200 248 297 357
#     4  11  22  35  55  82 115 161 209 254 303 369
#     4  10  20  37  61  89 119 156 201 258 325 381
#     4   9  20  37  54  80 118 153 199 252 303 372
#     4  11  21  33  52  81 118 156 188 232 301 371
#
# _framework density 21.569139
#
# number of rings (size 3 to 8) (size 9 to 14) (size 15 to 20)
#    0.000    2.000    0.000    5.500    0.000    7.333 
#    0.000    0.000    0.000   32.000    0.000    4.667 
#    0.000    1.333    0.000    0.000    0.000    0.000 
#
# Total GULP energy -267432.535382 kJ/mol
# GULP energy per Si atom -5571.511154 kJ/mol
# Density = 2.152005 g / cm^3
# Si number density = 21.569139 Si / 1000 Ang^3
#
#
#
# Elastic Constant Matrix: (Units=GPa)
#
#
# Indices 1 2 3 4 5 6 
#
# 1 91.9117 36.0841 42.5741 0.0000 0.0000 0.0000
# 2 36.0841 65.1958 21.1441 0.0000 0.0000 0.0000
# 3 42.5741 21.1441 90.1738 0.0000 0.0000 0.0000
# 4 0.0000 0.0000 0.0000 40.7973 0.0000 0.0000
# 5 0.0000 0.0000 0.0000 0.0000 15.8367 0.0000
# 6 0.0000 0.0000 0.0000 0.0000 0.0000 17.5873
#
#
#
# Elastic Compliance Matrix: (Units=1/GPa)
#
#
# Indices 1 2 3 4 5 6 
#
# 1 0.016529 -0.007162 -0.006124 0.000000 0.000000 0.000000
# 2 -0.007162 0.019704 -0.001239 0.000000 0.000000 0.000000
# 3 -0.006124 -0.001239 0.014272 0.000000 0.000000 0.000000
# 4 0.000000 0.000000 0.000000 0.024511 0.000000 0.000000
# 5 0.000000 0.000000 0.000000 0.000000 0.063144 0.000000
# 6 0.000000 0.000000 0.000000 0.000000 0.000000 0.056859
#
#
# Mechanical properties :
#
#
# Convention : Reuss Voigt Hill
#
# Bulk Modulus (GPa) = 46.61108 49.65399 48.13253
# Shear Modulus (GPa) = 21.62434 24.67621 23.15027
#
# Velocity S-wave (km/s) = 3.16976 3.38605 3.27969
# Velocity P-wave (km/s) = 5.92060 6.19338 6.05852
#
# Compressibility (1/GPa) = 0.02145413
#
# Stress axis : x y z
#
# Youngs Moduli (GPa) = 60.50133 50.75082 70.06863
#
# Poissons Ratio (x) = 0.36347 0.42913
# Poissons Ratio (y) = 0.43330 0.08681
# Poissons Ratio (z) = 0.37053 0.06288
#
# Static dielectric constant tensor:
#      x y z
#    x 1.777160 0.000000 0.000000 
#    y 0.000000 1.860990 0.000000 
#    z 0.000000 0.000000 1.838480 
# 
# From -- ./inp_files/41251.got.cif
#   From: 2010.05.17/outbox.cif.g08.bks.cpg/sg68_21_cif.got.tgz:41251.got - 2010.06.03 18:57:09.
