data_PCOD9506979
_publ_section_title
;
Structure prediction by ZEFSAII (Michael W. Deem and Ramdas Pophale) SiO2 
 PCOD9506979
Probable space group: C C C A
;
_chemical_formula_sum "Si O2"
_cell_formula_units_Z 68
_cell_length_a 4.924946
_cell_length_b 21.548204
_cell_length_c 27.481595
_cell_angle_alpha 90.000000
_cell_angle_beta 90.000000
_cell_angle_gamma 90.000000
_cell_volume 2916.449673
_symmetry_space_group_name_H-M "C C C A"
_symmetry_group_IT_number 68
_space_group.IT_coordinate_system_code '2'
_symmetry_cell_setting 'orthorhombic'
loop_
_space_group_symop_operation_xyz
x,y,z
-x,1/2-y,z
x,1/2-y,1/2-z
-x,y,1/2-z
-x,-y,-z
x,1/2+y,-z
-x,1/2+y,1/2+z
x,-y,1/2+z
1/2+x,1/2+y,z
1/2-x,-y,z
1/2+x,-y,1/2-z
1/2-x,1/2+y,1/2-z
1/2-x,1/2-y,-z
1/2+x,y,-z
1/2-x,y,1/2+z
1/2+x,1/2-y,1/2+z
loop_
_atom_site_type_symbol
_atom_site_label
_atom_site_fract_x
_atom_site_fract_y
_atom_site_fract_z
Si Si1 0.110990 0.326213 0.323797
Si Si2 0.697977 0.429469 0.967345
Si Si3 0.500000 0.250000 0.250000
Si Si4 0.779818 0.572066 0.289055
Si Si5 0.107949 0.855613 0.377047
O O1 0.286655 0.289099 0.283549
O O2 0.001506 0.390114 0.298085
O O3 0.306672 0.331343 0.370307
O O4 0.818451 0.310065 0.348360
O O5 0.750000 0.500000 0.948951
O O6 0.784270 0.378314 0.928250
O O7 0.390048 0.423624 0.985190
O O8 0.750000 0.500000 0.279853
O O9 0.906414 0.583675 0.342268
O O10 0.000000 0.595751 0.250000
#
# Coordination Sequence:
#
# PCOD9506979 Si02
#       5
#    16  16   4  16  16
#     4  10  27  43  67  94 133 190 241 313 359 410
#     4  10  20  37  65  99 139 188 233 292 370 453
#     4  12  28  54  74  96 142 192 282 314 346 440
#     4  10  25  40  64  98 147 193 237 286 367 458
#     4  10  23  43  61 101 137 183 245 286 372 425
#
# _framework density 23.316023000000001
#
# number of rings (size 3 to 8) (size 9 to 14) (size 15 to 20)
#    1.412    0.471    0.000    2.118    4.941    4.706 
#    0.000    0.588    0.000    0.000    0.000   16.471 
#    0.000    0.000    0.000    0.000    0.000    0.000 
#
# Total GULP energy -189321.518354 kJ/mol
# GULP energy per Si atom -5568.279952 kJ/mol
# Density = 2.326295 g / cm^3
# Si number density = 23.316023 Si / 1000 Ang^3
#
#
#
# Elastic Constant Matrix: (Units=GPa)
#
#
# Indices 1 2 3 4 5 6 
#
# 1 144.1809 45.1136 4.5173 0.0000 0.0000 0.0000
# 2 45.1136 108.5736 33.8916 0.0000 0.0000 0.0000
# 3 4.5173 33.8916 62.7316 0.0000 0.0000 0.0000
# 4 0.0000 0.0000 0.0000 28.1193 0.0000 0.0000
# 5 0.0000 0.0000 0.0000 0.0000 25.9330 0.0000
# 6 0.0000 0.0000 0.0000 0.0000 0.0000 35.0320
#
#
#
# Elastic Compliance Matrix: (Units=1/GPa)
#
#
# Indices 1 2 3 4 5 6 
#
# 1 0.008085 -0.003822 0.001483 0.000000 0.000000 0.000000
# 2 -0.003822 0.012886 -0.006686 0.000000 0.000000 0.000000
# 3 0.001483 -0.006686 0.019447 0.000000 0.000000 0.000000
# 4 0.000000 0.000000 0.000000 0.035563 0.000000 0.000000
# 5 0.000000 0.000000 0.000000 0.000000 0.038561 0.000000
# 6 0.000000 0.000000 0.000000 0.000000 0.000000 0.028545
#
#
# Mechanical properties :
#
#
# Convention : Reuss Voigt Hill
#
# Bulk Modulus (GPa) = 44.71132 53.61456 49.16294
# Shear Modulus (GPa) = 29.65703 33.28108 31.46906
#
# Velocity S-wave (km/s) = 3.57032 3.78218 3.67778
# Velocity P-wave (km/s) = 6.01782 6.48983 6.25827
#
# Compressibility (1/GPa) = 0.02236570
#
# Stress axis : x y z
#
# Youngs Moduli (GPa) = 123.68136 77.60471 51.42278
#
# Poissons Ratio (x) = 0.29664 -0.07625
# Poissons Ratio (y) = 0.47276 0.34384
# Poissons Ratio (z) = -0.18341 0.51890
#
# Static dielectric constant tensor:
#      x y z
#    x 1.866770 0.000000 0.000000 
#    y 0.000000 2.032560 0.000000 
#    z 0.000000 0.000000 1.883620 
# 
# From -- ./inp_files/42250.got.cif
#   From: 2010.05.17/outbox.cif.g08.bks.cpg/sg68_22_cif.got.tgz:42250.got - 2010.06.03 18:57:09.
