data_PCOD9506414
_publ_section_title
;
Structure prediction by ZEFSAII (Michael W. Deem and Ramdas Pophale) SiO2 
 PCOD9506414
Probable space group: C C C A
;
_chemical_formula_sum "Si O2"
_cell_formula_units_Z 116
_cell_length_a 13.959416
_cell_length_b 18.458228
_cell_length_c 23.773810
_cell_angle_alpha 90.000000
_cell_angle_beta 90.000000
_cell_angle_gamma 90.000000
_cell_volume 6125.704507
_symmetry_space_group_name_H-M "C C C A"
_symmetry_group_IT_number 68
_space_group.IT_coordinate_system_code '2'
_symmetry_cell_setting 'orthorhombic'
loop_
_space_group_symop_operation_xyz
x,y,z
-x,1/2-y,z
x,1/2-y,1/2-z
-x,y,1/2-z
-x,-y,-z
x,1/2+y,-z
-x,1/2+y,1/2+z
x,-y,1/2+z
1/2+x,1/2+y,z
1/2-x,-y,z
1/2+x,-y,1/2-z
1/2-x,1/2+y,1/2-z
1/2-x,1/2-y,-z
1/2+x,y,-z
1/2-x,y,1/2+z
1/2+x,1/2-y,1/2+z
loop_
_atom_site_type_symbol
_atom_site_label
_atom_site_fract_x
_atom_site_fract_y
_atom_site_fract_z
Si Si1 0.994842 0.482004 0.889250
Si Si2 0.847146 0.457666 0.189911
Si Si3 0.334026 0.443300 0.684883
Si Si4 0.500000 0.750000 0.250000
Si Si5 0.975213 0.624771 0.948269
Si Si6 0.557216 0.675950 0.934161
Si Si7 0.890552 0.312255 0.144482
Si Si8 0.216997 0.324033 0.096680
O O1 0.906433 0.517692 0.856749
O O2 0.003110 0.539918 0.940710
O O3 0.977766 0.398546 0.904113
O O4 0.080162 0.493409 0.845292
O O5 0.750000 0.500000 0.194300
O O6 0.878479 0.435351 0.253121
O O7 0.832256 0.385146 0.154498
O O8 0.250000 0.500000 0.690898
O O9 0.294212 0.372317 0.653545
O O10 0.430658 0.789101 0.205192
O O11 0.860521 0.639884 0.946683
O O12 0.018081 0.664684 0.893112
O O13 0.027409 0.660374 0.001267
O O14 0.500000 0.750000 0.917139
O O15 0.672797 0.680513 0.924202
O O16 0.826370 0.253540 0.113209
#
# Coordination Sequence:
#
# PCOD9506414 Si02
#       8
#    16  16  16   4  16  16  16  16
#     4  10  22  42  63  91 128 158 219 263 312 378
#     4  10  23  37  62  91 125 165 206 259 322 382
#     4  10  19  39  65  90 116 162 212 258 314 374
#     4  12  20  36  68 100 130 152 206 288 338 360
#     4  10  23  43  64  93 122 164 219 272 316 372
#     4  12  26  41  65  90 130 180 210 259 326 386
#     4  11  22  37  63  97 128 154 211 270 331 377
#     4  11  22  41  66  92 128 163 212 265 320 399
#
# _framework density 18.936596999999999
#
# number of rings (size 3 to 8) (size 9 to 14) (size 15 to 20)
#    0.000    1.379    2.759    2.483    5.793    2.207 
#    2.483    0.000    0.000    1.655    0.000    0.000 
#    0.000    0.000    0.000    0.000    0.000    0.000 
#
# Total GULP energy -323228.505026 kJ/mol
# GULP energy per Si atom -5572.905259 kJ/mol
# Density = 1.889350 g / cm^3
# Si number density = 18.936597 Si / 1000 Ang^3
#
#
#
# Elastic Constant Matrix: (Units=GPa)
#
#
# Indices 1 2 3 4 5 6 
#
# 1 117.5145 51.3930 51.5987 0.0000 0.0000 0.0000
# 2 51.3930 121.7966 36.8137 0.0000 0.0000 0.0000
# 3 51.5987 36.8137 88.3991 0.0000 0.0000 0.0000
# 4 0.0000 0.0000 0.0000 34.6678 0.0000 0.0000
# 5 0.0000 0.0000 0.0000 0.0000 15.6009 0.0000
# 6 0.0000 0.0000 0.0000 0.0000 0.0000 27.2790
#
#
#
# Elastic Compliance Matrix: (Units=1/GPa)
#
#
# Indices 1 2 3 4 5 6 
#
# 1 0.012659 -0.003556 -0.005908 0.000000 0.000000 0.000000
# 2 -0.003556 0.010391 -0.002252 0.000000 0.000000 0.000000
# 3 -0.005908 -0.002252 0.015699 0.000000 0.000000 0.000000
# 4 0.000000 0.000000 0.000000 0.028845 0.000000 0.000000
# 5 0.000000 0.000000 0.000000 0.000000 0.064099 0.000000
# 6 0.000000 0.000000 0.000000 0.000000 0.000000 0.036658
#
#
# Mechanical properties :
#
#
# Convention : Reuss Voigt Hill
#
# Bulk Modulus (GPa) = 65.28605 67.48010 66.38307
# Shear Modulus (GPa) = 25.39502 28.03653 26.71577
#
# Velocity S-wave (km/s) = 3.66601 3.85196 3.76014
# Velocity P-wave (km/s) = 7.24365 7.44954 7.34732
#
# Compressibility (1/GPa) = 0.01531721
#
# Stress axis : x y z
#
# Youngs Moduli (GPa) = 78.99639 96.23287 63.69906
#
# Poissons Ratio (x) = 0.34218 0.37635
# Poissons Ratio (y) = 0.28089 0.14345
# Poissons Ratio (z) = 0.46673 0.21672
#
# Static dielectric constant tensor:
#      x y z
#    x 1.587680 0.000000 0.000000 
#    y 0.000000 1.686430 0.000000 
#    z 0.000000 0.000000 1.697590 
# 
# From -- ./inp_files/45666.got.cif
#   From: 2010.05.17/outbox.cif.g08.bks.cpg/sg68_23_cif.got.tgz:45666.got - 2010.06.03 18:57:09.
