data_PCOD9506434
_publ_section_title
;
Structure prediction by ZEFSAII (Michael W. Deem and Ramdas Pophale) SiO2 
 PCOD9506434
Probable space group: C C C A
;
_chemical_formula_sum "Si O2"
_cell_formula_units_Z 72
_cell_length_a 10.802646
_cell_length_b 14.517108
_cell_length_c 18.839302
_cell_angle_alpha 90.000000
_cell_angle_beta 90.000000
_cell_angle_gamma 90.000000
_cell_volume 2954.439224
_symmetry_space_group_name_H-M "C C C A"
_symmetry_group_IT_number 68
_space_group.IT_coordinate_system_code '2'
_symmetry_cell_setting 'orthorhombic'
loop_
_space_group_symop_operation_xyz
x,y,z
-x,1/2-y,z
x,1/2-y,1/2-z
-x,y,1/2-z
-x,-y,-z
x,1/2+y,-z
-x,1/2+y,1/2+z
x,-y,1/2+z
1/2+x,1/2+y,z
1/2-x,-y,z
1/2+x,-y,1/2-z
1/2-x,1/2+y,1/2-z
1/2-x,1/2-y,-z
1/2+x,y,-z
1/2-x,y,1/2+z
1/2+x,1/2-y,1/2+z
loop_
_atom_site_type_symbol
_atom_site_label
_atom_site_fract_x
_atom_site_fract_y
_atom_site_fract_z
Si Si1 0.495030 0.537830 0.611209
Si Si2 0.386959 0.870077 0.298608
Si Si3 0.250000 0.500000 0.807986
Si Si4 0.296207 0.689990 0.606931
Si Si5 0.592077 0.828746 0.994191
O O1 0.433915 0.441310 0.638697
O O2 0.630955 0.531211 0.646541
O O3 0.392865 0.614207 0.634815
O O4 0.521836 0.580757 0.532384
O O5 0.500000 0.845192 0.250000
O O6 0.309139 0.791043 0.336023
O O7 0.296449 0.921981 0.245152
O O8 0.364731 0.778560 0.578128
O O9 0.216022 0.654477 0.539002
O O10 0.500000 0.750000 0.027157
#
# Coordination Sequence:
#
# PCOD9506434 Si02
#       5
#    16  16   8  16  16
#     4  10  20  39  63  89 121 162 208 263 319 376
#     4  10  20  37  63  89 125 157 203 265 315 374
#     4  10  20  38  60  88 124 156 202 264 308 374
#     4  10  19  40  65  87 126 164 207 257 323 383
#     4   9  21  40  63  89 123 163 208 264 316 381
#
# _framework density 24.370107999999998
#
# number of rings (size 3 to 8) (size 9 to 14) (size 15 to 20)
#    0.000    2.222    2.222    0.000    0.000    0.889 
#   28.000    1.111    9.778    0.000    0.000    0.000 
#    0.000    0.000    0.000    0.000    0.000    0.000 
#
# Total GULP energy -200715.258258 kJ/mol
# GULP energy per Si atom -5575.423841 kJ/mol
# Density = 2.431464 g / cm^3
# Si number density = 24.370108 Si / 1000 Ang^3
#
#
#
# Elastic Constant Matrix: (Units=GPa)
#
#
# Indices 1 2 3 4 5 6 
#
# 1 153.8623 47.0961 36.2895 0.0000 0.0000 0.0000
# 2 47.0961 103.2650 35.9922 0.0000 0.0000 0.0000
# 3 36.2895 35.9922 27.9217 0.0000 0.0000 0.0000
# 4 0.0000 0.0000 0.0000 17.9427 0.0000 0.0000
# 5 0.0000 0.0000 0.0000 0.0000 92.0649 0.0000
# 6 0.0000 0.0000 0.0000 0.0000 0.0000 30.0670
#
#
#
# Elastic Compliance Matrix: (Units=1/GPa)
#
#
# Indices 1 2 3 4 5 6 
#
# 1 0.009372 -0.000052 -0.012114 0.000000 0.000000 0.000000
# 2 -0.000052 0.017584 -0.022599 0.000000 0.000000 0.000000
# 3 -0.012114 -0.022599 0.080690 0.000000 0.000000 0.000000
# 4 0.000000 0.000000 0.000000 0.055733 0.000000 0.000000
# 5 0.000000 0.000000 0.000000 0.000000 0.010862 0.000000
# 6 0.000000 0.000000 0.000000 0.000000 0.000000 0.033259
#
#
# Mechanical properties :
#
#
# Convention : Reuss Voigt Hill
#
# Bulk Modulus (GPa) = 26.23559 58.20052 42.21806
# Shear Modulus (GPa) = 17.25709 39.05966 28.15837
#
# Velocity S-wave (km/s) = 2.66395 4.00780 3.40287
# Velocity P-wave (km/s) = 4.50011 6.73427 5.72719
#
# Compressibility (1/GPa) = 0.03811616
#
# Stress axis : x y z
#
# Youngs Moduli (GPa) = 106.69566 56.86859 12.39318
#
# Poissons Ratio (x) = 0.00298 0.15013
# Poissons Ratio (y) = 0.00558 0.28007
# Poissons Ratio (z) = 1.29249 1.28517
#
# Static dielectric constant tensor:
#      x y z
#    x 1.936400 0.000000 0.000000 
#    y 0.000000 1.961730 0.000000 
#    z 0.000000 0.000000 1.987770 
# 
# From -- ./inp_files/29398.got.cif
#   From: 2010.05.17/outbox.cif.g08.bks.cpg/sg68_15_cif.got.tgz:29398.got - 2010.06.03 18:57:09.
