data_PCOD9506668
_publ_section_title
;
Structure prediction by ZEFSAII (Michael W. Deem and Ramdas Pophale) SiO2 
 PCOD9506668
Probable space group: C C C A
;
_chemical_formula_sum "Si O2"
_cell_formula_units_Z 104
_cell_length_a 16.677678
_cell_length_b 12.881511
_cell_length_c 25.905268
_cell_angle_alpha 90.000000
_cell_angle_beta 90.000000
_cell_angle_gamma 90.000000
_cell_volume 5565.324383
_symmetry_space_group_name_H-M "C C C A"
_symmetry_group_IT_number 68
_space_group.IT_coordinate_system_code '2'
_symmetry_cell_setting 'orthorhombic'
loop_
_space_group_symop_operation_xyz
x,y,z
-x,1/2-y,z
x,1/2-y,1/2-z
-x,y,1/2-z
-x,-y,-z
x,1/2+y,-z
-x,1/2+y,1/2+z
x,-y,1/2+z
1/2+x,1/2+y,z
1/2-x,-y,z
1/2+x,-y,1/2-z
1/2-x,1/2+y,1/2-z
1/2-x,1/2-y,-z
1/2+x,y,-z
1/2-x,y,1/2+z
1/2+x,1/2-y,1/2+z
loop_
_atom_site_type_symbol
_atom_site_label
_atom_site_fract_x
_atom_site_fract_y
_atom_site_fract_z
Si Si1 0.790993 0.196685 0.304822
Si Si2 0.623294 0.565281 0.055882
Si Si3 0.250000 0.500000 0.860722
Si Si4 0.813970 0.915567 0.058538
Si Si5 0.045859 0.025667 0.404711
Si Si6 0.027809 0.131798 0.192919
Si Si7 0.673515 0.707611 0.410841
O O1 0.772741 0.250000 0.250000
O O2 0.736923 0.102809 0.326178
O O3 0.877061 0.139745 0.303039
O O4 0.802314 0.280526 0.350563
O O5 0.675454 0.510411 0.100087
O O6 0.531938 0.527452 0.058894
O O7 0.632089 0.686364 0.070989
O O8 0.661221 0.554586 0.999480
O O9 0.758381 0.813733 0.060741
O O10 0.750000 0.000000 0.079439
O O11 0.896690 0.925199 0.090367
O O12 0.107438 0.118680 0.418566
O O13 0.009076 0.055071 0.349091
O O14 0.000000 0.250000 0.180085
O O15 0.000000 0.105763 0.250000
#
# Coordination Sequence:
#
# PCOD9506668 Si02
#       7
#    16  16   8  16  16  16  16
#     4  11  20  37  58  82 112 143 188 237 280 343
#     4  11  19  37  58  74 112 151 195 226 271 346
#     4  10  22  34  58  84 108 154 188 230 290 340
#     4  10  22  34  51  85 116 147 178 232 288 331
#     4  11  19  34  55  84 112 137 189 236 279 335
#     4  11  17  31  56  82 107 134 177 234 292 314
#     4  10  20  35  56  80 114 142 185 239 289 325
#
# _framework density 18.687141
#
# number of rings (size 3 to 8) (size 9 to 14) (size 15 to 20)
#    0.000    1.385    6.923    1.385    0.000    0.000 
#    6.923    0.000    0.000    0.000    0.000    1.077 
#    0.000    0.000    0.000    0.000    0.000    0.000 
#
# Total GULP energy -289722.222850 kJ/mol
# GULP energy per Si atom -5571.581209 kJ/mol
# Density = 1.864461 g / cm^3
# Si number density = 18.687141 Si / 1000 Ang^3
#
#
#
# Elastic Constant Matrix: (Units=GPa)
#
#
# Indices 1 2 3 4 5 6 
#
# 1 116.7180 22.3137 33.0314 0.0000 0.0000 0.0000
# 2 22.3137 17.9121 6.5974 0.0000 0.0000 0.0000
# 3 33.0314 6.5974 104.3070 0.0000 0.0000 0.0000
# 4 0.0000 0.0000 0.0000 18.6684 0.0000 0.0000
# 5 0.0000 0.0000 0.0000 0.0000 23.7391 0.0000
# 6 0.0000 0.0000 0.0000 0.0000 0.0000 23.8946
#
#
#
# Elastic Compliance Matrix: (Units=1/GPa)
#
#
# Indices 1 2 3 4 5 6 
#
# 1 0.012066 -0.013949 -0.002939 0.000000 0.000000 0.000000
# 2 -0.013949 0.073285 -0.000218 0.000000 0.000000 0.000000
# 3 -0.002939 -0.000218 0.010531 0.000000 0.000000 0.000000
# 4 0.000000 0.000000 0.000000 0.053567 0.000000 0.000000
# 5 0.000000 0.000000 0.000000 0.000000 0.042125 0.000000
# 6 0.000000 0.000000 0.000000 0.000000 0.000000 0.041851
#
#
# Mechanical properties :
#
#
# Convention : Reuss Voigt Hill
#
# Bulk Modulus (GPa) = 16.21494 40.31355 28.26424
# Shear Modulus (GPa) = 17.34954 25.06005 21.20480
#
# Velocity S-wave (km/s) = 3.05031 3.66598 3.37222
# Velocity P-wave (km/s) = 4.59366 6.28800 5.50639
#
# Compressibility (1/GPa) = 0.06167153
#
# Stress axis : x y z
#
# Youngs Moduli (GPa) = 82.87779 13.64538 94.95324
#
# Poissons Ratio (x) = 0.19033 0.27904
# Poissons Ratio (y) = 1.15603 0.02071
# Poissons Ratio (z) = 0.24356 0.00298
#
# Static dielectric constant tensor:
#      x y z
#    x 1.717330 0.000000 0.000000 
#    y 0.000000 1.699830 0.000000 
#    z 0.000000 0.000000 1.679490 
# 
# From -- ./inp_files/45531.got.cif
#   From: 2010.05.17/outbox.cif.g08.bks.cpg/sg68_23_cif.got.tgz:45531.got - 2010.06.03 18:57:09.
