data_PCOD9506461
_publ_section_title
;
Structure prediction by ZEFSAII (Michael W. Deem and Ramdas Pophale) SiO2 
 PCOD9506461
Probable space group: C C C A
;
_chemical_formula_sum "Si O2"
_cell_formula_units_Z 112
_cell_length_a 15.023395
_cell_length_b 25.916914
_cell_length_c 14.035430
_cell_angle_alpha 90.000000
_cell_angle_beta 90.000000
_cell_angle_gamma 90.000000
_cell_volume 5464.835533
_symmetry_space_group_name_H-M "C C C A"
_symmetry_group_IT_number 68
_space_group.IT_coordinate_system_code '2'
_symmetry_cell_setting 'orthorhombic'
loop_
_space_group_symop_operation_xyz
x,y,z
-x,1/2-y,z
x,1/2-y,1/2-z
-x,y,1/2-z
-x,-y,-z
x,1/2+y,-z
-x,1/2+y,1/2+z
x,-y,1/2+z
1/2+x,1/2+y,z
1/2-x,-y,z
1/2+x,-y,1/2-z
1/2-x,1/2+y,1/2-z
1/2-x,1/2-y,-z
1/2+x,y,-z
1/2-x,y,1/2+z
1/2+x,1/2-y,1/2+z
loop_
_atom_site_type_symbol
_atom_site_label
_atom_site_fract_x
_atom_site_fract_y
_atom_site_fract_z
Si Si1 0.149628 0.638934 0.706557
Si Si2 0.000000 0.372598 0.750000
Si Si3 0.178788 0.915949 0.503560
Si Si4 0.465373 0.365822 0.889108
Si Si5 0.782215 0.307933 0.474864
Si Si6 0.677548 0.933927 0.713688
Si Si7 0.750000 0.500000 0.641801
Si Si8 0.471727 0.306976 0.435582
O O1 0.101962 0.652728 0.806169
O O2 0.188163 0.683476 0.636264
O O3 0.230403 0.599192 0.725703
O O4 0.062580 0.617965 0.649429
O O5 0.908172 0.402930 0.753883
O O6 0.000260 0.341159 0.652387
O O7 0.083222 0.910839 0.553267
O O8 0.217850 0.857458 0.493056
O O9 0.173398 0.941504 0.399806
O O10 0.235817 0.951325 0.573802
O O11 0.480274 0.321248 0.965890
O O12 0.750000 0.250000 0.500000
O O13 0.868257 0.314758 0.541567
O O14 0.675938 0.983855 0.781125
O O15 0.500000 0.250000 0.410083
#
# Coordination Sequence:
#
# PCOD9506461 Si02
#       8
#    16   8  16  16  16  16   8  16
#     4   9  21  40  72  97 135 181 228 285 344 417
#     4  12  25  44  66  96 138 182 222 289 352 422
#     4  11  22  43  71  99 142 181 227 293 345 418
#     4  10  19  42  68  96 134 179 227 289 344 405
#     4  10  22  41  70 105 138 183 230 282 357 424
#     4  11  24  45  69 100 134 176 233 286 351 420
#     4  12  24  44  72 100 136 186 232 290 350 418
#     4  11  23  40  64  97 138 181 232 282 341 418
#
# _framework density 20.494669999999999
#
# number of rings (size 3 to 8) (size 9 to 14) (size 15 to 20)
#    0.000    1.429    2.857    2.357    2.000    0.000 
#    2.571   11.429    0.000    0.000    0.000    0.000 
#    0.000    0.000    0.000    0.000    0.000    0.000 
#
# Total GULP energy -312189.240008 kJ/mol
# GULP energy per Si atom -5574.807857 kJ/mol
# Density = 2.044802 g / cm^3
# Si number density = 20.494670 Si / 1000 Ang^3
#
#
#
# Elastic Constant Matrix: (Units=GPa)
#
#
# Indices 1 2 3 4 5 6 
#
# 1 98.2247 25.4082 37.9409 0.0000 0.0000 0.0000
# 2 25.4082 58.7754 45.1652 0.0000 0.0000 0.0000
# 3 37.9409 45.1652 132.2148 0.0000 0.0000 0.0000
# 4 0.0000 0.0000 0.0000 5.4759 0.0000 0.0000
# 5 0.0000 0.0000 0.0000 0.0000 35.2826 0.0000
# 6 0.0000 0.0000 0.0000 0.0000 0.0000 3.7592
#
#
#
# Elastic Compliance Matrix: (Units=1/GPa)
#
#
# Indices 1 2 3 4 5 6 
#
# 1 0.011938 -0.003428 -0.002255 0.000000 0.000000 0.000000
# 2 -0.003428 0.024054 -0.007233 0.000000 0.000000 0.000000
# 3 -0.002255 -0.007233 0.010681 0.000000 0.000000 0.000000
# 4 0.000000 0.000000 0.000000 0.182620 0.000000 0.000000
# 5 0.000000 0.000000 0.000000 0.000000 0.028343 0.000000
# 6 0.000000 0.000000 0.000000 0.000000 0.000000 0.266011
#
#
# Mechanical properties :
#
#
# Convention : Reuss Voigt Hill
#
# Bulk Modulus (GPa) = 47.98114 56.24927 52.11520
# Shear Modulus (GPa) = 8.98589 20.95024 14.96807
#
# Velocity S-wave (km/s) = 2.09619 3.20070 2.70541
# Velocity P-wave (km/s) = 5.41489 6.41597 5.93657
#
# Compressibility (1/GPa) = 0.02084152
#
# Stress axis : x y z
#
# Youngs Moduli (GPa) = 83.76270 41.57269 93.62048
#
# Poissons Ratio (x) = 0.14252 0.21110
# Poissons Ratio (y) = 0.28716 0.67718
# Poissons Ratio (z) = 0.18887 0.30071
#
# Static dielectric constant tensor:
#      x y z
#    x 1.803460 0.000000 0.000000 
#    y 0.000000 1.724670 0.000000 
#    z 0.000000 0.000000 1.690220 
# 
# From -- ./inp_files/22785.got.cif
#   From: 2010.05.17/outbox.cif.g08.bks.cpg/sg68_12_cif.got.tgz:22785.got - 2010.06.03 18:57:09.
