data_PCOD9506491
_publ_section_title
;
Structure prediction by ZEFSAII (Michael W. Deem and Ramdas Pophale) SiO2 
 PCOD9506491
Probable space group: C C C A
;
_chemical_formula_sum "Si O2"
_cell_formula_units_Z 88
_cell_length_a 14.376211
_cell_length_b 22.685203
_cell_length_c 14.663470
_cell_angle_alpha 90.000000
_cell_angle_beta 90.000000
_cell_angle_gamma 90.000000
_cell_volume 4782.157365
_symmetry_space_group_name_H-M "C C C A"
_symmetry_group_IT_number 68
_space_group.IT_coordinate_system_code '2'
_symmetry_cell_setting 'orthorhombic'
loop_
_space_group_symop_operation_xyz
x,y,z
-x,1/2-y,z
x,1/2-y,1/2-z
-x,y,1/2-z
-x,-y,-z
x,1/2+y,-z
-x,1/2+y,1/2+z
x,-y,1/2+z
1/2+x,1/2+y,z
1/2-x,-y,z
1/2+x,-y,1/2-z
1/2-x,1/2+y,1/2-z
1/2-x,1/2-y,-z
1/2+x,y,-z
1/2-x,y,1/2+z
1/2+x,1/2-y,1/2+z
loop_
_atom_site_type_symbol
_atom_site_label
_atom_site_fract_x
_atom_site_fract_y
_atom_site_fract_z
Si Si1 0.914346 0.517035 0.063107
Si Si2 0.485355 0.318882 0.640503
Si Si3 0.665428 0.888706 0.410785
Si Si4 0.197722 0.939808 0.772365
Si Si5 0.000000 0.493955 0.250000
Si Si6 0.812387 0.118671 0.047930
O O1 0.851068 0.458081 0.066674
O O2 0.956351 0.527878 0.164151
O O3 0.864122 0.572185 0.018106
O O4 0.000000 0.500000 0.000000
O O5 0.500000 0.250000 0.621646
O O6 0.500000 0.326427 0.750000
O O7 0.565786 0.358029 0.594940
O O8 0.387058 0.339587 0.598100
O O9 0.707087 0.892916 0.308696
O O10 0.731733 0.857080 0.482946
O O11 0.233740 0.916808 0.868441
O O12 0.250000 0.000000 0.748199
O O13 0.087453 0.954648 0.783393
#
# Coordination Sequence:
#
# PCOD9506491 Si02
#       6
#    16  16  16  16   8  16
#     4  11  19  33  56  88 127 166 191 236 307 380
#     4  11  24  45  67  84 112 163 220 263 297 350
#     4  11  22  37  58  93 120 157 202 247 309 364
#     4  11  20  33  53  83 125 162 190 234 293 364
#     4  10  20  32  50  76 126 168 200 226 274 364
#     4  12  22  37  61  91 125 157 203 252 306 375
#
# _framework density 18.401737000000001
#
# number of rings (size 3 to 8) (size 9 to 14) (size 15 to 20)
#    0.000    0.909    5.455    4.909    1.273    0.727 
#    0.000    0.000    0.000    0.000    0.000    1.273 
#    0.000    0.000    0.000    0.000    0.000    0.000 
#
# Total GULP energy -245591.181746 kJ/mol
# GULP energy per Si atom -5581.617767 kJ/mol
# Density = 1.835985 g / cm^3
# Si number density = 18.401737 Si / 1000 Ang^3
#
#
#
# Elastic Constant Matrix: (Units=GPa)
#
#
# Indices 1 2 3 4 5 6 
#
# 1 79.4125 14.9186 26.8565 0.0000 0.0000 0.0000
# 2 14.9186 61.0595 7.5253 0.0000 0.0000 0.0000
# 3 26.8565 7.5253 114.1767 0.0000 0.0000 0.0000
# 4 0.0000 0.0000 0.0000 15.3979 0.0000 0.0000
# 5 0.0000 0.0000 0.0000 0.0000 40.2353 0.0000
# 6 0.0000 0.0000 0.0000 0.0000 0.0000 13.5308
#
#
#
# Elastic Compliance Matrix: (Units=1/GPa)
#
#
# Indices 1 2 3 4 5 6 
#
# 1 0.014237 -0.003091 -0.003145 0.000000 0.000000 0.000000
# 2 -0.003091 0.017183 -0.000405 0.000000 0.000000 0.000000
# 3 -0.003145 -0.000405 0.009525 0.000000 0.000000 0.000000
# 4 0.000000 0.000000 0.000000 0.064944 0.000000 0.000000
# 5 0.000000 0.000000 0.000000 0.000000 0.024854 0.000000
# 6 0.000000 0.000000 0.000000 0.000000 0.000000 0.073906
#
#
# Mechanical properties :
#
#
# Convention : Reuss Voigt Hill
#
# Bulk Modulus (GPa) = 36.15129 39.24996 37.70063
# Shear Modulus (GPa) = 22.01182 27.52269 24.76726
#
# Velocity S-wave (km/s) = 3.46234 3.87157 3.67266
# Velocity P-wave (km/s) = 5.97260 6.43127 6.20617
#
# Compressibility (1/GPa) = 0.02766153
#
# Stress axis : x y z
#
# Youngs Moduli (GPa) = 70.24076 58.19833 104.98850
#
# Poissons Ratio (x) = 0.17988 0.33019
# Poissons Ratio (y) = 0.21710 0.04257
# Poissons Ratio (z) = 0.22091 0.02360
#
# Static dielectric constant tensor:
#      x y z
#    x 1.672930 0.000000 0.000000 
#    y 0.000000 1.630980 0.000000 
#    z 0.000000 0.000000 1.681830 
# 
# From -- ./inp_files/22244.got.cif
#   From: 2010.05.17/outbox.cif.g08.bks.cpg/sg68_12_cif.got.tgz:22244.got - 2010.06.03 18:57:09.
