data_PCOD9506447
_publ_section_title
;
Structure prediction by ZEFSAII (Michael W. Deem and Ramdas Pophale) SiO2 
 PCOD9506447
Probable space group: C C C A
;
_chemical_formula_sum "Si O2"
_cell_formula_units_Z 64
_cell_length_a 12.905130
_cell_length_b 16.120102
_cell_length_c 13.616265
_cell_angle_alpha 90.000000
_cell_angle_beta 90.000000
_cell_angle_gamma 90.000000
_cell_volume 2832.619003
_symmetry_space_group_name_H-M "C C C A"
_symmetry_group_IT_number 68
_space_group.IT_coordinate_system_code '2'
_symmetry_cell_setting 'orthorhombic'
loop_
_space_group_symop_operation_xyz
x,y,z
-x,1/2-y,z
x,1/2-y,1/2-z
-x,y,1/2-z
-x,-y,-z
x,1/2+y,-z
-x,1/2+y,1/2+z
x,-y,1/2+z
1/2+x,1/2+y,z
1/2-x,-y,z
1/2+x,-y,1/2-z
1/2-x,1/2+y,1/2-z
1/2-x,1/2-y,-z
1/2+x,y,-z
1/2-x,y,1/2+z
1/2+x,1/2-y,1/2+z
loop_
_atom_site_type_symbol
_atom_site_label
_atom_site_fract_x
_atom_site_fract_y
_atom_site_fract_z
Si Si1 0.500000 0.250000 0.250000
Si Si2 0.851013 0.863822 0.961130
Si Si3 0.750000 0.500000 0.397975
Si Si4 0.500000 0.750000 0.250000
Si Si5 0.068023 0.110704 0.385071
Si Si6 0.364821 0.305627 0.418821
O O1 0.429009 0.305620 0.319951
O O2 0.754842 0.827054 0.899960
O O3 0.944243 0.902144 0.897122
O O4 0.807670 0.932999 0.034042
O O5 0.880540 0.784826 0.030072
O O6 0.846869 0.453858 0.345798
O O7 0.570006 0.692747 0.319064
O O8 0.099098 0.130856 0.497292
#
# Coordination Sequence:
#
# PCOD9506447 Si02
#       6
#     4  16   8   4  16  16
#     4  12  18  38  62 106 134 168 230 340 328 408
#     4  10  19  41  61  93 133 179 227 281 361 439
#     4  10  24  38  70  92 136 180 226 292 370 424
#     4  12  22  38  74  90 140 184 246 298 340 432
#     4  11  21  44  65  99 131 188 232 293 350 438
#     4  10  21  36  67  98 131 174 242 287 355 418
#
# _framework density 22.593931999999999
#
# number of rings (size 3 to 8) (size 9 to 14) (size 15 to 20)
#    0.000    1.500    5.000    0.750    0.000    1.000 
#    0.000    2.500    0.000    0.000    0.000    0.000 
#    0.000    0.000    0.000    0.000    0.000    0.000 
#
# Total GULP energy -178570.373181 kJ/mol
# GULP energy per Si atom -5580.324162 kJ/mol
# Density = 2.254251 g / cm^3
# Si number density = 22.593932 Si / 1000 Ang^3
#
#
#
# Elastic Constant Matrix: (Units=GPa)
#
#
# Indices 1 2 3 4 5 6 
#
# 1 179.5881 38.4368 47.2241 0.0000 0.0000 0.0000
# 2 38.4368 60.7303 2.1893 0.0000 0.0000 0.0000
# 3 47.2241 2.1893 85.3746 0.0000 0.0000 0.0000
# 4 0.0000 0.0000 0.0000 10.5458 0.0000 0.0000
# 5 0.0000 0.0000 0.0000 0.0000 30.0688 0.0000
# 6 0.0000 0.0000 0.0000 0.0000 0.0000 51.3620
#
#
#
# Elastic Compliance Matrix: (Units=1/GPa)
#
#
# Indices 1 2 3 4 5 6 
#
# 1 0.007655 -0.004697 -0.004114 0.000000 0.000000 0.000000
# 2 -0.004697 0.019363 0.002101 0.000000 0.000000 0.000000
# 3 -0.004114 0.002101 0.013935 0.000000 0.000000 0.000000
# 4 0.000000 0.000000 0.000000 0.094824 0.000000 0.000000
# 5 0.000000 0.000000 0.000000 0.000000 0.033257 0.000000
# 6 0.000000 0.000000 0.000000 0.000000 0.000000 0.019470
#
#
# Mechanical properties :
#
#
# Convention : Reuss Voigt Hill
#
# Bulk Modulus (GPa) = 36.31799 55.71038 46.01419
# Shear Modulus (GPa) = 23.68528 34.25151 28.96840
#
# Velocity S-wave (km/s) = 3.24126 3.89776 3.58457
# Velocity P-wave (km/s) = 5.48788 6.70578 6.12716
#
# Compressibility (1/GPa) = 0.02753456
#
# Stress axis : x y z
#
# Youngs Moduli (GPa) = 130.62707 51.64436 71.76256
#
# Poissons Ratio (x) = 0.24257 0.29524
# Poissons Ratio (y) = 0.61354 -0.15081
# Poissons Ratio (z) = 0.53741 -0.10853
#
# Static dielectric constant tensor:
#      x y z
#    x 1.953290 0.000000 0.000000 
#    y 0.000000 1.870760 0.000000 
#    z 0.000000 0.000000 1.813950 
# 
# From -- ./inp_files/12910.got.cif
#   From: 2010.05.17/outbox.cif.g08.bks.cpg/sg68_7_cif.got.tgz:12910.got - 2010.06.03 18:57:09.
