data_PCOD9506564
_publ_section_title
;
Structure prediction by ZEFSAII (Michael W. Deem and Ramdas Pophale) SiO2 
 PCOD9506564
Probable space group: C C C A
;
_chemical_formula_sum "Si O2"
_cell_formula_units_Z 80
_cell_length_a 4.923862
_cell_length_b 21.675629
_cell_length_c 35.249163
_cell_angle_alpha 90.000000
_cell_angle_beta 90.000000
_cell_angle_gamma 90.000000
_cell_volume 3762.065829
_symmetry_space_group_name_H-M "C C C A"
_symmetry_group_IT_number 68
_space_group.IT_coordinate_system_code '2'
_symmetry_cell_setting 'orthorhombic'
loop_
_space_group_symop_operation_xyz
x,y,z
-x,1/2-y,z
x,1/2-y,1/2-z
-x,y,1/2-z
-x,-y,-z
x,1/2+y,-z
-x,1/2+y,1/2+z
x,-y,1/2+z
1/2+x,1/2+y,z
1/2-x,-y,z
1/2+x,-y,1/2-z
1/2-x,1/2+y,1/2-z
1/2-x,1/2-y,-z
1/2+x,y,-z
1/2-x,y,1/2+z
1/2+x,1/2-y,1/2+z
loop_
_atom_site_type_symbol
_atom_site_label
_atom_site_fract_x
_atom_site_fract_y
_atom_site_fract_z
Si Si1 0.858816 0.385936 0.607257
Si Si2 0.349220 0.687668 0.130663
Si Si3 0.566965 0.635582 0.292294
Si Si4 0.567863 0.059519 0.315975
Si Si5 0.260204 0.074229 0.022783
O O1 0.551499 0.367075 0.617546
O O2 0.964227 0.436158 0.638300
O O3 0.859291 0.406494 0.564058
O O4 0.057419 0.327771 0.613641
O O5 0.500000 0.750000 0.119753
O O6 0.324985 0.683244 0.176451
O O7 0.500000 0.656636 0.250000
O O8 0.272333 0.614456 0.306300
O O9 0.784019 0.577909 0.295593
O O10 0.750000 0.000000 0.305570
O O11 0.250000 0.000000 0.022836
O O12 0.464137 0.095758 0.989831
#
# Coordination Sequence:
#
# PCOD9506564 Si02
#       5
#    16  16  16  16  16
#     4  10  20  36  57  80 109 140 181 228 267 325
#     4  10  21  37  58  79 102 142 187 230 279 322
#     4  10  21  35  52  78 108 138 180 228 274 325
#     4  10  20  34  53  77 107 145 180 215 267 329
#     4  10  20  34  56  86 116 145 175 213 268 326
#
# _framework density 21.264914000000001
#
# number of rings (size 3 to 8) (size 9 to 14) (size 15 to 20)
#    0.000    2.000    0.000    3.600    0.000    2.000 
#    0.000    6.000    0.000   19.200    0.000    0.000 
#    0.000    0.000    0.000    0.000    0.000    0.000 
#
# Total GULP energy -222974.435058 kJ/mol
# GULP energy per Si atom -5574.360876 kJ/mol
# Density = 2.121651 g / cm^3
# Si number density = 21.264914 Si / 1000 Ang^3
#
#
#
# Elastic Constant Matrix: (Units=GPa)
#
#
# Indices 1 2 3 4 5 6 
#
# 1 119.7714 9.5606 25.6499 0.0000 0.0000 0.0000
# 2 9.5606 14.0972 -7.9891 0.0000 0.0000 0.0000
# 3 25.6499 -7.9891 111.6967 0.0000 0.0000 0.0000
# 4 0.0000 0.0000 0.0000 1.5999 0.0000 0.0000
# 5 0.0000 0.0000 0.0000 0.0000 25.4206 0.0000
# 6 0.0000 0.0000 0.0000 0.0000 0.0000 26.9294
#
#
#
# Elastic Compliance Matrix: (Units=1/GPa)
#
#
# Indices 1 2 3 4 5 6 
#
# 1 0.009589 -0.008079 -0.002780 0.000000 0.000000 0.000000
# 2 -0.008079 0.080739 0.007630 0.000000 0.000000 0.000000
# 3 -0.002780 0.007630 0.010137 0.000000 0.000000 0.000000
# 4 0.000000 0.000000 0.000000 0.625055 0.000000 0.000000
# 5 0.000000 0.000000 0.000000 0.000000 0.039338 0.000000
# 6 0.000000 0.000000 0.000000 0.000000 0.000000 0.037134
#
#
# Mechanical properties :
#
#
# Convention : Reuss Voigt Hill
#
# Bulk Modulus (GPa) = 10.63738 33.33423 21.98581
# Shear Modulus (GPa) = 5.95389 25.34624 15.65007
#
# Velocity S-wave (km/s) = 1.67510 3.45618 2.71580
# Velocity P-wave (km/s) = 2.95879 5.62464 4.49394
#
# Compressibility (1/GPa) = 0.09400809
#
# Stress axis : x y z
#
# Youngs Moduli (GPa) = 104.28097 12.38555 98.64903
#
# Poissons Ratio (x) = 0.10006 0.27424
# Poissons Ratio (y) = 0.84248 -0.75270
# Poissons Ratio (z) = 0.28990 -0.09450
#
# Static dielectric constant tensor:
#      x y z
#    x 1.751410 0.000000 0.000000 
#    y 0.000000 1.817290 0.000000 
#    z 0.000000 0.000000 1.813690 
# 
# From -- ./inp_files/53162.got.cif
#   From: 2010.05.17/outbox.cif.g08.bks.cpg/sg68_27_cif.got.tgz:53162.got - 2010.06.03 18:57:09.
