data_PCOD9506378
_publ_section_title
;
Structure prediction by ZEFSAII (Michael W. Deem and Ramdas Pophale) SiO2 
 PCOD9506378
Probable space group: C C C A
;
_chemical_formula_sum "Si O2"
_cell_formula_units_Z 88
_cell_length_a 16.133906
_cell_length_b 15.452305
_cell_length_c 17.430970
_cell_angle_alpha 90.000000
_cell_angle_beta 90.000000
_cell_angle_gamma 90.000000
_cell_volume 4345.646040
_symmetry_space_group_name_H-M "C C C A"
_symmetry_group_IT_number 68
_space_group.IT_coordinate_system_code '2'
_symmetry_cell_setting 'orthorhombic'
loop_
_space_group_symop_operation_xyz
x,y,z
-x,1/2-y,z
x,1/2-y,1/2-z
-x,y,1/2-z
-x,-y,-z
x,1/2+y,-z
-x,1/2+y,1/2+z
x,-y,1/2+z
1/2+x,1/2+y,z
1/2-x,-y,z
1/2+x,-y,1/2-z
1/2-x,1/2+y,1/2-z
1/2-x,1/2-y,-z
1/2+x,y,-z
1/2-x,y,1/2+z
1/2+x,1/2-y,1/2+z
loop_
_atom_site_type_symbol
_atom_site_label
_atom_site_fract_x
_atom_site_fract_y
_atom_site_fract_z
Si Si1 0.986248 0.351816 0.841666
Si Si2 0.798026 0.750000 0.750000
Si Si3 0.707366 0.867044 0.648578
Si Si4 0.895414 0.999013 0.401280
Si Si5 0.452937 0.340525 0.824479
Si Si6 0.750000 0.000000 0.523363
Si Si7 0.250000 0.500000 0.778704
O O1 0.890666 0.371267 0.859240
O O2 0.000000 0.250000 0.857555
O O3 0.000000 0.365342 0.750000
O O4 0.045672 0.416354 0.888795
O O5 0.740090 0.774910 0.677419
O O6 0.863777 0.814305 0.790850
O O7 0.747544 0.914254 0.576132
O O8 0.737352 0.920730 0.722064
O O9 0.834196 0.997573 0.473739
O O10 0.946496 0.088492 0.390942
O O11 0.830818 0.001235 0.330869
O O12 0.500000 0.250000 0.844559
O O13 0.500000 0.379075 0.750000
#
# Coordination Sequence:
#
# PCOD9506378 Si02
#       7
#    16   8  16  16  16   8   8
#     4  11  23  38  67 102 129 170 234 291 335 396
#     4  10  19  38  65  92 132 160 234 284 319 393
#     4  11  22  40  63  98 128 177 223 283 327 412
#     4  11  21  43  63  94 137 180 216 282 341 417
#     4   9  20  35  65 104 125 169 230 287 332 390
#     4  10  28  42  64  96 138 182 228 266 366 418
#     4  10  20  34  68  88 124 176 228 256 332 394
#
# _framework density 20.250154999999999
#
# number of rings (size 3 to 8) (size 9 to 14) (size 15 to 20)
#    0.000    1.818    3.636    1.636    0.000    2.182 
#    0.000    4.545    0.000    1.091    0.000    0.000 
#    0.000    0.000    0.000    0.000    0.000    0.000 
#
# Total GULP energy -245321.802188 kJ/mol
# GULP energy per Si atom -5575.495504 kJ/mol
# Density = 2.020406 g / cm^3
# Si number density = 20.250155 Si / 1000 Ang^3
#
#
#
# Elastic Constant Matrix: (Units=GPa)
#
#
# Indices 1 2 3 4 5 6 
#
# 1 136.6520 58.6158 49.2351 0.0000 0.0000 0.0000
# 2 58.6158 95.5280 48.5229 0.0000 0.0000 0.0000
# 3 49.2351 48.5229 96.4136 0.0000 0.0000 0.0000
# 4 0.0000 0.0000 0.0000 18.0879 0.0000 0.0000
# 5 0.0000 0.0000 0.0000 0.0000 25.8767 0.0000
# 6 0.0000 0.0000 0.0000 0.0000 0.0000 14.9925
#
#
#
# Elastic Compliance Matrix: (Units=1/GPa)
#
#
# Indices 1 2 3 4 5 6 
#
# 1 0.010481 -0.004988 -0.002842 0.000000 0.000000 0.000000
# 2 -0.004988 0.016437 -0.005725 0.000000 0.000000 0.000000
# 3 -0.002842 -0.005725 0.014705 0.000000 0.000000 0.000000
# 4 0.000000 0.000000 0.000000 0.055286 0.000000 0.000000
# 5 0.000000 0.000000 0.000000 0.000000 0.038645 0.000000
# 6 0.000000 0.000000 0.000000 0.000000 0.000000 0.066700
#
#
# Mechanical properties :
#
#
# Convention : Reuss Voigt Hill
#
# Bulk Modulus (GPa) = 68.90587 71.26014 70.08300
# Shear Modulus (GPa) = 21.34921 23.27274 22.31098
#
# Velocity S-wave (km/s) = 3.25048 3.39376 3.32289
# Velocity P-wave (km/s) = 6.94181 7.11499 7.02893
#
# Compressibility (1/GPa) = 0.01451255
#
# Stress axis : x y z
#
# Youngs Moduli (GPa) = 95.40792 60.83986 68.00494
#
# Poissons Ratio (x) = 0.30344 0.19329
# Poissons Ratio (y) = 0.47585 0.38934
# Poissons Ratio (z) = 0.27118 0.34832
#
# Static dielectric constant tensor:
#      x y z
#    x 1.716310 0.000000 0.000000 
#    y 0.000000 1.814710 0.000000 
#    z 0.000000 0.000000 1.713500 
# 
# From -- ./inp_files/30959.got.cif
#   From: 2010.05.17/outbox.cif.g08.bks.cpg/sg68_16_cif.got.tgz:30959.got - 2010.06.03 18:57:09.
