data_PCOD9506415
_publ_section_title
;
Structure prediction by ZEFSAII (Michael W. Deem and Ramdas Pophale) SiO2 
 PCOD9506415
Probable space group: C C C A
;
_chemical_formula_sum "Si O2"
_cell_formula_units_Z 116
_cell_length_a 8.279259
_cell_length_b 25.716449
_cell_length_c 23.926695
_cell_angle_alpha 90.000000
_cell_angle_beta 90.000000
_cell_angle_gamma 90.000000
_cell_volume 5094.307806
_symmetry_space_group_name_H-M "C C C A"
_symmetry_group_IT_number 68
_space_group.IT_coordinate_system_code '2'
_symmetry_cell_setting 'orthorhombic'
loop_
_space_group_symop_operation_xyz
x,y,z
-x,1/2-y,z
x,1/2-y,1/2-z
-x,y,1/2-z
-x,-y,-z
x,1/2+y,-z
-x,1/2+y,1/2+z
x,-y,1/2+z
1/2+x,1/2+y,z
1/2-x,-y,z
1/2+x,-y,1/2-z
1/2-x,1/2+y,1/2-z
1/2-x,1/2-y,-z
1/2+x,y,-z
1/2-x,y,1/2+z
1/2+x,1/2-y,1/2+z
loop_
_atom_site_type_symbol
_atom_site_label
_atom_site_fract_x
_atom_site_fract_y
_atom_site_fract_z
Si Si1 0.000000 0.750000 0.750000
Si Si2 0.024735 0.960146 0.349181
Si Si3 0.896432 0.573690 0.841938
Si Si4 0.849975 0.130902 0.045120
Si Si5 0.114553 0.537298 0.465205
Si Si6 0.271273 0.665853 0.223671
Si Si7 0.420671 0.646621 0.828471
Si Si8 0.513477 0.812325 0.555856
O O1 0.883523 0.714691 0.787270
O O2 0.212928 0.947513 0.344039
O O3 0.987825 0.945114 0.413029
O O4 0.924808 0.915844 0.317475
O O5 0.998482 0.021054 0.336276
O O6 0.929253 0.604575 0.899958
O O7 0.876846 0.616223 0.794029
O O8 0.693202 0.163766 0.062713
O O9 0.812785 0.081888 0.004167
O O10 0.956648 0.167107 0.004812
O O11 0.250000 0.500000 0.440883
O O12 0.000000 0.500000 0.500000
O O13 0.218414 0.667338 0.288409
O O14 0.099073 0.665508 0.191665
O O15 0.408262 0.664572 0.892551
O O16 0.500000 0.750000 0.558007
#
# Coordination Sequence:
#
# PCOD9506415 Si02
#       8
#     4  16  16  16  16  16  16  16
#     4  12  28  50  72 104 128 166 240 308 354 384
#     4  10  19  39  66 104 133 180 225 271 344 426
#     4  10  20  40  72  99 142 179 220 283 357 416
#     4  12  22  42  62  99 144 179 232 292 338 426
#     4  12  22  34  61  98 133 182 227 272 334 411
#     4  10  24  47  72 101 133 180 237 295 356 410
#     4  10  22  46  77  98 134 187 246 281 340 451
#     4  12  26  43  66 100 136 187 243 291 360 411
#
# _framework density 22.770513999999999
#
# number of rings (size 3 to 8) (size 9 to 14) (size 15 to 20)
#    0.000    1.103    5.517    2.069    1.931    0.552 
#    6.207    5.517    0.000    0.000    0.000    0.000 
#    0.000    0.000    0.000    0.000    0.000    0.000 
#
# Total GULP energy -323877.706589 kJ/mol
# GULP energy per Si atom -5584.098389 kJ/mol
# Density = 2.271869 g / cm^3
# Si number density = 22.770514 Si / 1000 Ang^3
#
#
#
# Elastic Constant Matrix: (Units=GPa)
#
#
# Indices 1 2 3 4 5 6 
#
# 1 39.2178 46.0514 19.9721 0.0000 0.0000 0.0000
# 2 46.0514 180.9405 32.0561 0.0000 0.0000 0.0000
# 3 19.9721 32.0561 64.2156 0.0000 0.0000 0.0000
# 4 0.0000 0.0000 0.0000 46.0122 0.0000 0.0000
# 5 0.0000 0.0000 0.0000 0.0000 31.1234 0.0000
# 6 0.0000 0.0000 0.0000 0.0000 0.0000 -213.0993
#
#
#
# Elastic Compliance Matrix: (Units=1/GPa)
#
#
# Indices 1 2 3 4 5 6 
#
# 1 0.039820 -0.008711 -0.008036 0.000000 0.000000 0.000000
# 2 -0.008711 0.007968 -0.001269 0.000000 0.000000 0.000000
# 3 -0.008036 -0.001269 0.018705 0.000000 0.000000 0.000000
# 4 0.000000 0.000000 0.000000 0.021733 0.000000 0.000000
# 5 0.000000 0.000000 0.000000 0.000000 0.032130 0.000000
# 6 0.000000 0.000000 0.000000 0.000000 0.000000 -0.004693
#
#
# Mechanical properties :
#
#
# Convention : Reuss Voigt Hill
#
# Bulk Modulus (GPa) = 32.82755 53.39258 43.11006
# Shear Modulus (GPa) = 30.89284 -14.77312 8.05986
#
# Velocity S-wave (km/s) = 3.68734 -2.54988 1.88342
# Velocity P-wave (km/s) = 5.70759 3.85095 4.86860
#
# Compressibility (1/GPa) = 0.03046222
#
# Stress axis : x y z
#
# Youngs Moduli (GPa) = 25.11306 125.49494 53.46108
#
# Poissons Ratio (x) = 1.09317 0.42962
# Poissons Ratio (y) = 0.21876 0.06782
# Poissons Ratio (z) = 0.20181 0.15920
#
# Static dielectric constant tensor:
#      x y z
#    x 1.987030 0.000000 0.000000 
#    y 0.000000 1.937600 0.000000 
#    z 0.000000 0.000000 1.808930 
# 
# From -- ./inp_files/43520.got.cif
#   From: 2010.05.17/outbox.cif.g08.bks.cpg/sg68_22_cif.got.tgz:43520.got - 2010.06.03 18:57:09.
