data_PCOD9506221
_publ_section_title
;
Structure prediction by ZEFSAII (Michael W. Deem and Ramdas Pophale) SiO2 
 PCOD9506221
Probable space group: C C C A
;
_chemical_formula_sum "Si O2"
_cell_formula_units_Z 56
_cell_length_a 9.652169
_cell_length_b 15.680488
_cell_length_c 17.989405
_cell_angle_alpha 90.000000
_cell_angle_beta 90.000000
_cell_angle_gamma 90.000000
_cell_volume 2722.709402
_symmetry_space_group_name_H-M "C C C A"
_symmetry_group_IT_number 68
_space_group.IT_coordinate_system_code '2'
_symmetry_cell_setting 'orthorhombic'
loop_
_space_group_symop_operation_xyz
x,y,z
-x,1/2-y,z
x,1/2-y,1/2-z
-x,y,1/2-z
-x,-y,-z
x,1/2+y,-z
-x,1/2+y,1/2+z
x,-y,1/2+z
1/2+x,1/2+y,z
1/2-x,-y,z
1/2+x,-y,1/2-z
1/2-x,1/2+y,1/2-z
1/2-x,1/2-y,-z
1/2+x,y,-z
1/2-x,y,1/2+z
1/2+x,1/2-y,1/2+z
loop_
_atom_site_type_symbol
_atom_site_label
_atom_site_fract_x
_atom_site_fract_y
_atom_site_fract_z
Si Si1 0.750000 0.500000 0.319991
Si Si2 0.256840 0.397091 0.929663
Si Si3 0.557409 0.426961 0.944873
Si Si4 0.159220 0.840253 0.225016
O O1 0.623135 0.526008 0.374044
O O2 0.774715 0.580822 0.268068
O O3 0.250000 0.500000 0.916169
O O4 0.419371 0.373446 0.928213
O O5 0.176898 0.352691 0.862689
O O6 0.180333 0.382272 0.008408
O O7 0.500000 0.500000 0.000000
O O8 0.221154 0.750000 0.250000
O O9 0.000000 0.840640 0.250000
#
# Coordination Sequence:
#
# PCOD9506221 Si02
#       4
#     8  16  16  16
#     4  12  22  38  70  94 128 176 218 276 328 382
#     4  10  19  38  64  94 125 169 215 267 323 387
#     4  10  19  35  65  95 125 168 220 262 327 388
#     4  11  25  42  66  97 135 174 220 265 329 394
#
# _framework density 20.567747000000001
#
# number of rings (size 3 to 8) (size 9 to 14) (size 15 to 20)
#    0.000    1.429    5.714    3.429    0.000    0.000 
#    0.000    4.286    6.286    0.000    0.000    0.000 
#    0.000    0.000    0.000    0.000    0.000    0.000 
#
# Total GULP energy -156291.168578 kJ/mol
# GULP energy per Si atom -5581.827449 kJ/mol
# Density = 2.052093 g / cm^3
# Si number density = 20.567747 Si / 1000 Ang^3
#
#
#
# Elastic Constant Matrix: (Units=GPa)
#
#
# Indices 1 2 3 4 5 6 
#
# 1 94.5186 11.5456 5.7799 0.0000 0.0000 0.0000
# 2 11.5456 91.0299 29.6243 0.0000 0.0000 0.0000
# 3 5.7799 29.6243 69.0568 0.0000 0.0000 0.0000
# 4 0.0000 0.0000 0.0000 -1.8999 0.0000 0.0000
# 5 0.0000 0.0000 0.0000 0.0000 31.9576 0.0000
# 6 0.0000 0.0000 0.0000 0.0000 0.0000 12.6079
#
#
#
# Elastic Compliance Matrix: (Units=1/GPa)
#
#
# Indices 1 2 3 4 5 6 
#
# 1 0.010754 -0.001245 -0.000366 0.000000 0.000000 0.000000
# 2 -0.001245 0.012912 -0.005435 0.000000 0.000000 0.000000
# 3 -0.000366 -0.005435 0.016843 0.000000 0.000000 0.000000
# 4 0.000000 0.000000 0.000000 -0.526343 0.000000 0.000000
# 5 0.000000 0.000000 0.000000 0.000000 0.031292 0.000000
# 6 0.000000 0.000000 0.000000 0.000000 0.000000 0.079315
#
#
# Mechanical properties :
#
#
# Convention : Reuss Voigt Hill
#
# Bulk Modulus (GPa) = 37.85345 38.72278 38.28811
# Shear Modulus (GPa) = -14.19125 22.37682 4.09279
#
# Velocity S-wave (km/s) = -2.62959 3.30200 1.41217
# Velocity P-wave (km/s) = 3.03720 5.77974 4.61682
#
# Compressibility (1/GPa) = 0.02641767
#
# Stress axis : x y z
#
# Youngs Moduli (GPa) = 92.98540 77.44747 59.37207
#
# Poissons Ratio (x) = 0.09641 0.02174
# Poissons Ratio (y) = 0.11575 0.32268
# Poissons Ratio (z) = 0.03404 0.42092
#
# Static dielectric constant tensor:
#      x y z
#    x 1.810540 0.000000 0.000000 
#    y 0.000000 1.753890 0.000000 
#    z 0.000000 0.000000 1.717130 
# 
# From -- ./inp_files/35594.got.cif
#   From: 2010.05.17/outbox.cif.g08.bks.cpg/sg68_18_cif.got.tgz:35594.got - 2010.06.03 18:57:09.
