data_PCOD9506205
_publ_section_title
;
Structure prediction by ZEFSAII (Michael W. Deem and Ramdas Pophale) SiO2 
 PCOD9506205
Probable space group: C C C A
;
_chemical_formula_sum "Si O2"
_cell_formula_units_Z 80
_cell_length_a 15.374355
_cell_length_b 18.132236
_cell_length_c 13.586030
_cell_angle_alpha 90.000000
_cell_angle_beta 90.000000
_cell_angle_gamma 90.000000
_cell_volume 3787.397055
_symmetry_space_group_name_H-M "C C C A"
_symmetry_group_IT_number 68
_space_group.IT_coordinate_system_code '2'
_symmetry_cell_setting 'orthorhombic'
loop_
_space_group_symop_operation_xyz
x,y,z
-x,1/2-y,z
x,1/2-y,1/2-z
-x,y,1/2-z
-x,-y,-z
x,1/2+y,-z
-x,1/2+y,1/2+z
x,-y,1/2+z
1/2+x,1/2+y,z
1/2-x,-y,z
1/2+x,-y,1/2-z
1/2-x,1/2+y,1/2-z
1/2-x,1/2-y,-z
1/2+x,y,-z
1/2-x,y,1/2+z
1/2+x,1/2-y,1/2+z
loop_
_atom_site_type_symbol
_atom_site_label
_atom_site_fract_x
_atom_site_fract_y
_atom_site_fract_z
Si Si1 0.251237 0.084710 0.378592
Si Si2 0.370221 0.260860 0.897819
Si Si3 0.092673 0.373681 0.248760
Si Si4 0.685413 0.680826 0.563111
Si Si5 0.398091 0.159914 0.253096
O O1 0.178961 0.087941 0.290588
O O2 0.220065 0.130921 0.473675
O O3 0.340253 0.120214 0.336582
O O4 0.250000 0.000000 0.408463
O O5 0.406922 0.197281 0.826376
O O6 0.401052 0.338578 0.857099
O O7 0.265476 0.272202 0.892196
O O8 0.383137 0.235647 0.009513
O O9 0.000000 0.413775 0.250000
O O10 0.642921 0.635412 0.649314
O O11 0.388588 0.250000 0.250000
O O12 0.500000 0.143237 0.250000
#
# Coordination Sequence:
#
# PCOD9506205 Si02
#       5
#    16  16  16  16  16
#     4  11  25  44  63  89 133 182 224 269 330 401
#     4   9  16  32  60  91 126 151 198 261 332 374
#     4  10  19  35  60  94 123 156 208 270 320 386
#     4  10  20  37  62  90 129 169 207 263 329 402
#     4  11  23  44  69 100 132 171 219 283 347 401
#
# _framework density 21.122688
#
# number of rings (size 3 to 8) (size 9 to 14) (size 15 to 20)
#    0.000    1.800    2.000    4.800    0.000    1.600 
#   25.200    1.000    0.000    0.000    0.000    0.000 
#    0.000    0.000    0.000    0.000    0.000    0.000 
#
# Total GULP energy -222782.043618 kJ/mol
# GULP energy per Si atom -5569.551090 kJ/mol
# Density = 2.107461 g / cm^3
# Si number density = 21.122688 Si / 1000 Ang^3
#
#
#
# Elastic Constant Matrix: (Units=GPa)
#
#
# Indices 1 2 3 4 5 6 
#
# 1 133.7294 32.5656 40.4039 0.0000 0.0000 0.0000
# 2 32.5656 69.1235 14.6488 0.0000 0.0000 0.0000
# 3 40.4039 14.6488 97.1883 0.0000 0.0000 0.0000
# 4 0.0000 0.0000 0.0000 16.4732 0.0000 0.0000
# 5 0.0000 0.0000 0.0000 0.0000 10.0673 0.0000
# 6 0.0000 0.0000 0.0000 0.0000 0.0000 5.4371
#
#
#
# Elastic Compliance Matrix: (Units=1/GPa)
#
#
# Indices 1 2 3 4 5 6 
#
# 1 0.009393 -0.003717 -0.003345 0.000000 0.000000 0.000000
# 2 -0.003717 0.016415 -0.000929 0.000000 0.000000 0.000000
# 3 -0.003345 -0.000929 0.011820 0.000000 0.000000 0.000000
# 4 0.000000 0.000000 0.000000 0.060705 0.000000 0.000000
# 5 0.000000 0.000000 0.000000 0.000000 0.099332 0.000000
# 6 0.000000 0.000000 0.000000 0.000000 0.000000 0.183922
#
#
# Mechanical properties :
#
#
# Convention : Reuss Voigt Hill
#
# Bulk Modulus (GPa) = 46.19587 52.80865 49.50226
# Shear Modulus (GPa) = 12.35229 20.55704 16.45467
#
# Velocity S-wave (km/s) = 2.42086 3.12303 2.79409
# Velocity P-wave (km/s) = 5.45269 6.16925 5.82200
#
# Compressibility (1/GPa) = 0.02164696
#
# Stress axis : x y z
#
# Youngs Moduli (GPa) = 106.45698 60.92098 84.60291
#
# Poissons Ratio (x) = 0.22642 0.28299
# Poissons Ratio (y) = 0.39566 0.07860
# Poissons Ratio (z) = 0.35609 0.05660
#
# Static dielectric constant tensor:
#      x y z
#    x 1.843870 0.000000 0.000000 
#    y 0.000000 1.805630 0.000000 
#    z 0.000000 0.000000 1.820210 
# 
# From -- ./inp_files/22162.got.cif
#   From: 2010.05.17/outbox.cif.g08.bks.cpg/sg68_12_cif.got.tgz:22162.got - 2010.06.03 18:57:09.
