data_PCOD9506756
_publ_section_title
;
Structure prediction by ZEFSAII (Michael W. Deem and Ramdas Pophale) SiO2 
 PCOD9506756
Probable space group: C C C A
;
_chemical_formula_sum "Si O2"
_cell_formula_units_Z 60
_cell_length_a 34.099431
_cell_length_b 10.593314
_cell_length_c 9.054804
_cell_angle_alpha 90.000000
_cell_angle_beta 90.000000
_cell_angle_gamma 90.000000
_cell_volume 3270.830447
_symmetry_space_group_name_H-M "C C C A"
_symmetry_group_IT_number 68
_space_group.IT_coordinate_system_code '2'
_symmetry_cell_setting 'orthorhombic'
loop_
_space_group_symop_operation_xyz
x,y,z
-x,1/2-y,z
x,1/2-y,1/2-z
-x,y,1/2-z
-x,-y,-z
x,1/2+y,-z
-x,1/2+y,1/2+z
x,-y,1/2+z
1/2+x,1/2+y,z
1/2-x,-y,z
1/2+x,-y,1/2-z
1/2-x,1/2+y,1/2-z
1/2-x,1/2-y,-z
1/2+x,y,-z
1/2-x,y,1/2+z
1/2+x,1/2-y,1/2+z
loop_
_atom_site_type_symbol
_atom_site_label
_atom_site_fract_x
_atom_site_fract_y
_atom_site_fract_z
Si Si1 0.891473 0.388526 0.172498
Si Si2 0.802137 0.392652 0.203796
Si Si3 0.250000 0.500000 0.042127
Si Si4 0.500000 0.250000 0.250000
Si Si5 0.923919 0.370878 0.842584
O O1 0.893923 0.250000 0.250000
O O2 0.846078 0.434460 0.165934
O O3 0.914639 0.497775 0.260683
O O4 0.907246 0.375589 0.006685
O O5 0.805596 0.250000 0.250000
O O6 0.784216 0.459231 0.347143
O O7 0.771318 0.404687 0.070160
O O8 0.529691 0.162476 0.157400
O O9 0.907070 0.250000 0.750000
#
# Coordination Sequence:
#
# PCOD9506756 Si02
#       5
#    16  16   8   4  16
#     4  11  22  39  64  93 123 163 206 252 305 364
#     4  10  21  36  56  85 119 155 201 245 294 350
#     4  10  20  36  56  82 118 160 196 244 294 346
#     4   8  24  44  64  88 128 152 204 248 316 368
#     4  10  22  43  62  90 125 157 202 249 309 368
#
# _framework density 18.343965000000001
#
# number of rings (size 3 to 8) (size 9 to 14) (size 15 to 20)
#    0.800    1.067    0.000    4.000    0.000    3.200 
#    0.000    6.667    0.000    0.000    0.000    0.000 
#    0.000    0.000    0.000    0.000    0.000    0.000 
#
# Total GULP energy -167022.750197 kJ/mol
# GULP energy per Si atom -5567.425007 kJ/mol
# Density = 1.830221 g / cm^3
# Si number density = 18.343965 Si / 1000 Ang^3
#
#
#
# Elastic Constant Matrix: (Units=GPa)
#
#
# Indices 1 2 3 4 5 6 
#
# 1 146.9284 38.7016 64.7479 0.0000 0.0000 0.0000
# 2 38.7016 93.8017 51.3443 0.0000 0.0000 0.0000
# 3 64.7479 51.3443 160.4187 0.0000 0.0000 0.0000
# 4 0.0000 0.0000 0.0000 24.7793 0.0000 0.0000
# 5 0.0000 0.0000 0.0000 0.0000 278.0924 0.0000
# 6 0.0000 0.0000 0.0000 0.0000 0.0000 32.1135
#
#
#
# Elastic Compliance Matrix: (Units=1/GPa)
#
#
# Indices 1 2 3 4 5 6 
#
# 1 0.008575 -0.001993 -0.002823 0.000000 0.000000 0.000000
# 2 -0.001993 0.013388 -0.003481 0.000000 0.000000 0.000000
# 3 -0.002823 -0.003481 0.008487 0.000000 0.000000 0.000000
# 4 0.000000 0.000000 0.000000 0.040356 0.000000 0.000000
# 5 0.000000 0.000000 0.000000 0.000000 0.003596 0.000000
# 6 0.000000 0.000000 0.000000 0.000000 0.000000 0.031140
#
#
# Mechanical properties :
#
#
# Convention : Reuss Voigt Hill
#
# Bulk Modulus (GPa) = 72.16501 78.97073 75.56787
# Shear Modulus (GPa) = 39.44622 83.42069 61.43345
#
# Velocity S-wave (km/s) = 4.64223 6.75089 5.79331
# Velocity P-wave (km/s) = 8.25585 10.19360 9.27547
#
# Compressibility (1/GPa) = 0.01385713
#
# Stress axis : x y z
#
# Youngs Moduli (GPa) = 116.61733 74.69247 117.82288
#
# Poissons Ratio (x) = 0.14883 0.33265
# Poissons Ratio (y) = 0.23237 0.41012
# Poissons Ratio (z) = 0.32924 0.25999
#
# Static dielectric constant tensor:
#      x y z
#    x 1.655030 0.000000 0.000000 
#    y 0.000000 1.627760 0.000000 
#    z 0.000000 0.000000 1.568760 
# 
# From -- ./inp_files/9317.got.cif
#   From: 2010.05.17/outbox.cif.g08.bks.cpg/sg68_5_cif.got.tgz:9317.got - 2010.06.03 18:57:09.
