data_PCOD9506201
_publ_section_title
;
Structure prediction by ZEFSAII (Michael W. Deem and Ramdas Pophale) SiO2 
 PCOD9506201
Probable space group: C C C A
;
_chemical_formula_sum "Si O2"
_cell_formula_units_Z 84
_cell_length_a 24.262140
_cell_length_b 9.939140
_cell_length_c 17.695697
_cell_angle_alpha 90.000000
_cell_angle_beta 90.000000
_cell_angle_gamma 90.000000
_cell_volume 4267.225423
_symmetry_space_group_name_H-M "C C C A"
_symmetry_group_IT_number 68
_space_group.IT_coordinate_system_code '2'
_symmetry_cell_setting 'orthorhombic'
loop_
_space_group_symop_operation_xyz
x,y,z
-x,1/2-y,z
x,1/2-y,1/2-z
-x,y,1/2-z
-x,-y,-z
x,1/2+y,-z
-x,1/2+y,1/2+z
x,-y,1/2+z
1/2+x,1/2+y,z
1/2-x,-y,z
1/2+x,-y,1/2-z
1/2-x,1/2+y,1/2-z
1/2-x,1/2-y,-z
1/2+x,y,-z
1/2-x,y,1/2+z
1/2+x,1/2-y,1/2+z
loop_
_atom_site_type_symbol
_atom_site_label
_atom_site_fract_x
_atom_site_fract_y
_atom_site_fract_z
Si Si1 0.581876 0.533789 0.176124
Si Si2 0.225776 0.649736 0.180011
Si Si3 0.661912 0.749442 0.342799
Si Si4 0.112778 0.465113 0.656102
Si Si5 0.500000 0.750000 0.250000
Si Si6 0.501924 0.399720 0.431022
O O1 0.632418 0.611963 0.136579
O O2 0.602638 0.466245 0.253450
O O3 0.538887 0.651866 0.201103
O O4 0.549043 0.431949 0.124061
O O5 0.215675 0.750000 0.250000
O O6 0.250000 0.500000 0.202382
O O7 0.275348 0.720403 0.134057
O O8 0.167786 0.620144 0.140588
O O9 0.662976 0.750000 0.250000
O O10 0.626004 0.620108 0.365014
O O11 0.058035 0.418448 0.615595
O O12 0.500000 0.250000 0.460929
O O13 0.500000 0.500000 0.500000
#
# Coordination Sequence:
#
# PCOD9506201 Si02
#       6
#    16  16  16  16   4  16
#     4  11  19  35  64  91 121 155 205 243 306 370
#     4   9  18  31  54  91 128 153 188 241 303 365
#     4   8  15  31  58  93 115 156 187 230 297 358
#     4  10  19  35  60  89 123 151 189 250 301 352
#     4  12  16  32  66  88 116 160 188 252 290 372
#     4  12  29  42  57  84 118 164 208 254 308 359
#
# _framework density 19.684923000000001
#
# number of rings (size 3 to 8) (size 9 to 14) (size 15 to 20)
#    0.000    1.905    4.762    1.143    6.667    0.762 
#    0.000    0.000    0.000    1.143    0.000    0.000 
#    0.000    0.000    0.000    0.000    0.000    0.000 
#
# Total GULP energy -234362.332065 kJ/mol
# GULP energy per Si atom -5580.055525 kJ/mol
# Density = 1.964012 g / cm^3
# Si number density = 19.684923 Si / 1000 Ang^3
#
#
#
# Elastic Constant Matrix: (Units=GPa)
#
#
# Indices 1 2 3 4 5 6 
#
# 1 133.5733 50.8362 21.1010 0.0000 0.0000 0.0000
# 2 50.8362 98.6831 25.8634 0.0000 0.0000 0.0000
# 3 21.1010 25.8634 24.7345 0.0000 0.0000 0.0000
# 4 0.0000 0.0000 0.0000 25.4443 0.0000 0.0000
# 5 0.0000 0.0000 0.0000 0.0000 -0.7202 0.0000
# 6 0.0000 0.0000 0.0000 0.0000 0.0000 34.0499
#
#
#
# Elastic Compliance Matrix: (Units=1/GPa)
#
#
# Indices 1 2 3 4 5 6 
#
# 1 0.009614 -0.003861 -0.004164 0.000000 0.000000 0.000000
# 2 -0.003861 0.015510 -0.012924 0.000000 0.000000 0.000000
# 3 -0.004164 -0.012924 0.057495 0.000000 0.000000 0.000000
# 4 0.000000 0.000000 0.000000 0.039302 0.000000 0.000000
# 5 0.000000 0.000000 0.000000 0.000000 -1.388448 0.000000
# 6 0.000000 0.000000 0.000000 0.000000 0.000000 0.029369
#
#
# Mechanical properties :
#
#
# Convention : Reuss Voigt Hill
#
# Bulk Modulus (GPa) = 24.55737 50.28803 37.42270
# Shear Modulus (GPa) = -4.23124 22.36747 9.06811
#
# Velocity S-wave (km/s) = -1.46770 3.37452 2.14863
# Velocity P-wave (km/s) = 3.10324 6.38632 5.02072
#
# Compressibility (1/GPa) = 0.04072098
#
# Stress axis : x y z
#
# Youngs Moduli (GPa) = 104.01642 64.47619 17.39271
#
# Poissons Ratio (x) = 0.24895 0.07243
# Poissons Ratio (y) = 0.40163 0.22478
# Poissons Ratio (z) = 0.43314 0.83326
#
# Static dielectric constant tensor:
#      x y z
#    x 1.708100 0.000000 0.000000 
#    y 0.000000 1.684630 0.000000 
#    z 0.000000 0.000000 1.658310 
# 
# From -- ./inp_files/40668.got.cif
#   From: 2010.05.17/outbox.cif.g08.bks.cpg/sg68_21_cif.got.tgz:40668.got - 2010.06.03 18:57:09.
