data_PCOD9506589
_publ_section_title
;
Structure prediction by ZEFSAII (Michael W. Deem and Ramdas Pophale) SiO2 
 PCOD9506589
Probable space group: C C C A
;
_chemical_formula_sum "Si O2"
_cell_formula_units_Z 104
_cell_length_a 21.067636
_cell_length_b 8.425002
_cell_length_c 27.982926
_cell_angle_alpha 90.000000
_cell_angle_beta 90.000000
_cell_angle_gamma 90.000000
_cell_volume 4966.825965
_symmetry_space_group_name_H-M "C C C A"
_symmetry_group_IT_number 68
_space_group.IT_coordinate_system_code '2'
_symmetry_cell_setting 'orthorhombic'
loop_
_space_group_symop_operation_xyz
x,y,z
-x,1/2-y,z
x,1/2-y,1/2-z
-x,y,1/2-z
-x,-y,-z
x,1/2+y,-z
-x,1/2+y,1/2+z
x,-y,1/2+z
1/2+x,1/2+y,z
1/2-x,-y,z
1/2+x,-y,1/2-z
1/2-x,1/2+y,1/2-z
1/2-x,1/2-y,-z
1/2+x,y,-z
1/2-x,y,1/2+z
1/2+x,1/2-y,1/2+z
loop_
_atom_site_type_symbol
_atom_site_label
_atom_site_fract_x
_atom_site_fract_y
_atom_site_fract_z
Si Si1 0.169367 0.193493 0.452758
Si Si2 0.424528 0.290281 0.695969
Si Si3 0.206860 0.347058 0.939602
Si Si4 0.071699 0.557268 0.056121
Si Si5 0.979070 0.091382 0.653920
Si Si6 0.500000 0.750000 0.478855
Si Si7 0.612137 0.442506 0.616950
O O1 0.175803 0.203483 0.510212
O O2 0.237901 0.220867 0.428583
O O3 0.123111 0.326727 0.428845
O O4 0.140290 0.020915 0.444116
O O5 0.500000 0.250000 0.691171
O O6 0.406541 0.250000 0.750000
O O7 0.431812 0.474710 0.682089
O O8 0.381189 0.186080 0.660284
O O9 0.250000 0.500000 0.952628
O O10 0.159786 0.413534 0.898352
O O11 0.058296 0.637227 0.106167
O O12 0.027169 0.399913 0.049666
O O13 0.051172 0.675392 0.014985
O O14 0.000000 0.250000 0.681044
O O15 0.043769 0.011832 0.632677
#
# Coordination Sequence:
#
# PCOD9506589 Si02
#       7
#    16  16  16  16  16   8  16
#     4  10  20  34  55  80 115 163 215 255 296 367
#     4   9  19  38  64  90 116 154 204 249 326 403
#     4   9  21  36  53  84 115 161 221 264 304 348
#     4  11  21  33  49  78 118 162 203 249 300 362
#     4  11  22  37  55  91 125 154 199 252 312 384
#     4  10  24  30  46  80 117 169 206 240 302 364
#     4  10  20  38  60  80 121 162 208 256 309 379
#
# _framework density 20.938927
#
# number of rings (size 3 to 8) (size 9 to 14) (size 15 to 20)
#    0.000    2.000    2.308    0.923    9.692    0.000 
#    2.769    6.154    0.000    0.000    0.000   22.615 
#    0.000    0.000    0.000    0.000    0.000    0.000 
#
# Total GULP energy -289559.488112 kJ/mol
# GULP energy per Si atom -5568.451694 kJ/mol
# Density = 2.089127 g / cm^3
# Si number density = 20.938927 Si / 1000 Ang^3
#
#
#
# Elastic Constant Matrix: (Units=GPa)
#
#
# Indices 1 2 3 4 5 6 
#
# 1 95.1806 46.4501 37.7884 0.0000 0.0000 0.0000
# 2 46.4501 102.2045 50.6132 0.0000 0.0000 0.0000
# 3 37.7884 50.6132 107.3813 0.0000 0.0000 0.0000
# 4 0.0000 0.0000 0.0000 6.6020 0.0000 0.0000
# 5 0.0000 0.0000 0.0000 0.0000 -2.4421 0.0000
# 6 0.0000 0.0000 0.0000 0.0000 0.0000 54.3646
#
#
#
# Elastic Compliance Matrix: (Units=1/GPa)
#
#
# Indices 1 2 3 4 5 6 
#
# 1 0.014003 -0.005118 -0.002515 0.000000 0.000000 0.000000
# 2 -0.005118 0.014634 -0.005097 0.000000 0.000000 0.000000
# 3 -0.002515 -0.005097 0.012600 0.000000 0.000000 0.000000
# 4 0.000000 0.000000 0.000000 0.151469 0.000000 0.000000
# 5 0.000000 0.000000 0.000000 0.000000 -0.409490 0.000000
# 6 0.000000 0.000000 0.000000 0.000000 0.000000 0.018394
#
#
# Mechanical properties :
#
#
# Convention : Reuss Voigt Hill
#
# Bulk Modulus (GPa) = 63.38431 63.82998 63.60715
# Shear Modulus (GPa) = -29.82052 23.03257 -3.39398
#
# Velocity S-wave (km/s) = -3.77791 3.32020 -1.27452
# Velocity P-wave (km/s) = 3.36254 6.72669 5.31766
#
# Compressibility (1/GPa) = 0.01577677
#
# Stress axis : x y z
#
# Youngs Moduli (GPa) = 71.41413 68.33187 79.36548
#
# Poissons Ratio (x) = 0.34976 0.19962
# Poissons Ratio (y) = 0.36553 0.40449
# Poissons Ratio (z) = 0.17962 0.34826
#
# Static dielectric constant tensor:
#      x y z
#    x 1.866740 0.000000 0.000000 
#    y 0.000000 1.974130 0.000000 
#    z 0.000000 0.000000 1.710250 
# 
# From -- ./inp_files/51834.got.cif
#   From: 2010.05.17/outbox.cif.g08.bks.cpg/sg68_26_cif.got.tgz:51834.got - 2010.06.03 18:57:09.
