data_PCOD9506185
_publ_section_title
;
Structure prediction by ZEFSAII (Michael W. Deem and Ramdas Pophale) SiO2 
 PCOD9506185
Probable space group: C C C A
;
_chemical_formula_sum "Si O2"
_cell_formula_units_Z 64
_cell_length_a 23.527052
_cell_length_b 14.922286
_cell_length_c 8.764795
_cell_angle_alpha 90.000000
_cell_angle_beta 90.000000
_cell_angle_gamma 90.000000
_cell_volume 3077.121429
_symmetry_space_group_name_H-M "C C C A"
_symmetry_group_IT_number 68
_space_group.IT_coordinate_system_code '2'
_symmetry_cell_setting 'orthorhombic'
loop_
_space_group_symop_operation_xyz
x,y,z
-x,1/2-y,z
x,1/2-y,1/2-z
-x,y,1/2-z
-x,-y,-z
x,1/2+y,-z
-x,1/2+y,1/2+z
x,-y,1/2+z
1/2+x,1/2+y,z
1/2-x,-y,z
1/2+x,-y,1/2-z
1/2-x,1/2+y,1/2-z
1/2-x,1/2-y,-z
1/2+x,y,-z
1/2-x,y,1/2+z
1/2+x,1/2-y,1/2+z
loop_
_atom_site_type_symbol
_atom_site_label
_atom_site_fract_x
_atom_site_fract_y
_atom_site_fract_z
Si Si1 0.500000 0.469654 0.250000
Si Si2 0.061492 0.109240 0.464429
Si Si3 0.202245 0.386329 0.322384
Si Si4 0.604501 0.250000 0.750000
Si Si5 0.190146 0.920091 0.029200
O O1 0.546307 0.535135 0.332972
O O2 0.478310 0.410194 0.391440
O O3 0.064793 0.201408 0.372244
O O4 0.124557 0.104347 0.533690
O O5 0.149042 0.319003 0.330687
O O6 0.191835 0.477589 0.414460
O O7 0.264972 0.358813 0.379205
O O8 0.207092 0.411836 0.146291
#
# Coordination Sequence:
#
# PCOD9506185 Si02
#       5
#     8  16  16   8  16
#     4  10  22  41  68  89 114 170 228 250 298 378
#     4  10  21  39  64  89 121 164 212 264 307 358
#     4  10  20  34  59  89 119 157 198 244 305 383
#     4  10  22  37  62  94 130 157 188 260 328 356
#     4  10  19  35  58  84 118 161 202 239 299 377
#
# _framework density 20.798659000000001
#
# number of rings (size 3 to 8) (size 9 to 14) (size 15 to 20)
#    0.000    2.000    0.000    6.000    0.000    4.500 
#    0.000    0.000    0.000   72.000    0.000    0.000 
#    0.000    0.000    0.000    0.000    0.000    0.000 
#
# Total GULP energy -178343.359636 kJ/mol
# GULP energy per Si atom -5573.229989 kJ/mol
# Density = 2.075132 g / cm^3
# Si number density = 20.798659 Si / 1000 Ang^3
#
#
#
# Elastic Constant Matrix: (Units=GPa)
#
#
# Indices 1 2 3 4 5 6 
#
# 1 82.7512 35.9957 54.1509 0.0000 0.0000 0.0000
# 2 35.9957 82.4018 71.2781 0.0000 0.0000 0.0000
# 3 54.1509 71.2781 121.4170 0.0000 0.0000 0.0000
# 4 0.0000 0.0000 0.0000 27.9580 0.0000 0.0000
# 5 0.0000 0.0000 0.0000 0.0000 28.2384 0.0000
# 6 0.0000 0.0000 0.0000 0.0000 0.0000 4.7094
#
#
#
# Elastic Compliance Matrix: (Units=1/GPa)
#
#
# Indices 1 2 3 4 5 6 
#
# 1 0.017193 -0.001783 -0.006621 0.000000 0.000000 0.000000
# 2 -0.001783 0.024841 -0.013788 0.000000 0.000000 0.000000
# 3 -0.006621 -0.013788 0.019283 0.000000 0.000000 0.000000
# 4 0.000000 0.000000 0.000000 0.035768 0.000000 0.000000
# 5 0.000000 0.000000 0.000000 0.000000 0.035413 0.000000
# 6 0.000000 0.000000 0.000000 0.000000 0.000000 0.212343
#
#
# Mechanical properties :
#
#
# Convention : Reuss Voigt Hill
#
# Bulk Modulus (GPa) = 59.05571 67.71328 63.38449
# Shear Modulus (GPa) = 12.66243 20.52416 16.59329
#
# Velocity S-wave (km/s) = 2.47008 3.14475 2.82761
# Velocity P-wave (km/s) = 6.04903 6.76854 6.41887
#
# Compressibility (1/GPa) = 0.01693316
#
# Stress axis : x y z
#
# Youngs Moduli (GPa) = 58.16410 40.25586 51.85873
#
# Poissons Ratio (x) = 0.07178 0.34336
# Poissons Ratio (y) = 0.10371 0.71502
# Poissons Ratio (z) = 0.38511 0.55504
#
# Static dielectric constant tensor:
#      x y z
#    x 1.845110 0.000000 0.000000 
#    y 0.000000 1.790320 0.000000 
#    z 0.000000 0.000000 1.742550 
# 
# From -- ./inp_files/5044.got.cif
#   From: 2010.05.17/outbox.cif.g08.bks.cpg/sg68_3_cif.got.tgz:5044.got - 2010.06.03 18:57:09.
