data_PCOD9506795
_publ_section_title
;
Structure prediction by ZEFSAII (Michael W. Deem and Ramdas Pophale) SiO2 
 PCOD9506795
Probable space group: C C C A
;
_chemical_formula_sum "Si O2"
_cell_formula_units_Z 116
_cell_length_a 15.168362
_cell_length_b 22.588553
_cell_length_c 17.197498
_cell_angle_alpha 90.000000
_cell_angle_beta 90.000000
_cell_angle_gamma 90.000000
_cell_volume 5892.401938
_symmetry_space_group_name_H-M "C C C A"
_symmetry_group_IT_number 68
_space_group.IT_coordinate_system_code '2'
_symmetry_cell_setting 'orthorhombic'
loop_
_space_group_symop_operation_xyz
x,y,z
-x,1/2-y,z
x,1/2-y,1/2-z
-x,y,1/2-z
-x,-y,-z
x,1/2+y,-z
-x,1/2+y,1/2+z
x,-y,1/2+z
1/2+x,1/2+y,z
1/2-x,-y,z
1/2+x,-y,1/2-z
1/2-x,1/2+y,1/2-z
1/2-x,1/2-y,-z
1/2+x,y,-z
1/2-x,y,1/2+z
1/2+x,1/2-y,1/2+z
loop_
_atom_site_type_symbol
_atom_site_label
_atom_site_fract_x
_atom_site_fract_y
_atom_site_fract_z
Si Si1 0.257169 0.376432 0.997469
Si Si2 0.089997 0.147737 0.293135
Si Si3 0.500000 0.750000 0.750000
Si Si4 0.590839 0.936913 0.063382
Si Si5 0.880381 0.849317 0.193858
Si Si6 0.751413 0.649807 0.173859
Si Si7 0.440443 0.423136 0.058464
Si Si8 0.721372 0.216586 0.612835
O O1 0.247806 0.385263 0.905984
O O2 0.190630 0.419948 0.041656
O O3 0.357985 0.390953 0.017041
O O4 0.226882 0.309970 0.025234
O O5 0.074034 0.093375 0.352918
O O6 0.166657 0.136892 0.228580
O O7 0.128008 0.199575 0.348711
O O8 0.000000 0.162679 0.250000
O O9 0.559698 0.708109 0.801331
O O10 0.576088 0.006903 0.063983
O O11 0.526305 0.912479 0.994973
O O12 0.840816 0.863075 0.278458
O O13 0.934607 0.897384 0.145784
O O14 0.792288 0.828500 0.150125
O O15 0.744800 0.718487 0.144776
#
# Coordination Sequence:
#
# PCOD9506795 Si02
#       8
#    16  16   4  16  16  16  16  16
#     4  10  21  36  61  84 115 155 195 240 289 357
#     4  10  20  36  59  83 113 149 195 244 292 343
#     4  12  20  36  60  84 122 144 182 240 294 364
#     4  10  22  41  61  81 112 157 201 246 293 352
#     4  10  21  35  58  84 115 150 183 237 298 350
#     4  11  20  36  56  88 121 149 191 241 296 352
#     4  10  22  42  59  81 115 154 199 245 296 352
#     4   9  19  37  54  81 117 155 184 226 293 353
#
# _framework density 19.686368999999999
#
# number of rings (size 3 to 8) (size 9 to 14) (size 15 to 20)
#    0.000    1.931    1.379    3.724    1.931    1.103 
#    1.241    2.759    0.000    0.000    0.000    0.000 
#    0.000    0.000    0.000    0.000    0.000    0.000 
#
# Total GULP energy -323123.611370 kJ/mol
# GULP energy per Si atom -5571.096748 kJ/mol
# Density = 1.964156 g / cm^3
# Si number density = 19.686369 Si / 1000 Ang^3
#
#
#
# Elastic Constant Matrix: (Units=GPa)
#
#
# Indices 1 2 3 4 5 6 
#
# 1 77.3279 4.3157 25.1503 0.0000 0.0000 0.0000
# 2 4.3157 54.8133 21.1128 0.0000 0.0000 0.0000
# 3 25.1503 21.1128 110.4783 0.0000 0.0000 0.0000
# 4 0.0000 0.0000 0.0000 27.6969 0.0000 0.0000
# 5 0.0000 0.0000 0.0000 0.0000 33.0673 0.0000
# 6 0.0000 0.0000 0.0000 0.0000 0.0000 17.3395
#
#
#
# Elastic Compliance Matrix: (Units=1/GPa)
#
#
# Indices 1 2 3 4 5 6 
#
# 1 0.013967 0.000135 -0.003205 0.000000 0.000000 0.000000
# 2 0.000135 0.019695 -0.003794 0.000000 0.000000 0.000000
# 3 -0.003205 -0.003794 0.010506 0.000000 0.000000 0.000000
# 4 0.000000 0.000000 0.000000 0.036105 0.000000 0.000000
# 5 0.000000 0.000000 0.000000 0.000000 0.030241 0.000000
# 6 0.000000 0.000000 0.000000 0.000000 0.000000 0.057672
#
#
# Mechanical properties :
#
#
# Convention : Reuss Voigt Hill
#
# Bulk Modulus (GPa) = 32.85338 38.19746 35.52542
# Shear Modulus (GPa) = 26.03324 28.42345 27.22835
#
# Velocity S-wave (km/s) = 3.64043 3.80388 3.72305
# Velocity P-wave (km/s) = 5.86472 6.22397 6.04701
#
# Compressibility (1/GPa) = 0.03043826
#
# Stress axis : x y z
#
# Youngs Moduli (GPa) = 71.59775 50.77521 95.18030
#
# Poissons Ratio (x) = -0.00685 0.30509
# Poissons Ratio (y) = -0.00966 0.36116
# Poissons Ratio (z) = 0.22950 0.19266
#
# Static dielectric constant tensor:
#      x y z
#    x 1.333850 0.000000 0.000000 
#    y 0.000000 1.714830 0.000000 
#    z 0.000000 0.000000 1.781380 
# 
# From -- ./inp_files/31262.got.cif
#   From: 2010.05.17/outbox.cif.g08.bks.cpg/sg68_16_cif.got.tgz:31262.got - 2010.06.03 18:57:09.
