data_PCOD9506032
_publ_section_title
;
Structure prediction by ZEFSAII (Michael W. Deem and Ramdas Pophale) SiO2 
 PCOD9506032
Probable space group: C C C A
;
_chemical_formula_sum "Si O2"
_cell_formula_units_Z 128
_cell_length_a 20.174579
_cell_length_b 21.736868
_cell_length_c 16.547927
_cell_angle_alpha 90.000000
_cell_angle_beta 90.000000
_cell_angle_gamma 90.000000
_cell_volume 7256.798182
_symmetry_space_group_name_H-M "C C C A"
_symmetry_group_IT_number 68
_space_group.IT_coordinate_system_code '2'
_symmetry_cell_setting 'orthorhombic'
loop_
_space_group_symop_operation_xyz
x,y,z
-x,1/2-y,z
x,1/2-y,1/2-z
-x,y,1/2-z
-x,-y,-z
x,1/2+y,-z
-x,1/2+y,1/2+z
x,-y,1/2+z
1/2+x,1/2+y,z
1/2-x,-y,z
1/2+x,-y,1/2-z
1/2-x,1/2+y,1/2-z
1/2-x,1/2-y,-z
1/2+x,y,-z
1/2-x,y,1/2+z
1/2+x,1/2-y,1/2+z
loop_
_atom_site_type_symbol
_atom_site_label
_atom_site_fract_x
_atom_site_fract_y
_atom_site_fract_z
Si Si1 0.526999 0.682816 0.448210
Si Si2 0.866367 0.393820 0.506315
Si Si3 0.538578 0.986654 0.083118
Si Si4 0.612381 0.680822 0.282243
Si Si5 0.846868 0.534141 0.325766
Si Si6 0.329396 0.991189 0.641501
Si Si7 0.568640 0.405193 0.635767
Si Si8 0.719228 0.599366 0.364510
O O1 0.500000 0.750000 0.464937
O O2 0.582499 0.662414 0.513804
O O3 0.565442 0.683418 0.361298
O O4 0.464356 0.637002 0.434253
O O5 0.910714 0.434280 0.444845
O O6 0.849611 0.437011 0.580727
O O7 0.799848 0.381133 0.455631
O O8 0.584695 0.037098 0.124843
O O9 0.487172 0.957809 0.146134
O O10 0.500000 0.000000 0.000000
O O11 0.620811 0.750000 0.250000
O O12 0.581079 0.637814 0.212733
O O13 0.680858 0.647768 0.308094
O O14 0.854357 0.528276 0.229955
O O15 0.796296 0.588350 0.348450
O O16 0.811802 0.468513 0.347437
O O17 0.250000 0.000000 0.643276
O O18 0.365550 0.055139 0.617007
#
# Coordination Sequence:
#
# PCOD9506032 Si02
#       8
#    16  16  16  16  16  16  16  16
#     4  10  20  33  52  79 112 149 189 230 295 343
#     4   9  21  33  52  75 112 147 188 224 284 339
#     4  10  20  34  50  81 112 148 179 225 296 331
#     4  11  19  30  52  84 112 150 187 224 291 355
#     4  10  19  33  53  76 113 144 191 228 279 338
#     4  12  22  34  53  83 110 159 189 228 282 336
#     4  11  21  31  49  79 120 137 181 232 276 350
#     4   9  18  35  49  78 109 148 178 229 277 334
#
# _framework density 17.638632999999999
#
# number of rings (size 3 to 8) (size 9 to 14) (size 15 to 20)
#    0.000    1.750    5.000    1.125    5.250    0.000 
#    0.000    0.000    0.000    0.750   13.000    0.000 
#    0.000    4.000    0.000    0.000    0.000    0.000 
#
# Total GULP energy -356375.059810 kJ/mol
# GULP energy per Si atom -5568.360310 kJ/mol
# Density = 1.759849 g / cm^3
# Si number density = 17.638633 Si / 1000 Ang^3
#
#
#
# Elastic Constant Matrix: (Units=GPa)
#
#
# Indices 1 2 3 4 5 6 
#
# 1 106.0224 54.2364 44.1128 0.0000 0.0000 0.0000
# 2 54.2364 86.7233 42.6717 0.0000 0.0000 0.0000
# 3 44.1128 42.6717 60.1981 0.0000 0.0000 0.0000
# 4 0.0000 0.0000 0.0000 20.9324 0.0000 0.0000
# 5 0.0000 0.0000 0.0000 0.0000 17.1439 0.0000
# 6 0.0000 0.0000 0.0000 0.0000 0.0000 29.0796
#
#
#
# Elastic Compliance Matrix: (Units=1/GPa)
#
#
# Indices 1 2 3 4 5 6 
#
# 1 0.015538 -0.006319 -0.006907 0.000000 0.000000 0.000000
# 2 -0.006319 0.020277 -0.009743 0.000000 0.000000 0.000000
# 3 -0.006907 -0.009743 0.028579 0.000000 0.000000 0.000000
# 4 0.000000 0.000000 0.000000 0.047773 0.000000 0.000000
# 5 0.000000 0.000000 0.000000 0.000000 0.058330 0.000000
# 6 0.000000 0.000000 0.000000 0.000000 0.000000 0.034388
#
#
# Mechanical properties :
#
#
# Convention : Reuss Voigt Hill
#
# Bulk Modulus (GPa) = 54.18052 59.44283 56.81168
# Shear Modulus (GPa) = 19.45712 20.89270 20.17491
#
# Velocity S-wave (km/s) = 3.32489 3.44537 3.38567
# Velocity P-wave (km/s) = 6.74711 7.04279 6.89654
#
# Compressibility (1/GPa) = 0.01845682
#
# Stress axis : x y z
#
# Youngs Moduli (GPa) = 64.35694 49.31792 34.99021
#
# Poissons Ratio (x) = 0.31164 0.24168
# Poissons Ratio (y) = 0.40667 0.34090
# Poissons Ratio (z) = 0.44452 0.48049
#
# Static dielectric constant tensor:
#      x y z
#    x 1.689380 0.000000 0.000000 
#    y 0.000000 1.499920 0.000000 
#    z 0.000000 0.000000 1.640840 
# 
# From -- ./inp_files/33270.got.cif
#   From: 2010.05.17/outbox.cif.g08.bks.cpg/sg68_17_cif.got.tgz:33270.got - 2010.06.03 18:57:09.
