data_PCOD9506587
_publ_section_title
;
Structure prediction by ZEFSAII (Michael W. Deem and Ramdas Pophale) SiO2 
 PCOD9506587
Probable space group: C C C A
;
_chemical_formula_sum "Si O2"
_cell_formula_units_Z 88
_cell_length_a 20.310756
_cell_length_b 8.835015
_cell_length_c 21.240328
_cell_angle_alpha 90.000000
_cell_angle_beta 90.000000
_cell_angle_gamma 90.000000
_cell_volume 3811.488371
_symmetry_space_group_name_H-M "C C C A"
_symmetry_group_IT_number 68
_space_group.IT_coordinate_system_code '2'
_symmetry_cell_setting 'orthorhombic'
loop_
_space_group_symop_operation_xyz
x,y,z
-x,1/2-y,z
x,1/2-y,1/2-z
-x,y,1/2-z
-x,-y,-z
x,1/2+y,-z
-x,1/2+y,1/2+z
x,-y,1/2+z
1/2+x,1/2+y,z
1/2-x,-y,z
1/2+x,-y,1/2-z
1/2-x,1/2+y,1/2-z
1/2-x,1/2-y,-z
1/2+x,y,-z
1/2-x,y,1/2+z
1/2+x,1/2-y,1/2+z
loop_
_atom_site_type_symbol
_atom_site_label
_atom_site_fract_x
_atom_site_fract_y
_atom_site_fract_z
Si Si1 0.465156 0.082640 0.189901
Si Si2 0.649864 0.244134 0.562128
Si Si3 0.174153 0.488543 0.847046
Si Si4 0.852248 0.700246 0.421636
Si Si5 0.750000 0.000000 0.098243
Si Si6 0.468155 0.492524 0.568629
O O1 0.500000 0.250000 0.187471
O O2 0.500000 0.008088 0.250000
O O3 0.480542 0.992295 0.125515
O O4 0.385639 0.072817 0.196649
O O5 0.658289 0.349690 0.622358
O O6 0.656490 0.329780 0.495997
O O7 0.709561 0.125957 0.561492
O O8 0.582691 0.147565 0.566551
O O9 0.250000 0.500000 0.823725
O O10 0.167446 0.369119 0.904830
O O11 0.809053 0.598006 0.373639
O O12 0.926432 0.644310 0.416003
O O13 0.500000 0.500000 0.500000
#
# Coordination Sequence:
#
# PCOD9506587 Si02
#       6
#    16  16  16  16   8  16
#     4  11  25  49  78 102 140 197 244 298 367 438
#     4  11  23  35  61  99 145 192 226 300 366 431
#     4  12  24  41  69 105 140 187 249 299 363 441
#     4  11  21  36  60  98 145 190 236 294 361 429
#     4  10  20  34  54  90 144 194 224 278 368 440
#     4  11  24  43  68 102 142 185 249 301 357 418
#
# _framework density 23.088093000000001
#
# number of rings (size 3 to 8) (size 9 to 14) (size 15 to 20)
#    0.000    0.909    3.636    4.909    2.545    2.182 
#    0.000    2.727   16.000    0.000    0.000    0.000 
#    0.000    0.000    0.000    0.000    0.000    0.000 
#
# Total GULP energy -245266.632855 kJ/mol
# GULP energy per Si atom -5574.241656 kJ/mol
# Density = 2.303554 g / cm^3
# Si number density = 23.088093 Si / 1000 Ang^3
#
#
#
# Elastic Constant Matrix: (Units=GPa)
#
#
# Indices 1 2 3 4 5 6 
#
# 1 186.9327 40.0021 41.1552 0.0000 0.0000 0.0000
# 2 40.0021 73.8141 8.1465 0.0000 0.0000 0.0000
# 3 41.1552 8.1465 75.7616 0.0000 0.0000 0.0000
# 4 0.0000 0.0000 0.0000 13.4060 0.0000 0.0000
# 5 0.0000 0.0000 0.0000 0.0000 12.6305 0.0000
# 6 0.0000 0.0000 0.0000 0.0000 0.0000 33.2222
#
#
#
# Elastic Compliance Matrix: (Units=1/GPa)
#
#
# Indices 1 2 3 4 5 6 
#
# 1 0.006792 -0.003313 -0.003334 0.000000 0.000000 0.000000
# 2 -0.003313 0.015326 0.000152 0.000000 0.000000 0.000000
# 3 -0.003334 0.000152 0.014994 0.000000 0.000000 0.000000
# 4 0.000000 0.000000 0.000000 0.074594 0.000000 0.000000
# 5 0.000000 0.000000 0.000000 0.000000 0.079174 0.000000
# 6 0.000000 0.000000 0.000000 0.000000 0.000000 0.030100
#
#
# Mechanical properties :
#
#
# Convention : Reuss Voigt Hill
#
# Bulk Modulus (GPa) = 41.45470 57.23511 49.34491
# Shear Modulus (GPa) = 20.66024 28.33204 24.49614
#
# Velocity S-wave (km/s) = 2.99464 3.50684 3.26081
# Velocity P-wave (km/s) = 5.47276 6.42191 5.96624
#
# Compressibility (1/GPa) = 0.02412272
#
# Stress axis : x y z
#
# Youngs Moduli (GPa) = 147.22332 65.24741 66.69419
#
# Poissons Ratio (x) = 0.21617 0.22233
# Poissons Ratio (y) = 0.48777 -0.01012
# Poissons Ratio (z) = 0.49077 -0.00990
#
# Static dielectric constant tensor:
#      x y z
#    x 1.986450 0.000000 0.000000 
#    y 0.000000 1.947320 0.000000 
#    z 0.000000 0.000000 1.818700 
# 
# From -- ./inp_files/46471.got.cif
#   From: 2010.05.17/outbox.cif.g08.bks.cpg/sg68_24_cif.got.tgz:46471.got - 2010.06.03 18:57:09.
