data_PCOD9506184
_publ_section_title
;
Structure prediction by ZEFSAII (Michael W. Deem and Ramdas Pophale) SiO2 
 PCOD9506184
Probable space group: C C C A
;
_chemical_formula_sum "Si O2"
_cell_formula_units_Z 64
_cell_length_a 7.768853
_cell_length_b 20.027922
_cell_length_c 18.646634
_cell_angle_alpha 90.000000
_cell_angle_beta 90.000000
_cell_angle_gamma 90.000000
_cell_volume 2901.304033
_symmetry_space_group_name_H-M "C C C A"
_symmetry_group_IT_number 68
_space_group.IT_coordinate_system_code '2'
_symmetry_cell_setting 'orthorhombic'
loop_
_space_group_symop_operation_xyz
x,y,z
-x,1/2-y,z
x,1/2-y,1/2-z
-x,y,1/2-z
-x,-y,-z
x,1/2+y,-z
-x,1/2+y,1/2+z
x,-y,1/2+z
1/2+x,1/2+y,z
1/2-x,-y,z
1/2+x,-y,1/2-z
1/2-x,1/2+y,1/2-z
1/2-x,1/2-y,-z
1/2+x,y,-z
1/2-x,y,1/2+z
1/2+x,1/2-y,1/2+z
loop_
_atom_site_type_symbol
_atom_site_label
_atom_site_fract_x
_atom_site_fract_y
_atom_site_fract_z
Si Si1 0.180377 0.707031 0.918194
Si Si2 0.550896 0.478029 0.420371
Si Si3 0.522024 0.901834 0.334407
Si Si4 0.306267 0.842113 0.921123
O O1 0.314796 0.764884 0.899090
O O2 0.000000 0.750000 0.927569
O O3 0.162566 0.652191 0.857282
O O4 0.217004 0.668420 0.992749
O O5 0.500000 0.500000 0.500000
O O6 0.750000 0.500000 0.411973
O O7 0.448566 0.524211 0.365183
O O8 0.547690 0.398188 0.411881
O O9 0.500000 0.903461 0.250000
O O10 0.355383 0.872726 0.377473
#
# Coordination Sequence:
#
# PCOD9506184 Si02
#       4
#    16  16  16  16
#     4   9  17  31  55  85 113 156 201 248 299 369
#     4  10  19  35  58  84 116 153 196 249 301 366
#     4  10  20  34  57  85 117 157 204 255 312 371
#     4   9  18  32  54  82 117 151 199 247 297 369
#
# _framework density 22.059047
#
# number of rings (size 3 to 8) (size 9 to 14) (size 15 to 20)
#    0.000    2.500    2.500    0.000    0.000    4.500 
#    0.000    3.750    0.000    3.000    0.000    5.250 
#    0.000    0.000    0.000    0.000    0.000    0.000 
#
# Total GULP energy -178345.552268 kJ/mol
# GULP energy per Si atom -5573.298508 kJ/mol
# Density = 2.200884 g / cm^3
# Si number density = 22.059047 Si / 1000 Ang^3
#
#
#
# Elastic Constant Matrix: (Units=GPa)
#
#
# Indices 1 2 3 4 5 6 
#
# 1 63.1282 41.5825 9.6015 0.0000 0.0000 0.0000
# 2 41.5825 232.8615 110.6724 0.0000 0.0000 0.0000
# 3 9.6015 110.6724 133.0669 0.0000 0.0000 0.0000
# 4 0.0000 0.0000 0.0000 21.8181 0.0000 0.0000
# 5 0.0000 0.0000 0.0000 0.0000 24.5400 0.0000
# 6 0.0000 0.0000 0.0000 0.0000 0.0000 24.9254
#
#
#
# Elastic Compliance Matrix: (Units=1/GPa)
#
#
# Indices 1 2 3 4 5 6 
#
# 1 0.018376 -0.004384 0.002321 0.000000 0.000000 0.000000
# 2 -0.004384 0.008148 -0.006460 0.000000 0.000000 0.000000
# 3 0.002321 -0.006460 0.012720 0.000000 0.000000 0.000000
# 4 0.000000 0.000000 0.000000 0.045834 0.000000 0.000000
# 5 0.000000 0.000000 0.000000 0.000000 0.040750 0.000000
# 6 0.000000 0.000000 0.000000 0.000000 0.000000 0.040120
#
#
# Mechanical properties :
#
#
# Convention : Reuss Voigt Hill
#
# Bulk Modulus (GPa) = 45.05279 83.64106 64.34692
# Shear Modulus (GPa) = 26.26146 32.07005 29.16576
#
# Velocity S-wave (km/s) = 3.45412 3.81705 3.64011
# Velocity P-wave (km/s) = 6.03125 7.57797 6.84842
#
# Compressibility (1/GPa) = 0.02219618
#
# Stress axis : x y z
#
# Youngs Moduli (GPa) = 54.41951 122.73597 78.61377
#
# Poissons Ratio (x) = 0.53811 -0.18242
# Poissons Ratio (y) = 0.23859 0.50785
# Poissons Ratio (z) = -0.12628 0.79288
#
# Static dielectric constant tensor:
#      x y z
#    x 1.957020 0.000000 0.000000 
#    y 0.000000 1.881530 0.000000 
#    z 0.000000 0.000000 1.689930 
# 
# From -- ./inp_files/20603.got.cif
#   From: 2010.05.17/outbox.cif.g08.bks.cpg/sg68_11_cif.got.tgz:20603.got - 2010.06.03 18:57:09.
