data_PCOD9506783
_publ_section_title
;
Structure prediction by ZEFSAII (Michael W. Deem and Ramdas Pophale) SiO2 
 PCOD9506783
Probable space group: C C C A
;
_chemical_formula_sum "Si O2"
_cell_formula_units_Z 84
_cell_length_a 8.101735
_cell_length_b 23.128920
_cell_length_c 22.546601
_cell_angle_alpha 90.000000
_cell_angle_beta 90.000000
_cell_angle_gamma 90.000000
_cell_volume 4224.880865
_symmetry_space_group_name_H-M "C C C A"
_symmetry_group_IT_number 68
_space_group.IT_coordinate_system_code '2'
_symmetry_cell_setting 'orthorhombic'
loop_
_space_group_symop_operation_xyz
x,y,z
-x,1/2-y,z
x,1/2-y,1/2-z
-x,y,1/2-z
-x,-y,-z
x,1/2+y,-z
-x,1/2+y,1/2+z
x,-y,1/2+z
1/2+x,1/2+y,z
1/2-x,-y,z
1/2+x,-y,1/2-z
1/2-x,1/2+y,1/2-z
1/2-x,1/2-y,-z
1/2+x,y,-z
1/2-x,y,1/2+z
1/2+x,1/2-y,1/2+z
loop_
_atom_site_type_symbol
_atom_site_label
_atom_site_fract_x
_atom_site_fract_y
_atom_site_fract_z
Si Si1 0.392648 0.704348 0.989990
Si Si2 0.655501 0.144280 0.182149
Si Si3 0.000000 0.956491 0.250000
Si Si4 0.179651 0.121969 0.609858
Si Si5 0.250000 0.500000 0.342778
Si Si6 0.000000 0.250000 0.750000
Si Si7 0.008485 0.816067 0.874387
O O1 0.500000 0.750000 0.950985
O O2 0.339982 0.648028 0.955415
O O3 0.250000 0.750000 0.000000
O O4 0.466533 0.687182 0.053780
O O5 0.639134 0.088780 0.225791
O O6 0.498668 0.132385 0.139281
O O7 0.612721 0.205352 0.213000
O O8 0.833486 0.150822 0.151939
O O9 0.089606 0.994565 0.200051
O O10 0.234630 0.056287 0.616667
O O11 0.330770 0.156771 0.639367
O O12 0.000000 0.750000 0.853480
#
# Coordination Sequence:
#
# PCOD9506783 Si02
#       7
#    16  16   8  16   8   4  16
#     4  11  20  36  62  93 127 163 202 247 311 381
#     4  10  22  39  59  91 127 160 205 263 316 371
#     4   9  22  43  66  86 115 174 217 266 324 360
#     4  11  23  41  63  91 124 165 207 261 306 372
#     4  10  24  44  66  88 122 166 218 268 308 374
#     4  10  20  36  58  84 128 158 190 260 324 366
#     4  11  22  36  63  97 125 165 205 250 316 379
#
# _framework density 19.882218000000002
#
# number of rings (size 3 to 8) (size 9 to 14) (size 15 to 20)
#    0.000    1.524    3.810    2.286    4.000    0.000 
#    0.000    8.095    0.000    0.000    0.000    0.000 
#    0.000    0.000    0.000    0.000    0.000    0.000 
#
# Total GULP energy -233973.713734 kJ/mol
# GULP energy per Si atom -5570.802708 kJ/mol
# Density = 1.983696 g / cm^3
# Si number density = 19.882218 Si / 1000 Ang^3
#
#
#
# Elastic Constant Matrix: (Units=GPa)
#
#
# Indices 1 2 3 4 5 6 
#
# 1 93.1525 15.5829 3.0813 0.0000 0.0000 0.0000
# 2 15.5829 108.6724 20.6373 0.0000 0.0000 0.0000
# 3 3.0813 20.6373 37.7794 0.0000 0.0000 0.0000
# 4 0.0000 0.0000 0.0000 19.1780 0.0000 0.0000
# 5 0.0000 0.0000 0.0000 0.0000 25.3099 0.0000
# 6 0.0000 0.0000 0.0000 0.0000 0.0000 23.8666
#
#
#
# Elastic Compliance Matrix: (Units=1/GPa)
#
#
# Indices 1 2 3 4 5 6 
#
# 1 0.010999 -0.001570 -0.000040 0.000000 0.000000 0.000000
# 2 -0.001570 0.010491 -0.005603 0.000000 0.000000 0.000000
# 3 -0.000040 -0.005603 0.029533 0.000000 0.000000 0.000000
# 4 0.000000 0.000000 0.000000 0.052143 0.000000 0.000000
# 5 0.000000 0.000000 0.000000 0.000000 0.039510 0.000000
# 6 0.000000 0.000000 0.000000 0.000000 0.000000 0.041900
#
#
# Mechanical properties :
#
#
# Convention : Reuss Voigt Hill
#
# Bulk Modulus (GPa) = 27.32306 35.35634 31.33970
# Shear Modulus (GPa) = 23.67422 27.02441 25.34931
#
# Velocity S-wave (km/s) = 3.45443 3.69077 3.57455
# Velocity P-wave (km/s) = 5.44822 5.99865 5.73005
#
# Compressibility (1/GPa) = 0.03659912
#
# Stress axis : x y z
#
# Youngs Moduli (GPa) = 90.91756 95.31945 33.86013
#
# Poissons Ratio (x) = 0.14962 0.00134
# Poissons Ratio (y) = 0.14271 0.18971
# Poissons Ratio (z) = 0.00360 0.53405
#
# Static dielectric constant tensor:
#      x y z
#    x 1.778680 0.000000 0.000000 
#    y 0.000000 1.696630 0.000000 
#    z 0.000000 0.000000 1.772370 
# 
# From -- ./inp_files/43082.got.cif
#   From: 2010.05.17/outbox.cif.g08.bks.cpg/sg68_22_cif.got.tgz:43082.got - 2010.06.03 18:57:09.
