data_PCOD9506377
_publ_section_title
;
Structure prediction by ZEFSAII (Michael W. Deem and Ramdas Pophale) SiO2 
 PCOD9506377
Probable space group: C C C A
;
_chemical_formula_sum "Si O2"
_cell_formula_units_Z 72
_cell_length_a 15.724649
_cell_length_b 8.682980
_cell_length_c 24.483358
_cell_angle_alpha 90.000000
_cell_angle_beta 90.000000
_cell_angle_gamma 90.000000
_cell_volume 3342.879667
_symmetry_space_group_name_H-M "C C C A"
_symmetry_group_IT_number 68
_space_group.IT_coordinate_system_code '2'
_symmetry_cell_setting 'orthorhombic'
loop_
_space_group_symop_operation_xyz
x,y,z
-x,1/2-y,z
x,1/2-y,1/2-z
-x,y,1/2-z
-x,-y,-z
x,1/2+y,-z
-x,1/2+y,1/2+z
x,-y,1/2+z
1/2+x,1/2+y,z
1/2-x,-y,z
1/2+x,-y,1/2-z
1/2-x,1/2+y,1/2-z
1/2-x,1/2-y,-z
1/2+x,y,-z
1/2-x,y,1/2+z
1/2+x,1/2-y,1/2+z
loop_
_atom_site_type_symbol
_atom_site_label
_atom_site_fract_x
_atom_site_fract_y
_atom_site_fract_z
Si Si1 0.150347 0.521854 0.177430
Si Si2 0.923122 0.838701 0.356741
Si Si3 0.347553 0.554248 0.448675
Si Si4 0.500000 0.497937 0.250000
Si Si5 0.155998 0.420656 0.059521
O O1 0.250000 0.500000 0.189086
O O2 0.139314 0.705672 0.165892
O O3 0.088556 0.444698 0.222702
O O4 0.120994 0.451327 0.119555
O O5 0.963882 0.908562 0.302291
O O6 0.000000 0.750000 0.386770
O O7 0.887507 0.968363 0.396661
O O8 0.250000 0.500000 0.448711
O O9 0.344721 0.737970 0.447812
O O10 0.385973 0.496698 0.506324
O O11 0.250000 0.500000 0.062423
#
# Coordination Sequence:
#
# PCOD9506377 Si02
#       5
#    16  16  16   8  16
#     4  10  19  38  65  92 125 165 208 260 314 371
#     4  10  21  41  63  89 125 168 210 259 316 374
#     4  11  20  36  63  93 123 163 209 256 312 379
#     4  10  23  44  67  90 125 168 217 264 309 370
#     4  10  20  36  60  94 127 160 204 260 314 376
#
# _framework density 21.538315999999998
#
# number of rings (size 3 to 8) (size 9 to 14) (size 15 to 20)
#    0.000    1.778    0.000    9.667    0.000    0.889 
#    0.000   21.111    0.000    0.000    0.000    0.000 
#    0.000    0.000    0.000    0.000    0.000    0.000 
#
# Total GULP energy -200521.717554 kJ/mol
# GULP energy per Si atom -5570.047710 kJ/mol
# Density = 2.148929 g / cm^3
# Si number density = 21.538316 Si / 1000 Ang^3
#
#
#
# Elastic Constant Matrix: (Units=GPa)
#
#
# Indices 1 2 3 4 5 6 
#
# 1 97.0317 30.1956 38.7964 0.0000 0.0000 0.0000
# 2 30.1956 118.3772 37.4649 0.0000 0.0000 0.0000
# 3 38.7964 37.4649 141.6582 0.0000 0.0000 0.0000
# 4 0.0000 0.0000 0.0000 59.0679 0.0000 0.0000
# 5 0.0000 0.0000 0.0000 0.0000 172.2197 0.0000
# 6 0.0000 0.0000 0.0000 0.0000 0.0000 27.0711
#
#
#
# Elastic Compliance Matrix: (Units=1/GPa)
#
#
# Indices 1 2 3 4 5 6 
#
# 1 0.012086 -0.002221 -0.002722 0.000000 0.000000 0.000000
# 2 -0.002221 0.009627 -0.001938 0.000000 0.000000 0.000000
# 3 -0.002722 -0.001938 0.008317 0.000000 0.000000 0.000000
# 4 0.000000 0.000000 0.000000 0.016930 0.000000 0.000000
# 5 0.000000 0.000000 0.000000 0.000000 0.005807 0.000000
# 6 0.000000 0.000000 0.000000 0.000000 0.000000 0.036940
#
#
# Mechanical properties :
#
#
# Convention : Reuss Voigt Hill
#
# Bulk Modulus (GPa) = 61.47264 63.33119 62.40191
# Shear Modulus (GPa) = 45.91701 68.37908 57.14805
#
# Velocity S-wave (km/s) = 4.62223 5.64062 5.15663
# Velocity P-wave (km/s) = 7.55578 8.47879 8.03055
#
# Compressibility (1/GPa) = 0.01626740
#
# Stress axis : x y z
#
# Youngs Moduli (GPa) = 82.74262 103.86946 120.23012
#
# Poissons Ratio (x) = 0.23071 0.32733
# Poissons Ratio (y) = 0.18379 0.23299
# Poissons Ratio (z) = 0.22527 0.20129
#
# Static dielectric constant tensor:
#      x y z
#    x 1.889230 0.000000 0.000000 
#    y 0.000000 1.871020 0.000000 
#    z 0.000000 0.000000 1.809390 
# 
# From -- ./inp_files/45889.got.cif
#   From: 2010.05.17/outbox.cif.g08.bks.cpg/sg68_23_cif.got.tgz:45889.got - 2010.06.03 18:57:09.
