data_PCOD9506292
_publ_section_title
;
Structure prediction by ZEFSAII (Michael W. Deem and Ramdas Pophale) SiO2 
 PCOD9506292
Probable space group: C C C A
;
_chemical_formula_sum "Si O2"
_cell_formula_units_Z 96
_cell_length_a 24.657602
_cell_length_b 13.240078
_cell_length_c 14.882485
_cell_angle_alpha 90.000000
_cell_angle_beta 90.000000
_cell_angle_gamma 90.000000
_cell_volume 4858.663652
_symmetry_space_group_name_H-M "C C C A"
_symmetry_group_IT_number 68
_space_group.IT_coordinate_system_code '2'
_symmetry_cell_setting 'orthorhombic'
loop_
_space_group_symop_operation_xyz
x,y,z
-x,1/2-y,z
x,1/2-y,1/2-z
-x,y,1/2-z
-x,-y,-z
x,1/2+y,-z
-x,1/2+y,1/2+z
x,-y,1/2+z
1/2+x,1/2+y,z
1/2-x,-y,z
1/2+x,-y,1/2-z
1/2-x,1/2+y,1/2-z
1/2-x,1/2-y,-z
1/2+x,y,-z
1/2-x,y,1/2+z
1/2+x,1/2-y,1/2+z
loop_
_atom_site_type_symbol
_atom_site_label
_atom_site_fract_x
_atom_site_fract_y
_atom_site_fract_z
Si Si1 0.134127 0.986398 0.075489
Si Si2 0.137395 0.557691 0.114743
Si Si3 0.250000 0.500000 0.204814
Si Si4 0.063818 0.541094 0.758800
Si Si5 0.788442 0.347292 0.142761
Si Si6 0.880300 0.250000 0.250000
Si Si7 0.675055 0.770298 0.858245
O O1 0.149842 0.876602 0.112131
O O2 0.086863 0.025665 0.140854
O O3 0.186326 0.061169 0.085629
O O4 0.119533 0.994738 0.971742
O O5 0.196868 0.523213 0.147783
O O6 0.096008 0.536329 0.195227
O O7 0.144341 0.676629 0.096844
O O8 0.234671 0.405913 0.269004
O O9 0.083654 0.652660 0.730501
O O10 0.000000 0.529728 0.750000
O O11 0.839058 0.278166 0.169878
O O12 0.737899 0.280804 0.111624
O O13 0.672588 0.750000 0.750000
#
# Coordination Sequence:
#
# PCOD9506292 Si02
#       7
#    16  16   8  16  16   8  16
#     4  11  25  41  63 101 137 170 233 276 336 401
#     4  12  26  40  66 100 137 173 225 285 333 404
#     4  12  18  38  62  96 136 178 204 268 338 400
#     4  11  24  46  69  90 129 181 233 287 337 390
#     4  11  18  37  62  94 139 175 218 262 324 413
#     4  10  19  36  64  92 120 172 219 270 330 394
#     4  12  20  41  67  94 138 187 214 265 338 415
#
# _framework density 19.758520000000001
#
# number of rings (size 3 to 8) (size 9 to 14) (size 15 to 20)
#    0.000    0.667    9.167    0.250    2.333    4.000 
#    0.000    1.667    0.000    0.000    0.000    0.000 
#    0.000    0.000    0.000    0.000    0.000    0.000 
#
# Total GULP energy -268210.078578 kJ/mol
# GULP energy per Si atom -5587.709970 kJ/mol
# Density = 1.971355 g / cm^3
# Si number density = 19.758520 Si / 1000 Ang^3
#
#
#
# Elastic Constant Matrix: (Units=GPa)
#
#
# Indices 1 2 3 4 5 6 
#
# 1 129.6454 32.9076 23.1285 0.0000 0.0000 0.0000
# 2 32.9076 87.2797 -0.4956 0.0000 0.0000 0.0000
# 3 23.1285 -0.4956 80.2247 0.0000 0.0000 0.0000
# 4 0.0000 0.0000 0.0000 23.1375 0.0000 0.0000
# 5 0.0000 0.0000 0.0000 0.0000 7.9268 0.0000
# 6 0.0000 0.0000 0.0000 0.0000 0.0000 20.1361
#
#
#
# Elastic Compliance Matrix: (Units=1/GPa)
#
#
# Indices 1 2 3 4 5 6 
#
# 1 0.009053 -0.003428 -0.002631 0.000000 0.000000 0.000000
# 2 -0.003428 0.012756 0.001067 0.000000 0.000000 0.000000
# 3 -0.002631 0.001067 0.013230 0.000000 0.000000 0.000000
# 4 0.000000 0.000000 0.000000 0.043220 0.000000 0.000000
# 5 0.000000 0.000000 0.000000 0.000000 0.126154 0.000000
# 6 0.000000 0.000000 0.000000 0.000000 0.000000 0.049662
#
#
# Mechanical properties :
#
#
# Convention : Reuss Voigt Hill
#
# Bulk Modulus (GPa) = 39.91261 45.35896 42.63579
# Shear Modulus (GPa) = 18.35464 26.34738 22.35101
#
# Velocity S-wave (km/s) = 3.05117 3.65563 3.36699
# Velocity P-wave (km/s) = 5.71462 6.38942 6.06142
#
# Compressibility (1/GPa) = 0.02505474
#
# Stress axis : x y z
#
# Youngs Moduli (GPa) = 110.46173 78.39422 75.58509
#
# Poissons Ratio (x) = 0.26875 0.19887
# Poissons Ratio (y) = 0.37869 -0.08066
# Poissons Ratio (z) = 0.29064 -0.08366
#
# Static dielectric constant tensor:
#      x y z
#    x 1.664430 0.000000 0.000000 
#    y 0.000000 1.735240 0.000000 
#    z 0.000000 0.000000 1.733700 
# 
# From -- ./inp_files/26026.got.cif
#   From: 2010.05.17/outbox.cif.g08.bks.cpg/sg68_14_cif.got.tgz:26026.got - 2010.06.03 18:57:09.
