data_PCOD9506590
_publ_section_title
;
Structure prediction by ZEFSAII (Michael W. Deem and Ramdas Pophale) SiO2 
 PCOD9506590
Probable space group: C C C A
;
_chemical_formula_sum "Si O2"
_cell_formula_units_Z 56
_cell_length_a 9.436688
_cell_length_b 11.291226
_cell_length_c 18.948582
_cell_angle_alpha 90.000000
_cell_angle_beta 90.000000
_cell_angle_gamma 90.000000
_cell_volume 2019.005082
_symmetry_space_group_name_H-M "C C C A"
_symmetry_group_IT_number 68
_space_group.IT_coordinate_system_code '2'
_symmetry_cell_setting 'orthorhombic'
loop_
_space_group_symop_operation_xyz
x,y,z
-x,1/2-y,z
x,1/2-y,1/2-z
-x,y,1/2-z
-x,-y,-z
x,1/2+y,-z
-x,1/2+y,1/2+z
x,-y,1/2+z
1/2+x,1/2+y,z
1/2-x,-y,z
1/2+x,-y,1/2-z
1/2-x,1/2+y,1/2-z
1/2-x,1/2-y,-z
1/2+x,y,-z
1/2-x,y,1/2+z
1/2+x,1/2-y,1/2+z
loop_
_atom_site_type_symbol
_atom_site_label
_atom_site_fract_x
_atom_site_fract_y
_atom_site_fract_z
Si Si1 0.500000 0.050262 0.750000
Si Si2 0.150045 0.174928 0.809932
Si Si3 0.104109 0.640915 0.045533
Si Si4 0.892722 0.439163 0.105466
O O1 0.386687 0.952643 0.778783
O O2 0.543008 0.114250 0.822654
O O3 0.227849 0.250000 0.750000
O O4 0.209462 0.165433 0.888909
O O5 0.000000 0.250000 0.819721
O O6 0.000000 0.750000 0.036420
O O7 0.009988 0.531563 0.075282
O O8 0.159909 0.621270 0.967174
O O9 0.750000 0.500000 0.132312
#
# Coordination Sequence:
#
# PCOD9506590 Si02
#       4
#     8  16  16  16
#     4   8  15  30  47  68 106 140 172 220 262 312
#     4   7  11  24  49  71  91 133 179 209 250 309
#     4   9  18  34  55  79 112 140 174 229 278 326
#     4  10  20  34  55  81 107 143 185 225 276 332
#
# _framework density 27.736432000000001
#
# number of rings (size 3 to 8) (size 9 to 14) (size 15 to 20)
#    0.000    3.714    0.000    1.714    0.000    1.143 
#    0.000   13.571    0.000   27.429    0.000    0.000 
#    0.000    0.000    0.000    0.000    0.000    0.000 
#
# Total GULP energy -156215.305300 kJ/mol
# GULP energy per Si atom -5579.118046 kJ/mol
# Density = 2.767330 g / cm^3
# Si number density = 27.736432 Si / 1000 Ang^3
#
#
#
# Elastic Constant Matrix: (Units=GPa)
#
#
# Indices 1 2 3 4 5 6 
#
# 1 61.1320 24.6901 44.7868 0.0000 0.0000 0.0000
# 2 24.6901 45.8969 47.9859 0.0000 0.0000 0.0000
# 3 44.7868 47.9859 350.4875 0.0000 0.0000 0.0000
# 4 0.0000 0.0000 0.0000 11.3637 0.0000 0.0000
# 5 0.0000 0.0000 0.0000 0.0000 25.1197 0.0000
# 6 0.0000 0.0000 0.0000 0.0000 0.0000 20.7574
#
#
#
# Elastic Compliance Matrix: (Units=1/GPa)
#
#
# Indices 1 2 3 4 5 6 
#
# 1 0.021436 -0.010115 -0.001354 0.000000 0.000000 0.000000
# 2 -0.010115 0.030201 -0.002842 0.000000 0.000000 0.000000
# 3 -0.001354 -0.002842 0.003415 0.000000 0.000000 0.000000
# 4 0.000000 0.000000 0.000000 0.087999 0.000000 0.000000
# 5 0.000000 0.000000 0.000000 0.000000 0.039809 0.000000
# 6 0.000000 0.000000 0.000000 0.000000 0.000000 0.048175
#
#
# Mechanical properties :
#
#
# Convention : Reuss Voigt Hill
#
# Bulk Modulus (GPa) = 37.83814 76.93799 57.38807
# Shear Modulus (GPa) = 18.62409 34.11841 26.37125
#
# Velocity S-wave (km/s) = 2.59408 3.51107 3.08682
# Velocity P-wave (km/s) = 4.75857 6.65102 5.78273
#
# Compressibility (1/GPa) = 0.02642836
#
# Stress axis : x y z
#
# Youngs Moduli (GPa) = 46.65141 33.11128 292.79451
#
# Poissons Ratio (x) = 0.33493 0.39651
# Poissons Ratio (y) = 0.47190 0.83222
# Poissons Ratio (z) = 0.06318 0.09411
#
# Static dielectric constant tensor:
#      x y z
#    x 2.142480 0.000000 0.000000 
#    y 0.000000 2.245270 0.000000 
#    z 0.000000 0.000000 2.244530 
# 
# From -- ./inp_files/29008.got.cif
#   From: 2010.05.17/outbox.cif.g08.bks.cpg/sg68_15_cif.got.tgz:29008.got - 2010.06.03 18:57:09.
