data_PCOD9506647
_publ_section_title
;
Structure prediction by ZEFSAII (Michael W. Deem and Ramdas Pophale) SiO2 
 PCOD9506647
Probable space group: C C C A
;
_chemical_formula_sum "Si O2"
_cell_formula_units_Z 48
_cell_length_a 5.127141
_cell_length_b 15.574475
_cell_length_c 24.979080
_cell_angle_alpha 90.000000
_cell_angle_beta 90.000000
_cell_angle_gamma 90.000000
_cell_volume 1994.642718
_symmetry_space_group_name_H-M "C C C A"
_symmetry_group_IT_number 68
_space_group.IT_coordinate_system_code '2'
_symmetry_cell_setting 'orthorhombic'
loop_
_space_group_symop_operation_xyz
x,y,z
-x,1/2-y,z
x,1/2-y,1/2-z
-x,y,1/2-z
-x,-y,-z
x,1/2+y,-z
-x,1/2+y,1/2+z
x,-y,1/2+z
1/2+x,1/2+y,z
1/2-x,-y,z
1/2+x,-y,1/2-z
1/2-x,1/2+y,1/2-z
1/2-x,1/2-y,-z
1/2+x,y,-z
1/2-x,y,1/2+z
1/2+x,1/2-y,1/2+z
loop_
_atom_site_type_symbol
_atom_site_label
_atom_site_fract_x
_atom_site_fract_y
_atom_site_fract_z
Si Si1 0.102732 0.651794 0.140915
Si Si2 0.000000 0.444340 0.750000
Si Si3 0.500000 0.750000 0.085889
Si Si4 0.834063 0.119707 0.964727
O O1 0.396526 0.670375 0.120428
O O2 0.000000 0.750000 0.146864
O O3 0.082343 0.609152 0.198047
O O4 0.954110 0.598601 0.094003
O O5 0.250000 0.500000 0.765572
O O6 0.261279 0.782719 0.050368
O O7 0.561358 0.095158 0.993371
#
# Coordination Sequence:
#
# PCOD9506647 Si02
#       4
#    16   8   8  16
#     4  10  24  43  72 106 137 179 228 290 341 407
#     4  12  31  52  73  94 136 188 242 294 349 412
#     4  10  20  34  67 100 148 167 222 272 352 402
#     4  11  20  33  61 105 146 172 211 274 344 409
#
# _framework density 24.064461999999999
#
# number of rings (size 3 to 8) (size 9 to 14) (size 15 to 20)
#    0.000    1.333    3.333    1.500   11.667    0.000 
#    0.000    0.000    0.000    6.000    0.000    0.000 
#    0.000    0.000    0.000    0.000    0.000    0.000 
#
# Total GULP energy -133622.851728 kJ/mol
# GULP energy per Si atom -5567.618822 kJ/mol
# Density = 2.400969 g / cm^3
# Si number density = 24.064462 Si / 1000 Ang^3
#
#
#
# Elastic Constant Matrix: (Units=GPa)
#
#
# Indices 1 2 3 4 5 6 
#
# 1 183.3445 31.7480 48.3473 0.0000 0.0000 0.0000
# 2 31.7480 56.5657 54.2284 0.0000 0.0000 0.0000
# 3 48.3473 54.2284 197.5872 0.0000 0.0000 0.0000
# 4 0.0000 0.0000 0.0000 -51.1818 0.0000 0.0000
# 5 0.0000 0.0000 0.0000 0.0000 24.5773 0.0000
# 6 0.0000 0.0000 0.0000 0.0000 0.0000 17.3829
#
#
#
# Elastic Compliance Matrix: (Units=1/GPa)
#
#
# Indices 1 2 3 4 5 6 
#
# 1 0.006123 -0.002714 -0.000753 0.000000 0.000000 0.000000
# 2 -0.002714 0.025194 -0.006250 0.000000 0.000000 0.000000
# 3 -0.000753 -0.006250 0.006961 0.000000 0.000000 0.000000
# 4 0.000000 0.000000 0.000000 -0.019538 0.000000 0.000000
# 5 0.000000 0.000000 0.000000 0.000000 0.040688 0.000000
# 6 0.000000 0.000000 0.000000 0.000000 0.000000 0.057528
#
#
# Mechanical properties :
#
#
# Convention : Reuss Voigt Hill
#
# Bulk Modulus (GPa) = 53.07363 78.46054 65.76709
# Shear Modulus (GPa) = 35.04536 18.36725 26.70631
#
# Velocity S-wave (km/s) = 3.82031 2.76570 3.33495
# Velocity P-wave (km/s) = 6.44688 6.54782 6.49755
#
# Compressibility (1/GPa) = 0.01884175
#
# Stress axis : x y z
#
# Youngs Moduli (GPa) = 163.32221 39.69161 143.66133
#
# Poissons Ratio (x) = 0.10774 0.10821
# Poissons Ratio (y) = 0.44333 0.89795
# Poissons Ratio (z) = 0.12302 0.24809
#
# Static dielectric constant tensor:
#      x y z
#    x 2.090130 0.000000 0.000000 
#    y 0.000000 2.052640 0.000000 
#    z 0.000000 0.000000 1.919790 
# 
# From -- ./inp_files/41897.got.cif
#   From: 2010.05.17/outbox.cif.g08.bks.cpg/sg68_21_cif.got.tgz:41897.got - 2010.06.03 18:57:09.
