data_PCOD9506480
_publ_section_title
;
Structure prediction by ZEFSAII (Michael W. Deem and Ramdas Pophale) SiO2 
 PCOD9506480
Probable space group: C C C A
;
_chemical_formula_sum "Si O2"
_cell_formula_units_Z 96
_cell_length_a 20.173879
_cell_length_b 12.748304
_cell_length_c 16.951251
_cell_angle_alpha 90.000000
_cell_angle_beta 90.000000
_cell_angle_gamma 90.000000
_cell_volume 4359.569218
_symmetry_space_group_name_H-M "C C C A"
_symmetry_group_IT_number 68
_space_group.IT_coordinate_system_code '2'
_symmetry_cell_setting 'orthorhombic'
loop_
_space_group_symop_operation_xyz
x,y,z
-x,1/2-y,z
x,1/2-y,1/2-z
-x,y,1/2-z
-x,-y,-z
x,1/2+y,-z
-x,1/2+y,1/2+z
x,-y,1/2+z
1/2+x,1/2+y,z
1/2-x,-y,z
1/2+x,-y,1/2-z
1/2-x,1/2+y,1/2-z
1/2-x,1/2-y,-z
1/2+x,y,-z
1/2-x,y,1/2+z
1/2+x,1/2-y,1/2+z
loop_
_atom_site_type_symbol
_atom_site_label
_atom_site_fract_x
_atom_site_fract_y
_atom_site_fract_z
Si Si1 0.874969 0.902365 0.051680
Si Si2 0.095821 0.671496 0.440810
Si Si3 0.167691 0.711934 0.829655
Si Si4 0.067192 0.113097 0.390230
Si Si5 0.924251 0.957463 0.872842
Si Si6 0.247303 0.617281 0.461120
O O1 0.904419 0.792863 0.082130
O O2 0.893681 0.003161 0.102415
O O3 0.904163 0.923422 0.963106
O O4 0.796152 0.890619 0.036114
O O5 0.053695 0.650394 0.519474
O O6 0.077942 0.583394 0.376770
O O7 0.171113 0.646408 0.470139
O O8 0.201051 0.750000 0.750000
O O9 0.111050 0.796395 0.851562
O O10 0.130017 0.600791 0.820201
O O11 0.218526 0.696275 0.900485
O O12 0.996221 0.087533 0.353540
O O13 0.250000 0.500000 0.426058
#
# Coordination Sequence:
#
# PCOD9506480 Si02
#       6
#    16  16  16  16  16  16
#     4  10  20  31  55  89 120 146 181 235 300 363
#     4  11  19  34  59  87 122 148 185 237 310 357
#     4  11  24  41  59  83 112 158 211 245 282 341
#     4  11  21  34  54  90 118 152 193 234 293 351
#     4  10  21  34  56  85 121 156 189 236 290 350
#     4  11  19  37  60  83 117 153 190 241 305 350
#
# _framework density 22.020523000000001
#
# number of rings (size 3 to 8) (size 9 to 14) (size 15 to 20)
#    0.000    1.333    8.333    3.000    0.000    3.333 
#    0.000    1.667    0.000    0.000    0.000    2.333 
#    0.000    0.000    0.000    0.000    0.000    0.000 
#
# Total GULP energy -268184.317169 kJ/mol
# GULP energy per Si atom -5587.173274 kJ/mol
# Density = 2.197040 g / cm^3
# Si number density = 22.020523 Si / 1000 Ang^3
#
#
#
# Elastic Constant Matrix: (Units=GPa)
#
#
# Indices 1 2 3 4 5 6 
#
# 1 84.9109 4.7952 -3.8767 0.0000 0.0000 0.0000
# 2 4.7952 154.9445 6.4909 0.0000 0.0000 0.0000
# 3 -3.8767 6.4909 15.4450 0.0000 0.0000 0.0000
# 4 0.0000 0.0000 0.0000 16.4985 0.0000 0.0000
# 5 0.0000 0.0000 0.0000 0.0000 -1.3167 0.0000
# 6 0.0000 0.0000 0.0000 0.0000 0.0000 36.5035
#
#
#
# Elastic Compliance Matrix: (Units=1/GPa)
#
#
# Indices 1 2 3 4 5 6 
#
# 1 0.011952 -0.000504 0.003212 0.000000 0.000000 0.000000
# 2 -0.000504 0.006591 -0.002896 0.000000 0.000000 0.000000
# 3 0.003212 -0.002896 0.066769 0.000000 0.000000 0.000000
# 4 0.000000 0.000000 0.000000 0.060611 0.000000 0.000000
# 5 0.000000 0.000000 0.000000 0.000000 -0.759459 0.000000
# 6 0.000000 0.000000 0.000000 0.000000 0.000000 0.027395
#
#
# Mechanical properties :
#
#
# Convention : Reuss Voigt Hill
#
# Bulk Modulus (GPa) = 11.77379 30.01325 20.89352
# Shear Modulus (GPa) = -8.96940 26.86314 8.94687
#
# Velocity S-wave (km/s) = -2.02041 3.49652 2.01787
# Velocity P-wave (km/s) = 0.29048 5.47358 3.86495
#
# Compressibility (1/GPa) = 0.08493441
#
# Stress axis : x y z
#
# Youngs Moduli (GPa) = 83.66671 151.72498 14.97697
#
# Poissons Ratio (x) = 0.07654 -0.04811
# Poissons Ratio (y) = 0.04221 0.04338
# Poissons Ratio (z) = -0.26874 0.43947
#
# Static dielectric constant tensor:
#      x y z
#    x 1.838700 0.000000 0.000000 
#    y 0.000000 1.862930 0.000000 
#    z 0.000000 0.000000 1.807850 
# 
# From -- ./inp_files/40211.got.cif
#   From: 2010.05.17/outbox.cif.g08.bks.cpg/sg68_21_cif.got.tgz:40211.got - 2010.06.03 18:57:09.
