data_PCOD9506207
_publ_section_title
;
Structure prediction by ZEFSAII (Michael W. Deem and Ramdas Pophale) SiO2 
 PCOD9506207
Probable space group: C C C A
;
_chemical_formula_sum "Si O2"
_cell_formula_units_Z 96
_cell_length_a 16.097677
_cell_length_b 10.114248
_cell_length_c 26.183358
_cell_angle_alpha 90.000000
_cell_angle_beta 90.000000
_cell_angle_gamma 90.000000
_cell_volume 4263.066930
_symmetry_space_group_name_H-M "C C C A"
_symmetry_group_IT_number 68
_space_group.IT_coordinate_system_code '2'
_symmetry_cell_setting 'orthorhombic'
loop_
_space_group_symop_operation_xyz
x,y,z
-x,1/2-y,z
x,1/2-y,1/2-z
-x,y,1/2-z
-x,-y,-z
x,1/2+y,-z
-x,1/2+y,1/2+z
x,-y,1/2+z
1/2+x,1/2+y,z
1/2-x,-y,z
1/2+x,-y,1/2-z
1/2-x,1/2+y,1/2-z
1/2-x,1/2-y,-z
1/2+x,y,-z
1/2-x,y,1/2+z
1/2+x,1/2-y,1/2+z
loop_
_atom_site_type_symbol
_atom_site_label
_atom_site_fract_x
_atom_site_fract_y
_atom_site_fract_z
Si Si1 0.131332 0.901707 0.319756
Si Si2 0.836872 0.810370 0.386937
Si Si3 0.258620 0.750000 0.250000
Si Si4 0.659623 0.846776 0.108683
Si Si5 0.000000 0.250000 0.336326
Si Si6 0.190261 0.123730 0.504799
Si Si7 0.750000 0.000000 0.312892
Si Si8 0.500000 0.030176 0.750000
O O1 0.101411 0.793686 0.360830
O O2 0.158478 0.029194 0.352358
O O3 0.205236 0.825117 0.292009
O O4 0.071443 0.939189 0.273484
O O5 0.818069 0.931996 0.349290
O O6 0.746627 0.733627 0.391145
O O7 0.861531 0.855122 0.443543
O O8 0.292415 0.619637 0.279800
O O9 0.581385 0.764808 0.128981
O O10 0.646983 0.892302 0.050101
O O11 0.985706 0.127222 0.298096
O O12 0.250000 0.250000 0.500000
O O13 0.250000 0.000000 0.513661
#
# Coordination Sequence:
#
# PCOD9506207 Si02
#       8
#    16  16   8  16   8  16   8   8
#     4  10  21  38  59  89 122 166 210 258 321 383
#     4  10  20  36  61  92 123 157 209 267 328 374
#     4  10  24  35  56  86 126 165 208 250 322 371
#     4  10  20  35  63  89 128 162 214 264 316 386
#     4   9  20  38  58  96 126 178 216 263 320 392
#     4  10  19  35  61  91 122 159 202 268 329 371
#     4  10  22  36  52  88 126 152 198 262 310 378
#     4   9  20  39  62  86 130 170 220 258 326 392
#
# _framework density 22.518999999999998
#
# number of rings (size 3 to 8) (size 9 to 14) (size 15 to 20)
#    0.000    2.167    0.833    2.500    7.000    0.333 
#    0.000    0.000    0.000   20.000    0.000    0.000 
#    0.000    0.000    0.000    0.000    0.000    1.333 
#
# Total GULP energy -267859.181455 kJ/mol
# GULP energy per Si atom -5580.399614 kJ/mol
# Density = 2.246775 g / cm^3
# Si number density = 22.519000 Si / 1000 Ang^3
#
#
#
# Elastic Constant Matrix: (Units=GPa)
#
#
# Indices 1 2 3 4 5 6 
#
# 1 48.2481 16.7572 30.6604 0.0000 0.0000 0.0000
# 2 16.7572 116.5058 32.0358 0.0000 0.0000 0.0000
# 3 30.6604 32.0358 174.7178 0.0000 0.0000 0.0000
# 4 0.0000 0.0000 0.0000 152.9011 0.0000 0.0000
# 5 0.0000 0.0000 0.0000 0.0000 22.4946 0.0000
# 6 0.0000 0.0000 0.0000 0.0000 0.0000 -6.0029
#
#
#
# Elastic Compliance Matrix: (Units=1/GPa)
#
#
# Indices 1 2 3 4 5 6 
#
# 1 0.023954 -0.002411 -0.003761 0.000000 0.000000 0.000000
# 2 -0.002411 0.009282 -0.001279 0.000000 0.000000 0.000000
# 3 -0.003761 -0.001279 0.006618 0.000000 0.000000 0.000000
# 4 0.000000 0.000000 0.000000 0.006540 0.000000 0.000000
# 5 0.000000 0.000000 0.000000 0.000000 0.044455 0.000000
# 6 0.000000 0.000000 0.000000 0.000000 0.000000 -0.166585
#
#
# Mechanical properties :
#
#
# Convention : Reuss Voigt Hill
#
# Bulk Modulus (GPa) = 40.07835 55.37537 47.72686
# Shear Modulus (GPa) = -95.20856 51.21309 -21.99774
#
# Velocity S-wave (km/s) = -6.50930 4.77405 -3.12885
# Velocity P-wave (km/s) = 6.21759 7.41840 2.86131
#
# Compressibility (1/GPa) = 0.02495113
#
# Stress axis : x y z
#
# Youngs Moduli (GPa) = 41.74682 107.73930 151.10140
#
# Poissons Ratio (x) = 0.25976 0.56837
# Poissons Ratio (y) = 0.10065 0.19322
# Poissons Ratio (z) = 0.15703 0.13777
#
# Static dielectric constant tensor:
#      x y z
#    x 1.888530 0.000000 0.000000 
#    y 0.000000 1.903820 0.000000 
#    z 0.000000 0.000000 1.931550 
# 
# From -- ./inp_files/46646.got.cif
#   From: 2010.05.17/outbox.cif.g08.bks.cpg/sg68_24_cif.got.tgz:46646.got - 2010.06.03 18:57:09.
