data_PCOD9506749
_publ_section_title
;
Structure prediction by ZEFSAII (Michael W. Deem and Ramdas Pophale) SiO2 
 PCOD9506749
Probable space group: C C C A
;
_chemical_formula_sum "Si O2"
_cell_formula_units_Z 96
_cell_length_a 24.139020
_cell_length_b 8.707475
_cell_length_c 22.807629
_cell_angle_alpha 90.000000
_cell_angle_beta 90.000000
_cell_angle_gamma 90.000000
_cell_volume 4793.933559
_symmetry_space_group_name_H-M "C C C A"
_symmetry_group_IT_number 68
_space_group.IT_coordinate_system_code '2'
_symmetry_cell_setting 'orthorhombic'
loop_
_space_group_symop_operation_xyz
x,y,z
-x,1/2-y,z
x,1/2-y,1/2-z
-x,y,1/2-z
-x,-y,-z
x,1/2+y,-z
-x,1/2+y,1/2+z
x,-y,1/2+z
1/2+x,1/2+y,z
1/2-x,-y,z
1/2+x,-y,1/2-z
1/2-x,1/2+y,1/2-z
1/2-x,1/2-y,-z
1/2+x,y,-z
1/2-x,y,1/2+z
1/2+x,1/2-y,1/2+z
loop_
_atom_site_type_symbol
_atom_site_label
_atom_site_fract_x
_atom_site_fract_y
_atom_site_fract_z
Si Si1 0.076425 0.086300 0.076014
Si Si2 0.189146 0.069275 0.931071
Si Si3 0.712819 0.238682 0.319880
Si Si4 0.169805 0.898202 0.667207
Si Si5 0.621994 0.678199 0.502819
Si Si6 0.500000 0.750000 0.343325
Si Si7 0.909040 0.250000 0.250000
O O1 0.130598 0.135835 0.112924
O O2 0.023770 0.113854 0.116686
O O3 0.090828 0.920607 0.051934
O O4 0.077014 0.206698 0.023638
O O5 0.190097 0.129172 0.863278
O O6 0.171420 0.219294 0.969171
O O7 0.250000 0.000000 0.943306
O O8 0.146560 0.939464 0.954288
O O9 0.702789 0.250000 0.250000
O O10 0.778989 0.218494 0.329024
O O11 0.689677 0.072414 0.338220
O O12 0.131177 0.878827 0.724110
O O13 0.449821 0.802732 0.301723
#
# Coordination Sequence:
#
# PCOD9506749 Si02
#       7
#    16  16  16  16  16   8   8
#     4  10  20  39  58  88 115 152 199 259 310 366
#     4  11  22  37  58  87 122 171 211 241 302 377
#     4  11  23  34  53  88 122 164 199 244 303 368
#     4  10  20  36  55  81 123 153 201 247 299 366
#     4  10  22  38  59  84 125 161 199 262 306 356
#     4   9  20  34  64  90 108 154 207 260 318 376
#     4   9  18  38  60  86 112 158 200 257 308 378
#
# _framework density 20.025309
#
# number of rings (size 3 to 8) (size 9 to 14) (size 15 to 20)
#    0.000    1.833    2.500    1.500    2.333    4.667 
#    0.000    0.000    0.000    0.000    4.333    1.167 
#    0.000    0.000    0.000    0.000    0.000    0.000 
#
# Total GULP energy -267593.278392 kJ/mol
# GULP energy per Si atom -5574.859967 kJ/mol
# Density = 1.997973 g / cm^3
# Si number density = 20.025309 Si / 1000 Ang^3
#
#
#
# Elastic Constant Matrix: (Units=GPa)
#
#
# Indices 1 2 3 4 5 6 
#
# 1 69.0227 23.4540 29.1481 0.0000 0.0000 0.0000
# 2 23.4540 87.7210 39.6288 0.0000 0.0000 0.0000
# 3 29.1481 39.6288 93.4659 0.0000 0.0000 0.0000
# 4 0.0000 0.0000 0.0000 34.1251 0.0000 0.0000
# 5 0.0000 0.0000 0.0000 0.0000 39.6189 0.0000
# 6 0.0000 0.0000 0.0000 0.0000 0.0000 13.4116
#
#
#
# Elastic Compliance Matrix: (Units=1/GPa)
#
#
# Indices 1 2 3 4 5 6 
#
# 1 0.017183 -0.002688 -0.004219 0.000000 0.000000 0.000000
# 2 -0.002688 0.014521 -0.005319 0.000000 0.000000 0.000000
# 3 -0.004219 -0.005319 0.014270 0.000000 0.000000 0.000000
# 4 0.000000 0.000000 0.000000 0.029304 0.000000 0.000000
# 5 0.000000 0.000000 0.000000 0.000000 0.025240 0.000000
# 6 0.000000 0.000000 0.000000 0.000000 0.000000 0.074563
#
#
# Mechanical properties :
#
#
# Convention : Reuss Voigt Hill
#
# Bulk Modulus (GPa) = 46.46255 48.29682 47.37969
# Shear Modulus (GPa) = 24.18885 27.96302 26.07594
#
# Velocity S-wave (km/s) = 3.47928 3.74088 3.61244
# Velocity P-wave (km/s) = 6.27637 6.54440 6.41178
#
# Compressibility (1/GPa) = 0.02152271
#
# Stress axis : x y z
#
# Youngs Moduli (GPa) = 58.19670 68.86454 70.07819
#
# Poissons Ratio (x) = 0.18513 0.29565
# Poissons Ratio (y) = 0.15645 0.37271
# Poissons Ratio (z) = 0.24552 0.36626
#
# Static dielectric constant tensor:
#      x y z
#    x 1.706320 0.000000 0.000000 
#    y 0.000000 1.688070 0.000000 
#    z 0.000000 0.000000 1.777930 
# 
# From -- ./inp_files/46956.got.cif
#   From: 2010.05.17/outbox.cif.g08.bks.cpg/sg68_24_cif.got.tgz:46956.got - 2010.06.03 18:57:09.
