data_PCOD9506431
_publ_section_title
;
Structure prediction by ZEFSAII (Michael W. Deem and Ramdas Pophale) SiO2 
 PCOD9506431
Probable space group: C C C A
;
_chemical_formula_sum "Si O2"
_cell_formula_units_Z 88
_cell_length_a 9.127039
_cell_length_b 24.110625
_cell_length_c 19.751798
_cell_angle_alpha 90.000000
_cell_angle_beta 90.000000
_cell_angle_gamma 90.000000
_cell_volume 4346.553306
_symmetry_space_group_name_H-M "C C C A"
_symmetry_group_IT_number 68
_space_group.IT_coordinate_system_code '2'
_symmetry_cell_setting 'orthorhombic'
loop_
_space_group_symop_operation_xyz
x,y,z
-x,1/2-y,z
x,1/2-y,1/2-z
-x,y,1/2-z
-x,-y,-z
x,1/2+y,-z
-x,1/2+y,1/2+z
x,-y,1/2+z
1/2+x,1/2+y,z
1/2-x,-y,z
1/2+x,-y,1/2-z
1/2-x,1/2+y,1/2-z
1/2-x,1/2-y,-z
1/2+x,y,-z
1/2-x,y,1/2+z
1/2+x,1/2-y,1/2+z
loop_
_atom_site_type_symbol
_atom_site_label
_atom_site_fract_x
_atom_site_fract_y
_atom_site_fract_z
Si Si1 0.187187 0.881632 0.016237
Si Si2 0.750000 0.000000 0.176035
Si Si3 0.574509 0.456731 0.448500
Si Si4 0.675909 0.115273 0.736883
Si Si5 0.838035 0.690252 0.884139
Si Si6 0.682012 0.813704 0.364079
O O1 0.283149 0.852508 0.073024
O O2 0.041892 0.906239 0.051085
O O3 0.278082 0.931072 0.980848
O O4 0.160216 0.835568 0.958650
O O5 0.617680 0.015708 0.123392
O O6 0.778037 0.052339 0.224149
O O7 0.500000 0.500000 0.500000
O O8 0.500000 0.113695 0.750000
O O9 0.725040 0.145987 0.668204
O O10 0.734855 0.153231 0.798041
O O11 0.765353 0.750609 0.876232
O O12 0.006980 0.693048 0.860780
#
# Coordination Sequence:
#
# PCOD9506431 Si02
#       6
#    16   8  16  16  16  16
#     4  12  22  40  65  99 128 162 221 269 329 391
#     4  12  24  42  66  94 136 178 218 282 330 396
#     4  12  23  40  65  93 133 171 212 267 331 390
#     4  10  22  40  62  91 126 171 217 261 321 391
#     4  10  19  40  64  92 129 169 211 265 324 389
#     4  10  22  37  64  96 126 165 218 266 318 393
#
# _framework density 20.245926999999998
#
# number of rings (size 3 to 8) (size 9 to 14) (size 15 to 20)
#    0.000    1.091    5.455    1.091    2.545    3.636 
#    0.000    0.000    0.000    0.000    4.727    0.000 
#    0.000    0.000    0.000    0.000    0.000    0.000 
#
# Total GULP energy -245375.513074 kJ/mol
# GULP energy per Si atom -5576.716206 kJ/mol
# Density = 2.019985 g / cm^3
# Si number density = 20.245927 Si / 1000 Ang^3
#
#
#
# Elastic Constant Matrix: (Units=GPa)
#
#
# Indices 1 2 3 4 5 6 
#
# 1 35.4988 13.5948 1.0080 0.0000 0.0000 0.0000
# 2 13.5948 133.5319 37.4307 0.0000 0.0000 0.0000
# 3 1.0080 37.4307 71.0543 0.0000 0.0000 0.0000
# 4 0.0000 0.0000 0.0000 89.1163 0.0000 0.0000
# 5 0.0000 0.0000 0.0000 0.0000 -25.1239 0.0000
# 6 0.0000 0.0000 0.0000 0.0000 0.0000 30.7005
#
#
#
# Elastic Compliance Matrix: (Units=1/GPa)
#
#
# Indices 1 2 3 4 5 6 
#
# 1 0.029425 -0.003377 0.001362 0.000000 0.000000 0.000000
# 2 -0.003377 0.009174 -0.004785 0.000000 0.000000 0.000000
# 3 0.001362 -0.004785 0.016575 0.000000 0.000000 0.000000
# 4 0.000000 0.000000 0.000000 0.011221 0.000000 0.000000
# 5 0.000000 0.000000 0.000000 0.000000 -0.039803 0.000000
# 6 0.000000 0.000000 0.000000 0.000000 0.000000 0.032573
#
#
# Mechanical properties :
#
#
# Convention : Reuss Voigt Hill
#
# Bulk Modulus (GPa) = 24.05420 38.23909 31.14665
# Shear Modulus (GPa) = 57.72099 31.47535 44.59817
#
# Velocity S-wave (km/s) = 5.34526 3.94718 4.69851
# Velocity P-wave (km/s) = 7.07125 6.30095 6.69718
#
# Compressibility (1/GPa) = 0.04157278
#
# Stress axis : x y z
#
# Youngs Moduli (GPa) = 33.98497 109.00434 60.33173
#
# Poissons Ratio (x) = 0.36816 -0.08216
# Poissons Ratio (y) = 0.11478 0.28868
# Poissons Ratio (z) = -0.04628 0.52157
#
# Static dielectric constant tensor:
#      x y z
#    x 1.766890 0.000000 0.000000 
#    y 0.000000 1.796100 0.000000 
#    z 0.000000 0.000000 1.717690 
# 
# From -- ./inp_files/36293.got.cif
#   From: 2010.05.17/outbox.cif.g08.bks.cpg/sg68_19_cif.got.tgz:36293.got - 2010.06.03 18:57:09.
