data_PCOD9506540
_publ_section_title
;
Structure prediction by ZEFSAII (Michael W. Deem and Ramdas Pophale) SiO2 
 PCOD9506540
Probable space group: C C C A
;
_chemical_formula_sum "Si O2"
_cell_formula_units_Z 128
_cell_length_a 12.304901
_cell_length_b 22.949613
_cell_length_c 24.131088
_cell_angle_alpha 90.000000
_cell_angle_beta 90.000000
_cell_angle_gamma 90.000000
_cell_volume 6814.443479
_symmetry_space_group_name_H-M "C C C A"
_symmetry_group_IT_number 68
_space_group.IT_coordinate_system_code '2'
_symmetry_cell_setting 'orthorhombic'
loop_
_space_group_symop_operation_xyz
x,y,z
-x,1/2-y,z
x,1/2-y,1/2-z
-x,y,1/2-z
-x,-y,-z
x,1/2+y,-z
-x,1/2+y,1/2+z
x,-y,1/2+z
1/2+x,1/2+y,z
1/2-x,-y,z
1/2+x,-y,1/2-z
1/2-x,1/2+y,1/2-z
1/2-x,1/2-y,-z
1/2+x,y,-z
1/2-x,y,1/2+z
1/2+x,1/2-y,1/2+z
loop_
_atom_site_type_symbol
_atom_site_label
_atom_site_fract_x
_atom_site_fract_y
_atom_site_fract_z
Si Si1 0.315579 0.123047 0.821806
Si Si2 0.289031 0.280153 0.392688
Si Si3 0.903142 0.337838 0.872597
Si Si4 0.002164 0.040572 0.183045
Si Si5 0.200465 0.374726 0.308296
Si Si6 0.532472 0.318337 0.027316
Si Si7 0.557771 0.085346 0.309610
Si Si8 0.093606 0.204584 0.412950
O O1 0.194629 0.124536 0.846795
O O2 0.383298 0.064321 0.831443
O O3 0.318490 0.139085 0.756792
O O4 0.378997 0.170323 0.857808
O O5 0.366823 0.229681 0.366619
O O6 0.227343 0.319223 0.347027
O O7 0.360016 0.318536 0.434701
O O8 0.200819 0.242307 0.426640
O O9 0.935377 0.346593 0.937103
O O10 0.009656 0.358186 0.840018
O O11 0.098599 0.086806 0.170451
O O12 0.000000 0.037082 0.250000
O O13 0.025858 0.975752 0.162004
O O14 0.312602 0.411338 0.306851
O O15 0.500000 0.250000 0.022527
O O16 0.558977 0.335686 0.964682
O O17 0.500000 0.086231 0.250000
O O18 0.000000 0.250000 0.401350
#
# Coordination Sequence:
#
# PCOD9506540 Si02
#       8
#    16  16  16  16  16  16  16  16
#     4  10  21  37  53  83 120 150 191 233 291 351
#     4  10  20  33  55  83 116 150 184 233 288 355
#     4  10  20  34  53  85 114 148 188 233 294 339
#     4   9  21  36  55  78 110 154 197 236 269 341
#     4  11  20  35  56  85 120 152 193 230 293 352
#     4   9  18  34  53  78 110 146 197 240 275 340
#     4  11  20  35  56  82 115 151 193 240 284 342
#     4  10  20  34  54  77 110 154 197 230 284 340
#
# _framework density 18.783632999999998
#
# number of rings (size 3 to 8) (size 9 to 14) (size 15 to 20)
#    0.000    2.000    2.500    1.500    0.000    3.500 
#    0.000    1.250    0.000    0.750    0.000    0.000 
#    0.000    0.000    0.000    0.000    0.000    0.000 
#
# Total GULP energy -356518.609319 kJ/mol
# GULP energy per Si atom -5570.603271 kJ/mol
# Density = 1.874088 g / cm^3
# Si number density = 18.783633 Si / 1000 Ang^3
#
#
#
# Elastic Constant Matrix: (Units=GPa)
#
#
# Indices 1 2 3 4 5 6 
#
# 1 49.7978 8.7566 13.7531 0.0000 0.0000 0.0000
# 2 8.7566 43.4772 18.1736 0.0000 0.0000 0.0000
# 3 13.7531 18.1736 71.0980 0.0000 0.0000 0.0000
# 4 0.0000 0.0000 0.0000 -5.8146 0.0000 0.0000
# 5 0.0000 0.0000 0.0000 0.0000 23.2666 0.0000
# 6 0.0000 0.0000 0.0000 0.0000 0.0000 18.9843
#
#
#
# Elastic Compliance Matrix: (Units=1/GPa)
#
#
# Indices 1 2 3 4 5 6 
#
# 1 0.021538 -0.002907 -0.003423 0.000000 0.000000 0.000000
# 2 -0.002907 0.026144 -0.006121 0.000000 0.000000 0.000000
# 3 -0.003423 -0.006121 0.016292 0.000000 0.000000 0.000000
# 4 0.000000 0.000000 0.000000 -0.171982 0.000000 0.000000
# 5 0.000000 0.000000 0.000000 0.000000 0.042980 0.000000
# 6 0.000000 0.000000 0.000000 0.000000 0.000000 0.052675
#
#
# Mechanical properties :
#
#
# Convention : Reuss Voigt Hill
#
# Bulk Modulus (GPa) = 25.59335 27.30438 26.44887
# Shear Modulus (GPa) = 195.51945 15.53326 105.52635
#
# Velocity S-wave (km/s) = 10.21353 2.87881 7.50346
# Velocity P-wave (km/s) = 12.35894 5.06141 9.44355
#
# Compressibility (1/GPa) = 0.03907265
#
# Stress axis : x y z
#
# Youngs Moduli (GPa) = 46.43006 38.24900 61.38068
#
# Poissons Ratio (x) = 0.11119 0.21012
# Poissons Ratio (y) = 0.13497 0.37569
# Poissons Ratio (z) = 0.15894 0.23411
#
# Static dielectric constant tensor:
#      x y z
#    x 1.718810 0.000000 0.000000 
#    y 0.000000 1.672340 0.000000 
#    z 0.000000 0.000000 1.675350 
# 
# From -- ./inp_files/44730.got.cif
#   From: 2010.05.17/outbox.cif.g08.bks.cpg/sg68_23_cif.got.tgz:44730.got - 2010.06.03 18:57:09.
