data_PCOD9506743
_publ_section_title
;
Structure prediction by ZEFSAII (Michael W. Deem and Ramdas Pophale) SiO2 
 PCOD9506743
Probable space group: C C C A
;
_chemical_formula_sum "Si O2"
_cell_formula_units_Z 128
_cell_length_a 12.873563
_cell_length_b 23.982156
_cell_length_c 22.924143
_cell_angle_alpha 90.000000
_cell_angle_beta 90.000000
_cell_angle_gamma 90.000000
_cell_volume 7077.503540
_symmetry_space_group_name_H-M "C C C A"
_symmetry_group_IT_number 68
_space_group.IT_coordinate_system_code '2'
_symmetry_cell_setting 'orthorhombic'
loop_
_space_group_symop_operation_xyz
x,y,z
-x,1/2-y,z
x,1/2-y,1/2-z
-x,y,1/2-z
-x,-y,-z
x,1/2+y,-z
-x,1/2+y,1/2+z
x,-y,1/2+z
1/2+x,1/2+y,z
1/2-x,-y,z
1/2+x,-y,1/2-z
1/2-x,1/2+y,1/2-z
1/2-x,1/2-y,-z
1/2+x,y,-z
1/2-x,y,1/2+z
1/2+x,1/2-y,1/2+z
loop_
_atom_site_type_symbol
_atom_site_label
_atom_site_fract_x
_atom_site_fract_y
_atom_site_fract_z
Si Si1 0.142232 0.943120 0.084832
Si Si2 0.882684 0.072402 0.416754
Si Si3 0.941667 0.808717 0.140020
Si Si4 0.454236 0.575177 0.185402
Si Si5 0.765229 0.370941 0.803275
Si Si6 0.850274 0.472078 0.881837
Si Si7 0.036302 0.387890 0.535317
Si Si8 0.417544 0.899633 0.705286
O O1 0.259880 0.922731 0.090689
O O2 0.103042 0.939348 0.151401
O O3 0.085405 0.900236 0.041872
O O4 0.115862 0.006224 0.066687
O O5 0.923858 0.109140 0.470225
O O6 0.952059 0.086623 0.360203
O O7 0.827620 0.817587 0.169732
O O8 0.935954 0.834853 0.075057
O O9 0.000000 0.750000 0.139524
O O10 0.018611 0.848084 0.177888
O O11 0.500000 0.567050 0.250000
O O12 0.359036 0.620591 0.190796
O O13 0.403004 0.519724 0.157044
O O14 0.811271 0.422863 0.839994
O O15 0.813724 0.380771 0.738896
O O16 0.750000 0.500000 0.911147
O O17 0.917058 0.441273 0.930191
O O18 0.500000 0.925651 0.750000
#
# Coordination Sequence:
#
# PCOD9506743 Si02
#       8
#    16  16  16  16  16  16  16  16
#     4  10  21  33  48  80 109 150 196 232 271 328
#     4  11  23  32  52  77 110 156 196 231 270 342
#     4   9  19  36  61  88 104 131 187 252 304 341
#     4  11  22  32  48  75 115 160 195 214 268 355
#     4   9  19  33  50  79 114 152 181 234 287 335
#     4   9  19  30  48  72 107 151 189 225 269 330
#     4  10  20  36  53  75 111 143 181 244 288 333
#     4   9  18  32  54  78 117 143 180 238 286 328
#
# _framework density 18.085474000000001
#
# number of rings (size 3 to 8) (size 9 to 14) (size 15 to 20)
#    0.000    2.250    1.250    1.875    3.500    4.250 
#    0.000    0.000    0.000    6.750    0.000    8.750 
#    0.000    0.000    0.000    0.000    0.000    0.000 
#
# Total GULP energy -356338.961750 kJ/mol
# GULP energy per Si atom -5567.796277 kJ/mol
# Density = 1.804431 g / cm^3
# Si number density = 18.085474 Si / 1000 Ang^3
#
#
#
# Elastic Constant Matrix: (Units=GPa)
#
#
# Indices 1 2 3 4 5 6 
#
# 1 75.7238 19.5159 -3.9529 0.0000 0.0000 0.0000
# 2 19.5159 45.3961 6.9230 0.0000 0.0000 0.0000
# 3 -3.9529 6.9230 57.8372 0.0000 0.0000 0.0000
# 4 0.0000 0.0000 0.0000 9.3144 0.0000 0.0000
# 5 0.0000 0.0000 0.0000 0.0000 18.8372 0.0000
# 6 0.0000 0.0000 0.0000 0.0000 0.0000 20.3591
#
#
#
# Elastic Compliance Matrix: (Units=1/GPa)
#
#
# Indices 1 2 3 4 5 6 
#
# 1 0.015040 -0.006746 0.001835 0.000000 0.000000 0.000000
# 2 -0.006746 0.025463 -0.003509 0.000000 0.000000 0.000000
# 3 0.001835 -0.003509 0.017835 0.000000 0.000000 0.000000
# 4 0.000000 0.000000 0.000000 0.107360 0.000000 0.000000
# 5 0.000000 0.000000 0.000000 0.000000 0.053087 0.000000
# 6 0.000000 0.000000 0.000000 0.000000 0.000000 0.049118
#
#
# Mechanical properties :
#
#
# Convention : Reuss Voigt Hill
#
# Bulk Modulus (GPa) = 24.09616 24.88102 24.48859
# Shear Modulus (GPa) = 16.74614 20.13355 18.43984
#
# Velocity S-wave (km/s) = 3.04623 3.34015 3.19657
# Velocity P-wave (km/s) = 5.07200 5.35377 5.21478
#
# Compressibility (1/GPa) = 0.04150039
#
# Stress axis : x y z
#
# Youngs Moduli (GPa) = 66.48834 39.27199 56.06839
#
# Poissons Ratio (x) = 0.26492 -0.10291
# Poissons Ratio (y) = 0.44851 0.19674
# Poissons Ratio (z) = -0.12203 0.13780
#
# Static dielectric constant tensor:
#      x y z
#    x 1.732510 0.000000 0.000000 
#    y 0.000000 1.616840 0.000000 
#    z 0.000000 0.000000 1.628680 
# 
# From -- ./inp_files/44736.got.cif
#   From: 2010.05.17/outbox.cif.g08.bks.cpg/sg68_23_cif.got.tgz:44736.got - 2010.06.03 18:57:09.
