data_PCOD9506835
_publ_section_title
;
Structure prediction by ZEFSAII (Michael W. Deem and Ramdas Pophale) SiO2 
 PCOD9506835
Probable space group: C C C A
;
_chemical_formula_sum "Si O2"
_cell_formula_units_Z 68
_cell_length_a 23.526400
_cell_length_b 5.079509
_cell_length_c 26.948060
_cell_angle_alpha 90.000000
_cell_angle_beta 90.000000
_cell_angle_gamma 90.000000
_cell_volume 3220.362172
_symmetry_space_group_name_H-M "C C C A"
_symmetry_group_IT_number 68
_space_group.IT_coordinate_system_code '2'
_symmetry_cell_setting 'orthorhombic'
loop_
_space_group_symop_operation_xyz
x,y,z
-x,1/2-y,z
x,1/2-y,1/2-z
-x,y,1/2-z
-x,-y,-z
x,1/2+y,-z
-x,1/2+y,1/2+z
x,-y,1/2+z
1/2+x,1/2+y,z
1/2-x,-y,z
1/2+x,-y,1/2-z
1/2-x,1/2+y,1/2-z
1/2-x,1/2-y,-z
1/2+x,y,-z
1/2-x,y,1/2+z
1/2+x,1/2-y,1/2+z
loop_
_atom_site_type_symbol
_atom_site_label
_atom_site_fract_x
_atom_site_fract_y
_atom_site_fract_z
Si Si1 0.250000 0.000000 0.838921
Si Si2 0.191944 0.750000 0.750000
Si Si3 0.098757 0.508093 0.309197
Si Si4 0.625051 0.995475 0.628338
Si Si5 0.931699 0.265357 0.969969
Si Si6 0.500000 0.750000 0.250000
O O1 0.269845 0.212951 0.798303
O O2 0.193331 0.050303 0.870202
O O3 0.147846 0.971650 0.732032
O O4 0.099398 0.797403 0.331000
O O5 0.040213 0.426831 0.284224
O O6 0.112018 0.291708 0.352813
O O7 0.597971 0.895966 0.577339
O O8 0.000000 0.250000 0.962462
O O9 0.916956 0.467186 0.014814
#
# Coordination Sequence:
#
# PCOD9506835 Si02
#       6
#     8   8  16  16  16   4
#     4  10  20  36  62  86 122 162 212 250 294 356
#     4   9  18  35  54  82 117 166 201 240 278 354
#     4  10  23  36  57  87 126 162 205 246 302 360
#     4  11  23  39  61  91 116 159 205 255 303 369
#     4  10  22  41  64  87 116 152 196 253 317 380
#     4  10  24  38  56  90 132 170 202 254 318 358
#
# _framework density 21.115637
#
# number of rings (size 3 to 8) (size 9 to 14) (size 15 to 20)
#    0.000    1.882    0.000    2.824    3.294   11.294 
#    0.000    1.176    0.000    0.000    0.000    0.000 
#    0.000    0.000    0.000    0.000    0.000    0.000 
#
# Total GULP energy -189821.205711 kJ/mol
# GULP energy per Si atom -5582.976639 kJ/mol
# Density = 2.106758 g / cm^3
# Si number density = 21.115637 Si / 1000 Ang^3
#
#
#
# Elastic Constant Matrix: (Units=GPa)
#
#
# Indices 1 2 3 4 5 6 
#
# 1 106.7844 14.1138 30.8086 0.0000 0.0000 0.0000
# 2 14.1138 79.8044 16.9083 0.0000 0.0000 0.0000
# 3 30.8086 16.9083 91.3109 0.0000 0.0000 0.0000
# 4 0.0000 0.0000 0.0000 26.6284 0.0000 0.0000
# 5 0.0000 0.0000 0.0000 0.0000 21.2000 0.0000
# 6 0.0000 0.0000 0.0000 0.0000 0.0000 10.0489
#
#
#
# Elastic Compliance Matrix: (Units=1/GPa)
#
#
# Indices 1 2 3 4 5 6 
#
# 1 0.010475 -0.001149 -0.003322 0.000000 0.000000 0.000000
# 2 -0.001149 0.013168 -0.002051 0.000000 0.000000 0.000000
# 3 -0.003322 -0.002051 0.012452 0.000000 0.000000 0.000000
# 4 0.000000 0.000000 0.000000 0.037554 0.000000 0.000000
# 5 0.000000 0.000000 0.000000 0.000000 0.047170 0.000000
# 6 0.000000 0.000000 0.000000 0.000000 0.000000 0.099513
#
#
# Mechanical properties :
#
#
# Convention : Reuss Voigt Hill
#
# Bulk Modulus (GPa) = 43.37844 44.61793 43.99818
# Shear Modulus (GPa) = 20.74188 25.98007 23.36098
#
# Velocity S-wave (km/s) = 3.13757 3.51147 3.32977
# Velocity P-wave (km/s) = 5.80634 6.13325 5.97203
#
# Compressibility (1/GPa) = 0.02305293
#
# Stress axis : x y z
#
# Youngs Moduli (GPa) = 95.46723 75.93988 80.30812
#
# Poissons Ratio (x) = 0.08724 0.26674
# Poissons Ratio (y) = 0.10967 0.16470
# Poissons Ratio (z) = 0.31710 0.15574
#
# Static dielectric constant tensor:
#      x y z
#    x 1.773330 0.000000 0.000000 
#    y 0.000000 1.781950 0.000000 
#    z 0.000000 0.000000 1.773160 
# 
# From -- ./inp_files/48345.got.cif
#   From: 2010.05.17/outbox.cif.g08.bks.cpg/sg68_25_cif.got.tgz:48345.got - 2010.06.03 18:57:09.
