data_PCOD9506581
_publ_section_title
;
Structure prediction by ZEFSAII (Michael W. Deem and Ramdas Pophale) SiO2 
 PCOD9506581
Probable space group: C C C A
;
_chemical_formula_sum "Si O2"
_cell_formula_units_Z 64
_cell_length_a 15.676461
_cell_length_b 23.239046
_cell_length_c 8.217897
_cell_angle_alpha 90.000000
_cell_angle_beta 90.000000
_cell_angle_gamma 90.000000
_cell_volume 2993.829170
_symmetry_space_group_name_H-M "C C C A"
_symmetry_group_IT_number 68
_space_group.IT_coordinate_system_code '2'
_symmetry_cell_setting 'orthorhombic'
loop_
_space_group_symop_operation_xyz
x,y,z
-x,1/2-y,z
x,1/2-y,1/2-z
-x,y,1/2-z
-x,-y,-z
x,1/2+y,-z
-x,1/2+y,1/2+z
x,-y,1/2+z
1/2+x,1/2+y,z
1/2-x,-y,z
1/2+x,-y,1/2-z
1/2-x,1/2+y,1/2-z
1/2-x,1/2-y,-z
1/2+x,y,-z
1/2-x,y,1/2+z
1/2+x,1/2-y,1/2+z
loop_
_atom_site_type_symbol
_atom_site_label
_atom_site_fract_x
_atom_site_fract_y
_atom_site_fract_z
Si Si1 0.058859 0.375401 0.096441
Si Si2 0.597283 0.424045 0.391492
Si Si3 0.600562 0.811590 0.796929
Si Si4 0.341196 0.028253 0.724133
O O1 0.129178 0.419868 0.160357
O O2 0.000000 0.356756 0.250000
O O3 0.101349 0.325853 0.988262
O O4 0.992302 0.407184 0.975305
O O5 0.633241 0.366779 0.304253
O O6 0.651966 0.447796 0.542231
O O7 0.595262 0.475712 0.263087
O O8 0.638788 0.750000 0.750000
O O9 0.500000 0.808835 0.750000
O O10 0.250000 0.000000 0.751841
#
# Coordination Sequence:
#
# PCOD9506581 Si02
#       4
#    16  16  16  16
#     4   9  19  35  57  84 114 149 190 237 289 346
#     4  10  20  34  54  81 113 148 187 234 292 349
#     4   9  18  35  57  82 112 148 191 239 286 336
#     4  11  21  34  54  82 115 147 187 239 292 351
#
# _framework density 21.377305
#
# number of rings (size 3 to 8) (size 9 to 14) (size 15 to 20)
#    0.000    2.250    0.000    3.000    0.000    7.000 
#    0.000   22.500    0.000    6.000    0.000    0.000 
#    0.000    0.000    0.000    0.000    0.000    2.000 
#
# Total GULP energy -178629.761321 kJ/mol
# GULP energy per Si atom -5582.180041 kJ/mol
# Density = 2.132865 g / cm^3
# Si number density = 21.377305 Si / 1000 Ang^3
#
#
#
# Elastic Constant Matrix: (Units=GPa)
#
#
# Indices 1 2 3 4 5 6 
#
# 1 58.6828 17.4229 30.1510 0.0000 0.0000 0.0000
# 2 17.4229 163.8456 99.9643 0.0000 0.0000 0.0000
# 3 30.1510 99.9643 147.2062 0.0000 0.0000 0.0000
# 4 0.0000 0.0000 0.0000 31.8139 0.0000 0.0000
# 5 0.0000 0.0000 0.0000 0.0000 16.9930 0.0000
# 6 0.0000 0.0000 0.0000 0.0000 0.0000 -5.4884
#
#
#
# Elastic Compliance Matrix: (Units=1/GPa)
#
#
# Indices 1 2 3 4 5 6 
#
# 1 0.019080 0.000607 -0.004320 0.000000 0.000000 0.000000
# 2 0.000607 0.010440 -0.007214 0.000000 0.000000 0.000000
# 3 -0.004320 -0.007214 0.012577 0.000000 0.000000 0.000000
# 4 0.000000 0.000000 0.000000 0.031433 0.000000 0.000000
# 5 0.000000 0.000000 0.000000 0.000000 0.058848 0.000000
# 6 0.000000 0.000000 0.000000 0.000000 0.000000 -0.182203
#
#
# Mechanical properties :
#
#
# Convention : Reuss Voigt Hill
#
# Bulk Modulus (GPa) = 49.40036 73.86789 61.63412
# Shear Modulus (GPa) = -235.59081 23.47681 -106.05700
#
# Velocity S-wave (km/s) = -10.50930 3.31752 -7.05122
# Velocity P-wave (km/s) = 11.14008 7.02168 6.11545
#
# Compressibility (1/GPa) = 0.02024277
#
# Stress axis : x y z
#
# Youngs Moduli (GPa) = 52.41019 95.78473 79.51123
#
# Poissons Ratio (x) = -0.05812 0.34350
# Poissons Ratio (y) = -0.03180 0.57359
# Poissons Ratio (z) = 0.22642 0.69098
#
# Static dielectric constant tensor:
#      x y z
#    x 1.845300 0.000000 0.000000 
#    y 0.000000 1.805950 0.000000 
#    z 0.000000 0.000000 1.835280 
# 
# From -- ./inp_files/4972.got.cif
#   From: 2010.05.17/outbox.cif.g08.bks.cpg/sg68_3_cif.got.tgz:4972.got - 2010.06.03 18:57:09.
