data_PCOD9506284
_publ_section_title
;
Structure prediction by ZEFSAII (Michael W. Deem and Ramdas Pophale) SiO2 
 PCOD9506284
Probable space group: C C C A
;
_chemical_formula_sum "Si O2"
_cell_formula_units_Z 88
_cell_length_a 13.897032
_cell_length_b 26.212646
_cell_length_c 12.797803
_cell_angle_alpha 90.000000
_cell_angle_beta 90.000000
_cell_angle_gamma 90.000000
_cell_volume 4661.957829
_symmetry_space_group_name_H-M "C C C A"
_symmetry_group_IT_number 68
_space_group.IT_coordinate_system_code '2'
_symmetry_cell_setting 'orthorhombic'
loop_
_space_group_symop_operation_xyz
x,y,z
-x,1/2-y,z
x,1/2-y,1/2-z
-x,y,1/2-z
-x,-y,-z
x,1/2+y,-z
-x,1/2+y,1/2+z
x,-y,1/2+z
1/2+x,1/2+y,z
1/2-x,-y,z
1/2+x,-y,1/2-z
1/2-x,1/2+y,1/2-z
1/2-x,1/2-y,-z
1/2+x,y,-z
1/2-x,y,1/2+z
1/2+x,1/2-y,1/2+z
loop_
_atom_site_type_symbol
_atom_site_label
_atom_site_fract_x
_atom_site_fract_y
_atom_site_fract_z
Si Si1 0.157468 0.894453 0.019184
Si Si2 0.654730 0.750000 0.250000
Si Si3 0.689924 0.932175 0.205710
Si Si4 0.467338 0.302800 0.563011
Si Si5 0.389015 0.961764 0.720322
Si Si6 0.170955 0.655796 0.865132
O O1 0.126033 0.932851 0.110821
O O2 0.261646 0.871885 0.051059
O O3 0.156684 0.926421 0.912466
O O4 0.093322 0.843903 0.001325
O O5 0.590648 0.717776 0.333970
O O6 0.711886 0.709188 0.180377
O O7 0.805939 0.937324 0.206687
O O8 0.663531 0.881868 0.267917
O O9 0.641873 0.978926 0.269118
O O10 0.500000 0.250000 0.507633
O O11 0.565319 0.330753 0.595380
O O12 0.500000 0.956201 0.750000
#
# Coordination Sequence:
#
# PCOD9506284 Si02
#       6
#    16   8  16  16  16  16
#     4  11  24  40  64  95 123 174 211 254 330 383
#     4  10  19  36  62  94 127 162 213 266 304 370
#     4  10  23  42  62  89 125 164 212 263 315 383
#     4  10  21  37  63  95 124 161 214 256 308 379
#     4  10  25  43  62  92 129 162 212 268 322 376
#     4  10  21  38  61  91 127 158 211 264 307 378
#
# _framework density 18.876189
#
# number of rings (size 3 to 8) (size 9 to 14) (size 15 to 20)
#    0.000    1.818    1.818    2.455    5.091    9.455 
#    0.000    0.000    0.000    0.000    0.000    0.000 
#    0.000    0.000    0.000    0.000    0.000    0.000 
#
# Total GULP energy -245155.757117 kJ/mol
# GULP energy per Si atom -5571.721753 kJ/mol
# Density = 1.883323 g / cm^3
# Si number density = 18.876189 Si / 1000 Ang^3
#
#
#
# Elastic Constant Matrix: (Units=GPa)
#
#
# Indices 1 2 3 4 5 6 
#
# 1 96.5927 52.9605 30.9479 0.0000 0.0000 0.0000
# 2 52.9605 133.4614 55.3012 0.0000 0.0000 0.0000
# 3 30.9479 55.3012 49.8542 0.0000 0.0000 0.0000
# 4 0.0000 0.0000 0.0000 22.5641 0.0000 0.0000
# 5 0.0000 0.0000 0.0000 0.0000 8.9847 0.0000
# 6 0.0000 0.0000 0.0000 0.0000 0.0000 27.2494
#
#
#
# Elastic Compliance Matrix: (Units=1/GPa)
#
#
# Indices 1 2 3 4 5 6 
#
# 1 0.013780 -0.003560 -0.004605 0.000000 0.000000 0.000000
# 2 -0.003560 0.014786 -0.014191 0.000000 0.000000 0.000000
# 3 -0.004605 -0.014191 0.038659 0.000000 0.000000 0.000000
# 4 0.000000 0.000000 0.000000 0.044318 0.000000 0.000000
# 5 0.000000 0.000000 0.000000 0.000000 0.111301 0.000000
# 6 0.000000 0.000000 0.000000 0.000000 0.000000 0.036698
#
#
# Mechanical properties :
#
#
# Convention : Reuss Voigt Hill
#
# Bulk Modulus (GPa) = 44.42110 62.03639 53.22874
# Shear Modulus (GPa) = 16.03801 21.13956 18.58878
#
# Velocity S-wave (km/s) = 2.91802 3.35013 3.14152
# Velocity P-wave (km/s) = 5.91076 6.92104 6.43575
#
# Compressibility (1/GPa) = 0.02251182
#
# Stress axis : x y z
#
# Youngs Moduli (GPa) = 72.56791 67.63223 25.86709
#
# Poissons Ratio (x) = 0.24077 0.11913
# Poissons Ratio (y) = 0.25835 0.36709
# Poissons Ratio (z) = 0.33420 0.95979
#
# Static dielectric constant tensor:
#      x y z
#    x 1.661900 0.000000 0.000000 
#    y 0.000000 1.731480 0.000000 
#    z 0.000000 0.000000 1.648630 
# 
# From -- ./inp_files/13324.got.cif
#   From: 2010.05.17/outbox.cif.g08.bks.cpg/sg68_7_cif.got.tgz:13324.got - 2010.06.03 18:57:09.
