data_PCOD9506950
_publ_section_title
;
Structure prediction by ZEFSAII (Michael W. Deem and Ramdas Pophale) SiO2 
 PCOD9506950
Probable space group: C C C A
;
_chemical_formula_sum "Si O2"
_cell_formula_units_Z 80
_cell_length_a 18.102606
_cell_length_b 14.951336
_cell_length_c 15.470344
_cell_angle_alpha 90.000000
_cell_angle_beta 90.000000
_cell_angle_gamma 90.000000
_cell_volume 4187.174606
_symmetry_space_group_name_H-M "C C C A"
_symmetry_group_IT_number 68
_space_group.IT_coordinate_system_code '2'
_symmetry_cell_setting 'orthorhombic'
loop_
_space_group_symop_operation_xyz
x,y,z
-x,1/2-y,z
x,1/2-y,1/2-z
-x,y,1/2-z
-x,-y,-z
x,1/2+y,-z
-x,1/2+y,1/2+z
x,-y,1/2+z
1/2+x,1/2+y,z
1/2-x,-y,z
1/2+x,-y,1/2-z
1/2-x,1/2+y,1/2-z
1/2-x,1/2-y,-z
1/2+x,y,-z
1/2-x,y,1/2+z
1/2+x,1/2-y,1/2+z
loop_
_atom_site_type_symbol
_atom_site_label
_atom_site_fract_x
_atom_site_fract_y
_atom_site_fract_z
Si Si1 0.917035 0.367070 0.282364
Si Si2 0.580191 0.216599 0.052236
Si Si3 0.922603 0.565645 0.300562
Si Si4 0.173629 0.672885 0.322270
Si Si5 0.341093 0.695615 0.374480
O O1 0.917368 0.462510 0.328822
O O2 0.874105 0.290280 0.336371
O O3 0.875212 0.375876 0.191286
O O4 0.000000 0.345015 0.250000
O O5 0.500000 0.250000 0.022284
O O6 0.577010 0.134856 0.120142
O O7 0.615829 0.298954 0.104512
O O8 0.629732 0.189652 0.971049
O O9 0.856747 0.589583 0.233083
O O10 0.000000 0.577178 0.250000
O O11 0.173634 0.750000 0.250000
O O12 0.254060 0.680081 0.364887
#
# Coordination Sequence:
#
# PCOD9506950 Si02
#       5
#    16  16  16  16  16
#     4  10  21  40  62  85 125 166 207 244 306 369
#     4  11  21  37  65  92 120 156 212 251 301 362
#     4  10  21  40  64  92 120 161 205 255 301 363
#     4  10  20  37  62  86 124 159 198 246 308 362
#     4  11  21  40  60  90 122 167 198 252 311 366
#
# _framework density 19.105962000000002
#
# number of rings (size 3 to 8) (size 9 to 14) (size 15 to 20)
#    0.000    1.600    4.000    3.000    0.000    0.800 
#    3.600    3.000    4.400    0.000    0.000    0.000 
#    0.000    0.000    0.000    0.000    0.000    0.000 
#
# Total GULP energy -222909.362611 kJ/mol
# GULP energy per Si atom -5572.734065 kJ/mol
# Density = 1.906248 g / cm^3
# Si number density = 19.105962 Si / 1000 Ang^3
#
#
#
# Elastic Constant Matrix: (Units=GPa)
#
#
# Indices 1 2 3 4 5 6 
#
# 1 120.9996 15.6795 14.2948 0.0000 0.0000 0.0000
# 2 15.6795 92.1915 8.1184 0.0000 0.0000 0.0000
# 3 14.2948 8.1184 78.9163 0.0000 0.0000 0.0000
# 4 0.0000 0.0000 0.0000 -3.7123 0.0000 0.0000
# 5 0.0000 0.0000 0.0000 0.0000 33.8566 0.0000
# 6 0.0000 0.0000 0.0000 0.0000 0.0000 6.3857
#
#
#
# Elastic Compliance Matrix: (Units=1/GPa)
#
#
# Indices 1 2 3 4 5 6 
#
# 1 0.008606 -0.001338 -0.001421 0.000000 0.000000 0.000000
# 2 -0.001338 0.011154 -0.000905 0.000000 0.000000 0.000000
# 3 -0.001421 -0.000905 0.013022 0.000000 0.000000 0.000000
# 4 0.000000 0.000000 0.000000 -0.269372 0.000000 0.000000
# 5 0.000000 0.000000 0.000000 0.000000 0.029536 0.000000
# 6 0.000000 0.000000 0.000000 0.000000 0.000000 0.156599
#
#
# Mechanical properties :
#
#
# Convention : Reuss Voigt Hill
#
# Bulk Modulus (GPa) = 39.28814 40.92144 40.10479
# Shear Modulus (GPa) = -144.33823 24.24031 -60.04896
#
# Velocity S-wave (km/s) = -8.70116 3.56579 -5.61228
# Velocity P-wave (km/s) = 8.96320 6.19821 4.57827
#
# Compressibility (1/GPa) = 0.02545297
#
# Stress axis : x y z
#
# Youngs Moduli (GPa) = 116.20031 89.65131 76.79206
#
# Poissons Ratio (x) = 0.12000 0.10913
# Poissons Ratio (y) = 0.15553 0.06950
# Poissons Ratio (z) = 0.16514 0.08114
#
# Static dielectric constant tensor:
#      x y z
#    x 1.852840 0.000000 0.000000 
#    y 0.000000 1.683290 0.000000 
#    z 0.000000 0.000000 1.642110 
# 
# From -- ./inp_files/31749.got.cif
#   From: 2010.05.17/outbox.cif.g08.bks.cpg/sg68_16_cif.got.tgz:31749.got - 2010.06.03 18:57:09.
