data_PCOD9506606
_publ_section_title
;
Structure prediction by ZEFSAII (Michael W. Deem and Ramdas Pophale) SiO2 
 PCOD9506606
Probable space group: C C C A
;
_chemical_formula_sum "Si O2"
_cell_formula_units_Z 116
_cell_length_a 8.542094
_cell_length_b 25.259500
_cell_length_c 27.836378
_cell_angle_alpha 90.000000
_cell_angle_beta 90.000000
_cell_angle_gamma 90.000000
_cell_volume 6006.228096
_symmetry_space_group_name_H-M "C C C A"
_symmetry_group_IT_number 68
_space_group.IT_coordinate_system_code '2'
_symmetry_cell_setting 'orthorhombic'
loop_
_space_group_symop_operation_xyz
x,y,z
-x,1/2-y,z
x,1/2-y,1/2-z
-x,y,1/2-z
-x,-y,-z
x,1/2+y,-z
-x,1/2+y,1/2+z
x,-y,1/2+z
1/2+x,1/2+y,z
1/2-x,-y,z
1/2+x,-y,1/2-z
1/2-x,1/2+y,1/2-z
1/2-x,1/2-y,-z
1/2+x,y,-z
1/2-x,y,1/2+z
1/2+x,1/2-y,1/2+z
loop_
_atom_site_type_symbol
_atom_site_label
_atom_site_fract_x
_atom_site_fract_y
_atom_site_fract_z
Si Si1 0.136481 0.387930 0.717277
Si Si2 0.327823 0.161445 0.694465
Si Si3 0.500000 0.250000 0.750000
Si Si4 0.937369 0.998833 0.105810
Si Si5 0.846143 0.445908 0.026359
Si Si6 0.551982 0.063730 0.696287
Si Si7 0.973342 0.186732 0.861908
Si Si8 0.963043 0.895821 0.438104
O O1 0.236175 0.359210 0.758685
O O2 0.261329 0.427341 0.694183
O O3 0.000000 0.413161 0.750000
O O4 0.074077 0.345172 0.678599
O O5 0.400823 0.214668 0.714076
O O6 0.461641 0.118420 0.683708
O O7 0.205011 0.172371 0.652612
O O8 0.989954 0.021783 0.156470
O O9 0.025544 0.033277 0.064649
O O10 0.750000 0.000000 0.099814
O O11 0.997916 0.939250 0.102279
O O12 0.750000 0.500000 0.012862
O O13 0.717115 0.406102 0.047877
O O14 0.932037 0.416281 0.982719
O O15 0.500000 0.049630 0.750000
O O16 0.000785 0.160428 0.914187
O O17 0.000000 0.250000 0.859959
#
# Coordination Sequence:
#
# PCOD9506606 Si02
#       8
#    16  16   4  16  16  16  16  16
#     4   9  18  34  54  81 113 157 202 241 277 327
#     4  10  20  34  57  84 113 160 205 246 278 335
#     4  12  16  32  62  80 108 156 214 244 274 304
#     4  11  21  37  62  89 116 153 193 241 292 351
#     4  10  21  39  66  90 111 143 195 246 291 349
#     4  10  20  38  57  85 124 158 195 237 293 354
#     4  11  23  37  57  87 121 150 194 243 300 349
#     4  11  22  40  62  89 113 150 190 248 296 355
#
# _framework density 19.313285
#
# number of rings (size 3 to 8) (size 9 to 14) (size 15 to 20)
#    0.000    1.655    2.069    5.379    0.000    1.931 
#    0.000   11.034    0.000    0.000    0.000    0.000 
#    0.000    0.000    0.000    0.000    0.000    0.000 
#
# Total GULP energy -323783.664912 kJ/mol
# GULP energy per Si atom -5582.476981 kJ/mol
# Density = 1.926933 g / cm^3
# Si number density = 19.313285 Si / 1000 Ang^3
#
#
#
# Elastic Constant Matrix: (Units=GPa)
#
#
# Indices 1 2 3 4 5 6 
#
# 1 95.6771 22.4840 31.7463 0.0000 0.0000 0.0000
# 2 22.4840 74.8438 48.4284 0.0000 0.0000 0.0000
# 3 31.7463 48.4284 91.4111 0.0000 0.0000 0.0000
# 4 0.0000 0.0000 0.0000 20.7567 0.0000 0.0000
# 5 0.0000 0.0000 0.0000 0.0000 -40.6087 0.0000
# 6 0.0000 0.0000 0.0000 0.0000 0.0000 12.3737
#
#
#
# Elastic Compliance Matrix: (Units=1/GPa)
#
#
# Indices 1 2 3 4 5 6 
#
# 1 0.011905 -0.001371 -0.003408 0.000000 0.000000 0.000000
# 2 -0.001371 0.020488 -0.010378 0.000000 0.000000 0.000000
# 3 -0.003408 -0.010378 0.017621 0.000000 0.000000 0.000000
# 4 0.000000 0.000000 0.000000 0.048177 0.000000 0.000000
# 5 0.000000 0.000000 0.000000 0.000000 -0.024625 0.000000
# 6 0.000000 0.000000 0.000000 0.000000 0.000000 0.080817
#
#
# Mechanical properties :
#
#
# Convention : Reuss Voigt Hill
#
# Bulk Modulus (GPa) = 50.76207 51.91661 51.33934
# Shear Modulus (GPa) = 26.14173 9.12256 17.63214
#
# Velocity S-wave (km/s) = 3.68307 2.17571 3.02479
# Velocity P-wave (km/s) = 6.66538 5.76639 6.23211
#
# Compressibility (1/GPa) = 0.01969975
#
# Stress axis : x y z
#
# Youngs Moduli (GPa) = 83.99935 48.80794 56.74893
#
# Poissons Ratio (x) = 0.06692 0.19340
# Poissons Ratio (y) = 0.11518 0.58896
# Poissons Ratio (z) = 0.28627 0.50655
#
# Static dielectric constant tensor:
#      x y z
#    x 1.711160 0.000000 0.000000 
#    y 0.000000 1.686090 0.000000 
#    z 0.000000 0.000000 1.697600 
# 
# From -- ./inp_files/49618.got.cif
#   From: 2010.05.17/outbox.cif.g08.bks.cpg/sg68_25_cif.got.tgz:49618.got - 2010.06.03 18:57:09.
