data_PCOD9506046
_publ_section_title
;
Structure prediction by ZEFSAII (Michael W. Deem and Ramdas Pophale) SiO2 
 PCOD9506046
Probable space group: C C C A
;
_chemical_formula_sum "Si O2"
_cell_formula_units_Z 64
_cell_length_a 33.445778
_cell_length_b 17.968303
_cell_length_c 5.323960
_cell_angle_alpha 90.000000
_cell_angle_beta 90.000000
_cell_angle_gamma 90.000000
_cell_volume 3199.507622
_symmetry_space_group_name_H-M "C C C A"
_symmetry_group_IT_number 68
_space_group.IT_coordinate_system_code '2'
_symmetry_cell_setting 'orthorhombic'
loop_
_space_group_symop_operation_xyz
x,y,z
-x,1/2-y,z
x,1/2-y,1/2-z
-x,y,1/2-z
-x,-y,-z
x,1/2+y,-z
-x,1/2+y,1/2+z
x,-y,1/2+z
1/2+x,1/2+y,z
1/2-x,-y,z
1/2+x,-y,1/2-z
1/2-x,1/2+y,1/2-z
1/2-x,1/2-y,-z
1/2+x,y,-z
1/2-x,y,1/2+z
1/2+x,1/2-y,1/2+z
loop_
_atom_site_type_symbol
_atom_site_label
_atom_site_fract_x
_atom_site_fract_y
_atom_site_fract_z
Si Si1 0.635525 0.659961 0.751916
Si Si2 0.587076 0.338364 0.754006
Si Si3 0.726652 0.841002 0.743854
Si Si4 0.955305 0.029443 0.059845
O O1 0.637423 0.750000 0.750000
O O2 0.617586 0.642209 0.479396
O O3 0.680915 0.632888 0.780179
O O4 0.607454 0.641628 0.989424
O O5 0.578856 0.250000 0.750000
O O6 0.548852 0.387678 0.831278
O O7 0.725997 0.750000 0.750000
O O8 0.752702 0.864012 0.503819
O O9 0.936457 0.981162 0.285040
O O10 0.000000 0.000000 0.000000
#
# Coordination Sequence:
#
# PCOD9506046 Si02
#       4
#    16  16  16  16
#     4   9  17  28  45  73 106 141 180 223 267 316
#     4  10  19  33  54  78 108 142 180 224 271 321
#     4   9  15  23  37  61 100 144 176 208 262 322
#     4  10  21  38  58  80 108 141 174 221 275 325
#
# _framework density 20.003077000000001
#
# number of rings (size 3 to 8) (size 9 to 14) (size 15 to 20)
#    0.000    2.500    0.000    3.000    0.000    6.000 
#    0.000    2.500    0.000    6.000    0.000    0.000 
#    0.000   70.000    0.000    0.000    0.000    0.000 
#
# Total GULP energy -178150.898310 kJ/mol
# GULP energy per Si atom -5567.215572 kJ/mol
# Density = 1.995755 g / cm^3
# Si number density = 20.003077 Si / 1000 Ang^3
#
#
#
# Elastic Constant Matrix: (Units=GPa)
#
#
# Indices 1 2 3 4 5 6 
#
# 1 87.8211 51.2506 49.0927 0.0000 0.0000 0.0000
# 2 51.2506 58.8501 48.6748 0.0000 0.0000 0.0000
# 3 49.0927 48.6748 196.2272 0.0000 0.0000 0.0000
# 4 0.0000 0.0000 0.0000 26.0420 0.0000 0.0000
# 5 0.0000 0.0000 0.0000 0.0000 28.1766 0.0000
# 6 0.0000 0.0000 0.0000 0.0000 0.0000 6.0203
#
#
#
# Elastic Compliance Matrix: (Units=1/GPa)
#
#
# Indices 1 2 3 4 5 6 
#
# 1 0.023310 -0.019471 -0.001002 0.000000 0.000000 0.000000
# 2 -0.019471 0.037643 -0.004466 0.000000 0.000000 0.000000
# 3 -0.001002 -0.004466 0.006455 0.000000 0.000000 0.000000
# 4 0.000000 0.000000 0.000000 0.038400 0.000000 0.000000
# 5 0.000000 0.000000 0.000000 0.000000 0.035490 0.000000
# 6 0.000000 0.000000 0.000000 0.000000 0.000000 0.166105
#
#
# Mechanical properties :
#
#
# Convention : Reuss Voigt Hill
#
# Bulk Modulus (GPa) = 57.04752 71.21496 64.13124
# Shear Modulus (GPa) = 13.76941 24.97312 19.37127
#
# Velocity S-wave (km/s) = 2.62652 3.53719 3.11531
# Velocity P-wave (km/s) = 6.14650 7.23613 6.71346
#
# Compressibility (1/GPa) = 0.01752925
#
# Stress axis : x y z
#
# Youngs Moduli (GPa) = 42.90056 26.56540 154.92784
#
# Poissons Ratio (x) = 0.51726 0.15521
# Poissons Ratio (y) = 0.83532 0.69193
# Poissons Ratio (z) = 0.04298 0.11864
#
# Static dielectric constant tensor:
#      x y z
#    x 1.795090 0.000000 0.000000 
#    y 0.000000 1.742510 0.000000 
#    z 0.000000 0.000000 1.939070 
# 
# From -- ./inp_files/1394.got.cif
#   From: 2010.05.17/outbox.cif.g08.bks.cpg/sg68_1_cif.got.tgz:1394.got - 2010.06.03 18:57:09.
