data_PCOD9506812
_publ_section_title
;
Structure prediction by ZEFSAII (Michael W. Deem and Ramdas Pophale) SiO2 
 PCOD9506812
Probable space group: C C C A
;
_chemical_formula_sum "Si O2"
_cell_formula_units_Z 88
_cell_length_a 11.194925
_cell_length_b 20.433674
_cell_length_c 17.410851
_cell_angle_alpha 90.000000
_cell_angle_beta 90.000000
_cell_angle_gamma 90.000000
_cell_volume 3982.792197
_symmetry_space_group_name_H-M "C C C A"
_symmetry_group_IT_number 68
_space_group.IT_coordinate_system_code '2'
_symmetry_cell_setting 'orthorhombic'
loop_
_space_group_symop_operation_xyz
x,y,z
-x,1/2-y,z
x,1/2-y,1/2-z
-x,y,1/2-z
-x,-y,-z
x,1/2+y,-z
-x,1/2+y,1/2+z
x,-y,1/2+z
1/2+x,1/2+y,z
1/2-x,-y,z
1/2+x,-y,1/2-z
1/2-x,1/2+y,1/2-z
1/2-x,1/2-y,-z
1/2+x,y,-z
1/2-x,y,1/2+z
1/2+x,1/2-y,1/2+z
loop_
_atom_site_type_symbol
_atom_site_label
_atom_site_fract_x
_atom_site_fract_y
_atom_site_fract_z
Si Si1 0.537288 0.970490 0.082458
Si Si2 0.639284 0.142940 0.496637
Si Si3 0.500000 0.750000 0.429709
Si Si4 0.351488 0.367486 0.871691
Si Si5 0.826817 0.671452 0.248199
Si Si6 0.967901 0.389166 0.864298
O O1 0.423824 0.933972 0.118753
O O2 0.561382 0.033921 0.134627
O O3 0.635162 0.914895 0.060599
O O4 0.500000 0.000000 0.000000
O O5 0.610934 0.215580 0.526160
O O6 0.750885 0.136101 0.439273
O O7 0.517919 0.130191 0.446934
O O8 0.556483 0.808885 0.383232
O O9 0.292335 0.355586 0.789474
O O10 0.834831 0.750000 0.250000
O O11 0.853260 0.648827 0.334175
O O12 0.926300 0.637438 0.192108
#
# Coordination Sequence:
#
# PCOD9506812 Si02
#       6
#    16  16   8  16  16  16
#     4   9  19  37  61  93 127 159 204 267 329 372
#     4   9  19  32  61  96 124 158 203 266 319 382
#     4  10  20  36  59  93 126 164 210 262 326 374
#     4  10  21  38  64  90 128 169 207 264 326 378
#     4  10  21  36  62  93 119 170 216 256 304 377
#     4   9  18  34  61  88 128 157 207 260 307 374
#
# _framework density 22.095051000000002
#
# number of rings (size 3 to 8) (size 9 to 14) (size 15 to 20)
#    0.000    2.545    0.000    1.636    5.091    6.545 
#    3.273    0.455   24.000    0.000    0.000    0.000 
#    0.000    0.000    0.000    0.000    0.000    0.000 
#
# Total GULP energy -245244.489886 kJ/mol
# GULP energy per Si atom -5573.738406 kJ/mol
# Density = 2.204476 g / cm^3
# Si number density = 22.095051 Si / 1000 Ang^3
#
#
#
# Elastic Constant Matrix: (Units=GPa)
#
#
# Indices 1 2 3 4 5 6 
#
# 1 58.2156 27.8189 20.8830 0.0000 0.0000 0.0000
# 2 27.8189 153.2555 29.4155 0.0000 0.0000 0.0000
# 3 20.8830 29.4155 26.0011 0.0000 0.0000 0.0000
# 4 0.0000 0.0000 0.0000 28.9899 0.0000 0.0000
# 5 0.0000 0.0000 0.0000 0.0000 27.5926 0.0000
# 6 0.0000 0.0000 0.0000 0.0000 0.0000 19.3881
#
#
#
# Elastic Compliance Matrix: (Units=1/GPa)
#
#
# Indices 1 2 3 4 5 6 
#
# 1 0.024215 -0.000846 -0.018491 0.000000 0.000000 0.000000
# 2 -0.000846 0.008364 -0.008783 0.000000 0.000000 0.000000
# 3 -0.018491 -0.008783 0.063247 0.000000 0.000000 0.000000
# 4 0.000000 0.000000 0.000000 0.034495 0.000000 0.000000
# 5 0.000000 0.000000 0.000000 0.000000 0.036242 0.000000
# 6 0.000000 0.000000 0.000000 0.000000 0.000000 0.051578
#
#
# Mechanical properties :
#
#
# Convention : Reuss Voigt Hill
#
# Bulk Modulus (GPa) = 25.26135 43.74521 34.50328
# Shear Modulus (GPa) = 17.38662 25.81778 21.60220
#
# Velocity S-wave (km/s) = 2.80822 3.42202 3.13020
# Velocity P-wave (km/s) = 4.68750 5.95443 5.35854
#
# Compressibility (1/GPa) = 0.03958617
#
# Stress axis : x y z
#
# Youngs Moduli (GPa) = 41.29675 119.55293 15.81091
#
# Poissons Ratio (x) = 0.10119 0.29236
# Poissons Ratio (y) = 0.03495 0.13887
# Poissons Ratio (z) = 0.76361 1.05005
#
# Static dielectric constant tensor:
#      x y z
#    x 1.902900 0.000000 0.000000 
#    y 0.000000 1.855670 0.000000 
#    z 0.000000 0.000000 1.869200 
# 
# From -- ./inp_files/29661.got.cif
#   From: 2010.05.17/outbox.cif.g08.bks.cpg/sg68_15_cif.got.tgz:29661.got - 2010.06.03 18:57:09.
