data_PCOD9506809
_publ_section_title
;
Structure prediction by ZEFSAII (Michael W. Deem and Ramdas Pophale) SiO2 
 PCOD9506809
Probable space group: C C C A
;
_chemical_formula_sum "Si O2"
_cell_formula_units_Z 104
_cell_length_a 21.968570
_cell_length_b 7.025162
_cell_length_c 28.533497
_cell_angle_alpha 90.000000
_cell_angle_beta 90.000000
_cell_angle_gamma 90.000000
_cell_volume 4403.653435
_symmetry_space_group_name_H-M "C C C A"
_symmetry_group_IT_number 68
_space_group.IT_coordinate_system_code '2'
_symmetry_cell_setting 'orthorhombic'
loop_
_space_group_symop_operation_xyz
x,y,z
-x,1/2-y,z
x,1/2-y,1/2-z
-x,y,1/2-z
-x,-y,-z
x,1/2+y,-z
-x,1/2+y,1/2+z
x,-y,1/2+z
1/2+x,1/2+y,z
1/2-x,-y,z
1/2+x,-y,1/2-z
1/2-x,1/2+y,1/2-z
1/2-x,1/2-y,-z
1/2+x,y,-z
1/2-x,y,1/2+z
1/2+x,1/2-y,1/2+z
loop_
_atom_site_type_symbol
_atom_site_label
_atom_site_fract_x
_atom_site_fract_y
_atom_site_fract_z
Si Si1 0.136202 0.225692 0.598281
Si Si2 0.927226 0.225639 0.501484
Si Si3 0.206216 0.668135 0.698967
Si Si4 0.920082 0.422139 0.424341
Si Si5 0.969504 0.008226 0.356228
Si Si6 0.750000 0.000000 0.365708
Si Si7 0.069752 0.362607 0.201583
O O1 0.115061 0.205593 0.544854
O O2 0.130849 0.457780 0.602430
O O3 0.199978 0.126896 0.607607
O O4 0.082468 0.141337 0.631448
O O5 0.908531 0.214947 0.445295
O O6 0.923685 0.998048 0.521363
O O7 0.000000 0.250000 0.506799
O O8 0.223986 0.750000 0.750000
O O9 0.250000 0.500000 0.683970
O O10 0.139134 0.578625 0.703620
O O11 0.211885 0.849354 0.665334
O O12 0.983941 0.469020 0.399801
O O13 0.017907 0.986428 0.312870
O O14 0.936705 0.204329 0.340111
O O15 0.060190 0.250000 0.250000
#
# Coordination Sequence:
#
# PCOD9506809 Si02
#       7
#    16  16  16  16  16   8  16
#     4  10  23  39  63  93 130 176 221 276 343 401
#     4  10  20  36  59  91 131 163 217 274 338 401
#     4  11  24  45  71  99 126 184 234 277 337 401
#     4  10  22  36  61  96 127 171 220 272 347 399
#     4  11  19  37  61  96 131 166 212 284 334 409
#     4  12  24  48  68  92 144 174 232 298 326 414
#     4  10  24  40  63  97 136 172 222 272 345 410
#
# _framework density 23.616754
#
# number of rings (size 3 to 8) (size 9 to 14) (size 15 to 20)
#    0.923    0.615    3.846    1.846    4.308    0.000 
#    0.000    0.769    0.000    1.846    0.000    0.000 
#    0.000    0.000    0.000    0.000    0.000    0.000 
#
# Total GULP energy -289512.656366 kJ/mol
# GULP energy per Si atom -5567.551084 kJ/mol
# Density = 2.356300 g / cm^3
# Si number density = 23.616754 Si / 1000 Ang^3
#
#
#
# Elastic Constant Matrix: (Units=GPa)
#
#
# Indices 1 2 3 4 5 6 
#
# 1 138.2986 24.1532 24.0989 0.0000 0.0000 0.0000
# 2 24.1532 49.7719 9.4129 0.0000 0.0000 0.0000
# 3 24.0989 9.4129 113.1874 0.0000 0.0000 0.0000
# 4 0.0000 0.0000 0.0000 28.1802 0.0000 0.0000
# 5 0.0000 0.0000 0.0000 0.0000 -22.4658 0.0000
# 6 0.0000 0.0000 0.0000 0.0000 0.0000 38.2114
#
#
#
# Elastic Compliance Matrix: (Units=1/GPa)
#
#
# Indices 1 2 3 4 5 6 
#
# 1 0.008120 -0.003671 -0.001424 0.000000 0.000000 0.000000
# 2 -0.003671 0.022073 -0.001054 0.000000 0.000000 0.000000
# 3 -0.001424 -0.001054 0.009226 0.000000 0.000000 0.000000
# 4 0.000000 0.000000 0.000000 0.035486 0.000000 0.000000
# 5 0.000000 0.000000 0.000000 0.000000 -0.044512 0.000000
# 6 0.000000 0.000000 0.000000 0.000000 0.000000 0.026170
#
#
# Mechanical properties :
#
#
# Convention : Reuss Voigt Hill
#
# Bulk Modulus (GPa) = 36.87217 46.28756 41.57987
# Shear Modulus (GPa) = 64.18518 25.02471 44.60495
#
# Velocity S-wave (km/s) = 5.21889 3.25871 4.35063
# Velocity P-wave (km/s) = 7.20849 5.81385 6.54841
#
# Compressibility (1/GPa) = 0.02712073
#
# Stress axis : x y z
#
# Youngs Moduli (GPa) = 123.15357 45.30519 108.39360
#
# Poissons Ratio (x) = 0.16632 0.15430
# Poissons Ratio (y) = 0.45212 0.11424
# Poissons Ratio (z) = 0.17531 0.04775
#
# Static dielectric constant tensor:
#      x y z
#    x 1.858460 0.000000 0.000000 
#    y 0.000000 2.544640 0.000000 
#    z 0.000000 0.000000 2.128240 
# 
# From -- ./inp_files/55818.got.cif
#   From: 2010.05.17/outbox.cif.g08.bks.cpg/sg68_28_cif.got.tgz:55818.got - 2010.06.03 18:57:09.
