data_PCOD9506593
_publ_section_title
;
Structure prediction by ZEFSAII (Michael W. Deem and Ramdas Pophale) SiO2 
 PCOD9506593
Probable space group: C C C A
;
_chemical_formula_sum "Si O2"
_cell_formula_units_Z 56
_cell_length_a 13.431320
_cell_length_b 5.251369
_cell_length_c 33.140930
_cell_angle_alpha 90.000000
_cell_angle_beta 90.000000
_cell_angle_gamma 90.000000
_cell_volume 2337.523167
_symmetry_space_group_name_H-M "C C C A"
_symmetry_group_IT_number 68
_space_group.IT_coordinate_system_code '2'
_symmetry_cell_setting 'orthorhombic'
loop_
_space_group_symop_operation_xyz
x,y,z
-x,1/2-y,z
x,1/2-y,1/2-z
-x,y,1/2-z
-x,-y,-z
x,1/2+y,-z
-x,1/2+y,1/2+z
x,-y,1/2+z
1/2+x,1/2+y,z
1/2-x,-y,z
1/2+x,-y,1/2-z
1/2-x,1/2+y,1/2-z
1/2-x,1/2-y,-z
1/2+x,y,-z
1/2-x,y,1/2+z
1/2+x,1/2-y,1/2+z
loop_
_atom_site_type_symbol
_atom_site_label
_atom_site_fract_x
_atom_site_fract_y
_atom_site_fract_z
Si Si1 0.380822 0.221431 0.294933
Si Si2 0.250000 0.000000 0.409280
Si Si3 0.360548 0.793311 0.982704
Si Si4 0.618880 0.221631 0.846090
O O1 0.500000 0.250000 0.291056
O O2 0.337687 0.250000 0.250000
O O3 0.358342 0.449222 0.326112
O O4 0.361673 0.943986 0.313216
O O5 0.336862 0.122203 0.437359
O O6 0.191051 0.206140 0.382813
O O7 0.405028 0.515782 0.989401
O O8 0.250000 0.750000 0.000000
O O9 0.500000 0.250000 0.856365
#
# Coordination Sequence:
#
# PCOD9506593 Si02
#       4
#    16   8  16  16
#     4   9  18  35  55  74 103 142 181 220 265 327
#     4  10  20  34  56  78 110 138 168 228 278 310
#     4   8  16  30  50  72  97 138 177 202 254 330
#     4  10  21  34  53  81 105 136 181 223 274 327
#
# _framework density 23.956983999999999
#
# number of rings (size 3 to 8) (size 9 to 14) (size 15 to 20)
#    0.000    3.143    0.000    0.857    0.000   13.714 
#    0.000    2.857    0.000   15.429    0.000    0.000 
#    0.000    0.000    0.000    0.000    0.000    0.000 
#
# Total GULP energy -156297.921796 kJ/mol
# GULP energy per Si atom -5582.068636 kJ/mol
# Density = 2.390246 g / cm^3
# Si number density = 23.956984 Si / 1000 Ang^3
#
#
#
# Elastic Constant Matrix: (Units=GPa)
#
#
# Indices 1 2 3 4 5 6 
#
# 1 92.0757 -3.5196 19.2928 0.0000 0.0000 0.0000
# 2 -3.5196 152.5494 46.3722 0.0000 0.0000 0.0000
# 3 19.2928 46.3722 133.5910 0.0000 0.0000 0.0000
# 4 0.0000 0.0000 0.0000 -327.2507 0.0000 0.0000
# 5 0.0000 0.0000 0.0000 0.0000 -76.3344 0.0000
# 6 0.0000 0.0000 0.0000 0.0000 0.0000 -3.2709
#
#
#
# Elastic Compliance Matrix: (Units=1/GPa)
#
#
# Indices 1 2 3 4 5 6 
#
# 1 0.011296 0.000846 -0.001925 0.000000 0.000000 0.000000
# 2 0.000846 0.007392 -0.002688 0.000000 0.000000 0.000000
# 3 -0.001925 -0.002688 0.008697 0.000000 0.000000 0.000000
# 4 0.000000 0.000000 0.000000 -0.003056 0.000000 0.000000
# 5 0.000000 0.000000 0.000000 0.000000 -0.013100 0.000000
# 6 0.000000 0.000000 0.000000 0.000000 0.000000 -0.305726
#
#
# Mechanical properties :
#
#
# Convention : Reuss Voigt Hill
#
# Bulk Modulus (GPa) = 50.37687 55.83409 53.10548
# Shear Modulus (GPa) = -17.83513 -60.29981 -39.06747
#
# Velocity S-wave (km/s) = -2.73145 -5.02242 -4.04262
# Velocity P-wave (km/s) = 3.33556 3.20567 0.65178
#
# Compressibility (1/GPa) = 0.01985038
#
# Stress axis : x y z
#
# Youngs Moduli (GPa) = 88.52451 135.28364 114.98743
#
# Poissons Ratio (x) = -0.11442 0.22135
# Poissons Ratio (y) = -0.07487 0.30909
# Poissons Ratio (z) = 0.17041 0.36365
#
# Static dielectric constant tensor:
#      x y z
#    x 1.875420 0.000000 0.000000 
#    y 0.000000 1.881920 0.000000 
#    z 0.000000 0.000000 1.927370 
# 
# From -- ./inp_files/55062.got.cif
#   From: 2010.05.17/outbox.cif.g08.bks.cpg/sg68_28_cif.got.tgz:55062.got - 2010.06.03 18:57:09.
