data_PCOD9506975
_publ_section_title
;
Structure prediction by ZEFSAII (Michael W. Deem and Ramdas Pophale) SiO2 
 PCOD9506975
Probable space group: C C C A
;
_chemical_formula_sum "Si O2"
_cell_formula_units_Z 92
_cell_length_a 9.001618
_cell_length_b 20.027549
_cell_length_c 26.142438
_cell_angle_alpha 90.000000
_cell_angle_beta 90.000000
_cell_angle_gamma 90.000000
_cell_volume 4712.967757
_symmetry_space_group_name_H-M "C C C A"
_symmetry_group_IT_number 68
_space_group.IT_coordinate_system_code '2'
_symmetry_cell_setting 'orthorhombic'
loop_
_space_group_symop_operation_xyz
x,y,z
-x,1/2-y,z
x,1/2-y,1/2-z
-x,y,1/2-z
-x,-y,-z
x,1/2+y,-z
-x,1/2+y,1/2+z
x,-y,1/2+z
1/2+x,1/2+y,z
1/2-x,-y,z
1/2+x,-y,1/2-z
1/2-x,1/2+y,1/2-z
1/2-x,1/2-y,-z
1/2+x,y,-z
1/2-x,y,1/2+z
1/2+x,1/2-y,1/2+z
loop_
_atom_site_type_symbol
_atom_site_label
_atom_site_fract_x
_atom_site_fract_y
_atom_site_fract_z
Si Si1 0.000000 0.250000 0.750000
Si Si2 0.250000 0.000000 0.622775
Si Si3 0.610981 0.378420 0.066991
Si Si4 0.796047 0.698596 0.169490
Si Si5 0.623056 0.689572 0.375253
Si Si6 0.947970 0.904306 0.806871
Si Si7 0.292246 0.824785 0.978067
O O1 0.084330 0.298984 0.787459
O O2 0.360680 0.953233 0.588927
O O3 0.145412 0.957394 0.660681
O O4 0.650983 0.333748 0.116543
O O5 0.457069 0.348203 0.042044
O O6 0.739407 0.370074 0.024762
O O7 0.751338 0.773569 0.155829
O O8 0.659157 0.660112 0.194877
O O9 0.500000 0.750000 0.381553
O O10 0.574555 0.625304 0.343555
O O11 0.682981 0.668638 0.430048
O O12 0.000000 0.923733 0.750000
O O13 0.250000 0.750000 0.000000
#
# Coordination Sequence:
#
# PCOD9506975 Si02
#       7
#     4   8  16  16  16  16  16
#     4  12  20  32  58  96 136 168 200 274 360 400
#     4  10  26  50  62  88 136 178 226 284 312 398
#     4  11  25  43  65  96 139 175 225 270 327 403
#     4  10  21  36  61  97 136 164 212 281 336 397
#     4  10  20  37  64  97 131 163 213 272 341 404
#     4  10  22  44  65  89 124 176 227 275 327 392
#     4  12  23  39  69 103 132 175 212 275 347 404
#
# _framework density 19.520607999999999
#
# number of rings (size 3 to 8) (size 9 to 14) (size 15 to 20)
#    0.000    1.391    1.739    3.652    4.870    3.130 
#    9.391    0.000    0.000    0.000    0.000    0.000 
#    0.000    0.000    0.000    0.000    0.000    0.000 
#
# Total GULP energy -256127.826370 kJ/mol
# GULP energy per Si atom -5567.996225 kJ/mol
# Density = 1.947618 g / cm^3
# Si number density = 19.520608 Si / 1000 Ang^3
#
#
#
# Elastic Constant Matrix: (Units=GPa)
#
#
# Indices 1 2 3 4 5 6 
#
# 1 68.4947 14.7944 62.8534 0.0000 0.0000 0.0000
# 2 14.7944 76.4723 39.1084 0.0000 0.0000 0.0000
# 3 62.8534 39.1084 134.5966 0.0000 0.0000 0.0000
# 4 0.0000 0.0000 0.0000 8.7010 0.0000 0.0000
# 5 0.0000 0.0000 0.0000 0.0000 56.9245 0.0000
# 6 0.0000 0.0000 0.0000 0.0000 0.0000 11.2690
#
#
#
# Elastic Compliance Matrix: (Units=1/GPa)
#
#
# Indices 1 2 3 4 5 6 
#
# 1 0.025668 0.001367 -0.012384 0.000000 0.000000 0.000000
# 2 0.001367 0.015432 -0.005122 0.000000 0.000000 0.000000
# 3 -0.012384 -0.005122 0.014701 0.000000 0.000000 0.000000
# 4 0.000000 0.000000 0.000000 0.114930 0.000000 0.000000
# 5 0.000000 0.000000 0.000000 0.000000 0.017567 0.000000
# 6 0.000000 0.000000 0.000000 0.000000 0.000000 0.088739
#
#
# Mechanical properties :
#
#
# Convention : Reuss Voigt Hill
#
# Bulk Modulus (GPa) = 42.51117 57.00844 49.75980
# Shear Modulus (GPa) = 15.76518 26.23272 20.99895
#
# Velocity S-wave (km/s) = 2.84494 3.66983 3.28339
# Velocity P-wave (km/s) = 5.71108 6.87201 6.31827
#
# Compressibility (1/GPa) = 0.02352323
#
# Stress axis : x y z
#
# Youngs Moduli (GPa) = 38.95894 64.80162 68.02334
#
# Poissons Ratio (x) = -0.08861 0.84238
# Poissons Ratio (y) = -0.05327 0.34844
# Poissons Ratio (z) = 0.48245 0.33194
#
# Static dielectric constant tensor:
#      x y z
#    x 1.779360 0.000000 0.000000 
#    y 0.000000 1.695850 0.000000 
#    z 0.000000 0.000000 1.660980 
# 
# From -- ./inp_files/43176.got.cif
#   From: 2010.05.17/outbox.cif.g08.bks.cpg/sg68_22_cif.got.tgz:43176.got - 2010.06.03 18:57:09.
