data_PCOD9506138
_publ_section_title
;
Structure prediction by ZEFSAII (Michael W. Deem and Ramdas Pophale) SiO2 
 PCOD9506138
Probable space group: C C C A
;
_chemical_formula_sum "Si O2"
_cell_formula_units_Z 108
_cell_length_a 11.873652
_cell_length_b 19.171863
_cell_length_c 23.708622
_cell_angle_alpha 90.000000
_cell_angle_beta 90.000000
_cell_angle_gamma 90.000000
_cell_volume 5397.031410
_symmetry_space_group_name_H-M "C C C A"
_symmetry_group_IT_number 68
_space_group.IT_coordinate_system_code '2'
_symmetry_cell_setting 'orthorhombic'
loop_
_space_group_symop_operation_xyz
x,y,z
-x,1/2-y,z
x,1/2-y,1/2-z
-x,y,1/2-z
-x,-y,-z
x,1/2+y,-z
-x,1/2+y,1/2+z
x,-y,1/2+z
1/2+x,1/2+y,z
1/2-x,-y,z
1/2+x,-y,1/2-z
1/2-x,1/2+y,1/2-z
1/2-x,1/2-y,-z
1/2+x,y,-z
1/2-x,y,1/2+z
1/2+x,1/2-y,1/2+z
loop_
_atom_site_type_symbol
_atom_site_label
_atom_site_fract_x
_atom_site_fract_y
_atom_site_fract_z
Si Si1 0.750457 0.124021 0.901004
Si Si2 0.750000 0.000000 0.586457
Si Si3 0.390164 0.595460 0.166181
Si Si4 0.402983 0.440162 0.993166
Si Si5 0.367179 0.120034 0.706236
Si Si6 0.130072 0.272527 0.087206
Si Si7 0.500000 0.750000 0.250000
Si Si8 0.061918 0.320413 0.972688
O O1 0.736738 0.109280 0.834968
O O2 0.701863 0.203070 0.905614
O O3 0.873864 0.132913 0.926872
O O4 0.674203 0.070294 0.937461
O O5 0.661084 0.037859 0.626104
O O6 0.817125 0.050531 0.544667
O O7 0.346152 0.594594 0.230397
O O8 0.524204 0.586918 0.174970
O O9 0.359010 0.668080 0.134785
O O10 0.467908 0.367994 0.998930
O O11 0.500000 0.500000 0.000000
O O12 0.417670 0.198690 0.715364
O O13 0.000000 0.250000 0.088602
O O14 0.146891 0.302598 0.024070
O O15 0.000000 0.250000 0.951947
#
# Coordination Sequence:
#
# PCOD9506138 Si02
#       8
#    16   8  16  16  16  16   4  16
#     4  12  21  36  62  89 125 162 194 250 313 367
#     4  12  26  42  62  84 122 170 198 252 314 372
#     4  10  21  37  58  90 117 153 206 257 298 350
#     4  12  24  41  61  90 124 157 210 253 309 373
#     4  10  19  34  59  89 118 148 204 253 301 353
#     4  11  18  34  62  91 122 151 199 251 302 354
#     4   8  16  32  56  96 118 144 192 276 286 338
#     4  11  24  38  57  93 127 163 199 246 304 377
#
# _framework density 20.011001
#
# number of rings (size 3 to 8) (size 9 to 14) (size 15 to 20)
#    0.000    1.185    4.444    5.778    3.111    0.000 
#    0.000    5.185    0.000    0.000    0.000    0.000 
#    0.000    0.000    0.000    0.000    0.000    0.000 
#
# Total GULP energy -301375.415323 kJ/mol
# GULP energy per Si atom -5581.026210 kJ/mol
# Density = 1.996546 g / cm^3
# Si number density = 20.011001 Si / 1000 Ang^3
#
#
#
# Elastic Constant Matrix: (Units=GPa)
#
#
# Indices 1 2 3 4 5 6 
#
# 1 38.1868 1.0305 24.6872 0.0000 0.0000 0.0000
# 2 1.0305 52.0920 14.6345 0.0000 0.0000 0.0000
# 3 24.6872 14.6345 141.7573 0.0000 0.0000 0.0000
# 4 0.0000 0.0000 0.0000 27.8777 0.0000 0.0000
# 5 0.0000 0.0000 0.0000 0.0000 33.6196 0.0000
# 6 0.0000 0.0000 0.0000 0.0000 0.0000 24.2277
#
#
#
# Elastic Compliance Matrix: (Units=1/GPa)
#
#
# Indices 1 2 3 4 5 6 
#
# 1 0.029549 0.000887 -0.005238 0.000000 0.000000 0.000000
# 2 0.000887 0.019797 -0.002198 0.000000 0.000000 0.000000
# 3 -0.005238 -0.002198 0.008193 0.000000 0.000000 0.000000
# 4 0.000000 0.000000 0.000000 0.035871 0.000000 0.000000
# 5 0.000000 0.000000 0.000000 0.000000 0.029745 0.000000
# 6 0.000000 0.000000 0.000000 0.000000 0.000000 0.041275
#
#
# Mechanical properties :
#
#
# Convention : Reuss Voigt Hill
#
# Bulk Modulus (GPa) = 22.50149 34.74897 28.62523
# Shear Modulus (GPa) = 25.99540 29.92391 27.95965
#
# Velocity S-wave (km/s) = 3.60815 3.87120 3.74199
# Velocity P-wave (km/s) = 5.35045 6.11426 5.74506
#
# Compressibility (1/GPa) = 0.04444151
#
# Stress axis : x y z
#
# Youngs Moduli (GPa) = 33.84189 50.51314 122.04980
#
# Poissons Ratio (x) = -0.04480 0.63925
# Poissons Ratio (y) = -0.03001 0.26829
# Poissons Ratio (z) = 0.17725 0.11104
#
# Static dielectric constant tensor:
#      x y z
#    x 1.768570 0.000000 0.000000 
#    y 0.000000 1.749670 0.000000 
#    z 0.000000 0.000000 1.741660 
# 
# From -- ./inp_files/44614.got.cif
#   From: 2010.05.17/outbox.cif.g08.bks.cpg/sg68_23_cif.got.tgz:44614.got - 2010.06.03 18:57:09.
