data_PCOD9506694
_publ_section_title
;
Structure prediction by ZEFSAII (Michael W. Deem and Ramdas Pophale) SiO2 
 PCOD9506694
Probable space group: C C C A
;
_chemical_formula_sum "Si O2"
_cell_formula_units_Z 80
_cell_length_a 18.464783
_cell_length_b 14.131245
_cell_length_c 16.081553
_cell_angle_alpha 90.000000
_cell_angle_beta 90.000000
_cell_angle_gamma 90.000000
_cell_volume 4196.165614
_symmetry_space_group_name_H-M "C C C A"
_symmetry_group_IT_number 68
_space_group.IT_coordinate_system_code '2'
_symmetry_cell_setting 'orthorhombic'
loop_
_space_group_symop_operation_xyz
x,y,z
-x,1/2-y,z
x,1/2-y,1/2-z
-x,y,1/2-z
-x,-y,-z
x,1/2+y,-z
-x,1/2+y,1/2+z
x,-y,1/2+z
1/2+x,1/2+y,z
1/2-x,-y,z
1/2+x,-y,1/2-z
1/2-x,1/2+y,1/2-z
1/2-x,1/2-y,-z
1/2+x,y,-z
1/2-x,y,1/2+z
1/2+x,1/2-y,1/2+z
loop_
_atom_site_type_symbol
_atom_site_label
_atom_site_fract_x
_atom_site_fract_y
_atom_site_fract_z
Si Si1 0.103740 0.331415 0.682995
Si Si2 0.540884 0.649358 0.457083
Si Si3 0.679984 0.563931 0.683694
Si Si4 0.824279 0.714606 0.038486
Si Si5 0.519386 0.971189 0.873102
O O1 0.083252 0.250000 0.750000
O O2 0.170239 0.381990 0.729184
O O3 0.128603 0.289176 0.594195
O O4 0.039156 0.405472 0.672588
O O5 0.500000 0.750000 0.454366
O O6 0.625278 0.675227 0.464622
O O7 0.528071 0.589456 0.541774
O O8 0.514155 0.574924 0.388322
O O9 0.750000 0.500000 0.687342
O O10 0.691550 0.635056 0.607050
O O11 0.599995 0.520401 0.665027
O O12 0.750000 0.750000 0.000000
#
# Coordination Sequence:
#
# PCOD9506694 Si02
#       5
#    16  16  16  16  16
#     4  10  21  40  63  87 115 160 215 252 300 370
#     4  10  20  35  58  91 122 153 197 255 301 365
#     4  10  23  37  56  86 123 156 197 258 304 367
#     4  10  22  36  61  90 119 158 195 257 314 355
#     4  10  21  36  62  88 118 159 204 252 304 358
#
# _framework density 19.065024000000001
#
# number of rings (size 3 to 8) (size 9 to 14) (size 15 to 20)
#    0.000    2.000    2.000    0.600    2.800    7.200 
#    0.000    0.000    0.000    1.200    0.000    0.000 
#    0.000    0.000    0.000    0.000    0.000    0.000 
#
# Total GULP energy -222922.159865 kJ/mol
# GULP energy per Si atom -5573.053997 kJ/mol
# Density = 1.902163 g / cm^3
# Si number density = 19.065024 Si / 1000 Ang^3
#
#
#
# Elastic Constant Matrix: (Units=GPa)
#
#
# Indices 1 2 3 4 5 6 
#
# 1 156.9787 85.6858 43.8853 0.0000 0.0000 0.0000
# 2 85.6858 120.7057 25.0593 0.0000 0.0000 0.0000
# 3 43.8853 25.0593 46.1236 0.0000 0.0000 0.0000
# 4 0.0000 0.0000 0.0000 9.5688 0.0000 0.0000
# 5 0.0000 0.0000 0.0000 0.0000 6.3403 0.0000
# 6 0.0000 0.0000 0.0000 0.0000 0.0000 46.2512
#
#
#
# Elastic Compliance Matrix: (Units=1/GPa)
#
#
# Indices 1 2 3 4 5 6 
#
# 1 0.012577 -0.007263 -0.008021 0.000000 0.000000 0.000000
# 2 -0.007263 0.013532 -0.000442 0.000000 0.000000 0.000000
# 3 -0.008021 -0.000442 0.029552 0.000000 0.000000 0.000000
# 4 0.000000 0.000000 0.000000 0.104506 0.000000 0.000000
# 5 0.000000 0.000000 0.000000 0.000000 0.157720 0.000000
# 6 0.000000 0.000000 0.000000 0.000000 0.000000 0.021621
#
#
# Mechanical properties :
#
#
# Convention : Reuss Voigt Hill
#
# Bulk Modulus (GPa) = 41.30367 70.34099 55.82233
# Shear Modulus (GPa) = 13.19160 23.71056 18.45108
#
# Velocity S-wave (km/s) = 2.63330 3.53039 3.11432
# Velocity P-wave (km/s) = 5.56394 7.32077 6.50196
#
# Compressibility (1/GPa) = 0.02421092
#
# Stress axis : x y z
#
# Youngs Moduli (GPa) = 79.51023 73.89855 33.83838
#
# Poissons Ratio (x) = 0.53672 0.27141
# Poissons Ratio (y) = 0.57748 0.01494
# Poissons Ratio (z) = 0.63772 0.03263
#
# Static dielectric constant tensor:
#      x y z
#    x 1.647320 0.000000 0.000000 
#    y 0.000000 1.700500 0.000000 
#    z 0.000000 0.000000 1.694610 
# 
# From -- ./inp_files/31757.got.cif
#   From: 2010.05.17/outbox.cif.g08.bks.cpg/sg68_16_cif.got.tgz:31757.got - 2010.06.03 18:57:09.
