data_PCOD9506980
_publ_section_title
;
Structure prediction by ZEFSAII (Michael W. Deem and Ramdas Pophale) SiO2 
 PCOD9506980
Probable space group: C C C A
;
_chemical_formula_sum "Si O2"
_cell_formula_units_Z 88
_cell_length_a 14.929249
_cell_length_b 14.117316
_cell_length_c 19.209114
_cell_angle_alpha 90.000000
_cell_angle_beta 90.000000
_cell_angle_gamma 90.000000
_cell_volume 4048.530650
_symmetry_space_group_name_H-M "C C C A"
_symmetry_group_IT_number 68
_space_group.IT_coordinate_system_code '2'
_symmetry_cell_setting 'orthorhombic'
loop_
_space_group_symop_operation_xyz
x,y,z
-x,1/2-y,z
x,1/2-y,1/2-z
-x,y,1/2-z
-x,-y,-z
x,1/2+y,-z
-x,1/2+y,1/2+z
x,-y,1/2+z
1/2+x,1/2+y,z
1/2-x,-y,z
1/2+x,-y,1/2-z
1/2-x,1/2+y,1/2-z
1/2-x,1/2-y,-z
1/2+x,y,-z
1/2-x,y,1/2+z
1/2+x,1/2-y,1/2+z
loop_
_atom_site_type_symbol
_atom_site_label
_atom_site_fract_x
_atom_site_fract_y
_atom_site_fract_z
Si Si1 0.061961 0.084044 0.345416
Si Si2 0.500000 0.250000 0.750000
Si Si3 0.500000 0.250000 0.250000
Si Si4 0.250000 0.500000 0.117434
Si Si5 0.250015 0.862136 0.500000
Si Si6 0.461600 0.143594 0.000000
Si Si7 0.250000 0.500000 0.382566
Si Si8 0.438039 0.915956 0.654584
O O1 0.055363 0.179298 0.299944
O O2 0.164392 0.046233 0.345810
O O3 0.019491 0.105127 0.422513
O O4 1.000000 0.000000 0.319129
O O5 0.555363 0.179298 0.299944
O O6 0.212548 0.583947 0.067054
O O7 0.250000 0.750000 0.500000
O O8 0.355742 0.878091 0.500000
O O9 0.212548 0.916053 0.567054
O O10 0.500000 0.250000 0.000000
O O11 0.480509 0.105127 0.077487
O O12 0.335608 0.453767 0.345810
#
# Coordination Sequence:
#
# PCOD9506980 Si02
#       8
#    16   4   4   8  16  16   8  16
#     4  11  24  44  69  97 138 179 233 288 352 414
#     4  12  26  46  66  98 136 188 238 292 346 432
#     4  12  26  46  66  98 136 188 238 292 346 432
#     4   9  22  40  61  98 128 171 221 274 336 407
#     4   9  19  33  60  99 137 163 210 271 337 409
#     4  10  20  37  66 101 131 175 223 276 351 413
#     4   9  22  40  61  98 128 171 221 274 336 407
#     4  11  24  44  69  97 138 179 233 288 352 414
#
# _framework density 21.736281000000002
#
# number of rings (size 3 to 8) (size 9 to 14) (size 15 to 20)
#    0.000    1.818    1.818    2.182    5.091    0.000 
#    0.000    5.455    0.000    0.000    0.000    0.000 
#    0.000    0.000    0.000    0.000    0.000    0.000 
#
# Total GULP energy -245030.830593 kJ/mol
# GULP energy per Si atom -5568.882513 kJ/mol
# Density = 2.168681 g / cm^3
# Si number density = 21.736281 Si / 1000 Ang^3
#
#
#
# Elastic Constant Matrix: (Units=GPa)
#
#
# Indices 1 2 3 4 5 6 
#
# 1 120.8827 64.1438 47.8814 0.0000 0.0000 0.0000
# 2 64.1438 199.2105 82.3227 0.0000 0.0000 0.0000
# 3 47.8814 82.3227 139.5334 0.0000 0.0000 0.0000
# 4 0.0000 0.0000 0.0000 869.9823 0.0000 0.0000
# 5 0.0000 0.0000 0.0000 0.0000 12.5174 0.0000
# 6 0.0000 0.0000 0.0000 0.0000 0.0000 43.5313
#
#
#
# Elastic Compliance Matrix: (Units=1/GPa)
#
#
# Indices 1 2 3 4 5 6 
#
# 1 0.010428 -0.002485 -0.002112 0.000000 0.000000 0.000000
# 2 -0.002485 0.007230 -0.003413 0.000000 0.000000 0.000000
# 3 -0.002112 -0.003413 0.009905 0.000000 0.000000 0.000000
# 4 0.000000 0.000000 0.000000 0.001149 0.000000 0.000000
# 5 0.000000 0.000000 0.000000 0.000000 0.079889 0.000000
# 6 0.000000 0.000000 0.000000 0.000000 0.000000 0.022972
#
#
# Mechanical properties :
#
#
# Convention : Reuss Voigt Hill
#
# Bulk Modulus (GPa) = 86.63342 94.25803 90.44573
# Shear Modulus (GPa) = 33.01599 202.89142 117.95371
#
# Velocity S-wave (km/s) = 3.90158 9.67186 7.37453
# Velocity P-wave (km/s) = 7.76141 12.96862 10.68702
#
# Compressibility (1/GPa) = 0.01154289
#
# Stress axis : x y z
#
# Youngs Moduli (GPa) = 95.89915 138.30633 100.95581
#
# Poissons Ratio (x) = 0.34365 0.21325
# Poissons Ratio (y) = 0.23828 0.34458
# Poissons Ratio (z) = 0.20257 0.47206
#
# Static dielectric constant tensor:
#      x y z
#    x 1.775470 0.000000 0.000000 
#    y 0.000000 1.760520 0.000000 
#    z 0.000000 0.000000 1.976660 
# 
# From -- ./inp_files/31916.got.cif
#   From: 2010.05.17/outbox.cif.g08.bks.cpg/sg68_16_cif.got.tgz:31916.got - 2010.06.03 18:57:09.
