data_PCOD9506066
_publ_section_title
;
Structure prediction by ZEFSAII (Michael W. Deem and Ramdas Pophale) SiO2 
 PCOD9506066
Probable space group: C C C A
;
_chemical_formula_sum "Si O2"
_cell_formula_units_Z 88
_cell_length_a 9.088583
_cell_length_b 18.679660
_cell_length_c 24.207950
_cell_angle_alpha 90.000000
_cell_angle_beta 90.000000
_cell_angle_gamma 90.000000
_cell_volume 4109.823380
_symmetry_space_group_name_H-M "C C C A"
_symmetry_group_IT_number 68
_space_group.IT_coordinate_system_code '2'
_symmetry_cell_setting 'orthorhombic'
loop_
_space_group_symop_operation_xyz
x,y,z
-x,1/2-y,z
x,1/2-y,1/2-z
-x,y,1/2-z
-x,-y,-z
x,1/2+y,-z
-x,1/2+y,1/2+z
x,-y,1/2+z
1/2+x,1/2+y,z
1/2-x,-y,z
1/2+x,-y,1/2-z
1/2-x,1/2+y,1/2-z
1/2-x,1/2-y,-z
1/2+x,y,-z
1/2-x,y,1/2+z
1/2+x,1/2-y,1/2+z
loop_
_atom_site_type_symbol
_atom_site_label
_atom_site_fract_x
_atom_site_fract_y
_atom_site_fract_z
Si Si1 0.250000 0.500000 0.191232
Si Si2 0.868260 0.294015 0.668172
Si Si3 0.471608 0.068623 0.384139
Si Si4 0.000000 0.250000 0.477795
Si Si5 0.280214 0.312159 0.068230
Si Si6 0.840986 0.608725 0.721772
Si Si7 0.250000 0.000000 0.624787
O O1 0.392374 0.489681 0.153906
O O2 0.251076 0.431526 0.230887
O O3 0.816341 0.246644 0.615716
O O4 0.731707 0.316646 0.705188
O O5 0.000000 0.250000 0.694139
O O6 0.947936 0.367331 0.649124
O O7 0.340164 0.109958 0.414910
O O8 0.615035 0.031565 0.410723
O O9 0.892790 0.303217 0.444224
O O10 0.883731 0.208624 0.516430
O O11 0.821336 0.558818 0.667049
O O12 0.000000 0.614091 0.750000
#
# Coordination Sequence:
#
# PCOD9506066 Si02
#       7
#     8  16  16   8  16  16   8
#     4  11  22  34  56  87 122 170 217 230 284 356
#     4   9  19  37  61  87 123 157 202 258 317 351
#     4  10  19  37  57  88 125 159 206 247 298 371
#     4  10  20  38  70  96 114 148 208 256 326 400
#     4  10  20  40  65  97 116 155 199 261 330 367
#     4  10  19  33  56  89 120 166 215 243 285 360
#     4   9  18  32  56  81 122 170 199 242 286 358
#
# _framework density 21.412113000000002
#
# number of rings (size 3 to 8) (size 9 to 14) (size 15 to 20)
#    0.000    2.182    4.545    0.000    0.000    1.455 
#    0.000    6.364    0.000    7.636    0.000    0.000 
#    0.000    0.000    0.000    0.000    0.000    0.000 
#
# Total GULP energy -245054.826285 kJ/mol
# GULP energy per Si atom -5569.427870 kJ/mol
# Density = 2.136338 g / cm^3
# Si number density = 21.412113 Si / 1000 Ang^3
#
#
#
# Elastic Constant Matrix: (Units=GPa)
#
#
# Indices 1 2 3 4 5 6 
#
# 1 155.1828 41.4478 39.9029 0.0000 0.0000 0.0000
# 2 41.4478 61.2198 19.7652 0.0000 0.0000 0.0000
# 3 39.9029 19.7652 45.0544 0.0000 0.0000 0.0000
# 4 0.0000 0.0000 0.0000 -31.9879 0.0000 0.0000
# 5 0.0000 0.0000 0.0000 0.0000 21.1572 0.0000
# 6 0.0000 0.0000 0.0000 0.0000 0.0000 36.5933
#
#
#
# Elastic Compliance Matrix: (Units=1/GPa)
#
#
# Indices 1 2 3 4 5 6 
#
# 1 0.009180 -0.004183 -0.006295 0.000000 0.000000 0.000000
# 2 -0.004183 0.020936 -0.005480 0.000000 0.000000 0.000000
# 3 -0.006295 -0.005480 0.030175 0.000000 0.000000 0.000000
# 4 0.000000 0.000000 0.000000 -0.031262 0.000000 0.000000
# 5 0.000000 0.000000 0.000000 0.000000 0.047265 0.000000
# 6 0.000000 0.000000 0.000000 0.000000 0.000000 0.027327
#
#
# Mechanical properties :
#
#
# Convention : Reuss Voigt Hill
#
# Bulk Modulus (GPa) = 35.24287 51.52096 43.38191
# Shear Modulus (GPa) = 34.48379 15.84192 25.16285
#
# Velocity S-wave (km/s) = 4.01743 2.72298 3.43179
# Velocity P-wave (km/s) = 6.16561 5.83095 6.00061
#
# Compressibility (1/GPa) = 0.02837454
#
# Stress axis : x y z
#
# Youngs Moduli (GPa) = 108.93365 47.76559 33.13994
#
# Poissons Ratio (x) = 0.19978 0.20863
# Poissons Ratio (y) = 0.45562 0.18161
# Poissons Ratio (z) = 0.68578 0.26176
#
# Static dielectric constant tensor:
#      x y z
#    x 1.817800 0.000000 0.000000 
#    y 0.000000 1.835780 0.000000 
#    z 0.000000 0.000000 1.812460 
# 
# From -- ./inp_files/54057.got.cif
#   From: 2010.05.17/outbox.cif.g08.bks.cpg/sg68_28_cif.got.tgz:54057.got - 2010.06.03 18:57:09.
