data_PCOD9506771
_publ_section_title
;
Structure prediction by ZEFSAII (Michael W. Deem and Ramdas Pophale) SiO2 
 PCOD9506771
Probable space group: C C C A
;
_chemical_formula_sum "Si O2"
_cell_formula_units_Z 48
_cell_length_a 7.881047
_cell_length_b 14.476843
_cell_length_c 17.119890
_cell_angle_alpha 90.000000
_cell_angle_beta 90.000000
_cell_angle_gamma 90.000000
_cell_volume 1953.254133
_symmetry_space_group_name_H-M "C C C A"
_symmetry_group_IT_number 68
_space_group.IT_coordinate_system_code '2'
_symmetry_cell_setting 'orthorhombic'
loop_
_space_group_symop_operation_xyz
x,y,z
-x,1/2-y,z
x,1/2-y,1/2-z
-x,y,1/2-z
-x,-y,-z
x,1/2+y,-z
-x,1/2+y,1/2+z
x,-y,1/2+z
1/2+x,1/2+y,z
1/2-x,-y,z
1/2+x,-y,1/2-z
1/2-x,1/2+y,1/2-z
1/2-x,1/2-y,-z
1/2+x,y,-z
1/2-x,y,1/2+z
1/2+x,1/2-y,1/2+z
loop_
_atom_site_type_symbol
_atom_site_label
_atom_site_fract_x
_atom_site_fract_y
_atom_site_fract_z
Si Si1 0.323626 0.636757 0.091437
Si Si2 0.004390 0.022215 0.840438
Si Si3 0.329429 0.315929 0.410982
O O1 0.169312 0.582687 0.133486
O O2 0.482178 0.571112 0.109349
O O3 0.311025 0.743149 0.116895
O O4 0.300368 0.645976 0.998265
O O5 0.000000 0.998168 0.750000
O O6 0.857804 0.095744 0.857492
O O7 0.500000 0.250000 0.414692
#
# Coordination Sequence:
#
# PCOD9506771 Si02
#       3
#    16  16  16
#     4   9  19  36  55  82 111 150 206 243 295 369
#     4  10  20  36  57  83 119 156 193 248 311 365
#     4   9  18  35  60  83 112 152 198 255 301 357
#
# _framework density 24.574376000000001
#
# number of rings (size 3 to 8) (size 9 to 14) (size 15 to 20)
#    0.000    2.667    0.000    1.000    0.000    6.000 
#    0.000   30.000    0.000    0.000    0.000    0.000 
#    0.000    0.000    0.000    0.000    0.000    0.000 
#
# Total GULP energy -134095.066871 kJ/mol
# GULP energy per Si atom -5587.294453 kJ/mol
# Density = 2.451844 g / cm^3
# Si number density = 24.574376 Si / 1000 Ang^3
#
#
#
# Elastic Constant Matrix: (Units=GPa)
#
#
# Indices 1 2 3 4 5 6 
#
# 1 96.7813 35.8289 1.0596 0.0000 0.0000 0.0000
# 2 35.8289 239.3391 72.8424 0.0000 0.0000 0.0000
# 3 1.0596 72.8424 72.9987 0.0000 0.0000 0.0000
# 4 0.0000 0.0000 0.0000 9.9650 0.0000 0.0000
# 5 0.0000 0.0000 0.0000 0.0000 29.4015 0.0000
# 6 0.0000 0.0000 0.0000 0.0000 0.0000 33.6375
#
#
#
# Elastic Compliance Matrix: (Units=1/GPa)
#
#
# Indices 1 2 3 4 5 6 
#
# 1 0.011172 -0.002331 0.002164 0.000000 0.000000 0.000000
# 2 -0.002331 0.006487 -0.006439 0.000000 0.000000 0.000000
# 3 0.002164 -0.006439 0.020093 0.000000 0.000000 0.000000
# 4 0.000000 0.000000 0.000000 0.100351 0.000000 0.000000
# 5 0.000000 0.000000 0.000000 0.000000 0.034012 0.000000
# 6 0.000000 0.000000 0.000000 0.000000 0.000000 0.029729
#
#
# Mechanical properties :
#
#
# Convention : Reuss Voigt Hill
#
# Bulk Modulus (GPa) = 40.75160 69.84232 55.29696
# Shear Modulus (GPa) = 22.39791 34.56001 28.47896
#
# Velocity S-wave (km/s) = 3.02227 3.75419 3.40794
# Velocity P-wave (km/s) = 5.36636 6.87564 6.16734
#
# Compressibility (1/GPa) = 0.02453891
#
# Stress axis : x y z
#
# Youngs Moduli (GPa) = 89.51091 154.15791 49.76907
#
# Poissons Ratio (x) = 0.35934 -0.10769
# Poissons Ratio (y) = 0.20865 0.32047
# Poissons Ratio (z) = -0.19368 0.99264
#
# Static dielectric constant tensor:
#      x y z
#    x 2.216390 0.000000 0.000000 
#    y 0.000000 1.943160 0.000000 
#    z 0.000000 0.000000 1.818320 
# 
# From -- ./inp_files/12411.got.cif
#   From: 2010.05.17/outbox.cif.g08.bks.cpg/sg68_7_cif.got.tgz:12411.got - 2010.06.03 18:57:09.
