data_PCOD9506290
_publ_section_title
;
Structure prediction by ZEFSAII (Michael W. Deem and Ramdas Pophale) SiO2 
 PCOD9506290
Probable space group: C C C A
;
_chemical_formula_sum "Si O2"
_cell_formula_units_Z 88
_cell_length_a 27.175347
_cell_length_b 5.022114
_cell_length_c 30.047251
_cell_angle_alpha 90.000000
_cell_angle_beta 90.000000
_cell_angle_gamma 90.000000
_cell_volume 4100.779426
_symmetry_space_group_name_H-M "C C C A"
_symmetry_group_IT_number 68
_space_group.IT_coordinate_system_code '2'
_symmetry_cell_setting 'orthorhombic'
loop_
_space_group_symop_operation_xyz
x,y,z
-x,1/2-y,z
x,1/2-y,1/2-z
-x,y,1/2-z
-x,-y,-z
x,1/2+y,-z
-x,1/2+y,1/2+z
x,-y,1/2+z
1/2+x,1/2+y,z
1/2-x,-y,z
1/2+x,-y,1/2-z
1/2-x,1/2+y,1/2-z
1/2-x,1/2-y,-z
1/2+x,y,-z
1/2-x,y,1/2+z
1/2+x,1/2-y,1/2+z
loop_
_atom_site_type_symbol
_atom_site_label
_atom_site_fract_x
_atom_site_fract_y
_atom_site_fract_z
Si Si1 0.446052 0.706114 0.633184
Si Si2 0.693029 0.452187 0.620385
Si Si3 0.945887 0.209497 0.432884
Si Si4 0.783865 0.250000 0.750000
Si Si5 0.340291 0.264148 0.526820
Si Si6 0.847375 0.935942 0.166183
O O1 0.500000 0.750000 0.653063
O O2 0.444446 0.445771 0.602697
O O3 0.404330 0.645768 0.669369
O O4 0.439706 0.945556 0.597378
O O5 0.750000 0.500000 0.630695
O O6 0.685703 0.333171 0.571552
O O7 0.669134 0.741794 0.625929
O O8 0.666398 0.237834 0.652970
O O9 0.899086 0.236734 0.464577
O O10 0.000000 0.250000 0.454676
O O11 0.750000 0.500000 0.736895
O O12 0.816908 0.347754 0.790960
O O13 0.327594 0.561318 0.512673
#
# Coordination Sequence:
#
# PCOD9506290 Si02
#       6
#    16  16  16   8  16  16
#     4  10  19  36  64  91 119 160 207 248 304 379
#     4  12  25  42  65  88 119 171 217 253 313 380
#     4  10  20  37  59  87 120 159 207 258 311 372
#     4  12  26  42  65 102 133 158 202 260 310 356
#     4  12  24  38  59  87 125 158 211 268 313 366
#     4  12  22  43  67  93 127 163 202 258 313 377
#
# _framework density 21.459336
#
# number of rings (size 3 to 8) (size 9 to 14) (size 15 to 20)
#    0.000    0.727    3.636    5.455    0.000    1.455 
#    0.000    0.455    0.000    0.000    0.000    7.636 
#    0.000    0.000    0.000    0.000    0.000    0.000 
#
# Total GULP energy -245990.939100 kJ/mol
# GULP energy per Si atom -5590.703161 kJ/mol
# Density = 2.141049 g / cm^3
# Si number density = 21.459336 Si / 1000 Ang^3
#
#
#
# Elastic Constant Matrix: (Units=GPa)
#
#
# Indices 1 2 3 4 5 6 
#
# 1 95.6767 0.4474 7.5302 0.0000 0.0000 0.0000
# 2 0.4474 144.0902 7.9454 0.0000 0.0000 0.0000
# 3 7.5302 7.9454 69.0907 0.0000 0.0000 0.0000
# 4 0.0000 0.0000 0.0000 21.1906 0.0000 0.0000
# 5 0.0000 0.0000 0.0000 0.0000 29.5278 0.0000
# 6 0.0000 0.0000 0.0000 0.0000 0.0000 26.1997
#
#
#
# Elastic Compliance Matrix: (Units=1/GPa)
#
#
# Indices 1 2 3 4 5 6 
#
# 1 0.010542 0.000031 -0.001153 0.000000 0.000000 0.000000
# 2 0.000031 0.006984 -0.000807 0.000000 0.000000 0.000000
# 3 -0.001153 -0.000807 0.014692 0.000000 0.000000 0.000000
# 4 0.000000 0.000000 0.000000 0.047191 0.000000 0.000000
# 5 0.000000 0.000000 0.000000 0.000000 0.033866 0.000000
# 6 0.000000 0.000000 0.000000 0.000000 0.000000 0.038168
#
#
# Mechanical properties :
#
#
# Convention : Reuss Voigt Hill
#
# Bulk Modulus (GPa) = 35.25795 37.85594 36.55695
# Shear Modulus (GPa) = 30.34807 34.91261 32.63034
#
# Velocity S-wave (km/s) = 3.76468 4.03788 3.90367
# Velocity P-wave (km/s) = 5.94667 6.27841 6.11479
#
# Compressibility (1/GPa) = 0.02836240
#
# Stress axis : x y z
#
# Youngs Moduli (GPa) = 94.85479 143.17464 68.06374
#
# Poissons Ratio (x) = -0.00441 0.07845
# Poissons Ratio (y) = -0.00292 0.05490
# Poissons Ratio (z) = 0.10933 0.11548
#
# Static dielectric constant tensor:
#      x y z
#    x 1.916280 0.000000 0.000000 
#    y 0.000000 1.739810 0.000000 
#    z 0.000000 0.000000 1.745360 
# 
# From -- ./inp_files/52473.got.cif
#   From: 2010.05.17/outbox.cif.g08.bks.cpg/sg68_27_cif.got.tgz:52473.got - 2010.06.03 18:57:09.
