data_PCOD9506691
_publ_section_title
;
Structure prediction by ZEFSAII (Michael W. Deem and Ramdas Pophale) SiO2 
 PCOD9506691
Probable space group: C C C A
;
_chemical_formula_sum "Si O2"
_cell_formula_units_Z 96
_cell_length_a 14.912540
_cell_length_b 28.508737
_cell_length_c 9.788599
_cell_angle_alpha 90.000000
_cell_angle_beta 90.000000
_cell_angle_gamma 90.000000
_cell_volume 4161.502278
_symmetry_space_group_name_H-M "C C C A"
_symmetry_group_IT_number 68
_space_group.IT_coordinate_system_code '2'
_symmetry_cell_setting 'orthorhombic'
loop_
_space_group_symop_operation_xyz
x,y,z
-x,1/2-y,z
x,1/2-y,1/2-z
-x,y,1/2-z
-x,-y,-z
x,1/2+y,-z
-x,1/2+y,1/2+z
x,-y,1/2+z
1/2+x,1/2+y,z
1/2-x,-y,z
1/2+x,-y,1/2-z
1/2-x,1/2+y,1/2-z
1/2-x,1/2-y,-z
1/2+x,y,-z
1/2-x,y,1/2+z
1/2+x,1/2-y,1/2+z
loop_
_atom_site_type_symbol
_atom_site_label
_atom_site_fract_x
_atom_site_fract_y
_atom_site_fract_z
Si Si1 0.595730 0.545354 0.674423
Si Si2 0.133890 0.647480 0.687266
Si Si3 0.654668 0.642369 0.786000
Si Si4 0.590054 0.460562 0.843327
Si Si5 0.860994 0.707465 0.061317
Si Si6 0.642741 0.309078 0.539439
O O1 0.500000 0.553943 0.750000
O O2 0.644604 0.594600 0.702075
O O3 0.639918 0.503659 0.766089
O O4 0.586500 0.534007 0.510716
O O5 0.240789 0.652574 0.696724
O O6 0.121008 0.592122 0.682436
O O7 0.101218 0.672503 0.551983
O O8 0.101158 0.676267 0.817472
O O9 0.612106 0.685537 0.704476
O O10 0.622235 0.646709 0.940892
O O11 0.500000 0.462006 0.750000
O O12 0.751132 0.700756 0.056783
O O13 0.886987 0.759990 0.024773
#
# Coordination Sequence:
#
# PCOD9506691 Si02
#       6
#    16  16  16  16  16  16
#     4  11  24  42  62  83 111 149 193 235 286 348
#     4  10  20  35  58  89 118 147 188 237 282 329
#     4  10  20  35  58  89 118 147 188 237 282 329
#     4  11  24  42  62  83 111 149 193 235 286 348
#     4   9  16  34  50  87 118 154 187 231 272 333
#     4   9  18  28  58  83 120 152 189 223 280 333
#
# _framework density 23.068593
#
# number of rings (size 3 to 8) (size 9 to 14) (size 15 to 20)
#    0.000    2.000    1.667    3.000    4.667    4.667 
#    0.000    1.667    0.000    6.000    0.000    0.000 
#    0.000    0.000    0.000    0.000    0.000    0.000 
#
# Total GULP energy -267377.336403 kJ/mol
# GULP energy per Si atom -5570.361175 kJ/mol
# Density = 2.301609 g / cm^3
# Si number density = 23.068593 Si / 1000 Ang^3
#
#
#
# Elastic Constant Matrix: (Units=GPa)
#
#
# Indices 1 2 3 4 5 6 
#
# 1 31.6411 -15.6757 19.6827 0.0000 0.0000 0.0000
# 2 -15.6757 112.0686 39.6852 0.0000 0.0000 0.0000
# 3 19.6827 39.6852 134.4537 0.0000 0.0000 0.0000
# 4 0.0000 0.0000 0.0000 44.6105 0.0000 0.0000
# 5 0.0000 0.0000 0.0000 0.0000 13.7457 0.0000
# 6 0.0000 0.0000 0.0000 0.0000 0.0000 40.6663
#
#
#
# Elastic Compliance Matrix: (Units=1/GPa)
#
#
# Indices 1 2 3 4 5 6 
#
# 1 0.041391 0.008861 -0.008675 0.000000 0.000000 0.000000
# 2 0.008861 0.011862 -0.004798 0.000000 0.000000 0.000000
# 3 -0.008675 -0.004798 0.010124 0.000000 0.000000 0.000000
# 4 0.000000 0.000000 0.000000 0.022416 0.000000 0.000000
# 5 0.000000 0.000000 0.000000 0.000000 0.072750 0.000000
# 6 0.000000 0.000000 0.000000 0.000000 0.000000 0.024590
#
#
# Mechanical properties :
#
#
# Convention : Reuss Voigt Hill
#
# Bulk Modulus (GPa) = 18.46620 40.61643 29.54132
# Shear Modulus (GPa) = 23.76343 35.43590 29.59966
#
# Velocity S-wave (km/s) = 3.21303 3.92358 3.58595
# Velocity P-wave (km/s) = 4.66766 6.17827 5.47531
#
# Compressibility (1/GPa) = 0.05415298
#
# Stress axis : x y z
#
# Youngs Moduli (GPa) = 24.15995 84.30442 98.77832
#
# Poissons Ratio (x) = -0.74706 0.85688
# Poissons Ratio (y) = -0.21409 0.47397
# Poissons Ratio (z) = 0.20958 0.40452
#
# Static dielectric constant tensor:
#      x y z
#    x 2.078360 0.000000 0.000000 
#    y 0.000000 1.915350 0.000000 
#    z 0.000000 0.000000 1.932440 
# 
# From -- ./inp_files/7281.got.cif
#   From: 2010.05.17/outbox.cif.g08.bks.cpg/sg68_4_cif.got.tgz:7281.got - 2010.06.03 18:57:09.
