data_PCOD9506499
_publ_section_title
;
Structure prediction by ZEFSAII (Michael W. Deem and Ramdas Pophale) SiO2 
 PCOD9506499
Probable space group: C C C A
;
_chemical_formula_sum "Si O2"
_cell_formula_units_Z 104
_cell_length_a 28.740527
_cell_length_b 22.113197
_cell_length_c 8.446162
_cell_angle_alpha 90.000000
_cell_angle_beta 90.000000
_cell_angle_gamma 90.000000
_cell_volume 5367.915483
_symmetry_space_group_name_H-M "C C C A"
_symmetry_group_IT_number 68
_space_group.IT_coordinate_system_code '2'
_symmetry_cell_setting 'orthorhombic'
loop_
_space_group_symop_operation_xyz
x,y,z
-x,1/2-y,z
x,1/2-y,1/2-z
-x,y,1/2-z
-x,-y,-z
x,1/2+y,-z
-x,1/2+y,1/2+z
x,-y,1/2+z
1/2+x,1/2+y,z
1/2-x,-y,z
1/2+x,-y,1/2-z
1/2-x,1/2+y,1/2-z
1/2-x,1/2-y,-z
1/2+x,y,-z
1/2-x,y,1/2+z
1/2+x,1/2-y,1/2+z
loop_
_atom_site_type_symbol
_atom_site_label
_atom_site_fract_x
_atom_site_fract_y
_atom_site_fract_z
Si Si1 0.779694 0.369473 0.656450
Si Si2 0.859589 0.124100 0.105491
Si Si3 0.348801 0.448228 0.923658
Si Si4 0.250000 0.000000 0.641269
Si Si5 0.851108 0.250000 0.250000
Si Si6 0.500000 0.001499 0.250000
Si Si7 0.687984 0.826866 0.521578
Si Si8 0.068870 0.042878 0.498978
O O1 0.815856 0.372581 0.511709
O O2 0.767025 0.437057 0.721717
O O3 0.732171 0.346839 0.581645
O O4 0.796605 0.325613 0.796379
O O5 0.851739 0.072238 0.239121
O O6 0.871377 0.185460 0.198317
O O7 0.902549 0.103884 0.000061
O O8 0.298486 0.480876 0.945332
O O9 0.392301 0.490204 0.971706
O O10 0.347288 0.384148 0.014633
O O11 0.827956 0.230731 0.419825
O O12 0.528295 0.040550 0.374052
O O13 0.459526 0.964426 0.336648
#
# Coordination Sequence:
#
# PCOD9506499 Si02
#       8
#    16  16  16   8   8   8  16  16
#     4  11  22  35  58  91 125 178 216 264 320 375
#     4  11  23  39  62  89 126 174 210 267 320 387
#     4  10  21  35  58  90 136 165 205 256 322 391
#     4  10  20  32  52  92 138 162 200 246 326 394
#     4  10  24  46  58  85 128 176 232 267 308 378
#     4  10  24  38  66  97 131 160 200 274 344 418
#     4  10  23  37  57  88 123 177 221 266 303 371
#     4  11  21  41  63  99 128 165 206 265 342 403
#
# _framework density 19.374372999999999
#
# number of rings (size 3 to 8) (size 9 to 14) (size 15 to 20)
#    0.000    1.538    3.077    2.769    4.308    6.154 
#    0.000    0.000    0.000    0.462    0.000    4.308 
#    0.000    0.000    0.000    0.000    0.000    0.000 
#
# Total GULP energy -289585.580299 kJ/mol
# GULP energy per Si atom -5568.953467 kJ/mol
# Density = 1.933028 g / cm^3
# Si number density = 19.374373 Si / 1000 Ang^3
#
#
#
# Elastic Constant Matrix: (Units=GPa)
#
#
# Indices 1 2 3 4 5 6 
#
# 1 72.4877 30.3589 -2.6417 0.0000 0.0000 0.0000
# 2 30.3589 82.1846 12.2984 0.0000 0.0000 0.0000
# 3 -2.6417 12.2984 56.0800 0.0000 0.0000 0.0000
# 4 0.0000 0.0000 0.0000 10.6815 0.0000 0.0000
# 5 0.0000 0.0000 0.0000 0.0000 23.5471 0.0000
# 6 0.0000 0.0000 0.0000 0.0000 0.0000 1.4821
#
#
#
# Elastic Compliance Matrix: (Units=1/GPa)
#
#
# Indices 1 2 3 4 5 6 
#
# 1 0.016578 -0.006452 0.002196 0.000000 0.000000 0.000000
# 2 -0.006452 0.015092 -0.003614 0.000000 0.000000 0.000000
# 3 0.002196 -0.003614 0.018728 0.000000 0.000000 0.000000
# 4 0.000000 0.000000 0.000000 0.093620 0.000000 0.000000
# 5 0.000000 0.000000 0.000000 0.000000 0.042468 0.000000
# 6 0.000000 0.000000 0.000000 0.000000 0.000000 0.674723
#
#
# Mechanical properties :
#
#
# Convention : Reuss Voigt Hill
#
# Bulk Modulus (GPa) = 28.85408 32.30928 30.58168
# Shear Modulus (GPa) = 5.62745 18.52458 12.07601
#
# Velocity S-wave (km/s) = 1.70613 3.09550 2.49930
# Velocity P-wave (km/s) = 4.33664 5.43035 4.91402
#
# Compressibility (1/GPa) = 0.03465714
#
# Stress axis : x y z
#
# Youngs Moduli (GPa) = 60.32151 66.26023 53.39718
#
# Poissons Ratio (x) = 0.42754 -0.11726
# Poissons Ratio (y) = 0.38922 0.19296
# Poissons Ratio (z) = -0.13246 0.23944
#
# Static dielectric constant tensor:
#      x y z
#    x 1.684430 0.000000 0.000000 
#    y 0.000000 1.738350 0.000000 
#    z 0.000000 0.000000 1.818930 
# 
# From -- ./inp_files/7421.got.cif
#   From: 2010.05.17/outbox.cif.g08.bks.cpg/sg68_4_cif.got.tgz:7421.got - 2010.06.03 18:57:09.
