data_PCOD9506882
_publ_section_title
;
Structure prediction by ZEFSAII (Michael W. Deem and Ramdas Pophale) SiO2 
 PCOD9506882
Probable space group: C C C A
;
_chemical_formula_sum "Si O2"
_cell_formula_units_Z 68
_cell_length_a 5.449539
_cell_length_b 22.343559
_cell_length_c 26.558373
_cell_angle_alpha 90.000000
_cell_angle_beta 90.000000
_cell_angle_gamma 90.000000
_cell_volume 3233.803167
_symmetry_space_group_name_H-M "C C C A"
_symmetry_group_IT_number 68
_space_group.IT_coordinate_system_code '2'
_symmetry_cell_setting 'orthorhombic'
loop_
_space_group_symop_operation_xyz
x,y,z
-x,1/2-y,z
x,1/2-y,1/2-z
-x,y,1/2-z
-x,-y,-z
x,1/2+y,-z
-x,1/2+y,1/2+z
x,-y,1/2+z
1/2+x,1/2+y,z
1/2-x,-y,z
1/2+x,-y,1/2-z
1/2-x,1/2+y,1/2-z
1/2-x,1/2-y,-z
1/2+x,y,-z
1/2-x,y,1/2+z
1/2+x,1/2-y,1/2+z
loop_
_atom_site_type_symbol
_atom_site_label
_atom_site_fract_x
_atom_site_fract_y
_atom_site_fract_z
Si Si1 0.000000 0.551411 0.250000
Si Si2 0.250000 0.000000 0.842547
Si Si3 0.760751 0.631811 0.869700
Si Si4 0.000000 0.750000 0.750000
Si Si5 0.258181 0.351429 0.308145
Si Si6 0.249714 0.818703 0.479085
O O1 0.040506 0.512948 0.199742
O O2 0.215567 0.597484 0.265271
O O3 0.251076 0.940348 0.875723
O O4 0.521217 0.648666 0.836314
O O5 0.751504 0.672268 0.919448
O O6 0.026728 0.638317 0.844291
O O7 0.182603 0.790258 0.717696
O O8 0.250000 0.750000 0.500000
O O9 0.499273 0.846516 0.500245
#
# Coordination Sequence:
#
# PCOD9506882 Si02
#       6
#     8   8  16   4  16  16
#     4  10  20  40  62  96 128 178 212 258 314 370
#     4  10  20  36  66  88 128 166 212 258 304 374
#     4  11  24  42  62  95 119 163 215 265 317 380
#     4  12  24  40  56  90 132 184 204 258 316 368
#     4  11  25  39  61  90 133 165 215 254 306 381
#     4  10  22  42  66  88 117 154 202 262 326 384
#
# _framework density 21.027874000000001
#
# number of rings (size 3 to 8) (size 9 to 14) (size 15 to 20)
#    0.000    1.412    0.000    5.647    0.000   12.706 
#    0.000    1.176    0.000    0.000    0.000    0.000 
#    0.000    0.000    0.000    0.000    0.000    0.000 
#
# Total GULP energy -189572.161074 kJ/mol
# GULP energy per Si atom -5575.651796 kJ/mol
# Density = 2.098001 g / cm^3
# Si number density = 21.027874 Si / 1000 Ang^3
#
#
#
# Elastic Constant Matrix: (Units=GPa)
#
#
# Indices 1 2 3 4 5 6 
#
# 1 178.4369 23.4679 55.1480 0.0000 0.0000 0.0000
# 2 23.4679 114.6371 45.9496 0.0000 0.0000 0.0000
# 3 55.1480 45.9496 103.5892 0.0000 0.0000 0.0000
# 4 0.0000 0.0000 0.0000 68.1186 0.0000 0.0000
# 5 0.0000 0.0000 0.0000 0.0000 38.9458 0.0000
# 6 0.0000 0.0000 0.0000 0.0000 0.0000 20.4325
#
#
#
# Elastic Compliance Matrix: (Units=1/GPa)
#
#
# Indices 1 2 3 4 5 6 
#
# 1 0.006708 0.000071 -0.003603 0.000000 0.000000 0.000000
# 2 0.000071 0.010610 -0.004744 0.000000 0.000000 0.000000
# 3 -0.003603 -0.004744 0.013676 0.000000 0.000000 0.000000
# 4 0.000000 0.000000 0.000000 0.014680 0.000000 0.000000
# 5 0.000000 0.000000 0.000000 0.000000 0.025677 0.000000
# 6 0.000000 0.000000 0.000000 0.000000 0.000000 0.048942
#
#
# Mechanical properties :
#
#
# Convention : Reuss Voigt Hill
#
# Bulk Modulus (GPa) = 69.24087 71.75490 70.49789
# Shear Modulus (GPa) = 35.29591 43.63924 39.46758
#
# Velocity S-wave (km/s) = 4.10143 4.56049 4.33704
# Velocity P-wave (km/s) = 7.44504 7.86947 7.66020
#
# Compressibility (1/GPa) = 0.01444234
#
# Stress axis : x y z
#
# Youngs Moduli (GPa) = 149.06714 94.24838 73.12135
#
# Poissons Ratio (x) = -0.00667 0.26344
# Poissons Ratio (y) = -0.01055 0.34690
# Poissons Ratio (z) = 0.53705 0.44713
#
# Static dielectric constant tensor:
#      x y z
#    x 1.507360 0.000000 0.000000 
#    y 0.000000 1.809690 0.000000 
#    z 0.000000 0.000000 1.777900 
# 
# From -- ./inp_files/48216.got.cif
#   From: 2010.05.17/outbox.cif.g08.bks.cpg/sg68_25_cif.got.tgz:48216.got - 2010.06.03 18:57:09.
