data_PCOD9506171
_publ_section_title
;
Structure prediction by ZEFSAII (Michael W. Deem and Ramdas Pophale) SiO2 
 PCOD9506171
Probable space group: C C C A
;
_chemical_formula_sum "Si O2"
_cell_formula_units_Z 92
_cell_length_a 21.450059
_cell_length_b 11.228093
_cell_length_c 19.050010
_cell_angle_alpha 90.000000
_cell_angle_beta 90.000000
_cell_angle_gamma 90.000000
_cell_volume 4588.066460
_symmetry_space_group_name_H-M "C C C A"
_symmetry_group_IT_number 68
_space_group.IT_coordinate_system_code '2'
_symmetry_cell_setting 'orthorhombic'
loop_
_space_group_symop_operation_xyz
x,y,z
-x,1/2-y,z
x,1/2-y,1/2-z
-x,y,1/2-z
-x,-y,-z
x,1/2+y,-z
-x,1/2+y,1/2+z
x,-y,1/2+z
1/2+x,1/2+y,z
1/2-x,-y,z
1/2+x,-y,1/2-z
1/2-x,1/2+y,1/2-z
1/2-x,1/2-y,-z
1/2+x,y,-z
1/2-x,y,1/2+z
1/2+x,1/2-y,1/2+z
loop_
_atom_site_type_symbol
_atom_site_label
_atom_site_fract_x
_atom_site_fract_y
_atom_site_fract_z
Si Si1 0.766915 0.868033 0.833455
Si Si2 0.500000 0.250000 0.750000
Si Si3 0.500000 0.250000 0.971815
Si Si4 0.080703 0.820059 0.323416
Si Si5 0.780862 0.617906 0.327960
Si Si6 0.036883 0.897968 0.097933
Si Si7 0.088351 0.352407 0.364714
O O1 0.747039 0.874969 0.751252
O O2 0.733658 0.747541 0.861057
O O3 0.840047 0.844728 0.843760
O O4 0.750000 0.000000 0.862569
O O5 0.455072 0.170168 0.702388
O O6 0.439409 0.262578 0.922811
O O7 0.509116 0.362669 0.022757
O O8 0.074626 0.750000 0.250000
O O9 0.144560 0.892380 0.322948
O O10 0.080167 0.713350 0.380113
O O11 0.020551 0.895742 0.346291
O O12 0.750000 0.500000 0.360861
O O13 0.074048 0.017950 0.104546
#
# Coordination Sequence:
#
# PCOD9506171 Si02
#       7
#    16   4   8  16  16  16  16
#     4  10  20  34  53  82 115 161 194 236 300 368
#     4  10  24  32  52  98 122 144 182 250 326 374
#     4   9  22  43  55  86 113 162 210 254 297 358
#     4  10  19  35  55  91 121 150 200 249 297 369
#     4  10  20  33  54  82 128 162 194 233 306 375
#     4  10  22  36  65  85 113 159 208 253 308 354
#     4  11  22  37  60  84 126 153 197 250 313 371
#
# _framework density 20.052021
#
# number of rings (size 3 to 8) (size 9 to 14) (size 15 to 20)
#    0.000    2.087    1.739    3.652    4.870    2.783 
#    0.000    0.000    0.000   13.565    0.000    0.000 
#    0.000    0.000    0.000    0.000    0.000    0.000 
#
# Total GULP energy -256454.218136 kJ/mol
# GULP energy per Si atom -5575.091699 kJ/mol
# Density = 2.000638 g / cm^3
# Si number density = 20.052021 Si / 1000 Ang^3
#
#
#
# Elastic Constant Matrix: (Units=GPa)
#
#
# Indices 1 2 3 4 5 6 
#
# 1 141.4222 8.1439 20.6927 0.0000 0.0000 0.0000
# 2 8.1439 83.2430 -7.4047 0.0000 0.0000 0.0000
# 3 20.6927 -7.4047 52.6770 0.0000 0.0000 0.0000
# 4 0.0000 0.0000 0.0000 8.6486 0.0000 0.0000
# 5 0.0000 0.0000 0.0000 0.0000 13.3734 0.0000
# 6 0.0000 0.0000 0.0000 0.0000 0.0000 43.3343
#
#
#
# Elastic Compliance Matrix: (Units=1/GPa)
#
#
# Indices 1 2 3 4 5 6 
#
# 1 0.007587 -0.001020 -0.003124 0.000000 0.000000 0.000000
# 2 -0.001020 0.012302 0.002130 0.000000 0.000000 0.000000
# 3 -0.003124 0.002130 0.020510 0.000000 0.000000 0.000000
# 4 0.000000 0.000000 0.000000 0.115625 0.000000 0.000000
# 5 0.000000 0.000000 0.000000 0.000000 0.074775 0.000000
# 6 0.000000 0.000000 0.000000 0.000000 0.000000 0.023076
#
#
# Mechanical properties :
#
#
# Convention : Reuss Voigt Hill
#
# Bulk Modulus (GPa) = 27.49389 35.57846 31.53617
# Shear Modulus (GPa) = 18.51664 30.13196 24.32430
#
# Velocity S-wave (km/s) = 3.04210 3.88066 3.48668
# Velocity P-wave (km/s) = 5.10688 6.15313 5.65425
#
# Compressibility (1/GPa) = 0.03637171
#
# Stress axis : x y z
#
# Youngs Moduli (GPa) = 131.80757 81.28564 48.75653
#
# Poissons Ratio (x) = 0.08292 0.15230
# Poissons Ratio (y) = 0.13446 -0.10385
# Poissons Ratio (z) = 0.41172 -0.17314
#
# Static dielectric constant tensor:
#      x y z
#    x 1.690180 0.000000 0.000000 
#    y 0.000000 1.778930 0.000000 
#    z 0.000000 0.000000 1.734970 
# 
# From -- ./inp_files/32848.got.cif
#   From: 2010.05.17/outbox.cif.g08.bks.cpg/sg68_17_cif.got.tgz:32848.got - 2010.06.03 18:57:09.
