data_PCOD9506236
_publ_section_title
;
Structure prediction by ZEFSAII (Michael W. Deem and Ramdas Pophale) SiO2 
 PCOD9506236
Probable space group: C C C A
;
_chemical_formula_sum "Si O2"
_cell_formula_units_Z 72
_cell_length_a 13.525132
_cell_length_b 15.287547
_cell_length_c 18.117904
_cell_angle_alpha 90.000000
_cell_angle_beta 90.000000
_cell_angle_gamma 90.000000
_cell_volume 3746.168190
_symmetry_space_group_name_H-M "C C C A"
_symmetry_group_IT_number 68
_space_group.IT_coordinate_system_code '2'
_symmetry_cell_setting 'orthorhombic'
loop_
_space_group_symop_operation_xyz
x,y,z
-x,1/2-y,z
x,1/2-y,1/2-z
-x,y,1/2-z
-x,-y,-z
x,1/2+y,-z
-x,1/2+y,1/2+z
x,-y,1/2+z
1/2+x,1/2+y,z
1/2-x,-y,z
1/2+x,-y,1/2-z
1/2-x,1/2+y,1/2-z
1/2-x,1/2-y,-z
1/2+x,y,-z
1/2-x,y,1/2+z
1/2+x,1/2-y,1/2+z
loop_
_atom_site_type_symbol
_atom_site_label
_atom_site_fract_x
_atom_site_fract_y
_atom_site_fract_z
Si Si1 0.500000 0.250000 0.930987
Si Si2 0.309319 0.915685 0.607835
Si Si3 0.495029 0.405599 0.038239
Si Si4 0.768567 0.155237 0.540237
Si Si5 0.686880 0.243056 0.836218
O O1 0.587835 0.215981 0.879627
O O2 0.533202 0.329250 0.983246
O O3 0.428153 0.914075 0.605844
O O4 0.277649 0.907711 0.521269
O O5 0.268815 0.830543 0.648964
O O6 0.250000 0.000000 0.636704
O O7 0.382502 0.373670 0.051343
O O8 0.500000 0.500000 0.000000
O O9 0.750000 0.250000 0.500000
O O10 0.721202 0.169132 0.620768
O O11 0.668921 0.250000 0.750000
#
# Coordination Sequence:
#
# PCOD9506236 Si02
#       5
#     8  16  16  16  16
#     4  12  19  38  60  88 123 152 210 258 291 368
#     4  11  20  38  61  89 121 151 203 258 304 355
#     4  12  21  35  66  95 115 151 210 263 310 358
#     4  10  19  36  57  87 118 151 198 250 302 350
#     4  11  23  38  58  86 125 168 195 239 310 373
#
# _framework density 19.219639000000001
#
# number of rings (size 3 to 8) (size 9 to 14) (size 15 to 20)
#    0.000    0.889    8.889    1.667    0.000    0.000 
#    0.000    5.556    0.000    0.000    0.000    0.000 
#    0.000    0.000    0.000    0.000    0.000    0.000 
#
# Total GULP energy -200594.430865 kJ/mol
# GULP energy per Si atom -5572.067524 kJ/mol
# Density = 1.917589 g / cm^3
# Si number density = 19.219639 Si / 1000 Ang^3
#
#
#
# Elastic Constant Matrix: (Units=GPa)
#
#
# Indices 1 2 3 4 5 6 
#
# 1 96.2439 -6.5293 -17.9754 0.0000 0.0000 0.0000
# 2 -6.5293 83.2419 -6.6519 0.0000 0.0000 0.0000
# 3 -17.9754 -6.6519 44.5985 0.0000 0.0000 0.0000
# 4 0.0000 0.0000 0.0000 15.9627 0.0000 0.0000
# 5 0.0000 0.0000 0.0000 0.0000 13.8347 0.0000
# 6 0.0000 0.0000 0.0000 0.0000 0.0000 32.0356
#
#
#
# Elastic Compliance Matrix: (Units=1/GPa)
#
#
# Indices 1 2 3 4 5 6 
#
# 1 0.011368 0.001273 0.004772 0.000000 0.000000 0.000000
# 2 0.001273 0.012301 0.002348 0.000000 0.000000 0.000000
# 3 0.004772 0.002348 0.024696 0.000000 0.000000 0.000000
# 4 0.000000 0.000000 0.000000 0.062646 0.000000 0.000000
# 5 0.000000 0.000000 0.000000 0.000000 0.072282 0.000000
# 6 0.000000 0.000000 0.000000 0.000000 0.000000 0.031215
#
#
# Mechanical properties :
#
#
# Convention : Reuss Voigt Hill
#
# Bulk Modulus (GPa) = 15.34946 17.97456 16.66201
# Shear Modulus (GPa) = 22.78537 29.38266 26.08401
#
# Velocity S-wave (km/s) = 3.44688 3.91421 3.68795
# Velocity P-wave (km/s) = 4.88313 5.45898 5.17907
#
# Compressibility (1/GPa) = 0.06514888
#
# Stress axis : x y z
#
# Youngs Moduli (GPa) = 87.96754 81.29662 40.49291
#
# Poissons Ratio (x) = -0.10349 -0.19322
# Poissons Ratio (y) = -0.11198 -0.09507
# Poissons Ratio (z) = -0.41975 -0.19086
#
# Static dielectric constant tensor:
#      x y z
#    x 1.782940 0.000000 0.000000 
#    y 0.000000 1.691070 0.000000 
#    z 0.000000 0.000000 1.657350 
# 
# From -- ./inp_files/30652.got.cif
#   From: 2010.05.17/outbox.cif.g08.bks.cpg/sg68_16_cif.got.tgz:30652.got - 2010.06.03 18:57:09.
