data_PCOD9506493
_publ_section_title
;
Structure prediction by ZEFSAII (Michael W. Deem and Ramdas Pophale) SiO2 
 PCOD9506493
Probable space group: C C C A
;
_chemical_formula_sum "Si O2"
_cell_formula_units_Z 104
_cell_length_a 26.549349
_cell_length_b 9.657205
_cell_length_c 23.091618
_cell_angle_alpha 90.000000
_cell_angle_beta 90.000000
_cell_angle_gamma 90.000000
_cell_volume 5920.517805
_symmetry_space_group_name_H-M "C C C A"
_symmetry_group_IT_number 68
_space_group.IT_coordinate_system_code '2'
_symmetry_cell_setting 'orthorhombic'
loop_
_space_group_symop_operation_xyz
x,y,z
-x,1/2-y,z
x,1/2-y,1/2-z
-x,y,1/2-z
-x,-y,-z
x,1/2+y,-z
-x,1/2+y,1/2+z
x,-y,1/2+z
1/2+x,1/2+y,z
1/2-x,-y,z
1/2+x,-y,1/2-z
1/2-x,1/2+y,1/2-z
1/2-x,1/2-y,-z
1/2+x,y,-z
1/2-x,y,1/2+z
1/2+x,1/2-y,1/2+z
loop_
_atom_site_type_symbol
_atom_site_label
_atom_site_fract_x
_atom_site_fract_y
_atom_site_fract_z
Si Si1 0.626321 0.294051 0.182634
Si Si2 0.504510 0.413984 0.941593
Si Si3 0.000000 0.571188 0.750000
Si Si4 0.920221 0.981624 0.154462
Si Si5 0.925233 0.579168 0.655755
Si Si6 0.739068 0.666318 0.689551
Si Si7 0.343056 0.286065 0.681055
O O1 0.626803 0.250000 0.250000
O O2 0.597171 0.437234 0.178722
O O3 0.683917 0.316068 0.162229
O O4 0.596979 0.175895 0.147862
O O5 0.500000 0.250000 0.952372
O O6 0.553217 0.453607 0.902296
O O7 0.457423 0.448480 0.900544
O O8 0.500000 0.500000 0.000000
O O9 0.037807 0.491572 0.705833
O O10 0.037974 0.643080 0.795170
O O11 0.869444 0.065556 0.172486
O O12 0.880188 0.684037 0.647613
O O13 0.735036 0.750000 0.750000
O O14 0.750000 0.500000 0.696834
O O15 0.786637 0.746325 0.661461
O O16 0.345023 0.250000 0.750000
#
# Coordination Sequence:
#
# PCOD9506493 Si02
#       7
#    16  16   8  16  16  16  16
#     4  11  21  36  52  88 122 154 194 228 285 342
#     4  11  26  43  59  84 113 150 198 237 289 348
#     4  10  20  32  50  80 114 148 180 228 276 332
#     4  11  23  35  58  83 116 150 191 238 283 341
#     4  11  21  35  57  79 116 151 190 233 283 337
#     4  10  22  33  51  77 122 162 192 230 280 345
#     4  11  19  34  55  84 115 155 190 228 285 338
#
# _framework density 17.566030999999999
#
# number of rings (size 3 to 8) (size 9 to 14) (size 15 to 20)
#    0.000    1.231    6.154    0.000    8.615    3.077 
#    0.000    0.000    0.000    0.000    0.000    6.462 
#    0.000    0.000    0.000    0.000    0.000    0.000 
#
# Total GULP energy -289853.108199 kJ/mol
# GULP energy per Si atom -5574.098235 kJ/mol
# Density = 1.752605 g / cm^3
# Si number density = 17.566031 Si / 1000 Ang^3
#
#
#
# Elastic Constant Matrix: (Units=GPa)
#
#
# Indices 1 2 3 4 5 6 
#
# 1 116.8913 41.4890 36.4027 0.0000 0.0000 0.0000
# 2 41.4890 69.7984 -4.3797 0.0000 0.0000 0.0000
# 3 36.4027 -4.3797 66.7562 0.0000 0.0000 0.0000
# 4 0.0000 0.0000 0.0000 24.1071 0.0000 0.0000
# 5 0.0000 0.0000 0.0000 0.0000 5.5957 0.0000
# 6 0.0000 0.0000 0.0000 0.0000 0.0000 20.8701
#
#
#
# Elastic Compliance Matrix: (Units=1/GPa)
#
#
# Indices 1 2 3 4 5 6 
#
# 1 0.014421 -0.009103 -0.008461 0.000000 0.000000 0.000000
# 2 -0.009103 0.020132 0.006285 0.000000 0.000000 0.000000
# 3 -0.008461 0.006285 0.020006 0.000000 0.000000 0.000000
# 4 0.000000 0.000000 0.000000 0.041482 0.000000 0.000000
# 5 0.000000 0.000000 0.000000 0.000000 0.178709 0.000000
# 6 0.000000 0.000000 0.000000 0.000000 0.000000 0.047915
#
#
# Mechanical properties :
#
#
# Convention : Reuss Voigt Hill
#
# Bulk Modulus (GPa) = 31.24934 44.49666 37.87300
# Shear Modulus (GPa) = 14.04926 22.11016 18.07971
#
# Velocity S-wave (km/s) = 2.83114 3.55165 3.21166
# Velocity P-wave (km/s) = 5.33998 6.49654 5.94644
#
# Compressibility (1/GPa) = 0.03200067
#
# Stress axis : x y z
#
# Youngs Moduli (GPa) = 69.34407 49.67182 49.98485
#
# Poissons Ratio (x) = 0.45215 0.42292
# Poissons Ratio (y) = 0.63123 -0.31414
# Poissons Ratio (z) = 0.58672 -0.31217
#
# Static dielectric constant tensor:
#      x y z
#    x 1.648480 0.000000 0.000000 
#    y 0.000000 1.882630 0.000000 
#    z 0.000000 0.000000 1.663290 
# 
# From -- ./inp_files/47256.got.cif
#   From: 2010.05.17/outbox.cif.g08.bks.cpg/sg68_24_cif.got.tgz:47256.got - 2010.06.03 18:57:09.
