data_PCOD9506889
_publ_section_title
;
Structure prediction by ZEFSAII (Michael W. Deem and Ramdas Pophale) SiO2 
 PCOD9506889
Probable space group: C C C A
;
_chemical_formula_sum "Si O2"
_cell_formula_units_Z 72
_cell_length_a 21.269448
_cell_length_b 16.096033
_cell_length_c 10.363113
_cell_angle_alpha 90.000000
_cell_angle_beta 90.000000
_cell_angle_gamma 90.000000
_cell_volume 3547.850461
_symmetry_space_group_name_H-M "C C C A"
_symmetry_group_IT_number 68
_space_group.IT_coordinate_system_code '2'
_symmetry_cell_setting 'orthorhombic'
loop_
_space_group_symop_operation_xyz
x,y,z
-x,1/2-y,z
x,1/2-y,1/2-z
-x,y,1/2-z
-x,-y,-z
x,1/2+y,-z
-x,1/2+y,1/2+z
x,-y,1/2+z
1/2+x,1/2+y,z
1/2-x,-y,z
1/2+x,-y,1/2-z
1/2-x,1/2+y,1/2-z
1/2-x,1/2-y,-z
1/2+x,y,-z
1/2-x,y,1/2+z
1/2+x,1/2-y,1/2+z
loop_
_atom_site_type_symbol
_atom_site_label
_atom_site_fract_x
_atom_site_fract_y
_atom_site_fract_z
Si Si1 0.653031 0.089658 0.500762
Si Si2 0.750000 0.000000 0.854409
Si Si3 0.604685 0.840423 0.731324
Si Si4 0.958978 0.503399 0.870783
Si Si5 0.246901 0.164482 0.821369
O O1 0.689904 0.009631 0.446013
O O2 0.620803 0.128537 0.375574
O O3 0.707081 0.148676 0.558857
O O4 0.601648 0.060744 0.603334
O O5 0.754825 0.917875 0.767388
O O6 0.575718 0.750000 0.750000
O O7 0.564289 0.910783 0.663421
O O8 0.671717 0.830779 0.657047
O O9 0.000000 0.533436 0.750000
O O10 0.000000 0.500000 0.000000
O O11 0.264158 0.250000 0.750000
#
# Coordination Sequence:
#
# PCOD9506889 Si02
#       5
#    16   8  16  16  16
#     4  11  21  40  64  96 133 171 221 271 338 395
#     4  10  20  36  66  96 134 174 210 268 352 400
#     4  10  23  42  66  97 129 173 214 276 340 403
#     4  12  25  45  67  93 125 179 233 271 321 390
#     4  10  22  38  65 104 136 167 216 278 346 408
#
# _framework density 20.293977999999999
#
# number of rings (size 3 to 8) (size 9 to 14) (size 15 to 20)
#    0.000    1.333    2.222    4.667    0.000   10.222 
#    0.000    0.000    0.000    0.000    0.000    0.000 
#    0.000    0.000    0.000    0.000    0.000    0.000 
#
# Total GULP energy -201224.328846 kJ/mol
# GULP energy per Si atom -5589.564690 kJ/mol
# Density = 2.024779 g / cm^3
# Si number density = 20.293978 Si / 1000 Ang^3
#
#
#
# Elastic Constant Matrix: (Units=GPa)
#
#
# Indices 1 2 3 4 5 6 
#
# 1 87.9362 33.2898 49.5169 0.0000 0.0000 0.0000
# 2 33.2898 114.1624 34.8189 0.0000 0.0000 0.0000
# 3 49.5169 34.8189 108.4361 0.0000 0.0000 0.0000
# 4 0.0000 0.0000 0.0000 13.8201 0.0000 0.0000
# 5 0.0000 0.0000 0.0000 0.0000 48.8489 0.0000
# 6 0.0000 0.0000 0.0000 0.0000 0.0000 20.8335
#
#
#
# Elastic Compliance Matrix: (Units=1/GPa)
#
#
# Indices 1 2 3 4 5 6 
#
# 1 0.016029 -0.002707 -0.006450 0.000000 0.000000 0.000000
# 2 -0.002707 0.010167 -0.002029 0.000000 0.000000 0.000000
# 3 -0.006450 -0.002029 0.012819 0.000000 0.000000 0.000000
# 4 0.000000 0.000000 0.000000 0.072358 0.000000 0.000000
# 5 0.000000 0.000000 0.000000 0.000000 0.020471 0.000000
# 6 0.000000 0.000000 0.000000 0.000000 0.000000 0.048000
#
#
# Mechanical properties :
#
#
# Convention : Reuss Voigt Hill
#
# Bulk Modulus (GPa) = 60.08317 60.64288 60.36303
# Shear Modulus (GPa) = 24.06577 29.56112 26.81344
#
# Velocity S-wave (km/s) = 3.44736 3.82074 3.63885
# Velocity P-wave (km/s) = 6.74659 7.02931 6.88940
#
# Compressibility (1/GPa) = 0.01664359
#
# Stress axis : x y z
#
# Youngs Moduli (GPa) = 62.38801 98.35273 78.00931
#
# Poissons Ratio (x) = 0.26621 0.50319
# Poissons Ratio (y) = 0.16886 0.15826
# Poissons Ratio (z) = 0.40242 0.19954
#
# Static dielectric constant tensor:
#      x y z
#    x 1.764520 0.000000 0.000000 
#    y 0.000000 1.804540 0.000000 
#    z 0.000000 0.000000 1.749320 
# 
# From -- ./inp_files/7863.got.cif
#   From: 2010.05.17/outbox.cif.g08.bks.cpg/sg68_4_cif.got.tgz:7863.got - 2010.06.03 18:57:09.
