data_PCOD9506827
_publ_section_title
;
Structure prediction by ZEFSAII (Michael W. Deem and Ramdas Pophale) SiO2 
 PCOD9506827
Probable space group: C C C A
;
_chemical_formula_sum "Si O2"
_cell_formula_units_Z 64
_cell_length_a 5.071395
_cell_length_b 20.025194
_cell_length_c 30.319065
_cell_angle_alpha 90.000000
_cell_angle_beta 90.000000
_cell_angle_gamma 90.000000
_cell_volume 3079.072921
_symmetry_space_group_name_H-M "C C C A"
_symmetry_group_IT_number 68
_space_group.IT_coordinate_system_code '2'
_symmetry_cell_setting 'orthorhombic'
loop_
_space_group_symop_operation_xyz
x,y,z
-x,1/2-y,z
x,1/2-y,1/2-z
-x,y,1/2-z
-x,-y,-z
x,1/2+y,-z
-x,1/2+y,1/2+z
x,-y,1/2+z
1/2+x,1/2+y,z
1/2-x,-y,z
1/2+x,-y,1/2-z
1/2-x,1/2+y,1/2-z
1/2-x,1/2-y,-z
1/2+x,y,-z
1/2-x,y,1/2+z
1/2+x,1/2-y,1/2+z
loop_
_atom_site_type_symbol
_atom_site_label
_atom_site_fract_x
_atom_site_fract_y
_atom_site_fract_z
Si Si1 0.500000 0.105882 0.750000
Si Si2 0.117587 0.111322 0.874542
Si Si3 0.371051 0.822836 0.165930
Si Si4 0.250000 0.000000 0.816022
Si Si5 0.766667 0.419346 0.974280
O O1 0.662616 0.151932 0.783662
O O2 0.346165 0.056674 0.782448
O O3 0.409263 0.132213 0.858673
O O4 0.132284 0.102924 0.926700
O O5 0.903772 0.165049 0.858643
O O6 0.058810 0.041111 0.849149
O O7 0.500000 0.750000 0.166077
O O8 0.750000 0.500000 0.973253
O O9 0.476397 0.397154 0.988760
#
# Coordination Sequence:
#
# PCOD9506827 Si02
#       5
#     8  16  16   8  16
#     4  10  21  38  60  88 123 158 202 260 300 370
#     4  11  22  39  63  90 125 158 198 258 306 376
#     4  11  24  40  61  85 120 169 213 249 294 355
#     4  10  20  36  60  96 122 156 196 252 334 370
#     4  10  20  36  60  93 126 154 190 244 313 384
#
# _framework density 20.785477
#
# number of rings (size 3 to 8) (size 9 to 14) (size 15 to 20)
#    0.000    1.500    1.250    4.125    0.000    6.000 
#    0.000    5.000    0.000   15.000    0.000    0.000 
#    0.000    0.000    0.000    0.000    0.000    0.000 
#
# Total GULP energy -178512.856882 kJ/mol
# GULP energy per Si atom -5578.526778 kJ/mol
# Density = 2.073817 g / cm^3
# Si number density = 20.785477 Si / 1000 Ang^3
#
#
#
# Elastic Constant Matrix: (Units=GPa)
#
#
# Indices 1 2 3 4 5 6 
#
# 1 54.7434 8.3132 30.9567 0.0000 0.0000 0.0000
# 2 8.3132 64.7434 34.1974 0.0000 0.0000 0.0000
# 3 30.9567 34.1974 155.5446 0.0000 0.0000 0.0000
# 4 0.0000 0.0000 0.0000 7.9804 0.0000 0.0000
# 5 0.0000 0.0000 0.0000 0.0000 20.1435 0.0000
# 6 0.0000 0.0000 0.0000 0.0000 0.0000 30.2981
#
#
#
# Elastic Compliance Matrix: (Units=1/GPa)
#
#
# Indices 1 2 3 4 5 6 
#
# 1 0.020600 -0.000543 -0.003981 0.000000 0.000000 0.000000
# 2 -0.000543 0.017489 -0.003737 0.000000 0.000000 0.000000
# 3 -0.003981 -0.003737 0.008043 0.000000 0.000000 0.000000
# 4 0.000000 0.000000 0.000000 0.125307 0.000000 0.000000
# 5 0.000000 0.000000 0.000000 0.000000 0.049644 0.000000
# 6 0.000000 0.000000 0.000000 0.000000 0.000000 0.033005
#
#
# Mechanical properties :
#
#
# Convention : Reuss Voigt Hill
#
# Bulk Modulus (GPa) = 33.77026 46.88513 40.32769
# Shear Modulus (GPa) = 17.82660 25.12201 21.47430
#
# Velocity S-wave (km/s) = 2.93174 3.48031 3.21774
# Velocity P-wave (km/s) = 5.26711 6.22541 5.76620
#
# Compressibility (1/GPa) = 0.02961186
#
# Stress axis : x y z
#
# Youngs Moduli (GPa) = 48.54264 57.17817 124.33346
#
# Poissons Ratio (x) = 0.03102 0.49493
# Poissons Ratio (y) = 0.02634 0.46465
# Poissons Ratio (z) = 0.19323 0.21368
#
# Static dielectric constant tensor:
#      x y z
#    x 1.635350 0.000000 0.000000 
#    y 0.000000 1.803430 0.000000 
#    z 0.000000 0.000000 1.748920 
# 
# From -- ./inp_files/48120.got.cif
#   From: 2010.05.17/outbox.cif.g08.bks.cpg/sg68_25_cif.got.tgz:48120.got - 2010.06.03 18:57:09.
