data_PCOD9506300
_publ_section_title
;
Structure prediction by ZEFSAII (Michael W. Deem and Ramdas Pophale) SiO2 
 PCOD9506300
Probable space group: C C C A
;
_chemical_formula_sum "Si O2"
_cell_formula_units_Z 68
_cell_length_a 19.027972
_cell_length_b 13.720523
_cell_length_c 10.952196
_cell_angle_alpha 90.000000
_cell_angle_beta 90.000000
_cell_angle_gamma 90.000000
_cell_volume 2859.330634
_symmetry_space_group_name_H-M "C C C A"
_symmetry_group_IT_number 68
_space_group.IT_coordinate_system_code '2'
_symmetry_cell_setting 'orthorhombic'
loop_
_space_group_symop_operation_xyz
x,y,z
-x,1/2-y,z
x,1/2-y,1/2-z
-x,y,1/2-z
-x,-y,-z
x,1/2+y,-z
-x,1/2+y,1/2+z
x,-y,1/2+z
1/2+x,1/2+y,z
1/2-x,-y,z
1/2+x,-y,1/2-z
1/2-x,1/2+y,1/2-z
1/2-x,1/2-y,-z
1/2+x,y,-z
1/2-x,y,1/2+z
1/2+x,1/2-y,1/2+z
loop_
_atom_site_type_symbol
_atom_site_label
_atom_site_fract_x
_atom_site_fract_y
_atom_site_fract_z
Si Si1 0.277035 0.110612 0.554323
Si Si2 0.205084 0.100303 0.323067
Si Si3 0.929204 0.160142 0.520728
Si Si4 0.450350 0.140201 0.868710
Si Si5 0.000000 0.750000 0.250000
O O1 0.228328 0.153988 0.447630
O O2 0.278870 0.149251 0.692619
O O3 0.355389 0.110367 0.500398
O O4 0.250000 0.000000 0.569790
O O5 0.121108 0.086430 0.332573
O O6 0.250000 0.000000 0.324357
O O7 0.926956 0.257686 0.433799
O O8 0.949563 0.190176 0.657977
O O9 0.995679 0.101280 0.469345
O O10 0.500000 0.147727 0.750000
#
# Coordination Sequence:
#
# PCOD9506300 Si02
#       5
#    16  16  16  16   4
#     4  10  22  40  62  88 134 175 214 267 322 401
#     4  10  22  39  60  90 134 175 220 269 321 392
#     4  10  20  37  66  97 128 164 215 272 339 387
#     4  10  19  36  66  93 118 168 218 266 320 392
#     4   8  20  36  62  96 132 152 214 288 328 380
#
# _framework density 23.781789
#
# number of rings (size 3 to 8) (size 9 to 14) (size 15 to 20)
#    0.000    2.353    2.353    1.412    0.000    4.706 
#    0.000    4.706   10.353    0.000    0.000    0.000 
#    0.000    0.000    0.000    0.000    0.000    0.000 
#
# Total GULP energy -189588.253149 kJ/mol
# GULP energy per Si atom -5576.125093 kJ/mol
# Density = 2.372766 g / cm^3
# Si number density = 23.781789 Si / 1000 Ang^3
#
#
#
# Elastic Constant Matrix: (Units=GPa)
#
#
# Indices 1 2 3 4 5 6 
#
# 1 220.2035 48.6833 69.7879 0.0000 0.0000 0.0000
# 2 48.6833 84.5897 28.2274 0.0000 0.0000 0.0000
# 3 69.7879 28.2274 236.8060 0.0000 0.0000 0.0000
# 4 0.0000 0.0000 0.0000 0.4517 0.0000 0.0000
# 5 0.0000 0.0000 0.0000 0.0000 33.9315 0.0000
# 6 0.0000 0.0000 0.0000 0.0000 0.0000 39.4066
#
#
#
# Elastic Compliance Matrix: (Units=1/GPa)
#
#
# Indices 1 2 3 4 5 6 
#
# 1 0.005569 -0.002767 -0.001311 0.000000 0.000000 0.000000
# 2 -0.002767 0.013687 -0.000816 0.000000 0.000000 0.000000
# 3 -0.001311 -0.000816 0.004707 0.000000 0.000000 0.000000
# 4 0.000000 0.000000 0.000000 2.213661 0.000000 0.000000
# 5 0.000000 0.000000 0.000000 0.000000 0.029471 0.000000
# 6 0.000000 0.000000 0.000000 0.000000 0.000000 0.025376
#
#
# Mechanical properties :
#
#
# Convention : Reuss Voigt Hill
#
# Bulk Modulus (GPa) = 70.55703 92.77737 81.66720
# Shear Modulus (GPa) = 2.16733 41.08467 21.62600
#
# Velocity S-wave (km/s) = 0.95568 4.16091 3.01882
# Velocity P-wave (km/s) = 5.56333 7.88549 6.82391
#
# Compressibility (1/GPa) = 0.01417293
#
# Stress axis : x y z
#
# Youngs Moduli (GPa) = 179.57760 73.06367 212.46974
#
# Poissons Ratio (x) = 0.20219 0.27860
# Poissons Ratio (y) = 0.49695 0.17336
# Poissons Ratio (z) = 0.23547 0.05961
#
# Static dielectric constant tensor:
#      x y z
#    x 1.884070 0.000000 0.000000 
#    y 0.000000 2.082650 0.000000 
#    z 0.000000 0.000000 1.959980 
# 
# From -- ./inp_files/13003.got.cif
#   From: 2010.05.17/outbox.cif.g08.bks.cpg/sg68_7_cif.got.tgz:13003.got - 2010.06.03 18:57:09.
