data_PCOD9506147
_publ_section_title
;
Structure prediction by ZEFSAII (Michael W. Deem and Ramdas Pophale) SiO2 
 PCOD9506147
Probable space group: C C C A
;
_chemical_formula_sum "Si O2"
_cell_formula_units_Z 64
_cell_length_a 18.418540
_cell_length_b 8.597119
_cell_length_c 16.754298
_cell_angle_alpha 90.000000
_cell_angle_beta 90.000000
_cell_angle_gamma 90.000000
_cell_volume 2652.982441
_symmetry_space_group_name_H-M "C C C A"
_symmetry_group_IT_number 68
_space_group.IT_coordinate_system_code '2'
_symmetry_cell_setting 'orthorhombic'
loop_
_space_group_symop_operation_xyz
x,y,z
-x,1/2-y,z
x,1/2-y,1/2-z
-x,y,1/2-z
-x,-y,-z
x,1/2+y,-z
-x,1/2+y,1/2+z
x,-y,1/2+z
1/2+x,1/2+y,z
1/2-x,-y,z
1/2+x,-y,1/2-z
1/2-x,1/2+y,1/2-z
1/2-x,1/2-y,-z
1/2+x,y,-z
1/2-x,y,1/2+z
1/2+x,1/2-y,1/2+z
loop_
_atom_site_type_symbol
_atom_site_label
_atom_site_fract_x
_atom_site_fract_y
_atom_site_fract_z
Si Si1 0.173748 0.313660 0.973329
Si Si2 0.531059 0.078573 0.130940
Si Si3 0.179663 0.113986 0.814113
Si Si4 0.414887 0.895269 0.052606
O O1 0.165704 0.210855 0.894664
O O2 0.153846 0.487369 0.949352
O O3 0.250000 0.250000 0.000000
O O4 0.119274 0.275326 0.046988
O O5 0.500000 0.250000 0.154203
O O6 0.599169 0.036171 0.187760
O O7 0.467403 0.949999 0.122476
O O8 0.548953 0.096209 0.035509
O O9 0.191390 0.250000 0.750000
O O10 0.250000 0.000000 0.817425
#
# Coordination Sequence:
#
# PCOD9506147 Si02
#       4
#    16  16  16  16
#     4  11  21  38  65 101 135 172 221 283 340 403
#     4  10  19  39  63  95 128 172 209 272 339 397
#     4  11  25  45  65  90 130 181 228 277 336 413
#     4  10  19  34  60  96 134 164 211 270 337 387
#
# _framework density 24.123794
#
# number of rings (size 3 to 8) (size 9 to 14) (size 15 to 20)
#    0.000    1.500    5.000    3.750    0.000    2.500 
#    0.000    0.000    0.000    0.000    0.000    0.000 
#    0.000    0.000    0.000    0.000    0.000    0.000 
#
# Total GULP energy -178139.416088 kJ/mol
# GULP energy per Si atom -5566.856753 kJ/mol
# Density = 2.406889 g / cm^3
# Si number density = 24.123794 Si / 1000 Ang^3
#
#
#
# Elastic Constant Matrix: (Units=GPa)
#
#
# Indices 1 2 3 4 5 6 
#
# 1 127.9906 57.1393 29.9232 0.0000 0.0000 0.0000
# 2 57.1393 97.9159 29.5848 0.0000 0.0000 0.0000
# 3 29.9232 29.5848 61.1285 0.0000 0.0000 0.0000
# 4 0.0000 0.0000 0.0000 24.0214 0.0000 0.0000
# 5 0.0000 0.0000 0.0000 0.0000 16.9583 0.0000
# 6 0.0000 0.0000 0.0000 0.0000 0.0000 42.8837
#
#
#
# Elastic Compliance Matrix: (Units=1/GPa)
#
#
# Indices 1 2 3 4 5 6 
#
# 1 0.010920 -0.005572 -0.002649 0.000000 0.000000 0.000000
# 2 -0.005572 0.014805 -0.004438 0.000000 0.000000 0.000000
# 3 -0.002649 -0.004438 0.019803 0.000000 0.000000 0.000000
# 4 0.000000 0.000000 0.000000 0.041629 0.000000 0.000000
# 5 0.000000 0.000000 0.000000 0.000000 0.058968 0.000000
# 6 0.000000 0.000000 0.000000 0.000000 0.000000 0.023319
#
#
# Mechanical properties :
#
#
# Convention : Reuss Voigt Hill
#
# Bulk Modulus (GPa) = 49.47704 57.81441 53.64572
# Shear Modulus (GPa) = 24.81398 28.13187 26.47293
#
# Velocity S-wave (km/s) = 3.21067 3.41859 3.31626
# Velocity P-wave (km/s) = 5.85651 6.29286 6.07860
#
# Compressibility (1/GPa) = 0.02021140
#
# Stress axis : x y z
#
# Youngs Moduli (GPa) = 91.57622 67.54332 50.49649
#
# Poissons Ratio (x) = 0.37635 0.13375
# Poissons Ratio (y) = 0.51027 0.22410
# Poissons Ratio (z) = 0.24256 0.29975
#
# Static dielectric constant tensor:
#      x y z
#    x 3.437090 0.000000 0.000000 
#    y 0.000000 2.012360 0.000000 
#    z 0.000000 0.000000 1.645360 
# 
# From -- ./inp_files/40040.got.cif
#   From: 2010.05.17/outbox.cif.g08.bks.cpg/sg68_21_cif.got.tgz:40040.got - 2010.06.03 18:57:09.
