data_PCOD9506118
_publ_section_title
;
Structure prediction by ZEFSAII (Michael W. Deem and Ramdas Pophale) SiO2 
 PCOD9506118
Probable space group: C C C A
;
_chemical_formula_sum "Si O2"
_cell_formula_units_Z 72
_cell_length_a 10.030194
_cell_length_b 12.291597
_cell_length_c 25.092751
_cell_angle_alpha 90.000000
_cell_angle_beta 90.000000
_cell_angle_gamma 90.000000
_cell_volume 3093.612564
_symmetry_space_group_name_H-M "C C C A"
_symmetry_group_IT_number 68
_space_group.IT_coordinate_system_code '2'
_symmetry_cell_setting 'orthorhombic'
loop_
_space_group_symop_operation_xyz
x,y,z
-x,1/2-y,z
x,1/2-y,1/2-z
-x,y,1/2-z
-x,-y,-z
x,1/2+y,-z
-x,1/2+y,1/2+z
x,-y,1/2+z
1/2+x,1/2+y,z
1/2-x,-y,z
1/2+x,-y,1/2-z
1/2-x,1/2+y,1/2-z
1/2-x,1/2-y,-z
1/2+x,y,-z
1/2-x,y,1/2+z
1/2+x,1/2-y,1/2+z
loop_
_atom_site_type_symbol
_atom_site_label
_atom_site_fract_x
_atom_site_fract_y
_atom_site_fract_z
Si Si1 0.061741 0.112267 0.021748
Si Si2 0.500000 0.750000 0.572159
Si Si3 0.760688 0.659729 0.115816
Si Si4 0.334821 0.396553 0.600854
Si Si5 0.032493 0.880060 0.690610
O O1 0.183455 0.113662 0.063578
O O2 0.933349 0.149515 0.055963
O O3 0.092440 0.185189 0.970261
O O4 0.000000 0.000000 0.000000
O O5 0.581922 0.659502 0.604855
O O6 0.742715 0.790589 0.120686
O O7 0.681335 0.610789 0.166126
O O8 0.250000 0.500000 0.583478
O O9 0.431125 0.433250 0.648943
O O10 0.000000 0.750000 0.689197
O O11 0.000000 0.918123 0.750000
#
# Coordination Sequence:
#
# PCOD9506118 Si02
#       5
#    16   8  16  16  16
#     4  11  22  34  55  80 118 165 199 236 294 359
#     4  12  22  34  54  79 133 158 184 254 290 362
#     4  10  21  37  53  87 114 151 207 238 302 366
#     4  10  19  34  57  82 110 151 202 250 291 364
#     4   8  16  35  63  81 101 144 200 251 301 364
#
# _framework density 23.273761
#
# number of rings (size 3 to 8) (size 9 to 14) (size 15 to 20)
#    0.000    2.000    2.222    3.333    3.111    0.000 
#    0.000    0.000   14.667    9.333    0.000    0.000 
#    0.000    0.000    0.000    0.000    0.000    0.000 
#
# Total GULP energy -200856.287941 kJ/mol
# GULP energy per Si atom -5579.341332 kJ/mol
# Density = 2.322079 g / cm^3
# Si number density = 23.273761 Si / 1000 Ang^3
#
#
#
# Elastic Constant Matrix: (Units=GPa)
#
#
# Indices 1 2 3 4 5 6 
#
# 1 103.1290 20.2349 58.1162 0.0000 0.0000 0.0000
# 2 20.2349 88.3105 10.9467 0.0000 0.0000 0.0000
# 3 58.1162 10.9467 130.9896 0.0000 0.0000 0.0000
# 4 0.0000 0.0000 0.0000 10.2091 0.0000 0.0000
# 5 0.0000 0.0000 0.0000 0.0000 7.1142 0.0000
# 6 0.0000 0.0000 0.0000 0.0000 0.0000 38.1558
#
#
#
# Elastic Compliance Matrix: (Units=1/GPa)
#
#
# Indices 1 2 3 4 5 6 
#
# 1 0.013398 -0.002358 -0.005747 0.000000 0.000000 0.000000
# 2 -0.002358 0.011857 0.000055 0.000000 0.000000 0.000000
# 3 -0.005747 0.000055 0.010179 0.000000 0.000000 0.000000
# 4 0.000000 0.000000 0.000000 0.097952 0.000000 0.000000
# 5 0.000000 0.000000 0.000000 0.000000 0.140564 0.000000
# 6 0.000000 0.000000 0.000000 0.000000 0.000000 0.026208
#
#
# Mechanical properties :
#
#
# Convention : Reuss Voigt Hill
#
# Bulk Modulus (GPa) = 51.71947 55.66940 53.69444
# Shear Modulus (GPa) = 15.49412 26.63791 21.06602
#
# Velocity S-wave (km/s) = 2.58298 3.38679 3.01182
# Velocity P-wave (km/s) = 5.58267 6.26618 5.93428
#
# Compressibility (1/GPa) = 0.01933508
#
# Stress axis : x y z
#
# Youngs Moduli (GPa) = 74.63864 84.33804 98.23697
#
# Poissons Ratio (x) = 0.19883 0.56459
# Poissons Ratio (y) = 0.17596 -0.00541
# Poissons Ratio (z) = 0.42897 -0.00464
#
# Static dielectric constant tensor:
#      x y z
#    x 2.064380 0.000000 0.000000 
#    y 0.000000 1.949310 0.000000 
#    z 0.000000 0.000000 1.862890 
# 
# From -- ./inp_files/44010.got.cif
#   From: 2010.05.17/outbox.cif.g08.bks.cpg/sg68_23_cif.got.tgz:44010.got - 2010.06.03 18:57:09.
