data_PCOD9506085
_publ_section_title
;
Structure prediction by ZEFSAII (Michael W. Deem and Ramdas Pophale) SiO2 
 PCOD9506085
Probable space group: C C C A
;
_chemical_formula_sum "Si O2"
_cell_formula_units_Z 116
_cell_length_a 26.288744
_cell_length_b 9.021528
_cell_length_c 24.236400
_cell_angle_alpha 90.000000
_cell_angle_beta 90.000000
_cell_angle_gamma 90.000000
_cell_volume 5748.017083
_symmetry_space_group_name_H-M "C C C A"
_symmetry_group_IT_number 68
_space_group.IT_coordinate_system_code '2'
_symmetry_cell_setting 'orthorhombic'
loop_
_space_group_symop_operation_xyz
x,y,z
-x,1/2-y,z
x,1/2-y,1/2-z
-x,y,1/2-z
-x,-y,-z
x,1/2+y,-z
-x,1/2+y,1/2+z
x,-y,1/2+z
1/2+x,1/2+y,z
1/2-x,-y,z
1/2+x,-y,1/2-z
1/2-x,1/2+y,1/2-z
1/2-x,1/2-y,-z
1/2+x,y,-z
1/2-x,y,1/2+z
1/2+x,1/2-y,1/2+z
loop_
_atom_site_type_symbol
_atom_site_label
_atom_site_fract_x
_atom_site_fract_y
_atom_site_fract_z
Si Si1 0.916248 0.224444 0.906005
Si Si2 0.633996 0.790866 0.311914
Si Si3 0.285876 0.889861 0.490067
Si Si4 0.500000 0.250000 0.250000
Si Si5 0.603542 0.766348 0.034281
Si Si6 0.462448 0.992893 0.671042
Si Si7 0.567938 0.056180 0.631180
Si Si8 0.840229 0.984969 0.905738
O O1 0.956412 0.101979 0.885502
O O2 0.923012 0.382633 0.877957
O O3 0.863906 0.142404 0.888434
O O4 0.914357 0.245609 0.971649
O O5 0.650013 0.750000 0.250000
O O6 0.614532 0.638710 0.339220
O O7 0.671772 0.880697 0.353280
O O8 0.583673 0.897783 0.314445
O O9 0.250000 0.750000 0.500000
O O10 0.340513 0.844530 0.466000
O O11 0.250000 0.000000 0.455558
O O12 0.300655 0.975080 0.546734
O O13 0.534299 0.138963 0.285073
O O14 0.565879 0.860222 0.072346
O O15 0.615704 0.608325 0.061941
O O16 0.516364 0.073783 0.665872
#
# Coordination Sequence:
#
# PCOD9506085 Si02
#       8
#    16  16  16   4  16  16  16  16
#     4  10  19  34  52  78 113 153 195 239 295 351
#     4  10  22  39  59  79 111 154 203 254 299 349
#     4  11  20  34  60  91 121 153 186 232 301 370
#     4  12  20  36  54  76 112 136 202 272 286 316
#     4  10  21  36  55  81 125 152 187 239 289 374
#     4  11  22  35  53  78 108 151 204 251 302 340
#     4  11  21  36  55  80 114 156 196 246 300 352
#     4   9  20  36  52  86 117 151 188 240 293 362
#
# _framework density 20.180872999999998
#
# number of rings (size 3 to 8) (size 9 to 14) (size 15 to 20)
#    0.000    1.655    2.759    2.897    1.931    1.103 
#    0.000    4.138    0.000    0.000    0.000    7.724 
#    0.000    0.000    0.000    0.000    0.000    0.000 
#
# Total GULP energy -323346.951938 kJ/mol
# GULP energy per Si atom -5574.947447 kJ/mol
# Density = 2.013494 g / cm^3
# Si number density = 20.180873 Si / 1000 Ang^3
#
#
#
# Elastic Constant Matrix: (Units=GPa)
#
#
# Indices 1 2 3 4 5 6 
#
# 1 36.5592 16.8246 0.0755 0.0000 0.0000 0.0000
# 2 16.8246 104.8308 20.5359 0.0000 0.0000 0.0000
# 3 0.0755 20.5359 99.3631 0.0000 0.0000 0.0000
# 4 0.0000 0.0000 0.0000 37.5244 0.0000 0.0000
# 5 0.0000 0.0000 0.0000 0.0000 8.9242 0.0000
# 6 0.0000 0.0000 0.0000 0.0000 0.0000 29.9121
#
#
#
# Elastic Compliance Matrix: (Units=1/GPa)
#
#
# Indices 1 2 3 4 5 6 
#
# 1 0.029629 -0.004951 0.001001 0.000000 0.000000 0.000000
# 2 -0.004951 0.010769 -0.002222 0.000000 0.000000 0.000000
# 3 0.001001 -0.002222 0.010523 0.000000 0.000000 0.000000
# 4 0.000000 0.000000 0.000000 0.026649 0.000000 0.000000
# 5 0.000000 0.000000 0.000000 0.000000 0.112055 0.000000
# 6 0.000000 0.000000 0.000000 0.000000 0.000000 0.033431
#
#
# Mechanical properties :
#
#
# Convention : Reuss Voigt Hill
#
# Bulk Modulus (GPa) = 25.92277 35.06945 30.49611
# Shear Modulus (GPa) = 20.14012 28.82661 24.48336
#
# Velocity S-wave (km/s) = 3.16251 3.78353 3.48688
# Velocity P-wave (km/s) = 5.11941 6.04170 5.59958
#
# Compressibility (1/GPa) = 0.03857613
#
# Stress axis : x y z
#
# Youngs Moduli (GPa) = 33.75019 92.85822 95.03395
#
# Poissons Ratio (x) = 0.45977 -0.09511
# Poissons Ratio (y) = 0.16711 0.21116
# Poissons Ratio (z) = -0.03378 0.20633
#
# Static dielectric constant tensor:
#      x y z
#    x 1.792820 0.000000 0.000000 
#    y 0.000000 1.856940 0.000000 
#    z 0.000000 0.000000 1.779080 
# 
# From -- ./inp_files/47308.got.cif
#   From: 2010.05.17/outbox.cif.g08.bks.cpg/sg68_24_cif.got.tgz:47308.got - 2010.06.03 18:57:09.
