data_PCOD9506189
_publ_section_title
;
Structure prediction by ZEFSAII (Michael W. Deem and Ramdas Pophale) SiO2 
 PCOD9506189
Probable space group: C C C A
;
_chemical_formula_sum "Si O2"
_cell_formula_units_Z 48
_cell_length_a 7.198933
_cell_length_b 12.201714
_cell_length_c 19.691407
_cell_angle_alpha 90.000000
_cell_angle_beta 90.000000
_cell_angle_gamma 90.000000
_cell_volume 1729.679832
_symmetry_space_group_name_H-M "C C C A"
_symmetry_group_IT_number 68
_space_group.IT_coordinate_system_code '2'
_symmetry_cell_setting 'orthorhombic'
loop_
_space_group_symop_operation_xyz
x,y,z
-x,1/2-y,z
x,1/2-y,1/2-z
-x,y,1/2-z
-x,-y,-z
x,1/2+y,-z
-x,1/2+y,1/2+z
x,-y,1/2+z
1/2+x,1/2+y,z
1/2-x,-y,z
1/2+x,-y,1/2-z
1/2-x,1/2+y,1/2-z
1/2-x,1/2-y,-z
1/2+x,y,-z
1/2-x,y,1/2+z
1/2+x,1/2-y,1/2+z
loop_
_atom_site_type_symbol
_atom_site_label
_atom_site_fract_x
_atom_site_fract_y
_atom_site_fract_z
Si Si1 0.278167 0.878188 0.238341
Si Si2 0.773335 0.155515 0.907925
Si Si3 0.849177 0.110510 0.059850
O O1 0.219574 0.750000 0.250000
O O2 0.500000 0.868311 0.250000
O O3 0.175074 0.890419 0.164679
O O4 0.250000 0.000000 0.270656
O O5 0.771035 0.287285 0.913129
O O6 0.555417 0.124416 0.913251
O O7 0.864038 0.115947 0.977685
O O8 0.750000 0.000000 0.077850
#
# Coordination Sequence:
#
# PCOD9506189 Si02
#       3
#    16  16  16
#     4  11  25  46  67  92 129 173 220 267 314 372
#     4  10  22  37  59  92 124 158 206 257 314 381
#     4  10  19  35  58  89 126 161 196 251 321 381
#
# _framework density 27.750802
#
# number of rings (size 3 to 8) (size 9 to 14) (size 15 to 20)
#    0.000    1.667    0.000    6.000    0.000    6.000 
#    0.000   10.000    0.000    0.000    0.000    0.000 
#    0.000    0.000    0.000    0.000    0.000    0.000 
#
# Total GULP energy -134130.665076 kJ/mol
# GULP energy per Si atom -5588.777711 kJ/mol
# Density = 2.768764 g / cm^3
# Si number density = 27.750802 Si / 1000 Ang^3
#
#
#
# Elastic Constant Matrix: (Units=GPa)
#
#
# Indices 1 2 3 4 5 6 
#
# 1 57.2591 39.4832 -10.8560 0.0000 0.0000 0.0000
# 2 39.4832 316.7786 23.7840 0.0000 0.0000 0.0000
# 3 -10.8560 23.7840 112.1693 0.0000 0.0000 0.0000
# 4 0.0000 0.0000 0.0000 10.5897 0.0000 0.0000
# 5 0.0000 0.0000 0.0000 0.0000 156.1898 0.0000
# 6 0.0000 0.0000 0.0000 0.0000 0.0000 49.1175
#
#
#
# Elastic Compliance Matrix: (Units=1/GPa)
#
#
# Indices 1 2 3 4 5 6 
#
# 1 0.019760 -0.002649 0.002474 0.000000 0.000000 0.000000
# 2 -0.002649 0.003563 -0.001012 0.000000 0.000000 0.000000
# 3 0.002474 -0.001012 0.009369 0.000000 0.000000 0.000000
# 4 0.000000 0.000000 0.000000 0.094431 0.000000 0.000000
# 5 0.000000 0.000000 0.000000 0.000000 0.006402 0.000000
# 6 0.000000 0.000000 0.000000 0.000000 0.000000 0.020359
#
#
# Mechanical properties :
#
#
# Convention : Reuss Voigt Hill
#
# Bulk Modulus (GPa) = 32.98259 65.66993 49.32626
# Shear Modulus (GPa) = 30.05453 72.09913 51.07683
#
# Velocity S-wave (km/s) = 3.29449 5.10268 4.29482
# Velocity P-wave (km/s) = 5.13640 7.64408 6.51209
#
# Compressibility (1/GPa) = 0.03031903
#
# Stress axis : x y z
#
# Youngs Moduli (GPa) = 50.60759 280.67279 106.73411
#
# Poissons Ratio (x) = 0.74339 -0.26406
# Poissons Ratio (y) = 0.13404 0.10799
# Poissons Ratio (z) = -0.12520 0.28398
#
# Static dielectric constant tensor:
#      x y z
#    x 2.101280 0.000000 0.000000 
#    y 0.000000 2.183660 0.000000 
#    z 0.000000 0.000000 2.218500 
# 
# From -- ./inp_files/42555.got.cif
#   From: 2010.05.17/outbox.cif.g08.bks.cpg/sg68_22_cif.got.tgz:42555.got - 2010.06.03 18:57:09.
