data_PCOD9506177
_publ_section_title
;
Structure prediction by ZEFSAII (Michael W. Deem and Ramdas Pophale) SiO2 
 PCOD9506177
Probable space group: C C C A
;
_chemical_formula_sum "Si O2"
_cell_formula_units_Z 112
_cell_length_a 12.441384
_cell_length_b 22.811881
_cell_length_c 21.298653
_cell_angle_alpha 90.000000
_cell_angle_beta 90.000000
_cell_angle_gamma 90.000000
_cell_volume 6044.799914
_symmetry_space_group_name_H-M "C C C A"
_symmetry_group_IT_number 68
_space_group.IT_coordinate_system_code '2'
_symmetry_cell_setting 'orthorhombic'
loop_
_space_group_symop_operation_xyz
x,y,z
-x,1/2-y,z
x,1/2-y,1/2-z
-x,y,1/2-z
-x,-y,-z
x,1/2+y,-z
-x,1/2+y,1/2+z
x,-y,1/2+z
1/2+x,1/2+y,z
1/2-x,-y,z
1/2+x,-y,1/2-z
1/2-x,1/2+y,1/2-z
1/2-x,1/2-y,-z
1/2+x,y,-z
1/2-x,y,1/2+z
1/2+x,1/2-y,1/2+z
loop_
_atom_site_type_symbol
_atom_site_label
_atom_site_fract_x
_atom_site_fract_y
_atom_site_fract_z
Si Si1 0.598096 0.553437 0.708391
Si Si2 0.948145 0.841004 0.847038
Si Si3 0.057840 0.081679 0.450245
Si Si4 0.248754 0.619800 0.122719
Si Si5 0.167016 0.268795 0.177610
Si Si6 0.532760 0.946092 0.584033
Si Si7 0.171269 0.423710 0.253545
O O1 0.500000 0.577312 0.750000
O O2 0.557186 0.551301 0.637776
O O3 0.710533 0.585767 0.716909
O O4 0.626248 0.488389 0.733832
O O5 0.859462 0.790860 0.859372
O O6 0.905364 0.879927 0.790125
O O7 0.976444 0.883200 0.904783
O O8 0.056356 0.806419 0.827371
O O9 0.173243 0.111315 0.436949
O O10 0.015364 0.082064 0.521019
O O11 0.065231 0.013228 0.431008
O O12 0.246964 0.687013 0.147065
O O13 0.135146 0.590000 0.109218
O O14 0.309757 0.586063 0.179879
O O15 0.187187 0.250000 0.250000
#
# Coordination Sequence:
#
# PCOD9506177 Si02
#       7
#    16  16  16  16  16  16  16
#     4  11  22  35  54  87 119 156 192 244 306 373
#     4  10  19  35  56  94 119 151 201 263 302 344
#     4  10  23  36  59  82 123 166 204 252 296 375
#     4  11  22  37  60  90 121 160 202 256 317 365
#     4  10  20  32  60  96 122 148 199 267 312 352
#     4  11  22  41  56  84 125 167 203 240 306 385
#     4  11  22  32  59  87 122 151 194 252 308 361
#
# _framework density 18.528321999999999
#
# number of rings (size 3 to 8) (size 9 to 14) (size 15 to 20)
#    0.000    1.429    4.286    2.143    6.000    1.143 
#    2.571    0.714    0.000    4.286    0.000    0.000 
#    0.000    0.000    0.000    0.000    0.000    0.000 
#
# Total GULP energy -312565.399477 kJ/mol
# GULP energy per Si atom -5581.524991 kJ/mol
# Density = 1.848615 g / cm^3
# Si number density = 18.528322 Si / 1000 Ang^3
#
#
#
# Elastic Constant Matrix: (Units=GPa)
#
#
# Indices 1 2 3 4 5 6 
#
# 1 67.1204 20.6631 27.6862 0.0000 0.0000 0.0000
# 2 20.6631 83.2350 29.6857 0.0000 0.0000 0.0000
# 3 27.6862 29.6857 95.1507 0.0000 0.0000 0.0000
# 4 0.0000 0.0000 0.0000 27.2304 0.0000 0.0000
# 5 0.0000 0.0000 0.0000 0.0000 26.3054 0.0000
# 6 0.0000 0.0000 0.0000 0.0000 0.0000 21.6451
#
#
#
# Elastic Compliance Matrix: (Units=1/GPa)
#
#
# Indices 1 2 3 4 5 6 
#
# 1 0.017510 -0.002847 -0.004207 0.000000 0.000000 0.000000
# 2 -0.002847 0.013981 -0.003534 0.000000 0.000000 0.000000
# 3 -0.004207 -0.003534 0.012836 0.000000 0.000000 0.000000
# 4 0.000000 0.000000 0.000000 0.036724 0.000000 0.000000
# 5 0.000000 0.000000 0.000000 0.000000 0.038015 0.000000
# 6 0.000000 0.000000 0.000000 0.000000 0.000000 0.046200
#
#
# Mechanical properties :
#
#
# Convention : Reuss Voigt Hill
#
# Bulk Modulus (GPa) = 43.19034 44.61958 43.90496
# Shear Modulus (GPa) = 25.75224 26.20092 25.97658
#
# Velocity S-wave (km/s) = 3.73216 3.76453 3.74838
# Velocity P-wave (km/s) = 6.47558 6.55970 6.51778
#
# Compressibility (1/GPa) = 0.02315333
#
# Stress axis : x y z
#
# Youngs Moduli (GPa) = 57.10963 71.52510 77.90476
#
# Poissons Ratio (x) = 0.20360 0.32774
# Poissons Ratio (y) = 0.16256 0.27529
# Poissons Ratio (z) = 0.24026 0.25275
#
# Static dielectric constant tensor:
#      x y z
#    x 1.664120 0.000000 0.000000 
#    y 0.000000 1.680620 0.000000 
#    z 0.000000 0.000000 1.639890 
# 
# From -- ./inp_files/37833.got.cif
#   From: 2010.05.17/outbox.cif.g08.bks.cpg/sg68_19_cif.got.tgz:37833.got - 2010.06.03 18:57:09.
