data_PCOD9506041
_publ_section_title
;
Structure prediction by ZEFSAII (Michael W. Deem and Ramdas Pophale) SiO2 
 PCOD9506041
Probable space group: C C C A
;
_chemical_formula_sum "Si O2"
_cell_formula_units_Z 104
_cell_length_a 19.814332
_cell_length_b 24.328867
_cell_length_c 9.447119
_cell_angle_alpha 90.000000
_cell_angle_beta 90.000000
_cell_angle_gamma 90.000000
_cell_volume 4554.080527
_symmetry_space_group_name_H-M "C C C A"
_symmetry_group_IT_number 68
_space_group.IT_coordinate_system_code '2'
_symmetry_cell_setting 'orthorhombic'
loop_
_space_group_symop_operation_xyz
x,y,z
-x,1/2-y,z
x,1/2-y,1/2-z
-x,y,1/2-z
-x,-y,-z
x,1/2+y,-z
-x,1/2+y,1/2+z
x,-y,1/2+z
1/2+x,1/2+y,z
1/2-x,-y,z
1/2+x,-y,1/2-z
1/2-x,1/2+y,1/2-z
1/2-x,1/2-y,-z
1/2+x,y,-z
1/2-x,y,1/2+z
1/2+x,1/2-y,1/2+z
loop_
_atom_site_type_symbol
_atom_site_label
_atom_site_fract_x
_atom_site_fract_y
_atom_site_fract_z
Si Si1 0.773089 0.750000 0.750000
Si Si2 0.144866 0.363281 0.592679
Si Si3 0.413241 0.502286 0.913066
Si Si4 0.710066 0.820050 0.000448
Si Si5 0.913833 0.624066 0.124988
Si Si6 0.172824 0.489928 0.665845
Si Si7 0.025784 0.383988 0.405501
O O1 0.726521 0.785790 0.857517
O O2 0.815857 0.785100 0.635617
O O3 0.216527 0.337678 0.557121
O O4 0.099124 0.344887 0.726903
O O5 0.162326 0.425264 0.640805
O O6 0.098749 0.362612 0.453788
O O7 0.434087 0.560282 0.846627
O O8 0.346483 0.488080 0.820695
O O9 0.463654 0.451068 0.914630
O O10 0.384295 0.515907 0.066690
O O11 0.657608 0.867183 0.956393
O O12 0.972669 0.640058 0.017912
O O13 0.250000 0.500000 0.631386
O O14 0.000000 0.371499 0.250000
#
# Coordination Sequence:
#
# PCOD9506041 Si02
#       7
#     8  16  16  16  16  16  16
#     4  10  24  42  74 102 132 154 202 280 352 414
#     4  10  23  39  61  92 131 168 216 261 324 388
#     4  10  21  35  53  85 127 177 222 260 307 365
#     4  11  22  44  71 104 126 161 210 269 344 405
#     4  11  22  39  64  90 131 175 218 263 317 388
#     4  10  19  33  53  84 126 171 214 268 310 364
#     4  11  24  38  60  91 133 181 224 267 300 366
#
# _framework density 22.836663000000001
#
# number of rings (size 3 to 8) (size 9 to 14) (size 15 to 20)
#    0.000    1.538    1.538    3.231    2.154    6.154 
#    0.000    0.000    0.000    5.538    0.000    0.000 
#    0.000    0.000    0.000    0.000    0.000    0.000 
#
# Total GULP energy -289950.316385 kJ/mol
# GULP energy per Si atom -5575.967623 kJ/mol
# Density = 2.278469 g / cm^3
# Si number density = 22.836663 Si / 1000 Ang^3
#
#
#
# Elastic Constant Matrix: (Units=GPa)
#
#
# Indices 1 2 3 4 5 6 
#
# 1 119.6192 13.8059 45.8826 0.0000 0.0000 0.0000
# 2 13.8059 37.7515 22.5628 0.0000 0.0000 0.0000
# 3 45.8826 22.5628 120.4972 0.0000 0.0000 0.0000
# 4 0.0000 0.0000 0.0000 22.4974 0.0000 0.0000
# 5 0.0000 0.0000 0.0000 0.0000 35.2013 0.0000
# 6 0.0000 0.0000 0.0000 0.0000 0.0000 8.6106
#
#
#
# Elastic Compliance Matrix: (Units=1/GPa)
#
#
# Indices 1 2 3 4 5 6 
#
# 1 0.009868 -0.001535 -0.003470 0.000000 0.000000 0.000000
# 2 -0.001535 0.030066 -0.005045 0.000000 0.000000 0.000000
# 3 -0.003470 -0.005045 0.010565 0.000000 0.000000 0.000000
# 4 0.000000 0.000000 0.000000 0.044450 0.000000 0.000000
# 5 0.000000 0.000000 0.000000 0.000000 0.028408 0.000000
# 6 0.000000 0.000000 0.000000 0.000000 0.000000 0.116136
#
#
# Mechanical properties :
#
#
# Convention : Reuss Voigt Hill
#
# Bulk Modulus (GPa) = 32.89659 49.15226 41.02443
# Shear Modulus (GPa) = 18.53733 26.30295 22.42014
#
# Velocity S-wave (km/s) = 2.85219 3.39748 3.13671
# Velocity P-wave (km/s) = 5.02823 6.07952 5.57870
#
# Compressibility (1/GPa) = 0.03039829
#
# Stress axis : x y z
#
# Youngs Moduli (GPa) = 101.33713 33.26048 94.65194
#
# Poissons Ratio (x) = 0.05105 0.32846
# Poissons Ratio (y) = 0.15553 0.47755
# Poissons Ratio (z) = 0.35165 0.16781
#
# Static dielectric constant tensor:
#      x y z
#    x 1.847140 0.000000 0.000000 
#    y 0.000000 1.925160 0.000000 
#    z 0.000000 0.000000 1.927430 
# 
# From -- ./inp_files/7378.got.cif
#   From: 2010.05.17/outbox.cif.g08.bks.cpg/sg68_4_cif.got.tgz:7378.got - 2010.06.03 18:57:09.
