data_PCOD9506611
_publ_section_title
;
Structure prediction by ZEFSAII (Michael W. Deem and Ramdas Pophale) SiO2 
 PCOD9506611
Probable space group: C C C A
;
_chemical_formula_sum "Si O2"
_cell_formula_units_Z 96
_cell_length_a 9.525729
_cell_length_b 17.334490
_cell_length_c 26.858661
_cell_angle_alpha 90.000000
_cell_angle_beta 90.000000
_cell_angle_gamma 90.000000
_cell_volume 4435.000248
_symmetry_space_group_name_H-M "C C C A"
_symmetry_group_IT_number 68
_space_group.IT_coordinate_system_code '2'
_symmetry_cell_setting 'orthorhombic'
loop_
_space_group_symop_operation_xyz
x,y,z
-x,1/2-y,z
x,1/2-y,1/2-z
-x,y,1/2-z
-x,-y,-z
x,1/2+y,-z
-x,1/2+y,1/2+z
x,-y,1/2+z
1/2+x,1/2+y,z
1/2-x,-y,z
1/2+x,-y,1/2-z
1/2-x,1/2+y,1/2-z
1/2-x,1/2-y,-z
1/2+x,y,-z
1/2-x,y,1/2+z
1/2+x,1/2-y,1/2+z
loop_
_atom_site_type_symbol
_atom_site_label
_atom_site_fract_x
_atom_site_fract_y
_atom_site_fract_z
Si Si1 0.735679 0.815345 0.924372
Si Si2 0.638506 0.300735 0.845878
Si Si3 0.486209 0.423466 0.904806
Si Si4 0.414850 0.672567 0.701261
Si Si5 0.773982 0.912269 0.519045
Si Si6 0.533031 0.403161 0.398699
O O1 0.786269 0.738745 0.895119
O O2 0.576573 0.836987 0.912635
O O3 0.841992 0.878189 0.901724
O O4 0.747798 0.839541 0.982547
O O5 0.500000 0.250000 0.835177
O O6 0.585302 0.384764 0.863028
O O7 0.750673 0.304050 0.801157
O O8 0.570786 0.409496 0.956732
O O9 0.463223 0.513436 0.900718
O O10 0.500000 0.750000 0.687643
O O11 0.500000 0.645707 0.750000
O O12 0.422229 0.611659 0.657352
O O13 0.660583 0.907265 0.562926
O O14 0.750000 0.000000 0.497373
#
# Coordination Sequence:
#
# PCOD9506611 Si02
#       6
#    16  16  16  16  16  16
#     4  11  21  35  59  91 131 177 223 255 310 395
#     4  10  22  41  64  93 131 169 208 269 337 381
#     4  10  21  37  59  87 134 169 210 269 325 375
#     4  11  23  44  70  93 120 161 218 270 325 392
#     4  10  20  34  57  92 131 178 222 265 322 380
#     4  11  21  38  66  90 126 178 216 270 325 377
#
# _framework density 21.645997000000001
#
# number of rings (size 3 to 8) (size 9 to 14) (size 15 to 20)
#    0.000    1.500    3.333    2.500    0.000    3.333 
#    0.000    4.167    7.333    0.000    0.000    0.000 
#    0.000    0.000    0.000    0.000    0.000    0.000 
#
# Total GULP energy -267769.705106 kJ/mol
# GULP energy per Si atom -5578.535523 kJ/mol
# Density = 2.159673 g / cm^3
# Si number density = 21.645997 Si / 1000 Ang^3
#
#
#
# Elastic Constant Matrix: (Units=GPa)
#
#
# Indices 1 2 3 4 5 6 
#
# 1 84.3253 9.0267 23.0862 0.0000 0.0000 0.0000
# 2 9.0267 52.2241 17.2566 0.0000 0.0000 0.0000
# 3 23.0862 17.2566 105.8686 0.0000 0.0000 0.0000
# 4 0.0000 0.0000 0.0000 34.9060 0.0000 0.0000
# 5 0.0000 0.0000 0.0000 0.0000 28.8558 0.0000
# 6 0.0000 0.0000 0.0000 0.0000 0.0000 26.0186
#
#
#
# Elastic Compliance Matrix: (Units=1/GPa)
#
#
# Indices 1 2 3 4 5 6 
#
# 1 0.012702 -0.001353 -0.002549 0.000000 0.000000 0.000000
# 2 -0.001353 0.020382 -0.003027 0.000000 0.000000 0.000000
# 3 -0.002549 -0.003027 0.010495 0.000000 0.000000 0.000000
# 4 0.000000 0.000000 0.000000 0.028648 0.000000 0.000000
# 5 0.000000 0.000000 0.000000 0.000000 0.034655 0.000000
# 6 0.000000 0.000000 0.000000 0.000000 0.000000 0.038434
#
#
# Mechanical properties :
#
#
# Convention : Reuss Voigt Hill
#
# Bulk Modulus (GPa) = 33.64747 37.90631 35.77689
# Shear Modulus (GPa) = 29.57140 30.82598 30.19869
#
# Velocity S-wave (km/s) = 3.70014 3.77781 3.73918
# Velocity P-wave (km/s) = 5.81660 6.04807 5.93346
#
# Compressibility (1/GPa) = 0.02971992
#
# Stress axis : x y z
#
# Youngs Moduli (GPa) = 78.73034 49.06188 95.28337
#
# Poissons Ratio (x) = 0.06638 0.24290
# Poissons Ratio (y) = 0.10653 0.28845
# Poissons Ratio (z) = 0.20070 0.14852
#
# Static dielectric constant tensor:
#      x y z
#    x 1.815120 0.000000 0.000000 
#    y 0.000000 1.808640 0.000000 
#    z 0.000000 0.000000 1.840700 
# 
# From -- ./inp_files/49303.got.cif
#   From: 2010.05.17/outbox.cif.g08.bks.cpg/sg68_25_cif.got.tgz:49303.got - 2010.06.03 18:57:09.
