data_PCOD9506752
_publ_section_title
;
Structure prediction by ZEFSAII (Michael W. Deem and Ramdas Pophale) SiO2 
 PCOD9506752
Probable space group: C C C A
;
_chemical_formula_sum "Si O2"
_cell_formula_units_Z 104
_cell_length_a 9.167731
_cell_length_b 26.812775
_cell_length_c 22.921943
_cell_angle_alpha 90.000000
_cell_angle_beta 90.000000
_cell_angle_gamma 90.000000
_cell_volume 5634.495726
_symmetry_space_group_name_H-M "C C C A"
_symmetry_group_IT_number 68
_space_group.IT_coordinate_system_code '2'
_symmetry_cell_setting 'orthorhombic'
loop_
_space_group_symop_operation_xyz
x,y,z
-x,1/2-y,z
x,1/2-y,1/2-z
-x,y,1/2-z
-x,-y,-z
x,1/2+y,-z
-x,1/2+y,1/2+z
x,-y,1/2+z
1/2+x,1/2+y,z
1/2-x,-y,z
1/2+x,-y,1/2-z
1/2-x,1/2+y,1/2-z
1/2-x,1/2-y,-z
1/2+x,y,-z
1/2-x,y,1/2+z
1/2+x,1/2-y,1/2+z
loop_
_atom_site_type_symbol
_atom_site_label
_atom_site_fract_x
_atom_site_fract_y
_atom_site_fract_z
Si Si1 0.520352 0.191765 0.679953
Si Si2 0.252005 0.627103 0.830599
Si Si3 0.661405 0.049505 0.050501
Si Si4 0.179476 0.949876 0.071966
Si Si5 0.000000 0.361693 0.750000
Si Si6 0.347623 0.953634 0.265044
Si Si7 0.262381 0.618832 0.653296
O O1 0.500000 0.250000 0.668127
O O2 0.500000 0.183958 0.750000
O O3 0.386593 0.160433 0.653364
O O4 0.677995 0.171211 0.659115
O O5 0.314797 0.597573 0.885707
O O6 0.371115 0.658889 0.792635
O O7 0.203326 0.582628 0.786790
O O8 0.488070 0.040327 0.053950
O O9 0.694014 0.097139 0.091287
O O10 0.750000 0.000000 0.070973
O O11 0.722440 0.058761 0.985602
O O12 0.250000 0.000000 0.100127
O O13 0.898365 0.386004 0.801206
O O14 0.500000 0.976644 0.250000
O O15 0.358159 0.918747 0.320985
O O16 0.250000 0.000000 0.277745
#
# Coordination Sequence:
#
# PCOD9506752 Si02
#       7
#    16  16  16  16   8  16  16
#     4  11  22  40  64  88 115 155 203 250 308 373
#     4  11  21  39  58  83 122 155 200 249 302 356
#     4  11  24  38  59  89 123 166 209 243 291 356
#     4  11  24  38  59  89 123 166 209 243 291 356
#     4  10  20  36  55  90 114 150 194 242 303 364
#     4  11  22  31  49  83 116 159 193 233 284 351
#     4  11  21  39  58  83 122 155 200 249 302 356
#
# _framework density 18.457730999999999
#
# number of rings (size 3 to 8) (size 9 to 14) (size 15 to 20)
#    0.000    1.077    6.154    2.769    8.615    2.462 
#    0.000    1.538    0.000    0.923    0.000    0.000 
#    0.000    0.000    0.000    0.000    0.000    0.000 
#
# Total GULP energy -289528.983845 kJ/mol
# GULP energy per Si atom -5567.865074 kJ/mol
# Density = 1.841572 g / cm^3
# Si number density = 18.457731 Si / 1000 Ang^3
#
#
#
# Elastic Constant Matrix: (Units=GPa)
#
#
# Indices 1 2 3 4 5 6 
#
# 1 106.7568 26.1413 23.6429 0.0000 0.0000 0.0000
# 2 26.1413 79.3101 21.4043 0.0000 0.0000 0.0000
# 3 23.6429 21.4043 50.1874 0.0000 0.0000 0.0000
# 4 0.0000 0.0000 0.0000 15.3261 0.0000 0.0000
# 5 0.0000 0.0000 0.0000 0.0000 20.8441 0.0000
# 6 0.0000 0.0000 0.0000 0.0000 0.0000 24.5473
#
#
#
# Elastic Compliance Matrix: (Units=1/GPa)
#
#
# Indices 1 2 3 4 5 6 
#
# 1 0.010876 -0.002489 -0.004062 0.000000 0.000000 0.000000
# 2 -0.002489 0.014818 -0.005147 0.000000 0.000000 0.000000
# 3 -0.004062 -0.005147 0.024034 0.000000 0.000000 0.000000
# 4 0.000000 0.000000 0.000000 0.065248 0.000000 0.000000
# 5 0.000000 0.000000 0.000000 0.000000 0.047975 0.000000
# 6 0.000000 0.000000 0.000000 0.000000 0.000000 0.040738
#
#
# Mechanical properties :
#
#
# Convention : Reuss Voigt Hill
#
# Bulk Modulus (GPa) = 37.97650 42.07015 40.02333
# Shear Modulus (GPa) = 21.19869 23.14787 22.17328
#
# Velocity S-wave (km/s) = 3.39263 3.54517 3.46974
# Velocity P-wave (km/s) = 5.99717 6.29284 6.14678
#
# Compressibility (1/GPa) = 0.02633207
#
# Stress axis : x y z
#
# Youngs Moduli (GPa) = 91.94465 67.48466 41.60708
#
# Poissons Ratio (x) = 0.16794 0.16902
# Poissons Ratio (y) = 0.22881 0.21417
# Poissons Ratio (z) = 0.37351 0.34737
#
# Static dielectric constant tensor:
#      x y z
#    x 1.706510 0.000000 0.000000 
#    y 0.000000 1.628670 0.000000 
#    z 0.000000 0.000000 1.661130 
# 
# From -- ./inp_files/43454.got.cif
#   From: 2010.05.17/outbox.cif.g08.bks.cpg/sg68_22_cif.got.tgz:43454.got - 2010.06.03 18:57:09.
