data_PCOD9506170
_publ_section_title
;
Structure prediction by ZEFSAII (Michael W. Deem and Ramdas Pophale) SiO2 
 PCOD9506170
Probable space group: C C C A
;
_chemical_formula_sum "Si O2"
_cell_formula_units_Z 88
_cell_length_a 10.501501
_cell_length_b 12.140334
_cell_length_c 33.212022
_cell_angle_alpha 90.000000
_cell_angle_beta 90.000000
_cell_angle_gamma 90.000000
_cell_volume 4234.258130
_symmetry_space_group_name_H-M "C C C A"
_symmetry_group_IT_number 68
_space_group.IT_coordinate_system_code '2'
_symmetry_cell_setting 'orthorhombic'
loop_
_space_group_symop_operation_xyz
x,y,z
-x,1/2-y,z
x,1/2-y,1/2-z
-x,y,1/2-z
-x,-y,-z
x,1/2+y,-z
-x,1/2+y,1/2+z
x,-y,1/2+z
1/2+x,1/2+y,z
1/2-x,-y,z
1/2+x,-y,1/2-z
1/2-x,1/2+y,1/2-z
1/2-x,1/2-y,-z
1/2+x,y,-z
1/2-x,y,1/2+z
1/2+x,1/2-y,1/2+z
loop_
_atom_site_type_symbol
_atom_site_label
_atom_site_fract_x
_atom_site_fract_y
_atom_site_fract_z
Si Si1 0.110707 0.333279 0.932705
Si Si2 0.303348 0.624117 0.366803
Si Si3 0.250000 0.000000 0.837024
Si Si4 0.376569 0.071416 0.986751
Si Si5 0.456165 0.038603 0.900814
Si Si6 0.152556 0.776902 0.795659
O O1 0.233870 0.322352 0.905245
O O2 0.000000 0.250000 0.922067
O O3 0.052893 0.451444 0.920577
O O4 0.132543 0.331345 0.980626
O O5 0.250000 0.500000 0.360966
O O6 0.452871 0.619229 0.376404
O O7 0.281873 0.694865 0.327282
O O8 0.364291 0.978452 0.869075
O O9 0.302068 0.101421 0.810080
O O10 0.387659 0.094143 0.939146
O O11 0.250000 0.000000 0.992616
O O12 0.500000 0.000000 0.000000
O O13 0.191822 0.750000 0.750000
O O14 0.000000 0.750000 0.797158
#
# Coordination Sequence:
#
# PCOD9506170 Si02
#       6
#    16  16   8  16  16  16
#     4  10  20  36  57  87 127 173 225 277 334 399
#     4  10  21  42  68  92 133 177 222 284 346 408
#     4  12  22  42  70  96 136 174 220 270 350 412
#     4  10  19  35  55  83 123 172 223 279 336 394
#     4  10  20  37  62  89 123 176 222 273 334 410
#     4  11  25  44  69 102 135 173 224 282 351 423
#
# _framework density 20.782862999999999
#
# number of rings (size 3 to 8) (size 9 to 14) (size 15 to 20)
#    0.000    1.636    2.727    3.818    1.273    0.000 
#    3.273    4.545    0.000    7.091    0.000    0.000 
#    0.000    0.000    0.000    0.000    0.000    0.000 
#
# Total GULP energy -245444.983335 kJ/mol
# GULP energy per Si atom -5578.295076 kJ/mol
# Density = 2.073556 g / cm^3
# Si number density = 20.782863 Si / 1000 Ang^3
#
#
#
# Elastic Constant Matrix: (Units=GPa)
#
#
# Indices 1 2 3 4 5 6 
#
# 1 102.1468 22.6642 33.8283 0.0000 0.0000 0.0000
# 2 22.6642 78.9756 53.8070 0.0000 0.0000 0.0000
# 3 33.8283 53.8070 160.0878 0.0000 0.0000 0.0000
# 4 0.0000 0.0000 0.0000 21.3385 0.0000 0.0000
# 5 0.0000 0.0000 0.0000 0.0000 38.5483 0.0000
# 6 0.0000 0.0000 0.0000 0.0000 0.0000 28.2650
#
#
#
# Elastic Compliance Matrix: (Units=1/GPa)
#
#
# Indices 1 2 3 4 5 6 
#
# 1 0.010764 -0.001997 -0.001603 0.000000 0.000000 0.000000
# 2 -0.001997 0.016793 -0.005222 0.000000 0.000000 0.000000
# 3 -0.001603 -0.005222 0.008341 0.000000 0.000000 0.000000
# 4 0.000000 0.000000 0.000000 0.046864 0.000000 0.000000
# 5 0.000000 0.000000 0.000000 0.000000 0.025941 0.000000
# 6 0.000000 0.000000 0.000000 0.000000 0.000000 0.035379
#
#
# Mechanical properties :
#
#
# Convention : Reuss Voigt Hill
#
# Bulk Modulus (GPa) = 54.78589 62.42325 58.60457
# Shear Modulus (GPa) = 29.79531 33.02440 31.40985
#
# Velocity S-wave (km/s) = 3.79046 3.99058 3.89181
# Velocity P-wave (km/s) = 6.75093 7.16478 6.96093
#
# Compressibility (1/GPa) = 0.01825287
#
# Stress axis : x y z
#
# Youngs Moduli (GPa) = 92.90358 59.54781 119.89366
#
# Poissons Ratio (x) = 0.11889 0.19225
# Poissons Ratio (y) = 0.18548 0.62614
# Poissons Ratio (z) = 0.14897 0.31099
#
# Static dielectric constant tensor:
#      x y z
#    x 1.758680 0.000000 0.000000 
#    y 0.000000 1.827730 0.000000 
#    z 0.000000 0.000000 1.758470 
# 
# From -- ./inp_files/54643.got.cif
#   From: 2010.05.17/outbox.cif.g08.bks.cpg/sg68_28_cif.got.tgz:54643.got - 2010.06.03 18:57:09.
