data_PCOD9506524
_publ_section_title
;
Structure prediction by ZEFSAII (Michael W. Deem and Ramdas Pophale) SiO2 
 PCOD9506524
Probable space group: C C C A
;
_chemical_formula_sum "Si O2"
_cell_formula_units_Z 52
_cell_length_a 14.669146
_cell_length_b 5.456457
_cell_length_c 29.265504
_cell_angle_alpha 90.000000
_cell_angle_beta 90.000000
_cell_angle_gamma 90.000000
_cell_volume 2342.456722
_symmetry_space_group_name_H-M "C C C A"
_symmetry_group_IT_number 68
_space_group.IT_coordinate_system_code '2'
_symmetry_cell_setting 'orthorhombic'
loop_
_space_group_symop_operation_xyz
x,y,z
-x,1/2-y,z
x,1/2-y,1/2-z
-x,y,1/2-z
-x,-y,-z
x,1/2+y,-z
-x,1/2+y,1/2+z
x,-y,1/2+z
1/2+x,1/2+y,z
1/2-x,-y,z
1/2+x,-y,1/2-z
1/2-x,1/2+y,1/2-z
1/2-x,1/2-y,-z
1/2+x,y,-z
1/2-x,y,1/2+z
1/2+x,1/2-y,1/2+z
loop_
_atom_site_type_symbol
_atom_site_label
_atom_site_fract_x
_atom_site_fract_y
_atom_site_fract_z
Si Si1 0.359042 0.013906 0.522420
Si Si2 0.403770 0.019277 0.333596
Si Si3 0.000000 0.750000 0.250000
Si Si4 0.891864 0.480343 0.129319
O O1 0.394248 0.751224 0.504870
O O2 0.250000 0.000000 0.515346
O O3 0.375514 0.051094 0.575975
O O4 0.436695 0.083657 0.282507
O O5 0.354112 0.258345 0.353512
O O6 0.359467 0.756403 0.342162
O O7 0.499805 0.999745 0.360973
#
# Coordination Sequence:
#
# PCOD9506524 Si02
#       4
#    16  16   4  16
#     4  10  20  33  49  66  89 125 165 196 222 265
#     4   9  18  29  48  70  95 120 145 185 231 278
#     4   8  16  30  48  74  96 118 152 178 224 288
#     4   9  17  31  44  68  96 117 152 189 228 271
#
# _framework density 22.198913999999998
#
# number of rings (size 3 to 8) (size 9 to 14) (size 15 to 20)
#    0.000    3.077    0.000    1.846    0.000    9.846 
#    0.000   18.462    0.000    0.000    0.000   34.462 
#    0.000    0.000    0.000    0.000    0.000    0.000 
#
# Total GULP energy -145030.690852 kJ/mol
# GULP energy per Si atom -5578.103494 kJ/mol
# Density = 2.214839 g / cm^3
# Si number density = 22.198914 Si / 1000 Ang^3
#
#
#
# Elastic Constant Matrix: (Units=GPa)
#
#
# Indices 1 2 3 4 5 6 
#
# 1 66.7066 13.5472 -11.1814 0.0000 0.0000 0.0000
# 2 13.5472 245.4520 93.4927 0.0000 0.0000 0.0000
# 3 -11.1814 93.4927 133.4092 0.0000 0.0000 0.0000
# 4 0.0000 0.0000 0.0000 128.2998 0.0000 0.0000
# 5 0.0000 0.0000 0.0000 0.0000 -196.8426 0.0000
# 6 0.0000 0.0000 0.0000 0.0000 0.0000 -16.0584
#
#
#
# Elastic Compliance Matrix: (Units=1/GPa)
#
#
# Indices 1 2 3 4 5 6 
#
# 1 0.015816 -0.001880 0.002643 0.000000 0.000000 0.000000
# 2 -0.001880 0.005781 -0.004209 0.000000 0.000000 0.000000
# 3 0.002643 -0.004209 0.010667 0.000000 0.000000 0.000000
# 4 0.000000 0.000000 0.000000 0.007794 0.000000 0.000000
# 5 0.000000 0.000000 0.000000 0.000000 -0.005080 0.000000
# 6 0.000000 0.000000 0.000000 0.000000 0.000000 -0.062273
#
#
# Mechanical properties :
#
#
# Convention : Reuss Voigt Hill
#
# Bulk Modulus (GPa) = 39.41322 70.80943 55.11132
# Shear Modulus (GPa) = -418.53838 6.39370 -206.07234
#
# Velocity S-wave (km/s) = -13.74588 1.69895 -9.64528
# Velocity P-wave (km/s) = 15.30161 5.98461 9.95801
#
# Compressibility (1/GPa) = 0.02537220
#
# Stress axis : x y z
#
# Youngs Moduli (GPa) = 63.22829 172.98041 93.74908
#
# Poissons Ratio (x) = 0.32512 -0.24775
# Poissons Ratio (y) = 0.11884 0.39457
# Poissons Ratio (z) = -0.16710 0.72805
#
# Static dielectric constant tensor:
#      x y z
#    x 1.731760 0.000000 0.000000 
#    y 0.000000 1.923440 0.000000 
#    z 0.000000 0.000000 1.745270 
# 
# From -- ./inp_files/41969.got.cif
#   From: 2010.05.17/outbox.cif.g08.bks.cpg/sg68_21_cif.got.tgz:41969.got - 2010.06.03 18:57:09.
