data_PCOD9506573
_publ_section_title
;
Structure prediction by ZEFSAII (Michael W. Deem and Ramdas Pophale) SiO2 
 PCOD9506573
Probable space group: C C C A
;
_chemical_formula_sum "Si O2"
_cell_formula_units_Z 104
_cell_length_a 17.919528
_cell_length_b 11.690360
_cell_length_c 22.757400
_cell_angle_alpha 90.000000
_cell_angle_beta 90.000000
_cell_angle_gamma 90.000000
_cell_volume 4767.350628
_symmetry_space_group_name_H-M "C C C A"
_symmetry_group_IT_number 68
_space_group.IT_coordinate_system_code '2'
_symmetry_cell_setting 'orthorhombic'
loop_
_space_group_symop_operation_xyz
x,y,z
-x,1/2-y,z
x,1/2-y,1/2-z
-x,y,1/2-z
-x,-y,-z
x,1/2+y,-z
-x,1/2+y,1/2+z
x,-y,1/2+z
1/2+x,1/2+y,z
1/2-x,-y,z
1/2+x,-y,1/2-z
1/2-x,1/2+y,1/2-z
1/2-x,1/2-y,-z
1/2+x,y,-z
1/2-x,y,1/2+z
1/2+x,1/2-y,1/2+z
loop_
_atom_site_type_symbol
_atom_site_label
_atom_site_fract_x
_atom_site_fract_y
_atom_site_fract_z
Si Si1 0.899792 0.554473 0.057101
Si Si2 0.337702 0.635505 0.068293
Si Si3 0.572064 0.178098 0.972415
Si Si4 0.581240 0.793348 0.830653
Si Si5 0.779545 0.123943 0.771917
Si Si6 0.750000 0.500000 0.617522
Si Si7 0.337471 0.119218 0.409448
O O1 0.953371 0.447137 0.048529
O O2 0.928455 0.633272 0.109439
O O3 0.822962 0.499319 0.079729
O O4 0.869512 0.611888 0.997690
O O5 0.382310 0.752825 0.077792
O O6 0.350981 0.515604 0.101094
O O7 0.248679 0.647479 0.074932
O O8 0.500000 0.250000 0.988368
O O9 0.618949 0.152726 0.031188
O O10 0.500000 0.750000 0.812991
O O11 0.630492 0.864309 0.783180
O O12 0.633145 0.689425 0.853874
O O13 0.754834 0.250000 0.750000
O O14 0.750000 0.000000 0.744749
O O15 0.751018 0.107163 0.838622
#
# Coordination Sequence:
#
# PCOD9506573 Si02
#       7
#    16  16  16  16  16   8  16
#     4  10  20  34  54  76 115 159 205 243 288 347
#     4  10  21  33  49  76 115 161 214 254 286 325
#     4  11  22  30  49  72 112 164 204 251 289 331
#     4  11  23  37  62  89 123 159 195 244 299 370
#     4   9  21  42  68  98 119 146 192 247 315 384
#     4   8  18  36  62  88 108 146 186 240 304 356
#     4  10  21  34  50  77 113 156 214 248 289 339
#
# _framework density 21.815049999999999
#
# number of rings (size 3 to 8) (size 9 to 14) (size 15 to 20)
#    0.462    1.538    1.538    2.769    6.462    1.538 
#    2.769    0.000    0.000    0.000    0.000    1.077 
#    0.000    0.000    0.000    0.000    0.000    0.000 
#
# Total GULP energy -289797.863399 kJ/mol
# GULP energy per Si atom -5573.035835 kJ/mol
# Density = 2.176540 g / cm^3
# Si number density = 21.815050 Si / 1000 Ang^3
#
#
#
# Elastic Constant Matrix: (Units=GPa)
#
#
# Indices 1 2 3 4 5 6 
#
# 1 120.7539 50.4660 18.3114 0.0000 0.0000 0.0000
# 2 50.4660 150.1430 36.3647 0.0000 0.0000 0.0000
# 3 18.3114 36.3647 49.8308 0.0000 0.0000 0.0000
# 4 0.0000 0.0000 0.0000 21.4282 0.0000 0.0000
# 5 0.0000 0.0000 0.0000 0.0000 -1.4610 0.0000
# 6 0.0000 0.0000 0.0000 0.0000 0.0000 43.3694
#
#
#
# Elastic Compliance Matrix: (Units=1/GPa)
#
#
# Indices 1 2 3 4 5 6 
#
# 1 0.009719 -0.002917 -0.001443 0.000000 0.000000 0.000000
# 2 -0.002917 0.008966 -0.005471 0.000000 0.000000 0.000000
# 3 -0.001443 -0.005471 0.024591 0.000000 0.000000 0.000000
# 4 0.000000 0.000000 0.000000 0.046667 0.000000 0.000000
# 5 0.000000 0.000000 0.000000 0.000000 -0.684443 0.000000
# 6 0.000000 0.000000 0.000000 0.000000 0.000000 0.023058
#
#
# Mechanical properties :
#
#
# Convention : Reuss Voigt Hill
#
# Bulk Modulus (GPa) = 42.34786 59.00131 50.67458
# Shear Modulus (GPa) = -9.19272 27.03969 8.92348
#
# Velocity S-wave (km/s) = -2.05501 3.52447 2.02470
# Velocity P-wave (km/s) = 3.71801 6.60813 5.36148
#
# Compressibility (1/GPa) = 0.02361394
#
# Stress axis : x y z
#
# Youngs Moduli (GPa) = 102.88764 111.53226 40.66605
#
# Poissons Ratio (x) = 0.32539 0.05866
# Poissons Ratio (y) = 0.30017 0.22248
# Poissons Ratio (z) = 0.14842 0.61019
#
# Static dielectric constant tensor:
#      x y z
#    x 1.836640 0.000000 0.000000 
#    y 0.000000 2.049740 0.000000 
#    z 0.000000 0.000000 1.800190 
# 
# From -- ./inp_files/55645.got.cif
#   From: 2010.05.17/outbox.cif.g08.bks.cpg/sg68_28_cif.got.tgz:55645.got - 2010.06.03 18:57:09.
