data_PCOD9506350
_publ_section_title
;
Structure prediction by ZEFSAII (Michael W. Deem and Ramdas Pophale) SiO2 
 PCOD9506350
Probable space group: C C C A
;
_chemical_formula_sum "Si O2"
_cell_formula_units_Z 112
_cell_length_a 31.570028
_cell_length_b 15.785538
_cell_length_c 11.421918
_cell_angle_alpha 90.000000
_cell_angle_beta 90.000000
_cell_angle_gamma 90.000000
_cell_volume 5692.111426
_symmetry_space_group_name_H-M "C C C A"
_symmetry_group_IT_number 68
_space_group.IT_coordinate_system_code '2'
_symmetry_cell_setting 'orthorhombic'
loop_
_space_group_symop_operation_xyz
x,y,z
-x,1/2-y,z
x,1/2-y,1/2-z
-x,y,1/2-z
-x,-y,-z
x,1/2+y,-z
-x,1/2+y,1/2+z
x,-y,1/2+z
1/2+x,1/2+y,z
1/2-x,-y,z
1/2+x,-y,1/2-z
1/2-x,1/2+y,1/2-z
1/2-x,1/2-y,-z
1/2+x,y,-z
1/2-x,y,1/2+z
1/2+x,1/2-y,1/2+z
loop_
_atom_site_type_symbol
_atom_site_label
_atom_site_fract_x
_atom_site_fract_y
_atom_site_fract_z
Si Si1 0.180204 0.925060 0.447383
Si Si2 0.001378 0.436140 0.610052
Si Si3 0.914159 0.663216 0.092242
Si Si4 0.195914 0.717122 0.869865
Si Si5 0.407581 0.854686 0.869083
Si Si6 0.286870 0.661459 0.768220
Si Si7 0.672478 0.612336 0.506103
O O1 0.181441 0.867881 0.564694
O O2 0.132450 0.909583 0.405107
O O3 0.213340 0.883068 0.356699
O O4 0.187543 0.025075 0.449985
O O5 0.961834 0.372641 0.585873
O O6 0.000000 0.465000 0.750000
O O7 0.000000 0.500000 0.500000
O O8 0.047018 0.393114 0.602490
O O9 0.907771 0.762773 0.070429
O O10 0.904204 0.653188 0.229459
O O11 0.878566 0.617640 0.013700
O O12 0.174008 0.750000 0.750000
O O13 0.242919 0.689213 0.827772
O O14 0.191433 0.799867 0.953390
O O15 0.311454 0.750000 0.750000
O O16 0.311368 0.605995 0.860976
#
# Coordination Sequence:
#
# PCOD9506350 Si02
#       7
#    16  16  16  16  16  16  16
#     4  12  25  43  69  99 132 176 225 284 339 410
#     4  10  21  37  62 101 135 174 225 284 337 409
#     4  10  19  37  67  96 131 175 223 276 334 404
#     4  11  27  45  64  93 135 172 218 285 341 407
#     4  10  19  38  67  96 132 173 225 274 335 409
#     4  11  23  47  67  87 128 176 220 273 345 397
#     4  12  24  42  68 100 128 175 227 276 341 406
#
# _framework density 19.676354
#
# number of rings (size 3 to 8) (size 9 to 14) (size 15 to 20)
#    0.000    1.143    4.286    1.714    4.000    2.286 
#    2.571    1.429    0.000    0.857    0.000    0.000 
#    0.000    0.000    0.000    0.000    0.000    0.000 
#
# Total GULP energy -312046.854657 kJ/mol
# GULP energy per Si atom -5572.265262 kJ/mol
# Density = 1.963157 g / cm^3
# Si number density = 19.676354 Si / 1000 Ang^3
#
#
#
# Elastic Constant Matrix: (Units=GPa)
#
#
# Indices 1 2 3 4 5 6 
#
# 1 105.4472 27.2451 14.1627 0.0000 0.0000 0.0000
# 2 27.2451 99.2686 18.5898 0.0000 0.0000 0.0000
# 3 14.1627 18.5898 56.3765 0.0000 0.0000 0.0000
# 4 0.0000 0.0000 0.0000 34.8625 0.0000 0.0000
# 5 0.0000 0.0000 0.0000 0.0000 34.3539 0.0000
# 6 0.0000 0.0000 0.0000 0.0000 0.0000 19.2521
#
#
#
# Elastic Compliance Matrix: (Units=1/GPa)
#
#
# Indices 1 2 3 4 5 6 
#
# 1 0.010372 -0.002514 -0.001777 0.000000 0.000000 0.000000
# 2 -0.002514 0.011346 -0.003110 0.000000 0.000000 0.000000
# 3 -0.001777 -0.003110 0.019210 0.000000 0.000000 0.000000
# 4 0.000000 0.000000 0.000000 0.028684 0.000000 0.000000
# 5 0.000000 0.000000 0.000000 0.000000 0.029109 0.000000
# 6 0.000000 0.000000 0.000000 0.000000 0.000000 0.051943
#
#
# Mechanical properties :
#
#
# Convention : Reuss Voigt Hill
#
# Bulk Modulus (GPa) = 38.27491 42.34306 40.30899
# Shear Modulus (GPa) = 28.70729 31.10002 29.90366
#
# Velocity S-wave (km/s) = 3.82380 3.97996 3.90266
# Velocity P-wave (km/s) = 6.24417 6.53350 6.39047
#
# Compressibility (1/GPa) = 0.02612678
#
# Stress axis : x y z
#
# Youngs Moduli (GPa) = 96.41757 88.13697 52.05732
#
# Poissons Ratio (x) = 0.22156 0.09248
# Poissons Ratio (y) = 0.24238 0.16188
# Poissons Ratio (z) = 0.17129 0.27408
#
# Static dielectric constant tensor:
#      x y z
#    x 1.738940 0.000000 0.000000 
#    y 0.000000 1.717990 0.000000 
#    z 0.000000 0.000000 1.722600 
# 
# From -- ./inp_files/17786.got.cif
#   From: 2010.05.17/outbox.cif.g08.bks.cpg/sg68_9_cif.got.tgz:17786.got - 2010.06.03 18:57:09.
