data_PCOD9506720
_publ_section_title
;
Structure prediction by ZEFSAII (Michael W. Deem and Ramdas Pophale) SiO2 
 PCOD9506720
Probable space group: C C C A
;
_chemical_formula_sum "Si O2"
_cell_formula_units_Z 116
_cell_length_a 28.617312
_cell_length_b 24.620719
_cell_length_c 8.470884
_cell_angle_alpha 90.000000
_cell_angle_beta 90.000000
_cell_angle_gamma 90.000000
_cell_volume 5968.405261
_symmetry_space_group_name_H-M "C C C A"
_symmetry_group_IT_number 68
_space_group.IT_coordinate_system_code '2'
_symmetry_cell_setting 'orthorhombic'
loop_
_space_group_symop_operation_xyz
x,y,z
-x,1/2-y,z
x,1/2-y,1/2-z
-x,y,1/2-z
-x,-y,-z
x,1/2+y,-z
-x,1/2+y,1/2+z
x,-y,1/2+z
1/2+x,1/2+y,z
1/2-x,-y,z
1/2+x,-y,1/2-z
1/2-x,1/2+y,1/2-z
1/2-x,1/2-y,-z
1/2+x,y,-z
1/2-x,y,1/2+z
1/2+x,1/2-y,1/2+z
loop_
_atom_site_type_symbol
_atom_site_label
_atom_site_fract_x
_atom_site_fract_y
_atom_site_fract_z
Si Si1 0.463728 0.506641 0.138747
Si Si2 0.421107 0.324738 0.897477
Si Si3 0.732648 0.328199 0.264126
Si Si4 0.092832 0.892566 0.920279
Si Si5 0.683098 0.224333 0.948460
Si Si6 0.500000 0.750000 0.250000
Si Si7 0.054017 0.382577 0.730834
Si Si8 0.309603 0.145573 0.967156
O O1 0.500000 0.538429 0.250000
O O2 0.422759 0.545641 0.091503
O O3 0.447422 0.448234 0.202673
O O4 0.500000 0.500000 0.000000
O O5 0.424303 0.361072 0.737119
O O6 0.368255 0.298738 0.904888
O O7 0.463882 0.283044 0.864011
O O8 0.427351 0.355043 0.067871
O O9 0.700591 0.291722 0.377183
O O10 0.773123 0.298665 0.156843
O O11 0.699062 0.360627 0.150582
O O12 0.762432 0.366660 0.376063
O O13 0.077520 0.871474 0.096332
O O14 0.147830 0.887938 0.908410
O O15 0.680941 0.289594 0.943165
O O16 0.000000 0.365815 0.750000
#
# Coordination Sequence:
#
# PCOD9506720 Si02
#       8
#    16  16  16  16  16   4  16  16
#     4  11  21  41  67  92 121 156 210 283 331 373
#     4  12  26  43  63  94 135 186 213 266 321 406
#     4  10  20  35  61  89 129 172 213 273 315 378
#     4  12  24  39  65  97 126 160 215 271 332 386
#     4  11  20  37  59  92 131 169 222 257 326 379
#     4  12  28  44  62  84 144 186 220 248 322 388
#     4  11  24  42  64  91 124 164 220 269 325 379
#     4  11  20  35  58  91 127 168 210 263 315 387
#
# _framework density 19.435677999999999
#
# number of rings (size 3 to 8) (size 9 to 14) (size 15 to 20)
#    0.000    0.828    4.138    6.621    0.966    0.000 
#    0.000    5.862    0.000    0.000    0.000   16.414 
#    0.000    0.000    0.000    0.000    0.000    0.000 
#
# Total GULP energy -322932.600127 kJ/mol
# GULP energy per Si atom -5567.803450 kJ/mol
# Density = 1.939144 g / cm^3
# Si number density = 19.435678 Si / 1000 Ang^3
#
#
#
# Elastic Constant Matrix: (Units=GPa)
#
#
# Indices 1 2 3 4 5 6 
#
# 1 97.6215 38.7526 25.3050 0.0000 0.0000 0.0000
# 2 38.7526 45.4119 25.7808 0.0000 0.0000 0.0000
# 3 25.3050 25.7808 136.9671 0.0000 0.0000 0.0000
# 4 0.0000 0.0000 0.0000 21.6540 0.0000 0.0000
# 5 0.0000 0.0000 0.0000 0.0000 34.0018 0.0000
# 6 0.0000 0.0000 0.0000 0.0000 0.0000 32.3025
#
#
#
# Elastic Compliance Matrix: (Units=1/GPa)
#
#
# Indices 1 2 3 4 5 6 
#
# 1 0.015513 -0.013000 -0.000419 0.000000 0.000000 0.000000
# 2 -0.013000 0.035550 -0.004290 0.000000 0.000000 0.000000
# 3 -0.000419 -0.004290 0.008186 0.000000 0.000000 0.000000
# 4 0.000000 0.000000 0.000000 0.046181 0.000000 0.000000
# 5 0.000000 0.000000 0.000000 0.000000 0.029410 0.000000
# 6 0.000000 0.000000 0.000000 0.000000 0.000000 0.030957
#
#
# Mechanical properties :
#
#
# Convention : Reuss Voigt Hill
#
# Bulk Modulus (GPa) = 41.96246 51.07529 46.51888
# Shear Modulus (GPa) = 23.90537 30.26913 27.08725
#
# Velocity S-wave (km/s) = 3.51090 3.95067 3.73726
# Velocity P-wave (km/s) = 6.17030 6.86634 6.52760
#
# Compressibility (1/GPa) = 0.02383082
#
# Stress axis : x y z
#
# Youngs Moduli (GPa) = 64.46238 28.12966 122.16191
#
# Poissons Ratio (x) = 0.36569 0.05120
# Poissons Ratio (y) = 0.83802 0.52402
# Poissons Ratio (z) = 0.02702 0.12066
#
# Static dielectric constant tensor:
#      x y z
#    x 1.684620 0.000000 0.000000 
#    y 0.000000 1.683990 0.000000 
#    z 0.000000 0.000000 1.729730 
# 
# From -- ./inp_files/9175.got.cif
#   From: 2010.05.17/outbox.cif.g08.bks.cpg/sg68_5_cif.got.tgz:9175.got - 2010.06.03 18:57:09.
