data_PCOD9506485
_publ_section_title
;
Structure prediction by ZEFSAII (Michael W. Deem and Ramdas Pophale) SiO2 
 PCOD9506485
Probable space group: C C C A
;
_chemical_formula_sum "Si O2"
_cell_formula_units_Z 68
_cell_length_a 5.350645
_cell_length_b 14.014146
_cell_length_c 37.191104
_cell_angle_alpha 90.000000
_cell_angle_beta 90.000000
_cell_angle_gamma 90.000000
_cell_volume 2788.764528
_symmetry_space_group_name_H-M "C C C A"
_symmetry_group_IT_number 68
_space_group.IT_coordinate_system_code '2'
_symmetry_cell_setting 'orthorhombic'
loop_
_space_group_symop_operation_xyz
x,y,z
-x,1/2-y,z
x,1/2-y,1/2-z
-x,y,1/2-z
-x,-y,-z
x,1/2+y,-z
-x,1/2+y,1/2+z
x,-y,1/2+z
1/2+x,1/2+y,z
1/2-x,-y,z
1/2+x,-y,1/2-z
1/2-x,1/2+y,1/2-z
1/2-x,1/2-y,-z
1/2+x,y,-z
1/2-x,y,1/2+z
1/2+x,1/2-y,1/2+z
loop_
_atom_site_type_symbol
_atom_site_label
_atom_site_fract_x
_atom_site_fract_y
_atom_site_fract_z
Si Si1 0.000000 0.250000 0.250000
Si Si2 0.501057 0.865003 0.406961
Si Si3 0.498744 0.133550 0.135306
Si Si4 0.604736 0.140989 0.286198
Si Si5 0.160671 0.605340 0.987220
O O1 0.112782 0.328317 0.278188
O O2 0.500000 0.750000 0.408993
O O3 0.245099 0.893447 0.387079
O O4 0.546588 0.898931 0.447443
O O5 0.744579 0.893234 0.384598
O O6 0.500000 0.250000 0.137247
O O7 0.475355 0.097100 0.176272
O O8 0.500000 0.250000 0.285991
O O9 0.500000 0.093031 0.250000
O O10 0.250000 0.500000 0.999338
O O11 0.439306 0.650273 0.988777
#
# Coordination Sequence:
#
# PCOD9506485 Si02
#       5
#     4  16  16  16  16
#     4   8  14  20  36  54  84 128 182 200 226 280
#     4  10  20  32  48  73  99 129 160 198 250 299
#     4   9  18  28  43  64 100 132 163 200 242 290
#     4   8  15  22  35  57  86 131 172 198 231 280
#     4  10  21  37  56  74  95 124 160 203 248 297
#
# _framework density 24.383555999999999
#
# number of rings (size 3 to 8) (size 9 to 14) (size 15 to 20)
#    0.000    3.059    0.000    1.412   11.529    0.941 
#    0.000    0.000    0.000    0.000    0.000    0.000 
#    0.000    3.765    0.000    0.000    0.000    0.000 
#
# Total GULP energy -189396.849750 kJ/mol
# GULP energy per Si atom -5570.495581 kJ/mol
# Density = 2.432806 g / cm^3
# Si number density = 24.383556 Si / 1000 Ang^3
#
#
#
# Elastic Constant Matrix: (Units=GPa)
#
#
# Indices 1 2 3 4 5 6 
#
# 1 204.0457 11.8877 107.6326 0.0000 0.0000 0.0000
# 2 11.8877 78.8955 12.9523 0.0000 0.0000 0.0000
# 3 107.6326 12.9523 226.7451 0.0000 0.0000 0.0000
# 4 0.0000 0.0000 0.0000 8.3114 0.0000 0.0000
# 5 0.0000 0.0000 0.0000 0.0000 67.8601 0.0000
# 6 0.0000 0.0000 0.0000 0.0000 0.0000 -27.7536
#
#
#
# Elastic Compliance Matrix: (Units=1/GPa)
#
#
# Indices 1 2 3 4 5 6 
#
# 1 0.006556 -0.000481 -0.003085 0.000000 0.000000 0.000000
# 2 -0.000481 0.012830 -0.000504 0.000000 0.000000 0.000000
# 3 -0.003085 -0.000504 0.005903 0.000000 0.000000 0.000000
# 4 0.000000 0.000000 0.000000 0.120317 0.000000 0.000000
# 5 0.000000 0.000000 0.000000 0.000000 0.014736 0.000000
# 6 0.000000 0.000000 0.000000 0.000000 0.000000 -0.036031
#
#
# Mechanical properties :
#
#
# Convention : Reuss Voigt Hill
#
# Bulk Modulus (GPa) = 58.31290 86.07016 72.19153
# Shear Modulus (GPa) = 36.18773 34.83117 35.50945
#
# Velocity S-wave (km/s) = 3.85659 3.78361 3.82027
# Velocity P-wave (km/s) = 6.61799 7.37988 7.00930
#
# Compressibility (1/GPa) = 0.01714886
#
# Stress axis : x y z
#
# Youngs Moduli (GPa) = 152.53262 77.94030 169.39885
#
# Poissons Ratio (x) = 0.03752 0.52251
# Poissons Ratio (y) = 0.07344 0.08544
# Poissons Ratio (z) = 0.47049 0.03931
#
# Static dielectric constant tensor:
#      x y z
#    x 1.259990 0.000000 0.000000 
#    y 0.000000 2.005330 0.000000 
#    z 0.000000 0.000000 1.976530 
# 
# From -- ./inp_files/53053.got.cif
#   From: 2010.05.17/outbox.cif.g08.bks.cpg/sg68_27_cif.got.tgz:53053.got - 2010.06.03 18:57:09.
