data_PCOD9506486
_publ_section_title
;
Structure prediction by ZEFSAII (Michael W. Deem and Ramdas Pophale) SiO2 
 PCOD9506486
Probable space group: C C C A
;
_chemical_formula_sum "Si O2"
_cell_formula_units_Z 68
_cell_length_a 37.467714
_cell_length_b 13.894949
_cell_length_c 5.441117
_cell_angle_alpha 90.000000
_cell_angle_beta 90.000000
_cell_angle_gamma 90.000000
_cell_volume 2832.710669
_symmetry_space_group_name_H-M "C C C A"
_symmetry_group_IT_number 68
_space_group.IT_coordinate_system_code '2'
_symmetry_cell_setting 'orthorhombic'
loop_
_space_group_symop_operation_xyz
x,y,z
-x,1/2-y,z
x,1/2-y,1/2-z
-x,y,1/2-z
-x,-y,-z
x,1/2+y,-z
-x,1/2+y,1/2+z
x,-y,1/2+z
1/2+x,1/2+y,z
1/2-x,-y,z
1/2+x,-y,1/2-z
1/2-x,1/2+y,1/2-z
1/2-x,1/2-y,-z
1/2+x,y,-z
1/2-x,y,1/2+z
1/2+x,1/2-y,1/2+z
loop_
_atom_site_type_symbol
_atom_site_label
_atom_site_fract_x
_atom_site_fract_y
_atom_site_fract_z
Si Si1 0.035788 0.359478 0.642313
Si Si2 0.000000 0.750000 0.750000
Si Si3 0.763895 0.391786 0.177083
Si Si4 0.153772 0.634231 0.750036
Si Si5 0.386195 0.367469 0.249450
O O1 0.036044 0.250000 0.750000
O O2 0.027570 0.328075 0.365991
O O3 0.073325 0.404127 0.711956
O O4 0.000000 0.407568 0.750000
O O5 0.750000 0.500000 0.142762
O O6 0.742038 0.347832 0.406046
O O7 0.805077 0.395499 0.253036
O O8 0.153776 0.750000 0.750000
O O9 0.132071 0.604940 0.506328
O O10 0.136172 0.605120 0.008313
O O11 0.387823 0.250000 0.250000
#
# Coordination Sequence:
#
# PCOD9506486 Si02
#       5
#    16   4  16  16  16
#     4   8  15  22  35  57  86 133 180 207 232 280
#     4   8  14  20  36  54  84 128 190 200 230 280
#     4  10  21  37  56  74  95 126 161 204 255 307
#     4  10  20  32  48  73  99 131 166 204 256 300
#     4   9  18  28  43  64 100 134 169 210 246 285
#
# _framework density 24.005277
#
# number of rings (size 3 to 8) (size 9 to 14) (size 15 to 20)
#    0.000    3.059    0.000    1.412   11.529    0.941 
#    0.000    0.000    0.000    0.000    0.000    0.000 
#    0.000    0.000    0.000   84.706    0.000   37.647 
#
# Total GULP energy -189643.681162 kJ/mol
# GULP energy per Si atom -5577.755328 kJ/mol
# Density = 2.395064 g / cm^3
# Si number density = 24.005277 Si / 1000 Ang^3
#
#
#
# Elastic Constant Matrix: (Units=GPa)
#
#
# Indices 1 2 3 4 5 6 
#
# 1 211.7013 -0.2439 80.5302 0.0000 0.0000 0.0000
# 2 -0.2439 83.7389 -0.5037 0.0000 0.0000 0.0000
# 3 80.5302 -0.5037 168.5320 0.0000 0.0000 0.0000
# 4 0.0000 0.0000 0.0000 -22.5423 0.0000 0.0000
# 5 0.0000 0.0000 0.0000 0.0000 58.7659 0.0000
# 6 0.0000 0.0000 0.0000 0.0000 0.0000 356.9180
#
#
#
# Elastic Compliance Matrix: (Units=1/GPa)
#
#
# Indices 1 2 3 4 5 6 
#
# 1 0.005773 0.000000 -0.002759 0.000000 0.000000 0.000000
# 2 0.000000 0.011942 0.000036 0.000000 0.000000 0.000000
# 3 -0.002759 0.000036 0.007252 0.000000 0.000000 0.000000
# 4 0.000000 0.000000 0.000000 -0.044361 0.000000 0.000000
# 5 0.000000 0.000000 0.000000 0.000000 0.017017 0.000000
# 6 0.000000 0.000000 0.000000 0.000000 0.000000 0.002802
#
#
# Mechanical properties :
#
#
# Convention : Reuss Voigt Hill
#
# Bulk Modulus (GPa) = 51.22568 69.28193 60.25381
# Shear Modulus (GPa) = 403.98057 104.24097 254.11077
#
# Velocity S-wave (km/s) = 12.98667 6.59685 10.29981
# Velocity P-wave (km/s) = 15.69258 9.32461 12.90747
#
# Compressibility (1/GPa) = 0.01952146
#
# Stress axis : x y z
#
# Youngs Moduli (GPa) = 173.22123 83.73740 137.89659
#
# Poissons Ratio (x) = -0.00002 0.38039
# Poissons Ratio (y) = -0.00004 -0.00491
# Poissons Ratio (z) = 0.47783 -0.00298
#
# Static dielectric constant tensor:
#      x y z
#    x 1.946580 0.000000 0.000000 
#    y 0.000000 1.738190 0.000000 
#    z 0.000000 0.000000 1.215610 
# 
# From -- ./inp_files/1625.got.cif
#   From: 2010.05.17/outbox.cif.g08.bks.cpg/sg68_1_cif.got.tgz:1625.got - 2010.06.03 18:57:09.
