data_PCOD9506614
_publ_section_title
;
Structure prediction by ZEFSAII (Michael W. Deem and Ramdas Pophale) SiO2 
 PCOD9506614
Probable space group: C C C A
;
_chemical_formula_sum "Si O2"
_cell_formula_units_Z 80
_cell_length_a 11.007527
_cell_length_b 15.814609
_cell_length_c 23.292919
_cell_angle_alpha 90.000000
_cell_angle_beta 90.000000
_cell_angle_gamma 90.000000
_cell_volume 4054.825180
_symmetry_space_group_name_H-M "C C C A"
_symmetry_group_IT_number 68
_space_group.IT_coordinate_system_code '2'
_symmetry_cell_setting 'orthorhombic'
loop_
_space_group_symop_operation_xyz
x,y,z
-x,1/2-y,z
x,1/2-y,1/2-z
-x,y,1/2-z
-x,-y,-z
x,1/2+y,-z
-x,1/2+y,1/2+z
x,-y,1/2+z
1/2+x,1/2+y,z
1/2-x,-y,z
1/2+x,-y,1/2-z
1/2-x,1/2+y,1/2-z
1/2-x,1/2-y,-z
1/2+x,y,-z
1/2-x,y,1/2+z
1/2+x,1/2-y,1/2+z
loop_
_atom_site_type_symbol
_atom_site_label
_atom_site_fract_x
_atom_site_fract_y
_atom_site_fract_z
Si Si1 0.839800 0.422413 0.613856
Si Si2 0.740805 0.657095 0.419406
Si Si3 0.645749 0.243841 0.316142
Si Si4 0.337556 0.334299 0.963967
Si Si5 0.528509 0.966585 0.064295
O O1 0.750000 0.500000 0.625792
O O2 0.825970 0.349093 0.659772
O O3 0.789688 0.378349 0.555353
O O4 0.973352 0.461480 0.605677
O O5 0.791607 0.687654 0.358294
O O6 0.665446 0.737452 0.444898
O O7 0.846254 0.653104 0.467769
O O8 0.840445 0.427239 0.422022
O O9 0.500000 0.250000 0.319931
O O10 0.683147 0.250000 0.250000
O O11 0.439428 0.385819 0.931110
O O12 0.500000 0.000000 0.000000
#
# Coordination Sequence:
#
# PCOD9506614 Si02
#       5
#    16  16  16  16  16
#     4   9  19  38  59  82 122 158 186 246 310 353
#     4  10  20  34  58  84 116 157 196 236 296 368
#     4  10  23  43  61  80 110 161 214 254 288 347
#     4   9  19  33  52  84 122 156 181 229 304 370
#     4  11  20  31  53  91 126 148 183 236 305 374
#
# _framework density 19.729579999999999
#
# number of rings (size 3 to 8) (size 9 to 14) (size 15 to 20)
#    0.000    2.200    2.000    0.600    2.800    0.000 
#    0.000    4.000    0.000   20.400    0.000    0.000 
#    0.000    0.000    0.000    0.000    0.000    0.000 
#
# Total GULP energy -223067.231821 kJ/mol
# GULP energy per Si atom -5576.680796 kJ/mol
# Density = 1.968467 g / cm^3
# Si number density = 19.729580 Si / 1000 Ang^3
#
#
#
# Elastic Constant Matrix: (Units=GPa)
#
#
# Indices 1 2 3 4 5 6 
#
# 1 53.8830 47.8123 34.8772 0.0000 0.0000 0.0000
# 2 47.8123 118.8414 46.8126 0.0000 0.0000 0.0000
# 3 34.8772 46.8126 146.8029 0.0000 0.0000 0.0000
# 4 0.0000 0.0000 0.0000 21.1913 0.0000 0.0000
# 5 0.0000 0.0000 0.0000 0.0000 18.4575 0.0000
# 6 0.0000 0.0000 0.0000 0.0000 0.0000 44.9231
#
#
#
# Elastic Compliance Matrix: (Units=1/GPa)
#
#
# Indices 1 2 3 4 5 6 
#
# 1 0.030635 -0.010817 -0.003829 0.000000 0.000000 0.000000
# 2 -0.010817 0.013443 -0.001717 0.000000 0.000000 0.000000
# 3 -0.003829 -0.001717 0.008269 0.000000 0.000000 0.000000
# 4 0.000000 0.000000 0.000000 0.047189 0.000000 0.000000
# 5 0.000000 0.000000 0.000000 0.000000 0.054179 0.000000
# 6 0.000000 0.000000 0.000000 0.000000 0.000000 0.022260
#
#
# Mechanical properties :
#
#
# Convention : Reuss Voigt Hill
#
# Bulk Modulus (GPa) = 50.96403 64.28128 57.62266
# Shear Modulus (GPa) = 23.22979 29.58274 26.40626
#
# Velocity S-wave (km/s) = 3.43506 3.87642 3.66240
# Velocity P-wave (km/s) = 6.45137 7.25861 6.86686
#
# Compressibility (1/GPa) = 0.01962168
#
# Stress axis : x y z
#
# Youngs Moduli (GPa) = 32.64199 74.38988 120.93397
#
# Poissons Ratio (x) = 0.80467 0.46306
# Poissons Ratio (y) = 0.35309 0.20761
# Poissons Ratio (z) = 0.12499 0.12771
#
# Static dielectric constant tensor:
#      x y z
#    x 1.772270 0.000000 0.000000 
#    y 0.000000 1.737940 0.000000 
#    z 0.000000 0.000000 1.680190 
# 
# From -- ./inp_files/44114.got.cif
#   From: 2010.05.17/outbox.cif.g08.bks.cpg/sg68_23_cif.got.tgz:44114.got - 2010.06.03 18:57:09.
