data_PCOD9506710
_publ_section_title
;
Structure prediction by ZEFSAII (Michael W. Deem and Ramdas Pophale) SiO2 
 PCOD9506710
Probable space group: C C C A
;
_chemical_formula_sum "Si O2"
_cell_formula_units_Z 112
_cell_length_a 14.088345
_cell_length_b 28.548731
_cell_length_c 13.868917
_cell_angle_alpha 90.000000
_cell_angle_beta 90.000000
_cell_angle_gamma 90.000000
_cell_volume 5578.139047
_symmetry_space_group_name_H-M "C C C A"
_symmetry_group_IT_number 68
_space_group.IT_coordinate_system_code '2'
_symmetry_cell_setting 'orthorhombic'
loop_
_space_group_symop_operation_xyz
x,y,z
-x,1/2-y,z
x,1/2-y,1/2-z
-x,y,1/2-z
-x,-y,-z
x,1/2+y,-z
-x,1/2+y,1/2+z
x,-y,1/2+z
1/2+x,1/2+y,z
1/2-x,-y,z
1/2+x,-y,1/2-z
1/2-x,1/2+y,1/2-z
1/2-x,1/2-y,-z
1/2+x,y,-z
1/2-x,y,1/2+z
1/2+x,1/2-y,1/2+z
loop_
_atom_site_type_symbol
_atom_site_label
_atom_site_fract_x
_atom_site_fract_y
_atom_site_fract_z
Si Si1 0.205057 0.197024 0.633129
Si Si2 0.786007 0.099659 0.364073
Si Si3 0.705057 0.197024 0.133129
Si Si4 0.213993 0.099659 0.364073
Si Si5 0.107683 0.445449 0.527637
Si Si6 0.000000 0.193245 0.640978
Si Si7 0.607683 0.554551 0.527637
O O1 0.274514 0.154739 0.612696
O O2 0.195206 0.198501 0.750000
O O3 0.229835 0.250000 0.604158
O O4 0.100804 0.182532 0.594519
O O5 0.796318 0.093445 0.250000
O O6 0.871752 0.080517 0.427094
O O7 0.690064 0.073020 0.400686
O O8 0.774514 0.154739 0.112696
O O9 0.600804 0.182532 0.094519
O O10 0.309936 0.073020 0.400686
O O11 0.128248 0.080516 0.427094
O O12 0.119522 0.500000 0.500000
O O13 1.000000 0.437550 0.562812
O O14 0.000000 0.250000 0.649017
O O15 0.000000 0.173309 0.750000
#
# Coordination Sequence:
#
# PCOD9506710 Si02
#       7
#    16  16  16  16  16  16  16
#     4   8  14  25  45  76 111 143 176 219 268 316
#     4  10  20  35  60  86 108 142 187 227 267 328
#     4   8  14  25  45  76 111 143 176 219 268 316
#     4  10  20  35  60  86 108 142 187 227 267 328
#     4  10  23  41  56  77 113 146 177 230 289 332
#     4   7  10  18  34  62 101 136 165 205 256 303
#     4  10  23  41  56  77 113 146 177 230 289 332
#
# _framework density 20.078379999999999
#
# number of rings (size 3 to 8) (size 9 to 14) (size 15 to 20)
#    0.000    3.000    0.000    3.429    2.000    3.429 
#    0.000    5.714    0.000    2.571    0.000    4.000 
#    0.000    0.000    0.000    0.000    0.000    0.000 
#
# Total GULP energy -312100.312705 kJ/mol
# GULP energy per Si atom -5573.219870 kJ/mol
# Density = 2.003268 g / cm^3
# Si number density = 20.078380 Si / 1000 Ang^3
#
#
#
# Elastic Constant Matrix: (Units=GPa)
#
#
# Indices 1 2 3 4 5 6 
#
# 1 30.3605 20.0259 -7.1692 0.0000 0.0000 0.0000
# 2 20.0259 107.9154 0.6191 0.0000 0.0000 0.0000
# 3 -7.1692 0.6191 80.6265 0.0000 0.0000 0.0000
# 4 0.0000 0.0000 0.0000 25.1560 0.0000 0.0000
# 5 0.0000 0.0000 0.0000 0.0000 8.8212 0.0000
# 6 0.0000 0.0000 0.0000 0.0000 0.0000 -83.0148
#
#
#
# Elastic Compliance Matrix: (Units=1/GPa)
#
#
# Indices 1 2 3 4 5 6 
#
# 1 0.038482 -0.007161 0.003477 0.000000 0.000000 0.000000
# 2 -0.007161 0.010600 -0.000718 0.000000 0.000000 0.000000
# 3 0.003477 -0.000718 0.012718 0.000000 0.000000 0.000000
# 4 0.000000 0.000000 0.000000 0.039752 0.000000 0.000000
# 5 0.000000 0.000000 0.000000 0.000000 0.113364 0.000000
# 6 0.000000 0.000000 0.000000 0.000000 0.000000 -0.012046
#
#
# Mechanical properties :
#
#
# Convention : Reuss Voigt Hill
#
# Bulk Modulus (GPa) = 18.87001 27.31712 23.09356
# Shear Modulus (GPa) = 21.80186 3.88757 12.84472
#
# Velocity S-wave (km/s) = 3.29878 1.39298 2.53203
# Velocity P-wave (km/s) = 4.89161 4.02765 4.48050
#
# Compressibility (1/GPa) = 0.05299414
#
# Stress axis : x y z
#
# Youngs Moduli (GPa) = 25.98617 94.34390 78.63160
#
# Poissons Ratio (x) = 0.67560 -0.27338
# Poissons Ratio (y) = 0.18609 0.05647
# Poissons Ratio (z) = -0.09035 0.06775
#
# Static dielectric constant tensor:
#      x y z
#    x 1.725260 0.000000 0.000000 
#    y 0.000000 1.726820 0.000000 
#    z 0.000000 0.000000 1.743330 
# 
# From -- ./inp_files/22731.got.cif
#   From: 2010.05.17/outbox.cif.g08.bks.cpg/sg68_12_cif.got.tgz:22731.got - 2010.06.03 18:57:09.
