data_PCOD9506813
_publ_section_title
;
Structure prediction by ZEFSAII (Michael W. Deem and Ramdas Pophale) SiO2 
 PCOD9506813
Probable space group: C C C A
;
_chemical_formula_sum "Si O2"
_cell_formula_units_Z 72
_cell_length_a 8.772202
_cell_length_b 11.135425
_cell_length_c 32.602938
_cell_angle_alpha 90.000000
_cell_angle_beta 90.000000
_cell_angle_gamma 90.000000
_cell_volume 3184.726627
_symmetry_space_group_name_H-M "C C C A"
_symmetry_group_IT_number 68
_space_group.IT_coordinate_system_code '2'
_symmetry_cell_setting 'orthorhombic'
loop_
_space_group_symop_operation_xyz
x,y,z
-x,1/2-y,z
x,1/2-y,1/2-z
-x,y,1/2-z
-x,-y,-z
x,1/2+y,-z
-x,1/2+y,1/2+z
x,-y,1/2+z
1/2+x,1/2+y,z
1/2-x,-y,z
1/2+x,-y,1/2-z
1/2-x,1/2+y,1/2-z
1/2-x,1/2-y,-z
1/2+x,y,-z
1/2-x,y,1/2+z
1/2+x,1/2-y,1/2+z
loop_
_atom_site_type_symbol
_atom_site_label
_atom_site_fract_x
_atom_site_fract_y
_atom_site_fract_z
Si Si1 0.500000 0.454898 0.750000
Si Si2 0.311605 0.134466 0.408042
Si Si3 0.500000 0.250000 0.934215
Si Si4 0.344118 0.875446 0.997335
Si Si5 0.381417 0.395441 0.180823
Si Si6 0.746453 0.250000 0.750000
O O1 0.498927 0.536793 0.790344
O O2 0.642275 0.366919 0.745666
O O3 0.156903 0.217405 0.410251
O O4 0.403912 0.136909 0.450741
O O5 0.403390 0.143749 0.365841
O O6 0.250000 0.000000 0.408058
O O7 0.538460 0.139566 0.965205
O O8 0.250000 0.000000 0.001658
O O9 0.250000 0.750000 0.000000
O O10 0.250000 0.500000 0.178966
O O11 0.332825 0.281820 0.208269
#
# Coordination Sequence:
#
# PCOD9506813 Si02
#       6
#     8  16   8  16  16   8
#     4   9  18  33  54  76 106 141 170 223 278 318
#     4   9  19  33  54  84 111 140 189 232 269 337
#     4  10  20  36  60  79 112 155 182 234 292 320
#     4   9  19  35  56  84 115 151 194 232 281 346
#     4   9  18  33  53  80 106 137 184 222 266 332
#     4   9  18  33  56  76 102 141 176 213 274 334
#
# _framework density 22.607907000000001
#
# number of rings (size 3 to 8) (size 9 to 14) (size 15 to 20)
#    0.000    2.889    0.000    0.000    0.000   13.778 
#    0.000    2.222    0.000   32.000    0.000    0.000 
#    0.000    0.000    0.000    0.000    0.000    0.000 
#
# Total GULP energy -200488.405962 kJ/mol
# GULP energy per Si atom -5569.122388 kJ/mol
# Density = 2.255645 g / cm^3
# Si number density = 22.607907 Si / 1000 Ang^3
#
#
#
# Elastic Constant Matrix: (Units=GPa)
#
#
# Indices 1 2 3 4 5 6 
#
# 1 43.5099 42.7909 10.7608 0.0000 0.0000 0.0000
# 2 42.7909 142.5402 50.6449 0.0000 0.0000 0.0000
# 3 10.7608 50.6449 174.8056 0.0000 0.0000 0.0000
# 4 0.0000 0.0000 0.0000 278.3100 0.0000 0.0000
# 5 0.0000 0.0000 0.0000 0.0000 18.3308 0.0000
# 6 0.0000 0.0000 0.0000 0.0000 0.0000 60.4833
#
#
#
# Elastic Compliance Matrix: (Units=1/GPa)
#
#
# Indices 1 2 3 4 5 6 
#
# 1 0.032746 -0.010160 0.000928 0.000000 0.000000 0.000000
# 2 -0.010160 0.010973 -0.002554 0.000000 0.000000 0.000000
# 3 0.000928 -0.002554 0.006403 0.000000 0.000000 0.000000
# 4 0.000000 0.000000 0.000000 0.003593 0.000000 0.000000
# 5 0.000000 0.000000 0.000000 0.000000 0.054553 0.000000
# 6 0.000000 0.000000 0.000000 0.000000 0.000000 0.016533
#
#
# Mechanical properties :
#
#
# Convention : Reuss Voigt Hill
#
# Bulk Modulus (GPa) = 37.66416 63.24987 50.45701
# Shear Modulus (GPa) = 31.80180 88.53543 60.16862
#
# Velocity S-wave (km/s) = 3.75463 6.26469 5.16447
# Velocity P-wave (km/s) = 5.95753 8.96471 7.61112
#
# Compressibility (1/GPa) = 0.02655044
#
# Stress axis : x y z
#
# Youngs Moduli (GPa) = 30.53811 91.13311 156.16761
#
# Poissons Ratio (x) = 0.92592 -0.14489
# Poissons Ratio (y) = 0.31027 0.39880
# Poissons Ratio (z) = -0.02833 0.23272
#
# Static dielectric constant tensor:
#      x y z
#    x 2.035110 0.000000 0.000000 
#    y 0.000000 1.833830 0.000000 
#    z 0.000000 0.000000 1.820780 
# 
# From -- ./inp_files/50048.got.cif
#   From: 2010.05.17/outbox.cif.g08.bks.cpg/sg68_26_cif.got.tgz:50048.got - 2010.06.03 18:57:09.
