data_PCOD9506021
_publ_section_title
;
Structure prediction by ZEFSAII (Michael W. Deem and Ramdas Pophale) SiO2 
 PCOD9506021
Probable space group: C C C A
;
_chemical_formula_sum "Si O2"
_cell_formula_units_Z 96
_cell_length_a 8.556109
_cell_length_b 25.935993
_cell_length_c 24.781309
_cell_angle_alpha 90.000000
_cell_angle_beta 90.000000
_cell_angle_gamma 90.000000
_cell_volume 5499.249600
_symmetry_space_group_name_H-M "C C C A"
_symmetry_group_IT_number 68
_space_group.IT_coordinate_system_code '2'
_symmetry_cell_setting 'orthorhombic'
loop_
_space_group_symop_operation_xyz
x,y,z
-x,1/2-y,z
x,1/2-y,1/2-z
-x,y,1/2-z
-x,-y,-z
x,1/2+y,-z
-x,1/2+y,1/2+z
x,-y,1/2+z
1/2+x,1/2+y,z
1/2-x,-y,z
1/2+x,-y,1/2-z
1/2-x,1/2+y,1/2-z
1/2-x,1/2-y,-z
1/2+x,y,-z
1/2-x,y,1/2+z
1/2+x,1/2-y,1/2+z
loop_
_atom_site_type_symbol
_atom_site_label
_atom_site_fract_x
_atom_site_fract_y
_atom_site_fract_z
Si Si1 0.378765 0.597891 0.463925
Si Si2 0.200210 0.342317 0.612724
Si Si3 0.691060 0.056173 0.568146
Si Si4 0.406963 0.198541 0.982839
Si Si5 0.309230 0.748738 0.688195
Si Si6 0.833288 0.330404 0.599388
O O1 0.506944 0.557456 0.443933
O O2 0.280973 0.575104 0.513625
O O3 0.480839 0.648149 0.481228
O O4 0.266595 0.619803 0.417282
O O5 0.270130 0.399466 0.611496
O O6 0.271998 0.314685 0.559727
O O7 0.243556 0.304683 0.661405
O O8 0.012747 0.344756 0.611174
O O9 0.750000 0.000000 0.582930
O O10 0.500000 0.250000 0.968607
O O11 0.157027 0.297741 0.956349
O O12 0.500000 0.750000 0.687781
O O13 0.257186 0.750000 0.750000
O O14 0.266220 0.795898 0.648078
#
# Coordination Sequence:
#
# PCOD9506021 Si02
#       6
#    16  16  16  16  16  16
#     4  11  20  32  47  73 105 133 169 201 257 310
#     4  10  19  33  49  73 106 133 171 207 253 307
#     4  11  21  34  49  71 102 137 172 209 253 301
#     4  11  19  28  47  76 104 135 161 202 260 323
#     4   9  19  32  51  78 104 134 170 208 250 302
#     4  11  18  30  51  74 104 135 164 207 257 314
#
# _framework density 17.456927
#
# number of rings (size 3 to 8) (size 9 to 14) (size 15 to 20)
#    0.000    1.500    5.000    3.000    0.000    2.000 
#    0.000    0.000    0.000   12.500    0.000   10.500 
#    0.000    0.000    0.000    0.000    0.000    0.000 
#
# Total GULP energy -267937.786600 kJ/mol
# GULP energy per Si atom -5582.037221 kJ/mol
# Density = 1.741719 g / cm^3
# Si number density = 17.456927 Si / 1000 Ang^3
#
#
#
# Elastic Constant Matrix: (Units=GPa)
#
#
# Indices 1 2 3 4 5 6 
#
# 1 56.0123 1.1478 3.7606 0.0000 0.0000 0.0000
# 2 1.1478 53.0791 7.9261 0.0000 0.0000 0.0000
# 3 3.7606 7.9261 87.4829 0.0000 0.0000 0.0000
# 4 0.0000 0.0000 0.0000 9.0045 0.0000 0.0000
# 5 0.0000 0.0000 0.0000 0.0000 12.0195 0.0000
# 6 0.0000 0.0000 0.0000 0.0000 0.0000 22.8682
#
#
#
# Elastic Compliance Matrix: (Units=1/GPa)
#
#
# Indices 1 2 3 4 5 6 
#
# 1 0.017909 -0.000276 -0.000745 0.000000 0.000000 0.000000
# 2 -0.000276 0.019102 -0.001719 0.000000 0.000000 0.000000
# 3 -0.000745 -0.001719 0.011619 0.000000 0.000000 0.000000
# 4 0.000000 0.000000 0.000000 0.111055 0.000000 0.000000
# 5 0.000000 0.000000 0.000000 0.000000 0.083198 0.000000
# 6 0.000000 0.000000 0.000000 0.000000 0.000000 0.043729
#
#
# Mechanical properties :
#
#
# Convention : Reuss Voigt Hill
#
# Bulk Modulus (GPa) = 23.17473 24.69369 23.93421
# Shear Modulus (GPa) = 16.31457 21.02777 18.67117
#
# Velocity S-wave (km/s) = 3.06038 3.47443 3.27396
# Velocity P-wave (km/s) = 5.07859 5.50198 5.29452
#
# Compressibility (1/GPa) = 0.04315045
#
# Stress axis : x y z
#
# Youngs Moduli (GPa) = 55.83820 52.34928 86.06929
#
# Poissons Ratio (x) = 0.01445 0.06411
# Poissons Ratio (y) = 0.01541 0.14794
# Poissons Ratio (z) = 0.04159 0.08998
#
# Static dielectric constant tensor:
#      x y z
#    x 1.659470 0.000000 0.000000 
#    y 0.000000 1.612610 0.000000 
#    z 0.000000 0.000000 1.588550 
# 
# From -- ./inp_files/49529.got.cif
#   From: 2010.05.17/outbox.cif.g08.bks.cpg/sg68_25_cif.got.tgz:49529.got - 2010.06.03 18:57:09.
