data_PCOD9506067
_publ_section_title
;
Structure prediction by ZEFSAII (Michael W. Deem and Ramdas Pophale) SiO2 
 PCOD9506067
Probable space group: C C C A
;
_chemical_formula_sum "Si O2"
_cell_formula_units_Z 88
_cell_length_a 13.074514
_cell_length_b 16.163048
_cell_length_c 18.938059
_cell_angle_alpha 90.000000
_cell_angle_beta 90.000000
_cell_angle_gamma 90.000000
_cell_volume 4002.066330
_symmetry_space_group_name_H-M "C C C A"
_symmetry_group_IT_number 68
_space_group.IT_coordinate_system_code '2'
_symmetry_cell_setting 'orthorhombic'
loop_
_space_group_symop_operation_xyz
x,y,z
-x,1/2-y,z
x,1/2-y,1/2-z
-x,y,1/2-z
-x,-y,-z
x,1/2+y,-z
-x,1/2+y,1/2+z
x,-y,1/2+z
1/2+x,1/2+y,z
1/2-x,-y,z
1/2+x,-y,1/2-z
1/2-x,1/2+y,1/2-z
1/2-x,1/2-y,-z
1/2+x,y,-z
1/2-x,y,1/2+z
1/2+x,1/2-y,1/2+z
loop_
_atom_site_type_symbol
_atom_site_label
_atom_site_fract_x
_atom_site_fract_y
_atom_site_fract_z
Si Si1 0.615705 0.476953 0.518561
Si Si2 0.821165 0.226747 0.607211
Si Si3 0.388426 0.447071 0.140678
Si Si4 0.374612 0.094455 0.138063
Si Si5 0.890666 0.707523 0.555504
Si Si6 0.750000 0.000000 0.250134
O O1 0.500000 0.500000 0.500000
O O2 0.651668 0.464323 0.438539
O O3 0.659785 0.553718 0.563029
O O4 0.612472 0.392231 0.563771
O O5 0.844326 0.145502 0.652470
O O6 0.877258 0.307720 0.635496
O O7 0.866095 0.216339 0.528000
O O8 0.701487 0.248898 0.597513
O O9 0.510876 0.440831 0.147913
O O10 0.343180 0.512571 0.195603
O O11 0.294774 0.067899 0.197223
O O12 0.000000 0.750000 0.569910
#
# Coordination Sequence:
#
# PCOD9506067 Si02
#       6
#    16  16  16  16  16   8
#     4   9  19  36  64  90 120 163 207 260 317 370
#     4  10  21  37  62  89 124 171 219 263 321 385
#     4  10  23  42  63  91 125 166 212 264 318 383
#     4  11  22  42  65  91 124 164 215 266 316 382
#     4  10  19  33  56  95 132 163 209 269 325 380
#     4  12  26  38  58  90 124 162 204 256 324 382
#
# _framework density 21.98864
#
# number of rings (size 3 to 8) (size 9 to 14) (size 15 to 20)
#    0.000    1.818    0.000    5.455    0.000    8.727 
#    0.000    3.636    0.000    0.000    0.000    3.818 
#    0.000    0.000    0.000    0.000    0.000    0.000 
#
# Total GULP energy -245545.503329 kJ/mol
# GULP energy per Si atom -5580.579621 kJ/mol
# Density = 2.193859 g / cm^3
# Si number density = 21.988640 Si / 1000 Ang^3
#
#
#
# Elastic Constant Matrix: (Units=GPa)
#
#
# Indices 1 2 3 4 5 6 
#
# 1 126.3901 38.3784 7.8812 0.0000 0.0000 0.0000
# 2 38.3784 90.8786 32.7755 0.0000 0.0000 0.0000
# 3 7.8812 32.7755 84.7399 0.0000 0.0000 0.0000
# 4 0.0000 0.0000 0.0000 16.8389 0.0000 0.0000
# 5 0.0000 0.0000 0.0000 0.0000 25.6238 0.0000
# 6 0.0000 0.0000 0.0000 0.0000 0.0000 37.3930
#
#
#
# Elastic Compliance Matrix: (Units=1/GPa)
#
#
# Indices 1 2 3 4 5 6 
#
# 1 0.009116 -0.004119 0.000745 0.000000 0.000000 0.000000
# 2 -0.004119 0.014648 -0.005283 0.000000 0.000000 0.000000
# 3 0.000745 -0.005283 0.013775 0.000000 0.000000 0.000000
# 4 0.000000 0.000000 0.000000 0.059386 0.000000 0.000000
# 5 0.000000 0.000000 0.000000 0.000000 0.039026 0.000000
# 6 0.000000 0.000000 0.000000 0.000000 0.000000 0.026743
#
#
# Mechanical properties :
#
#
# Convention : Reuss Voigt Hill
#
# Bulk Modulus (GPa) = 49.43869 51.11987 50.27928
# Shear Modulus (GPa) = 26.77394 30.83603 28.80498
#
# Velocity S-wave (km/s) = 3.49324 3.74887 3.62331
# Velocity P-wave (km/s) = 6.22919 6.48364 6.35769
#
# Compressibility (1/GPa) = 0.02022707
#
# Stress axis : x y z
#
# Youngs Moduli (GPa) = 109.69555 68.26830 72.59703
#
# Poissons Ratio (x) = 0.28116 -0.05409
# Poissons Ratio (y) = 0.45178 0.38349
# Poissons Ratio (z) = -0.08173 0.36063
#
# Static dielectric constant tensor:
#      x y z
#    x 1.874940 0.000000 0.000000 
#    y 0.000000 1.607580 0.000000 
#    z 0.000000 0.000000 1.878490 
# 
# From -- ./inp_files/38479.got.cif
#   From: 2010.05.17/outbox.cif.g08.bks.cpg/sg68_20_cif.got.tgz:38479.got - 2010.06.03 18:57:09.
