data_PCOD9506462
_publ_section_title
;
Structure prediction by ZEFSAII (Michael W. Deem and Ramdas Pophale) SiO2 
 PCOD9506462
Probable space group: C C C A
;
_chemical_formula_sum "Si O2"
_cell_formula_units_Z 64
_cell_length_a 21.261103
_cell_length_b 10.098170
_cell_length_c 14.238475
_cell_angle_alpha 90.000000
_cell_angle_beta 90.000000
_cell_angle_gamma 90.000000
_cell_volume 3056.975416
_symmetry_space_group_name_H-M "C C C A"
_symmetry_group_IT_number 68
_space_group.IT_coordinate_system_code '2'
_symmetry_cell_setting 'orthorhombic'
loop_
_space_group_symop_operation_xyz
x,y,z
-x,1/2-y,z
x,1/2-y,1/2-z
-x,y,1/2-z
-x,-y,-z
x,1/2+y,-z
-x,1/2+y,1/2+z
x,-y,1/2+z
1/2+x,1/2+y,z
1/2-x,-y,z
1/2+x,-y,1/2-z
1/2-x,1/2+y,1/2-z
1/2-x,1/2-y,-z
1/2+x,y,-z
1/2-x,y,1/2+z
1/2+x,1/2-y,1/2+z
loop_
_atom_site_type_symbol
_atom_site_label
_atom_site_fract_x
_atom_site_fract_y
_atom_site_fract_z
Si Si1 0.044903 0.375241 0.008139
Si Si2 0.268907 0.706858 0.604579
Si Si3 0.876150 0.867971 0.317508
Si Si4 0.349526 0.549324 0.154990
O O1 0.084051 0.368175 0.911613
O O2 0.000000 0.250000 0.020994
O O3 0.094288 0.396408 0.091835
O O4 0.000000 0.500000 0.000000
O O5 0.250000 0.750000 0.500000
O O6 0.305166 0.826546 0.654435
O O7 0.318360 0.583412 0.607483
O O8 0.206791 0.654288 0.655633
O O9 0.900341 0.750000 0.250000
O O10 0.873427 0.000568 0.256229
#
# Coordination Sequence:
#
# PCOD9506462 Si02
#       4
#    16  16  16  16
#     4  12  26  46  73  98 138 192 242 289 345 411
#     4  10  19  42  70  99 144 178 225 289 368 425
#     4  10  22  45  69 100 137 183 229 287 357 427
#     4  10  23  42  66 107 134 177 240 290 355 422
#
# _framework density 20.935725999999999
#
# number of rings (size 3 to 8) (size 9 to 14) (size 15 to 20)
#    0.000    1.500    2.500    3.000    0.000    3.500 
#   22.500    2.500    0.000    0.000    0.000    0.000 
#    0.000    0.000    0.000    0.000    0.000    0.000 
#
# Total GULP energy -178994.142295 kJ/mol
# GULP energy per Si atom -5593.566947 kJ/mol
# Density = 2.088807 g / cm^3
# Si number density = 20.935726 Si / 1000 Ang^3
#
#
#
# Elastic Constant Matrix: (Units=GPa)
#
#
# Indices 1 2 3 4 5 6 
#
# 1 159.6159 73.7792 75.0360 0.0000 0.0000 0.0000
# 2 73.7792 95.1683 52.5183 0.0000 0.0000 0.0000
# 3 75.0360 52.5183 132.6403 0.0000 0.0000 0.0000
# 4 0.0000 0.0000 0.0000 38.5537 0.0000 0.0000
# 5 0.0000 0.0000 0.0000 0.0000 11.7568 0.0000
# 6 0.0000 0.0000 0.0000 0.0000 0.0000 30.0126
#
#
#
# Elastic Compliance Matrix: (Units=1/GPa)
#
#
# Indices 1 2 3 4 5 6 
#
# 1 0.010982 -0.006507 -0.003636 0.000000 0.000000 0.000000
# 2 -0.006507 0.017301 -0.003169 0.000000 0.000000 0.000000
# 3 -0.003636 -0.003169 0.010851 0.000000 0.000000 0.000000
# 4 0.000000 0.000000 0.000000 0.025938 0.000000 0.000000
# 5 0.000000 0.000000 0.000000 0.000000 0.085057 0.000000
# 6 0.000000 0.000000 0.000000 0.000000 0.000000 0.033319
#
#
# Mechanical properties :
#
#
# Convention : Reuss Voigt Hill
#
# Bulk Modulus (GPa) = 79.94063 87.78793 83.86428
# Shear Modulus (GPa) = 23.33782 28.47069 25.90426
#
# Velocity S-wave (km/s) = 3.34239 3.69170 3.52138
# Velocity P-wave (km/s) = 7.29124 7.75852 7.52851
#
# Compressibility (1/GPa) = 0.01250928
#
# Stress axis : x y z
#
# Youngs Moduli (GPa) = 91.05489 57.79870 92.15695
#
# Poissons Ratio (x) = 0.37612 0.33511
# Poissons Ratio (y) = 0.59253 0.29205
# Poissons Ratio (z) = 0.33110 0.18317
#
# Static dielectric constant tensor:
#      x y z
#    x 1.732040 0.000000 0.000000 
#    y 0.000000 1.745420 0.000000 
#    z 0.000000 0.000000 1.797810 
# 
# From -- ./inp_files/19223.got.cif
#   From: 2010.05.17/outbox.cif.g08.bks.cpg/sg68_10_cif.got.tgz:19223.got - 2010.06.03 18:57:09.
