data_PCOD9506539
_publ_section_title
;
Structure prediction by ZEFSAII (Michael W. Deem and Ramdas Pophale) SiO2 
 PCOD9506539
Probable space group: C C C A
;
_chemical_formula_sum "Si O2"
_cell_formula_units_Z 96
_cell_length_a 21.232748
_cell_length_b 18.712888
_cell_length_c 10.874568
_cell_angle_alpha 90.000000
_cell_angle_beta 90.000000
_cell_angle_gamma 90.000000
_cell_volume 4320.748989
_symmetry_space_group_name_H-M "C C C A"
_symmetry_group_IT_number 68
_space_group.IT_coordinate_system_code '2'
_symmetry_cell_setting 'orthorhombic'
loop_
_space_group_symop_operation_xyz
x,y,z
-x,1/2-y,z
x,1/2-y,1/2-z
-x,y,1/2-z
-x,-y,-z
x,1/2+y,-z
-x,1/2+y,1/2+z
x,-y,1/2+z
1/2+x,1/2+y,z
1/2-x,-y,z
1/2+x,-y,1/2-z
1/2-x,1/2+y,1/2-z
1/2-x,1/2-y,-z
1/2+x,y,-z
1/2-x,y,1/2+z
1/2+x,1/2-y,1/2+z
loop_
_atom_site_type_symbol
_atom_site_label
_atom_site_fract_x
_atom_site_fract_y
_atom_site_fract_z
Si Si1 0.758352 0.146905 0.324574
Si Si2 0.147132 0.740568 0.386211
Si Si3 0.911899 0.615646 0.482568
Si Si4 0.534745 0.829049 0.006822
Si Si5 0.401574 0.835268 0.248512
Si Si6 0.708987 0.069484 0.083771
O O1 0.718879 0.215101 0.374359
O O2 0.825631 0.160047 0.259392
O O3 0.718150 0.114206 0.210885
O O4 0.768446 0.100905 0.449909
O O5 0.122291 0.750000 0.250000
O O6 0.131411 0.813506 0.456263
O O7 0.101886 0.681823 0.443494
O O8 0.921233 0.621489 0.628062
O O9 0.865700 0.555164 0.434687
O O10 0.982375 0.625462 0.434704
O O11 0.500000 0.750000 0.018031
O O12 0.558102 0.860213 0.136081
O O13 0.414863 0.750000 0.250000
O O14 0.750000 0.000000 0.104897
#
# Coordination Sequence:
#
# PCOD9506539 Si02
#       6
#    16  16  16  16  16  16
#     4  11  24  38  63  88 124 158 213 272 327 378
#     4  11  20  35  54  90 127 160 198 246 328 388
#     4  10  22  34  57  89 125 166 202 257 315 392
#     4  10  20  33  54  88 135 169 199 239 317 403
#     4  11  19  31  56  88 124 163 197 249 312 387
#     4  11  24  43  61  85 117 167 220 271 313 370
#
# _framework density 22.218371000000001
#
# number of rings (size 3 to 8) (size 9 to 14) (size 15 to 20)
#    0.000    1.333    5.000    2.500    0.000    4.333 
#    0.000    0.000    0.000    4.000    0.000    9.333 
#    0.000    0.000    0.000    0.000    0.000    0.000 
#
# Total GULP energy -267360.480202 kJ/mol
# GULP energy per Si atom -5570.010004 kJ/mol
# Density = 2.216780 g / cm^3
# Si number density = 22.218371 Si / 1000 Ang^3
#
#
#
# Elastic Constant Matrix: (Units=GPa)
#
#
# Indices 1 2 3 4 5 6 
#
# 1 134.0131 9.4763 15.9385 0.0000 0.0000 0.0000
# 2 9.4763 19.4032 6.5903 0.0000 0.0000 0.0000
# 3 15.9385 6.5903 107.1563 0.0000 0.0000 0.0000
# 4 0.0000 0.0000 0.0000 12.0937 0.0000 0.0000
# 5 0.0000 0.0000 0.0000 0.0000 -78.1777 0.0000
# 6 0.0000 0.0000 0.0000 0.0000 0.0000 21.8928
#
#
#
# Elastic Compliance Matrix: (Units=1/GPa)
#
#
# Indices 1 2 3 4 5 6 
#
# 1 0.007822 -0.003498 -0.000948 0.000000 0.000000 0.000000
# 2 -0.003498 0.054202 -0.002813 0.000000 0.000000 0.000000
# 3 -0.000948 -0.002813 0.009646 0.000000 0.000000 0.000000
# 4 0.000000 0.000000 0.000000 0.082688 0.000000 0.000000
# 5 0.000000 0.000000 0.000000 0.000000 -0.012791 0.000000
# 6 0.000000 0.000000 0.000000 0.000000 0.000000 0.045677
#
#
# Mechanical properties :
#
#
# Convention : Reuss Voigt Hill
#
# Bulk Modulus (GPa) = 17.49753 36.06476 26.78114
# Shear Modulus (GPa) = 22.64358 6.39959 14.52158
#
# Velocity S-wave (km/s) = 3.19586 1.69899 2.55930
# Velocity P-wave (km/s) = 4.63793 4.48508 4.56214
#
# Compressibility (1/GPa) = 0.05715092
#
# Stress axis : x y z
#
# Youngs Moduli (GPa) = 127.84294 18.44955 103.66740
#
# Poissons Ratio (x) = 0.06454 0.09831
# Poissons Ratio (y) = 0.44721 0.29164
# Poissons Ratio (z) = 0.12124 0.05190
#
# Static dielectric constant tensor:
#      x y z
#    x 1.889190 0.000000 0.000000 
#    y 0.000000 1.900870 0.000000 
#    z 0.000000 0.000000 1.857250 
# 
# From -- ./inp_files/15600.got.cif
#   From: 2010.05.17/outbox.cif.g08.bks.cpg/sg68_8_cif.got.tgz:15600.got - 2010.06.03 18:57:09.
