data_PCOD9506003
_publ_section_title
;
Structure prediction by ZEFSAII (Michael W. Deem and Ramdas Pophale) SiO2 
 PCOD9506003
Probable space group: C C C A
;
_chemical_formula_sum "Si O2"
_cell_formula_units_Z 112
_cell_length_a 32.509275
_cell_length_b 5.189775
_cell_length_c 32.894021
_cell_angle_alpha 90.000000
_cell_angle_beta 90.000000
_cell_angle_gamma 90.000000
_cell_volume 5549.741814
_symmetry_space_group_name_H-M "C C C A"
_symmetry_group_IT_number 68
_space_group.IT_coordinate_system_code '2'
_symmetry_cell_setting 'orthorhombic'
loop_
_space_group_symop_operation_xyz
x,y,z
-x,1/2-y,z
x,1/2-y,1/2-z
-x,y,1/2-z
-x,-y,-z
x,1/2+y,-z
-x,1/2+y,1/2+z
x,-y,1/2+z
1/2+x,1/2+y,z
1/2-x,-y,z
1/2+x,-y,1/2-z
1/2-x,1/2+y,1/2-z
1/2-x,1/2-y,-z
1/2+x,y,-z
1/2-x,y,1/2+z
1/2+x,1/2-y,1/2+z
loop_
_atom_site_type_symbol
_atom_site_label
_atom_site_fract_x
_atom_site_fract_y
_atom_site_fract_z
Si Si1 0.224351 0.752545 0.661606
Si Si2 0.852902 0.640426 0.891475
Si Si3 0.027547 0.500702 0.891719
Si Si4 0.342689 0.945956 0.486228
Si Si5 0.391540 0.637373 0.853133
Si Si6 0.565301 0.967447 0.978675
Si Si7 0.160534 0.995468 0.724140
O O1 0.250000 0.500000 0.674538
O O2 0.192271 0.644149 0.628385
O O3 0.198455 0.875845 0.698699
O O4 0.250000 0.000000 0.645783
O O5 0.852747 0.578703 0.939010
O O6 0.880129 0.421977 0.869051
O O7 0.869615 0.924794 0.881801
O O8 0.060636 0.427746 0.857443
O O9 0.052721 0.544092 0.933635
O O10 0.000000 0.750000 0.883078
O O11 0.000000 0.250000 0.898306
O O12 0.319347 0.702495 0.503084
O O13 0.385419 0.957125 0.512883
O O14 0.372772 0.590150 0.808822
O O15 0.549536 0.185962 0.009343
O O16 0.145017 0.750000 0.750000
O O17 0.171788 0.250000 0.750000
#
# Coordination Sequence:
#
# PCOD9506003 Si02
#       7
#    16  16  16  16  16  16  16
#     4  11  23  40  63  95 131 164 194 239 306 372
#     4  11  21  39  64  86 118 168 215 249 287 360
#     4  12  25  38  57  85 120 158 197 253 314 363
#     4  10  19  32  55  82 109 149 208 259 293 334
#     4  11  22  41  63  85 120 162 209 248 291 367
#     4  10  19  33  50  76 112 148 191 240 299 355
#     4  11  23  41  66  96 124 157 196 241 298 362
#
# _framework density 20.181118999999999
#
# number of rings (size 3 to 8) (size 9 to 14) (size 15 to 20)
#    0.000    1.143    0.000   10.286    0.000    2.857 
#    0.000    1.429    0.000    5.143    0.000    0.000 
#    0.000    0.000    0.000    0.000    0.000    0.000 
#
# Total GULP energy -312777.583436 kJ/mol
# GULP energy per Si atom -5585.313990 kJ/mol
# Density = 2.013519 g / cm^3
# Si number density = 20.181119 Si / 1000 Ang^3
#
#
#
# Elastic Constant Matrix: (Units=GPa)
#
#
# Indices 1 2 3 4 5 6 
#
# 1 69.0188 23.1130 45.3873 0.0000 0.0000 0.0000
# 2 23.1130 124.2577 21.3862 0.0000 0.0000 0.0000
# 3 45.3873 21.3862 77.3644 0.0000 0.0000 0.0000
# 4 0.0000 0.0000 0.0000 20.1587 0.0000 0.0000
# 5 0.0000 0.0000 0.0000 0.0000 7.4396 0.0000
# 6 0.0000 0.0000 0.0000 0.0000 0.0000 21.4170
#
#
#
# Elastic Compliance Matrix: (Units=1/GPa)
#
#
# Indices 1 2 3 4 5 6 
#
# 1 0.024127 -0.002154 -0.013559 0.000000 0.000000 0.000000
# 2 -0.002154 0.008642 -0.001125 0.000000 0.000000 0.000000
# 3 -0.013559 -0.001125 0.021191 0.000000 0.000000 0.000000
# 4 0.000000 0.000000 0.000000 0.049606 0.000000 0.000000
# 5 0.000000 0.000000 0.000000 0.000000 0.134417 0.000000
# 6 0.000000 0.000000 0.000000 0.000000 0.000000 0.046692
#
#
# Mechanical properties :
#
#
# Convention : Reuss Voigt Hill
#
# Bulk Modulus (GPa) = 49.30048 50.04599 49.67323
# Shear Modulus (GPa) = 15.37930 21.85337 18.61633
#
# Velocity S-wave (km/s) = 2.76354 3.29426 3.04050
# Velocity P-wave (km/s) = 5.88769 6.27071 6.08222
#
# Compressibility (1/GPa) = 0.02028378
#
# Stress axis : x y z
#
# Youngs Moduli (GPa) = 41.44816 115.71211 47.18890
#
# Poissons Ratio (x) = 0.24926 0.63983
# Poissons Ratio (y) = 0.08928 0.05310
# Poissons Ratio (z) = 0.56199 0.13020
#
# Static dielectric constant tensor:
#      x y z
#    x 1.752340 0.000000 0.000000 
#    y 0.000000 1.810610 0.000000 
#    z 0.000000 0.000000 1.713270 
# 
# From -- ./inp_files/56281.got.cif
#   From: 2010.05.17/outbox.cif.g08.bks.cpg/sg68_29_cif.got.tgz:56281.got - 2010.06.03 18:57:09.
