data_PCOD9506582
_publ_section_title
;
Structure prediction by ZEFSAII (Michael W. Deem and Ramdas Pophale) SiO2 
 PCOD9506582
Probable space group: C C C A
;
_chemical_formula_sum "Si O2"
_cell_formula_units_Z 64
_cell_length_a 17.045760
_cell_length_b 10.975477
_cell_length_c 13.638898
_cell_angle_alpha 90.000000
_cell_angle_beta 90.000000
_cell_angle_gamma 90.000000
_cell_volume 2551.637963
_symmetry_space_group_name_H-M "C C C A"
_symmetry_group_IT_number 68
_space_group.IT_coordinate_system_code '2'
_symmetry_cell_setting 'orthorhombic'
loop_
_space_group_symop_operation_xyz
x,y,z
-x,1/2-y,z
x,1/2-y,1/2-z
-x,y,1/2-z
-x,-y,-z
x,1/2+y,-z
-x,1/2+y,1/2+z
x,-y,1/2+z
1/2+x,1/2+y,z
1/2-x,-y,z
1/2+x,-y,1/2-z
1/2-x,1/2+y,1/2-z
1/2-x,1/2-y,-z
1/2+x,y,-z
1/2-x,y,1/2+z
1/2+x,1/2-y,1/2+z
loop_
_atom_site_type_symbol
_atom_site_label
_atom_site_fract_x
_atom_site_fract_y
_atom_site_fract_z
Si Si1 0.556581 0.855644 0.395993
Si Si2 0.322398 0.723175 0.644906
Si Si3 0.047046 0.052178 0.885589
Si Si4 0.830939 0.842456 0.554204
O O1 0.500000 0.750000 0.357443
O O2 0.533638 0.882942 0.509288
O O3 0.640089 0.789529 0.401968
O O4 0.531657 0.984210 0.348937
O O5 0.286362 0.750000 0.750000
O O6 0.403298 0.653914 0.669188
O O7 0.258132 0.641606 0.587506
O O8 0.336497 0.828491 0.563839
O O9 0.110332 0.944034 0.905877
#
# Coordination Sequence:
#
# PCOD9506582 Si02
#       4
#    16  16  16  16
#     4   8  15  29  55  79 103 141 184 226 274 336
#     4  10  20  34  54  82 114 144 186 239 286 340
#     4   9  16  31  55  79 105 144 186 225 282 342
#     4   9  18  34  55  80 111 147 185 229 285 344
#
# _framework density 25.081927
#
# number of rings (size 3 to 8) (size 9 to 14) (size 15 to 20)
#    0.000    3.000    0.000    0.750    0.000    0.000 
#    0.000   15.000    0.000   96.750    0.000    0.000 
#    0.000    0.000    0.000    0.000    0.000    0.000 
#
# Total GULP energy -178303.404778 kJ/mol
# GULP energy per Si atom -5571.981399 kJ/mol
# Density = 2.502484 g / cm^3
# Si number density = 25.081927 Si / 1000 Ang^3
#
#
#
# Elastic Constant Matrix: (Units=GPa)
#
#
# Indices 1 2 3 4 5 6 
#
# 1 74.0566 17.9115 5.7390 0.0000 0.0000 0.0000
# 2 17.9115 74.3389 31.6238 0.0000 0.0000 0.0000
# 3 5.7390 31.6238 92.8422 0.0000 0.0000 0.0000
# 4 0.0000 0.0000 0.0000 14.3020 0.0000 0.0000
# 5 0.0000 0.0000 0.0000 0.0000 11.9736 0.0000
# 6 0.0000 0.0000 0.0000 0.0000 0.0000 53.7782
#
#
#
# Elastic Compliance Matrix: (Units=1/GPa)
#
#
# Indices 1 2 3 4 5 6 
#
# 1 0.014348 -0.003602 0.000340 0.000000 0.000000 0.000000
# 2 -0.003602 0.016635 -0.005444 0.000000 0.000000 0.000000
# 3 0.000340 -0.005444 0.012604 0.000000 0.000000 0.000000
# 4 0.000000 0.000000 0.000000 0.069920 0.000000 0.000000
# 5 0.000000 0.000000 0.000000 0.000000 0.083517 0.000000
# 6 0.000000 0.000000 0.000000 0.000000 0.000000 0.018595
#
#
# Mechanical properties :
#
#
# Convention : Reuss Voigt Hill
#
# Bulk Modulus (GPa) = 38.20198 39.08735 38.64467
# Shear Modulus (GPa) = 20.68200 28.40833 24.54517
#
# Velocity S-wave (km/s) = 2.87466 3.36910 3.13165
# Velocity P-wave (km/s) = 5.12662 5.54546 5.34014
#
# Compressibility (1/GPa) = 0.02617665
#
# Stress axis : x y z
#
# Youngs Moduli (GPa) = 69.69639 60.11254 79.33871
#
# Poissons Ratio (x) = 0.21650 -0.02697
# Poissons Ratio (y) = 0.25102 0.43190
# Poissons Ratio (z) = -0.02369 0.32724
#
# Static dielectric constant tensor:
#      x y z
#    x 2.030790 0.000000 0.000000 
#    y 0.000000 2.132350 0.000000 
#    z 0.000000 0.000000 1.966830 
# 
# From -- ./inp_files/11520.got.cif
#   From: 2010.05.17/outbox.cif.g08.bks.cpg/sg68_6_cif.got.tgz:11520.got - 2010.06.03 18:57:09.
