data_PCOD9506556
_publ_section_title
;
Structure prediction by ZEFSAII (Michael W. Deem and Ramdas Pophale) SiO2 
 PCOD9506556
Probable space group: C C C A
;
_chemical_formula_sum "Si O2"
_cell_formula_units_Z 88
_cell_length_a 5.256023
_cell_length_b 34.851365
_cell_length_c 28.502034
_cell_angle_alpha 90.000000
_cell_angle_beta 90.000000
_cell_angle_gamma 90.000000
_cell_volume 5220.990504
_symmetry_space_group_name_H-M "C C C A"
_symmetry_group_IT_number 68
_space_group.IT_coordinate_system_code '2'
_symmetry_cell_setting 'orthorhombic'
loop_
_space_group_symop_operation_xyz
x,y,z
-x,1/2-y,z
x,1/2-y,1/2-z
-x,y,1/2-z
-x,-y,-z
x,1/2+y,-z
-x,1/2+y,1/2+z
x,-y,1/2+z
1/2+x,1/2+y,z
1/2-x,-y,z
1/2+x,-y,1/2-z
1/2-x,1/2+y,1/2-z
1/2-x,1/2-y,-z
1/2+x,y,-z
1/2-x,y,1/2+z
1/2+x,1/2-y,1/2+z
loop_
_atom_site_type_symbol
_atom_site_label
_atom_site_fract_x
_atom_site_fract_y
_atom_site_fract_z
Si Si1 0.603733 0.791034 0.318738
Si Si2 0.001075 0.522575 0.192942
Si Si3 0.000000 0.146611 0.250000
Si Si4 0.004266 0.795978 0.029218
Si Si5 0.898919 0.390328 0.803695
Si Si6 0.082819 0.318153 0.632996
O O1 0.500000 0.750000 0.302325
O O2 0.666427 0.821386 0.277437
O O3 0.364094 0.806460 0.349272
O O4 0.860749 0.789818 0.348605
O O5 0.750000 0.500000 0.177324
O O6 0.000000 0.521990 0.250000
O O7 0.250000 0.500000 0.176950
O O8 0.027400 0.567280 0.180697
O O9 0.105074 0.118909 0.290688
O O10 0.000000 0.750000 0.038630
O O11 0.939813 0.817548 0.077248
O O12 0.282226 0.804441 0.008354
O O13 0.972721 0.358948 0.842055
O O14 0.000000 0.384858 0.750000
#
# Coordination Sequence:
#
# PCOD9506556 Si02
#       6
#    16  16   8  16  16  16
#     4  11  21  33  48  68  99 134 176 213 243 296
#     4   9  19  30  48  71  95 131 169 202 236 290
#     4  10  21  32  46  70 100 144 174 204 248 286
#     4  10  20  35  54  73  97 128 168 220 267 303
#     4  10  20  34  52  71 109 137 168 206 251 302
#     4  11  22  35  53  76  98 135 173 214 264 304
#
# _framework density 16.855039999999999
#
# number of rings (size 3 to 8) (size 9 to 14) (size 15 to 20)
#    0.000    1.818    1.818    3.000    6.364    1.455 
#    0.000    1.818    0.000    0.000    0.000    0.000 
#    0.000    4.364    0.000    0.000    0.000    0.000 
#
# Total GULP energy -244959.873151 kJ/mol
# GULP energy per Si atom -5567.269844 kJ/mol
# Density = 1.681668 g / cm^3
# Si number density = 16.855040 Si / 1000 Ang^3
#
#
#
# Elastic Constant Matrix: (Units=GPa)
#
#
# Indices 1 2 3 4 5 6 
#
# 1 83.6084 43.2249 9.9761 0.0000 0.0000 0.0000
# 2 43.2249 127.7701 36.3872 0.0000 0.0000 0.0000
# 3 9.9761 36.3872 63.9576 0.0000 0.0000 0.0000
# 4 0.0000 0.0000 0.0000 10.4885 0.0000 0.0000
# 5 0.0000 0.0000 0.0000 0.0000 13.1824 0.0000
# 6 0.0000 0.0000 0.0000 0.0000 0.0000 18.9153
#
#
#
# Elastic Compliance Matrix: (Units=1/GPa)
#
#
# Indices 1 2 3 4 5 6 
#
# 1 0.014517 -0.005091 0.000632 0.000000 0.000000 0.000000
# 2 -0.005091 0.011125 -0.005535 0.000000 0.000000 0.000000
# 3 0.000632 -0.005535 0.018686 0.000000 0.000000 0.000000
# 4 0.000000 0.000000 0.000000 0.095342 0.000000 0.000000
# 5 0.000000 0.000000 0.000000 0.000000 0.075859 0.000000
# 6 0.000000 0.000000 0.000000 0.000000 0.000000 0.052867
#
#
# Mechanical properties :
#
#
# Convention : Reuss Voigt Hill
#
# Bulk Modulus (GPa) = 41.08528 50.50139 45.79333
# Shear Modulus (GPa) = 16.86347 20.90043 18.88195
#
# Velocity S-wave (km/s) = 3.16650 3.52520 3.35065
# Velocity P-wave (km/s) = 6.14797 6.82617 6.49593
#
# Compressibility (1/GPa) = 0.02433962
#
# Stress axis : x y z
#
# Youngs Moduli (GPa) = 68.88368 89.88492 53.51599
#
# Poissons Ratio (x) = 0.45762 -0.03383
# Poissons Ratio (y) = 0.35070 0.29623
# Poissons Ratio (z) = -0.04354 0.49755
#
# Static dielectric constant tensor:
#      x y z
#    x 1.801760 0.000000 0.000000 
#    y 0.000000 1.573010 0.000000 
#    z 0.000000 0.000000 1.558540 
# 
# From -- ./inp_files/42418.got.cif
#   From: 2010.05.17/outbox.cif.g08.bks.cpg/sg68_22_cif.got.tgz:42418.got - 2010.06.03 18:57:09.
