data_PCOD9506929
_publ_section_title
;
Structure prediction by ZEFSAII (Michael W. Deem and Ramdas Pophale) SiO2 
 PCOD9506929
Probable space group: C C C A
;
_chemical_formula_sum "Si O2"
_cell_formula_units_Z 64
_cell_length_a 9.926096
_cell_length_b 17.187966
_cell_length_c 17.670435
_cell_angle_alpha 90.000000
_cell_angle_beta 90.000000
_cell_angle_gamma 90.000000
_cell_volume 3014.742323
_symmetry_space_group_name_H-M "C C C A"
_symmetry_group_IT_number 68
_space_group.IT_coordinate_system_code '2'
_symmetry_cell_setting 'orthorhombic'
loop_
_space_group_symop_operation_xyz
x,y,z
-x,1/2-y,z
x,1/2-y,1/2-z
-x,y,1/2-z
-x,-y,-z
x,1/2+y,-z
-x,1/2+y,1/2+z
x,-y,1/2+z
1/2+x,1/2+y,z
1/2-x,-y,z
1/2+x,-y,1/2-z
1/2-x,1/2+y,1/2-z
1/2-x,1/2-y,-z
1/2+x,y,-z
1/2-x,y,1/2+z
1/2+x,1/2-y,1/2+z
loop_
_atom_site_type_symbol
_atom_site_label
_atom_site_fract_x
_atom_site_fract_y
_atom_site_fract_z
Si Si1 0.158527 0.735794 0.073277
Si Si2 0.132006 0.437341 0.566403
Si Si3 0.894016 0.959735 0.889670
Si Si4 0.377542 0.703124 0.328382
O O1 0.175017 0.646019 0.096661
O O2 0.231451 0.790124 0.133813
O O3 0.000000 0.750000 0.062861
O O4 0.250000 0.750000 0.000000
O O5 0.250000 0.500000 0.569748
O O6 0.098363 0.426980 0.476649
O O7 0.006796 0.473860 0.610483
O O8 0.914581 0.887660 0.833206
O O9 0.750000 0.000000 0.879046
O O10 0.500000 0.750000 0.369692
O O11 0.366895 0.750000 0.250000
#
# Coordination Sequence:
#
# PCOD9506929 Si02
#       4
#    16  16  16  16
#     4  12  24  39  65  99 132 170 221 280 337 401
#     4  10  21  34  62  94 126 160 208 275 332 387
#     4  10  20  37  60  90 125 163 210 266 330 388
#     4  11  24  43  64  90 130 176 221 269 336 408
#
# _framework density 21.229012000000001
#
# number of rings (size 3 to 8) (size 9 to 14) (size 15 to 20)
#    0.000    1.250    2.500    3.750    7.000    0.500 
#    0.000    6.250    0.000    0.000    0.000    0.000 
#    0.000    0.000    0.000    0.000    0.000    0.000 
#
# Total GULP energy -178663.628470 kJ/mol
# GULP energy per Si atom -5583.238390 kJ/mol
# Density = 2.118069 g / cm^3
# Si number density = 21.229012 Si / 1000 Ang^3
#
#
#
# Elastic Constant Matrix: (Units=GPa)
#
#
# Indices 1 2 3 4 5 6 
#
# 1 149.3029 31.3722 32.2345 0.0000 0.0000 0.0000
# 2 31.3722 138.1456 19.4399 0.0000 0.0000 0.0000
# 3 32.2345 19.4399 53.8464 0.0000 0.0000 0.0000
# 4 0.0000 0.0000 0.0000 18.2606 0.0000 0.0000
# 5 0.0000 0.0000 0.0000 0.0000 11.6403 0.0000
# 6 0.0000 0.0000 0.0000 0.0000 0.0000 38.0679
#
#
#
# Elastic Compliance Matrix: (Units=1/GPa)
#
#
# Indices 1 2 3 4 5 6 
#
# 1 0.007872 -0.001185 -0.004285 0.000000 0.000000 0.000000
# 2 -0.001185 0.007804 -0.002108 0.000000 0.000000 0.000000
# 3 -0.004285 -0.002108 0.021897 0.000000 0.000000 0.000000
# 4 0.000000 0.000000 0.000000 0.054763 0.000000 0.000000
# 5 0.000000 0.000000 0.000000 0.000000 0.085908 0.000000
# 6 0.000000 0.000000 0.000000 0.000000 0.000000 0.026269
#
#
# Mechanical properties :
#
#
# Convention : Reuss Voigt Hill
#
# Bulk Modulus (GPa) = 44.60654 56.37646 50.49150
# Shear Modulus (GPa) = 22.01267 30.81030 26.41149
#
# Velocity S-wave (km/s) = 3.22361 3.81377 3.53104
# Velocity P-wave (km/s) = 5.90874 6.78285 6.36083
#
# Compressibility (1/GPa) = 0.02241824
#
# Stress axis : x y z
#
# Youngs Moduli (GPa) = 127.03593 128.13158 45.66732
#
# Poissons Ratio (x) = 0.15180 0.19567
# Poissons Ratio (y) = 0.15050 0.09629
# Poissons Ratio (z) = 0.54430 0.27015
#
# Static dielectric constant tensor:
#      x y z
#    x 1.780240 0.000000 0.000000 
#    y 0.000000 1.750310 0.000000 
#    z 0.000000 0.000000 1.829890 
# 
# From -- ./inp_files/27872.got.cif
#   From: 2010.05.17/outbox.cif.g08.bks.cpg/sg68_14_cif.got.tgz:27872.got - 2010.06.03 18:57:09.
