data_PCOD9506391
_publ_section_title
;
Structure prediction by ZEFSAII (Michael W. Deem and Ramdas Pophale) SiO2 
 PCOD9506391
Probable space group: C C C A
;
_chemical_formula_sum "Si O2"
_cell_formula_units_Z 104
_cell_length_a 16.757331
_cell_length_b 15.482118
_cell_length_c 19.934121
_cell_angle_alpha 90.000000
_cell_angle_beta 90.000000
_cell_angle_gamma 90.000000
_cell_volume 5171.687938
_symmetry_space_group_name_H-M "C C C A"
_symmetry_group_IT_number 68
_space_group.IT_coordinate_system_code '2'
_symmetry_cell_setting 'orthorhombic'
loop_
_space_group_symop_operation_xyz
x,y,z
-x,1/2-y,z
x,1/2-y,1/2-z
-x,y,1/2-z
-x,-y,-z
x,1/2+y,-z
-x,1/2+y,1/2+z
x,-y,1/2+z
1/2+x,1/2+y,z
1/2-x,-y,z
1/2+x,-y,1/2-z
1/2-x,1/2+y,1/2-z
1/2-x,1/2-y,-z
1/2+x,y,-z
1/2-x,y,1/2+z
1/2+x,1/2-y,1/2+z
loop_
_atom_site_type_symbol
_atom_site_label
_atom_site_fract_x
_atom_site_fract_y
_atom_site_fract_z
Si Si1 0.670119 0.047473 0.655487
Si Si2 0.683811 0.223591 0.405649
Si Si3 0.580410 0.407668 0.717905
Si Si4 0.000000 0.750000 0.637897
Si Si5 0.845666 0.693582 0.939880
Si Si6 0.581097 0.122525 0.160942
Si Si7 0.399722 0.093507 0.181322
O O1 0.637963 0.104846 0.717955
O O2 0.684076 0.102689 0.589392
O O3 0.750000 0.000000 0.678155
O O4 0.607989 0.972422 0.637953
O O5 0.777818 0.242445 0.411519
O O6 0.653913 0.203253 0.480647
O O7 0.632864 0.304100 0.375651
O O8 0.667943 0.143441 0.357832
O O9 0.500000 0.447397 0.750000
O O10 0.548131 0.322169 0.681263
O O11 0.610435 0.489789 0.675732
O O12 0.067609 0.707288 0.591942
O O13 0.485594 0.126749 0.153729
O O14 0.600750 0.121138 0.240525
#
# Coordination Sequence:
#
# PCOD9506391 Si02
#       7
#    16  16  16   8  16  16  16
#     4  11  21  41  68  94 127 174 218 276 340 394
#     4  11  24  42  61  94 135 173 223 271 320 408
#     4  11  21  41  64  96 130 161 218 269 323 396
#     4  12  25  44  68  92 135 184 212 278 331 394
#     4  11  26  43  60  96 133 179 226 259 334 407
#     4  10  19  38  68  96 123 163 217 280 343 396
#     4  10  20  39  66 100 126 156 218 283 338 386
#
# _framework density 20.109487999999999
#
# number of rings (size 3 to 8) (size 9 to 14) (size 15 to 20)
#    0.000    1.231    6.154    1.154    2.154    3.692 
#    5.538    1.538    0.000    0.000    0.000    0.000 
#    0.000    0.000    0.000    0.000    0.000    0.000 
#
# Total GULP energy -290210.545205 kJ/mol
# GULP energy per Si atom -5580.972023 kJ/mol
# Density = 2.006372 g / cm^3
# Si number density = 20.109488 Si / 1000 Ang^3
#
#
#
# Elastic Constant Matrix: (Units=GPa)
#
#
# Indices 1 2 3 4 5 6 
#
# 1 39.6987 2.3113 38.0282 0.0000 0.0000 0.0000
# 2 2.3113 85.8109 48.0454 0.0000 0.0000 0.0000
# 3 38.0282 48.0454 72.8691 0.0000 0.0000 0.0000
# 4 0.0000 0.0000 0.0000 -10.3596 0.0000 0.0000
# 5 0.0000 0.0000 0.0000 0.0000 19.9617 0.0000
# 6 0.0000 0.0000 0.0000 0.0000 0.0000 28.3660
#
#
#
# Elastic Compliance Matrix: (Units=1/GPa)
#
#
# Indices 1 2 3 4 5 6 
#
# 1 0.097260 0.040897 -0.077722 0.000000 0.000000 0.000000
# 2 0.040897 0.035670 -0.044861 0.000000 0.000000 0.000000
# 3 -0.077722 -0.044861 0.083863 0.000000 0.000000 0.000000
# 4 0.000000 0.000000 0.000000 -0.096528 0.000000 0.000000
# 5 0.000000 0.000000 0.000000 0.000000 0.050096 0.000000
# 6 0.000000 0.000000 0.000000 0.000000 0.000000 0.035253
#
#
# Mechanical properties :
#
#
# Convention : Reuss Voigt Hill
#
# Bulk Modulus (GPa) = 18.71971 41.68318 30.20144
# Shear Modulus (GPa) = 12.92680 14.92652 13.92666
#
# Velocity S-wave (km/s) = 2.53814 2.72741 2.63447
# Velocity P-wave (km/s) = 4.23304 5.53999 4.93001
#
# Compressibility (1/GPa) = 0.05341963
#
# Stress axis : x y z
#
# Youngs Moduli (GPa) = 10.28171 28.03498 11.92423
#
# Poissons Ratio (x) = -1.14654 0.92678
# Poissons Ratio (y) = -0.42049 0.53494
# Poissons Ratio (z) = 0.79911 1.25768
#
# Static dielectric constant tensor:
#      x y z
#    x 1.770870 0.000000 0.000000 
#    y 0.000000 1.760540 0.000000 
#    z 0.000000 0.000000 1.691960 
# 
# From -- ./inp_files/39637.got.cif
#   From: 2010.05.17/outbox.cif.g08.bks.cpg/sg68_20_cif.got.tgz:39637.got - 2010.06.03 18:57:09.
