data_PCOD9506742
_publ_section_title
;
Structure prediction by ZEFSAII (Michael W. Deem and Ramdas Pophale) SiO2 
 PCOD9506742
Probable space group: C C C A
;
_chemical_formula_sum "Si O2"
_cell_formula_units_Z 76
_cell_length_a 5.245934
_cell_length_b 28.308988
_cell_length_c 34.183951
_cell_angle_alpha 90.000000
_cell_angle_beta 90.000000
_cell_angle_gamma 90.000000
_cell_volume 5076.558837
_symmetry_space_group_name_H-M "C C C A"
_symmetry_group_IT_number 68
_space_group.IT_coordinate_system_code '2'
_symmetry_cell_setting 'orthorhombic'
loop_
_space_group_symop_operation_xyz
x,y,z
-x,1/2-y,z
x,1/2-y,1/2-z
-x,y,1/2-z
-x,-y,-z
x,1/2+y,-z
-x,1/2+y,1/2+z
x,-y,1/2+z
1/2+x,1/2+y,z
1/2-x,-y,z
1/2+x,-y,1/2-z
1/2-x,1/2+y,1/2-z
1/2-x,1/2-y,-z
1/2+x,y,-z
1/2-x,y,1/2+z
1/2+x,1/2-y,1/2+z
loop_
_atom_site_type_symbol
_atom_site_label
_atom_site_fract_x
_atom_site_fract_y
_atom_site_fract_z
Si Si1 0.716378 0.084219 0.838542
Si Si2 0.248044 0.442563 0.523071
Si Si3 0.779295 0.442950 0.885799
Si Si4 0.258781 0.658270 0.774309
Si Si5 0.750000 0.500000 0.723553
Si Si6 0.000000 0.250000 0.750000
O O1 0.458973 0.079484 0.863243
O O2 0.740491 0.133675 0.816016
O O3 0.710694 0.044945 0.804352
O O4 0.958270 0.072525 0.865606
O O5 0.250000 0.500000 0.522321
O O6 0.507569 0.426682 0.502483
O O7 0.225738 0.429647 0.568491
O O8 0.750000 0.500000 0.882904
O O9 0.500000 0.637373 0.750000
O O10 0.327277 0.713999 0.774980
O O11 0.000000 0.650951 0.750000
O O12 0.500000 0.506184 0.750000
#
# Coordination Sequence:
#
# PCOD9506742 Si02
#       6
#    16  16  16  16   8   4
#     4  12  21  33  47  68  97 132 163 211 247 288
#     4   9  17  29  46  65  87 125 171 204 230 278
#     4  11  20  33  46  68 101 133 166 204 248 279
#     4  10  20  36  53  70  92 123 168 206 255 293
#     4  12  22  32  44  62  90 130 172 200 230 274
#     4   8  22  36  58  72  90 120 170 216 258 298
#
# _framework density 14.970770999999999
#
# number of rings (size 3 to 8) (size 9 to 14) (size 15 to 20)
#    0.632    0.842    2.105    5.368    0.000    3.368 
#    0.000    0.000    0.000    0.000    0.000    0.000 
#    0.000    0.000    0.000   18.947    0.000    0.000 
#
# Total GULP energy -211951.227595 kJ/mol
# GULP energy per Si atom -5577.663884 kJ/mol
# Density = 1.493670 g / cm^3
# Si number density = 14.970771 Si / 1000 Ang^3
#
#
#
# Elastic Constant Matrix: (Units=GPa)
#
#
# Indices 1 2 3 4 5 6 
#
# 1 74.6109 -13.0439 14.7330 0.0000 0.0000 0.0000
# 2 -13.0439 48.1179 12.5087 0.0000 0.0000 0.0000
# 3 14.7330 12.5087 81.1231 0.0000 0.0000 0.0000
# 4 0.0000 0.0000 0.0000 7.7442 0.0000 0.0000
# 5 0.0000 0.0000 0.0000 0.0000 21.7971 0.0000
# 6 0.0000 0.0000 0.0000 0.0000 0.0000 3.6912
#
#
#
# Elastic Compliance Matrix: (Units=1/GPa)
#
#
# Indices 1 2 3 4 5 6 
#
# 1 0.014957 0.004960 -0.003481 0.000000 0.000000 0.000000
# 2 0.004960 0.023295 -0.004493 0.000000 0.000000 0.000000
# 3 -0.003481 -0.004493 0.013652 0.000000 0.000000 0.000000
# 4 0.000000 0.000000 0.000000 0.129129 0.000000 0.000000
# 5 0.000000 0.000000 0.000000 0.000000 0.045878 0.000000
# 6 0.000000 0.000000 0.000000 0.000000 0.000000 0.270917
#
#
# Mechanical properties :
#
#
# Convention : Reuss Voigt Hill
#
# Bulk Modulus (GPa) = 21.79811 25.80527 23.80169
# Shear Modulus (GPa) = 9.63116 19.29009 14.46062
#
# Velocity S-wave (km/s) = 2.53915 3.59349 3.11130
# Velocity P-wave (km/s) = 4.81544 5.87299 5.37031
#
# Compressibility (1/GPa) = 0.04587554
#
# Stress axis : x y z
#
# Youngs Moduli (GPa) = 66.85673 42.92834 73.24984
#
# Poissons Ratio (x) = -0.21291 0.25500
# Poissons Ratio (y) = -0.33158 0.32908
# Poissons Ratio (z) = 0.23274 0.19286
#
# Static dielectric constant tensor:
#      x y z
#    x 1.509960 0.000000 0.000000 
#    y 0.000000 1.503390 0.000000 
#    z 0.000000 0.000000 1.479400 
# 
# From -- ./inp_files/53431.got.cif
#   From: 2010.05.17/outbox.cif.g08.bks.cpg/sg68_27_cif.got.tgz:53431.got - 2010.06.03 18:57:09.
