data_PCOD9506674
_publ_section_title
;
Structure prediction by ZEFSAII (Michael W. Deem and Ramdas Pophale) SiO2 
 PCOD9506674
Probable space group: C C C A
;
_chemical_formula_sum "Si O2"
_cell_formula_units_Z 116
_cell_length_a 7.446500
_cell_length_b 22.375160
_cell_length_c 33.705934
_cell_angle_alpha 90.000000
_cell_angle_beta 90.000000
_cell_angle_gamma 90.000000
_cell_volume 5615.969098
_symmetry_space_group_name_H-M "C C C A"
_symmetry_group_IT_number 68
_space_group.IT_coordinate_system_code '2'
_symmetry_cell_setting 'orthorhombic'
loop_
_space_group_symop_operation_xyz
x,y,z
-x,1/2-y,z
x,1/2-y,1/2-z
-x,y,1/2-z
-x,-y,-z
x,1/2+y,-z
-x,1/2+y,1/2+z
x,-y,1/2+z
1/2+x,1/2+y,z
1/2-x,-y,z
1/2+x,-y,1/2-z
1/2-x,1/2+y,1/2-z
1/2-x,1/2-y,-z
1/2+x,y,-z
1/2-x,y,1/2+z
1/2+x,1/2-y,1/2+z
loop_
_atom_site_type_symbol
_atom_site_label
_atom_site_fract_x
_atom_site_fract_y
_atom_site_fract_z
Si Si1 0.964918 0.626336 0.622343
Si Si2 0.966694 0.679303 0.047384
Si Si3 0.000000 0.750000 0.750000
Si Si4 0.048340 0.820069 0.540521
Si Si5 0.539797 0.000003 0.847619
Si Si6 0.664943 0.555302 0.273241
Si Si7 0.241796 0.669945 0.689987
Si Si8 0.965624 0.362837 0.632573
O O1 0.032439 0.651644 0.580197
O O2 0.979522 0.554252 0.621171
O O3 0.754233 0.642512 0.632724
O O4 0.090739 0.651626 0.657307
O O5 0.755817 0.671825 0.048288
O O6 0.034238 0.652067 0.088324
O O7 0.000000 0.750000 0.048118
O O8 0.020970 0.655829 0.004003
O O9 0.860866 0.785228 0.720118
O O10 0.000000 0.750000 0.539470
O O11 0.491685 0.932840 0.859758
O O12 0.750000 0.000000 0.837829
O O13 0.422834 0.022421 0.810906
O O14 0.500000 0.583465 0.250000
O O15 0.750000 0.500000 0.250029
O O16 0.787883 0.610038 0.284913
O O17 0.424373 0.678272 0.664018
#
# Coordination Sequence:
#
# PCOD9506674 Si02
#       8
#    16  16   4  16  16  16  16  16
#     4   9  22  37  64  92 123 163 209 253 318 370
#     4  10  21  34  57  87 121 156 214 254 303 370
#     4  12  28  48  62 100 132 178 216 270 322 400
#     4  10  20  35  56  89 122 160 206 259 306 362
#     4   9  18  37  59  87 118 150 201 259 303 373
#     4  11  20  36  60  91 113 153 205 263 314 371
#     4  11  24  42  66  85 133 165 212 255 320 378
#     4  10  21  40  64  92 118 167 208 253 316 377
#
# _framework density 20.655384999999999
#
# number of rings (size 3 to 8) (size 9 to 14) (size 15 to 20)
#    0.000    1.931    2.069    2.069    4.828    1.103 
#    0.000    2.069    0.000    0.000    0.000    0.000 
#    0.000    0.000    0.000    0.000    0.000    0.000 
#
# Total GULP energy -322980.871896 kJ/mol
# GULP energy per Si atom -5568.635722 kJ/mol
# Density = 2.060837 g / cm^3
# Si number density = 20.655385 Si / 1000 Ang^3
#
#
#
# Elastic Constant Matrix: (Units=GPa)
#
#
# Indices 1 2 3 4 5 6 
#
# 1 67.3223 12.0236 15.7981 0.0000 0.0000 0.0000
# 2 12.0236 71.9086 55.6637 0.0000 0.0000 0.0000
# 3 15.7981 55.6637 121.8263 0.0000 0.0000 0.0000
# 4 0.0000 0.0000 0.0000 14.9076 0.0000 0.0000
# 5 0.0000 0.0000 0.0000 0.0000 22.1956 0.0000
# 6 0.0000 0.0000 0.0000 0.0000 0.0000 16.0686
#
#
#
# Elastic Compliance Matrix: (Units=1/GPa)
#
#
# Indices 1 2 3 4 5 6 
#
# 1 0.015438 -0.001596 -0.001273 0.000000 0.000000 0.000000
# 2 -0.001596 0.021682 -0.009700 0.000000 0.000000 0.000000
# 3 -0.001273 -0.009700 0.012805 0.000000 0.000000 0.000000
# 4 0.000000 0.000000 0.000000 0.067080 0.000000 0.000000
# 5 0.000000 0.000000 0.000000 0.000000 0.045054 0.000000
# 6 0.000000 0.000000 0.000000 0.000000 0.000000 0.062233
#
#
# Mechanical properties :
#
#
# Convention : Reuss Voigt Hill
#
# Bulk Modulus (GPa) = 40.34225 47.55867 43.95046
# Shear Modulus (GPa) = 19.40308 22.47250 20.93779
#
# Velocity S-wave (km/s) = 3.06824 3.30202 3.18728
# Velocity P-wave (km/s) = 5.66795 6.13291 5.90501
#
# Compressibility (1/GPa) = 0.02478791
#
# Stress axis : x y z
#
# Youngs Moduli (GPa) = 64.77680 46.12147 78.09254
#
# Poissons Ratio (x) = 0.07362 0.09938
# Poissons Ratio (y) = 0.10339 0.75747
# Poissons Ratio (z) = 0.08244 0.44736
#
# Static dielectric constant tensor:
#      x y z
#    x 1.725360 0.000000 0.000000 
#    y 0.000000 1.771990 0.000000 
#    z 0.000000 0.000000 1.814180 
# 
# From -- ./inp_files/54207.got.cif
#   From: 2010.05.17/outbox.cif.g08.bks.cpg/sg68_28_cif.got.tgz:54207.got - 2010.06.03 18:57:09.
