data_PCOD9506230
_publ_section_title
;
Structure prediction by ZEFSAII (Michael W. Deem and Ramdas Pophale) SiO2 
 PCOD9506230
Probable space group: C C C A
;
_chemical_formula_sum "Si O2"
_cell_formula_units_Z 104
_cell_length_a 18.014588
_cell_length_b 16.867191
_cell_length_c 16.876890
_cell_angle_alpha 90.000000
_cell_angle_beta 90.000000
_cell_angle_gamma 90.000000
_cell_volume 5128.135792
_symmetry_space_group_name_H-M "C C C A"
_symmetry_group_IT_number 68
_space_group.IT_coordinate_system_code '2'
_symmetry_cell_setting 'orthorhombic'
loop_
_space_group_symop_operation_xyz
x,y,z
-x,1/2-y,z
x,1/2-y,1/2-z
-x,y,1/2-z
-x,-y,-z
x,1/2+y,-z
-x,1/2+y,1/2+z
x,-y,1/2+z
1/2+x,1/2+y,z
1/2-x,-y,z
1/2+x,-y,1/2-z
1/2-x,1/2+y,1/2-z
1/2-x,1/2-y,-z
1/2+x,y,-z
1/2-x,y,1/2+z
1/2+x,1/2-y,1/2+z
loop_
_atom_site_type_symbol
_atom_site_label
_atom_site_fract_x
_atom_site_fract_y
_atom_site_fract_z
Si Si1 0.278413 0.421268 0.063445
Si Si2 0.500000 0.476022 0.250000
Si Si3 0.057046 0.573110 0.995871
Si Si4 0.964407 0.166041 0.637789
Si Si5 0.697491 0.222087 0.164661
Si Si6 0.370133 0.954852 0.166472
Si Si7 0.780985 0.106867 0.887006
O O1 0.250000 0.500000 0.105605
O O2 0.365016 0.437446 0.043388
O O3 0.259857 0.343287 0.113675
O O4 0.241388 0.411876 0.977129
O O5 0.505303 0.414157 0.322632
O O6 0.573772 0.529056 0.238605
O O7 0.027608 0.649153 0.043835
O O8 0.080884 0.581476 0.904910
O O9 0.000000 0.500000 0.000000
O O10 0.881617 0.178615 0.671648
O O11 0.000000 0.250000 0.657294
O O12 0.725375 0.250000 0.250000
O O13 0.689502 0.304303 0.117959
O O14 0.293536 0.904786 0.166812
O O15 0.339820 0.041733 0.140739
#
# Coordination Sequence:
#
# PCOD9506230 Si02
#       7
#    16   8  16  16  16  16  16
#     4  10  20  39  62  86 116 162 213 256 303 373
#     4  12  21  36  58  90 131 158 192 256 325 392
#     4  10  19  36  56  84 117 150 203 248 296 364
#     4  11  22  34  57  85 122 158 195 253 320 371
#     4  11  23  37  54  91 127 153 200 260 324 374
#     4  10  20  36  61  86 120 161 207 250 312 367
#     4  10  19  40  62  82 120 169 210 257 301 380
#
# _framework density 20.280273000000001
#
# number of rings (size 3 to 8) (size 9 to 14) (size 15 to 20)
#    0.000    1.538    4.615    3.462    0.000    0.000 
#    8.308    0.000    0.000    0.000    0.000    0.000 
#    0.000    0.000    0.000    0.000    0.000    0.000 
#
# Total GULP energy -289757.200746 kJ/mol
# GULP energy per Si atom -5572.253860 kJ/mol
# Density = 2.023411 g / cm^3
# Si number density = 20.280273 Si / 1000 Ang^3
#
#
#
# Elastic Constant Matrix: (Units=GPa)
#
#
# Indices 1 2 3 4 5 6 
#
# 1 46.3017 -6.1119 19.7338 0.0000 0.0000 0.0000
# 2 -6.1119 68.3876 25.5282 0.0000 0.0000 0.0000
# 3 19.7338 25.5282 57.6360 0.0000 0.0000 0.0000
# 4 0.0000 0.0000 0.0000 29.6082 0.0000 0.0000
# 5 0.0000 0.0000 0.0000 0.0000 18.8232 0.0000
# 6 0.0000 0.0000 0.0000 0.0000 0.0000 21.6053
#
#
#
# Elastic Compliance Matrix: (Units=1/GPa)
#
#
# Indices 1 2 3 4 5 6 
#
# 1 0.028027 0.007293 -0.012826 0.000000 0.000000 0.000000
# 2 0.007293 0.019417 -0.011097 0.000000 0.000000 0.000000
# 3 -0.012826 -0.011097 0.026657 0.000000 0.000000 0.000000
# 4 0.000000 0.000000 0.000000 0.033774 0.000000 0.000000
# 5 0.000000 0.000000 0.000000 0.000000 0.053126 0.000000
# 6 0.000000 0.000000 0.000000 0.000000 0.000000 0.046285
#
#
# Mechanical properties :
#
#
# Convention : Reuss Voigt Hill
#
# Bulk Modulus (GPa) = 24.48621 27.84728 26.16674
# Shear Modulus (GPa) = 19.67273 22.88570 21.27921
#
# Velocity S-wave (km/s) = 3.11793 3.36292 3.24274
# Velocity P-wave (km/s) = 5.00621 5.37029 5.19144
#
# Compressibility (1/GPa) = 0.04083931
#
# Stress axis : x y z
#
# Youngs Moduli (GPa) = 35.68041 51.50229 37.51389
#
# Poissons Ratio (x) = -0.37558 0.48115
# Poissons Ratio (y) = -0.26020 0.41629
# Poissons Ratio (z) = 0.45764 0.57152
#
# Static dielectric constant tensor:
#      x y z
#    x 1.958170 0.000000 0.000000 
#    y 0.000000 1.370910 0.000000 
#    z 0.000000 0.000000 1.787670 
# 
# From -- ./inp_files/32114.got.cif
#   From: 2010.05.17/outbox.cif.g08.bks.cpg/sg68_17_cif.got.tgz:32114.got - 2010.06.03 18:57:09.
