data_PCOD9506793
_publ_section_title
;
Structure prediction by ZEFSAII (Michael W. Deem and Ramdas Pophale) SiO2 
 PCOD9506793
Probable space group: C C C A
;
_chemical_formula_sum "Si O2"
_cell_formula_units_Z 60
_cell_length_a 12.458427
_cell_length_b 10.716555
_cell_length_c 18.643630
_cell_angle_alpha 90.000000
_cell_angle_beta 90.000000
_cell_angle_gamma 90.000000
_cell_volume 2489.137481
_symmetry_space_group_name_H-M "C C C A"
_symmetry_group_IT_number 68
_space_group.IT_coordinate_system_code '2'
_symmetry_cell_setting 'orthorhombic'
loop_
_space_group_symop_operation_xyz
x,y,z
-x,1/2-y,z
x,1/2-y,1/2-z
-x,y,1/2-z
-x,-y,-z
x,1/2+y,-z
-x,1/2+y,1/2+z
x,-y,1/2+z
1/2+x,1/2+y,z
1/2-x,-y,z
1/2+x,-y,1/2-z
1/2-x,1/2+y,1/2-z
1/2-x,1/2-y,-z
1/2+x,y,-z
1/2-x,y,1/2+z
1/2+x,1/2-y,1/2+z
loop_
_atom_site_type_symbol
_atom_site_label
_atom_site_fract_x
_atom_site_fract_y
_atom_site_fract_z
Si Si1 0.615979 0.795690 0.361313
Si Si2 0.692287 0.371776 0.336006
Si Si3 0.500000 0.250000 0.250000
Si Si4 0.250000 0.500000 0.907384
Si Si5 0.876808 0.758450 0.468479
O O1 0.500000 0.750000 0.335705
O O2 0.714257 0.728216 0.323868
O O3 0.652926 0.939006 0.361754
O O4 0.620287 0.759599 0.446297
O O5 0.750000 0.500000 0.318840
O O6 0.582930 0.335694 0.295553
O O7 0.670506 0.355379 0.421479
O O8 0.313881 0.613499 0.947799
O O9 0.000000 0.750000 0.445993
#
# Coordination Sequence:
#
# PCOD9506793 Si02
#       5
#    16  16   4   8  16
#     4  10  24  38  67 113 138 180 221 276 362 423
#     4  11  25  47  74  96 137 184 235 293 340 405
#     4  12  28  56  66  98 128 196 252 280 350 388
#     4  10  20  36  58  96 146 180 214 268 328 428
#     4  10  22  39  68 105 143 183 217 273 359 422
#
# _framework density 24.104735000000002
#
# number of rings (size 3 to 8) (size 9 to 14) (size 15 to 20)
#    0.000    1.600    1.333    3.200   11.200    2.133 
#   14.400    0.000    0.000    0.000    0.000    0.000 
#    0.000    0.000    0.000    0.000    0.000    0.000 
#
# Total GULP energy -167249.257337 kJ/mol
# GULP energy per Si atom -5574.975245 kJ/mol
# Density = 2.404987 g / cm^3
# Si number density = 24.104735 Si / 1000 Ang^3
#
#
#
# Elastic Constant Matrix: (Units=GPa)
#
#
# Indices 1 2 3 4 5 6 
#
# 1 241.6221 53.7204 42.9062 0.0000 0.0000 0.0000
# 2 53.7204 106.2449 32.6005 0.0000 0.0000 0.0000
# 3 42.9062 32.6005 112.1927 0.0000 0.0000 0.0000
# 4 0.0000 0.0000 0.0000 -37.8679 0.0000 0.0000
# 5 0.0000 0.0000 0.0000 0.0000 48.3142 0.0000
# 6 0.0000 0.0000 0.0000 0.0000 0.0000 45.8977
#
#
#
# Elastic Compliance Matrix: (Units=1/GPa)
#
#
# Indices 1 2 3 4 5 6 
#
# 1 0.004816 -0.002053 -0.001245 0.000000 0.000000 0.000000
# 2 -0.002053 0.011209 -0.002472 0.000000 0.000000 0.000000
# 3 -0.001245 -0.002472 0.010108 0.000000 0.000000 0.000000
# 4 0.000000 0.000000 0.000000 -0.026408 0.000000 0.000000
# 5 0.000000 0.000000 0.000000 0.000000 0.020698 0.000000
# 6 0.000000 0.000000 0.000000 0.000000 0.000000 0.021788
#
#
# Mechanical properties :
#
#
# Convention : Reuss Voigt Hill
#
# Bulk Modulus (GPa) = 68.52935 79.83487 74.18211
# Shear Modulus (GPa) = 85.30186 33.32430 59.31308
#
# Velocity S-wave (km/s) = 5.95524 3.72220 4.96587
# Velocity P-wave (km/s) = 8.70506 7.18784 7.98257
#
# Compressibility (1/GPa) = 0.01459229
#
# Stress axis : x y z
#
# Youngs Moduli (GPa) = 207.62761 89.21557 98.93409
#
# Poissons Ratio (x) = 0.18317 0.12321
# Poissons Ratio (y) = 0.42629 0.24455
# Poissons Ratio (z) = 0.25856 0.22052
#
# Static dielectric constant tensor:
#      x y z
#    x 1.944550 0.000000 0.000000 
#    y 0.000000 2.224230 0.000000 
#    z 0.000000 0.000000 2.019410 
# 
# From -- ./inp_files/37090.got.cif
#   From: 2010.05.17/outbox.cif.g08.bks.cpg/sg68_19_cif.got.tgz:37090.got - 2010.06.03 18:57:09.
