data_PCOD9506764
_publ_section_title
;
Structure prediction by ZEFSAII (Michael W. Deem and Ramdas Pophale) SiO2 
 PCOD9506764
Probable space group: C C C A
;
_chemical_formula_sum "Si O2"
_cell_formula_units_Z 112
_cell_length_a 14.066607
_cell_length_b 14.399294
_cell_length_c 26.542669
_cell_angle_alpha 90.000000
_cell_angle_beta 90.000000
_cell_angle_gamma 90.000000
_cell_volume 5376.196631
_symmetry_space_group_name_H-M "C C C A"
_symmetry_group_IT_number 68
_space_group.IT_coordinate_system_code '2'
_symmetry_cell_setting 'orthorhombic'
loop_
_space_group_symop_operation_xyz
x,y,z
-x,1/2-y,z
x,1/2-y,1/2-z
-x,y,1/2-z
-x,-y,-z
x,1/2+y,-z
-x,1/2+y,1/2+z
x,-y,1/2+z
1/2+x,1/2+y,z
1/2-x,-y,z
1/2+x,-y,1/2-z
1/2-x,1/2+y,1/2-z
1/2-x,1/2-y,-z
1/2+x,y,-z
1/2-x,y,1/2+z
1/2+x,1/2-y,1/2+z
loop_
_atom_site_type_symbol
_atom_site_label
_atom_site_fract_x
_atom_site_fract_y
_atom_site_fract_z
Si Si1 0.849284 0.360038 0.541289
Si Si2 0.339220 0.256262 0.305437
Si Si3 0.446732 0.847949 0.071010
Si Si4 0.182789 0.351312 0.529177
Si Si5 0.985674 0.598257 0.306515
Si Si6 0.727202 0.597935 0.134293
Si Si7 0.468177 0.962117 0.918729
O O1 0.835273 0.250602 0.552169
O O2 0.790329 0.371019 0.489173
O O3 0.791593 0.412682 0.584417
O O4 0.955641 0.396553 0.550944
O O5 0.297020 0.250000 0.250000
O O6 0.387457 0.156158 0.313105
O O7 0.429224 0.326504 0.306629
O O8 0.264536 0.308403 0.339827
O O9 0.500000 0.750000 0.076409
O O10 0.379069 0.879383 0.116970
O O11 0.518054 0.933029 0.064005
O O12 0.377613 0.846361 0.022674
O O13 0.134710 0.424397 0.565974
O O14 0.000000 0.554898 0.250000
O O15 0.990395 0.543562 0.359022
O O16 0.750000 0.500000 0.162559
#
# Coordination Sequence:
#
# PCOD9506764 Si02
#       7
#    16  16  16  16  16  16  16
#     4  10  20  36  56  93 122 159 209 256 315 387
#     4   9  17  31  56  91 123 145 192 267 327 363
#     4  11  24  40  56  85 127 165 215 261 305 379
#     4  10  23  35  58  92 126 158 206 261 319 387
#     4   9  18  32  59 101 124 146 201 272 326 373
#     4  11  19  36  61  87 116 164 216 255 306 393
#     4  12  20  37  66  85 127 173 207 260 327 376
#
# _framework density 20.832571000000002
#
# number of rings (size 3 to 8) (size 9 to 14) (size 15 to 20)
#    0.000    1.714    2.857    3.429    2.000    0.000 
#    0.000    1.429    9.429    5.143    0.000    0.000 
#    0.000    0.000    0.000    0.000    0.000    0.000 
#
# Total GULP energy -312179.475782 kJ/mol
# GULP energy per Si atom -5574.633496 kJ/mol
# Density = 2.078516 g / cm^3
# Si number density = 20.832571 Si / 1000 Ang^3
#
#
#
# Elastic Constant Matrix: (Units=GPa)
#
#
# Indices 1 2 3 4 5 6 
#
# 1 59.3811 10.0764 27.8454 0.0000 0.0000 0.0000
# 2 10.0764 67.3665 42.0383 0.0000 0.0000 0.0000
# 3 27.8454 42.0383 85.6391 0.0000 0.0000 0.0000
# 4 0.0000 0.0000 0.0000 13.6887 0.0000 0.0000
# 5 0.0000 0.0000 0.0000 0.0000 10.9994 0.0000
# 6 0.0000 0.0000 0.0000 0.0000 0.0000 32.4460
#
#
#
# Elastic Compliance Matrix: (Units=1/GPa)
#
#
# Indices 1 2 3 4 5 6 
#
# 1 0.019980 0.001536 -0.007250 0.000000 0.000000 0.000000
# 2 0.001536 0.021517 -0.011062 0.000000 0.000000 0.000000
# 3 -0.007250 -0.011062 0.019464 0.000000 0.000000 0.000000
# 4 0.000000 0.000000 0.000000 0.073053 0.000000 0.000000
# 5 0.000000 0.000000 0.000000 0.000000 0.090914 0.000000
# 6 0.000000 0.000000 0.000000 0.000000 0.000000 0.030820
#
#
# Mechanical properties :
#
#
# Convention : Reuss Voigt Hill
#
# Bulk Modulus (GPa) = 36.48451 41.36744 38.92597
# Shear Modulus (GPa) = 16.75396 20.25526 18.50461
#
# Velocity S-wave (km/s) = 2.83895 3.12154 2.98359
# Velocity P-wave (km/s) = 5.31953 5.73517 5.53126
#
# Compressibility (1/GPa) = 0.02740889
#
# Stress axis : x y z
#
# Youngs Moduli (GPa) = 50.05109 46.47440 51.37620
#
# Poissons Ratio (x) = -0.07138 0.37249
# Poissons Ratio (y) = -0.07687 0.56831
# Poissons Ratio (z) = 0.36288 0.51409
#
# Static dielectric constant tensor:
#      x y z
#    x 1.782690 0.000000 0.000000 
#    y 0.000000 1.850240 0.000000 
#    z 0.000000 0.000000 1.804250 
# 
# From -- ./inp_files/50983.got.cif
#   From: 2010.05.17/outbox.cif.g08.bks.cpg/sg68_26_cif.got.tgz:50983.got - 2010.06.03 18:57:09.
