data_PCOD9506847
_publ_section_title
;
Structure prediction by ZEFSAII (Michael W. Deem and Ramdas Pophale) SiO2 
 PCOD9506847
Probable space group: C C C A
;
_chemical_formula_sum "Si O2"
_cell_formula_units_Z 88
_cell_length_a 13.182309
_cell_length_b 14.216527
_cell_length_c 19.426070
_cell_angle_alpha 90.000000
_cell_angle_beta 90.000000
_cell_angle_gamma 90.000000
_cell_volume 3640.574737
_symmetry_space_group_name_H-M "C C C A"
_symmetry_group_IT_number 68
_space_group.IT_coordinate_system_code '2'
_symmetry_cell_setting 'orthorhombic'
loop_
_space_group_symop_operation_xyz
x,y,z
-x,1/2-y,z
x,1/2-y,1/2-z
-x,y,1/2-z
-x,-y,-z
x,1/2+y,-z
-x,1/2+y,1/2+z
x,-y,1/2+z
1/2+x,1/2+y,z
1/2-x,-y,z
1/2+x,-y,1/2-z
1/2-x,1/2+y,1/2-z
1/2-x,1/2-y,-z
1/2+x,y,-z
1/2-x,y,1/2+z
1/2+x,1/2-y,1/2+z
loop_
_atom_site_type_symbol
_atom_site_label
_atom_site_fract_x
_atom_site_fract_y
_atom_site_fract_z
Si Si1 0.500000 0.892970 0.750000
Si Si2 0.745347 0.387525 0.896060
Si Si3 0.050740 0.146736 0.180501
Si Si4 0.262776 0.887190 0.737713
Si Si5 0.963367 0.356371 0.461481
Si Si6 0.967397 0.856408 0.102351
O O1 0.381525 0.859518 0.729642
O O2 0.470716 0.918904 0.828553
O O3 0.750000 0.500000 0.900049
O O4 0.733466 0.362542 0.815911
O O5 0.652235 0.353887 0.939726
O O6 0.851515 0.348439 0.920912
O O7 0.171565 0.151932 0.190980
O O8 0.000000 0.250000 0.178960
O O9 0.000000 0.099585 0.250000
O O10 0.022805 0.105719 0.105749
O O11 0.250000 0.000000 0.730084
O O12 0.000000 0.250000 0.472343
O O13 0.975185 0.399321 0.537209
O O14 0.000000 0.750000 0.121998
#
# Coordination Sequence:
#
# PCOD9506847 Si02
#       6
#     8  16  16  16  16  16
#     4  10  23  42  60  90 127 170 206 256 327 384
#     4  10  22  40  61  90 129 165 197 259 322 363
#     4  10  20  36  62  96 117 157 214 262 298 362
#     4  10  22  38  64  91 128 168 210 259 312 379
#     4  10  22  39  64  93 123 159 212 264 308 366
#     4  10  23  41  61  87 124 164 206 256 315 380
#
# _framework density 24.172008000000002
#
# number of rings (size 3 to 8) (size 9 to 14) (size 15 to 20)
#    0.000    2.000    1.818    0.273    1.273    9.455 
#    3.273    1.818    0.000    0.000    0.000    0.000 
#    0.000    0.000    0.000    0.000    0.000    0.000 
#
# Total GULP energy -245358.764033 kJ/mol
# GULP energy per Si atom -5576.335546 kJ/mol
# Density = 2.411699 g / cm^3
# Si number density = 24.172008 Si / 1000 Ang^3
#
#
#
# Elastic Constant Matrix: (Units=GPa)
#
#
# Indices 1 2 3 4 5 6 
#
# 1 219.2211 26.8335 47.8693 0.0000 0.0000 0.0000
# 2 26.8335 87.2355 10.0295 0.0000 0.0000 0.0000
# 3 47.8693 10.0295 152.7324 0.0000 0.0000 0.0000
# 4 0.0000 0.0000 0.0000 26.4291 0.0000 0.0000
# 5 0.0000 0.0000 0.0000 0.0000 37.7140 0.0000
# 6 0.0000 0.0000 0.0000 0.0000 0.0000 68.1804
#
#
#
# Elastic Compliance Matrix: (Units=1/GPa)
#
#
# Indices 1 2 3 4 5 6 
#
# 1 0.005057 -0.001384 -0.001494 0.000000 0.000000 0.000000
# 2 -0.001384 0.011929 -0.000350 0.000000 0.000000 0.000000
# 3 -0.001494 -0.000350 0.007039 0.000000 0.000000 0.000000
# 4 0.000000 0.000000 0.000000 0.037837 0.000000 0.000000
# 5 0.000000 0.000000 0.000000 0.000000 0.026515 0.000000
# 6 0.000000 0.000000 0.000000 0.000000 0.000000 0.014667
#
#
# Mechanical properties :
#
#
# Convention : Reuss Voigt Hill
#
# Bulk Modulus (GPa) = 56.91600 69.85041 63.38320
# Shear Modulus (GPa) = 43.34402 51.42849 47.38626
#
# Velocity S-wave (km/s) = 4.23915 4.61760 4.43242
# Velocity P-wave (km/s) = 6.89623 7.57559 7.24388
#
# Compressibility (1/GPa) = 0.01756975
#
# Stress axis : x y z
#
# Youngs Moduli (GPa) = 197.73563 83.82875 142.07248
#
# Poissons Ratio (x) = 0.11600 0.21228
# Poissons Ratio (y) = 0.27363 0.04967
# Poissons Ratio (z) = 0.29545 0.02931
#
# Static dielectric constant tensor:
#      x y z
#    x 1.911980 0.000000 0.000000 
#    y 0.000000 0.875550 0.000000 
#    z 0.000000 0.000000 1.955260 
# 
# From -- ./inp_files/37483.got.cif
#   From: 2010.05.17/outbox.cif.g08.bks.cpg/sg68_19_cif.got.tgz:37483.got - 2010.06.03 18:57:09.
