data_PCOD9506557
_publ_section_title
;
Structure prediction by ZEFSAII (Michael W. Deem and Ramdas Pophale) SiO2 
 PCOD9506557
Probable space group: C C C A
;
_chemical_formula_sum "Si O2"
_cell_formula_units_Z 60
_cell_length_a 5.117220
_cell_length_b 23.934975
_cell_length_c 27.137949
_cell_angle_alpha 90.000000
_cell_angle_beta 90.000000
_cell_angle_gamma 90.000000
_cell_volume 3323.870452
_symmetry_space_group_name_H-M "C C C A"
_symmetry_group_IT_number 68
_space_group.IT_coordinate_system_code '2'
_symmetry_cell_setting 'orthorhombic'
loop_
_space_group_symop_operation_xyz
x,y,z
-x,1/2-y,z
x,1/2-y,1/2-z
-x,y,1/2-z
-x,-y,-z
x,1/2+y,-z
-x,1/2+y,1/2+z
x,-y,1/2+z
1/2+x,1/2+y,z
1/2-x,-y,z
1/2+x,-y,1/2-z
1/2-x,1/2+y,1/2-z
1/2-x,1/2-y,-z
1/2+x,y,-z
1/2-x,y,1/2+z
1/2+x,1/2-y,1/2+z
loop_
_atom_site_type_symbol
_atom_site_label
_atom_site_fract_x
_atom_site_fract_y
_atom_site_fract_z
Si Si1 0.462253 0.811063 0.343883
Si Si2 0.500000 0.750000 0.965083
Si Si3 0.461635 0.853147 0.609968
Si Si4 0.500000 0.750000 0.250000
Si Si5 0.243977 0.067117 0.529766
O O1 0.500000 0.750000 0.370151
O O2 0.747864 0.837557 0.348518
O O3 0.366825 0.791269 0.289647
O O4 0.249943 0.851519 0.367383
O O5 0.475218 0.696207 0.930299
O O6 0.250000 0.750000 0.000000
O O7 0.358024 0.906320 0.580170
O O8 0.532156 0.084557 0.511993
O O9 0.250000 0.000000 0.533042
#
# Coordination Sequence:
#
# PCOD9506557 Si02
#       5
#    16   8  16   4  16
#     4  10  20  34  52  73 108 132 168 211 259 327
#     4  12  20  27  42  65 100 133 162 197 252 306
#     4  12  20  34  49  76 103 137 173 220 257 307
#     4   8  20  36  52  78 108 142 164 204 268 344
#     4  10  21  37  54  73 103 144 187 224 257 302
#
# _framework density 18.051245000000002
#
# number of rings (size 3 to 8) (size 9 to 14) (size 15 to 20)
#    0.800    0.533    2.667    4.800    0.000    2.133 
#    0.000    0.000    0.000    0.000    0.000    3.733 
#    0.000    0.000    0.000    0.000    0.000    0.000 
#
# Total GULP energy -167054.615091 kJ/mol
# GULP energy per Si atom -5568.487170 kJ/mol
# Density = 1.801016 g / cm^3
# Si number density = 18.051245 Si / 1000 Ang^3
#
#
#
# Elastic Constant Matrix: (Units=GPa)
#
#
# Indices 1 2 3 4 5 6 
#
# 1 109.5641 16.3333 20.6080 0.0000 0.0000 0.0000
# 2 16.3333 35.1754 16.1414 0.0000 0.0000 0.0000
# 3 20.6080 16.1414 72.1064 0.0000 0.0000 0.0000
# 4 0.0000 0.0000 0.0000 20.6195 0.0000 0.0000
# 5 0.0000 0.0000 0.0000 0.0000 12.7245 0.0000
# 6 0.0000 0.0000 0.0000 0.0000 0.0000 19.5390
#
#
#
# Elastic Compliance Matrix: (Units=1/GPa)
#
#
# Indices 1 2 3 4 5 6 
#
# 1 0.010068 -0.003739 -0.002041 0.000000 0.000000 0.000000
# 2 -0.003739 0.033072 -0.006335 0.000000 0.000000 0.000000
# 3 -0.002041 -0.006335 0.015870 0.000000 0.000000 0.000000
# 4 0.000000 0.000000 0.000000 0.048498 0.000000 0.000000
# 5 0.000000 0.000000 0.000000 0.000000 0.078588 0.000000
# 6 0.000000 0.000000 0.000000 0.000000 0.000000 0.051180
#
#
# Mechanical properties :
#
#
# Convention : Reuss Voigt Hill
#
# Bulk Modulus (GPa) = 28.75076 35.89014 32.32045
# Shear Modulus (GPa) = 18.30847 21.49416 19.90132
#
# Velocity S-wave (km/s) = 3.18818 3.45444 3.32398
# Velocity P-wave (km/s) = 5.43273 5.98635 5.71625
#
# Compressibility (1/GPa) = 0.03478169
#
# Stress axis : x y z
#
# Youngs Moduli (GPa) = 99.32234 30.23713 63.01325
#
# Poissons Ratio (x) = 0.11305 0.12858
# Poissons Ratio (y) = 0.37133 0.39918
# Poissons Ratio (z) = 0.20267 0.19155
#
# Static dielectric constant tensor:
#      x y z
#    x 1.672500 0.000000 0.000000 
#    y 0.000000 1.633790 0.000000 
#    z 0.000000 0.000000 1.650080 
# 
# From -- ./inp_files/53105.got.cif
#   From: 2010.05.17/outbox.cif.g08.bks.cpg/sg68_27_cif.got.tgz:53105.got - 2010.06.03 18:57:09.
