data_PCOD9506487
_publ_section_title
;
Structure prediction by ZEFSAII (Michael W. Deem and Ramdas Pophale) SiO2 
 PCOD9506487
Probable space group: C C C A
;
_chemical_formula_sum "Si O2"
_cell_formula_units_Z 80
_cell_length_a 7.826875
_cell_length_b 25.173789
_cell_length_c 15.882295
_cell_angle_alpha 90.000000
_cell_angle_beta 90.000000
_cell_angle_gamma 90.000000
_cell_volume 3129.321933
_symmetry_space_group_name_H-M "C C C A"
_symmetry_group_IT_number 68
_space_group.IT_coordinate_system_code '2'
_symmetry_cell_setting 'orthorhombic'
loop_
_space_group_symop_operation_xyz
x,y,z
-x,1/2-y,z
x,1/2-y,1/2-z
-x,y,1/2-z
-x,-y,-z
x,1/2+y,-z
-x,1/2+y,1/2+z
x,-y,1/2+z
1/2+x,1/2+y,z
1/2-x,-y,z
1/2+x,-y,1/2-z
1/2-x,1/2+y,1/2-z
1/2-x,1/2-y,-z
1/2+x,y,-z
1/2-x,y,1/2+z
1/2+x,1/2-y,1/2+z
loop_
_atom_site_type_symbol
_atom_site_label
_atom_site_fract_x
_atom_site_fract_y
_atom_site_fract_z
Si Si1 0.657778 0.391948 0.143153
Si Si2 0.250000 0.500000 0.800253
Si Si3 0.926383 0.473660 0.413892
Si Si4 0.310517 0.727556 0.835628
Si Si5 0.500000 0.250000 0.958321
Si Si6 0.530832 0.874117 0.488651
O O1 0.694576 0.437395 0.211922
O O2 0.667758 0.334374 0.181617
O O3 0.800240 0.386799 0.066994
O O4 0.489067 0.395736 0.084298
O O5 0.427112 0.484792 0.847387
O O6 0.750000 0.500000 0.386749
O O7 0.000000 0.500000 0.500000
O O8 0.905599 0.411496 0.432873
O O9 0.500000 0.750000 0.851499
O O10 0.237452 0.750000 0.750000
O O11 0.176951 0.743937 0.906705
O O12 0.509251 0.311150 0.993752
#
# Coordination Sequence:
#
# PCOD9506487 Si02
#       6
#    16   8  16  16   8  16
#     4  10  21  33  55  84 117 151 181 231 277 343
#     4  10  20  32  48  80 112 152 178 218 274 326
#     4  11  17  28  46  70 109 152 178 205 259 343
#     4  10  23  41  60  82 104 150 201 234 282 329
#     4  10  23  38  56  82 117 144 184 238 280 332
#     4  10  21  31  50  85 117 149 181 217 291 339
#
# _framework density 25.564641999999999
#
# number of rings (size 3 to 8) (size 9 to 14) (size 15 to 20)
#    0.000    1.800    3.000    1.500    4.200    1.600 
#    0.000    0.000    0.000    0.000   33.800    0.000 
#    0.000    0.000    0.000    0.000    0.000    0.000 
#
# Total GULP energy -222738.411548 kJ/mol
# GULP energy per Si atom -5568.460289 kJ/mol
# Density = 2.550646 g / cm^3
# Si number density = 25.564642 Si / 1000 Ang^3
#
#
#
# Elastic Constant Matrix: (Units=GPa)
#
#
# Indices 1 2 3 4 5 6 
#
# 1 116.1095 11.6909 -2.7860 0.0000 0.0000 0.0000
# 2 11.6909 202.9445 21.2990 0.0000 0.0000 0.0000
# 3 -2.7860 21.2990 27.0635 0.0000 0.0000 0.0000
# 4 0.0000 0.0000 0.0000 14.1028 0.0000 0.0000
# 5 0.0000 0.0000 0.0000 0.0000 10.9938 0.0000
# 6 0.0000 0.0000 0.0000 0.0000 0.0000 32.4461
#
#
#
# Elastic Compliance Matrix: (Units=1/GPa)
#
#
# Indices 1 2 3 4 5 6 
#
# 1 0.008712 -0.000650 0.001408 0.000000 0.000000 0.000000
# 2 -0.000650 0.005420 -0.004332 0.000000 0.000000 0.000000
# 3 0.001408 -0.004332 0.040504 0.000000 0.000000 0.000000
# 4 0.000000 0.000000 0.000000 0.070908 0.000000 0.000000
# 5 0.000000 0.000000 0.000000 0.000000 0.090961 0.000000
# 6 0.000000 0.000000 0.000000 0.000000 0.000000 0.030820
#
#
# Mechanical properties :
#
#
# Convention : Reuss Voigt Hill
#
# Bulk Modulus (GPa) = 21.05771 45.16947 33.11359
# Shear Modulus (GPa) = 18.49789 32.56945 25.53367
#
# Velocity S-wave (km/s) = 2.69285 3.57319 3.16379
# Velocity P-wave (km/s) = 4.23362 5.89327 5.13099
#
# Compressibility (1/GPa) = 0.04748855
#
# Stress axis : x y z
#
# Youngs Moduli (GPa) = 114.78739 184.51803 24.68865
#
# Poissons Ratio (x) = 0.11987 -0.03476
# Poissons Ratio (y) = 0.07457 0.10695
# Poissons Ratio (z) = -0.16163 0.79934
#
# Static dielectric constant tensor:
#      x y z
#    x 2.074390 0.000000 0.000000 
#    y 0.000000 2.021830 0.000000 
#    z 0.000000 0.000000 2.163890 
# 
# From -- ./inp_files/43055.got.cif
#   From: 2010.05.17/outbox.cif.g08.bks.cpg/sg68_22_cif.got.tgz:43055.got - 2010.06.03 18:57:09.
