data_PCOD9506999
_publ_section_title
;
Structure prediction by ZEFSAII (Michael W. Deem and Ramdas Pophale) SiO2 
 PCOD9506999
Probable space group: C C C A
;
_chemical_formula_sum "Si O2"
_cell_formula_units_Z 96
_cell_length_a 23.416342
_cell_length_b 12.331837
_cell_length_c 18.705701
_cell_angle_alpha 90.000000
_cell_angle_beta 90.000000
_cell_angle_gamma 90.000000
_cell_volume 5401.580045
_symmetry_space_group_name_H-M "C C C A"
_symmetry_group_IT_number 68
_space_group.IT_coordinate_system_code '2'
_symmetry_cell_setting 'orthorhombic'
loop_
_space_group_symop_operation_xyz
x,y,z
-x,1/2-y,z
x,1/2-y,1/2-z
-x,y,1/2-z
-x,-y,-z
x,1/2+y,-z
-x,1/2+y,1/2+z
x,-y,1/2+z
1/2+x,1/2+y,z
1/2-x,-y,z
1/2+x,-y,1/2-z
1/2-x,1/2+y,1/2-z
1/2-x,1/2-y,-z
1/2+x,y,-z
1/2-x,y,1/2+z
1/2+x,1/2-y,1/2+z
loop_
_atom_site_type_symbol
_atom_site_label
_atom_site_fract_x
_atom_site_fract_y
_atom_site_fract_z
Si Si1 0.393008 0.885305 0.379444
Si Si2 0.167816 0.416377 0.257867
Si Si3 0.861935 0.151568 0.417150
Si Si4 0.293023 0.148327 0.290851
Si Si5 0.190976 0.065968 0.939715
Si Si6 0.008008 0.120945 0.038566
O O1 0.382800 0.879880 0.294551
O O2 0.362094 0.781082 0.412811
O O3 0.458592 0.882178 0.401933
O O4 0.360328 0.988533 0.412417
O O5 0.158317 0.392360 0.340485
O O6 0.226005 0.363524 0.227535
O O7 0.177570 0.542431 0.241683
O O8 0.824177 0.111449 0.483130
O O9 0.927547 0.119137 0.432695
O O10 0.317048 0.250000 0.250000
O O11 0.301498 0.152266 0.375746
O O12 0.250000 0.000000 0.940955
O O13 0.000000 0.250000 0.007256
O O14 0.000000 0.000000 0.000000
#
# Coordination Sequence:
#
# PCOD9506999 Si02
#       6
#    16  16  16  16  16  16
#     4  10  20  40  60  80 124 154 193 245 302 349
#     4  10  21  38  54  85 119 151 198 244 292 358
#     4  11  23  35  62  90 114 156 202 247 294 357
#     4  10  20  38  56  76 119 165 189 233 301 354
#     4  11  22  37  56  89 120 154 196 242 298 356
#     4  10  21  40  62  88 118 159 199 251 304 353
#
# _framework density 17.772576999999998
#
# number of rings (size 3 to 8) (size 9 to 14) (size 15 to 20)
#    0.000    1.667    5.000    1.500    2.333    2.667 
#    0.000    2.500    0.000    0.000    0.000    2.333 
#    0.000    0.000    0.000    0.000    0.000    0.000 
#
# Total GULP energy -267250.417458 kJ/mol
# GULP energy per Si atom -5567.717030 kJ/mol
# Density = 1.773213 g / cm^3
# Si number density = 17.772577 Si / 1000 Ang^3
#
#
#
# Elastic Constant Matrix: (Units=GPa)
#
#
# Indices 1 2 3 4 5 6 
#
# 1 58.2650 4.3003 31.8412 0.0000 0.0000 0.0000
# 2 4.3003 79.3469 38.4854 0.0000 0.0000 0.0000
# 3 31.8412 38.4854 156.5089 0.0000 0.0000 0.0000
# 4 0.0000 0.0000 0.0000 26.7535 0.0000 0.0000
# 5 0.0000 0.0000 0.0000 0.0000 24.8142 0.0000
# 6 0.0000 0.0000 0.0000 0.0000 0.0000 130.0421
#
#
#
# Elastic Compliance Matrix: (Units=1/GPa)
#
#
# Indices 1 2 3 4 5 6 
#
# 1 0.019377 0.000979 -0.004183 0.000000 0.000000 0.000000
# 2 0.000979 0.014359 -0.003730 0.000000 0.000000 0.000000
# 3 -0.004183 -0.003730 0.008158 0.000000 0.000000 0.000000
# 4 0.000000 0.000000 0.000000 0.037378 0.000000 0.000000
# 5 0.000000 0.000000 0.000000 0.000000 0.040299 0.000000
# 6 0.000000 0.000000 0.000000 0.000000 0.000000 0.007690
#
#
# Mechanical properties :
#
#
# Convention : Reuss Voigt Hill
#
# Bulk Modulus (GPa) = 35.68248 49.26385 42.47316
# Shear Modulus (GPa) = 33.22911 50.95491 42.09201
#
# Velocity S-wave (km/s) = 4.32868 5.36030 4.87187
# Velocity P-wave (km/s) = 6.71596 8.12955 7.45633
#
# Compressibility (1/GPa) = 0.02802496
#
# Stress axis : x y z
#
# Youngs Moduli (GPa) = 51.60871 69.64285 122.58554
#
# Poissons Ratio (x) = -0.06815 0.51274
# Poissons Ratio (y) = -0.05051 0.45724
# Poissons Ratio (z) = 0.21587 0.25976
#
# Static dielectric constant tensor:
#      x y z
#    x 1.599460 0.000000 0.000000 
#    y 0.000000 1.691920 0.000000 
#    z 0.000000 0.000000 1.808400 
# 
# From -- ./inp_files/29791.got.cif
#   From: 2010.05.17/outbox.cif.g08.bks.cpg/sg68_15_cif.got.tgz:29791.got - 2010.06.03 18:57:09.
