data_PCOD9506419
_publ_section_title
;
Structure prediction by ZEFSAII (Michael W. Deem and Ramdas Pophale) SiO2 
 PCOD9506419
Probable space group: C C C A
;
_chemical_formula_sum "Si O2"
_cell_formula_units_Z 96
_cell_length_a 16.867806
_cell_length_b 10.815232
_cell_length_c 26.157657
_cell_angle_alpha 90.000000
_cell_angle_beta 90.000000
_cell_angle_gamma 90.000000
_cell_volume 4771.921362
_symmetry_space_group_name_H-M "C C C A"
_symmetry_group_IT_number 68
_space_group.IT_coordinate_system_code '2'
_symmetry_cell_setting 'orthorhombic'
loop_
_space_group_symop_operation_xyz
x,y,z
-x,1/2-y,z
x,1/2-y,1/2-z
-x,y,1/2-z
-x,-y,-z
x,1/2+y,-z
-x,1/2+y,1/2+z
x,-y,1/2+z
1/2+x,1/2+y,z
1/2-x,-y,z
1/2+x,-y,1/2-z
1/2-x,1/2+y,1/2-z
1/2-x,1/2-y,-z
1/2+x,y,-z
1/2-x,y,1/2+z
1/2+x,1/2-y,1/2+z
loop_
_atom_site_type_symbol
_atom_site_label
_atom_site_fract_x
_atom_site_fract_y
_atom_site_fract_z
Si Si1 0.750000 0.500000 0.935945
Si Si2 0.231640 0.236510 0.102245
Si Si3 0.575981 0.091099 0.908490
Si Si4 0.000000 0.750000 0.511513
Si Si5 0.652654 0.882869 0.974199
Si Si6 0.771007 0.639999 0.712779
Si Si7 0.041558 0.617009 0.798745
O O1 0.743705 0.620524 0.900304
O O2 0.679722 0.457106 0.975015
O O3 0.137815 0.205215 0.099390
O O4 0.271270 0.180875 0.051381
O O5 0.257296 0.170997 0.155002
O O6 0.515490 0.134311 0.951428
O O7 0.537669 0.056620 0.854500
O O8 0.624565 0.979766 0.931957
O O9 0.080905 0.714276 0.482455
O O10 0.743694 0.750000 0.750000
O O11 0.750000 0.500000 0.727359
O O12 0.866478 0.639221 0.712485
O O13 0.000000 0.750000 0.804586
O O14 0.000000 0.554381 0.750000
#
# Coordination Sequence:
#
# PCOD9506419 Si02
#       7
#     8  16  16   8  16  16  16
#     4  12  22  38  68  90 130 178 232 272 324 414
#     4  11  23  41  65  94 129 175 225 274 337 400
#     4  11  21  38  63  90 125 165 215 274 328 394
#     4  12  24  36  55  96 129 160 226 266 326 390
#     4  12  23  42  61  91 132 179 217 275 338 399
#     4  11  24  43  71 104 137 174 224 289 343 409
#     4  10  19  39  66  98 124 167 224 273 329 405
#
# _framework density 20.117684000000001
#
# number of rings (size 3 to 8) (size 9 to 14) (size 15 to 20)
#    0.000    0.833    5.833    4.000    1.167    0.000 
#    0.000    1.667    0.000    0.500    0.000    0.000 
#    0.000    0.000    0.000    0.000    0.000    0.000 
#
# Total GULP energy -267775.018349 kJ/mol
# GULP energy per Si atom -5578.646216 kJ/mol
# Density = 2.007189 g / cm^3
# Si number density = 20.117684 Si / 1000 Ang^3
#
#
#
# Elastic Constant Matrix: (Units=GPa)
#
#
# Indices 1 2 3 4 5 6 
#
# 1 73.3462 9.5310 24.7910 0.0000 0.0000 0.0000
# 2 9.5310 95.6489 33.4092 0.0000 0.0000 0.0000
# 3 24.7910 33.4092 97.6624 0.0000 0.0000 0.0000
# 4 0.0000 0.0000 0.0000 -187.0396 0.0000 0.0000
# 5 0.0000 0.0000 0.0000 0.0000 29.1967 0.0000
# 6 0.0000 0.0000 0.0000 0.0000 0.0000 30.2802
#
#
#
# Elastic Compliance Matrix: (Units=1/GPa)
#
#
# Indices 1 2 3 4 5 6 
#
# 1 0.014916 -0.000186 -0.003723 0.000000 0.000000 0.000000
# 2 -0.000186 0.011876 -0.004015 0.000000 0.000000 0.000000
# 3 -0.003723 -0.004015 0.012558 0.000000 0.000000 0.000000
# 4 0.000000 0.000000 0.000000 -0.005346 0.000000 0.000000
# 5 0.000000 0.000000 0.000000 0.000000 0.034250 0.000000
# 6 0.000000 0.000000 0.000000 0.000000 0.000000 0.033025
#
#
# Mechanical properties :
#
#
# Convention : Reuss Voigt Hill
#
# Bulk Modulus (GPa) = 42.54971 44.68000 43.61485
# Shear Modulus (GPa) = 40.01221 -12.25080 13.88071
#
# Velocity S-wave (km/s) = 4.46456 -2.47038 2.62959
# Velocity P-wave (km/s) = 6.91178 3.75772 5.56296
#
# Compressibility (1/GPa) = 0.02350192
#
# Stress axis : x y z
#
# Youngs Moduli (GPa) = 67.04002 84.20350 79.63054
#
# Poissons Ratio (x) = 0.01566 0.29645
# Poissons Ratio (y) = 0.01247 0.31975
# Poissons Ratio (z) = 0.24958 0.33811
#
# Static dielectric constant tensor:
#      x y z
#    x 2.591120 0.000000 0.000000 
#    y 0.000000 1.733660 0.000000 
#    z 0.000000 0.000000 1.762560 
# 
# From -- ./inp_files/55217.got.cif
#   From: 2010.05.17/outbox.cif.g08.bks.cpg/sg68_28_cif.got.tgz:55217.got - 2010.06.03 18:57:09.
