data_PCOD9506958
_publ_section_title
;
Structure prediction by ZEFSAII (Michael W. Deem and Ramdas Pophale) SiO2 
 PCOD9506958
Probable space group: C C C A
;
_chemical_formula_sum "Si O2"
_cell_formula_units_Z 100
_cell_length_a 15.347336
_cell_length_b 18.956118
_cell_length_c 16.620582
_cell_angle_alpha 90.000000
_cell_angle_beta 90.000000
_cell_angle_gamma 90.000000
_cell_volume 4835.357980
_symmetry_space_group_name_H-M "C C C A"
_symmetry_group_IT_number 68
_space_group.IT_coordinate_system_code '2'
_symmetry_cell_setting 'orthorhombic'
loop_
_space_group_symop_operation_xyz
x,y,z
-x,1/2-y,z
x,1/2-y,1/2-z
-x,y,1/2-z
-x,-y,-z
x,1/2+y,-z
-x,1/2+y,1/2+z
x,-y,1/2+z
1/2+x,1/2+y,z
1/2-x,-y,z
1/2+x,-y,1/2-z
1/2-x,1/2+y,1/2-z
1/2-x,1/2-y,-z
1/2+x,y,-z
1/2-x,y,1/2+z
1/2+x,1/2-y,1/2+z
loop_
_atom_site_type_symbol
_atom_site_label
_atom_site_fract_x
_atom_site_fract_y
_atom_site_fract_z
Si Si1 0.111192 0.669049 0.620120
Si Si2 0.588942 0.513627 0.416816
Si Si3 0.596780 0.720255 0.553574
Si Si4 0.704486 0.192766 0.182003
Si Si5 0.394444 0.441181 0.242012
Si Si6 0.101125 0.053327 0.582618
Si Si7 0.000000 0.750000 0.750000
O O1 0.066134 0.595770 0.595708
O O2 0.113263 0.719828 0.542313
O O3 0.209152 0.655445 0.649134
O O4 0.059181 0.703183 0.692409
O O5 0.632875 0.487405 0.334872
O O6 0.637992 0.515177 0.502667
O O7 0.501515 0.466960 0.422405
O O8 0.500000 0.750000 0.568037
O O9 0.659956 0.767600 0.607186
O O10 0.607381 0.638066 0.577688
O O11 0.727990 0.250000 0.250000
O O12 0.639600 0.136695 0.222147
O O13 0.500000 0.441111 0.250000
O O14 0.363799 0.467573 0.329672
#
# Coordination Sequence:
#
# PCOD9506958 Si02
#       7
#    16  16  16  16  16  16   4
#     4  11  25  43  63  87 129 170 218 264 317 389
#     4   9  20  37  61  88 122 163 205 260 313 378
#     4  11  21  39  66  96 127 168 208 268 332 390
#     4  12  24  39  63  96 135 162 208 275 330 389
#     4  10  20  37  62  95 124 162 206 259 326 389
#     4   9  18  35  59  94 123 153 214 262 308 381
#     4  12  24  44  60  88 112 172 222 248 300 388
#
# _framework density 20.680992
#
# number of rings (size 3 to 8) (size 9 to 14) (size 15 to 20)
#    0.000    1.600    3.200    2.400    3.360    0.640 
#    0.000    0.000    0.000    1.920    0.000    0.000 
#    0.000    0.000    0.000    0.000    0.000    0.000 
#
# Total GULP energy -278968.944354 kJ/mol
# GULP energy per Si atom -5579.378887 kJ/mol
# Density = 2.063392 g / cm^3
# Si number density = 20.680992 Si / 1000 Ang^3
#
#
#
# Elastic Constant Matrix: (Units=GPa)
#
#
# Indices 1 2 3 4 5 6 
#
# 1 55.6552 8.6314 20.9217 0.0000 0.0000 0.0000
# 2 8.6314 50.5151 38.5769 0.0000 0.0000 0.0000
# 3 20.9217 38.5769 199.1412 0.0000 0.0000 0.0000
# 4 0.0000 0.0000 0.0000 35.7656 0.0000 0.0000
# 5 0.0000 0.0000 0.0000 0.0000 2.0901 0.0000
# 6 0.0000 0.0000 0.0000 0.0000 0.0000 6.2188
#
#
#
# Elastic Compliance Matrix: (Units=1/GPa)
#
#
# Indices 1 2 3 4 5 6 
#
# 1 0.018879 -0.002008 -0.001594 0.000000 0.000000 0.000000
# 2 -0.002008 0.023447 -0.004331 0.000000 0.000000 0.000000
# 3 -0.001594 -0.004331 0.006028 0.000000 0.000000 0.000000
# 4 0.000000 0.000000 0.000000 0.027960 0.000000 0.000000
# 5 0.000000 0.000000 0.000000 0.000000 0.478435 0.000000
# 6 0.000000 0.000000 0.000000 0.000000 0.000000 0.160804
#
#
# Mechanical properties :
#
#
# Convention : Reuss Voigt Hill
#
# Bulk Modulus (GPa) = 30.78234 49.06351 39.92293
# Shear Modulus (GPa) = 6.73629 24.62700 15.68165
#
# Velocity S-wave (km/s) = 1.80674 3.45455 2.75665
# Velocity P-wave (km/s) = 4.38966 6.29979 5.42938
#
# Compressibility (1/GPa) = 0.03248616
#
# Stress axis : x y z
#
# Youngs Moduli (GPa) = 52.97017 42.64995 165.89091
#
# Poissons Ratio (x) = 0.08565 0.26449
# Poissons Ratio (y) = 0.10637 0.71848
# Poissons Ratio (z) = 0.08445 0.18472
#
# Static dielectric constant tensor:
#      x y z
#    x 1.702460 0.000000 0.000000 
#    y 0.000000 1.708010 0.000000 
#    z 0.000000 0.000000 1.819540 
# 
# From -- ./inp_files/31099.got.cif
#   From: 2010.05.17/outbox.cif.g08.bks.cpg/sg68_16_cif.got.tgz:31099.got - 2010.06.03 18:57:09.
