data_PCOD9506513
_publ_section_title
;
Structure prediction by ZEFSAII (Michael W. Deem and Ramdas Pophale) SiO2 
 PCOD9506513
Probable space group: C C C A
;
_chemical_formula_sum "Si O2"
_cell_formula_units_Z 92
_cell_length_a 14.015561
_cell_length_b 14.047271
_cell_length_c 23.040785
_cell_angle_alpha 90.000000
_cell_angle_beta 90.000000
_cell_angle_gamma 90.000000
_cell_volume 4536.278589
_symmetry_space_group_name_H-M "C C C A"
_symmetry_group_IT_number 68
_space_group.IT_coordinate_system_code '2'
_symmetry_cell_setting 'orthorhombic'
loop_
_space_group_symop_operation_xyz
x,y,z
-x,1/2-y,z
x,1/2-y,1/2-z
-x,y,1/2-z
-x,-y,-z
x,1/2+y,-z
-x,1/2+y,1/2+z
x,-y,1/2+z
1/2+x,1/2+y,z
1/2-x,-y,z
1/2+x,-y,1/2-z
1/2-x,1/2+y,1/2-z
1/2-x,1/2-y,-z
1/2+x,y,-z
1/2-x,y,1/2+z
1/2+x,1/2-y,1/2+z
loop_
_atom_site_type_symbol
_atom_site_label
_atom_site_fract_x
_atom_site_fract_y
_atom_site_fract_z
Si Si1 0.204346 0.867149 0.582331
Si Si2 0.525944 0.604795 0.160869
Si Si3 0.750000 0.000000 0.022281
Si Si4 0.680846 0.852258 0.112146
Si Si5 0.500000 0.562208 0.750000
Si Si6 0.500000 0.250000 0.750000
Si Si7 0.787102 0.358327 0.767748
Si Si8 0.250000 0.000000 0.173038
O O1 0.208264 0.918437 0.520348
O O2 0.205959 0.752453 0.585899
O O3 0.281719 0.919536 0.624703
O O4 0.105777 0.898971 0.612501
O O5 0.426168 0.643223 0.136796
O O6 0.513500 0.505511 0.193916
O O7 0.557602 0.681005 0.208885
O O8 0.685857 0.936478 0.065075
O O9 0.751159 0.872027 0.166458
O O10 0.600461 0.616157 0.759026
O O11 0.774190 0.250000 0.750000
O O12 0.725535 0.422741 0.723556
#
# Coordination Sequence:
#
# PCOD9506513 Si02
#       8
#    16  16   8  16   8   4  16   8
#     4  11  23  43  67  91 130 175 230 279 321 389
#     4  11  22  37  67  96 134 168 216 281 331 390
#     4  11  27  44  64  90 131 183 228 278 328 393
#     4  12  24  43  66 100 130 176 228 277 339 389
#     4  11  23  39  57 100 144 170 208 258 342 420
#     4  10  20  32  58 104 126 150 206 268 328 396
#     4  12  24  39  67  96 138 173 207 269 340 411
#     4  11  21  40  62  96 127 175 210 264 338 389
#
# _framework density 20.280940999999999
#
# number of rings (size 3 to 8) (size 9 to 14) (size 15 to 20)
#    0.000    0.696    5.217    3.391    3.652    0.696 
#    0.000    0.000    0.000    2.087    0.000    0.000 
#    0.000    0.000    0.000    0.000    0.000    0.000 
#
# Total GULP energy -256075.583602 kJ/mol
# GULP energy per Si atom -5566.860513 kJ/mol
# Density = 2.023478 g / cm^3
# Si number density = 20.280941 Si / 1000 Ang^3
#
#
#
# Elastic Constant Matrix: (Units=GPa)
#
#
# Indices 1 2 3 4 5 6 
#
# 1 101.6906 34.0844 34.9850 0.0000 0.0000 0.0000
# 2 34.0844 145.1869 48.9585 0.0000 0.0000 0.0000
# 3 34.9850 48.9585 120.8851 0.0000 0.0000 0.0000
# 4 0.0000 0.0000 0.0000 51.6267 0.0000 0.0000
# 5 0.0000 0.0000 0.0000 0.0000 16.9286 0.0000
# 6 0.0000 0.0000 0.0000 0.0000 0.0000 22.9613
#
#
#
# Elastic Compliance Matrix: (Units=1/GPa)
#
#
# Indices 1 2 3 4 5 6 
#
# 1 0.011312 -0.001797 -0.002546 0.000000 0.000000 0.000000
# 2 -0.001797 0.008263 -0.002826 0.000000 0.000000 0.000000
# 3 -0.002546 -0.002826 0.010154 0.000000 0.000000 0.000000
# 4 0.000000 0.000000 0.000000 0.019370 0.000000 0.000000
# 5 0.000000 0.000000 0.000000 0.000000 0.059072 0.000000
# 6 0.000000 0.000000 0.000000 0.000000 0.000000 0.043551
#
#
# Mechanical properties :
#
#
# Convention : Reuss Voigt Hill
#
# Bulk Modulus (GPa) = 64.97834 67.09094 66.03464
# Shear Modulus (GPa) = 29.20733 34.95231 32.07982
#
# Velocity S-wave (km/s) = 3.79903 4.15590 3.98146
# Velocity P-wave (km/s) = 7.16604 7.49541 7.33258
#
# Compressibility (1/GPa) = 0.01538974
#
# Stress axis : x y z
#
# Youngs Moduli (GPa) = 88.40177 121.02704 98.48562
#
# Poissons Ratio (x) = 0.21750 0.25074
# Poissons Ratio (y) = 0.15887 0.27835
# Poissons Ratio (z) = 0.22507 0.34205
#
# Static dielectric constant tensor:
#      x y z
#    x 1.878520 0.000000 0.000000 
#    y 0.000000 1.807180 0.000000 
#    z 0.000000 0.000000 1.733800 
# 
# From -- ./inp_files/38658.got.cif
#   From: 2010.05.17/outbox.cif.g08.bks.cpg/sg68_20_cif.got.tgz:38658.got - 2010.06.03 18:57:09.
