data_PCOD9506509
_publ_section_title
;
Structure prediction by ZEFSAII (Michael W. Deem and Ramdas Pophale) SiO2 
 PCOD9506509
Probable space group: C C C A
;
_chemical_formula_sum "Si O2"
_cell_formula_units_Z 116
_cell_length_a 8.602124
_cell_length_b 25.109280
_cell_length_c 27.184183
_cell_angle_alpha 90.000000
_cell_angle_beta 90.000000
_cell_angle_gamma 90.000000
_cell_volume 5871.597048
_symmetry_space_group_name_H-M "C C C A"
_symmetry_group_IT_number 68
_space_group.IT_coordinate_system_code '2'
_symmetry_cell_setting 'orthorhombic'
loop_
_space_group_symop_operation_xyz
x,y,z
-x,1/2-y,z
x,1/2-y,1/2-z
-x,y,1/2-z
-x,-y,-z
x,1/2+y,-z
-x,1/2+y,1/2+z
x,-y,1/2+z
1/2+x,1/2+y,z
1/2-x,-y,z
1/2+x,-y,1/2-z
1/2-x,1/2+y,1/2-z
1/2-x,1/2-y,-z
1/2+x,y,-z
1/2-x,y,1/2+z
1/2+x,1/2-y,1/2+z
loop_
_atom_site_type_symbol
_atom_site_label
_atom_site_fract_x
_atom_site_fract_y
_atom_site_fract_z
Si Si1 0.500000 0.750000 0.750000
Si Si2 0.361493 0.608663 0.282370
Si Si3 0.043843 0.395005 0.437488
Si Si4 0.650599 0.052907 0.473818
Si Si5 0.024786 0.686545 0.639068
Si Si6 0.552436 0.435753 0.194413
Si Si7 0.829842 0.339511 0.807417
Si Si8 0.065905 0.496859 0.107444
O O1 0.399049 0.785868 0.786007
O O2 0.500000 0.583368 0.250000
O O3 0.426398 0.653699 0.319555
O O4 0.237945 0.570443 0.308622
O O5 0.258430 0.635788 0.239610
O O6 0.221696 0.408439 0.449977
O O7 0.939358 0.415115 0.483608
O O8 0.019365 0.337201 0.414325
O O9 0.987945 0.436138 0.395691
O O10 0.527121 0.029714 0.434624
O O11 0.750000 0.000000 0.489830
O O12 0.203779 0.671650 0.650820
O O13 0.000000 0.750000 0.643238
O O14 0.500000 0.446262 0.250000
O O15 0.467561 0.380207 0.179145
O O16 0.484390 0.479384 0.158845
O O17 0.250000 0.500000 0.101454
#
# Coordination Sequence:
#
# PCOD9506509 Si02
#       8
#     4  16  16  16  16  16  16  16
#     4  12  16  32  54  84 112 160 214 244 278 320
#     4   9  18  36  56  83 117 163 209 248 288 344
#     4  11  22  40  61  88 114 148 196 254 308 369
#     4  10  21  39  66  88 112 146 195 254 302 364
#     4  11  23  37  57  86 118 153 199 250 305 360
#     4  10  20  38  56  88 128 159 195 242 301 363
#     4  10  20  32  57  80 116 160 205 247 282 340
#     4  11  21  37  63  91 119 155 200 245 301 366
#
# _framework density 19.756125000000001
#
# number of rings (size 3 to 8) (size 9 to 14) (size 15 to 20)
#    0.000    1.655    2.069    5.379    0.000    1.931 
#    0.000    7.586    0.000    0.000    0.000    0.000 
#    0.000    0.000    0.000    0.000    0.000    0.000 
#
# Total GULP energy -324038.590996 kJ/mol
# GULP energy per Si atom -5586.872259 kJ/mol
# Density = 1.971116 g / cm^3
# Si number density = 19.756125 Si / 1000 Ang^3
#
#
#
# Elastic Constant Matrix: (Units=GPa)
#
#
# Indices 1 2 3 4 5 6 
#
# 1 151.0191 36.9683 45.1637 0.0000 0.0000 0.0000
# 2 36.9683 70.7444 39.6230 0.0000 0.0000 0.0000
# 3 45.1637 39.6230 71.0814 0.0000 0.0000 0.0000
# 4 0.0000 0.0000 0.0000 63.4654 0.0000 0.0000
# 5 0.0000 0.0000 0.0000 0.0000 25.1199 0.0000
# 6 0.0000 0.0000 0.0000 0.0000 0.0000 13.6969
#
#
#
# Elastic Compliance Matrix: (Units=1/GPa)
#
#
# Indices 1 2 3 4 5 6 
#
# 1 0.008371 -0.002029 -0.004188 0.000000 0.000000 0.000000
# 2 -0.002029 0.021044 -0.010441 0.000000 0.000000 0.000000
# 3 -0.004188 -0.010441 0.022549 0.000000 0.000000 0.000000
# 4 0.000000 0.000000 0.000000 0.015757 0.000000 0.000000
# 5 0.000000 0.000000 0.000000 0.000000 0.039809 0.000000
# 6 0.000000 0.000000 0.000000 0.000000 0.000000 0.073009
#
#
# Mechanical properties :
#
#
# Convention : Reuss Voigt Hill
#
# Bulk Modulus (GPa) = 53.62436 59.59498 56.60967
# Shear Modulus (GPa) = 22.72003 31.86243 27.29123
#
# Velocity S-wave (km/s) = 3.39488 4.02031 3.72076
# Velocity P-wave (km/s) = 6.52449 7.19592 6.86842
#
# Compressibility (1/GPa) = 0.01864824
#
# Stress axis : x y z
#
# Youngs Moduli (GPa) = 119.46486 47.52046 44.34699
#
# Poissons Ratio (x) = 0.09641 0.18571
# Poissons Ratio (y) = 0.24236 0.46304
# Poissons Ratio (z) = 0.50028 0.49618
#
# Static dielectric constant tensor:
#      x y z
#    x 1.727760 0.000000 0.000000 
#    y 0.000000 1.685400 0.000000 
#    z 0.000000 0.000000 1.693480 
# 
# From -- ./inp_files/49617.got.cif
#   From: 2010.05.17/outbox.cif.g08.bks.cpg/sg68_25_cif.got.tgz:49617.got - 2010.06.03 18:57:09.
