data_PCOD9506006
_publ_section_title
;
Structure prediction by ZEFSAII (Michael W. Deem and Ramdas Pophale) SiO2 
 PCOD9506006
Probable space group: C C C A
;
_chemical_formula_sum "Si O2"
_cell_formula_units_Z 96
_cell_length_a 26.643540
_cell_length_b 9.607917
_cell_length_c 14.571613
_cell_angle_alpha 90.000000
_cell_angle_beta 90.000000
_cell_angle_gamma 90.000000
_cell_volume 3730.171488
_symmetry_space_group_name_H-M "C C C A"
_symmetry_group_IT_number 68
_space_group.IT_coordinate_system_code '2'
_symmetry_cell_setting 'orthorhombic'
loop_
_space_group_symop_operation_xyz
x,y,z
-x,1/2-y,z
x,1/2-y,1/2-z
-x,y,1/2-z
-x,-y,-z
x,1/2+y,-z
-x,1/2+y,1/2+z
x,-y,1/2+z
1/2+x,1/2+y,z
1/2-x,-y,z
1/2+x,-y,1/2-z
1/2-x,1/2+y,1/2-z
1/2-x,1/2-y,-z
1/2+x,y,-z
1/2-x,y,1/2+z
1/2+x,1/2-y,1/2+z
loop_
_atom_site_type_symbol
_atom_site_label
_atom_site_fract_x
_atom_site_fract_y
_atom_site_fract_z
Si Si1 0.145822 0.054827 0.548942
Si Si2 0.973079 0.889360 0.116106
Si Si3 0.781778 0.905172 0.716088
Si Si4 0.558064 0.120456 0.902174
Si Si5 0.706935 0.678408 0.941128
Si Si6 0.896273 0.903786 0.648224
O O1 0.169330 0.197345 0.584588
O O2 0.113097 0.099914 0.461360
O O3 0.108972 0.967700 0.612252
O O4 0.183527 0.941989 0.504452
O O5 0.000000 0.750000 0.147738
O O6 0.926543 0.956003 0.169729
O O7 0.953287 0.856263 0.011621
O O8 0.012808 0.016333 0.120592
O O9 0.785438 0.750000 0.750000
O O10 0.733263 0.888402 0.646254
O O11 0.840064 0.921768 0.687416
O O12 0.750000 0.000000 0.788583
O O13 0.569889 0.262637 0.846869
O O14 0.750000 0.750000 0.000000
#
# Coordination Sequence:
#
# PCOD9506006 Si02
#       6
#    16  16  16  16  16  16
#     4  11  20  32  60  92 130 167 207 259 323 383
#     4  10  20  32  56  94 134 162 199 262 331 389
#     4  12  27  46  64  91 129 179 228 281 324 386
#     4  10  19  32  55  94 135 167 200 252 333 391
#     4  12  21  38  61  93 129 170 218 266 326 388
#     4  11  21  38  58  86 127 171 210 260 322 393
#
# _framework density 25.736082
#
# number of rings (size 3 to 8) (size 9 to 14) (size 15 to 20)
#    0.000    1.000    5.000    4.000    2.333    2.667 
#    0.000    0.000    0.000    2.000    0.000    1.167 
#    0.000    0.000    0.000    0.000    0.000    0.000 
#
# Total GULP energy -267902.499623 kJ/mol
# GULP energy per Si atom -5581.302075 kJ/mol
# Density = 2.567751 g / cm^3
# Si number density = 25.736082 Si / 1000 Ang^3
#
#
#
# Elastic Constant Matrix: (Units=GPa)
#
#
# Indices 1 2 3 4 5 6 
#
# 1 169.0757 120.4979 30.0416 0.0000 0.0000 0.0000
# 2 120.4979 193.2340 10.2495 0.0000 0.0000 0.0000
# 3 30.0416 10.2495 36.5685 0.0000 0.0000 0.0000
# 4 0.0000 0.0000 0.0000 -15.1826 0.0000 0.0000
# 5 0.0000 0.0000 0.0000 0.0000 -3.2157 0.0000
# 6 0.0000 0.0000 0.0000 0.0000 0.0000 97.3489
#
#
#
# Elastic Compliance Matrix: (Units=1/GPa)
#
#
# Indices 1 2 3 4 5 6 
#
# 1 0.012754 -0.007509 -0.008373 0.000000 0.000000 0.000000
# 2 -0.007509 0.009674 0.003457 0.000000 0.000000 0.000000
# 3 -0.008373 0.003457 0.033255 0.000000 0.000000 0.000000
# 4 0.000000 0.000000 0.000000 -0.065865 0.000000 0.000000
# 5 0.000000 0.000000 0.000000 0.000000 -0.310975 0.000000
# 6 0.000000 0.000000 0.000000 0.000000 0.000000 0.010272
#
#
# Mechanical properties :
#
#
# Convention : Reuss Voigt Hill
#
# Bulk Modulus (GPa) = 32.43151 80.05068 56.24110
# Shear Modulus (GPa) = -18.13189 31.66274 6.76542
#
# Velocity S-wave (km/s) = -2.65718 3.51135 1.62311
# Velocity P-wave (km/s) = 1.79298 6.90010 5.04114
#
# Compressibility (1/GPa) = 0.03083421
#
# Stress axis : x y z
#
# Youngs Moduli (GPa) = 78.40876 103.36838 30.07042
#
# Poissons Ratio (x) = 0.77618 0.25177
# Poissons Ratio (y) = 0.58876 -0.10396
# Poissons Ratio (z) = 0.65650 -0.35736
#
# Static dielectric constant tensor:
#      x y z
#    x 1.453540 0.000000 0.000000 
#    y 0.000000 17.792060 0.000000 
#    z 0.000000 0.000000 2.021390 
# 
# From -- ./inp_files/41260.got.cif
#   From: 2010.05.17/outbox.cif.g08.bks.cpg/sg68_21_cif.got.tgz:41260.got - 2010.06.03 18:57:09.
