data_PCOD9506956
_publ_section_title
;
Structure prediction by ZEFSAII (Michael W. Deem and Ramdas Pophale) SiO2 
 PCOD9506956
Probable space group: C C C A
;
_chemical_formula_sum "Si O2"
_cell_formula_units_Z 68
_cell_length_a 15.107507
_cell_length_b 23.141405
_cell_length_c 9.407078
_cell_angle_alpha 90.000000
_cell_angle_beta 90.000000
_cell_angle_gamma 90.000000
_cell_volume 3288.798550
_symmetry_space_group_name_H-M "C C C A"
_symmetry_group_IT_number 68
_space_group.IT_coordinate_system_code '2'
_symmetry_cell_setting 'orthorhombic'
loop_
_space_group_symop_operation_xyz
x,y,z
-x,1/2-y,z
x,1/2-y,1/2-z
-x,y,1/2-z
-x,-y,-z
x,1/2+y,-z
-x,1/2+y,1/2+z
x,-y,1/2+z
1/2+x,1/2+y,z
1/2-x,-y,z
1/2+x,-y,1/2-z
1/2-x,1/2+y,1/2-z
1/2-x,1/2-y,-z
1/2+x,y,-z
1/2-x,y,1/2+z
1/2+x,1/2-y,1/2+z
loop_
_atom_site_type_symbol
_atom_site_label
_atom_site_fract_x
_atom_site_fract_y
_atom_site_fract_z
Si Si1 0.000000 0.750000 0.750000
Si Si2 0.981053 0.441473 0.582135
Si Si3 0.189396 0.877118 0.145480
Si Si4 0.354416 0.635662 0.529208
Si Si5 0.405429 0.766168 0.520339
O O1 0.936565 0.783764 0.639919
O O2 0.047989 0.392010 0.525048
O O3 0.000000 0.448103 0.750000
O O4 0.000000 0.500000 0.500000
O O5 0.879968 0.421158 0.574801
O O6 0.182981 0.879210 0.315017
O O7 0.150968 0.814435 0.097654
O O8 0.287299 0.887030 0.088599
O O9 0.357563 0.704737 0.512305
O O10 0.500000 0.750000 0.591539
#
# Coordination Sequence:
#
# PCOD9506956 Si02
#       5
#     4  16  16  16  16
#     4   8  20  32  58  88 124 162 214 232 292 366
#     4  10  23  45  64  89 119 163 207 259 308 360
#     4  11  24  40  65  93 127 162 206 250 309 367
#     4  11  24  40  65  93 127 162 206 250 309 367
#     4  10  20  37  62  91 129 161 201 242 309 362
#
# _framework density 20.676242999999999
#
# number of rings (size 3 to 8) (size 9 to 14) (size 15 to 20)
#    0.706    0.941    2.353    1.412    3.294    3.765 
#    4.235    4.706    0.000    0.000    0.000    0.000 
#    0.000    0.000    0.000    0.000    0.000    0.000 
#
# Total GULP energy -189782.156919 kJ/mol
# GULP energy per Si atom -5581.828145 kJ/mol
# Density = 2.062918 g / cm^3
# Si number density = 20.676243 Si / 1000 Ang^3
#
#
#
# Elastic Constant Matrix: (Units=GPa)
#
#
# Indices 1 2 3 4 5 6 
#
# 1 52.7711 -13.7710 7.5555 0.0000 0.0000 0.0000
# 2 -13.7710 72.0883 -6.4260 0.0000 0.0000 0.0000
# 3 7.5555 -6.4260 48.9753 0.0000 0.0000 0.0000
# 4 0.0000 0.0000 0.0000 11.6885 0.0000 0.0000
# 5 0.0000 0.0000 0.0000 0.0000 27.9190 0.0000
# 6 0.0000 0.0000 0.0000 0.0000 0.0000 17.0827
#
#
#
# Elastic Compliance Matrix: (Units=1/GPa)
#
#
# Indices 1 2 3 4 5 6 
#
# 1 0.020279 0.003637 -0.002651 0.000000 0.000000 0.000000
# 2 0.003637 0.014689 0.001366 0.000000 0.000000 0.000000
# 3 -0.002651 0.001366 0.021007 0.000000 0.000000 0.000000
# 4 0.000000 0.000000 0.000000 0.085554 0.000000 0.000000
# 5 0.000000 0.000000 0.000000 0.000000 0.035818 0.000000
# 6 0.000000 0.000000 0.000000 0.000000 0.000000 0.058539
#
#
# Mechanical properties :
#
#
# Convention : Reuss Voigt Hill
#
# Bulk Modulus (GPa) = 16.48023 16.50573 16.49298
# Shear Modulus (GPa) = 19.88819 23.76981 21.82900
#
# Velocity S-wave (km/s) = 3.10479 3.39428 3.25276
# Velocity P-wave (km/s) = 4.56518 4.83341 4.70121
#
# Compressibility (1/GPa) = 0.06067876
#
# Stress axis : x y z
#
# Youngs Moduli (GPa) = 49.31311 68.08035 47.60386
#
# Poissons Ratio (x) = -0.24764 0.12620
# Poissons Ratio (y) = -0.17938 -0.06503
# Poissons Ratio (z) = 0.13074 -0.09301
#
# Static dielectric constant tensor:
#      x y z
#    x 1.756100 0.000000 0.000000 
#    y 0.000000 1.735920 0.000000 
#    z 0.000000 0.000000 1.743550 
# 
# From -- ./inp_files/5931.got.cif
#   From: 2010.05.17/outbox.cif.g08.bks.cpg/sg68_3_cif.got.tgz:5931.got - 2010.06.03 18:57:09.
