data_PCOD9506661
_publ_section_title
;
Structure prediction by ZEFSAII (Michael W. Deem and Ramdas Pophale) SiO2 
 PCOD9506661
Probable space group: C C C A
;
_chemical_formula_sum "Si O2"
_cell_formula_units_Z 80
_cell_length_a 29.702455
_cell_length_b 5.444669
_cell_length_c 24.707852
_cell_angle_alpha 90.000000
_cell_angle_beta 90.000000
_cell_angle_gamma 90.000000
_cell_volume 3995.754714
_symmetry_space_group_name_H-M "C C C A"
_symmetry_group_IT_number 68
_space_group.IT_coordinate_system_code '2'
_symmetry_cell_setting 'orthorhombic'
loop_
_space_group_symop_operation_xyz
x,y,z
-x,1/2-y,z
x,1/2-y,1/2-z
-x,y,1/2-z
-x,-y,-z
x,1/2+y,-z
-x,1/2+y,1/2+z
x,-y,1/2+z
1/2+x,1/2+y,z
1/2-x,-y,z
1/2+x,-y,1/2-z
1/2-x,1/2+y,1/2-z
1/2-x,1/2-y,-z
1/2+x,y,-z
1/2-x,y,1/2+z
1/2+x,1/2-y,1/2+z
loop_
_atom_site_type_symbol
_atom_site_label
_atom_site_fract_x
_atom_site_fract_y
_atom_site_fract_z
Si Si1 0.104052 0.761170 0.184506
Si Si2 0.551520 0.743246 0.315571
Si Si3 0.750000 0.500000 0.782544
Si Si4 0.309305 0.377878 0.126769
Si Si5 0.750000 0.500000 0.060770
Si Si6 0.338775 0.500693 0.514363
O O1 0.111359 0.750000 0.250000
O O2 0.078248 0.506566 0.169856
O O3 0.150658 0.779357 0.152163
O O4 0.075966 0.003215 0.169935
O O5 0.500000 0.750000 0.335162
O O6 0.549979 0.750000 0.250000
O O7 0.756517 0.250000 0.750000
O O8 0.708226 0.467174 0.822874
O O9 0.327692 0.533926 0.077036
O O10 0.269766 0.212405 0.099782
O O11 0.707593 0.545638 0.020447
O O12 0.362522 0.262790 0.491074
#
# Coordination Sequence:
#
# PCOD9506661 Si02
#       6
#    16  16   8  16   8  16
#     4  10  21  33  51  80 111 141 178 219 261 323
#     4   9  18  35  56  76 103 139 175 218 272 323
#     4  12  26  38  50  70 106 160 200 214 250 322
#     4  11  22  37  55  77 111 148 186 232 275 307
#     4  10  20  38  58  78 104 144 190 236 278 314
#     4  10  20  35  55  76  98 132 181 232 278 312
#
# _framework density 20.021250999999999
#
# number of rings (size 3 to 8) (size 9 to 14) (size 15 to 20)
#    0.000    1.800    0.000    6.000    0.000   12.800 
#    0.000    0.000    0.000    0.000    0.000    0.000 
#    0.000   64.000    0.000    0.000    0.000    0.000 
#
# Total GULP energy -223129.688757 kJ/mol
# GULP energy per Si atom -5578.242219 kJ/mol
# Density = 1.997568 g / cm^3
# Si number density = 20.021251 Si / 1000 Ang^3
#
#
#
# Elastic Constant Matrix: (Units=GPa)
#
#
# Indices 1 2 3 4 5 6 
#
# 1 51.4717 22.7177 20.0291 0.0000 0.0000 0.0000
# 2 22.7177 133.7736 37.6750 0.0000 0.0000 0.0000
# 3 20.0291 37.6750 89.2133 0.0000 0.0000 0.0000
# 4 0.0000 0.0000 0.0000 -4.2445 0.0000 0.0000
# 5 0.0000 0.0000 0.0000 0.0000 9.9164 0.0000
# 6 0.0000 0.0000 0.0000 0.0000 0.0000 24.0650
#
#
#
# Elastic Compliance Matrix: (Units=1/GPa)
#
#
# Indices 1 2 3 4 5 6 
#
# 1 0.022099 -0.002674 -0.003832 0.000000 0.000000 0.000000
# 2 -0.002674 0.008808 -0.003119 0.000000 0.000000 0.000000
# 3 -0.003832 -0.003119 0.013387 0.000000 0.000000 0.000000
# 4 0.000000 0.000000 0.000000 -0.235600 0.000000 0.000000
# 5 0.000000 0.000000 0.000000 0.000000 0.100843 0.000000
# 6 0.000000 0.000000 0.000000 0.000000 0.000000 0.041554
#
#
# Mechanical properties :
#
#
# Convention : Reuss Voigt Hill
#
# Bulk Modulus (GPa) = 39.93074 48.36691 44.14882
# Shear Modulus (GPa) = -234.63638 18.88316 -107.87661
#
# Velocity S-wave (km/s) = -10.83735 3.07442 -7.34833
# Velocity P-wave (km/s) = 11.68803 6.06737 7.06389
#
# Compressibility (1/GPa) = 0.02504336
#
# Stress axis : x y z
#
# Youngs Moduli (GPa) = 45.24992 113.53488 74.70040
#
# Poissons Ratio (x) = 0.30355 0.28628
# Poissons Ratio (y) = 0.12098 0.23302
# Poissons Ratio (z) = 0.17342 0.35415
#
# Static dielectric constant tensor:
#      x y z
#    x 1.729020 0.000000 0.000000 
#    y 0.000000 1.752390 0.000000 
#    z 0.000000 0.000000 1.707930 
# 
# From -- ./inp_files/47444.got.cif
#   From: 2010.05.17/outbox.cif.g08.bks.cpg/sg68_24_cif.got.tgz:47444.got - 2010.06.03 18:57:09.
