data_PCOD9506269
_publ_section_title
;
Structure prediction by ZEFSAII (Michael W. Deem and Ramdas Pophale) SiO2 
 PCOD9506269
Probable space group: C C C A
;
_chemical_formula_sum "Si O2"
_cell_formula_units_Z 72
_cell_length_a 25.350684
_cell_length_b 8.985276
_cell_length_c 15.620260
_cell_angle_alpha 90.000000
_cell_angle_beta 90.000000
_cell_angle_gamma 90.000000
_cell_volume 3558.028005
_symmetry_space_group_name_H-M "C C C A"
_symmetry_group_IT_number 68
_space_group.IT_coordinate_system_code '2'
_symmetry_cell_setting 'orthorhombic'
loop_
_space_group_symop_operation_xyz
x,y,z
-x,1/2-y,z
x,1/2-y,1/2-z
-x,y,1/2-z
-x,-y,-z
x,1/2+y,-z
-x,1/2+y,1/2+z
x,-y,1/2+z
1/2+x,1/2+y,z
1/2-x,-y,z
1/2+x,-y,1/2-z
1/2-x,1/2+y,1/2-z
1/2-x,1/2-y,-z
1/2+x,y,-z
1/2-x,y,1/2+z
1/2+x,1/2-y,1/2+z
loop_
_atom_site_type_symbol
_atom_site_label
_atom_site_fract_x
_atom_site_fract_y
_atom_site_fract_z
Si Si1 0.900280 0.991828 0.012389
Si Si2 0.727469 0.837212 0.116627
Si Si3 0.355176 0.250000 0.750000
Si Si4 0.671413 0.226762 0.438960
Si Si5 0.558309 0.773854 0.383918
O O1 0.865268 0.872322 0.064328
O O2 0.923068 0.118281 0.073818
O O3 0.942127 0.895471 0.959522
O O4 0.863708 0.079491 0.943648
O O5 0.685873 0.844878 0.193313
O O6 0.779946 0.736087 0.126523
O O7 0.750000 0.000000 0.095792
O O8 0.696974 0.772865 0.034381
O O9 0.396616 0.179164 0.683318
O O10 0.500000 0.750000 0.348523
#
# Coordination Sequence:
#
# PCOD9506269 Si02
#       5
#    16  16   8  16  16
#     4  10  19  39  62  88 119 158 207 249 298 361
#     4  11  21  35  57  87 130 161 196 235 298 376
#     4  12  23  38  56  92 126 156 201 250 318 348
#     4  10  19  36  60  89 122 159 193 244 294 369
#     4  11  23  40  63  88 118 160 213 263 303 352
#
# _framework density 20.235928999999999
#
# number of rings (size 3 to 8) (size 9 to 14) (size 15 to 20)
#    0.000    1.333    6.667    1.000    0.000    1.778 
#    0.000    0.000    0.000    4.000    0.000   20.222 
#    0.000    0.000    0.000    0.000    0.000    0.000 
#
# Total GULP energy -200644.932885 kJ/mol
# GULP energy per Si atom -5573.470358 kJ/mol
# Density = 2.018987 g / cm^3
# Si number density = 20.235929 Si / 1000 Ang^3
#
#
#
# Elastic Constant Matrix: (Units=GPa)
#
#
# Indices 1 2 3 4 5 6 
#
# 1 124.2631 26.8868 33.2922 0.0000 0.0000 0.0000
# 2 26.8868 62.3651 12.3099 0.0000 0.0000 0.0000
# 3 33.2922 12.3099 59.9732 0.0000 0.0000 0.0000
# 4 0.0000 0.0000 0.0000 8.9246 0.0000 0.0000
# 5 0.0000 0.0000 0.0000 0.0000 29.1447 0.0000
# 6 0.0000 0.0000 0.0000 0.0000 0.0000 15.3920
#
#
#
# Elastic Compliance Matrix: (Units=1/GPa)
#
#
# Indices 1 2 3 4 5 6 
#
# 1 0.010095 -0.003383 -0.004909 0.000000 0.000000 0.000000
# 2 -0.003383 0.017845 -0.001785 0.000000 0.000000 0.000000
# 3 -0.004909 -0.001785 0.019766 0.000000 0.000000 0.000000
# 4 0.000000 0.000000 0.000000 0.112049 0.000000 0.000000
# 5 0.000000 0.000000 0.000000 0.000000 0.034312 0.000000
# 6 0.000000 0.000000 0.000000 0.000000 0.000000 0.064969
#
#
# Mechanical properties :
#
#
# Convention : Reuss Voigt Hill
#
# Bulk Modulus (GPa) = 36.29594 43.50881 39.90237
# Shear Modulus (GPa) = 17.33860 22.29977 19.81919
#
# Velocity S-wave (km/s) = 2.93033 3.32322 3.13294
# Velocity P-wave (km/s) = 5.42443 6.02267 5.73136
#
# Compressibility (1/GPa) = 0.02755129
#
# Stress axis : x y z
#
# Youngs Moduli (GPa) = 99.06164 56.03688 50.59247
#
# Poissons Ratio (x) = 0.18957 0.24838
# Poissons Ratio (y) = 0.33512 0.09030
# Poissons Ratio (z) = 0.48633 0.10002
#
# Static dielectric constant tensor:
#      x y z
#    x 1.775190 0.000000 0.000000 
#    y 0.000000 1.715240 0.000000 
#    z 0.000000 0.000000 1.737950 
# 
# From -- ./inp_files/25850.got.cif
#   From: 2010.05.17/outbox.cif.g08.bks.cpg/sg68_13_cif.got.tgz:25850.got - 2010.06.03 18:57:09.
