data_PCOD9506341
_publ_section_title
;
Structure prediction by ZEFSAII (Michael W. Deem and Ramdas Pophale) SiO2 
 PCOD9506341
Probable space group: C C C A
;
_chemical_formula_sum "Si O2"
_cell_formula_units_Z 96
_cell_length_a 15.960736
_cell_length_b 11.242798
_cell_length_c 24.442735
_cell_angle_alpha 90.000000
_cell_angle_beta 90.000000
_cell_angle_gamma 90.000000
_cell_volume 4386.085782
_symmetry_space_group_name_H-M "C C C A"
_symmetry_group_IT_number 68
_space_group.IT_coordinate_system_code '2'
_symmetry_cell_setting 'orthorhombic'
loop_
_space_group_symop_operation_xyz
x,y,z
-x,1/2-y,z
x,1/2-y,1/2-z
-x,y,1/2-z
-x,-y,-z
x,1/2+y,-z
-x,1/2+y,1/2+z
x,-y,1/2+z
1/2+x,1/2+y,z
1/2-x,-y,z
1/2+x,-y,1/2-z
1/2-x,1/2+y,1/2-z
1/2-x,1/2-y,-z
1/2+x,y,-z
1/2-x,y,1/2+z
1/2+x,1/2-y,1/2+z
loop_
_atom_site_type_symbol
_atom_site_label
_atom_site_fract_x
_atom_site_fract_y
_atom_site_fract_z
Si Si1 0.844765 0.478123 0.183721
Si Si2 0.347623 0.965163 0.801648
Si Si3 0.399666 0.766787 0.646231
Si Si4 0.060851 0.932891 0.905258
Si Si5 0.377956 0.183065 0.585970
Si Si6 0.083603 0.169182 0.969158
O O1 0.750000 0.500000 0.199342
O O2 0.882272 0.478218 0.244920
O O3 0.880638 0.595361 0.154902
O O4 0.837153 0.371282 0.140148
O O5 0.356949 0.821933 0.809820
O O6 0.250000 0.000000 0.812249
O O7 0.409318 0.012344 0.848545
O O8 0.500000 0.750000 0.649645
O O9 0.374907 0.729660 0.584207
O O10 0.124112 0.824970 0.915319
O O11 0.970950 0.871314 0.904711
O O12 0.058516 0.038623 0.948621
O O13 0.359883 0.151912 0.522874
O O14 0.000000 0.250000 0.982006
#
# Coordination Sequence:
#
# PCOD9506341 Si02
#       6
#    16  16  16  16  16  16
#     4  11  25  41  61  91 127 168 210 263 325 376
#     4  10  23  42  64  87 125 168 210 261 321 380
#     4  10  22  41  69  95 117 167 223 266 302 381
#     4  10  22  37  63  95 121 163 204 258 313 379
#     4  11  22  36  61  95 128 161 202 256 318 381
#     4  10  19  37  65  92 123 163 209 258 304 376
#
# _framework density 21.887397
#
# number of rings (size 3 to 8) (size 9 to 14) (size 15 to 20)
#    0.000    1.667    1.667    4.000    4.667    4.000 
#    0.000    5.833    0.000    0.000    0.000    0.000 
#    0.000    0.000    0.000    0.000    0.000    0.000 
#
# Total GULP energy -267475.652811 kJ/mol
# GULP energy per Si atom -5572.409434 kJ/mol
# Density = 2.183758 g / cm^3
# Si number density = 21.887397 Si / 1000 Ang^3
#
#
#
# Elastic Constant Matrix: (Units=GPa)
#
#
# Indices 1 2 3 4 5 6 
#
# 1 16.4707 2.4719 9.0021 0.0000 0.0000 0.0000
# 2 2.4719 104.3526 28.7722 0.0000 0.0000 0.0000
# 3 9.0021 28.7722 145.3418 0.0000 0.0000 0.0000
# 4 0.0000 0.0000 0.0000 24.9837 0.0000 0.0000
# 5 0.0000 0.0000 0.0000 0.0000 36.1812 0.0000
# 6 0.0000 0.0000 0.0000 0.0000 0.0000 23.5515
#
#
#
# Elastic Compliance Matrix: (Units=1/GPa)
#
#
# Indices 1 2 3 4 5 6 
#
# 1 0.062860 -0.000440 -0.003806 0.000000 0.000000 0.000000
# 2 -0.000440 0.010139 -0.001980 0.000000 0.000000 0.000000
# 3 -0.003806 -0.001980 0.007508 0.000000 0.000000 0.000000
# 4 0.000000 0.000000 0.000000 0.040026 0.000000 0.000000
# 5 0.000000 0.000000 0.000000 0.000000 0.027639 0.000000
# 6 0.000000 0.000000 0.000000 0.000000 0.000000 0.042460
#
#
# Mechanical properties :
#
#
# Convention : Reuss Voigt Hill
#
# Bulk Modulus (GPa) = 14.69381 38.51750 26.60565
# Shear Modulus (GPa) = 22.14648 32.00456 27.07552
#
# Velocity S-wave (km/s) = 3.18439 3.82807 3.52097
# Velocity P-wave (km/s) = 4.49982 6.09713 5.35833
#
# Compressibility (1/GPa) = 0.06805587
#
# Stress axis : x y z
#
# Youngs Moduli (GPa) = 15.90827 98.62692 133.19038
#
# Poissons Ratio (x) = 0.04335 0.50698
# Poissons Ratio (y) = 0.00699 0.26371
# Poissons Ratio (z) = 0.06055 0.19528
#
# Static dielectric constant tensor:
#      x y z
#    x 1.817030 0.000000 0.000000 
#    y 0.000000 1.847970 0.000000 
#    z 0.000000 0.000000 1.903380 
# 
# From -- ./inp_files/46021.got.cif
#   From: 2010.05.17/outbox.cif.g08.bks.cpg/sg68_24_cif.got.tgz:46021.got - 2010.06.03 18:57:09.
