data_PCOD9506380
_publ_section_title
;
Structure prediction by ZEFSAII (Michael W. Deem and Ramdas Pophale) SiO2 
 PCOD9506380
Probable space group: C C C A
;
_chemical_formula_sum "Si O2"
_cell_formula_units_Z 80
_cell_length_a 25.933906
_cell_length_b 14.098438
_cell_length_c 11.968270
_cell_angle_alpha 90.000000
_cell_angle_beta 90.000000
_cell_angle_gamma 90.000000
_cell_volume 4375.929427
_symmetry_space_group_name_H-M "C C C A"
_symmetry_group_IT_number 68
_space_group.IT_coordinate_system_code '2'
_symmetry_cell_setting 'orthorhombic'
loop_
_space_group_symop_operation_xyz
x,y,z
-x,1/2-y,z
x,1/2-y,1/2-z
-x,y,1/2-z
-x,-y,-z
x,1/2+y,-z
-x,1/2+y,1/2+z
x,-y,1/2+z
1/2+x,1/2+y,z
1/2-x,-y,z
1/2+x,-y,1/2-z
1/2-x,1/2+y,1/2-z
1/2-x,1/2-y,-z
1/2+x,y,-z
1/2-x,y,1/2+z
1/2+x,1/2-y,1/2+z
loop_
_atom_site_type_symbol
_atom_site_label
_atom_site_fract_x
_atom_site_fract_y
_atom_site_fract_z
Si Si1 0.638452 0.138813 0.484823
Si Si2 0.206287 0.699179 0.078969
Si Si3 0.141663 0.570686 0.912195
Si Si4 0.202216 0.643981 0.708509
Si Si5 0.939740 0.734202 0.617588
O O1 0.666243 0.214834 0.403657
O O2 0.676063 0.121387 0.590843
O O3 0.590270 0.190045 0.541938
O O4 0.628028 0.037836 0.431974
O O5 0.237106 0.652540 0.181541
O O6 0.250000 0.750000 0.000000
O O7 0.176065 0.619258 0.009512
O O8 0.178525 0.578660 0.803560
O O9 0.090054 0.634742 0.903033
O O10 0.187349 0.750000 0.750000
O O11 0.933124 0.750000 0.750000
O O12 0.000000 0.750000 0.593835
#
# Coordination Sequence:
#
# PCOD9506380 Si02
#       5
#    16  16  16  16  16
#     4  10  20  36  57  88 112 148 196 239 283 342
#     4   9  19  35  51  79 115 152 191 229 276 340
#     4  11  20  37  57  84 120 147 195 243 281 348
#     4  11  18  39  55  73 118 156 187 240 274 336
#     4  10  19  38  66  85 110 151 189 243 304 348
#
# _framework density 18.281828999999998
#
# number of rings (size 3 to 8) (size 9 to 14) (size 15 to 20)
#    0.000    1.800    8.000    0.000    0.000    4.000 
#    7.200    0.000    0.000    0.000    0.000    1.400 
#    0.000    0.000    0.000    0.000    0.000    0.000 
#
# Total GULP energy -222918.880154 kJ/mol
# GULP energy per Si atom -5572.972004 kJ/mol
# Density = 1.824022 g / cm^3
# Si number density = 18.281829 Si / 1000 Ang^3
#
#
#
# Elastic Constant Matrix: (Units=GPa)
#
#
# Indices 1 2 3 4 5 6 
#
# 1 149.0935 68.6671 46.2389 0.0000 0.0000 0.0000
# 2 68.6671 116.2125 47.5419 0.0000 0.0000 0.0000
# 3 46.2389 47.5419 60.4306 0.0000 0.0000 0.0000
# 4 0.0000 0.0000 0.0000 18.1503 0.0000 0.0000
# 5 0.0000 0.0000 0.0000 0.0000 31.2181 0.0000
# 6 0.0000 0.0000 0.0000 0.0000 0.0000 -9.3103
#
#
#
# Elastic Compliance Matrix: (Units=1/GPa)
#
#
# Indices 1 2 3 4 5 6 
#
# 1 0.009952 -0.004077 -0.004407 0.000000 0.000000 0.000000
# 2 -0.004077 0.014359 -0.008177 0.000000 0.000000 0.000000
# 3 -0.004407 -0.008177 0.026353 0.000000 0.000000 0.000000
# 4 0.000000 0.000000 0.000000 0.055096 0.000000 0.000000
# 5 0.000000 0.000000 0.000000 0.000000 0.032033 0.000000
# 6 0.000000 0.000000 0.000000 0.000000 0.000000 -0.107408
#
#
# Mechanical properties :
#
#
# Convention : Reuss Voigt Hill
#
# Bulk Modulus (GPa) = 57.66515 72.29248 64.97882
# Shear Modulus (GPa) = 71.95533 18.89753 45.42643
#
# Velocity S-wave (km/s) = 6.28048 3.21857 4.99017
# Velocity P-wave (km/s) = 9.17624 7.31037 8.29593
#
# Compressibility (1/GPa) = 0.01734150
#
# Stress axis : x y z
#
# Youngs Moduli (GPa) = 100.48366 69.64122 37.94666
#
# Poissons Ratio (x) = 0.28396 0.16723
# Poissons Ratio (y) = 0.40972 0.31028
# Poissons Ratio (z) = 0.44282 0.56945
#
# Static dielectric constant tensor:
#      x y z
#    x 1.646210 0.000000 0.000000 
#    y 0.000000 1.642520 0.000000 
#    z 0.000000 0.000000 1.662640 
# 
# From -- ./inp_files/13417.got.cif
#   From: 2010.05.17/outbox.cif.g08.bks.cpg/sg68_7_cif.got.tgz:13417.got - 2010.06.03 18:57:09.
