data_PCOD9506356
_publ_section_title
;
Structure prediction by ZEFSAII (Michael W. Deem and Ramdas Pophale) SiO2 
 PCOD9506356
Probable space group: C C C A
;
_chemical_formula_sum "Si O2"
_cell_formula_units_Z 116
_cell_length_a 9.506932
_cell_length_b 25.294452
_cell_length_c 20.764632
_cell_angle_alpha 90.000000
_cell_angle_beta 90.000000
_cell_angle_gamma 90.000000
_cell_volume 4993.325775
_symmetry_space_group_name_H-M "C C C A"
_symmetry_group_IT_number 68
_space_group.IT_coordinate_system_code '2'
_symmetry_cell_setting 'orthorhombic'
loop_
_space_group_symop_operation_xyz
x,y,z
-x,1/2-y,z
x,1/2-y,1/2-z
-x,y,1/2-z
-x,-y,-z
x,1/2+y,-z
-x,1/2+y,1/2+z
x,-y,1/2+z
1/2+x,1/2+y,z
1/2-x,-y,z
1/2+x,-y,1/2-z
1/2-x,1/2+y,1/2-z
1/2-x,1/2-y,-z
1/2+x,y,-z
1/2-x,y,1/2+z
1/2+x,1/2-y,1/2+z
loop_
_atom_site_type_symbol
_atom_site_label
_atom_site_fract_x
_atom_site_fract_y
_atom_site_fract_z
Si Si1 0.000000 0.750000 0.750000
Si Si2 0.767721 0.864756 0.089927
Si Si3 0.494302 0.428850 0.559991
Si Si4 0.687042 0.326887 0.660679
Si Si5 0.491318 0.687131 0.678247
Si Si6 0.466366 0.545215 0.588322
Si Si7 0.872557 0.789557 0.981585
Si Si8 0.751396 0.938538 0.850882
O O1 0.105991 0.787843 0.709294
O O2 0.602982 0.878342 0.078928
O O3 0.828414 0.922467 0.101370
O O4 0.843713 0.829490 0.145077
O O5 0.842398 0.839740 0.026971
O O6 0.444644 0.483080 0.594078
O O7 0.484655 0.440602 0.484314
O O8 0.657852 0.431818 0.582727
O O9 0.855329 0.323328 0.648154
O O10 0.628081 0.309200 0.591359
O O11 0.678530 0.388339 0.684969
O O12 0.500000 0.750000 0.682215
O O13 0.500000 0.664071 0.750000
O O14 0.587540 0.567415 0.634135
O O15 0.000000 0.750000 0.994982
O O16 0.750000 0.750000 0.000000
O O17 0.750000 0.000000 0.828001
#
# Coordination Sequence:
#
# PCOD9506356 Si02
#       8
#     4  16  16  16  16  16  16  16
#     4  12  28  44  74 108 136 196 250 308 380 444
#     4  12  23  38  67  98 134 183 228 284 356 422
#     4  10  21  33  61  98 138 173 228 273 340 428
#     4  12  24  47  71  99 143 185 241 305 367 450
#     4  11  25  46  68  93 132 184 238 289 359 437
#     4  10  19  38  57  96 137 179 217 278 347 420
#     4  12  27  42  64 101 148 184 233 298 371 437
#     4  10  22  39  65  94 136 185 226 291 361 414
#
# _framework density 23.231010000000001
#
# number of rings (size 3 to 8) (size 9 to 14) (size 15 to 20)
#    0.000    0.966    2.069    5.793    3.862    4.414 
#    0.000    0.000    1.517    1.655    0.000    0.000 
#    0.000    0.000    0.000    0.000    0.000    0.000 
#
# Total GULP energy -322999.809988 kJ/mol
# GULP energy per Si atom -5568.962241 kJ/mol
# Density = 2.317814 g / cm^3
# Si number density = 23.231010 Si / 1000 Ang^3
#
#
#
# Elastic Constant Matrix: (Units=GPa)
#
#
# Indices 1 2 3 4 5 6 
#
# 1 137.9536 45.9867 14.9886 0.0000 0.0000 0.0000
# 2 45.9867 149.8265 30.9040 0.0000 0.0000 0.0000
# 3 14.9886 30.9040 64.5240 0.0000 0.0000 0.0000
# 4 0.0000 0.0000 0.0000 13.1975 0.0000 0.0000
# 5 0.0000 0.0000 0.0000 0.0000 13.1801 0.0000
# 6 0.0000 0.0000 0.0000 0.0000 0.0000 42.3674
#
#
#
# Elastic Compliance Matrix: (Units=1/GPa)
#
#
# Indices 1 2 3 4 5 6 
#
# 1 0.008109 -0.002331 -0.000767 0.000000 0.000000 0.000000
# 2 -0.002331 0.008076 -0.003327 0.000000 0.000000 0.000000
# 3 -0.000767 -0.003327 0.017270 0.000000 0.000000 0.000000
# 4 0.000000 0.000000 0.000000 0.075772 0.000000 0.000000
# 5 0.000000 0.000000 0.000000 0.000000 0.075872 0.000000
# 6 0.000000 0.000000 0.000000 0.000000 0.000000 0.023603
#
#
# Mechanical properties :
#
#
# Convention : Reuss Voigt Hill
#
# Bulk Modulus (GPa) = 48.53113 59.56254 54.04683
# Shear Modulus (GPa) = 21.88954 31.11063 26.50008
#
# Velocity S-wave (km/s) = 3.07295 3.66346 3.38112
# Velocity P-wave (km/s) = 5.79022 6.60223 6.20952
#
# Compressibility (1/GPa) = 0.02060533
#
# Stress axis : x y z
#
# Youngs Moduli (GPa) = 123.31795 123.82519 57.90497
#
# Poissons Ratio (x) = 0.28859 0.04444
# Poissons Ratio (y) = 0.28741 0.19263
# Poissons Ratio (z) = 0.09464 0.41192
#
# Static dielectric constant tensor:
#      x y z
#    x 2.019560 0.000000 0.000000 
#    y 0.000000 1.951790 0.000000 
#    z 0.000000 0.000000 1.901460 
# 
# From -- ./inp_files/43519.got.cif
#   From: 2010.05.17/outbox.cif.g08.bks.cpg/sg68_22_cif.got.tgz:43519.got - 2010.06.03 18:57:09.
