data_PCOD9506504
_publ_section_title
;
Structure prediction by ZEFSAII (Michael W. Deem and Ramdas Pophale) SiO2 
 PCOD9506504
Probable space group: C C C A
;
_chemical_formula_sum "Si O2"
_cell_formula_units_Z 96
_cell_length_a 18.057577
_cell_length_b 19.004191
_cell_length_c 10.771644
_cell_angle_alpha 90.000000
_cell_angle_beta 90.000000
_cell_angle_gamma 90.000000
_cell_volume 3696.501219
_symmetry_space_group_name_H-M "C C C A"
_symmetry_group_IT_number 68
_space_group.IT_coordinate_system_code '2'
_symmetry_cell_setting 'orthorhombic'
loop_
_space_group_symop_operation_xyz
x,y,z
-x,1/2-y,z
x,1/2-y,1/2-z
-x,y,1/2-z
-x,-y,-z
x,1/2+y,-z
-x,1/2+y,1/2+z
x,-y,1/2+z
1/2+x,1/2+y,z
1/2-x,-y,z
1/2+x,-y,1/2-z
1/2-x,1/2+y,1/2-z
1/2-x,1/2-y,-z
1/2+x,y,-z
1/2-x,y,1/2+z
1/2+x,1/2-y,1/2+z
loop_
_atom_site_type_symbol
_atom_site_label
_atom_site_fract_x
_atom_site_fract_y
_atom_site_fract_z
Si Si1 0.825760 0.660844 0.627601
Si Si2 0.582683 0.952759 0.254936
Si Si3 0.820029 0.546278 0.407135
Si Si4 0.040782 0.410242 0.884208
Si Si5 0.567195 0.698260 0.950044
Si Si6 0.170151 0.163261 0.717186
O O1 0.861828 0.611674 0.731369
O O2 0.822209 0.604654 0.514012
O O3 0.885182 0.715069 0.571940
O O4 0.746254 0.691953 0.661285
O O5 0.500000 0.924465 0.250000
O O6 0.610613 0.997489 0.135347
O O7 0.573532 0.011191 0.366546
O O8 0.750000 0.500000 0.438224
O O9 0.805347 0.589466 0.280453
O O10 0.111564 0.359227 0.887155
O O11 0.000000 0.400106 0.750000
O O12 0.976376 0.377016 0.968698
O O13 0.500000 0.750000 0.923653
O O14 0.623699 0.697190 0.832225
#
# Coordination Sequence:
#
# PCOD9506504 Si02
#       6
#    16  16  16  16  16  16
#     4  11  22  36  61  97 135 172 223 282 350 416
#     4  10  20  36  57  91 138 176 216 265 348 435
#     4  10  20  32  54  92 138 177 205 259 336 422
#     4   8  17  33  57  88 121 166 215 259 323 411
#     4  10  22  42  66  92 127 176 244 295 334 402
#     4   9  19  37  59  96 125 168 220 272 342 407
#
# _framework density 25.970503000000001
#
# number of rings (size 3 to 8) (size 9 to 14) (size 15 to 20)
#    0.000    2.333    1.667    3.000    4.667    5.667 
#    0.000    0.833    0.000    2.500    0.000    4.667 
#    0.000    0.000    0.000    0.000    0.000    0.000 
#
# Total GULP energy -267812.551365 kJ/mol
# GULP energy per Si atom -5579.428153 kJ/mol
# Density = 2.591139 g / cm^3
# Si number density = 25.970503 Si / 1000 Ang^3
#
#
#
# Elastic Constant Matrix: (Units=GPa)
#
#
# Indices 1 2 3 4 5 6 
#
# 1 209.9600 45.0579 35.8185 0.0000 0.0000 0.0000
# 2 45.0579 60.8689 15.6780 0.0000 0.0000 0.0000
# 3 35.8185 15.6780 67.1979 0.0000 0.0000 0.0000
# 4 0.0000 0.0000 0.0000 30.3058 0.0000 0.0000
# 5 0.0000 0.0000 0.0000 0.0000 29.8458 0.0000
# 6 0.0000 0.0000 0.0000 0.0000 0.0000 45.6297
#
#
#
# Elastic Compliance Matrix: (Units=1/GPa)
#
#
# Indices 1 2 3 4 5 6 
#
# 1 0.005976 -0.003834 -0.002291 0.000000 0.000000 0.000000
# 2 -0.003834 0.019939 -0.002608 0.000000 0.000000 0.000000
# 3 -0.002291 -0.002608 0.016711 0.000000 0.000000 0.000000
# 4 0.000000 0.000000 0.000000 0.032997 0.000000 0.000000
# 5 0.000000 0.000000 0.000000 0.000000 0.033506 0.000000
# 6 0.000000 0.000000 0.000000 0.000000 0.000000 0.021916
#
#
# Mechanical properties :
#
#
# Convention : Reuss Voigt Hill
#
# Bulk Modulus (GPa) = 39.74631 59.01507 49.38069
# Shear Modulus (GPa) = 31.86794 37.25442 34.56118
#
# Velocity S-wave (km/s) = 3.50677 3.79157 3.65195
# Velocity P-wave (km/s) = 5.63332 6.47621 6.06941
#
# Compressibility (1/GPa) = 0.02515957
#
# Stress axis : x y z
#
# Youngs Moduli (GPa) = 167.32376 50.15399 59.84009
#
# Poissons Ratio (x) = 0.19229 0.13710
# Poissons Ratio (y) = 0.64150 0.15608
# Poissons Ratio (z) = 0.38336 0.13082
#
# Static dielectric constant tensor:
#      x y z
#    x 2.031700 0.000000 0.000000 
#    y 0.000000 2.241200 0.000000 
#    z 0.000000 0.000000 2.079590 
# 
# From -- ./inp_files/14645.got.cif
#   From: 2010.05.17/outbox.cif.g08.bks.cpg/sg68_8_cif.got.tgz:14645.got - 2010.06.03 18:57:09.
