data_PCOD9506732
_publ_section_title
;
Structure prediction by ZEFSAII (Michael W. Deem and Ramdas Pophale) SiO2 
 PCOD9506732
Probable space group: C C C A
;
_chemical_formula_sum "Si O2"
_cell_formula_units_Z 104
_cell_length_a 21.164978
_cell_length_b 8.519217
_cell_length_c 29.964251
_cell_angle_alpha 90.000000
_cell_angle_beta 90.000000
_cell_angle_gamma 90.000000
_cell_volume 5402.825344
_symmetry_space_group_name_H-M "C C C A"
_symmetry_group_IT_number 68
_space_group.IT_coordinate_system_code '2'
_symmetry_cell_setting 'orthorhombic'
loop_
_space_group_symop_operation_xyz
x,y,z
-x,1/2-y,z
x,1/2-y,1/2-z
-x,y,1/2-z
-x,-y,-z
x,1/2+y,-z
-x,1/2+y,1/2+z
x,-y,1/2+z
1/2+x,1/2+y,z
1/2-x,-y,z
1/2+x,-y,1/2-z
1/2-x,1/2+y,1/2-z
1/2-x,1/2-y,-z
1/2+x,y,-z
1/2-x,y,1/2+z
1/2+x,1/2-y,1/2+z
loop_
_atom_site_type_symbol
_atom_site_label
_atom_site_fract_x
_atom_site_fract_y
_atom_site_fract_z
Si Si1 0.997688 0.062331 0.801126
Si Si2 0.750000 0.000000 0.319671
Si Si3 0.216860 0.663058 0.710188
Si Si4 0.385665 0.946466 0.137050
Si Si5 0.073172 0.553495 0.049343
Si Si6 0.609729 0.086483 0.641023
Si Si7 0.072749 0.927171 0.045486
O O1 0.000000 0.250000 0.800322
O O2 0.000000 0.004285 0.750000
O O3 0.934358 0.019110 0.827642
O O4 0.057026 0.995669 0.828531
O O5 0.739909 0.183783 0.301063
O O6 0.815151 0.033180 0.345005
O O7 0.176911 0.750000 0.750000
O O8 0.250000 0.500000 0.725950
O O9 0.174202 0.602065 0.669464
O O10 0.406800 0.766747 0.132314
O O11 0.389099 0.020305 0.088368
O O12 0.110176 0.499094 0.093286
O O13 0.072237 0.740114 0.045690
O O14 0.998794 0.507627 0.052752
O O15 0.096577 0.484488 0.002490
#
# Coordination Sequence:
#
# PCOD9506732 Si02
#       7
#    16   8  16  16  16  16  16
#     4  11  25  39  60  91 127 167 208 265 332 389
#     4  10  26  44  64  94 126 176 222 262 322 386
#     4  11  25  44  68  93 128 175 226 273 322 393
#     4  11  23  42  64  90 130 166 213 267 318 395
#     4  10  20  36  59  98 125 163 211 261 330 388
#     4  11  24  39  62  95 128 164 216 264 335 382
#     4  10  20  35  64  89 130 167 206 264 324 387
#
# _framework density 19.249189000000001
#
# number of rings (size 3 to 8) (size 9 to 14) (size 15 to 20)
#    0.000    1.385    2.308    2.308    8.615    1.846 
#    0.000    0.000    1.692    2.769    0.000    0.000 
#    0.000    0.000    0.000    0.000    0.000    0.000 
#
# Total GULP energy -289729.243307 kJ/mol
# GULP energy per Si atom -5571.716217 kJ/mol
# Density = 1.920538 g / cm^3
# Si number density = 19.249189 Si / 1000 Ang^3
#
#
#
# Elastic Constant Matrix: (Units=GPa)
#
#
# Indices 1 2 3 4 5 6 
#
# 1 41.4166 39.2910 22.3779 0.0000 0.0000 0.0000
# 2 39.2910 117.7889 66.9948 0.0000 0.0000 0.0000
# 3 22.3779 66.9948 120.5937 0.0000 0.0000 0.0000
# 4 0.0000 0.0000 0.0000 42.3958 0.0000 0.0000
# 5 0.0000 0.0000 0.0000 0.0000 19.5596 0.0000
# 6 0.0000 0.0000 0.0000 0.0000 0.0000 24.1795
#
#
#
# Elastic Compliance Matrix: (Units=1/GPa)
#
#
# Indices 1 2 3 4 5 6 
#
# 1 0.035323 -0.011775 -0.000013 0.000000 0.000000 0.000000
# 2 -0.011775 0.016337 -0.006891 0.000000 0.000000 0.000000
# 3 -0.000013 -0.006891 0.012123 0.000000 0.000000 0.000000
# 4 0.000000 0.000000 0.000000 0.023587 0.000000 0.000000
# 5 0.000000 0.000000 0.000000 0.000000 0.051126 0.000000
# 6 0.000000 0.000000 0.000000 0.000000 0.000000 0.041357
#
#
# Mechanical properties :
#
#
# Convention : Reuss Voigt Hill
#
# Bulk Modulus (GPa) = 37.84367 59.68074 48.76221
# Shear Modulus (GPa) = 22.12198 27.30266 24.71232
#
# Velocity S-wave (km/s) = 3.39373 3.77022 3.58692
# Velocity P-wave (km/s) = 5.92107 7.07279 6.52240
#
# Compressibility (1/GPa) = 0.02642450
#
# Stress axis : x y z
#
# Youngs Moduli (GPa) = 28.31023 61.21097 82.48908
#
# Poissons Ratio (x) = 0.72078 0.00107
# Poissons Ratio (y) = 0.33336 0.56841
# Poissons Ratio (z) = 0.00037 0.42179
#
# Static dielectric constant tensor:
#      x y z
#    x 1.621590 0.000000 0.000000 
#    y 0.000000 1.693640 0.000000 
#    z 0.000000 0.000000 1.740840 
# 
# From -- ./inp_files/51853.got.cif
#   From: 2010.05.17/outbox.cif.g08.bks.cpg/sg68_26_cif.got.tgz:51853.got - 2010.06.03 18:57:09.
