data_PCOD9506080
_publ_section_title
;
Structure prediction by ZEFSAII (Michael W. Deem and Ramdas Pophale) SiO2 
 PCOD9506080
Probable space group: C C C A
;
_chemical_formula_sum "Si O2"
_cell_formula_units_Z 80
_cell_length_a 11.184918
_cell_length_b 13.230703
_cell_length_c 21.341611
_cell_angle_alpha 90.000000
_cell_angle_beta 90.000000
_cell_angle_gamma 90.000000
_cell_volume 3158.223965
_symmetry_space_group_name_H-M "C C C A"
_symmetry_group_IT_number 68
_space_group.IT_coordinate_system_code '2'
_symmetry_cell_setting 'orthorhombic'
loop_
_space_group_symop_operation_xyz
x,y,z
-x,1/2-y,z
x,1/2-y,1/2-z
-x,y,1/2-z
-x,-y,-z
x,1/2+y,-z
-x,1/2+y,1/2+z
x,-y,1/2+z
1/2+x,1/2+y,z
1/2-x,-y,z
1/2+x,-y,1/2-z
1/2-x,1/2+y,1/2-z
1/2-x,1/2-y,-z
1/2+x,y,-z
1/2-x,y,1/2+z
1/2+x,1/2-y,1/2+z
loop_
_atom_site_type_symbol
_atom_site_label
_atom_site_fract_x
_atom_site_fract_y
_atom_site_fract_z
Si Si1 0.126936 0.710027 0.652339
Si Si2 0.292023 0.388796 0.761813
Si Si3 0.447954 0.636039 0.689317
Si Si4 0.507559 0.373277 0.449131
Si Si5 0.771909 0.362413 0.476349
O O1 0.104413 0.635120 0.711216
O O2 0.190185 0.812276 0.680422
O O3 0.190050 0.650979 0.595917
O O4 0.000000 0.750000 0.626947
O O5 0.250000 0.500000 0.781510
O O6 0.187571 0.357104 0.711816
O O7 0.500000 0.750000 0.686900
O O8 0.500000 0.580972 0.750000
O O9 0.481572 0.590177 0.622913
O O10 0.500000 0.250000 0.447662
O O11 0.636183 0.403939 0.478139
O O12 0.384683 0.401451 0.483513
O O13 0.750000 0.250000 0.500000
#
# Coordination Sequence:
#
# PCOD9506080 Si02
#       5
#    16  16  16  16  16
#     4  11  22  41  67  95 133 179 226 275 352 424
#     4  11  24  40  63  96 136 173 222 287 347 406
#     4  10  19  33  59  92 127 165 224 277 332 397
#     4   9  18  31  55  94 129 166 223 279 330 405
#     4  10  19  34  60  98 129 170 231 275 337 409
#
# _framework density 25.330694000000001
#
# number of rings (size 3 to 8) (size 9 to 14) (size 15 to 20)
#    0.000    1.800    2.000    5.400    5.600    1.600 
#    0.000    0.000    0.000    2.400    0.000    1.400 
#    0.000    0.000    0.000    0.000    0.000    0.000 
#
# Total GULP energy -222973.755984 kJ/mol
# GULP energy per Si atom -5574.343900 kJ/mol
# Density = 2.527304 g / cm^3
# Si number density = 25.330694 Si / 1000 Ang^3
#
#
#
# Elastic Constant Matrix: (Units=GPa)
#
#
# Indices 1 2 3 4 5 6 
#
# 1 182.1122 20.0862 78.8529 0.0000 0.0000 0.0000
# 2 20.0862 126.9880 35.7845 0.0000 0.0000 0.0000
# 3 78.8529 35.7845 132.0005 0.0000 0.0000 0.0000
# 4 0.0000 0.0000 0.0000 -10.2432 0.0000 0.0000
# 5 0.0000 0.0000 0.0000 0.0000 40.7181 0.0000
# 6 0.0000 0.0000 0.0000 0.0000 0.0000 -25.2971
#
#
#
# Elastic Compliance Matrix: (Units=1/GPa)
#
#
# Indices 1 2 3 4 5 6 
#
# 1 0.007408 0.000081 -0.004447 0.000000 0.000000 0.000000
# 2 0.000081 0.008527 -0.002360 0.000000 0.000000 0.000000
# 3 -0.004447 -0.002360 0.010872 0.000000 0.000000 0.000000
# 4 0.000000 0.000000 0.000000 -0.097625 0.000000 0.000000
# 5 0.000000 0.000000 0.000000 0.000000 0.024559 0.000000
# 6 0.000000 0.000000 0.000000 0.000000 0.000000 -0.039530
#
#
# Mechanical properties :
#
#
# Convention : Reuss Voigt Hill
#
# Bulk Modulus (GPa) = 74.87902 78.94977 76.91440
# Shear Modulus (GPa) = -73.65300 21.46069 -26.09616
#
# Velocity S-wave (km/s) = -5.39812 2.91386 -3.21318
# Velocity P-wave (km/s) = 3.03779 6.52350 4.08215
#
# Compressibility (1/GPa) = 0.01335488
#
# Stress axis : x y z
#
# Youngs Moduli (GPa) = 134.99378 117.27473 91.97746
#
# Poissons Ratio (x) = -0.00956 0.40905
# Poissons Ratio (y) = -0.01100 0.21709
# Poissons Ratio (z) = 0.60035 0.27680
#
# Static dielectric constant tensor:
#      x y z
#    x 2.406220 0.000000 0.000000 
#    y 0.000000 2.031250 0.000000 
#    z 0.000000 0.000000 2.562820 
# 
# From -- ./inp_files/44088.got.cif
#   From: 2010.05.17/outbox.cif.g08.bks.cpg/sg68_23_cif.got.tgz:44088.got - 2010.06.03 18:57:09.
