data_PCOD9506682
_publ_section_title
;
Structure prediction by ZEFSAII (Michael W. Deem and Ramdas Pophale) SiO2 
 PCOD9506682
Probable space group: C C C A
;
_chemical_formula_sum "Si O2"
_cell_formula_units_Z 96
_cell_length_a 9.387148
_cell_length_b 23.877443
_cell_length_c 21.305946
_cell_angle_alpha 90.000000
_cell_angle_beta 90.000000
_cell_angle_gamma 90.000000
_cell_volume 4775.537988
_symmetry_space_group_name_H-M "C C C A"
_symmetry_group_IT_number 68
_space_group.IT_coordinate_system_code '2'
_symmetry_cell_setting 'orthorhombic'
loop_
_space_group_symop_operation_xyz
x,y,z
-x,1/2-y,z
x,1/2-y,1/2-z
-x,y,1/2-z
-x,-y,-z
x,1/2+y,-z
-x,1/2+y,1/2+z
x,-y,1/2+z
1/2+x,1/2+y,z
1/2-x,-y,z
1/2+x,-y,1/2-z
1/2-x,1/2+y,1/2-z
1/2-x,1/2-y,-z
1/2+x,y,-z
1/2-x,y,1/2+z
1/2+x,1/2-y,1/2+z
loop_
_atom_site_type_symbol
_atom_site_label
_atom_site_fract_x
_atom_site_fract_y
_atom_site_fract_z
Si Si1 0.009841 0.880442 0.899310
Si Si2 0.284312 0.174946 0.372591
Si Si3 0.870101 0.047465 0.298464
Si Si4 0.528313 0.816316 0.973622
Si Si5 0.656465 0.646061 0.736802
Si Si6 0.730085 0.201476 0.882871
O O1 0.174040 0.875341 0.880716
O O2 0.937682 0.933842 0.865882
O O3 0.917005 0.829495 0.870738
O O4 0.006824 0.862302 0.972301
O O5 0.419752 0.170151 0.417233
O O6 0.317511 0.180424 0.299736
O O7 0.211110 0.233005 0.391635
O O8 0.778298 0.099633 0.271697
O O9 0.000000 0.035070 0.250000
O O10 0.750000 0.000000 0.305667
O O11 0.500000 0.750000 0.990409
O O12 0.687430 0.819611 0.945044
O O13 0.500000 0.620512 0.750000
O O14 0.668751 0.685083 0.675607
#
# Coordination Sequence:
#
# PCOD9506682 Si02
#       6
#    16  16  16  16  16  16
#     4  11  22  37  58  87 122 154 209 253 301 364
#     4  11  20  34  57  88 129 171 206 242 293 358
#     4  11  24  45  68  90 109 148 202 270 333 378
#     4  10  20  35  57  87 129 180 212 231 280 360
#     4  11  21  37  59  90 124 160 210 258 302 357
#     4  10  21  32  55  88 128 175 206 241 289 350
#
# _framework density 20.102449
#
# number of rings (size 3 to 8) (size 9 to 14) (size 15 to 20)
#    0.000    1.333    3.333    3.500    0.000    3.333 
#    0.000    1.667    0.000   10.000    0.000    0.000 
#    0.000    0.000    0.000    0.000    0.000    0.000 
#
# Total GULP energy -267557.040017 kJ/mol
# GULP energy per Si atom -5574.105000 kJ/mol
# Density = 2.005669 g / cm^3
# Si number density = 20.102449 Si / 1000 Ang^3
#
#
#
# Elastic Constant Matrix: (Units=GPa)
#
#
# Indices 1 2 3 4 5 6 
#
# 1 98.8408 26.0349 22.8396 0.0000 0.0000 0.0000
# 2 26.0349 57.4952 24.6037 0.0000 0.0000 0.0000
# 3 22.8396 24.6037 125.4238 0.0000 0.0000 0.0000
# 4 0.0000 0.0000 0.0000 -66.1746 0.0000 0.0000
# 5 0.0000 0.0000 0.0000 0.0000 24.4591 0.0000
# 6 0.0000 0.0000 0.0000 0.0000 0.0000 22.3864
#
#
#
# Elastic Compliance Matrix: (Units=1/GPa)
#
#
# Indices 1 2 3 4 5 6 
#
# 1 0.011647 -0.004766 -0.001186 0.000000 0.000000 0.000000
# 2 -0.004766 0.020937 -0.003239 0.000000 0.000000 0.000000
# 3 -0.001186 -0.003239 0.008824 0.000000 0.000000 0.000000
# 4 0.000000 0.000000 0.000000 -0.015112 0.000000 0.000000
# 5 0.000000 0.000000 0.000000 0.000000 0.040885 0.000000
# 6 0.000000 0.000000 0.000000 0.000000 0.000000 0.044670
#
#
# Mechanical properties :
#
#
# Convention : Reuss Voigt Hill
#
# Bulk Modulus (GPa) = 43.43030 47.63512 45.53271
# Shear Modulus (GPa) = 36.25569 10.01962 23.13765
#
# Velocity S-wave (km/s) = 4.25142 2.23497 3.39630
# Velocity P-wave (km/s) = 6.76394 5.51432 6.17084
#
# Compressibility (1/GPa) = 0.02302540
#
# Stress axis : x y z
#
# Youngs Moduli (GPa) = 85.86050 47.76179 113.32310
#
# Poissons Ratio (x) = 0.22765 0.13439
# Poissons Ratio (y) = 0.40925 0.36707
# Poissons Ratio (z) = 0.10182 0.15471
#
# Static dielectric constant tensor:
#      x y z
#    x 1.759340 0.000000 0.000000 
#    y 0.000000 1.694360 0.000000 
#    z 0.000000 0.000000 1.753930 
# 
# From -- ./inp_files/43296.got.cif
#   From: 2010.05.17/outbox.cif.g08.bks.cpg/sg68_22_cif.got.tgz:43296.got - 2010.06.03 18:57:09.
