data_PCOD9506226
_publ_section_title
;
Structure prediction by ZEFSAII (Michael W. Deem and Ramdas Pophale) SiO2 
 PCOD9506226
Probable space group: C C C A
;
_chemical_formula_sum "Si O2"
_cell_formula_units_Z 116
_cell_length_a 25.284279
_cell_length_b 8.657119
_cell_length_c 28.104825
_cell_angle_alpha 90.000000
_cell_angle_beta 90.000000
_cell_angle_gamma 90.000000
_cell_volume 6151.837380
_symmetry_space_group_name_H-M "C C C A"
_symmetry_group_IT_number 68
_space_group.IT_coordinate_system_code '2'
_symmetry_cell_setting 'orthorhombic'
loop_
_space_group_symop_operation_xyz
x,y,z
-x,1/2-y,z
x,1/2-y,1/2-z
-x,y,1/2-z
-x,-y,-z
x,1/2+y,-z
-x,1/2+y,1/2+z
x,-y,1/2+z
1/2+x,1/2+y,z
1/2-x,-y,z
1/2+x,-y,1/2-z
1/2-x,1/2+y,1/2-z
1/2-x,1/2-y,-z
1/2+x,y,-z
1/2-x,y,1/2+z
1/2+x,1/2-y,1/2+z
loop_
_atom_site_type_symbol
_atom_site_label
_atom_site_fract_x
_atom_site_fract_y
_atom_site_fract_z
Si Si1 0.913132 0.575709 0.805452
Si Si2 0.250684 0.686712 0.390384
Si Si3 0.862224 0.386833 0.718706
Si Si4 0.936669 0.223302 0.640072
Si Si5 0.683159 0.700300 0.196725
Si Si6 0.645884 0.280791 0.063198
Si Si7 0.194556 0.414908 0.478982
Si Si8 0.000000 0.750000 0.750000
O O1 0.891229 0.482797 0.759966
O O2 0.923528 0.454533 0.847056
O O3 0.871832 0.712892 0.815218
O O4 0.965974 0.647519 0.785310
O O5 0.250000 0.500000 0.387517
O O6 0.276136 0.751022 0.343161
O O7 0.191902 0.747479 0.397761
O O8 0.285719 0.706488 0.438427
O O9 0.836121 0.250000 0.750000
O O10 0.904470 0.321411 0.680515
O O11 0.824693 0.514984 0.695285
O O12 0.909775 0.262376 0.589413
O O13 0.000000 0.250000 0.642156
O O14 0.697850 0.750000 0.250000
O O15 0.658009 0.453600 0.044640
O O16 0.662037 0.167792 0.020286
O O17 0.250000 0.500000 0.493991
#
# Coordination Sequence:
#
# PCOD9506226 Si02
#       8
#    16  16  16  16  16  16  16   4
#     4  10  21  32  57  81 110 154 199 244 269 321
#     4   9  18  35  60  84 112 151 184 233 289 340
#     4   9  17  34  54  78 111 157 197 230 272 327
#     4  11  23  37  55  83 115 149 190 234 293 349
#     4  10  19  36  55  85 123 151 189 235 285 338
#     4  10  21  38  59  85 110 141 189 241 292 351
#     4   9  18  36  63  85 105 141 184 240 287 339
#     4  12  16  36  54  80 108 148 206 240 270 292
#
# _framework density 18.856155999999999
#
# number of rings (size 3 to 8) (size 9 to 14) (size 15 to 20)
#    0.000    2.483    2.069    4.138    0.000    4.138 
#    0.000    7.586    0.000    0.000    0.000    0.000 
#    0.000    0.000    0.000    0.000    0.000    0.000 
#
# Total GULP energy -323360.110357 kJ/mol
# GULP energy per Si atom -5575.174316 kJ/mol
# Density = 1.881324 g / cm^3
# Si number density = 18.856156 Si / 1000 Ang^3
#
#
#
# Elastic Constant Matrix: (Units=GPa)
#
#
# Indices 1 2 3 4 5 6 
#
# 1 70.0057 18.9050 48.1673 0.0000 0.0000 0.0000
# 2 18.9050 62.1429 21.1241 0.0000 0.0000 0.0000
# 3 48.1673 21.1241 71.1844 0.0000 0.0000 0.0000
# 4 0.0000 0.0000 0.0000 14.9168 0.0000 0.0000
# 5 0.0000 0.0000 0.0000 0.0000 26.6246 0.0000
# 6 0.0000 0.0000 0.0000 0.0000 0.0000 41.5260
#
#
#
# Elastic Compliance Matrix: (Units=1/GPa)
#
#
# Indices 1 2 3 4 5 6 
#
# 1 0.027003 -0.002229 -0.017611 0.000000 0.000000 0.000000
# 2 -0.002229 0.018081 -0.003858 0.000000 0.000000 0.000000
# 3 -0.017611 -0.003858 0.027109 0.000000 0.000000 0.000000
# 4 0.000000 0.000000 0.000000 0.067039 0.000000 0.000000
# 5 0.000000 0.000000 0.000000 0.000000 0.037559 0.000000
# 6 0.000000 0.000000 0.000000 0.000000 0.000000 0.024081
#
#
# Mechanical properties :
#
#
# Convention : Reuss Voigt Hill
#
# Bulk Modulus (GPa) = 40.32262 42.19177 41.25720
# Shear Modulus (GPa) = 19.49065 24.28925 21.88995
#
# Velocity S-wave (km/s) = 3.21853 3.59295 3.41088
# Velocity P-wave (km/s) = 5.93655 6.29576 6.11879
#
# Compressibility (1/GPa) = 0.02479997
#
# Stress axis : x y z
#
# Youngs Moduli (GPa) = 37.03250 55.30588 36.88799
#
# Poissons Ratio (x) = 0.12325 0.64962
# Poissons Ratio (y) = 0.08253 0.14230
# Poissons Ratio (z) = 0.65216 0.21335
#
# Static dielectric constant tensor:
#      x y z
#    x 1.672620 0.000000 0.000000 
#    y 0.000000 1.716100 0.000000 
#    z 0.000000 0.000000 1.692700 
# 
# From -- ./inp_files/52192.got.cif
#   From: 2010.05.17/outbox.cif.g08.bks.cpg/sg68_27_cif.got.tgz:52192.got - 2010.06.03 18:57:09.
