data_PCOD9506570
_publ_section_title
;
Structure prediction by ZEFSAII (Michael W. Deem and Ramdas Pophale) SiO2 
 PCOD9506570
Probable space group: C C C A
;
_chemical_formula_sum "Si O2"
_cell_formula_units_Z 64
_cell_length_a 23.674512
_cell_length_b 4.998542
_cell_length_c 28.889648
_cell_angle_alpha 90.000000
_cell_angle_beta 90.000000
_cell_angle_gamma 90.000000
_cell_volume 3418.744395
_symmetry_space_group_name_H-M "C C C A"
_symmetry_group_IT_number 68
_space_group.IT_coordinate_system_code '2'
_symmetry_cell_setting 'orthorhombic'
loop_
_space_group_symop_operation_xyz
x,y,z
-x,1/2-y,z
x,1/2-y,1/2-z
-x,y,1/2-z
-x,-y,-z
x,1/2+y,-z
-x,1/2+y,1/2+z
x,-y,1/2+z
1/2+x,1/2+y,z
1/2-x,-y,z
1/2+x,-y,1/2-z
1/2-x,1/2+y,1/2-z
1/2-x,1/2-y,-z
1/2+x,y,-z
1/2-x,y,1/2+z
1/2+x,1/2-y,1/2+z
loop_
_atom_site_type_symbol
_atom_site_label
_atom_site_fract_x
_atom_site_fract_y
_atom_site_fract_z
Si Si1 0.182248 0.503121 0.344530
Si Si2 0.250000 0.000000 0.466360
Si Si3 0.432157 0.764244 0.471666
Si Si4 0.854374 0.993879 0.603557
Si Si5 0.711489 0.250000 0.250000
O O1 0.250000 0.500000 0.355263
O O2 0.159779 0.208070 0.354534
O O3 0.178556 0.617669 0.292590
O O4 0.148319 0.706461 0.377324
O O5 0.250000 0.750000 0.500000
O O6 0.303819 0.977644 0.433364
O O7 0.500000 0.750000 0.469581
O O8 0.413530 0.469770 0.487609
O O9 0.407957 0.883917 0.424406
O O10 0.750000 0.500000 0.267705
#
# Coordination Sequence:
#
# PCOD9506570 Si02
#       5
#    16   8  16  16   8
#     4  11  20  35  51  79 109 139 173 218 263 328
#     4  12  22  32  46  70 108 142 168 204 264 322
#     4  10  21  38  56  75 102 140 187 230 263 304
#     4  12  21  34  53  77 107 140 177 221 263 317
#     4  10  20  34  54  76 107 146 177 210 268 320
#
# _framework density 18.720323
#
# number of rings (size 3 to 8) (size 9 to 14) (size 15 to 20)
#    0.000    1.000    2.500    7.500    0.000    0.000 
#    0.000    0.000    0.000    0.000    0.000    5.250 
#    0.000    0.000    0.000    0.000    0.000    0.000 
#
# Total GULP energy -178725.149169 kJ/mol
# GULP energy per Si atom -5585.160912 kJ/mol
# Density = 1.867771 g / cm^3
# Si number density = 18.720323 Si / 1000 Ang^3
#
#
#
# Elastic Constant Matrix: (Units=GPa)
#
#
# Indices 1 2 3 4 5 6 
#
# 1 32.6304 9.7232 14.1353 0.0000 0.0000 0.0000
# 2 9.7232 103.1186 16.4042 0.0000 0.0000 0.0000
# 3 14.1353 16.4042 86.8913 0.0000 0.0000 0.0000
# 4 0.0000 0.0000 0.0000 41.1724 0.0000 0.0000
# 5 0.0000 0.0000 0.0000 0.0000 17.4117 0.0000
# 6 0.0000 0.0000 0.0000 0.0000 0.0000 20.5439
#
#
#
# Elastic Compliance Matrix: (Units=1/GPa)
#
#
# Indices 1 2 3 4 5 6 
#
# 1 0.033520 -0.002364 -0.005007 0.000000 0.000000 0.000000
# 2 -0.002364 0.010165 -0.001534 0.000000 0.000000 0.000000
# 3 -0.005007 -0.001534 0.012613 0.000000 0.000000 0.000000
# 4 0.000000 0.000000 0.000000 0.024288 0.000000 0.000000
# 5 0.000000 0.000000 0.000000 0.000000 0.057433 0.000000
# 6 0.000000 0.000000 0.000000 0.000000 0.000000 0.048676
#
#
# Mechanical properties :
#
#
# Convention : Reuss Voigt Hill
#
# Bulk Modulus (GPa) = 25.98301 33.68509 29.83405
# Shear Modulus (GPa) = 23.00614 27.98409 25.49512
#
# Velocity S-wave (km/s) = 3.50943 3.87052 3.69439
# Velocity P-wave (km/s) = 5.50737 6.16503 5.84545
#
# Compressibility (1/GPa) = 0.03848669
#
# Stress axis : x y z
#
# Youngs Moduli (GPa) = 29.83332 98.38079 79.28471
#
# Poissons Ratio (x) = 0.23259 0.39694
# Poissons Ratio (y) = 0.07053 0.12165
# Poissons Ratio (z) = 0.14936 0.15095
#
# Static dielectric constant tensor:
#      x y z
#    x 1.673320 0.000000 0.000000 
#    y 0.000000 1.653750 0.000000 
#    z 0.000000 0.000000 1.656610 
# 
# From -- ./inp_files/42156.got.cif
#   From: 2010.05.17/outbox.cif.g08.bks.cpg/sg68_22_cif.got.tgz:42156.got - 2010.06.03 18:57:09.
