data_PCOD9506267
_publ_section_title
;
Structure prediction by ZEFSAII (Michael W. Deem and Ramdas Pophale) SiO2 
 PCOD9506267
Probable space group: C C C A
;
_chemical_formula_sum "Si O2"
_cell_formula_units_Z 116
_cell_length_a 25.103192
_cell_length_b 21.613428
_cell_length_c 9.718125
_cell_angle_alpha 90.000000
_cell_angle_beta 90.000000
_cell_angle_gamma 90.000000
_cell_volume 5272.724528
_symmetry_space_group_name_H-M "C C C A"
_symmetry_group_IT_number 68
_space_group.IT_coordinate_system_code '2'
_symmetry_cell_setting 'orthorhombic'
loop_
_space_group_symop_operation_xyz
x,y,z
-x,1/2-y,z
x,1/2-y,1/2-z
-x,y,1/2-z
-x,-y,-z
x,1/2+y,-z
-x,1/2+y,1/2+z
x,-y,1/2+z
1/2+x,1/2+y,z
1/2-x,-y,z
1/2+x,-y,1/2-z
1/2-x,1/2+y,1/2-z
1/2-x,1/2-y,-z
1/2+x,y,-z
1/2-x,y,1/2+z
1/2+x,1/2-y,1/2+z
loop_
_atom_site_type_symbol
_atom_site_label
_atom_site_fract_x
_atom_site_fract_y
_atom_site_fract_z
Si Si1 0.159028 0.677403 0.716039
Si Si2 0.916569 0.178955 0.447147
Si Si3 0.000000 0.750000 0.750000
Si Si4 0.269743 0.355280 0.304820
Si Si5 0.702977 0.548130 0.078660
Si Si6 0.157565 0.469153 0.698553
Si Si7 0.439011 0.890742 0.777725
Si Si8 0.873124 0.695896 0.076692
O O1 0.150490 0.750000 0.750000
O O2 0.126750 0.648713 0.844173
O O3 0.222495 0.669475 0.709709
O O4 0.132915 0.661349 0.570368
O O5 0.934676 0.132389 0.564969
O O6 0.890521 0.235507 0.534317
O O7 0.962802 0.208169 0.350085
O O8 0.232897 0.386401 0.423203
O O9 0.303134 0.412524 0.242533
O O10 0.314413 0.308155 0.356076
O O11 0.750000 0.500000 0.046535
O O12 0.680981 0.529786 0.229256
O O13 0.659920 0.532181 0.964826
O O14 0.099381 0.449150 0.745775
O O15 0.500000 0.903010 0.750000
O O16 0.414999 0.837396 0.676836
#
# Coordination Sequence:
#
# PCOD9506267 Si02
#       8
#    16  16   4  16  16  16  16  16
#     4  10  21  36  54  89 127 166 202 246 299 365
#     4  11  22  37  60  84 124 166 217 255 306 360
#     4  12  20  40  62  84 120 176 226 268 298 368
#     4  10  20  33  61  89 126 161 197 242 308 375
#     4  10  19  36  60  87 114 154 194 244 312 384
#     4  10  22  38  59  87 116 149 200 258 312 386
#     4  11  24  40  61  87 117 159 213 268 316 366
#     4  10  21  38  56  90 126 165 210 255 295 366
#
# _framework density 22.000012000000002
#
# number of rings (size 3 to 8) (size 9 to 14) (size 15 to 20)
#    0.000    1.655    2.069    4.138    0.000    8.276 
#    0.000    0.690    0.000    0.000    0.000    0.000 
#    0.000    0.000    0.000    0.000    0.000    0.000 
#
# Total GULP energy -323825.278778 kJ/mol
# GULP energy per Si atom -5583.194462 kJ/mol
# Density = 2.194994 g / cm^3
# Si number density = 22.000012 Si / 1000 Ang^3
#
#
#
# Elastic Constant Matrix: (Units=GPa)
#
#
# Indices 1 2 3 4 5 6 
#
# 1 151.7882 20.9162 35.4178 0.0000 0.0000 0.0000
# 2 20.9162 31.5383 7.4064 0.0000 0.0000 0.0000
# 3 35.4178 7.4064 95.9592 0.0000 0.0000 0.0000
# 4 0.0000 0.0000 0.0000 10.8705 0.0000 0.0000
# 5 0.0000 0.0000 0.0000 0.0000 27.2592 0.0000
# 6 0.0000 0.0000 0.0000 0.0000 0.0000 21.1171
#
#
#
# Elastic Compliance Matrix: (Units=1/GPa)
#
#
# Indices 1 2 3 4 5 6 
#
# 1 0.007810 -0.004586 -0.002529 0.000000 0.000000 0.000000
# 2 -0.004586 0.034985 -0.001008 0.000000 0.000000 0.000000
# 3 -0.002529 -0.001008 0.011432 0.000000 0.000000 0.000000
# 4 0.000000 0.000000 0.000000 0.091992 0.000000 0.000000
# 5 0.000000 0.000000 0.000000 0.000000 0.036685 0.000000
# 6 0.000000 0.000000 0.000000 0.000000 0.000000 0.047355
#
#
# Mechanical properties :
#
#
# Convention : Reuss Voigt Hill
#
# Bulk Modulus (GPa) = 26.32735 45.19628 35.76182
# Shear Modulus (GPa) = 19.29274 26.21906 22.75590
#
# Velocity S-wave (km/s) = 2.96453 3.45595 3.21963
# Velocity P-wave (km/s) = 4.86938 6.04261 5.48744
#
# Compressibility (1/GPa) = 0.03798331
#
# Stress axis : x y z
#
# Youngs Moduli (GPa) = 128.03952 28.58333 87.47232
#
# Poissons Ratio (x) = 0.13108 0.22119
# Poissons Ratio (y) = 0.58717 0.08814
# Poissons Ratio (z) = 0.32377 0.02880
#
# Static dielectric constant tensor:
#      x y z
#    x 1.802320 0.000000 0.000000 
#    y 0.000000 1.830890 0.000000 
#    z 0.000000 0.000000 1.857330 
# 
# From -- ./inp_files/8370.got.cif
#   From: 2010.05.17/outbox.cif.g08.bks.cpg/sg68_5_cif.got.tgz:8370.got - 2010.06.03 18:57:09.
