data_PCOD9506112
_publ_section_title
;
Structure prediction by ZEFSAII (Michael W. Deem and Ramdas Pophale) SiO2 
 PCOD9506112
Probable space group: C C C A
;
_chemical_formula_sum "Si O2"
_cell_formula_units_Z 112
_cell_length_a 12.065883
_cell_length_b 22.330112
_cell_length_c 21.614511
_cell_angle_alpha 90.000000
_cell_angle_beta 90.000000
_cell_angle_gamma 90.000000
_cell_volume 5823.652141
_symmetry_space_group_name_H-M "C C C A"
_symmetry_group_IT_number 68
_space_group.IT_coordinate_system_code '2'
_symmetry_cell_setting 'orthorhombic'
loop_
_space_group_symop_operation_xyz
x,y,z
-x,1/2-y,z
x,1/2-y,1/2-z
-x,y,1/2-z
-x,-y,-z
x,1/2+y,-z
-x,1/2+y,1/2+z
x,-y,1/2+z
1/2+x,1/2+y,z
1/2-x,-y,z
1/2+x,-y,1/2-z
1/2-x,1/2+y,1/2-z
1/2-x,1/2-y,-z
1/2+x,y,-z
1/2-x,y,1/2+z
1/2+x,1/2-y,1/2+z
loop_
_atom_site_type_symbol
_atom_site_label
_atom_site_fract_x
_atom_site_fract_y
_atom_site_fract_z
Si Si1 0.085253 0.848442 0.838232
Si Si2 0.406018 0.199921 0.480313
Si Si3 0.206703 0.252010 0.402334
Si Si4 0.953017 0.416763 0.550950
Si Si5 0.833857 0.335695 0.205412
Si Si6 0.018591 0.455877 0.083493
Si Si7 0.772607 0.569785 0.614179
O O1 0.122079 0.802751 0.891147
O O2 0.164090 0.837338 0.779173
O O3 0.078625 0.916140 0.864236
O O4 0.962369 0.831550 0.815639
O O5 0.500000 0.250000 0.483724
O O6 0.315614 0.222837 0.431211
O O7 0.344692 0.202191 0.547191
O O8 0.464668 0.138700 0.458931
O O9 0.223335 0.284980 0.336586
O O10 0.927654 0.442719 0.482707
O O11 0.833846 0.401955 0.580427
O O12 0.007399 0.472331 0.589014
O O13 0.788429 0.397655 0.179073
O O14 0.892431 0.430156 0.080976
O O15 0.750000 0.500000 0.622097
#
# Coordination Sequence:
#
# PCOD9506112 Si02
#       7
#    16  16  16  16  16  16  16
#     4  10  20  35  56  81 107 139 182 233 277 322
#     4  11  22  35  54  80 111 145 181 225 279 344
#     4  11  22  35  54  80 111 143 181 228 281 331
#     4  10  19  34  56  81 114 150 183 229 289 349
#     4  10  19  34  57  80 105 140 184 231 276 324
#     4   9  19  34  54  83 113 145 187 232 285 345
#     4   9  18  34  56  80 109 146 185 226 279 337
#
# _framework density 19.231916999999999
#
# number of rings (size 3 to 8) (size 9 to 14) (size 15 to 20)
#    0.000    2.000    0.000    5.143    0.000    4.571 
#    0.000    3.571    0.000    7.714    0.000    0.000 
#    0.000    0.000    0.000    0.000    0.000    0.000 
#
# Total GULP energy -312314.149636 kJ/mol
# GULP energy per Si atom -5577.038386 kJ/mol
# Density = 1.918814 g / cm^3
# Si number density = 19.231917 Si / 1000 Ang^3
#
#
#
# Elastic Constant Matrix: (Units=GPa)
#
#
# Indices 1 2 3 4 5 6 
#
# 1 66.6494 40.6295 40.4331 0.0000 0.0000 0.0000
# 2 40.6295 111.5218 44.0628 0.0000 0.0000 0.0000
# 3 40.4331 44.0628 98.0508 0.0000 0.0000 0.0000
# 4 0.0000 0.0000 0.0000 25.7023 0.0000 0.0000
# 5 0.0000 0.0000 0.0000 0.0000 26.5032 0.0000
# 6 0.0000 0.0000 0.0000 0.0000 0.0000 28.5954
#
#
#
# Elastic Compliance Matrix: (Units=1/GPa)
#
#
# Indices 1 2 3 4 5 6 
#
# 1 0.022484 -0.005506 -0.006798 0.000000 0.000000 0.000000
# 2 -0.005506 0.012251 -0.003235 0.000000 0.000000 0.000000
# 3 -0.006798 -0.003235 0.014456 0.000000 0.000000 0.000000
# 4 0.000000 0.000000 0.000000 0.038907 0.000000 0.000000
# 5 0.000000 0.000000 0.000000 0.000000 0.037731 0.000000
# 6 0.000000 0.000000 0.000000 0.000000 0.000000 0.034971
#
#
# Mechanical properties :
#
#
# Convention : Reuss Voigt Hill
#
# Bulk Modulus (GPa) = 55.20563 58.49696 56.85130
# Shear Modulus (GPa) = 25.26357 26.23329 25.74843
#
# Velocity S-wave (km/s) = 3.62833 3.69731 3.66298
# Velocity P-wave (km/s) = 6.80592 6.97922 6.89311
#
# Compressibility (1/GPa) = 0.01811409
#
# Stress axis : x y z
#
# Youngs Moduli (GPa) = 44.47649 81.62722 69.17702
#
# Poissons Ratio (x) = 0.44940 0.47023
# Poissons Ratio (y) = 0.24487 0.22379
# Poissons Ratio (z) = 0.30233 0.26407
#
# Static dielectric constant tensor:
#      x y z
#    x 1.700410 0.000000 0.000000 
#    y 0.000000 1.718470 0.000000 
#    z 0.000000 0.000000 1.689510 
# 
# From -- ./inp_files/37811.got.cif
#   From: 2010.05.17/outbox.cif.g08.bks.cpg/sg68_19_cif.got.tgz:37811.got - 2010.06.03 18:57:09.
