data_PCOD9506519
_publ_section_title
;
Structure prediction by ZEFSAII (Michael W. Deem and Ramdas Pophale) SiO2 
 PCOD9506519
Probable space group: C C C A
;
_chemical_formula_sum "Si O2"
_cell_formula_units_Z 120
_cell_length_a 20.704125
_cell_length_b 20.356325
_cell_length_c 14.418675
_cell_angle_alpha 90.000000
_cell_angle_beta 90.000000
_cell_angle_gamma 90.000000
_cell_volume 6076.893285
_symmetry_space_group_name_H-M "C C C A"
_symmetry_group_IT_number 68
_space_group.IT_coordinate_system_code '2'
_symmetry_cell_setting 'orthorhombic'
loop_
_space_group_symop_operation_xyz
x,y,z
-x,1/2-y,z
x,1/2-y,1/2-z
-x,y,1/2-z
-x,-y,-z
x,1/2+y,-z
-x,1/2+y,1/2+z
x,-y,1/2+z
1/2+x,1/2+y,z
1/2-x,-y,z
1/2+x,-y,1/2-z
1/2-x,1/2+y,1/2-z
1/2-x,1/2-y,-z
1/2+x,y,-z
1/2-x,y,1/2+z
1/2+x,1/2-y,1/2+z
loop_
_atom_site_type_symbol
_atom_site_label
_atom_site_fract_x
_atom_site_fract_y
_atom_site_fract_z
Si Si1 0.107478 0.568756 0.139216
Si Si2 0.445872 0.427656 0.675939
Si Si3 0.226607 0.846078 0.429555
Si Si4 0.134577 0.590091 0.353749
Si Si5 0.250000 0.000000 0.176963
Si Si6 0.816524 0.623002 0.776989
Si Si7 0.263489 0.800875 0.631553
Si Si8 0.511666 0.922594 0.982894
O O1 0.095581 0.490067 0.137998
O O2 0.172437 0.600640 0.097332
O O3 0.108742 0.581328 0.249268
O O4 0.048405 0.599384 0.080444
O O5 0.500000 0.449550 0.750000
O O6 0.393137 0.382522 0.725841
O O7 0.479569 0.395072 0.586566
O O8 0.293376 0.869411 0.382887
O O9 0.232290 0.830545 0.537584
O O10 0.217581 0.774593 0.382464
O O11 0.190363 0.535441 0.374420
O O12 0.171359 0.658717 0.353876
O O13 0.076851 0.586173 0.425403
O O14 0.282960 0.943030 0.237682
O O15 0.785813 0.679722 0.713153
O O16 0.500000 0.000000 0.000000
#
# Coordination Sequence:
#
# PCOD9506519 Si02
#       8
#    16  16  16  16   8  16  16  16
#     4  11  21  36  62  85 126 162 203 253 304 375
#     4  11  23  38  59  92 134 164 202 245 314 392
#     4  11  22  41  60  91 117 160 217 257 309 356
#     4  11  20  39  58  89 125 157 205 253 312 365
#     4  10  20  32  60  94 120 158 194 248 310 390
#     4  11  20  37  63  87 124 160 196 258 314 364
#     4  10  24  38  64  87 119 159 209 268 303 361
#     4  10  23  36  57  87 123 173 196 245 304 371
#
# _framework density 19.746932000000001
#
# number of rings (size 3 to 8) (size 9 to 14) (size 15 to 20)
#    0.000    1.333    4.000    3.200    1.867    3.200 
#    0.000    4.000    0.000    4.800    0.000    0.000 
#    0.000    0.000    0.000    0.000    0.000    0.000 
#
# Total GULP energy -334679.385251 kJ/mol
# GULP energy per Si atom -5577.989754 kJ/mol
# Density = 1.970199 g / cm^3
# Si number density = 19.746932 Si / 1000 Ang^3
#
#
#
# Elastic Constant Matrix: (Units=GPa)
#
#
# Indices 1 2 3 4 5 6 
#
# 1 102.2239 20.3150 34.3623 0.0000 0.0000 0.0000
# 2 20.3150 48.3061 7.9298 0.0000 0.0000 0.0000
# 3 34.3623 7.9298 92.4053 0.0000 0.0000 0.0000
# 4 0.0000 0.0000 0.0000 17.2229 0.0000 0.0000
# 5 0.0000 0.0000 0.0000 0.0000 35.9981 0.0000
# 6 0.0000 0.0000 0.0000 0.0000 0.0000 12.2162
#
#
#
# Elastic Compliance Matrix: (Units=1/GPa)
#
#
# Indices 1 2 3 4 5 6 
#
# 1 0.012032 -0.004387 -0.004098 0.000000 0.000000 0.000000
# 2 -0.004387 0.022597 -0.000308 0.000000 0.000000 0.000000
# 3 -0.004098 -0.000308 0.012372 0.000000 0.000000 0.000000
# 4 0.000000 0.000000 0.000000 0.058062 0.000000 0.000000
# 5 0.000000 0.000000 0.000000 0.000000 0.027779 0.000000
# 6 0.000000 0.000000 0.000000 0.000000 0.000000 0.081858
#
#
# Mechanical properties :
#
#
# Convention : Reuss Voigt Hill
#
# Bulk Modulus (GPa) = 33.99580 40.90552 37.45066
# Shear Modulus (GPa) = 20.65341 25.10933 22.88137
#
# Velocity S-wave (km/s) = 3.23755 3.56976 3.40771
# Velocity P-wave (km/s) = 5.58827 6.14416 5.87280
#
# Compressibility (1/GPa) = 0.02941540
#
# Stress axis : x y z
#
# Youngs Moduli (GPa) = 83.11335 44.25393 80.82714
#
# Poissons Ratio (x) = 0.19415 0.33120
# Poissons Ratio (y) = 0.36464 0.02487
# Poissons Ratio (z) = 0.34057 0.01362
#
# Static dielectric constant tensor:
#      x y z
#    x 1.695190 0.000000 0.000000 
#    y 0.000000 1.715910 0.000000 
#    z 0.000000 0.000000 1.708570 
# 
# From -- ./inp_files/24820.got.cif
#   From: 2010.05.17/outbox.cif.g08.bks.cpg/sg68_13_cif.got.tgz:24820.got - 2010.06.03 18:57:09.
