data_PCOD9506031
_publ_section_title
;
Structure prediction by ZEFSAII (Michael W. Deem and Ramdas Pophale) SiO2 
 PCOD9506031
Probable space group: C C C A
;
_chemical_formula_sum "Si O2"
_cell_formula_units_Z 88
_cell_length_a 16.804922
_cell_length_b 12.479677
_cell_length_c 21.050153
_cell_angle_alpha 90.000000
_cell_angle_beta 90.000000
_cell_angle_gamma 90.000000
_cell_volume 4414.638057
_symmetry_space_group_name_H-M "C C C A"
_symmetry_group_IT_number 68
_space_group.IT_coordinate_system_code '2'
_symmetry_cell_setting 'orthorhombic'
loop_
_space_group_symop_operation_xyz
x,y,z
-x,1/2-y,z
x,1/2-y,1/2-z
-x,y,1/2-z
-x,-y,-z
x,1/2+y,-z
-x,1/2+y,1/2+z
x,-y,1/2+z
1/2+x,1/2+y,z
1/2-x,-y,z
1/2+x,-y,1/2-z
1/2-x,1/2+y,1/2-z
1/2-x,1/2-y,-z
1/2+x,y,-z
1/2-x,y,1/2+z
1/2+x,1/2-y,1/2+z
loop_
_atom_site_type_symbol
_atom_site_label
_atom_site_fract_x
_atom_site_fract_y
_atom_site_fract_z
Si Si1 0.191689 0.410252 0.873463
Si Si2 0.492767 0.622712 0.080447
Si Si3 0.500000 0.250000 0.413771
Si Si4 0.628417 0.506976 0.995350
Si Si5 0.317837 0.777881 0.947937
Si Si6 0.477208 0.556263 0.822645
O O1 0.250000 0.500000 0.847893
O O2 0.172028 0.451834 0.945388
O O3 0.213225 0.286500 0.885857
O O4 0.115061 0.417310 0.830351
O O5 0.500000 0.750000 0.086101
O O6 0.559312 0.575407 0.031878
O O7 0.505843 0.558993 0.146041
O O8 0.410652 0.580024 0.050654
O O9 0.586266 0.241576 0.449267
O O10 0.486161 0.146064 0.369684
O O11 0.676329 0.594138 0.954725
O O12 0.250000 0.750000 0.000000
O O13 0.500000 0.564925 0.750000
#
# Coordination Sequence:
#
# PCOD9506031 Si02
#       6
#    16  16   8  16  16  16
#     4  10  20  34  54  86 120 157 198 251 317 384
#     4  10  20  33  56  86 120 158 203 253 312 382
#     4  10  21  38  60  92 124 162 209 266 314 386
#     4  10  19  33  52  86 124 160 192 239 319 389
#     4  11  20  33  57  89 128 156 197 247 316 390
#     4  10  21  37  60  86 111 160 218 264 311 366
#
# _framework density 19.933682999999998
#
# number of rings (size 3 to 8) (size 9 to 14) (size 15 to 20)
#    0.000    1.818    3.636    1.364    3.818    0.364 
#    0.000    0.000    0.000    5.455   14.182    0.000 
#    0.000    0.000    0.000    0.000    0.000    0.000 
#
# Total GULP energy -245026.454636 kJ/mol
# GULP energy per Si atom -5568.783060 kJ/mol
# Density = 1.988831 g / cm^3
# Si number density = 19.933683 Si / 1000 Ang^3
#
#
#
# Elastic Constant Matrix: (Units=GPa)
#
#
# Indices 1 2 3 4 5 6 
#
# 1 76.0459 31.1175 40.0421 0.0000 0.0000 0.0000
# 2 31.1175 156.1461 44.6729 0.0000 0.0000 0.0000
# 3 40.0421 44.6729 94.3605 0.0000 0.0000 0.0000
# 4 0.0000 0.0000 0.0000 15.3439 0.0000 0.0000
# 5 0.0000 0.0000 0.0000 0.0000 18.9706 0.0000
# 6 0.0000 0.0000 0.0000 0.0000 0.0000 34.8400
#
#
#
# Elastic Compliance Matrix: (Units=1/GPa)
#
#
# Indices 1 2 3 4 5 6 
#
# 1 0.017254 -0.001554 -0.006586 0.000000 0.000000 0.000000
# 2 -0.001554 0.007548 -0.002914 0.000000 0.000000 0.000000
# 3 -0.006586 -0.002914 0.014772 0.000000 0.000000 0.000000
# 4 0.000000 0.000000 0.000000 0.065172 0.000000 0.000000
# 5 0.000000 0.000000 0.000000 0.000000 0.052713 0.000000
# 6 0.000000 0.000000 0.000000 0.000000 0.000000 0.028703
#
#
# Mechanical properties :
#
#
# Convention : Reuss Voigt Hill
#
# Bulk Modulus (GPa) = 57.25546 62.02417 59.63982
# Shear Modulus (GPa) = 23.35461 27.87892 25.61676
#
# Velocity S-wave (km/s) = 3.42660 3.74382 3.58872
# Velocity P-wave (km/s) = 6.66639 7.06194 6.86702
#
# Compressibility (1/GPa) = 0.01746558
#
# Stress axis : x y z
#
# Youngs Moduli (GPa) = 57.95852 132.49260 67.69657
#
# Poissons Ratio (x) = 0.20592 0.44584
# Poissons Ratio (y) = 0.09008 0.19725
# Poissons Ratio (z) = 0.38171 0.38604
#
# Static dielectric constant tensor:
#      x y z
#    x 1.802760 0.000000 0.000000 
#    y 0.000000 1.860170 0.000000 
#    z 0.000000 0.000000 1.674540 
# 
# From -- ./inp_files/39432.got.cif
#   From: 2010.05.17/outbox.cif.g08.bks.cpg/sg68_20_cif.got.tgz:39432.got - 2010.06.03 18:57:09.
