data_PCOD9506180
_publ_section_title
;
Structure prediction by ZEFSAII (Michael W. Deem and Ramdas Pophale) SiO2 
 PCOD9506180
Probable space group: C C C A
;
_chemical_formula_sum "Si O2"
_cell_formula_units_Z 120
_cell_length_a 25.528769
_cell_length_b 9.352333
_cell_length_c 27.385353
_cell_angle_alpha 90.000000
_cell_angle_beta 90.000000
_cell_angle_gamma 90.000000
_cell_volume 6538.350213
_symmetry_space_group_name_H-M "C C C A"
_symmetry_group_IT_number 68
_space_group.IT_coordinate_system_code '2'
_symmetry_cell_setting 'orthorhombic'
loop_
_space_group_symop_operation_xyz
x,y,z
-x,1/2-y,z
x,1/2-y,1/2-z
-x,y,1/2-z
-x,-y,-z
x,1/2+y,-z
-x,1/2+y,1/2+z
x,-y,1/2+z
1/2+x,1/2+y,z
1/2-x,-y,z
1/2+x,-y,1/2-z
1/2-x,1/2+y,1/2-z
1/2-x,1/2-y,-z
1/2+x,y,-z
1/2-x,y,1/2+z
1/2+x,1/2-y,1/2+z
loop_
_atom_site_type_symbol
_atom_site_label
_atom_site_fract_x
_atom_site_fract_y
_atom_site_fract_z
Si Si1 0.750000 0.500000 0.608234
Si Si2 0.689393 0.453640 0.284557
Si Si3 0.163928 0.370313 0.818723
Si Si4 0.512860 0.583973 0.950951
Si Si5 0.412035 0.961028 0.602326
Si Si6 0.874083 0.686190 0.450403
Si Si7 0.162852 0.689674 0.938547
Si Si8 0.187691 0.017828 0.387523
O O1 0.791590 0.423363 0.643771
O O2 0.783674 0.606880 0.574960
O O3 0.750000 0.500000 0.277991
O O4 0.664271 0.462539 0.231147
O O5 0.679901 0.289794 0.302380
O O6 0.669286 0.540983 0.331602
O O7 0.109151 0.393740 0.847173
O O8 0.500000 0.750000 0.959302
O O9 0.474066 0.532702 0.907878
O O10 0.574832 0.586179 0.942987
O O11 0.500000 0.500000 0.000000
O O12 0.390056 0.848197 0.562115
O O13 0.383314 0.109915 0.591428
O O14 0.851854 0.678586 0.504752
O O15 0.833616 0.627164 0.411163
O O16 0.170496 0.851189 0.921128
O O17 0.250000 0.000000 0.385625
#
# Coordination Sequence:
#
# PCOD9506180 Si02
#       8
#     8  16  16  16  16  16  16  16
#     4  10  20  34  48  82 116 156 192 226 290 344
#     4  10  19  35  57  80 112 153 200 239 293 340
#     4  10  19  35  57  81 113 156 191 248 292 349
#     4  10  21  37  61  84 113 150 198 248 297 348
#     4  10  21  39  56  85 116 150 201 244 300 348
#     4  11  22  39  57  83 119 157 193 245 292 358
#     4  11  23  34  57  81 121 158 199 235 286 359
#     4  11  24  38  54  86 119 159 198 239 289 358
#
# _framework density 18.353252999999999
#
# number of rings (size 3 to 8) (size 9 to 14) (size 15 to 20)
#    0.000    1.600    3.333    2.400    4.667    0.533 
#    0.000    0.000    0.000    0.800    0.000    0.000 
#    0.000    4.267    0.000    0.000    0.000    0.000 
#
# Total GULP energy -334635.533835 kJ/mol
# GULP energy per Si atom -5577.258897 kJ/mol
# Density = 1.831148 g / cm^3
# Si number density = 18.353253 Si / 1000 Ang^3
#
#
#
# Elastic Constant Matrix: (Units=GPa)
#
#
# Indices 1 2 3 4 5 6 
#
# 1 79.6053 13.3887 52.2854 0.0000 0.0000 0.0000
# 2 13.3887 36.0617 8.5143 0.0000 0.0000 0.0000
# 3 52.2854 8.5143 125.8987 0.0000 0.0000 0.0000
# 4 0.0000 0.0000 0.0000 17.8114 0.0000 0.0000
# 5 0.0000 0.0000 0.0000 0.0000 16.3181 0.0000
# 6 0.0000 0.0000 0.0000 0.0000 0.0000 20.1985
#
#
#
# Elastic Compliance Matrix: (Units=1/GPa)
#
#
# Indices 1 2 3 4 5 6 
#
# 1 0.018130 -0.005034 -0.007189 0.000000 0.000000 0.000000
# 2 -0.005034 0.029578 0.000090 0.000000 0.000000 0.000000
# 3 -0.007189 0.000090 0.010922 0.000000 0.000000 0.000000
# 4 0.000000 0.000000 0.000000 0.056144 0.000000 0.000000
# 5 0.000000 0.000000 0.000000 0.000000 0.061282 0.000000
# 6 0.000000 0.000000 0.000000 0.000000 0.000000 0.049509
#
#
# Mechanical properties :
#
#
# Convention : Reuss Voigt Hill
#
# Bulk Modulus (GPa) = 29.09917 43.32694 36.21306
# Shear Modulus (GPa) = 19.13614 22.02408 20.58011
#
# Velocity S-wave (km/s) = 3.23252 3.46787 3.35226
# Velocity P-wave (km/s) = 5.46093 6.30026 5.89555
#
# Compressibility (1/GPa) = 0.03436524
#
# Stress axis : x y z
#
# Youngs Moduli (GPa) = 55.15570 33.80904 91.55484
#
# Poissons Ratio (x) = 0.17019 0.65820
# Poissons Ratio (y) = 0.27765 -0.00827
# Poissons Ratio (z) = 0.39652 -0.00305
#
# Static dielectric constant tensor:
#      x y z
#    x 1.594030 0.000000 0.000000 
#    y 0.000000 1.690310 0.000000 
#    z 0.000000 0.000000 1.631030 
# 
# From -- ./inp_files/52400.got.cif
#   From: 2010.05.17/outbox.cif.g08.bks.cpg/sg68_27_cif.got.tgz:52400.got - 2010.06.03 18:57:09.
