data_PCOD9506495
_publ_section_title
;
Structure prediction by ZEFSAII (Michael W. Deem and Ramdas Pophale) SiO2 
 PCOD9506495
Probable space group: C C C A
;
_chemical_formula_sum "Si O2"
_cell_formula_units_Z 92
_cell_length_a 22.519355
_cell_length_b 10.129973
_cell_length_c 18.496989
_cell_angle_alpha 90.000000
_cell_angle_beta 90.000000
_cell_angle_gamma 90.000000
_cell_volume 4219.541605
_symmetry_space_group_name_H-M "C C C A"
_symmetry_group_IT_number 68
_space_group.IT_coordinate_system_code '2'
_symmetry_cell_setting 'orthorhombic'
loop_
_space_group_symop_operation_xyz
x,y,z
-x,1/2-y,z
x,1/2-y,1/2-z
-x,y,1/2-z
-x,-y,-z
x,1/2+y,-z
-x,1/2+y,1/2+z
x,-y,1/2+z
1/2+x,1/2+y,z
1/2-x,-y,z
1/2+x,-y,1/2-z
1/2-x,1/2+y,1/2-z
1/2-x,1/2-y,-z
1/2+x,y,-z
1/2-x,y,1/2+z
1/2+x,1/2-y,1/2+z
loop_
_atom_site_type_symbol
_atom_site_label
_atom_site_fract_x
_atom_site_fract_y
_atom_site_fract_z
Si Si1 0.086068 0.868558 0.806955
Si Si2 0.626401 0.692980 0.466336
Si Si3 0.351116 0.035263 0.573849
Si Si4 0.696950 0.091938 0.770341
Si Si5 0.500000 0.250000 0.250000
Si Si6 0.521913 0.461959 0.139121
Si Si7 0.000000 0.250000 0.969983
O O1 0.075595 0.750000 0.750000
O O2 0.121258 0.834668 0.880812
O O3 0.134631 0.954352 0.764576
O O4 0.024225 0.934737 0.828209
O O5 0.655568 0.589242 0.520957
O O6 0.655095 0.835493 0.474788
O O7 0.557346 0.708691 0.486875
O O8 0.311367 0.061335 0.644395
O O9 0.419204 0.023495 0.604661
O O10 0.704215 0.250000 0.750000
O O11 0.750000 0.000000 0.743158
O O12 0.536432 0.349015 0.198481
O O13 0.486515 0.377830 0.078864
#
# Coordination Sequence:
#
# PCOD9506495 Si02
#       7
#    16  16  16  16   4  16   8
#     4  11  22  41  69  98 137 181 229 277 345 422
#     4  11  21  40  67 100 144 185 225 275 343 412
#     4  11  23  44  70 103 147 178 234 282 345 432
#     4  11  25  52  71  99 132 180 237 301 357 413
#     4  10  20  32  50  84 142 172 234 274 314 394
#     4  10  21  37  61 101 140 181 221 273 346 410
#     4   9  20  37  57  98 153 182 214 268 337 422
#
# _framework density 21.803317
#
# number of rings (size 3 to 8) (size 9 to 14) (size 15 to 20)
#    0.000    1.391    3.478    3.130    0.000    3.478 
#   18.783    1.739    0.000    0.000    0.000    0.000 
#    0.000    0.000    0.000    0.000    0.000    0.000 
#
# Total GULP energy -256681.338244 kJ/mol
# GULP energy per Si atom -5580.029092 kJ/mol
# Density = 2.175369 g / cm^3
# Si number density = 21.803317 Si / 1000 Ang^3
#
#
#
# Elastic Constant Matrix: (Units=GPa)
#
#
# Indices 1 2 3 4 5 6 
#
# 1 55.6322 43.7201 14.0855 0.0000 0.0000 0.0000
# 2 43.7201 130.5145 62.9368 0.0000 0.0000 0.0000
# 3 14.0855 62.9368 118.9043 0.0000 0.0000 0.0000
# 4 0.0000 0.0000 0.0000 45.0437 0.0000 0.0000
# 5 0.0000 0.0000 0.0000 0.0000 -0.4177 0.0000
# 6 0.0000 0.0000 0.0000 0.0000 0.0000 23.5798
#
#
#
# Elastic Compliance Matrix: (Units=1/GPa)
#
#
# Indices 1 2 3 4 5 6 
#
# 1 0.024732 -0.009227 0.001954 0.000000 0.000000 0.000000
# 2 -0.009227 0.013730 -0.006175 0.000000 0.000000 0.000000
# 3 0.001954 -0.006175 0.011447 0.000000 0.000000 0.000000
# 4 0.000000 0.000000 0.000000 0.022201 0.000000 0.000000
# 5 0.000000 0.000000 0.000000 0.000000 -2.394318 0.000000
# 6 0.000000 0.000000 0.000000 0.000000 0.000000 0.042409
#
#
# Mechanical properties :
#
#
# Convention : Reuss Voigt Hill
#
# Bulk Modulus (GPa) = 43.45147 60.72621 52.08884
# Shear Modulus (GPa) = -2.22694 25.92842 11.85074
#
# Velocity S-wave (km/s) = -1.01173 3.45221 2.33390
# Velocity P-wave (km/s) = 4.31362 6.61836 5.58614
#
# Compressibility (1/GPa) = 0.02301418
#
# Stress axis : x y z
#
# Youngs Moduli (GPa) = 40.43386 72.83123 87.36034
#
# Poissons Ratio (x) = 0.67202 -0.17072
# Poissons Ratio (y) = 0.37309 0.53941
# Poissons Ratio (z) = -0.07902 0.44970
#
# Static dielectric constant tensor:
#      x y z
#    x 1.762180 0.000000 0.000000 
#    y 0.000000 1.852080 0.000000 
#    z 0.000000 0.000000 1.880950 
# 
# From -- ./inp_files/40778.got.cif
#   From: 2010.05.17/outbox.cif.g08.bks.cpg/sg68_21_cif.got.tgz:40778.got - 2010.06.03 18:57:09.
