data_PCOD9506158
_publ_section_title
;
Structure prediction by ZEFSAII (Michael W. Deem and Ramdas Pophale) SiO2 
 PCOD9506158
Probable space group: C C C A
;
_chemical_formula_sum "Si O2"
_cell_formula_units_Z 104
_cell_length_a 13.926457
_cell_length_b 19.481588
_cell_length_c 20.712827
_cell_angle_alpha 90.000000
_cell_angle_beta 90.000000
_cell_angle_gamma 90.000000
_cell_volume 5619.586687
_symmetry_space_group_name_H-M "C C C A"
_symmetry_group_IT_number 68
_space_group.IT_coordinate_system_code '2'
_symmetry_cell_setting 'orthorhombic'
loop_
_space_group_symop_operation_xyz
x,y,z
-x,1/2-y,z
x,1/2-y,1/2-z
-x,y,1/2-z
-x,-y,-z
x,1/2+y,-z
-x,1/2+y,1/2+z
x,-y,1/2+z
1/2+x,1/2+y,z
1/2-x,-y,z
1/2+x,-y,1/2-z
1/2-x,1/2+y,1/2-z
1/2-x,1/2-y,-z
1/2+x,y,-z
1/2-x,y,1/2+z
1/2+x,1/2-y,1/2+z
loop_
_atom_site_type_symbol
_atom_site_label
_atom_site_fract_x
_atom_site_fract_y
_atom_site_fract_z
Si Si1 0.851382 0.148376 0.137139
Si Si2 0.680212 0.935086 0.679120
Si Si3 0.500000 0.650135 0.250000
Si Si4 0.989517 0.446433 0.595479
Si Si5 0.862298 0.810796 0.862425
Si Si6 0.202206 0.924519 0.169221
Si Si7 0.508248 0.399582 0.546828
O O1 0.743566 0.124973 0.148697
O O2 0.846802 0.230299 0.130065
O O3 0.919810 0.121152 0.197735
O O4 0.902528 0.118436 0.073713
O O5 0.578931 0.944305 0.644325
O O6 0.672904 0.923524 0.755566
O O7 0.750000 0.000000 0.669064
O O8 0.569000 0.686487 0.199926
O O9 0.013301 0.406232 0.529723
O O10 0.893488 0.418349 0.627587
O O11 0.968958 0.525385 0.575825
O O12 0.774794 0.862481 0.847218
O O13 0.920825 0.843910 0.921832
O O14 0.250000 0.000000 0.157786
#
# Coordination Sequence:
#
# PCOD9506158 Si02
#       7
#    16  16   8  16  16  16  16
#     4  11  21  38  64  95 124 159 212 262 307 352
#     4  11  23  39  63  94 127 162 206 258 310 373
#     4  10  19  34  64  94 126 156 201 266 307 348
#     4  11  23  42  61  88 130 166 201 250 312 380
#     4  11  21  38  64  95 124 159 212 262 307 352
#     4  11  23  39  63  94 127 162 206 258 310 373
#     4  10  22  40  62  91 122 165 212 253 309 364
#
# _framework density 18.506699000000001
#
# number of rings (size 3 to 8) (size 9 to 14) (size 15 to 20)
#    0.000    1.231    4.615    3.231    0.000    1.231 
#    0.000    5.385    0.000    1.846    0.000    0.000 
#    0.000    0.000    0.000    0.000    0.000    0.000 
#
# Total GULP energy -289996.550140 kJ/mol
# GULP energy per Si atom -5576.856733 kJ/mol
# Density = 1.846458 g / cm^3
# Si number density = 18.506699 Si / 1000 Ang^3
#
#
#
# Elastic Constant Matrix: (Units=GPa)
#
#
# Indices 1 2 3 4 5 6 
#
# 1 110.0653 33.0167 51.2226 0.0000 0.0000 0.0000
# 2 33.0167 74.3744 40.1201 0.0000 0.0000 0.0000
# 3 51.2226 40.1201 90.8731 0.0000 0.0000 0.0000
# 4 0.0000 0.0000 0.0000 13.2915 0.0000 0.0000
# 5 0.0000 0.0000 0.0000 0.0000 16.3049 0.0000
# 6 0.0000 0.0000 0.0000 0.0000 0.0000 30.9174
#
#
#
# Elastic Compliance Matrix: (Units=1/GPa)
#
#
# Indices 1 2 3 4 5 6 
#
# 1 0.012613 -0.002316 -0.006087 0.000000 0.000000 0.000000
# 2 -0.002316 0.018074 -0.006674 0.000000 0.000000 0.000000
# 3 -0.006087 -0.006674 0.017382 0.000000 0.000000 0.000000
# 4 0.000000 0.000000 0.000000 0.075236 0.000000 0.000000
# 5 0.000000 0.000000 0.000000 0.000000 0.061331 0.000000
# 6 0.000000 0.000000 0.000000 0.000000 0.000000 0.032344
#
#
# Mechanical properties :
#
#
# Convention : Reuss Voigt Hill
#
# Bulk Modulus (GPa) = 55.81979 58.22572 57.02275
# Shear Modulus (GPa) = 19.75450 22.16630 20.96040
#
# Velocity S-wave (km/s) = 3.27069 3.46460 3.36904
# Velocity P-wave (km/s) = 6.67013 6.89455 6.78327
#
# Compressibility (1/GPa) = 0.01791479
#
# Stress axis : x y z
#
# Youngs Moduli (GPa) = 79.28300 55.32880 57.52988
#
# Poissons Ratio (x) = 0.12812 0.35020
# Poissons Ratio (y) = 0.18358 0.38397
# Poissons Ratio (z) = 0.48262 0.36928
#
# Static dielectric constant tensor:
#      x y z
#    x 1.631950 0.000000 0.000000 
#    y 0.000000 1.671320 0.000000 
#    z 0.000000 0.000000 1.663310 
# 
# From -- ./inp_files/38768.got.cif
#   From: 2010.05.17/outbox.cif.g08.bks.cpg/sg68_20_cif.got.tgz:38768.got - 2010.06.03 18:57:09.
