data_PCOD9506859
_publ_section_title
;
Structure prediction by ZEFSAII (Michael W. Deem and Ramdas Pophale) SiO2 
 PCOD9506859
Probable space group: C C C A
;
_chemical_formula_sum "Si O2"
_cell_formula_units_Z 68
_cell_length_a 5.420201
_cell_length_b 22.444106
_cell_length_c 26.409393
_cell_angle_alpha 90.000000
_cell_angle_beta 90.000000
_cell_angle_gamma 90.000000
_cell_volume 3212.744010
_symmetry_space_group_name_H-M "C C C A"
_symmetry_group_IT_number 68
_space_group.IT_coordinate_system_code '2'
_symmetry_cell_setting 'orthorhombic'
loop_
_space_group_symop_operation_xyz
x,y,z
-x,1/2-y,z
x,1/2-y,1/2-z
-x,y,1/2-z
-x,-y,-z
x,1/2+y,-z
-x,1/2+y,1/2+z
x,-y,1/2+z
1/2+x,1/2+y,z
1/2-x,-y,z
1/2+x,-y,1/2-z
1/2-x,1/2+y,1/2-z
1/2-x,1/2-y,-z
1/2+x,y,-z
1/2-x,y,1/2+z
1/2+x,1/2-y,1/2+z
loop_
_atom_site_type_symbol
_atom_site_label
_atom_site_fract_x
_atom_site_fract_y
_atom_site_fract_z
Si Si1 0.257893 0.648393 0.307942
Si Si2 0.747587 0.631251 0.869167
Si Si3 0.500000 0.447052 0.250000
Si Si4 0.000000 0.250000 0.750000
Si Si5 0.250000 0.000000 0.342591
Si Si6 0.245210 0.818403 0.978787
O O1 0.525413 0.649273 0.332825
O O2 0.028754 0.637148 0.346753
O O3 0.220458 0.597998 0.264677
O O4 0.179476 0.709962 0.283281
O O5 0.787892 0.559688 0.874815
O O6 0.764916 0.671887 0.918946
O O7 0.540919 0.484789 0.300629
O O8 0.250000 0.750000 0.000000
O O9 0.499087 0.846244 0.998114
#
# Coordination Sequence:
#
# PCOD9506859 Si02
#       6
#    16  16   8   4   8  16
#     4  10  23  38  59  89 129 161 207 248 300 372
#     4  11  23  40  61  91 117 159 210 258 309 371
#     4   9  18  35  58  88 122 165 198 241 294 348
#     4  10  24  38  56  90 132 178 200 252 312 364
#     4  10  20  36  64  88 124 164 208 252 298 368
#     4  10  22  41  64  86 114 150 197 255 317 374
#
# _framework density 21.165709
#
# number of rings (size 3 to 8) (size 9 to 14) (size 15 to 20)
#    0.000    1.882    0.000    2.824    0.000   17.882 
#    0.000    1.176    0.000    0.000    0.000    0.000 
#    0.000    0.000    0.000    0.000    0.000    0.000 
#
# Total GULP energy -189630.467447 kJ/mol
# GULP energy per Si atom -5577.366690 kJ/mol
# Density = 2.111753 g / cm^3
# Si number density = 21.165709 Si / 1000 Ang^3
#
#
#
# Elastic Constant Matrix: (Units=GPa)
#
#
# Indices 1 2 3 4 5 6 
#
# 1 135.1548 -0.7183 36.2436 0.0000 0.0000 0.0000
# 2 -0.7183 107.6079 34.6056 0.0000 0.0000 0.0000
# 3 36.2436 34.6056 101.1141 0.0000 0.0000 0.0000
# 4 0.0000 0.0000 0.0000 103.6642 0.0000 0.0000
# 5 0.0000 0.0000 0.0000 0.0000 35.4072 0.0000
# 6 0.0000 0.0000 0.0000 0.0000 0.0000 12.3414
#
#
#
# Elastic Compliance Matrix: (Units=1/GPa)
#
#
# Indices 1 2 3 4 5 6 
#
# 1 0.008308 0.001138 -0.003368 0.000000 0.000000 0.000000
# 2 0.001138 0.010598 -0.004035 0.000000 0.000000 0.000000
# 3 -0.003368 -0.004035 0.012478 0.000000 0.000000 0.000000
# 4 0.000000 0.000000 0.000000 0.009647 0.000000 0.000000
# 5 0.000000 0.000000 0.000000 0.000000 0.028243 0.000000
# 6 0.000000 0.000000 0.000000 0.000000 0.000000 0.081028
#
#
# Mechanical properties :
#
#
# Convention : Reuss Voigt Hill
#
# Bulk Modulus (GPa) = 53.03499 53.79318 53.41408
# Shear Modulus (GPa) = 29.56560 48.53229 39.04895
#
# Velocity S-wave (km/s) = 3.74152 4.79369 4.29991
# Velocity P-wave (km/s) = 6.61640 7.49064 7.06705
#
# Compressibility (1/GPa) = 0.01885548
#
# Stress axis : x y z
#
# Youngs Moduli (GPa) = 120.36538 94.35479 80.14137
#
# Poissons Ratio (x) = -0.10742 0.26988
# Poissons Ratio (y) = -0.13703 0.32339
# Poissons Ratio (z) = 0.40534 0.38075
#
# Static dielectric constant tensor:
#      x y z
#    x 1.847550 0.000000 0.000000 
#    y 0.000000 1.809440 0.000000 
#    z 0.000000 0.000000 1.787880 
# 
# From -- ./inp_files/48344.got.cif
#   From: 2010.05.17/outbox.cif.g08.bks.cpg/sg68_25_cif.got.tgz:48344.got - 2010.06.03 18:57:09.
