data_PCOD9506229
_publ_section_title
;
Structure prediction by ZEFSAII (Michael W. Deem and Ramdas Pophale) SiO2 
 PCOD9506229
Probable space group: C C C A
;
_chemical_formula_sum "Si O2"
_cell_formula_units_Z 112
_cell_length_a 10.496066
_cell_length_b 33.542537
_cell_length_c 15.979670
_cell_angle_alpha 90.000000
_cell_angle_beta 90.000000
_cell_angle_gamma 90.000000
_cell_volume 5625.877440
_symmetry_space_group_name_H-M "C C C A"
_symmetry_group_IT_number 68
_space_group.IT_coordinate_system_code '2'
_symmetry_cell_setting 'orthorhombic'
loop_
_space_group_symop_operation_xyz
x,y,z
-x,1/2-y,z
x,1/2-y,1/2-z
-x,y,1/2-z
-x,-y,-z
x,1/2+y,-z
-x,1/2+y,1/2+z
x,-y,1/2+z
1/2+x,1/2+y,z
1/2-x,-y,z
1/2+x,-y,1/2-z
1/2-x,1/2+y,1/2-z
1/2-x,1/2-y,-z
1/2+x,y,-z
1/2-x,y,1/2+z
1/2+x,1/2-y,1/2+z
loop_
_atom_site_type_symbol
_atom_site_label
_atom_site_fract_x
_atom_site_fract_y
_atom_site_fract_z
Si Si1 0.497870 0.084122 0.650660
Si Si2 0.518850 0.792513 0.573338
Si Si3 0.726179 0.899610 0.933126
Si Si4 0.120977 0.025571 0.469919
Si Si5 0.400302 0.840708 0.440191
Si Si6 0.230357 0.712353 0.687504
Si Si7 0.370768 0.658767 0.801928
O O1 0.500000 0.081246 0.750000
O O2 0.364467 0.086096 0.598668
O O3 0.579864 0.047573 0.614879
O O4 0.558356 0.126012 0.624388
O O5 0.500000 0.750000 0.531354
O O6 0.512054 0.826943 0.503874
O O7 0.636776 0.785834 0.635621
O O8 0.403050 0.805514 0.633628
O O9 0.651562 0.937740 0.967800
O O10 0.660903 0.880461 0.852266
O O11 0.707259 0.863975 0.003129
O O12 0.250000 0.000000 0.462345
O O13 0.000000 0.000000 0.500000
O O14 0.363126 0.801733 0.386330
O O15 0.206200 0.750000 0.750000
O O16 0.254405 0.674200 0.746989
O O17 0.500000 0.653026 0.750000
#
# Coordination Sequence:
#
# PCOD9506229 Si02
#       7
#    16  16  16  16  16  16  16
#     4  11  23  44  68  96 138 174 208 274 332 392
#     4  10  19  36  56  82 117 164 220 271 324 382
#     4  10  21  42  69  93 132 176 215 264 333 404
#     4  11  23  47  75 101 135 174 218 266 324 405
#     4  10  23  38  59  92 123 175 223 267 329 411
#     4  11  20  36  61  85 123 166 219 283 331 370
#     4   9  19  35  60  91 120 163 219 272 322 391
#
# _framework density 19.908006
#
# number of rings (size 3 to 8) (size 9 to 14) (size 15 to 20)
#    0.000    1.714    2.857    1.714    0.000    1.714 
#   10.286    0.000    0.000    0.000    0.000    0.000 
#    0.000    0.000    0.000    0.000    0.000    0.000 
#
# Total GULP energy -311784.167042 kJ/mol
# GULP energy per Si atom -5567.574411 kJ/mol
# Density = 1.986269 g / cm^3
# Si number density = 19.908006 Si / 1000 Ang^3
#
#
#
# Elastic Constant Matrix: (Units=GPa)
#
#
# Indices 1 2 3 4 5 6 
#
# 1 80.4622 50.9463 40.7600 0.0000 0.0000 0.0000
# 2 50.9463 115.7698 69.5865 0.0000 0.0000 0.0000
# 3 40.7600 69.5865 123.8910 0.0000 0.0000 0.0000
# 4 0.0000 0.0000 0.0000 29.4337 0.0000 0.0000
# 5 0.0000 0.0000 0.0000 0.0000 20.9465 0.0000
# 6 0.0000 0.0000 0.0000 0.0000 0.0000 15.3995
#
#
#
# Elastic Compliance Matrix: (Units=1/GPa)
#
#
# Indices 1 2 3 4 5 6 
#
# 1 0.017609 -0.006442 -0.002175 0.000000 0.000000 0.000000
# 2 -0.006442 0.015397 -0.006529 0.000000 0.000000 0.000000
# 3 -0.002175 -0.006529 0.012454 0.000000 0.000000 0.000000
# 4 0.000000 0.000000 0.000000 0.033975 0.000000 0.000000
# 5 0.000000 0.000000 0.000000 0.000000 0.047741 0.000000
# 6 0.000000 0.000000 0.000000 0.000000 0.000000 0.064937
#
#
# Mechanical properties :
#
#
# Convention : Reuss Voigt Hill
#
# Bulk Modulus (GPa) = 65.92464 71.41207 68.66835
# Shear Modulus (GPa) = 21.98194 23.74461 22.86328
#
# Velocity S-wave (km/s) = 3.32652 3.45732 3.39255
# Velocity P-wave (km/s) = 6.92393 7.20322 7.06495
#
# Compressibility (1/GPa) = 0.01516884
#
# Stress axis : x y z
#
# Youngs Moduli (GPa) = 56.79024 64.94852 80.29360
#
# Poissons Ratio (x) = 0.41837 0.17465
# Poissons Ratio (y) = 0.36581 0.52422
# Poissons Ratio (z) = 0.12353 0.42403
#
# Static dielectric constant tensor:
#      x y z
#    x 1.751150 0.000000 0.000000 
#    y 0.000000 1.691300 0.000000 
#    z 0.000000 0.000000 3.963610 
# 
# From -- ./inp_files/21273.got.cif
#   From: 2010.05.17/outbox.cif.g08.bks.cpg/sg68_11_cif.got.tgz:21273.got - 2010.06.03 18:57:09.
