data_PCOD9506402
_publ_section_title
;
Structure prediction by ZEFSAII (Michael W. Deem and Ramdas Pophale) SiO2 
 PCOD9506402
Probable space group: C C C A
;
_chemical_formula_sum "Si O2"
_cell_formula_units_Z 88
_cell_length_a 15.147359
_cell_length_b 15.212975
_cell_length_c 18.626212
_cell_angle_alpha 90.000000
_cell_angle_beta 90.000000
_cell_angle_gamma 90.000000
_cell_volume 4292.157123
_symmetry_space_group_name_H-M "C C C A"
_symmetry_group_IT_number 68
_space_group.IT_coordinate_system_code '2'
_symmetry_cell_setting 'orthorhombic'
loop_
_space_group_symop_operation_xyz
x,y,z
-x,1/2-y,z
x,1/2-y,1/2-z
-x,y,1/2-z
-x,-y,-z
x,1/2+y,-z
-x,1/2+y,1/2+z
x,-y,1/2+z
1/2+x,1/2+y,z
1/2-x,-y,z
1/2+x,-y,1/2-z
1/2-x,1/2+y,1/2-z
1/2-x,1/2-y,-z
1/2+x,y,-z
1/2-x,y,1/2+z
1/2+x,1/2-y,1/2+z
loop_
_atom_site_type_symbol
_atom_site_label
_atom_site_fract_x
_atom_site_fract_y
_atom_site_fract_z
Si Si1 0.974984 0.654735 0.833183
Si Si2 0.673836 0.630936 0.024651
Si Si3 0.056534 0.028009 0.677163
Si Si4 0.488339 0.854983 0.542425
Si Si5 0.750000 0.000000 0.356952
Si Si6 0.167911 0.664218 0.566765
O O1 0.873103 0.644123 0.855387
O O2 0.000000 0.750000 0.866650
O O3 0.000000 0.661631 0.750000
O O4 0.027867 0.567684 0.853890
O O5 0.713931 0.574108 0.088737
O O6 0.674823 0.731262 0.053337
O O7 0.577106 0.610147 0.994940
O O8 0.739685 0.624473 0.956707
O O9 0.162727 0.028305 0.686984
O O10 0.000000 0.040072 0.750000
O O11 0.031238 0.099037 0.617561
O O12 0.500000 0.750000 0.552002
O O13 0.406001 0.869200 0.489326
#
# Coordination Sequence:
#
# PCOD9506402 Si02
#       6
#    16  16  16  16   8  16
#     4  10  21  39  61  86 124 167 206 259 315 364
#     4  10  22  34  65  97 121 160 207 266 322 369
#     4  11  25  43  63  89 129 170 213 257 315 382
#     4  10  21  41  65  92 126 164 207 263 313 369
#     4  12  22  40  64  94 124 164 212 262 322 376
#     4  10  19  39  61  93 127 156 213 262 304 384
#
# _framework density 20.502510999999998
#
# number of rings (size 3 to 8) (size 9 to 14) (size 15 to 20)
#    0.000    1.636    1.818    3.818    2.545    1.818 
#    6.545    0.000    0.000    0.000    0.000    0.000 
#    0.000    0.000    0.000    0.000    0.000    0.000 
#
# Total GULP energy -245594.695918 kJ/mol
# GULP energy per Si atom -5581.697635 kJ/mol
# Density = 2.045585 g / cm^3
# Si number density = 20.502511 Si / 1000 Ang^3
#
#
#
# Elastic Constant Matrix: (Units=GPa)
#
#
# Indices 1 2 3 4 5 6 
#
# 1 163.2342 29.0946 65.8705 0.0000 0.0000 0.0000
# 2 29.0946 53.8036 29.0037 0.0000 0.0000 0.0000
# 3 65.8705 29.0037 115.8667 0.0000 0.0000 0.0000
# 4 0.0000 0.0000 0.0000 -40.4019 0.0000 0.0000
# 5 0.0000 0.0000 0.0000 0.0000 63.7062 0.0000
# 6 0.0000 0.0000 0.0000 0.0000 0.0000 17.2495
#
#
#
# Elastic Compliance Matrix: (Units=1/GPa)
#
#
# Indices 1 2 3 4 5 6 
#
# 1 0.008172 -0.002213 -0.004092 0.000000 0.000000 0.000000
# 2 -0.002213 0.022085 -0.004270 0.000000 0.000000 0.000000
# 3 -0.004092 -0.004270 0.012026 0.000000 0.000000 0.000000
# 4 0.000000 0.000000 0.000000 -0.024751 0.000000 0.000000
# 5 0.000000 0.000000 0.000000 0.000000 0.015697 0.000000
# 6 0.000000 0.000000 0.000000 0.000000 0.000000 0.057973
#
#
# Mechanical properties :
#
#
# Convention : Reuss Voigt Hill
#
# Bulk Modulus (GPa) = 47.32096 64.53801 55.92948
# Shear Modulus (GPa) = 41.87798 22.03981 31.95889
#
# Velocity S-wave (km/s) = 4.52439 3.28225 3.95242
# Velocity P-wave (km/s) = 7.10100 6.77574 6.94027
#
# Compressibility (1/GPa) = 0.02113229
#
# Stress axis : x y z
#
# Youngs Moduli (GPa) = 122.37244 45.28011 83.15611
#
# Poissons Ratio (x) = 0.10022 0.34025
# Poissons Ratio (y) = 0.27084 0.35508
# Poissons Ratio (z) = 0.50070 0.19335
#
# Static dielectric constant tensor:
#      x y z
#    x 1.756250 0.000000 0.000000 
#    y 0.000000 1.765220 0.000000 
#    z 0.000000 0.000000 1.768230 
# 
# From -- ./inp_files/38452.got.cif
#   From: 2010.05.17/outbox.cif.g08.bks.cpg/sg68_20_cif.got.tgz:38452.got - 2010.06.03 18:57:09.
