data_PCOD9506274
_publ_section_title
;
Structure prediction by ZEFSAII (Michael W. Deem and Ramdas Pophale) SiO2 
 PCOD9506274
Probable space group: C C C A
;
_chemical_formula_sum "Si O2"
_cell_formula_units_Z 88
_cell_length_a 17.392518
_cell_length_b 12.408179
_cell_length_c 17.285492
_cell_angle_alpha 90.000000
_cell_angle_beta 90.000000
_cell_angle_gamma 90.000000
_cell_volume 3730.372981
_symmetry_space_group_name_H-M "C C C A"
_symmetry_group_IT_number 68
_space_group.IT_coordinate_system_code '2'
_symmetry_cell_setting 'orthorhombic'
loop_
_space_group_symop_operation_xyz
x,y,z
-x,1/2-y,z
x,1/2-y,1/2-z
-x,y,1/2-z
-x,-y,-z
x,1/2+y,-z
-x,1/2+y,1/2+z
x,-y,1/2+z
1/2+x,1/2+y,z
1/2-x,-y,z
1/2+x,-y,1/2-z
1/2-x,1/2+y,1/2-z
1/2-x,1/2-y,-z
1/2+x,y,-z
1/2-x,y,1/2+z
1/2+x,1/2-y,1/2+z
loop_
_atom_site_type_symbol
_atom_site_label
_atom_site_fract_x
_atom_site_fract_y
_atom_site_fract_z
Si Si1 0.131918 0.566694 0.143571
Si Si2 0.490833 0.107191 0.051204
Si Si3 0.256624 0.754761 0.335242
Si Si4 0.750000 0.500000 0.573221
Si Si5 0.150994 0.145507 0.457092
Si Si6 0.868492 0.063268 0.821555
O O1 0.073186 0.633841 0.089213
O O2 0.210735 0.632920 0.150494
O O3 0.136731 0.451689 0.102858
O O4 0.110406 0.548304 0.232856
O O5 0.570364 0.826660 0.001041
O O6 0.442817 0.081711 0.128053
O O7 0.500000 0.000000 0.000000
O O8 0.294502 0.750000 0.250000
O O9 0.313357 0.757371 0.408255
O O10 0.188632 0.666466 0.328701
O O11 0.789438 0.410112 0.518147
O O12 0.818692 0.527725 0.633799
#
# Coordination Sequence:
#
# PCOD9506274 Si02
#       6
#    16  16  16   8  16  16
#     4  10  19  36  61  82 121 162 200 254 303 371
#     4   9  20  36  57  83 116 161 206 240 309 364
#     4  10  21  34  59  92 119 155 199 256 316 361
#     4  10  20  32  54  84 116 156 196 244 314 352
#     4  10  19  38  58  85 123 161 202 253 307 376
#     4  10  22  34  57  90 118 152 211 250 303 372
#
# _framework density 23.590133999999999
#
# number of rings (size 3 to 8) (size 9 to 14) (size 15 to 20)
#    0.000    2.182    1.818    0.545    5.091    3.636 
#    0.000    2.727    4.000    0.000    0.000    0.000 
#    0.000    0.000    0.000    0.000    0.000    0.000 
#
# Total GULP energy -245414.671134 kJ/mol
# GULP energy per Si atom -5577.606162 kJ/mol
# Density = 2.353644 g / cm^3
# Si number density = 23.590134 Si / 1000 Ang^3
#
#
#
# Elastic Constant Matrix: (Units=GPa)
#
#
# Indices 1 2 3 4 5 6 
#
# 1 74.2312 16.6469 47.1143 0.0000 0.0000 0.0000
# 2 16.6469 82.8000 47.8179 0.0000 0.0000 0.0000
# 3 47.1143 47.8179 207.2740 0.0000 0.0000 0.0000
# 4 0.0000 0.0000 0.0000 36.6837 0.0000 0.0000
# 5 0.0000 0.0000 0.0000 0.0000 44.8296 0.0000
# 6 0.0000 0.0000 0.0000 0.0000 0.0000 12.5753
#
#
#
# Elastic Compliance Matrix: (Units=1/GPa)
#
#
# Indices 1 2 3 4 5 6 
#
# 1 0.015859 -0.001277 -0.003310 0.000000 0.000000 0.000000
# 2 -0.001277 0.014036 -0.002948 0.000000 0.000000 0.000000
# 3 -0.003310 -0.002948 0.006257 0.000000 0.000000 0.000000
# 4 0.000000 0.000000 0.000000 0.027260 0.000000 0.000000
# 5 0.000000 0.000000 0.000000 0.000000 0.022307 0.000000
# 6 0.000000 0.000000 0.000000 0.000000 0.000000 0.079521
#
#
# Mechanical properties :
#
#
# Convention : Reuss Voigt Hill
#
# Bulk Modulus (GPa) = 47.43292 65.27372 56.35332
# Shear Modulus (GPa) = 26.68979 35.66612 31.17795
#
# Velocity S-wave (km/s) = 3.36727 3.89254 3.63940
# Velocity P-wave (km/s) = 5.93875 6.92333 6.44986
#
# Compressibility (1/GPa) = 0.02108240
#
# Stress axis : x y z
#
# Youngs Moduli (GPa) = 63.05678 71.24296 159.81942
#
# Poissons Ratio (x) = 0.09096 0.52904
# Poissons Ratio (y) = 0.08050 0.47115
# Poissons Ratio (z) = 0.20873 0.21002
#
# Static dielectric constant tensor:
#      x y z
#    x 1.943730 0.000000 0.000000 
#    y 0.000000 0.741700 0.000000 
#    z 0.000000 0.000000 1.908240 
# 
# From -- ./inp_files/31860.got.cif
#   From: 2010.05.17/outbox.cif.g08.bks.cpg/sg68_16_cif.got.tgz:31860.got - 2010.06.03 18:57:09.
