data_PCOD9506054
_publ_section_title
;
Structure prediction by ZEFSAII (Michael W. Deem and Ramdas Pophale) SiO2 
 PCOD9506054
Probable space group: C C C A
;
_chemical_formula_sum "Si O2"
_cell_formula_units_Z 104
_cell_length_a 9.446479
_cell_length_b 20.003960
_cell_length_c 28.719223
_cell_angle_alpha 90.000000
_cell_angle_beta 90.000000
_cell_angle_gamma 90.000000
_cell_volume 5426.985070
_symmetry_space_group_name_H-M "C C C A"
_symmetry_group_IT_number 68
_space_group.IT_coordinate_system_code '2'
_symmetry_cell_setting 'orthorhombic'
loop_
_space_group_symop_operation_xyz
x,y,z
-x,1/2-y,z
x,1/2-y,1/2-z
-x,y,1/2-z
-x,-y,-z
x,1/2+y,-z
-x,1/2+y,1/2+z
x,-y,1/2+z
1/2+x,1/2+y,z
1/2-x,-y,z
1/2+x,-y,1/2-z
1/2-x,1/2+y,1/2-z
1/2-x,1/2-y,-z
1/2+x,y,-z
1/2-x,y,1/2+z
1/2+x,1/2-y,1/2+z
loop_
_atom_site_type_symbol
_atom_site_label
_atom_site_fract_x
_atom_site_fract_y
_atom_site_fract_z
Si Si1 0.638108 0.124668 0.526253
Si Si2 0.011471 0.053796 0.105601
Si Si3 0.082273 0.817869 0.455030
Si Si4 0.159540 0.566789 0.229826
Si Si5 0.260264 0.918666 0.174672
Si Si6 0.250000 0.000000 0.034049
Si Si7 0.955646 0.907508 0.135192
O O1 0.593619 0.099826 0.577073
O O2 0.754576 0.182526 0.529971
O O3 0.504140 0.149041 0.497227
O O4 0.699911 0.060902 0.498288
O O5 0.097216 0.092366 0.145939
O O6 0.125934 0.026205 0.067860
O O7 0.941169 0.986825 0.125596
O O8 0.078927 0.865866 0.410209
O O9 0.000000 0.750000 0.443930
O O10 0.250000 0.500000 0.220473
O O11 0.241517 0.603456 0.272021
O O12 0.133271 0.605876 0.181967
O O13 0.000000 0.550902 0.250000
O O14 0.121723 0.895675 0.146808
O O15 0.250000 0.000000 0.176725
#
# Coordination Sequence:
#
# PCOD9506054 Si02
#       7
#    16  16  16  16  16   8  16
#     4  12  24  38  58  83 112 156 200 247 294 359
#     4  11  18  32  58  86 119 149 191 236 315 360
#     4  12  26  42  55  76 114 161 204 247 283 339
#     4   9  18  31  51  83 119 151 177 221 295 362
#     4   8  15  31  53  79 117 153 173 219 294 365
#     4  12  18  36  58  86 120 148 190 244 310 360
#     4  10  19  33  55  82 114 150 187 239 287 353
#
# _framework density 19.163494
#
# number of rings (size 3 to 8) (size 9 to 14) (size 15 to 20)
#    0.000    1.538    5.385    2.769    2.154    0.000 
#    0.000    0.000    0.000    4.154    0.000    0.000 
#    0.000    0.000    3.692    0.000    0.000    0.000 
#
# Total GULP energy -290234.296162 kJ/mol
# GULP energy per Si atom -5581.428772 kJ/mol
# Density = 1.911988 g / cm^3
# Si number density = 19.163494 Si / 1000 Ang^3
#
#
#
# Elastic Constant Matrix: (Units=GPa)
#
#
# Indices 1 2 3 4 5 6 
#
# 1 69.4728 26.6830 37.5827 0.0000 0.0000 0.0000
# 2 26.6830 29.7247 24.0128 0.0000 0.0000 0.0000
# 3 37.5827 24.0128 115.3671 0.0000 0.0000 0.0000
# 4 0.0000 0.0000 0.0000 -14.9166 0.0000 0.0000
# 5 0.0000 0.0000 0.0000 0.0000 31.2302 0.0000
# 6 0.0000 0.0000 0.0000 0.0000 0.0000 18.7447
#
#
#
# Elastic Compliance Matrix: (Units=1/GPa)
#
#
# Indices 1 2 3 4 5 6 
#
# 1 0.023341 -0.017803 -0.003898 0.000000 0.000000 0.000000
# 2 -0.017803 0.054022 -0.005445 0.000000 0.000000 0.000000
# 3 -0.003898 -0.005445 0.011071 0.000000 0.000000 0.000000
# 4 0.000000 0.000000 0.000000 -0.067040 0.000000 0.000000
# 5 0.000000 0.000000 0.000000 0.000000 0.032020 0.000000
# 6 0.000000 0.000000 0.000000 0.000000 0.000000 0.053349
#
#
# Mechanical properties :
#
#
# Convention : Reuss Voigt Hill
#
# Bulk Modulus (GPa) = 29.28946 43.45798 36.37372
# Shear Modulus (GPa) = 28.99640 15.43072 22.21356
#
# Velocity S-wave (km/s) = 3.89409 2.84071 3.40834
# Velocity P-wave (km/s) = 5.96118 5.78673 5.87460
#
# Compressibility (1/GPa) = 0.03414197
#
# Stress axis : x y z
#
# Youngs Moduli (GPa) = 42.84367 18.51100 90.32558
#
# Poissons Ratio (x) = 0.32956 0.35209
# Poissons Ratio (y) = 0.76276 0.49178
# Poissons Ratio (z) = 0.16700 0.10078
#
# Static dielectric constant tensor:
#      x y z
#    x 1.714950 0.000000 0.000000 
#    y 0.000000 1.646410 0.000000 
#    z 0.000000 0.000000 1.704540 
# 
# From -- ./inp_files/54131.got.cif
#   From: 2010.05.17/outbox.cif.g08.bks.cpg/sg68_28_cif.got.tgz:54131.got - 2010.06.03 18:57:09.
