data_PCOD9506282
_publ_section_title
;
Structure prediction by ZEFSAII (Michael W. Deem and Ramdas Pophale) SiO2 
 PCOD9506282
Probable space group: C C C A
;
_chemical_formula_sum "Si O2"
_cell_formula_units_Z 112
_cell_length_a 16.284573
_cell_length_b 10.546615
_cell_length_c 32.567497
_cell_angle_alpha 90.000000
_cell_angle_beta 90.000000
_cell_angle_gamma 90.000000
_cell_volume 5593.373876
_symmetry_space_group_name_H-M "C C C A"
_symmetry_group_IT_number 68
_space_group.IT_coordinate_system_code '2'
_symmetry_cell_setting 'orthorhombic'
loop_
_space_group_symop_operation_xyz
x,y,z
-x,1/2-y,z
x,1/2-y,1/2-z
-x,y,1/2-z
-x,-y,-z
x,1/2+y,-z
-x,1/2+y,1/2+z
x,-y,1/2+z
1/2+x,1/2+y,z
1/2-x,-y,z
1/2+x,-y,1/2-z
1/2-x,1/2+y,1/2-z
1/2-x,1/2-y,-z
1/2+x,y,-z
1/2-x,y,1/2+z
1/2+x,1/2-y,1/2+z
loop_
_atom_site_type_symbol
_atom_site_label
_atom_site_fract_x
_atom_site_fract_y
_atom_site_fract_z
Si Si1 0.557584 0.981190 0.790019
Si Si2 0.153075 0.983817 0.924623
Si Si3 0.907026 0.732827 0.084555
Si Si4 0.444455 0.874226 0.497771
Si Si5 0.164248 0.738000 0.793379
Si Si6 0.696534 0.129159 0.340453
Si Si7 0.550604 0.380586 0.848326
O O1 0.500000 0.955405 0.750000
O O2 0.629859 0.885829 0.803705
O O3 0.605709 0.115745 0.786513
O O4 0.505743 0.005807 0.831822
O O5 0.125280 0.902472 0.964156
O O6 0.106693 0.921068 0.885980
O O7 0.250000 0.000000 0.919362
O O8 0.120834 0.127102 0.928197
O O9 0.849514 0.671563 0.118772
O O10 0.000000 0.750000 0.100116
O O11 0.909642 0.650484 0.043156
O O12 0.500000 0.750000 0.487387
O O13 0.500000 0.000000 0.500000
O O14 0.207395 0.750000 0.750000
O O15 0.232849 0.725808 0.827689
O O16 0.104909 0.847634 0.808460
O O17 0.750000 0.000000 0.345126
O O18 0.500000 0.250000 0.857708
#
# Coordination Sequence:
#
# PCOD9506282 Si02
#       7
#    16  16  16  16  16  16  16
#     4  10  19  36  62  89 118 166 226 267 316 384
#     4  12  25  43  65 107 137 163 222 277 339 393
#     4  11  23  46  69  92 136 176 212 273 331 400
#     4  11  23  47  75  98 131 180 222 266 330 406
#     4  10  19  38  60  90 125 162 214 275 322 373
#     4  10  23  41  60  89 129 170 215 261 333 397
#     4  10  21  38  68  92 123 174 218 271 317 390
#
# _framework density 20.023693999999999
#
# number of rings (size 3 to 8) (size 9 to 14) (size 15 to 20)
#    0.000    1.429    4.286    2.143    0.000    1.143 
#   12.857    0.000    0.000    0.000    0.000    0.000 
#    0.000    0.000    0.000    0.000    0.000    0.000 
#
# Total GULP energy -312337.044762 kJ/mol
# GULP energy per Si atom -5577.447228 kJ/mol
# Density = 1.997812 g / cm^3
# Si number density = 20.023694 Si / 1000 Ang^3
#
#
#
# Elastic Constant Matrix: (Units=GPa)
#
#
# Indices 1 2 3 4 5 6 
#
# 1 120.7744 27.1308 57.6953 0.0000 0.0000 0.0000
# 2 27.1308 60.5391 25.2156 0.0000 0.0000 0.0000
# 3 57.6953 25.2156 133.4115 0.0000 0.0000 0.0000
# 4 0.0000 0.0000 0.0000 7.6287 0.0000 0.0000
# 5 0.0000 0.0000 0.0000 0.0000 24.2674 0.0000
# 6 0.0000 0.0000 0.0000 0.0000 0.0000 17.2014
#
#
#
# Elastic Compliance Matrix: (Units=1/GPa)
#
#
# Indices 1 2 3 4 5 6 
#
# 1 0.010977 -0.003193 -0.004143 0.000000 0.000000 0.000000
# 2 -0.003193 0.018859 -0.002183 0.000000 0.000000 0.000000
# 3 -0.004143 -0.002183 0.009700 0.000000 0.000000 0.000000
# 4 0.000000 0.000000 0.000000 0.131083 0.000000 0.000000
# 5 0.000000 0.000000 0.000000 0.000000 0.041208 0.000000
# 6 0.000000 0.000000 0.000000 0.000000 0.000000 0.058135
#
#
# Mechanical properties :
#
#
# Convention : Reuss Voigt Hill
#
# Bulk Modulus (GPa) = 48.79201 59.42316 54.10758
# Shear Modulus (GPa) = 16.90141 23.46506 20.18323
#
# Velocity S-wave (km/s) = 2.90844 3.42696 3.17829
# Velocity P-wave (km/s) = 5.97484 6.73792 6.36782
#
# Compressibility (1/GPa) = 0.02049516
#
# Stress axis : x y z
#
# Youngs Moduli (GPa) = 91.10278 53.02555 103.09137
#
# Poissons Ratio (x) = 0.16933 0.42715
# Poissons Ratio (y) = 0.29093 0.22509
# Poissons Ratio (z) = 0.37747 0.11578
#
# Static dielectric constant tensor:
#      x y z
#    x 1.681100 0.000000 0.000000 
#    y 0.000000 1.726300 0.000000 
#    z 0.000000 0.000000 1.706830 
# 
# From -- ./inp_files/55269.got.cif
#   From: 2010.05.17/outbox.cif.g08.bks.cpg/sg68_28_cif.got.tgz:55269.got - 2010.06.03 18:57:09.
