data_PCOD9506124
_publ_section_title
;
Structure prediction by ZEFSAII (Michael W. Deem and Ramdas Pophale) SiO2 
 PCOD9506124
Probable space group: C C C A
;
_chemical_formula_sum "Si O2"
_cell_formula_units_Z 104
_cell_length_a 11.739896
_cell_length_b 18.537488
_cell_length_c 24.768255
_cell_angle_alpha 90.000000
_cell_angle_beta 90.000000
_cell_angle_gamma 90.000000
_cell_volume 5390.270288
_symmetry_space_group_name_H-M "C C C A"
_symmetry_group_IT_number 68
_space_group.IT_coordinate_system_code '2'
_symmetry_cell_setting 'orthorhombic'
loop_
_space_group_symop_operation_xyz
x,y,z
-x,1/2-y,z
x,1/2-y,1/2-z
-x,y,1/2-z
-x,-y,-z
x,1/2+y,-z
-x,1/2+y,1/2+z
x,-y,1/2+z
1/2+x,1/2+y,z
1/2-x,-y,z
1/2+x,-y,1/2-z
1/2-x,1/2+y,1/2-z
1/2-x,1/2-y,-z
1/2+x,y,-z
1/2-x,y,1/2+z
1/2+x,1/2-y,1/2+z
loop_
_atom_site_type_symbol
_atom_site_label
_atom_site_fract_x
_atom_site_fract_y
_atom_site_fract_z
Si Si1 0.763132 0.781049 0.689834
Si Si2 0.334265 0.641602 0.843694
Si Si3 0.675566 0.929406 0.726072
Si Si4 0.000000 0.750000 0.866772
Si Si5 0.125717 0.037215 0.986085
Si Si6 0.601874 0.606470 0.094890
Si Si7 0.975482 0.958268 0.125782
O O1 0.759898 0.750000 0.750000
O O2 0.674623 0.728448 0.658855
O O3 0.736178 0.865239 0.692338
O O4 0.888416 0.766589 0.667919
O O5 0.350661 0.608564 0.783384
O O6 0.214574 0.615505 0.868696
O O7 0.433812 0.606319 0.878171
O O8 0.577265 0.955501 0.685544
O O9 0.750000 0.000000 0.737402
O O10 0.026571 0.677558 0.898982
O O11 0.114101 0.052689 0.922558
O O12 0.250000 0.000000 0.993311
O O13 0.130612 0.097827 0.031983
O O14 0.000000 0.000000 0.000000
O O15 0.537591 0.534772 0.115775
#
# Coordination Sequence:
#
# PCOD9506124 Si02
#       7
#    16  16  16   8  16  16  16
#     4   9  20  36  53  79 116 154 190 232 294 359
#     4  10  21  37  57  82 114 153 191 240 292 349
#     4  11  21  34  55  84 116 147 190 239 291 348
#     4  10  19  34  58  80 108 148 191 246 294 342
#     4  10  21  38  62  86 115 154 195 244 296 349
#     4  10  20  37  58  83 113 148 197 242 294 350
#     4  11  21  35  58  84 114 149 193 240 289 348
#
# _framework density 19.294022999999999
#
# number of rings (size 3 to 8) (size 9 to 14) (size 15 to 20)
#    0.000    1.846    0.000    5.308    0.000    1.846 
#    0.000    8.462    0.000    7.385    0.000    0.000 
#    0.000    0.000    0.000    0.000    0.000    0.000 
#
# Total GULP energy -289665.798540 kJ/mol
# GULP energy per Si atom -5570.496126 kJ/mol
# Density = 1.925011 g / cm^3
# Si number density = 19.294023 Si / 1000 Ang^3
#
#
#
# Elastic Constant Matrix: (Units=GPa)
#
#
# Indices 1 2 3 4 5 6 
#
# 1 50.7845 11.4177 -1.8549 0.0000 0.0000 0.0000
# 2 11.4177 86.0746 -1.3513 0.0000 0.0000 0.0000
# 3 -1.8549 -1.3513 49.8237 0.0000 0.0000 0.0000
# 4 0.0000 0.0000 0.0000 4.8042 0.0000 0.0000
# 5 0.0000 0.0000 0.0000 0.0000 34.6441 0.0000
# 6 0.0000 0.0000 0.0000 0.0000 0.0000 20.2187
#
#
#
# Elastic Compliance Matrix: (Units=1/GPa)
#
#
# Indices 1 2 3 4 5 6 
#
# 1 0.020320 -0.002685 0.000684 0.000000 0.000000 0.000000
# 2 -0.002685 0.011977 0.000225 0.000000 0.000000 0.000000
# 3 0.000684 0.000225 0.020102 0.000000 0.000000 0.000000
# 4 0.000000 0.000000 0.000000 0.208153 0.000000 0.000000
# 5 0.000000 0.000000 0.000000 0.000000 0.028865 0.000000
# 6 0.000000 0.000000 0.000000 0.000000 0.000000 0.049459
#
#
# Mechanical properties :
#
#
# Convention : Reuss Voigt Hill
#
# Bulk Modulus (GPa) = 20.47195 22.56728 21.51962
# Shear Modulus (GPa) = 13.93881 23.83148 18.88515
#
# Velocity S-wave (km/s) = 2.69074 3.51832 3.13199
# Velocity P-wave (km/s) = 4.50411 5.31288 4.92512
#
# Compressibility (1/GPa) = 0.04884732
#
# Stress axis : x y z
#
# Youngs Moduli (GPa) = 49.21356 83.49003 49.74548
#
# Poissons Ratio (x) = 0.22414 -0.03401
# Poissons Ratio (y) = 0.13212 -0.01119
# Poissons Ratio (z) = -0.03365 -0.01878
#
# Static dielectric constant tensor:
#      x y z
#    x 1.721680 0.000000 0.000000 
#    y 0.000000 1.679770 0.000000 
#    z 0.000000 0.000000 1.673580 
# 
# From -- ./inp_files/50306.got.cif
#   From: 2010.05.17/outbox.cif.g08.bks.cpg/sg68_26_cif.got.tgz:50306.got - 2010.06.03 18:57:09.
