data_PCOD9506522
_publ_section_title
;
Structure prediction by ZEFSAII (Michael W. Deem and Ramdas Pophale) SiO2 
 PCOD9506522
Probable space group: C C C A
;
_chemical_formula_sum "Si O2"
_cell_formula_units_Z 72
_cell_length_a 8.597706
_cell_length_b 19.711293
_cell_length_c 20.830745
_cell_angle_alpha 90.000000
_cell_angle_beta 90.000000
_cell_angle_gamma 90.000000
_cell_volume 3530.225977
_symmetry_space_group_name_H-M "C C C A"
_symmetry_group_IT_number 68
_space_group.IT_coordinate_system_code '2'
_symmetry_cell_setting 'orthorhombic'
loop_
_space_group_symop_operation_xyz
x,y,z
-x,1/2-y,z
x,1/2-y,1/2-z
-x,y,1/2-z
-x,-y,-z
x,1/2+y,-z
-x,1/2+y,1/2+z
x,-y,1/2+z
1/2+x,1/2+y,z
1/2-x,-y,z
1/2+x,-y,1/2-z
1/2-x,1/2+y,1/2-z
1/2-x,1/2-y,-z
1/2+x,y,-z
1/2-x,y,1/2+z
1/2+x,1/2-y,1/2+z
loop_
_atom_site_type_symbol
_atom_site_label
_atom_site_fract_x
_atom_site_fract_y
_atom_site_fract_z
Si Si1 0.058310 0.824742 0.409771
Si Si2 0.583081 0.042566 0.183318
Si Si3 0.750000 0.000000 0.503456
Si Si4 0.404393 0.181953 0.959507
Si Si5 0.472225 0.441134 0.910707
O O1 0.083666 0.888645 0.361097
O O2 0.224164 0.811875 0.443915
O O3 0.000000 0.750000 0.384592
O O4 0.942956 0.845111 0.468474
O O5 0.500000 0.060609 0.250000
O O6 0.750000 0.000000 0.187792
O O7 0.467061 0.988127 0.150395
O O8 0.675685 0.945777 0.455996
O O9 0.884305 0.972315 0.548415
O O10 0.500000 0.250000 0.957147
O O11 0.477976 0.135357 0.903832
#
# Coordination Sequence:
#
# PCOD9506522 Si02
#       5
#    16  16   8  16  16
#     4  11  23  43  70 102 139 172 216 274 346 417
#     4  12  27  48  66  91 130 183 237 284 321 393
#     4  10  20  32  64  96 122 160 206 272 348 400
#     4  11  21  37  66 104 141 168 207 269 354 416
#     4  11  20  38  62  95 131 167 213 273 333 402
#
# _framework density 20.395295999999998
#
# number of rings (size 3 to 8) (size 9 to 14) (size 15 to 20)
#    0.000    0.889    3.333    6.667    1.556    2.222 
#    0.000    0.000    0.000    0.667    0.000    0.000 
#    0.000    0.000    0.000    0.000    0.000    0.000 
#
# Total GULP energy -200719.317933 kJ/mol
# GULP energy per Si atom -5575.536609 kJ/mol
# Density = 2.034887 g / cm^3
# Si number density = 20.395296 Si / 1000 Ang^3
#
#
#
# Elastic Constant Matrix: (Units=GPa)
#
#
# Indices 1 2 3 4 5 6 
#
# 1 109.1379 49.7983 48.2707 0.0000 0.0000 0.0000
# 2 49.7983 134.1013 57.5819 0.0000 0.0000 0.0000
# 3 48.2707 57.5819 102.6098 0.0000 0.0000 0.0000
# 4 0.0000 0.0000 0.0000 24.8953 0.0000 0.0000
# 5 0.0000 0.0000 0.0000 0.0000 15.4086 0.0000
# 6 0.0000 0.0000 0.0000 0.0000 0.0000 38.0095
#
#
#
# Elastic Compliance Matrix: (Units=1/GPa)
#
#
# Indices 1 2 3 4 5 6 
#
# 1 0.012291 -0.002742 -0.004243 0.000000 0.000000 0.000000
# 2 -0.002742 0.010436 -0.004567 0.000000 0.000000 0.000000
# 3 -0.004243 -0.004567 0.014304 0.000000 0.000000 0.000000
# 4 0.000000 0.000000 0.000000 0.040168 0.000000 0.000000
# 5 0.000000 0.000000 0.000000 0.000000 0.064899 0.000000
# 6 0.000000 0.000000 0.000000 0.000000 0.000000 0.026309
#
#
# Mechanical properties :
#
#
# Convention : Reuss Voigt Hill
#
# Bulk Modulus (GPa) = 71.79955 73.01675 72.40815
# Shear Modulus (GPa) = 25.49029 28.34256 26.91642
#
# Velocity S-wave (km/s) = 3.53910 3.73186 3.63676
# Velocity P-wave (km/s) = 7.20977 7.37886 7.29480
#
# Compressibility (1/GPa) = 0.01392766
#
# Stress axis : x y z
#
# Youngs Moduli (GPa) = 81.36305 95.82059 69.90905
#
# Poissons Ratio (x) = 0.26276 0.29663
# Poissons Ratio (y) = 0.22311 0.31924
# Poissons Ratio (z) = 0.34522 0.43756
#
# Static dielectric constant tensor:
#      x y z
#    x 1.766720 0.000000 0.000000 
#    y 0.000000 1.842650 0.000000 
#    z 0.000000 0.000000 1.728670 
# 
# From -- ./inp_files/36027.got.cif
#   From: 2010.05.17/outbox.cif.g08.bks.cpg/sg68_19_cif.got.tgz:36027.got - 2010.06.03 18:57:09.
