data_PCOD9506514
_publ_section_title
;
Structure prediction by ZEFSAII (Michael W. Deem and Ramdas Pophale) SiO2 
 PCOD9506514
Probable space group: C C C A
;
_chemical_formula_sum "Si O2"
_cell_formula_units_Z 72
_cell_length_a 14.791368
_cell_length_b 14.717275
_cell_length_c 17.173262
_cell_angle_alpha 90.000000
_cell_angle_beta 90.000000
_cell_angle_gamma 90.000000
_cell_volume 3738.423886
_symmetry_space_group_name_H-M "C C C A"
_symmetry_group_IT_number 68
_space_group.IT_coordinate_system_code '2'
_symmetry_cell_setting 'orthorhombic'
loop_
_space_group_symop_operation_xyz
x,y,z
-x,1/2-y,z
x,1/2-y,1/2-z
-x,y,1/2-z
-x,-y,-z
x,1/2+y,-z
-x,1/2+y,1/2+z
x,-y,1/2+z
1/2+x,1/2+y,z
1/2-x,-y,z
1/2+x,-y,1/2-z
1/2-x,1/2+y,1/2-z
1/2-x,1/2-y,-z
1/2+x,y,-z
1/2-x,y,1/2+z
1/2+x,1/2-y,1/2+z
loop_
_atom_site_type_symbol
_atom_site_label
_atom_site_fract_x
_atom_site_fract_y
_atom_site_fract_z
Si Si1 0.250000 0.000000 0.786064
Si Si2 0.225252 0.371337 0.859281
Si Si3 0.406404 0.781687 0.839360
Si Si4 0.412423 0.986343 0.889361
Si Si5 0.109601 0.535183 0.926782
O O1 0.229204 0.084351 0.727508
O O2 0.169016 0.967435 0.842482
O O3 0.182046 0.272114 0.868173
O O4 0.157311 0.440932 0.902213
O O5 0.324228 0.386403 0.895487
O O6 0.500000 0.750000 0.879103
O O7 0.409957 0.750000 0.750000
O O8 0.412124 0.888603 0.848048
O O9 0.509814 0.034829 0.889284
O O10 0.394093 0.966401 0.980094
#
# Coordination Sequence:
#
# PCOD9506514 Si02
#       5
#     8  16  16  16  16
#     4  10  20  32  58  84 114 154 198 240 292 364
#     4  10  20  36  55  87 117 147 194 248 295 351
#     4  11  21  34  58  88 115 146 196 256 292 341
#     4  11  20  37  58  86 114 157 195 243 295 360
#     4   9  21  35  56  83 120 151 195 239 298 362
#
# _framework density 19.259453000000001
#
# number of rings (size 3 to 8) (size 9 to 14) (size 15 to 20)
#    0.000    2.000    4.444    1.333    0.000    4.444 
#    0.000    0.000    0.000    0.000    0.000    0.000 
#    0.000    0.000    0.000    0.000    0.000    0.000 
#
# Total GULP energy -200488.542364 kJ/mol
# GULP energy per Si atom -5569.126177 kJ/mol
# Density = 1.921562 g / cm^3
# Si number density = 19.259453 Si / 1000 Ang^3
#
#
#
# Elastic Constant Matrix: (Units=GPa)
#
#
# Indices 1 2 3 4 5 6 
#
# 1 148.1356 12.3411 50.3299 0.0000 0.0000 0.0000
# 2 12.3411 21.6243 -0.0312 0.0000 0.0000 0.0000
# 3 50.3299 -0.0312 75.8855 0.0000 0.0000 0.0000
# 4 0.0000 0.0000 0.0000 4.7703 0.0000 0.0000
# 5 0.0000 0.0000 0.0000 0.0000 428.5823 0.0000
# 6 0.0000 0.0000 0.0000 0.0000 0.0000 -3.0441
#
#
#
# Elastic Compliance Matrix: (Units=1/GPa)
#
#
# Indices 1 2 3 4 5 6 
#
# 1 0.009286 -0.005309 -0.006161 0.000000 0.000000 0.000000
# 2 -0.005309 0.049279 0.003541 0.000000 0.000000 0.000000
# 3 -0.006161 0.003541 0.017265 0.000000 0.000000 0.000000
# 4 0.000000 0.000000 0.000000 0.209632 0.000000 0.000000
# 5 0.000000 0.000000 0.000000 0.000000 0.002333 0.000000
# 6 0.000000 0.000000 0.000000 0.000000 0.000000 -0.328501
#
#
# Mechanical properties :
#
#
# Convention : Reuss Voigt Hill
#
# Bulk Modulus (GPa) = 16.67404 41.21390 28.94397
# Shear Modulus (GPa) = -1029.40813 98.26206 -465.57304
#
# Velocity S-wave (km/s) = -23.14423 7.15059 -15.56477
# Velocity P-wave (km/s) = 26.56183 9.46680 17.54865
#
# Compressibility (1/GPa) = 0.05997345
#
# Stress axis : x y z
#
# Youngs Moduli (GPa) = 107.68824 20.29265 57.91929
#
# Poissons Ratio (x) = 0.10772 0.35684
# Poissons Ratio (y) = 0.57166 -0.20510
# Poissons Ratio (z) = 0.66347 -0.07186
#
# Static dielectric constant tensor:
#      x y z
#    x 1.772740 0.000000 0.000000 
#    y 0.000000 1.682400 0.000000 
#    z 0.000000 0.000000 1.704360 
# 
# From -- ./inp_files/30656.got.cif
#   From: 2010.05.17/outbox.cif.g08.bks.cpg/sg68_16_cif.got.tgz:30656.got - 2010.06.03 18:57:09.
