data_PCOD9506060
_publ_section_title
;
Structure prediction by ZEFSAII (Michael W. Deem and Ramdas Pophale) SiO2 
 PCOD9506060
Probable space group: C C C A
;
_chemical_formula_sum "Si O2"
_cell_formula_units_Z 104
_cell_length_a 20.338008
_cell_length_b 12.131239
_cell_length_c 23.026088
_cell_angle_alpha 90.000000
_cell_angle_beta 90.000000
_cell_angle_gamma 90.000000
_cell_volume 5681.116992
_symmetry_space_group_name_H-M "C C C A"
_symmetry_group_IT_number 68
_space_group.IT_coordinate_system_code '2'
_symmetry_cell_setting 'orthorhombic'
loop_
_space_group_symop_operation_xyz
x,y,z
-x,1/2-y,z
x,1/2-y,1/2-z
-x,y,1/2-z
-x,-y,-z
x,1/2+y,-z
-x,1/2+y,1/2+z
x,-y,1/2+z
1/2+x,1/2+y,z
1/2-x,-y,z
1/2+x,-y,1/2-z
1/2-x,1/2+y,1/2-z
1/2-x,1/2-y,-z
1/2+x,y,-z
1/2-x,y,1/2+z
1/2+x,1/2-y,1/2+z
loop_
_atom_site_type_symbol
_atom_site_label
_atom_site_fract_x
_atom_site_fract_y
_atom_site_fract_z
Si Si1 0.000000 0.250000 0.511533
Si Si2 0.884087 0.105778 0.941906
Si Si3 0.218132 0.724674 0.063331
Si Si4 0.299948 0.598352 0.161560
Si Si5 0.122327 0.250000 0.250000
Si Si6 0.484710 0.564743 0.417491
Si Si7 0.377953 0.017863 0.438494
Si Si8 0.500000 0.250000 0.670149
O O1 0.940819 0.303153 0.547420
O O2 0.973655 0.154020 0.468470
O O3 0.821032 0.166288 0.916766
O O4 0.918895 0.005309 0.908421
O O5 0.865392 0.059097 0.005583
O O6 0.264874 0.681468 0.115148
O O7 0.164348 0.627828 0.054029
O O8 0.250000 0.750000 0.000000
O O9 0.250000 0.500000 0.179471
O O10 0.332342 0.662082 0.215801
O O11 0.352492 0.537763 0.120412
O O12 0.067190 0.284542 0.297404
O O13 0.543202 0.480854 0.433622
O O14 0.512401 0.641338 0.367070
#
# Coordination Sequence:
#
# PCOD9506060 Si02
#       8
#     8  16  16  16   8  16  16   8
#     4   9  18  31  50  81 118 157 185 225 282 360
#     4  11  19  31  52  86 122 158 186 226 288 366
#     4  11  22  35  55  84 124 166 197 228 293 373
#     4  10  22  41  62  84 116 163 200 250 300 360
#     4  11  22  44  66  82 106 151 212 256 306 347
#     4  10  19  33  55  86 119 149 193 248 300 345
#     4  10  19  35  55  81 121 160 193 235 295 352
#     4  10  22  39  66  88 106 146 203 277 305 343
#
# _framework density 18.306259000000001
#
# number of rings (size 3 to 8) (size 9 to 14) (size 15 to 20)
#    0.000    1.692    3.077    3.692    0.000    1.231 
#    2.769    0.000    0.000    0.000    0.000    0.000 
#    0.000    0.000    0.000    0.000    0.000    0.000 
#
# Total GULP energy -289502.903118 kJ/mol
# GULP energy per Si atom -5567.363521 kJ/mol
# Density = 1.826459 g / cm^3
# Si number density = 18.306259 Si / 1000 Ang^3
#
#
#
# Elastic Constant Matrix: (Units=GPa)
#
#
# Indices 1 2 3 4 5 6 
#
# 1 79.4730 64.2550 33.9846 0.0000 0.0000 0.0000
# 2 64.2550 92.0937 47.1676 0.0000 0.0000 0.0000
# 3 33.9846 47.1676 68.8569 0.0000 0.0000 0.0000
# 4 0.0000 0.0000 0.0000 24.2726 0.0000 0.0000
# 5 0.0000 0.0000 0.0000 0.0000 49.5866 0.0000
# 6 0.0000 0.0000 0.0000 0.0000 0.0000 36.4640
#
#
#
# Elastic Compliance Matrix: (Units=1/GPa)
#
#
# Indices 1 2 3 4 5 6 
#
# 1 0.028889 -0.019800 -0.000695 0.000000 0.000000 0.000000
# 2 -0.019800 0.030298 -0.010982 0.000000 0.000000 0.000000
# 3 -0.000695 -0.010982 0.022389 0.000000 0.000000 0.000000
# 4 0.000000 0.000000 0.000000 0.041199 0.000000 0.000000
# 5 0.000000 0.000000 0.000000 0.000000 0.020167 0.000000
# 6 0.000000 0.000000 0.000000 0.000000 0.000000 0.027424
#
#
# Mechanical properties :
#
#
# Convention : Reuss Voigt Hill
#
# Bulk Modulus (GPa) = 53.70183 59.02645 56.36414
# Shear Modulus (GPa) = 20.87455 28.39909 24.63682
#
# Velocity S-wave (km/s) = 3.38049 3.94297 3.67251
# Velocity P-wave (km/s) = 6.68101 7.28308 6.98853
#
# Compressibility (1/GPa) = 0.01862134
#
# Stress axis : x y z
#
# Youngs Moduli (GPa) = 34.61551 33.00548 44.66577
#
# Poissons Ratio (x) = 0.65352 0.03104
# Poissons Ratio (y) = 0.68540 0.49052
# Poissons Ratio (z) = 0.02405 0.36246
#
# Static dielectric constant tensor:
#      x y z
#    x 1.690970 0.000000 0.000000 
#    y 0.000000 1.695940 0.000000 
#    z 0.000000 0.000000 1.648080 
# 
# From -- ./inp_files/51479.got.cif
#   From: 2010.05.17/outbox.cif.g08.bks.cpg/sg68_26_cif.got.tgz:51479.got - 2010.06.03 18:57:09.
