data_PCOD9506250
_publ_section_title
;
Structure prediction by ZEFSAII (Michael W. Deem and Ramdas Pophale) SiO2 
 PCOD9506250
Probable space group: C C C A
;
_chemical_formula_sum "Si O2"
_cell_formula_units_Z 120
_cell_length_a 11.588922
_cell_length_b 19.894015
_cell_length_c 26.150949
_cell_angle_alpha 90.000000
_cell_angle_beta 90.000000
_cell_angle_gamma 90.000000
_cell_volume 6029.106211
_symmetry_space_group_name_H-M "C C C A"
_symmetry_group_IT_number 68
_space_group.IT_coordinate_system_code '2'
_symmetry_cell_setting 'orthorhombic'
loop_
_space_group_symop_operation_xyz
x,y,z
-x,1/2-y,z
x,1/2-y,1/2-z
-x,y,1/2-z
-x,-y,-z
x,1/2+y,-z
-x,1/2+y,1/2+z
x,-y,1/2+z
1/2+x,1/2+y,z
1/2-x,-y,z
1/2+x,-y,1/2-z
1/2-x,1/2+y,1/2-z
1/2-x,1/2-y,-z
1/2+x,y,-z
1/2-x,y,1/2+z
1/2+x,1/2-y,1/2+z
loop_
_atom_site_type_symbol
_atom_site_label
_atom_site_fract_x
_atom_site_fract_y
_atom_site_fract_z
Si Si1 0.812263 0.063851 0.882890
Si Si2 0.892252 0.801140 0.040084
Si Si3 0.645755 0.692908 0.789323
Si Si4 0.281745 0.404288 0.771309
Si Si5 0.204451 0.193114 0.069845
Si Si6 0.428772 0.401991 0.128458
Si Si7 0.250000 0.000000 0.314055
Si Si8 0.374194 0.275019 0.820015
O O1 0.752261 0.070091 0.827124
O O2 0.785726 0.130118 0.915966
O O3 0.948940 0.060527 0.873849
O O4 0.750000 0.000000 0.907843
O O5 0.782410 0.758600 0.059766
O O6 0.904104 0.868167 0.073741
O O7 0.000000 0.750000 0.045073
O O8 0.870280 0.818133 0.980766
O O9 0.610035 0.750000 0.750000
O O10 0.668562 0.627801 0.754568
O O11 0.567172 0.664325 0.834496
O O12 0.766596 0.723407 0.811851
O O13 0.323444 0.455537 0.727480
O O14 0.356808 0.339287 0.783770
O O15 0.131238 0.203815 0.120853
O O16 0.329614 0.451570 0.150890
O O17 0.500000 0.250000 0.809183
#
# Coordination Sequence:
#
# PCOD9506250 Si02
#       8
#    16  16  16  16  16  16   8  16
#     4  11  23  45  63  92 129 178 216 261 324 389
#     4  11  21  41  72  98 123 160 210 277 342 382
#     4   9  19  35  57  93 126 160 219 267 318 375
#     4   9  20  39  58  86 128 168 219 254 315 380
#     4  10  22  40  65  98 129 158 213 270 330 404
#     4  11  23  43  67  92 132 172 219 270 322 387
#     4  10  22  44  60  96 128 176 224 258 316 384
#     4  10  19  36  58  92 131 167 209 265 329 385
#
# _framework density 19.903448000000001
#
# number of rings (size 3 to 8) (size 9 to 14) (size 15 to 20)
#    0.000    1.867    3.333    0.400    0.000    4.533 
#   13.200    4.000    0.000    0.000    0.000    0.000 
#    0.000    0.000    0.000    0.000    0.000    0.000 
#
# Total GULP energy -334485.770286 kJ/mol
# GULP energy per Si atom -5574.762838 kJ/mol
# Density = 1.985815 g / cm^3
# Si number density = 19.903448 Si / 1000 Ang^3
#
#
#
# Elastic Constant Matrix: (Units=GPa)
#
#
# Indices 1 2 3 4 5 6 
#
# 1 84.5706 28.2900 28.9662 0.0000 0.0000 0.0000
# 2 28.2900 78.9355 34.2018 0.0000 0.0000 0.0000
# 3 28.9662 34.2018 125.1476 0.0000 0.0000 0.0000
# 4 0.0000 0.0000 0.0000 17.7239 0.0000 0.0000
# 5 0.0000 0.0000 0.0000 0.0000 109.7099 0.0000
# 6 0.0000 0.0000 0.0000 0.0000 0.0000 24.3208
#
#
#
# Elastic Compliance Matrix: (Units=1/GPa)
#
#
# Indices 1 2 3 4 5 6 
#
# 1 0.013908 -0.004072 -0.002106 0.000000 0.000000 0.000000
# 2 -0.004072 0.015562 -0.003311 0.000000 0.000000 0.000000
# 3 -0.002106 -0.003311 0.009383 0.000000 0.000000 0.000000
# 4 0.000000 0.000000 0.000000 0.056421 0.000000 0.000000
# 5 0.000000 0.000000 0.000000 0.000000 0.009115 0.000000
# 6 0.000000 0.000000 0.000000 0.000000 0.000000 0.041117
#
#
# Mechanical properties :
#
#
# Convention : Reuss Voigt Hill
#
# Bulk Modulus (GPa) = 50.31292 52.39664 51.35478
# Shear Modulus (GPa) = 29.22114 43.49730 36.35922
#
# Velocity S-wave (km/s) = 3.83579 4.67991 4.27872
# Velocity P-wave (km/s) = 6.70456 7.45551 7.08999
#
# Compressibility (1/GPa) = 0.01987561
#
# Stress axis : x y z
#
# Youngs Moduli (GPa) = 71.90121 64.25757 106.57767
#
# Poissons Ratio (x) = 0.26165 0.22448
# Poissons Ratio (y) = 0.29278 0.35284
# Poissons Ratio (z) = 0.15144 0.21273
#
# Static dielectric constant tensor:
#      x y z
#    x 1.718390 0.000000 0.000000 
#    y 0.000000 1.224850 0.000000 
#    z 0.000000 0.000000 1.714900 
# 
# From -- ./inp_files/50437.got.cif
#   From: 2010.05.17/outbox.cif.g08.bks.cpg/sg68_26_cif.got.tgz:50437.got - 2010.06.03 18:57:09.
