data_PCOD9506107
_publ_section_title
;
Structure prediction by ZEFSAII (Michael W. Deem and Ramdas Pophale) SiO2 
 PCOD9506107
Probable space group: C C C A
;
_chemical_formula_sum "Si O2"
_cell_formula_units_Z 64
_cell_length_a 27.347098
_cell_length_b 5.246167
_cell_length_c 24.515230
_cell_angle_alpha 90.000000
_cell_angle_beta 90.000000
_cell_angle_gamma 90.000000
_cell_volume 3517.137364
_symmetry_space_group_name_H-M "C C C A"
_symmetry_group_IT_number 68
_space_group.IT_coordinate_system_code '2'
_symmetry_cell_setting 'orthorhombic'
loop_
_space_group_symop_operation_xyz
x,y,z
-x,1/2-y,z
x,1/2-y,1/2-z
-x,y,1/2-z
-x,-y,-z
x,1/2+y,-z
-x,1/2+y,1/2+z
x,-y,1/2+z
1/2+x,1/2+y,z
1/2-x,-y,z
1/2+x,-y,1/2-z
1/2-x,1/2+y,1/2-z
1/2-x,1/2-y,-z
1/2+x,y,-z
1/2-x,y,1/2+z
1/2+x,1/2-y,1/2+z
loop_
_atom_site_type_symbol
_atom_site_label
_atom_site_fract_x
_atom_site_fract_y
_atom_site_fract_z
Si Si1 0.055979 0.724858 0.856316
Si Si2 0.720846 0.750334 0.816421
Si Si3 0.444697 0.067616 0.979320
Si Si4 0.392162 0.221384 0.315246
O O1 0.055891 0.807934 0.919844
O O2 0.075912 0.442956 0.843880
O O3 0.000000 0.750000 0.837101
O O4 0.088743 0.939390 0.828017
O O5 0.720831 0.750000 0.750000
O O6 0.750000 0.500000 0.834300
O O7 0.664255 0.749957 0.832796
O O8 0.750000 0.000000 0.834404
O O9 0.421890 0.285469 0.017961
O O10 0.500000 0.000000 0.000000
O O11 0.395069 0.250000 0.250000
#
# Coordination Sequence:
#
# PCOD9506107 Si02
#       4
#    16  16  16  16
#     4  12  23  35  55  77 112 157 184 218 266 322
#     4   9  17  33  56  75  98 137 181 232 279 300
#     4  10  19  34  56  76  98 136 179 245 280 298
#     4  11  24  37  51  80 117 149 189 220 251 332
#
# _framework density 18.196617
#
# number of rings (size 3 to 8) (size 9 to 14) (size 15 to 20)
#    0.000    1.500    2.500    4.500    3.500    7.000 
#    0.000    0.000    0.000    0.000    0.000    0.000 
#    0.000   70.000    0.000    0.000    0.000    0.000 
#
# Total GULP energy -178444.992743 kJ/mol
# GULP energy per Si atom -5576.406023 kJ/mol
# Density = 1.815520 g / cm^3
# Si number density = 18.196617 Si / 1000 Ang^3
#
#
#
# Elastic Constant Matrix: (Units=GPa)
#
#
# Indices 1 2 3 4 5 6 
#
# 1 85.5690 8.2205 -9.1118 0.0000 0.0000 0.0000
# 2 8.2205 107.0696 -10.3409 0.0000 0.0000 0.0000
# 3 -9.1118 -10.3409 46.2025 0.0000 0.0000 0.0000
# 4 0.0000 0.0000 0.0000 30.7006 0.0000 0.0000
# 5 0.0000 0.0000 0.0000 0.0000 0.4573 0.0000
# 6 0.0000 0.0000 0.0000 0.0000 0.0000 31.4649
#
#
#
# Elastic Compliance Matrix: (Units=1/GPa)
#
#
# Indices 1 2 3 4 5 6 
#
# 1 0.011989 -0.000707 0.002206 0.000000 0.000000 0.000000
# 2 -0.000707 0.009588 0.002006 0.000000 0.000000 0.000000
# 3 0.002206 0.002006 0.022528 0.000000 0.000000 0.000000
# 4 0.000000 0.000000 0.000000 0.032573 0.000000 0.000000
# 5 0.000000 0.000000 0.000000 0.000000 2.186610 0.000000
# 6 0.000000 0.000000 0.000000 0.000000 0.000000 0.031781
#
#
# Mechanical properties :
#
#
# Convention : Reuss Voigt Hill
#
# Bulk Modulus (GPa) = 19.56358 24.04185 21.80272
# Shear Modulus (GPa) = 2.16911 29.19612 15.68261
#
# Velocity S-wave (km/s) = 1.09299 4.00994 2.93890
# Velocity P-wave (km/s) = 3.51673 5.88901 4.85015
#
# Compressibility (1/GPa) = 0.05111539
#
# Stress axis : x y z
#
# Youngs Moduli (GPa) = 83.40730 104.29910 44.38920
#
# Poissons Ratio (x) = 0.07378 -0.09793
# Poissons Ratio (y) = 0.05901 -0.08906
# Poissons Ratio (z) = -0.18401 -0.20927
#
# Static dielectric constant tensor:
#      x y z
#    x 1.634300 0.000000 0.000000 
#    y 0.000000 1.690370 0.000000 
#    z 0.000000 0.000000 1.658760 
# 
# From -- ./inp_files/40562.got.cif
#   From: 2010.05.17/outbox.cif.g08.bks.cpg/sg68_21_cif.got.tgz:40562.got - 2010.06.03 18:57:09.
