data_PCOD9506834
_publ_section_title
;
Structure prediction by ZEFSAII (Michael W. Deem and Ramdas Pophale) SiO2 
 PCOD9506834
Probable space group: C C C A
;
_chemical_formula_sum "Si O2"
_cell_formula_units_Z 116
_cell_length_a 16.623963
_cell_length_b 20.186944
_cell_length_c 14.580858
_cell_angle_alpha 90.000000
_cell_angle_beta 90.000000
_cell_angle_gamma 90.000000
_cell_volume 4893.146541
_symmetry_space_group_name_H-M "C C C A"
_symmetry_group_IT_number 68
_space_group.IT_coordinate_system_code '2'
_symmetry_cell_setting 'orthorhombic'
loop_
_space_group_symop_operation_xyz
x,y,z
-x,1/2-y,z
x,1/2-y,1/2-z
-x,y,1/2-z
-x,-y,-z
x,1/2+y,-z
-x,1/2+y,1/2+z
x,-y,1/2+z
1/2+x,1/2+y,z
1/2-x,-y,z
1/2+x,-y,1/2-z
1/2-x,1/2+y,1/2-z
1/2-x,1/2-y,-z
1/2+x,y,-z
1/2-x,y,1/2+z
1/2+x,1/2-y,1/2+z
loop_
_atom_site_type_symbol
_atom_site_label
_atom_site_fract_x
_atom_site_fract_y
_atom_site_fract_z
Si Si1 0.177994 0.875236 0.902015
Si Si2 0.377553 0.644257 0.811028
Si Si3 0.634213 0.127622 0.092939
Si Si4 0.894098 0.007508 0.334478
Si Si5 0.343389 0.739132 0.467467
Si Si6 0.567683 0.991725 0.116013
Si Si7 0.500000 0.750000 0.750000
Si Si8 0.695208 0.139569 0.817785
O O1 0.271305 0.883984 0.929656
O O2 0.132758 0.813893 0.948269
O O3 0.129738 0.940595 0.925284
O O4 0.180175 0.860728 0.791738
O O5 0.371770 0.635454 0.701300
O O6 0.388934 0.571229 0.854264
O O7 0.445206 0.700882 0.813300
O O8 0.286803 0.661521 0.837528
O O9 0.581896 0.063399 0.073099
O O10 0.612997 0.195201 0.043006
O O11 0.907894 0.006333 0.224137
O O12 0.826203 0.063944 0.349272
O O13 0.975982 0.030375 0.382429
O O14 0.250000 0.750000 0.500000
O O15 0.351692 0.694326 0.376002
#
# Coordination Sequence:
#
# PCOD9506834 Si02
#       8
#    16  16  16  16  16  16   4  16
#     4   9  18  32  57  88 114 155 209 263 305 364
#     4  10  21  36  60  92 123 154 198 257 316 386
#     4   9  18  34  58  81 123 160 202 249 315 384
#     4   9  18  36  59  89 114 152 204 259 303 359
#     4  10  21  35  55  86 119 161 208 256 308 379
#     4   9  16  32  59  84 115 151 200 260 307 364
#     4  12  24  32  64 100 128 154 200 252 340 388
#     4  10  20  36  62  84 118 158 212 258 306 364
#
# _framework density 23.706627999999998
#
# number of rings (size 3 to 8) (size 9 to 14) (size 15 to 20)
#    0.000    2.483    0.000    2.897    5.793    3.310 
#    0.000    6.897    3.034    3.310    0.000    0.000 
#    0.000    0.000    0.000    0.000    0.000    0.000 
#
# Total GULP energy -323732.198903 kJ/mol
# GULP energy per Si atom -5581.589636 kJ/mol
# Density = 2.365267 g / cm^3
# Si number density = 23.706628 Si / 1000 Ang^3
#
#
#
# Elastic Constant Matrix: (Units=GPa)
#
#
# Indices 1 2 3 4 5 6 
#
# 1 72.4560 50.2066 17.0968 0.0000 0.0000 0.0000
# 2 50.2066 129.1604 18.6584 0.0000 0.0000 0.0000
# 3 17.0968 18.6584 62.9554 0.0000 0.0000 0.0000
# 4 0.0000 0.0000 0.0000 -9.8843 0.0000 0.0000
# 5 0.0000 0.0000 0.0000 0.0000 6.9448 0.0000
# 6 0.0000 0.0000 0.0000 0.0000 0.0000 34.3720
#
#
#
# Elastic Compliance Matrix: (Units=1/GPa)
#
#
# Indices 1 2 3 4 5 6 
#
# 1 0.019481 -0.007113 -0.003182 0.000000 0.000000 0.000000
# 2 -0.007113 0.010686 -0.001235 0.000000 0.000000 0.000000
# 3 -0.003182 -0.001235 0.017115 0.000000 0.000000 0.000000
# 4 0.000000 0.000000 0.000000 -0.101170 0.000000 0.000000
# 5 0.000000 0.000000 0.000000 0.000000 0.143992 0.000000
# 6 0.000000 0.000000 0.000000 0.000000 0.000000 0.029093
#
#
# Mechanical properties :
#
#
# Convention : Reuss Voigt Hill
#
# Bulk Modulus (GPa) = 41.28789 48.49947 44.89368
# Shear Modulus (GPa) = 33.25989 18.19384 25.72686
#
# Velocity S-wave (km/s) = 3.74970 2.77331 3.29784
# Velocity P-wave (km/s) = 6.01673 5.54595 5.78613
#
# Compressibility (1/GPa) = 0.02422018
#
# Stress axis : x y z
#
# Youngs Moduli (GPa) = 51.33187 93.58356 58.42959
#
# Poissons Ratio (x) = 0.66565 0.18595
# Poissons Ratio (y) = 0.36512 0.07218
# Poissons Ratio (z) = 0.16336 0.11560
#
# Static dielectric constant tensor:
#      x y z
#    x 1.900680 0.000000 0.000000 
#    y 0.000000 1.901760 0.000000 
#    z 0.000000 0.000000 1.965370 
# 
# From -- ./inp_files/32156.got.cif
#   From: 2010.05.17/outbox.cif.g08.bks.cpg/sg68_17_cif.got.tgz:32156.got - 2010.06.03 18:57:09.
