data_PCOD9506401
_publ_section_title
;
Structure prediction by ZEFSAII (Michael W. Deem and Ramdas Pophale) SiO2 
 PCOD9506401
Probable space group: C C C A
;
_chemical_formula_sum "Si O2"
_cell_formula_units_Z 104
_cell_length_a 13.908785
_cell_length_b 18.607418
_cell_length_c 19.197298
_cell_angle_alpha 90.000000
_cell_angle_beta 90.000000
_cell_angle_gamma 90.000000
_cell_volume 4968.386971
_symmetry_space_group_name_H-M "C C C A"
_symmetry_group_IT_number 68
_space_group.IT_coordinate_system_code '2'
_symmetry_cell_setting 'orthorhombic'
loop_
_space_group_symop_operation_xyz
x,y,z
-x,1/2-y,z
x,1/2-y,1/2-z
-x,y,1/2-z
-x,-y,-z
x,1/2+y,-z
-x,1/2+y,1/2+z
x,-y,1/2+z
1/2+x,1/2+y,z
1/2-x,-y,z
1/2+x,-y,1/2-z
1/2-x,1/2+y,1/2-z
1/2-x,1/2-y,-z
1/2+x,y,-z
1/2-x,y,1/2+z
1/2+x,1/2-y,1/2+z
loop_
_atom_site_type_symbol
_atom_site_label
_atom_site_fract_x
_atom_site_fract_y
_atom_site_fract_z
Si Si1 0.108167 0.732117 0.105361
Si Si2 0.229067 0.838727 0.573283
Si Si3 0.402899 0.485256 0.288888
Si Si4 0.115825 0.459200 0.951892
Si Si5 0.413820 0.603113 0.528305
Si Si6 0.814843 0.750000 0.250000
Si Si7 0.781742 0.883602 0.770999
O O1 0.196577 0.772800 0.067679
O O2 0.114828 0.645402 0.098574
O O3 0.118622 0.763417 0.183434
O O4 0.000000 0.750000 0.080362
O O5 0.290947 0.909966 0.554210
O O6 0.133233 0.843494 0.528034
O O7 0.201226 0.848783 0.653393
O O8 0.500000 0.463151 0.250000
O O9 0.408449 0.489204 0.373726
O O10 0.315770 0.430388 0.275608
O O11 0.367501 0.561529 0.257655
O O12 0.027564 0.408095 0.972691
O O13 0.122113 0.523379 0.007767
O O14 0.746171 0.684882 0.274174
#
# Coordination Sequence:
#
# PCOD9506401 Si02
#       7
#    16  16  16  16  16   8  16
#     4  11  22  38  60  90 123 158 205 254 313 368
#     4  10  19  39  61  81 121 161 195 251 309 365
#     4  10  20  37  65  86 119 161 202 253 304 371
#     4  10  21  37  60  90 119 158 204 249 299 369
#     4  11  21  35  60  88 121 156 201 243 304 369
#     4  10  23  38  63  90 122 156 202 265 307 364
#     4   9  20  38  61  88 117 159 203 245 317 367
#
# _framework density 20.932347
#
# number of rings (size 3 to 8) (size 9 to 14) (size 15 to 20)
#    0.000    1.846    3.077    1.154    2.154    0.000 
#    0.000    5.000    3.385    0.000    0.000    0.000 
#    0.000    0.000    0.000    0.000    0.000    0.000 
#
# Total GULP energy -289639.440238 kJ/mol
# GULP energy per Si atom -5569.989235 kJ/mol
# Density = 2.088470 g / cm^3
# Si number density = 20.932347 Si / 1000 Ang^3
#
#
#
# Elastic Constant Matrix: (Units=GPa)
#
#
# Indices 1 2 3 4 5 6 
#
# 1 80.9464 0.6965 22.7657 0.0000 0.0000 0.0000
# 2 0.6965 87.7662 9.3211 0.0000 0.0000 0.0000
# 3 22.7657 9.3211 30.2607 0.0000 0.0000 0.0000
# 4 0.0000 0.0000 0.0000 29.2345 0.0000 0.0000
# 5 0.0000 0.0000 0.0000 0.0000 20.1133 0.0000
# 6 0.0000 0.0000 0.0000 0.0000 0.0000 29.2751
#
#
#
# Elastic Compliance Matrix: (Units=1/GPa)
#
#
# Indices 1 2 3 4 5 6 
#
# 1 0.015785 0.001174 -0.012237 0.000000 0.000000 0.000000
# 2 0.001174 0.011867 -0.004539 0.000000 0.000000 0.000000
# 3 -0.012237 -0.004539 0.043651 0.000000 0.000000 0.000000
# 4 0.000000 0.000000 0.000000 0.034206 0.000000 0.000000
# 5 0.000000 0.000000 0.000000 0.000000 0.049718 0.000000
# 6 0.000000 0.000000 0.000000 0.000000 0.000000 0.034159
#
#
# Mechanical properties :
#
#
# Convention : Reuss Voigt Hill
#
# Bulk Modulus (GPa) = 24.93819 29.39332 27.16575
# Shear Modulus (GPa) = 21.37154 26.80390 24.08772
#
# Velocity S-wave (km/s) = 3.19875 3.58229 3.39594
# Velocity P-wave (km/s) = 5.05789 5.58417 5.32753
#
# Compressibility (1/GPa) = 0.04009914
#
# Stress axis : x y z
#
# Youngs Moduli (GPa) = 63.34943 84.26999 22.90917
#
# Poissons Ratio (x) = -0.09897 0.28035
# Poissons Ratio (y) = -0.07440 0.10398
# Poissons Ratio (z) = 0.77523 0.38248
#
# Static dielectric constant tensor:
#      x y z
#    x 1.771090 0.000000 0.000000 
#    y 0.000000 1.829360 0.000000 
#    z 0.000000 0.000000 1.802800 
# 
# From -- ./inp_files/38820.got.cif
#   From: 2010.05.17/outbox.cif.g08.bks.cpg/sg68_20_cif.got.tgz:38820.got - 2010.06.03 18:57:09.
