data_PCOD9506658
_publ_section_title
;
Structure prediction by ZEFSAII (Michael W. Deem and Ramdas Pophale) SiO2 
 PCOD9506658
Probable space group: C C C A
;
_chemical_formula_sum "Si O2"
_cell_formula_units_Z 88
_cell_length_a 10.444226
_cell_length_b 11.946373
_cell_length_c 31.614592
_cell_angle_alpha 90.000000
_cell_angle_beta 90.000000
_cell_angle_gamma 90.000000
_cell_volume 3944.572229
_symmetry_space_group_name_H-M "C C C A"
_symmetry_group_IT_number 68
_space_group.IT_coordinate_system_code '2'
_symmetry_cell_setting 'orthorhombic'
loop_
_space_group_symop_operation_xyz
x,y,z
-x,1/2-y,z
x,1/2-y,1/2-z
-x,y,1/2-z
-x,-y,-z
x,1/2+y,-z
-x,1/2+y,1/2+z
x,-y,1/2+z
1/2+x,1/2+y,z
1/2-x,-y,z
1/2+x,-y,1/2-z
1/2-x,1/2+y,1/2-z
1/2-x,1/2-y,-z
1/2+x,y,-z
1/2-x,y,1/2+z
1/2+x,1/2-y,1/2+z
loop_
_atom_site_type_symbol
_atom_site_label
_atom_site_fract_x
_atom_site_fract_y
_atom_site_fract_z
Si Si1 0.250000 0.500000 0.139202
Si Si2 0.966811 0.012395 0.341278
Si Si3 0.250000 0.000000 0.227822
Si Si4 0.200799 0.833681 0.433856
Si Si5 0.500000 0.250000 0.825748
Si Si6 0.799840 0.250000 0.250000
Si Si7 0.095102 0.403586 0.927199
Si Si8 0.750000 0.500000 0.505648
O O1 0.117201 0.517315 0.164013
O O2 0.260273 0.606554 0.107450
O O3 0.879564 0.004959 0.300157
O O4 0.903155 0.944188 0.379016
O O5 0.971375 0.142413 0.353123
O O6 0.238365 0.874815 0.247854
O O7 0.192184 0.700431 0.432386
O O8 0.051291 0.869092 0.434255
O O9 0.259206 0.892972 0.474924
O O10 0.616841 0.262854 0.792802
O O11 0.131862 0.495167 0.961948
#
# Coordination Sequence:
#
# PCOD9506658 Si02
#       8
#     8  16   8  16   8   8  16   8
#     4   9  20  37  57  82 117 162 202 242 309 364
#     4  10  21  38  63  90 119 156 200 254 303 361
#     4  10  21  41  69 101 130 160 204 248 302 359
#     4   9  20  36  51  75 117 157 195 250 309 358
#     4   9  20  40  64  88 120 160 198 238 306 364
#     4   9  20  40  66  93 130 165 194 243 296 373
#     4  10  20  35  54  82 114 147 202 257 300 355
#     4  11  19  32  54  77 107 158 204 246 301 363
#
# _framework density 22.309137
#
# number of rings (size 3 to 8) (size 9 to 14) (size 15 to 20)
#    0.000    2.364    0.000    1.636    0.000    5.091 
#    0.000    9.091    0.000   21.818    0.000    0.000 
#    0.000    0.000    0.000    0.000    0.000    0.000 
#
# Total GULP energy -245370.280740 kJ/mol
# GULP energy per Si atom -5576.597290 kJ/mol
# Density = 2.225836 g / cm^3
# Si number density = 22.309137 Si / 1000 Ang^3
#
#
#
# Elastic Constant Matrix: (Units=GPa)
#
#
# Indices 1 2 3 4 5 6 
#
# 1 85.7040 28.9866 30.7868 0.0000 0.0000 0.0000
# 2 28.9866 137.2623 37.4445 0.0000 0.0000 0.0000
# 3 30.7868 37.4445 42.3811 0.0000 0.0000 0.0000
# 4 0.0000 0.0000 0.0000 -6.6947 0.0000 0.0000
# 5 0.0000 0.0000 0.0000 0.0000 -31.1929 0.0000
# 6 0.0000 0.0000 0.0000 0.0000 0.0000 32.9275
#
#
#
# Elastic Compliance Matrix: (Units=1/GPa)
#
#
# Indices 1 2 3 4 5 6 
#
# 1 0.015796 -0.000271 -0.011235 0.000000 0.000000 0.000000
# 2 -0.000271 0.009603 -0.008288 0.000000 0.000000 0.000000
# 3 -0.011235 -0.008288 0.039080 0.000000 0.000000 0.000000
# 4 0.000000 0.000000 0.000000 -0.149371 0.000000 0.000000
# 5 0.000000 0.000000 0.000000 0.000000 -0.032059 0.000000
# 6 0.000000 0.000000 0.000000 0.000000 0.000000 0.030370
#
#
# Mechanical properties :
#
#
# Convention : Reuss Voigt Hill
#
# Bulk Modulus (GPa) = 40.17575 51.08701 45.63138
# Shear Modulus (GPa) = -129.20962 10.21660 -59.49651
#
# Velocity S-wave (km/s) = -7.61863 2.14231 -5.16982
# Velocity P-wave (km/s) = 7.70348 5.39153 3.89069
#
# Compressibility (1/GPa) = 0.02489064
#
# Stress axis : x y z
#
# Youngs Moduli (GPa) = 63.30910 104.12903 25.58883
#
# Poissons Ratio (x) = 0.02820 0.28749
# Poissons Ratio (y) = 0.01714 0.21208
# Poissons Ratio (z) = 0.71128 0.86303
#
# Static dielectric constant tensor:
#      x y z
#    x 1.882890 0.000000 0.000000 
#    y 0.000000 1.869700 0.000000 
#    z 0.000000 0.000000 1.803450 
# 
# From -- ./inp_files/54705.got.cif
#   From: 2010.05.17/outbox.cif.g08.bks.cpg/sg68_28_cif.got.tgz:54705.got - 2010.06.03 18:57:09.
