data_PCOD9506669
_publ_section_title
;
Structure prediction by ZEFSAII (Michael W. Deem and Ramdas Pophale) SiO2 
 PCOD9506669
Probable space group: C C C A
;
_chemical_formula_sum "Si O2"
_cell_formula_units_Z 64
_cell_length_a 16.977243
_cell_length_b 20.664359
_cell_length_c 8.312306
_cell_angle_alpha 90.000000
_cell_angle_beta 90.000000
_cell_angle_gamma 90.000000
_cell_volume 2916.155145
_symmetry_space_group_name_H-M "C C C A"
_symmetry_group_IT_number 68
_space_group.IT_coordinate_system_code '2'
_symmetry_cell_setting 'orthorhombic'
loop_
_space_group_symop_operation_xyz
x,y,z
-x,1/2-y,z
x,1/2-y,1/2-z
-x,y,1/2-z
-x,-y,-z
x,1/2+y,-z
-x,1/2+y,1/2+z
x,-y,1/2+z
1/2+x,1/2+y,z
1/2-x,-y,z
1/2+x,-y,1/2-z
1/2-x,1/2+y,1/2-z
1/2-x,1/2-y,-z
1/2+x,y,-z
1/2-x,y,1/2+z
1/2+x,1/2-y,1/2+z
loop_
_atom_site_type_symbol
_atom_site_label
_atom_site_fract_x
_atom_site_fract_y
_atom_site_fract_z
Si Si1 0.585134 0.548890 0.276350
Si Si2 0.717314 0.642293 0.888747
Si Si3 0.831837 0.438591 0.602062
Si Si4 0.133649 0.814095 0.684520
O O1 0.500000 0.517787 0.250000
O O2 0.602602 0.559388 0.463772
O O3 0.654249 0.505224 0.199142
O O4 0.586323 0.619079 0.193691
O O5 0.665310 0.613673 0.744846
O O6 0.792098 0.675453 0.805058
O O7 0.754950 0.584066 0.998220
O O8 0.669225 0.688636 0.005961
O O9 0.093002 0.750000 0.750000
#
# Coordination Sequence:
#
# PCOD9506669 Si02
#       4
#    16  16  16  16
#     4  11  23  37  54  79 112 153 192 228 276 344
#     4   9  20  36  57  86 113 137 180 240 301 348
#     4  10  21  36  57  84 114 144 182 240 298 344
#     4  10  20  35  56  81 110 147 185 231 285 344
#
# _framework density 21.946705000000001
#
# number of rings (size 3 to 8) (size 9 to 14) (size 15 to 20)
#    0.000    2.000    0.000    3.000    0.000   17.500 
#    0.000    0.000    0.000    0.000    0.000   17.500 
#    0.000    0.000    0.000    0.000    0.000    0.000 
#
# Total GULP energy -178517.091420 kJ/mol
# GULP energy per Si atom -5578.659107 kJ/mol
# Density = 2.189675 g / cm^3
# Si number density = 21.946705 Si / 1000 Ang^3
#
#
#
# Elastic Constant Matrix: (Units=GPa)
#
#
# Indices 1 2 3 4 5 6 
#
# 1 47.9704 -0.6934 28.9024 0.0000 0.0000 0.0000
# 2 -0.6934 56.8140 5.3020 0.0000 0.0000 0.0000
# 3 28.9024 5.3020 139.9997 0.0000 0.0000 0.0000
# 4 0.0000 0.0000 0.0000 24.8428 0.0000 0.0000
# 5 0.0000 0.0000 0.0000 0.0000 17.4108 0.0000
# 6 0.0000 0.0000 0.0000 0.0000 0.0000 4.3918
#
#
#
# Elastic Compliance Matrix: (Units=1/GPa)
#
#
# Indices 1 2 3 4 5 6 
#
# 1 0.023840 0.000753 -0.004950 0.000000 0.000000 0.000000
# 2 0.000753 0.017687 -0.000825 0.000000 0.000000 0.000000
# 3 -0.004950 -0.000825 0.008196 0.000000 0.000000 0.000000
# 4 0.000000 0.000000 0.000000 0.040253 0.000000 0.000000
# 5 0.000000 0.000000 0.000000 0.000000 0.057436 0.000000
# 6 0.000000 0.000000 0.000000 0.000000 0.000000 0.227695
#
#
# Mechanical properties :
#
#
# Convention : Reuss Voigt Hill
#
# Bulk Modulus (GPa) = 25.20278 34.64511 29.92395
# Shear Modulus (GPa) = 12.55092 23.41397 17.98244
#
# Velocity S-wave (km/s) = 2.39400 3.26982 2.86557
# Velocity P-wave (km/s) = 4.37609 5.48415 4.96115
#
# Compressibility (1/GPa) = 0.03967815
#
# Stress axis : x y z
#
# Youngs Moduli (GPa) = 41.94711 56.53714 122.00988
#
# Poissons Ratio (x) = -0.04257 0.60396
# Poissons Ratio (y) = -0.03158 0.10069
# Poissons Ratio (z) = 0.20764 0.04666
#
# Static dielectric constant tensor:
#      x y z
#    x 1.849330 0.000000 0.000000 
#    y 0.000000 1.876310 0.000000 
#    z 0.000000 0.000000 1.790760 
# 
# From -- ./inp_files/5782.got.cif
#   From: 2010.05.17/outbox.cif.g08.bks.cpg/sg68_3_cif.got.tgz:5782.got - 2010.06.03 18:57:09.
