data_PCOD9506820
_publ_section_title
;
Structure prediction by ZEFSAII (Michael W. Deem and Ramdas Pophale) SiO2 
 PCOD9506820
Probable space group: C C C A
;
_chemical_formula_sum "Si O2"
_cell_formula_units_Z 72
_cell_length_a 21.646051
_cell_length_b 5.049750
_cell_length_c 32.431696
_cell_angle_alpha 90.000000
_cell_angle_beta 90.000000
_cell_angle_gamma 90.000000
_cell_volume 3545.016131
_symmetry_space_group_name_H-M "C C C A"
_symmetry_group_IT_number 68
_space_group.IT_coordinate_system_code '2'
_symmetry_cell_setting 'orthorhombic'
loop_
_space_group_symop_operation_xyz
x,y,z
-x,1/2-y,z
x,1/2-y,1/2-z
-x,y,1/2-z
-x,-y,-z
x,1/2+y,-z
-x,1/2+y,1/2+z
x,-y,1/2+z
1/2+x,1/2+y,z
1/2-x,-y,z
1/2+x,-y,1/2-z
1/2-x,1/2+y,1/2-z
1/2-x,1/2-y,-z
1/2+x,y,-z
1/2-x,y,1/2+z
1/2+x,1/2-y,1/2+z
loop_
_atom_site_type_symbol
_atom_site_label
_atom_site_fract_x
_atom_site_fract_y
_atom_site_fract_z
Si Si1 0.000000 0.750000 0.154671
Si Si2 0.320453 0.909768 0.348253
Si Si3 0.878506 0.594558 0.111147
Si Si4 0.585441 0.995166 0.220981
Si Si5 0.679715 0.544736 0.027838
O O1 0.948620 0.599485 0.127595
O O2 0.035849 0.551341 0.185202
O O3 0.337333 0.614007 0.362741
O O4 0.351093 0.950520 0.303613
O O5 0.250000 0.000000 0.347998
O O6 0.353785 0.111270 0.379810
O O7 0.867914 0.518660 0.063907
O O8 0.571305 0.750000 0.250000
O O9 0.588345 0.250000 0.250000
O O10 0.750000 0.500000 0.044161
O O11 0.673634 0.337887 0.990269
#
# Coordination Sequence:
#
# PCOD9506820 Si02
#       5
#     8  16  16  16  16
#     4  10  25  42  62  88 120 164 212 250 300 364
#     4  11  23  39  61  89 120 158 200 249 312 365
#     4  11  23  40  62  89 122 160 202 248 295 363
#     4  11  24  40  61  86 116 155 202 254 300 354
#     4  10  20  36  60  89 119 152 193 243 300 360
#
# _framework density 20.310203999999999
#
# number of rings (size 3 to 8) (size 9 to 14) (size 15 to 20)
#    0.000    1.333    0.000    6.333    0.000   13.333 
#    0.000    1.111    0.000    0.000    0.000    0.000 
#    0.000    0.000    0.000    0.000    0.000    0.000 
#
# Total GULP energy -201366.335633 kJ/mol
# GULP energy per Si atom -5593.509323 kJ/mol
# Density = 2.026398 g / cm^3
# Si number density = 20.310204 Si / 1000 Ang^3
#
#
#
# Elastic Constant Matrix: (Units=GPa)
#
#
# Indices 1 2 3 4 5 6 
#
# 1 91.1799 -10.7854 37.9891 0.0000 0.0000 0.0000
# 2 -10.7854 70.6675 3.2241 0.0000 0.0000 0.0000
# 3 37.9891 3.2241 83.8642 0.0000 0.0000 0.0000
# 4 0.0000 0.0000 0.0000 6.4432 0.0000 0.0000
# 5 0.0000 0.0000 0.0000 0.0000 25.6955 0.0000
# 6 0.0000 0.0000 0.0000 0.0000 0.0000 23.1800
#
#
#
# Elastic Compliance Matrix: (Units=1/GPa)
#
#
# Indices 1 2 3 4 5 6 
#
# 1 0.013919 0.002416 -0.006398 0.000000 0.000000 0.000000
# 2 0.002416 0.014595 -0.001656 0.000000 0.000000 0.000000
# 3 -0.006398 -0.001656 0.014886 0.000000 0.000000 0.000000
# 4 0.000000 0.000000 0.000000 0.155201 0.000000 0.000000
# 5 0.000000 0.000000 0.000000 0.000000 0.038917 0.000000
# 6 0.000000 0.000000 0.000000 0.000000 0.000000 0.043141
#
#
# Mechanical properties :
#
#
# Convention : Reuss Voigt Hill
#
# Bulk Modulus (GPa) = 31.12828 34.06301 32.59565
# Shear Modulus (GPa) = 16.52118 25.41601 20.96860
#
# Velocity S-wave (km/s) = 2.85519 3.54134 3.21661
# Velocity P-wave (km/s) = 5.12144 5.79044 5.46619
#
# Compressibility (1/GPa) = 0.03212512
#
# Stress axis : x y z
#
# Youngs Moduli (GPa) = 71.84573 68.51630 67.17813
#
# Poissons Ratio (x) = -0.16555 0.42979
# Poissons Ratio (y) = -0.17359 0.11122
# Poissons Ratio (z) = 0.45966 0.11343
#
# Static dielectric constant tensor:
#      x y z
#    x 1.753450 0.000000 0.000000 
#    y 0.000000 1.700550 0.000000 
#    z 0.000000 0.000000 1.699010 
# 
# From -- ./inp_files/55728.got.cif
#   From: 2010.05.17/outbox.cif.g08.bks.cpg/sg68_28_cif.got.tgz:55728.got - 2010.06.03 18:57:09.
