data_PCOD9506279
_publ_section_title
;
Structure prediction by ZEFSAII (Michael W. Deem and Ramdas Pophale) SiO2 
 PCOD9506279
Probable space group: C C C A
;
_chemical_formula_sum "Si O2"
_cell_formula_units_Z 120
_cell_length_a 30.390999
_cell_length_b 13.690447
_cell_length_c 14.849727
_cell_angle_alpha 90.000000
_cell_angle_beta 90.000000
_cell_angle_gamma 90.000000
_cell_volume 6178.471876
_symmetry_space_group_name_H-M "C C C A"
_symmetry_group_IT_number 68
_space_group.IT_coordinate_system_code '2'
_symmetry_cell_setting 'orthorhombic'
loop_
_space_group_symop_operation_xyz
x,y,z
-x,1/2-y,z
x,1/2-y,1/2-z
-x,y,1/2-z
-x,-y,-z
x,1/2+y,-z
-x,1/2+y,1/2+z
x,-y,1/2+z
1/2+x,1/2+y,z
1/2-x,-y,z
1/2+x,-y,1/2-z
1/2-x,1/2+y,1/2-z
1/2-x,1/2-y,-z
1/2+x,y,-z
1/2-x,y,1/2+z
1/2+x,1/2-y,1/2+z
loop_
_atom_site_type_symbol
_atom_site_label
_atom_site_fract_x
_atom_site_fract_y
_atom_site_fract_z
Si Si1 0.936217 0.976105 0.674896
Si Si2 0.500000 0.250000 0.970281
Si Si3 0.846070 0.947286 0.209544
Si Si4 0.966833 0.944862 0.871971
Si Si5 0.924973 0.115223 0.987228
Si Si6 0.331728 0.106105 0.087754
Si Si7 0.224478 0.283648 0.651123
Si Si8 0.709135 0.929633 0.091634
O O1 0.942596 0.934717 0.775942
O O2 0.921749 0.903746 0.594501
O O3 0.986328 0.000084 0.645261
O O4 0.897630 0.056347 0.683888
O O5 0.478772 0.338442 0.911693
O O6 0.538002 0.303196 0.026381
O O7 0.839297 0.945354 0.316712
O O8 0.815622 0.861118 0.168452
O O9 0.826619 0.046468 0.167306
O O10 0.939839 0.013405 0.940224
O O11 0.878655 0.144581 0.945943
O O12 0.297512 0.192363 0.103610
O O13 0.312061 0.045910 0.004530
O O14 0.239170 0.250000 0.750000
O O15 0.266806 0.326208 0.600429
O O16 0.750000 0.000000 0.109436
#
# Coordination Sequence:
#
# PCOD9506279 Si02
#       8
#    16   8  16  16  16  16  16  16
#     4  10  19  36  62  83 117 156 199 244 295 351
#     4  10  22  39  58  85 124 162 202 249 300 351
#     4  10  20  38  61  84 117 154 199 244 297 365
#     4  10  22  38  61  86 120 161 199 249 296 357
#     4  11  22  38  60  90 121 158 205 244 301 354
#     4  11  21  37  61  88 120 152 199 249 297 363
#     4   9  21  37  58  85 118 157 190 248 303 355
#     4  10  21  39  61  86 113 153 196 241 306 364
#
# _framework density 19.422277000000001
#
# number of rings (size 3 to 8) (size 9 to 14) (size 15 to 20)
#    0.000    1.867    2.667    2.000    0.000    9.067 
#    0.000    1.333    0.000    0.800    0.000    0.000 
#    0.000    0.000    0.000    0.000    0.000    0.000 
#
# Total GULP energy -334186.869930 kJ/mol
# GULP energy per Si atom -5569.781166 kJ/mol
# Density = 1.937807 g / cm^3
# Si number density = 19.422277 Si / 1000 Ang^3
#
#
#
# Elastic Constant Matrix: (Units=GPa)
#
#
# Indices 1 2 3 4 5 6 
#
# 1 48.7807 5.2584 34.7195 0.0000 0.0000 0.0000
# 2 5.2584 34.2092 15.1101 0.0000 0.0000 0.0000
# 3 34.7195 15.1101 94.3568 0.0000 0.0000 0.0000
# 4 0.0000 0.0000 0.0000 15.8769 0.0000 0.0000
# 5 0.0000 0.0000 0.0000 0.0000 16.1919 0.0000
# 6 0.0000 0.0000 0.0000 0.0000 0.0000 17.7556
#
#
#
# Elastic Compliance Matrix: (Units=1/GPa)
#
#
# Indices 1 2 3 4 5 6 
#
# 1 0.027776 0.000263 -0.010263 0.000000 0.000000 0.000000
# 2 0.000263 0.031459 -0.005135 0.000000 0.000000 0.000000
# 3 -0.010263 -0.005135 0.015197 0.000000 0.000000 0.000000
# 4 0.000000 0.000000 0.000000 0.062984 0.000000 0.000000
# 5 0.000000 0.000000 0.000000 0.000000 0.061759 0.000000
# 6 0.000000 0.000000 0.000000 0.000000 0.000000 0.056320
#
#
# Mechanical properties :
#
#
# Convention : Reuss Voigt Hill
#
# Bulk Modulus (GPa) = 22.64290 31.94697 27.29494
# Shear Modulus (GPa) = 16.63977 18.11547 17.37762
#
# Velocity S-wave (km/s) = 2.93018 3.05735 2.99444
# Velocity P-wave (km/s) = 4.80952 5.38029 5.10289
#
# Compressibility (1/GPa) = 0.04416395
#
# Stress axis : x y z
#
# Youngs Moduli (GPa) = 36.00248 31.78701 65.80440
#
# Poissons Ratio (x) = -0.00837 0.67532
# Poissons Ratio (y) = -0.00948 0.33789
# Poissons Ratio (z) = 0.36948 0.16322
#
# Static dielectric constant tensor:
#      x y z
#    x 1.697720 0.000000 0.000000 
#    y 0.000000 1.699690 0.000000 
#    z 0.000000 0.000000 1.680650 
# 
# From -- ./inp_files/26520.got.cif
#   From: 2010.05.17/outbox.cif.g08.bks.cpg/sg68_14_cif.got.tgz:26520.got - 2010.06.03 18:57:09.
