data_PCOD9506037
_publ_section_title
;
Structure prediction by ZEFSAII (Michael W. Deem and Ramdas Pophale) SiO2 
 PCOD9506037
Probable space group: C C C A
;
_chemical_formula_sum "Si O2"
_cell_formula_units_Z 120
_cell_length_a 16.210784
_cell_length_b 22.075052
_cell_length_c 18.913883
_cell_angle_alpha 90.000000
_cell_angle_beta 90.000000
_cell_angle_gamma 90.000000
_cell_volume 6768.406791
_symmetry_space_group_name_H-M "C C C A"
_symmetry_group_IT_number 68
_space_group.IT_coordinate_system_code '2'
_symmetry_cell_setting 'orthorhombic'
loop_
_space_group_symop_operation_xyz
x,y,z
-x,1/2-y,z
x,1/2-y,1/2-z
-x,y,1/2-z
-x,-y,-z
x,1/2+y,-z
-x,1/2+y,1/2+z
x,-y,1/2+z
1/2+x,1/2+y,z
1/2-x,-y,z
1/2+x,-y,1/2-z
1/2-x,1/2+y,1/2-z
1/2-x,1/2-y,-z
1/2+x,y,-z
1/2-x,y,1/2+z
1/2+x,1/2-y,1/2+z
loop_
_atom_site_type_symbol
_atom_site_label
_atom_site_fract_x
_atom_site_fract_y
_atom_site_fract_z
Si Si1 0.355518 0.137842 0.628067
Si Si2 0.596307 0.262270 0.834210
Si Si3 0.672720 0.458900 0.748677
Si Si4 0.048815 0.559111 0.405352
Si Si5 0.837172 0.892202 0.612130
Si Si6 0.990659 0.575467 0.553686
Si Si7 0.500000 0.533593 0.750000
Si Si8 0.226867 0.571323 0.469009
O O1 0.345985 0.209029 0.635577
O O2 0.345370 0.098731 0.699084
O O3 0.446104 0.127156 0.596830
O O4 0.296062 0.105425 0.573993
O O5 0.500000 0.250000 0.853644
O O6 0.599200 0.250000 0.750000
O O7 0.630841 0.327224 0.859439
O O8 0.750000 0.500000 0.722198
O O9 0.697917 0.431228 0.823797
O O10 0.585311 0.494641 0.756031
O O11 0.049891 0.487270 0.422274
O O12 0.141993 0.578729 0.423776
O O13 0.991752 0.584055 0.469273
O O14 0.015961 0.567670 0.325405
O O15 0.779102 0.894984 0.544302
O O16 0.916444 0.927306 0.580861
O O17 0.250000 0.500000 0.477428
#
# Coordination Sequence:
#
# PCOD9506037 Si02
#       8
#    16  16  16  16  16  16   8  16
#     4  12  21  37  57  80 119 149 195 237 298 352
#     4  11  23  37  61  87 113 151 197 244 296 352
#     4  12  23  34  56  90 120 153 196 246 291 361
#     4  10  20  32  53  79 117 152 192 230 297 356
#     4  11  22  38  55  85 115 152 197 242 292 350
#     4  10  19  33  53  81 112 151 190 237 286 354
#     4  12  20  34  54  81 120 161 192 230 296 362
#     4  11  22  37  56  82 119 156 188 242 302 356
#
# _framework density 17.729430000000001
#
# number of rings (size 3 to 8) (size 9 to 14) (size 15 to 20)
#    0.000    0.933    6.667    1.600    0.000    1.600 
#    0.000    0.000    0.000    0.000    0.000    0.000 
#    0.000    1.333    0.000    0.000    0.000    0.000 
#
# Total GULP energy -334291.294575 kJ/mol
# GULP energy per Si atom -5571.521576 kJ/mol
# Density = 1.768908 g / cm^3
# Si number density = 17.729430 Si / 1000 Ang^3
#
#
#
# Elastic Constant Matrix: (Units=GPa)
#
#
# Indices 1 2 3 4 5 6 
#
# 1 36.0456 8.6147 9.0554 0.0000 0.0000 0.0000
# 2 8.6147 71.9895 13.3455 0.0000 0.0000 0.0000
# 3 9.0554 13.3455 118.2593 0.0000 0.0000 0.0000
# 4 0.0000 0.0000 0.0000 9.5755 0.0000 0.0000
# 5 0.0000 0.0000 0.0000 0.0000 18.8211 0.0000
# 6 0.0000 0.0000 0.0000 0.0000 0.0000 14.6260
#
#
#
# Elastic Compliance Matrix: (Units=1/GPa)
#
#
# Indices 1 2 3 4 5 6 
#
# 1 0.028957 -0.003119 -0.001865 0.000000 0.000000 0.000000
# 2 -0.003119 0.014524 -0.001400 0.000000 0.000000 0.000000
# 3 -0.001865 -0.001400 0.008757 0.000000 0.000000 0.000000
# 4 0.000000 0.000000 0.000000 0.104434 0.000000 0.000000
# 5 0.000000 0.000000 0.000000 0.000000 0.053132 0.000000
# 6 0.000000 0.000000 0.000000 0.000000 0.000000 0.068371
#
#
# Mechanical properties :
#
#
# Convention : Reuss Voigt Hill
#
# Bulk Modulus (GPa) = 25.33712 32.03617 28.68665
# Shear Modulus (GPa) = 16.44197 21.62309 19.03253
#
# Velocity S-wave (km/s) = 3.04860 3.49609 3.27998
# Velocity P-wave (km/s) = 5.16856 5.86563 5.52809
#
# Compressibility (1/GPa) = 0.03946778
#
# Stress axis : x y z
#
# Youngs Moduli (GPa) = 34.53429 68.85268 114.19657
#
# Poissons Ratio (x) = 0.21478 0.21301
# Poissons Ratio (y) = 0.10772 0.15989
# Poissons Ratio (z) = 0.06442 0.09640
#
# Static dielectric constant tensor:
#      x y z
#    x 1.631710 0.000000 0.000000 
#    y 0.000000 1.584450 0.000000 
#    z 0.000000 0.000000 1.664710 
# 
# From -- ./inp_files/32293.got.cif
#   From: 2010.05.17/outbox.cif.g08.bks.cpg/sg68_17_cif.got.tgz:32293.got - 2010.06.03 18:57:09.
