data_PCOD9506738
_publ_section_title
;
Structure prediction by ZEFSAII (Michael W. Deem and Ramdas Pophale) SiO2 
 PCOD9506738
Probable space group: C C C A
;
_chemical_formula_sum "Si O2"
_cell_formula_units_Z 72
_cell_length_a 13.165274
_cell_length_b 13.338265
_cell_length_c 16.490319
_cell_angle_alpha 90.000000
_cell_angle_beta 90.000000
_cell_angle_gamma 90.000000
_cell_volume 2895.731569
_symmetry_space_group_name_H-M "C C C A"
_symmetry_group_IT_number 68
_space_group.IT_coordinate_system_code '2'
_symmetry_cell_setting 'orthorhombic'
loop_
_space_group_symop_operation_xyz
x,y,z
-x,1/2-y,z
x,1/2-y,1/2-z
-x,y,1/2-z
-x,-y,-z
x,1/2+y,-z
-x,1/2+y,1/2+z
x,-y,1/2+z
1/2+x,1/2+y,z
1/2-x,-y,z
1/2+x,-y,1/2-z
1/2-x,1/2+y,1/2-z
1/2-x,1/2-y,-z
1/2+x,y,-z
1/2-x,y,1/2+z
1/2+x,1/2-y,1/2+z
loop_
_atom_site_type_symbol
_atom_site_label
_atom_site_fract_x
_atom_site_fract_y
_atom_site_fract_z
Si Si1 0.500000 0.928600 0.750000
Si Si2 0.635019 0.110545 0.711516
Si Si3 0.580963 0.891664 0.913553
Si Si4 0.960834 0.622397 0.579210
Si Si5 0.281759 0.274269 0.872765
O O1 0.515670 0.869941 0.832794
O O2 0.601307 0.998004 0.734035
O O3 0.532698 0.138963 0.659011
O O4 0.672454 0.165184 0.793748
O O5 0.719645 0.156472 0.649990
O O6 0.681581 0.827712 0.901830
O O7 0.591037 0.013105 0.911531
O O8 0.526526 0.876919 0.998451
O O9 0.872139 0.701724 0.566307
#
# Coordination Sequence:
#
# PCOD9506738 Si02
#       5
#     8  16  16  16  16
#     4  10  20  41  66  91 136 176 220 274 339 396
#     4  10  20  35  67  94 122 168 225 274 326 391
#     4  10  22  38  60  94 134 172 216 272 335 396
#     4  10  20  37  61  92 132 169 217 271 335 389
#     4  11  20  36  66  96 128 168 222 279 328 400
#
# _framework density 24.864182
#
# number of rings (size 3 to 8) (size 9 to 14) (size 15 to 20)
#    0.000    1.778    4.444    1.333    3.111    0.889 
#    4.000    0.000    4.889    0.000    0.000    0.000 
#    0.000    0.000    0.000    0.000    0.000    0.000 
#
# Total GULP energy -200636.258795 kJ/mol
# GULP energy per Si atom -5573.229411 kJ/mol
# Density = 2.480759 g / cm^3
# Si number density = 24.864182 Si / 1000 Ang^3
#
#
#
# Elastic Constant Matrix: (Units=GPa)
#
#
# Indices 1 2 3 4 5 6 
#
# 1 92.6524 42.9591 58.7801 0.0000 0.0000 0.0000
# 2 42.9591 102.3444 29.5666 0.0000 0.0000 0.0000
# 3 58.7801 29.5666 142.5387 0.0000 0.0000 0.0000
# 4 0.0000 0.0000 0.0000 22.5263 0.0000 0.0000
# 5 0.0000 0.0000 0.0000 0.0000 23.5687 0.0000
# 6 0.0000 0.0000 0.0000 0.0000 0.0000 11.3523
#
#
#
# Elastic Compliance Matrix: (Units=1/GPa)
#
#
# Indices 1 2 3 4 5 6 
#
# 1 0.017072 -0.005459 -0.005908 0.000000 0.000000 0.000000
# 2 -0.005459 0.012140 -0.000267 0.000000 0.000000 0.000000
# 3 -0.005908 -0.000267 0.009507 0.000000 0.000000 0.000000
# 4 0.000000 0.000000 0.000000 0.044393 0.000000 0.000000
# 5 0.000000 0.000000 0.000000 0.000000 0.042429 0.000000
# 6 0.000000 0.000000 0.000000 0.000000 0.000000 0.088088
#
#
# Mechanical properties :
#
#
# Convention : Reuss Voigt Hill
#
# Bulk Modulus (GPa) = 64.71997 66.68300 65.70149
# Shear Modulus (GPa) = 20.65714 25.23810 22.94762
#
# Velocity S-wave (km/s) = 2.88549 3.18942 3.04125
# Velocity P-wave (km/s) = 6.09814 6.35927 6.23007
#
# Compressibility (1/GPa) = 0.01545118
#
# Stress axis : x y z
#
# Youngs Moduli (GPa) = 58.57419 82.37525 105.18284
#
# Poissons Ratio (x) = 0.44972 0.62141
# Poissons Ratio (y) = 0.31978 0.02806
# Poissons Ratio (z) = 0.34605 0.02197
#
# Static dielectric constant tensor:
#      x y z
#    x 1.982560 0.000000 0.000000 
#    y 0.000000 2.119240 0.000000 
#    z 0.000000 0.000000 2.064190 
# 
# From -- ./inp_files/30650.got.cif
#   From: 2010.05.17/outbox.cif.g08.bks.cpg/sg68_16_cif.got.tgz:30650.got - 2010.06.03 18:57:09.
