data_PCOD9506736
_publ_section_title
;
Structure prediction by ZEFSAII (Michael W. Deem and Ramdas Pophale) SiO2 
 PCOD9506736
Probable space group: C C C A
;
_chemical_formula_sum "Si O2"
_cell_formula_units_Z 92
_cell_length_a 23.150142
_cell_length_b 20.159410
_cell_length_c 8.697486
_cell_angle_alpha 90.000000
_cell_angle_beta 90.000000
_cell_angle_gamma 90.000000
_cell_volume 4059.057609
_symmetry_space_group_name_H-M "C C C A"
_symmetry_group_IT_number 68
_space_group.IT_coordinate_system_code '2'
_symmetry_cell_setting 'orthorhombic'
loop_
_space_group_symop_operation_xyz
x,y,z
-x,1/2-y,z
x,1/2-y,1/2-z
-x,y,1/2-z
-x,-y,-z
x,1/2+y,-z
-x,1/2+y,1/2+z
x,-y,1/2+z
1/2+x,1/2+y,z
1/2-x,-y,z
1/2+x,-y,1/2-z
1/2-x,1/2+y,1/2-z
1/2-x,1/2-y,-z
1/2+x,y,-z
1/2-x,y,1/2+z
1/2+x,1/2-y,1/2+z
loop_
_atom_site_type_symbol
_atom_site_label
_atom_site_fract_x
_atom_site_fract_y
_atom_site_fract_z
Si Si1 0.904312 0.656123 0.339447
Si Si2 0.000000 0.571352 0.750000
Si Si3 0.215467 0.816409 0.465462
Si Si4 0.110476 0.966255 0.577838
Si Si5 0.089803 0.888400 0.988985
Si Si6 0.500000 0.750000 0.750000
Si Si7 0.811945 0.118495 0.217814
O O1 0.842672 0.690798 0.366813
O O2 0.900358 0.592448 0.453361
O O3 0.912863 0.635072 0.162570
O O4 0.957941 0.705947 0.358026
O O5 0.948721 0.529572 0.675119
O O6 0.031346 0.609945 0.610752
O O7 0.250000 0.750000 0.500000
O O8 0.198455 0.837367 0.635117
O O9 0.254646 0.874127 0.385403
O O10 0.162183 0.946851 0.694867
O O11 0.116382 0.037132 0.500766
O O12 0.136963 0.851650 0.886195
#
# Coordination Sequence:
#
# PCOD9506736 Si02
#       7
#    16   8  16  16  16   4  16
#     4  11  25  44  69 104 146 191 239 301 376 428
#     4  10  20  35  66  97 134 190 236 282 346 436
#     4  11  24  45  72  98 133 191 249 294 356 447
#     4  10  22  43  66 103 141 186 241 296 364 436
#     4  11  22  41  70 101 145 185 240 304 366 443
#     4  12  28  42  64 106 148 182 232 310 352 424
#     4  10  23  40  66 100 130 173 239 297 348 420
#
# _framework density 22.665361000000001
#
# number of rings (size 3 to 8) (size 9 to 14) (size 15 to 20)
#    0.000    1.391    0.000    5.217    4.870    1.391 
#    0.000   14.783    0.000    3.130    0.000    0.000 
#    0.000    0.000    0.000    0.000    0.000    0.000 
#
# Total GULP energy -256734.461847 kJ/mol
# GULP energy per Si atom -5581.183953 kJ/mol
# Density = 2.261377 g / cm^3
# Si number density = 22.665361 Si / 1000 Ang^3
#
#
#
# Elastic Constant Matrix: (Units=GPa)
#
#
# Indices 1 2 3 4 5 6 
#
# 1 133.3129 42.2641 41.0638 0.0000 0.0000 0.0000
# 2 42.2641 74.0751 43.2121 0.0000 0.0000 0.0000
# 3 41.0638 43.2121 153.2880 0.0000 0.0000 0.0000
# 4 0.0000 0.0000 0.0000 31.8476 0.0000 0.0000
# 5 0.0000 0.0000 0.0000 0.0000 43.9204 0.0000
# 6 0.0000 0.0000 0.0000 0.0000 0.0000 3.5402
#
#
#
# Elastic Compliance Matrix: (Units=1/GPa)
#
#
# Indices 1 2 3 4 5 6 
#
# 1 0.009337 -0.004630 -0.001196 0.000000 0.000000 0.000000
# 2 -0.004630 0.018452 -0.003961 0.000000 0.000000 0.000000
# 3 -0.001196 -0.003961 0.007961 0.000000 0.000000 0.000000
# 4 0.000000 0.000000 0.000000 0.031400 0.000000 0.000000
# 5 0.000000 0.000000 0.000000 0.000000 0.022768 0.000000
# 6 0.000000 0.000000 0.000000 0.000000 0.000000 0.282467
#
#
# Mechanical properties :
#
#
# Convention : Reuss Voigt Hill
#
# Bulk Modulus (GPa) = 61.82114 68.19510 65.00812
# Shear Modulus (GPa) = 12.58329 31.47072 22.02700
#
# Velocity S-wave (km/s) = 2.35878 3.73029 3.12081
# Velocity P-wave (km/s) = 5.89519 6.97901 6.45987
#
# Compressibility (1/GPa) = 0.01617570
#
# Stress axis : x y z
#
# Youngs Moduli (GPa) = 107.09660 54.19388 125.61425
#
# Poissons Ratio (x) = 0.25090 0.15027
# Poissons Ratio (y) = 0.49582 0.49762
# Poissons Ratio (z) = 0.12811 0.21469
#
# Static dielectric constant tensor:
#      x y z
#    x 1.837720 0.000000 0.000000 
#    y 0.000000 1.894200 0.000000 
#    z 0.000000 0.000000 1.866700 
# 
# From -- ./inp_files/8032.got.cif
#   From: 2010.05.17/outbox.cif.g08.bks.cpg/sg68_5_cif.got.tgz:8032.got - 2010.06.03 18:57:09.
