data_PCOD9506601
_publ_section_title
;
Structure prediction by ZEFSAII (Michael W. Deem and Ramdas Pophale) SiO2 
 PCOD9506601
Probable space group: C C C A
;
_chemical_formula_sum "Si O2"
_cell_formula_units_Z 48
_cell_length_a 11.418724
_cell_length_b 24.730473
_cell_length_c 7.379082
_cell_angle_alpha 90.000000
_cell_angle_beta 90.000000
_cell_angle_gamma 90.000000
_cell_volume 2083.782254
_symmetry_space_group_name_H-M "C C C A"
_symmetry_group_IT_number 68
_space_group.IT_coordinate_system_code '2'
_symmetry_cell_setting 'orthorhombic'
loop_
_space_group_symop_operation_xyz
x,y,z
-x,1/2-y,z
x,1/2-y,1/2-z
-x,y,1/2-z
-x,-y,-z
x,1/2+y,-z
-x,1/2+y,1/2+z
x,-y,1/2+z
1/2+x,1/2+y,z
1/2-x,-y,z
1/2+x,-y,1/2-z
1/2-x,1/2+y,1/2-z
1/2-x,1/2-y,-z
1/2+x,y,-z
1/2-x,y,1/2+z
1/2+x,1/2-y,1/2+z
loop_
_atom_site_type_symbol
_atom_site_label
_atom_site_fract_x
_atom_site_fract_y
_atom_site_fract_z
Si Si1 0.250000 0.500000 0.865371
Si Si2 0.390192 0.434995 0.120464
Si Si3 0.894917 0.688011 0.400910
Si Si4 0.179121 0.750000 0.750000
O O1 0.279591 0.553338 0.751202
O O2 0.363614 0.482024 0.977705
O O3 0.500000 0.441440 0.250000
O O4 0.395626 0.374772 0.044447
O O5 0.891281 0.725892 0.579362
O O6 0.770530 0.703047 0.309441
O O7 0.000000 0.694231 0.250000
#
# Coordination Sequence:
#
# PCOD9506601 Si02
#       4
#     8  16  16   8
#     4  10  20  34  56  86 126 164 202 248 302 364
#     4  10  20  35  57  87 122 161 204 250 304 367
#     4  10  21  39  63  91 125 166 214 263 317 377
#     4  10  21  40  65  90 122 164 212 266 320 374
#
# _framework density 23.035038
#
# number of rings (size 3 to 8) (size 9 to 14) (size 15 to 20)
#    0.000    2.000    0.000    3.500    0.000    0.000 
#    0.000   13.333    0.000   40.000    0.000    0.000 
#    0.000    0.000    0.000    4.000    0.000    0.000 
#
# Total GULP energy -133682.418348 kJ/mol
# GULP energy per Si atom -5570.100765 kJ/mol
# Density = 2.298261 g / cm^3
# Si number density = 23.035038 Si / 1000 Ang^3
#
#
#
# Elastic Constant Matrix: (Units=GPa)
#
#
# Indices 1 2 3 4 5 6 
#
# 1 104.1395 50.2875 57.5698 0.0000 0.0000 0.0000
# 2 50.2875 115.3972 41.8146 0.0000 0.0000 0.0000
# 3 57.5698 41.8146 117.4881 0.0000 0.0000 0.0000
# 4 0.0000 0.0000 0.0000 28.0310 0.0000 0.0000
# 5 0.0000 0.0000 0.0000 0.0000 22.2162 0.0000
# 6 0.0000 0.0000 0.0000 0.0000 0.0000 16.2448
#
#
#
# Elastic Compliance Matrix: (Units=1/GPa)
#
#
# Indices 1 2 3 4 5 6 
#
# 1 0.014904 -0.004418 -0.005731 0.000000 0.000000 0.000000
# 2 -0.004418 0.011259 -0.001842 0.000000 0.000000 0.000000
# 3 -0.005731 -0.001842 0.011975 0.000000 0.000000 0.000000
# 4 0.000000 0.000000 0.000000 0.035675 0.000000 0.000000
# 5 0.000000 0.000000 0.000000 0.000000 0.045012 0.000000
# 6 0.000000 0.000000 0.000000 0.000000 0.000000 0.061558
#
#
# Mechanical properties :
#
#
# Convention : Reuss Voigt Hill
#
# Bulk Modulus (GPa) = 70.64171 70.70761 70.67466
# Shear Modulus (GPa) = 23.91395 25.78860 24.85127
#
# Velocity S-wave (km/s) = 3.22554 3.34958 3.28814
# Velocity P-wave (km/s) = 6.67875 6.76180 6.72040
#
# Compressibility (1/GPa) = 0.01415594
#
# Stress axis : x y z
#
# Youngs Moduli (GPa) = 67.09621 88.82114 83.50688
#
# Poissons Ratio (x) = 0.39244 0.47854
# Poissons Ratio (y) = 0.29645 0.15382
# Poissons Ratio (z) = 0.38450 0.16361
#
# Static dielectric constant tensor:
#      x y z
#    x 1.910250 0.000000 0.000000 
#    y 0.000000 1.835150 0.000000 
#    z 0.000000 0.000000 2.010160 
# 
# From -- ./inp_files/3750.got.cif
#   From: 2010.05.17/outbox.cif.g08.bks.cpg/sg68_2_cif.got.tgz:3750.got - 2010.06.03 18:57:09.
