data_PCOD9506932
_publ_section_title
;
Structure prediction by ZEFSAII (Michael W. Deem and Ramdas Pophale) SiO2 
 PCOD9506932
Probable space group: C C C A
;
_chemical_formula_sum "Si O2"
_cell_formula_units_Z 88
_cell_length_a 10.768559
_cell_length_b 15.590661
_cell_length_c 26.155422
_cell_angle_alpha 90.000000
_cell_angle_beta 90.000000
_cell_angle_gamma 90.000000
_cell_volume 4391.206410
_symmetry_space_group_name_H-M "C C C A"
_symmetry_group_IT_number 68
_space_group.IT_coordinate_system_code '2'
_symmetry_cell_setting 'orthorhombic'
loop_
_space_group_symop_operation_xyz
x,y,z
-x,1/2-y,z
x,1/2-y,1/2-z
-x,y,1/2-z
-x,-y,-z
x,1/2+y,-z
-x,1/2+y,1/2+z
x,-y,1/2+z
1/2+x,1/2+y,z
1/2-x,-y,z
1/2+x,-y,1/2-z
1/2-x,1/2+y,1/2-z
1/2-x,1/2-y,-z
1/2+x,y,-z
1/2-x,y,1/2+z
1/2+x,1/2-y,1/2+z
loop_
_atom_site_type_symbol
_atom_site_label
_atom_site_fract_x
_atom_site_fract_y
_atom_site_fract_z
Si Si1 0.500000 0.250000 0.632202
Si Si2 0.941193 0.952278 0.305556
Si Si3 0.200025 0.625496 0.840851
Si Si4 0.419549 0.062727 0.405820
Si Si5 0.669019 0.127739 0.563662
Si Si6 0.189948 0.907031 0.049043
O O1 0.603837 0.297742 0.665909
O O2 0.574993 0.185897 0.595157
O O3 0.832309 0.880934 0.312059
O O4 0.000000 0.958177 0.250000
O O5 0.050500 0.938814 0.346048
O O6 0.873844 0.039647 0.324482
O O7 0.232958 0.624654 0.901659
O O8 0.309101 0.128670 0.415583
O O9 0.548785 0.083890 0.432749
O O10 0.379327 0.969581 0.426864
O O11 0.683018 0.145091 0.503397
O O12 0.250000 0.000000 0.036720
#
# Coordination Sequence:
#
# PCOD9506932 Si02
#       6
#     8  16  16  16  16  16
#     4  12  24  44  57  96 146 166 205 256 344 378
#     4  10  20  41  72  93 113 161 227 268 311 381
#     4  10  22  40  65  97 133 167 199 277 321 377
#     4  10  20  37  60  93 118 168 221 268 305 374
#     4  11  23  32  63  89 131 173 214 258 309 394
#     4  11  18  36  62  91 130 170 220 260 312 362
#
# _framework density 20.040051999999999
#
# number of rings (size 3 to 8) (size 9 to 14) (size 15 to 20)
#    0.000    1.455    7.273    0.545    2.545    3.636 
#    0.000    3.182    0.000    1.091    0.000    0.000 
#    0.000    0.000    0.000    0.000    0.000    0.000 
#
# Total GULP energy -245562.610167 kJ/mol
# GULP energy per Si atom -5580.968413 kJ/mol
# Density = 1.999444 g / cm^3
# Si number density = 20.040052 Si / 1000 Ang^3
#
#
#
# Elastic Constant Matrix: (Units=GPa)
#
#
# Indices 1 2 3 4 5 6 
#
# 1 116.9809 26.5875 54.6042 0.0000 0.0000 0.0000
# 2 26.5875 36.5968 5.9094 0.0000 0.0000 0.0000
# 3 54.6042 5.9094 134.3259 0.0000 0.0000 0.0000
# 4 0.0000 0.0000 0.0000 0.5791 0.0000 0.0000
# 5 0.0000 0.0000 0.0000 0.0000 -5.2465 0.0000
# 6 0.0000 0.0000 0.0000 0.0000 0.0000 36.1986
#
#
#
# Elastic Compliance Matrix: (Units=1/GPa)
#
#
# Indices 1 2 3 4 5 6 
#
# 1 0.012709 -0.008459 -0.004794 0.000000 0.000000 0.000000
# 2 -0.008459 0.033150 0.001980 0.000000 0.000000 0.000000
# 3 -0.004794 0.001980 0.009306 0.000000 0.000000 0.000000
# 4 0.000000 0.000000 0.000000 1.726799 0.000000 0.000000
# 5 0.000000 0.000000 0.000000 0.000000 -0.190603 0.000000
# 6 0.000000 0.000000 0.000000 0.000000 0.000000 0.027625
#
#
# Mechanical properties :
#
#
# Convention : Reuss Voigt Hill
#
# Bulk Modulus (GPa) = 30.65603 51.34509 41.00056
# Shear Modulus (GPa) = 3.02589 19.69308 11.35949
#
# Velocity S-wave (km/s) = 1.23012 3.13818 2.38342
# Velocity P-wave (km/s) = 4.16512 6.22959 5.29887
#
# Compressibility (1/GPa) = 0.03262001
#
# Stress axis : x y z
#
# Youngs Moduli (GPa) = 78.68653 30.16567 107.45456
#
# Poissons Ratio (x) = 0.25516 0.51514
# Poissons Ratio (y) = 0.66559 -0.21278
# Poissons Ratio (z) = 0.37722 -0.05973
#
# Static dielectric constant tensor:
#      x y z
#    x 1.709260 0.000000 0.000000 
#    y 0.000000 1.737130 0.000000 
#    z 0.000000 0.000000 1.720250 
# 
# From -- ./inp_files/50170.got.cif
#   From: 2010.05.17/outbox.cif.g08.bks.cpg/sg68_26_cif.got.tgz:50170.got - 2010.06.03 18:57:09.
