data_PCOD9506432
_publ_section_title
;
Structure prediction by ZEFSAII (Michael W. Deem and Ramdas Pophale) SiO2 
 PCOD9506432
Probable space group: C C C A
;
_chemical_formula_sum "Si O2"
_cell_formula_units_Z 88
_cell_length_a 25.685217
_cell_length_b 12.891827
_cell_length_c 11.196836
_cell_angle_alpha 90.000000
_cell_angle_beta 90.000000
_cell_angle_gamma 90.000000
_cell_volume 3707.601296
_symmetry_space_group_name_H-M "C C C A"
_symmetry_group_IT_number 68
_space_group.IT_coordinate_system_code '2'
_symmetry_cell_setting 'orthorhombic'
loop_
_space_group_symop_operation_xyz
x,y,z
-x,1/2-y,z
x,1/2-y,1/2-z
-x,y,1/2-z
-x,-y,-z
x,1/2+y,-z
-x,1/2+y,1/2+z
x,-y,1/2+z
1/2+x,1/2+y,z
1/2-x,-y,z
1/2+x,-y,1/2-z
1/2-x,1/2+y,1/2-z
1/2-x,1/2-y,-z
1/2+x,y,-z
1/2-x,y,1/2+z
1/2+x,1/2-y,1/2+z
loop_
_atom_site_type_symbol
_atom_site_label
_atom_site_fract_x
_atom_site_fract_y
_atom_site_fract_z
Si Si1 0.127914 0.750000 0.750000
Si Si2 0.693562 0.551000 0.942651
Si Si3 0.449715 0.968912 0.820018
Si Si4 0.550738 0.822362 0.042817
Si Si5 0.375687 0.281452 0.117821
Si Si6 0.350327 0.030666 0.693594
O O1 0.089135 0.774189 0.858148
O O2 0.161837 0.848936 0.717507
O O3 0.750000 0.500000 0.954262
O O4 0.675180 0.672398 0.948348
O O5 0.676472 0.525191 0.806439
O O6 0.664327 0.503015 0.058765
O O7 0.500000 0.930067 0.750000
O O8 0.417234 0.876965 0.880971
O O9 0.462131 0.062136 0.912040
O O10 0.411343 0.018628 0.721240
O O11 0.500000 0.750000 0.031486
O O12 0.588962 0.812478 0.930202
O O13 0.360113 0.250000 0.250000
#
# Coordination Sequence:
#
# PCOD9506432 Si02
#       6
#     8  16  16  16  16  16
#     4  10  19  40  64  96 140 184 242 296 357 442
#     4  11  24  48  75 102 141 195 250 325 393 449
#     4  10  24  42  71 104 149 203 248 303 376 456
#     4  11  22  40  69 102 150 200 254 291 365 464
#     4  11  27  46  69 109 154 192 254 320 383 458
#     4  10  22  44  70 104 141 184 250 310 375 457
#
# _framework density 23.735023000000002
#
# number of rings (size 3 to 8) (size 9 to 14) (size 15 to 20)
#    0.000    1.455    1.818    3.000    2.545    9.455 
#    1.636    0.909    0.000    0.000    0.000    0.000 
#    0.000    0.000    0.000    0.000    0.000    0.000 
#
# Total GULP energy -245558.018452 kJ/mol
# GULP energy per Si atom -5580.864056 kJ/mol
# Density = 2.368100 g / cm^3
# Si number density = 23.735023 Si / 1000 Ang^3
#
#
#
# Elastic Constant Matrix: (Units=GPa)
#
#
# Indices 1 2 3 4 5 6 
#
# 1 102.1692 25.1732 28.6781 0.0000 0.0000 0.0000
# 2 25.1732 97.0419 3.3479 0.0000 0.0000 0.0000
# 3 28.6781 3.3479 116.9631 0.0000 0.0000 0.0000
# 4 0.0000 0.0000 0.0000 29.0436 0.0000 0.0000
# 5 0.0000 0.0000 0.0000 0.0000 35.2843 0.0000
# 6 0.0000 0.0000 0.0000 0.0000 0.0000 -1.5120
#
#
#
# Elastic Compliance Matrix: (Units=1/GPa)
#
#
# Indices 1 2 3 4 5 6 
#
# 1 0.011233 -0.002822 -0.002674 0.000000 0.000000 0.000000
# 2 -0.002822 0.011024 0.000376 0.000000 0.000000 0.000000
# 3 -0.002674 0.000376 0.009194 0.000000 0.000000 0.000000
# 4 0.000000 0.000000 0.000000 0.034431 0.000000 0.000000
# 5 0.000000 0.000000 0.000000 0.000000 0.028341 0.000000
# 6 0.000000 0.000000 0.000000 0.000000 0.000000 -0.661357
#
#
# Mechanical properties :
#
#
# Convention : Reuss Voigt Hill
#
# Bulk Modulus (GPa) = 47.13932 47.84139 47.49035
# Shear Modulus (GPa) = -9.09382 29.82817 10.36717
#
# Velocity S-wave (km/s) = -1.95952 3.54886 2.09221
# Velocity P-wave (km/s) = 3.84502 6.08217 5.08807
#
# Compressibility (1/GPa) = 0.02121371
#
# Stress axis : x y z
#
# Youngs Moduli (GPa) = 89.02044 90.71260 108.76118
#
# Poissons Ratio (x) = 0.25597 0.29078
# Poissons Ratio (y) = 0.25119 -0.04093
# Poissons Ratio (z) = 0.23800 -0.03414
#
# Static dielectric constant tensor:
#      x y z
#    x 1.890670 0.000000 0.000000 
#    y 0.000000 1.983930 0.000000 
#    z 0.000000 0.000000 2.080600 
# 
# From -- ./inp_files/17091.got.cif
#   From: 2010.05.17/outbox.cif.g08.bks.cpg/sg68_9_cif.got.tgz:17091.got - 2010.06.03 18:57:09.
