data_PCOD9506143
_publ_section_title
;
Structure prediction by ZEFSAII (Michael W. Deem and Ramdas Pophale) SiO2 
 PCOD9506143
Probable space group: C C C A
;
_chemical_formula_sum "Si O2"
_cell_formula_units_Z 112
_cell_length_a 24.020057
_cell_length_b 14.935307
_cell_length_c 13.598683
_cell_angle_alpha 90.000000
_cell_angle_beta 90.000000
_cell_angle_gamma 90.000000
_cell_volume 4878.485716
_symmetry_space_group_name_H-M "C C C A"
_symmetry_group_IT_number 68
_space_group.IT_coordinate_system_code '2'
_symmetry_cell_setting 'orthorhombic'
loop_
_space_group_symop_operation_xyz
x,y,z
-x,1/2-y,z
x,1/2-y,1/2-z
-x,y,1/2-z
-x,-y,-z
x,1/2+y,-z
-x,1/2+y,1/2+z
x,-y,1/2+z
1/2+x,1/2+y,z
1/2-x,-y,z
1/2+x,-y,1/2-z
1/2-x,1/2+y,1/2-z
1/2-x,1/2-y,-z
1/2+x,y,-z
1/2-x,y,1/2+z
1/2+x,1/2-y,1/2+z
loop_
_atom_site_type_symbol
_atom_site_label
_atom_site_fract_x
_atom_site_fract_y
_atom_site_fract_z
Si Si1 0.175229 0.219944 0.470403
Si Si2 0.271896 0.149378 0.786543
Si Si3 0.450437 0.687042 0.037918
Si Si4 0.977264 0.432759 0.143349
Si Si5 0.548757 0.861710 0.822299
Si Si6 0.349871 0.595847 0.382007
Si Si7 0.670630 0.895065 0.837256
O O1 0.215996 0.162449 0.400944
O O2 0.112704 0.199454 0.430967
O O3 0.178102 0.327662 0.451334
O O4 0.181134 0.181768 0.580480
O O5 0.262248 0.250000 0.750000
O O6 0.325912 0.115803 0.726823
O O7 0.218925 0.097444 0.743416
O O8 0.500000 0.750000 0.077711
O O9 0.474105 0.591156 0.068112
O O10 0.448545 0.696384 0.920568
O O11 0.967543 0.537825 0.148487
O O12 0.916623 0.394117 0.115665
O O13 0.000000 0.402257 0.250000
O O14 0.500000 0.835842 0.750000
O O15 0.612139 0.870028 0.784974
O O16 0.336072 0.490151 0.394953
#
# Coordination Sequence:
#
# PCOD9506143 Si02
#       7
#    16  16  16  16  16  16  16
#     4  10  22  42  64  95 133 169 217 273 328 386
#     4  10  22  41  63  88 124 166 215 274 323 383
#     4  11  20  35  60  94 124 167 211 254 320 394
#     4  10  19  34  60  91 126 165 209 263 324 383
#     4   9  21  40  59  87 127 167 211 266 315 384
#     4  10  20  39  63  92 133 169 215 275 321 392
#     4  10  22  43  66  93 129 173 219 268 329 394
#
# _framework density 22.957944000000001
#
# number of rings (size 3 to 8) (size 9 to 14) (size 15 to 20)
#    0.000    2.000    1.429    1.714    0.000    2.857 
#    5.143    8.571    0.000    0.000    0.000    0.000 
#    0.000    0.000    0.000    0.000    0.000    0.000 
#
# Total GULP energy -312431.111698 kJ/mol
# GULP energy per Si atom -5579.126995 kJ/mol
# Density = 2.290569 g / cm^3
# Si number density = 22.957944 Si / 1000 Ang^3
#
#
#
# Elastic Constant Matrix: (Units=GPa)
#
#
# Indices 1 2 3 4 5 6 
#
# 1 115.4076 21.2501 24.6688 0.0000 0.0000 0.0000
# 2 21.2501 77.7031 6.9785 0.0000 0.0000 0.0000
# 3 24.6688 6.9785 61.4791 0.0000 0.0000 0.0000
# 4 0.0000 0.0000 0.0000 24.0471 0.0000 0.0000
# 5 0.0000 0.0000 0.0000 0.0000 36.4564 0.0000
# 6 0.0000 0.0000 0.0000 0.0000 0.0000 16.7527
#
#
#
# Elastic Compliance Matrix: (Units=1/GPa)
#
#
# Indices 1 2 3 4 5 6 
#
# 1 0.009893 -0.002373 -0.003700 0.000000 0.000000 0.000000
# 2 -0.002373 0.013571 -0.000588 0.000000 0.000000 0.000000
# 3 -0.003700 -0.000588 0.017817 0.000000 0.000000 0.000000
# 4 0.000000 0.000000 0.000000 0.041585 0.000000 0.000000
# 5 0.000000 0.000000 0.000000 0.000000 0.027430 0.000000
# 6 0.000000 0.000000 0.000000 0.000000 0.000000 0.059692
#
#
# Mechanical properties :
#
#
# Convention : Reuss Voigt Hill
#
# Bulk Modulus (GPa) = 35.76769 40.04273 37.90521
# Shear Modulus (GPa) = 25.95640 28.89741 27.42690
#
# Velocity S-wave (km/s) = 3.36610 3.55168 3.46013
# Velocity P-wave (km/s) = 5.54265 5.85653 5.70175
#
# Compressibility (1/GPa) = 0.02795819
#
# Stress axis : x y z
#
# Youngs Moduli (GPa) = 101.08327 73.68475 56.12565
#
# Poissons Ratio (x) = 0.17487 0.20767
# Poissons Ratio (y) = 0.23989 0.03302
# Poissons Ratio (z) = 0.37403 0.04334
#
# Static dielectric constant tensor:
#      x y z
#    x 1.892650 0.000000 0.000000 
#    y 0.000000 1.951850 0.000000 
#    z 0.000000 0.000000 -10.843610 
# 
# From -- ./inp_files/25465.got.cif
#   From: 2010.05.17/outbox.cif.g08.bks.cpg/sg68_13_cif.got.tgz:25465.got - 2010.06.03 18:57:09.
