data_PCOD9506043
_publ_section_title
;
Structure prediction by ZEFSAII (Michael W. Deem and Ramdas Pophale) SiO2 
 PCOD9506043
Probable space group: C C C A
;
_chemical_formula_sum "Si O2"
_cell_formula_units_Z 72
_cell_length_a 16.553177
_cell_length_b 15.051638
_cell_length_c 13.980787
_cell_angle_alpha 90.000000
_cell_angle_beta 90.000000
_cell_angle_gamma 90.000000
_cell_volume 3483.347026
_symmetry_space_group_name_H-M "C C C A"
_symmetry_group_IT_number 68
_space_group.IT_coordinate_system_code '2'
_symmetry_cell_setting 'orthorhombic'
loop_
_space_group_symop_operation_xyz
x,y,z
-x,1/2-y,z
x,1/2-y,1/2-z
-x,y,1/2-z
-x,-y,-z
x,1/2+y,-z
-x,1/2+y,1/2+z
x,-y,1/2+z
1/2+x,1/2+y,z
1/2-x,-y,z
1/2+x,-y,1/2-z
1/2-x,1/2+y,1/2-z
1/2-x,1/2-y,-z
1/2+x,y,-z
1/2-x,y,1/2+z
1/2+x,1/2-y,1/2+z
loop_
_atom_site_type_symbol
_atom_site_label
_atom_site_fract_x
_atom_site_fract_y
_atom_site_fract_z
Si Si1 0.412818 0.171492 0.445638
Si Si2 0.648471 0.250000 0.250000
Si Si3 0.320663 0.930576 0.667628
Si Si4 0.847312 0.498432 0.357916
Si Si5 0.903988 0.149928 0.015194
O O1 0.405478 0.217094 0.339882
O O2 0.501881 0.154999 0.486799
O O3 0.373783 0.247866 0.512283
O O4 0.372196 0.076608 0.430681
O O5 0.700216 0.165316 0.284719
O O6 0.363298 0.905102 0.570250
O O7 0.250000 0.000000 0.648299
O O8 0.374793 0.975308 0.750856
O O9 0.750000 0.500000 0.354840
O O10 0.882943 0.405201 0.391183
#
# Coordination Sequence:
#
# PCOD9506043 Si02
#       5
#    16   8  16  16  16
#     4   9  19  33  53  77  99 128 169 213 253 291
#     4   8  16  31  52  74  98 125 166 216 252 287
#     4   9  18  32  50  75 102 132 168 207 253 299
#     4  10  20  33  50  75 105 134 166 205 252 304
#     4  10  19  33  54  76 101 130 169 213 251 293
#
# _framework density 20.669775000000001
#
# number of rings (size 3 to 8) (size 9 to 14) (size 15 to 20)
#    0.000    2.667    0.000    1.333    0.000   14.222 
#    0.000    4.444    0.000    0.000    0.000    3.111 
#    0.000    0.000    0.000    0.000    0.000    0.000 
#
# Total GULP energy -200568.023668 kJ/mol
# GULP energy per Si atom -5571.333991 kJ/mol
# Density = 2.062273 g / cm^3
# Si number density = 20.669775 Si / 1000 Ang^3
#
#
#
# Elastic Constant Matrix: (Units=GPa)
#
#
# Indices 1 2 3 4 5 6 
#
# 1 40.1974 12.7548 -9.8123 0.0000 0.0000 0.0000
# 2 12.7548 77.3095 11.1792 0.0000 0.0000 0.0000
# 3 -9.8123 11.1792 23.0352 0.0000 0.0000 0.0000
# 4 0.0000 0.0000 0.0000 47.4074 0.0000 0.0000
# 5 0.0000 0.0000 0.0000 0.0000 -2.8453 0.0000
# 6 0.0000 0.0000 0.0000 0.0000 0.0000 34.2479
#
#
#
# Elastic Compliance Matrix: (Units=1/GPa)
#
#
# Indices 1 2 3 4 5 6 
#
# 1 0.031497 -0.007675 0.017142 0.000000 0.000000 0.000000
# 2 -0.007675 0.015782 -0.010928 0.000000 0.000000 0.000000
# 3 0.017142 -0.010928 0.056017 0.000000 0.000000 0.000000
# 4 0.000000 0.000000 0.000000 0.021094 0.000000 0.000000
# 5 0.000000 0.000000 0.000000 0.000000 -0.351455 0.000000
# 6 0.000000 0.000000 0.000000 0.000000 0.000000 0.029199
#
#
# Mechanical properties :
#
#
# Convention : Reuss Voigt Hill
#
# Bulk Modulus (GPa) = 9.96293 18.75394 14.35844
# Shear Modulus (GPa) = -30.96254 24.19002 -3.38626
#
# Velocity S-wave (km/s) = -3.87455 3.42469 -1.28134
# Velocity P-wave (km/s) = 3.89688 4.97301 2.18462
#
# Compressibility (1/GPa) = 0.10037209
#
# Stress axis : x y z
#
# Youngs Moduli (GPa) = 31.74907 63.36489 17.85158
#
# Poissons Ratio (x) = 0.48634 -0.30601
# Poissons Ratio (y) = 0.24368 0.19509
# Poissons Ratio (z) = -0.54423 0.69248
#
# Static dielectric constant tensor:
#      x y z
#    x 1.736650 0.000000 0.000000 
#    y 0.000000 1.788210 0.000000 
#    z 0.000000 0.000000 1.777070 
# 
# From -- ./inp_files/23352.got.cif
#   From: 2010.05.17/outbox.cif.g08.bks.cpg/sg68_12_cif.got.tgz:23352.got - 2010.06.03 18:57:09.
