data_PCOD9506278
_publ_section_title
;
Structure prediction by ZEFSAII (Michael W. Deem and Ramdas Pophale) SiO2 
 PCOD9506278
Probable space group: C C C A
;
_chemical_formula_sum "Si O2"
_cell_formula_units_Z 88
_cell_length_a 28.761782
_cell_length_b 14.018732
_cell_length_c 9.933373
_cell_angle_alpha 90.000000
_cell_angle_beta 90.000000
_cell_angle_gamma 90.000000
_cell_volume 4005.172883
_symmetry_space_group_name_H-M "C C C A"
_symmetry_group_IT_number 68
_space_group.IT_coordinate_system_code '2'
_symmetry_cell_setting 'orthorhombic'
loop_
_space_group_symop_operation_xyz
x,y,z
-x,1/2-y,z
x,1/2-y,1/2-z
-x,y,1/2-z
-x,-y,-z
x,1/2+y,-z
-x,1/2+y,1/2+z
x,-y,1/2+z
1/2+x,1/2+y,z
1/2-x,-y,z
1/2+x,-y,1/2-z
1/2-x,1/2+y,1/2-z
1/2-x,1/2-y,-z
1/2+x,y,-z
1/2-x,y,1/2+z
1/2+x,1/2-y,1/2+z
loop_
_atom_site_type_symbol
_atom_site_label
_atom_site_fract_x
_atom_site_fract_y
_atom_site_fract_z
Si Si1 0.829988 0.750000 0.750000
Si Si2 0.858048 0.055827 0.886868
Si Si3 0.434029 0.559037 0.541995
Si Si4 0.105537 0.751888 0.012668
Si Si5 0.975543 0.124301 0.113435
Si Si6 0.800709 0.454800 0.340350
O O1 0.861823 0.767116 0.882404
O O2 0.801876 0.846382 0.716593
O O3 0.872239 0.166598 0.894980
O O4 0.821340 0.044080 0.009503
O O5 0.902708 0.992694 0.928866
O O6 0.835058 0.016646 0.752768
O O7 0.406704 0.653263 0.584905
O O8 0.483398 0.596600 0.488292
O O9 0.445741 0.472070 0.640598
O O10 0.058862 0.798828 0.949965
O O11 0.000000 0.152242 0.250000
O O12 0.750000 0.500000 0.336385
#
# Coordination Sequence:
#
# PCOD9506278 Si02
#       6
#     8  16  16  16  16  16
#     4  10  20  38  69  92 122 172 218 253 310 404
#     4  10  23  40  67  91 127 168 205 265 321 378
#     4  10  20  36  57  88 128 160 213 258 313 371
#     4  10  19  36  61  90 123 169 216 252 310 383
#     4  10  21  33  60  89 122 168 214 263 300 370
#     4  11  23  45  67  95 126 162 213 270 325 386
#
# _framework density 21.971585999999999
#
# number of rings (size 3 to 8) (size 9 to 14) (size 15 to 20)
#    0.000    1.818    1.818    2.182    5.091    0.727 
#    3.273    2.727    4.000    0.000    0.000    0.000 
#    0.000    0.000    0.000    0.000    0.000    0.000 
#
# Total GULP energy -246091.212151 kJ/mol
# GULP energy per Si atom -5592.982094 kJ/mol
# Density = 2.192158 g / cm^3
# Si number density = 21.971586 Si / 1000 Ang^3
#
#
#
# Elastic Constant Matrix: (Units=GPa)
#
#
# Indices 1 2 3 4 5 6 
#
# 1 112.6150 49.8415 17.9084 0.0000 0.0000 0.0000
# 2 49.8415 183.3264 28.2479 0.0000 0.0000 0.0000
# 3 17.9084 28.2479 51.2517 0.0000 0.0000 0.0000
# 4 0.0000 0.0000 0.0000 7.6543 0.0000 0.0000
# 5 0.0000 0.0000 0.0000 0.0000 15.3381 0.0000
# 6 0.0000 0.0000 0.0000 0.0000 0.0000 49.4254
#
#
#
# Elastic Compliance Matrix: (Units=1/GPa)
#
#
# Indices 1 2 3 4 5 6 
#
# 1 0.010327 -0.002461 -0.002252 0.000000 0.000000 0.000000
# 2 -0.002461 0.006547 -0.002749 0.000000 0.000000 0.000000
# 3 -0.002252 -0.002749 0.021814 0.000000 0.000000 0.000000
# 4 0.000000 0.000000 0.000000 0.130645 0.000000 0.000000
# 5 0.000000 0.000000 0.000000 0.000000 0.065197 0.000000
# 6 0.000000 0.000000 0.000000 0.000000 0.000000 0.020232
#
#
# Mechanical properties :
#
#
# Convention : Reuss Voigt Hill
#
# Bulk Modulus (GPa) = 42.07959 59.90983 50.99471
# Shear Modulus (GPa) = 18.01105 31.22993 24.62049
#
# Velocity S-wave (km/s) = 2.86622 3.77421 3.35111
# Velocity P-wave (km/s) = 5.49063 6.80581 6.18329
#
# Compressibility (1/GPa) = 0.02376449
#
# Stress axis : x y z
#
# Youngs Moduli (GPa) = 96.83359 152.73534 45.84297
#
# Poissons Ratio (x) = 0.37582 0.10325
# Poissons Ratio (y) = 0.23827 0.12601
# Poissons Ratio (z) = 0.21810 0.41984
#
# Static dielectric constant tensor:
#      x y z
#    x 1.789960 0.000000 0.000000 
#    y 0.000000 1.824370 0.000000 
#    z 0.000000 0.000000 1.789430 
# 
# From -- ./inp_files/16328.got.cif
#   From: 2010.05.17/outbox.cif.g08.bks.cpg/sg68_9_cif.got.tgz:16328.got - 2010.06.03 18:57:09.
