data_PCOD9506881
_publ_section_title
;
Structure prediction by ZEFSAII (Michael W. Deem and Ramdas Pophale) SiO2 
 PCOD9506881
Probable space group: C C C A
;
_chemical_formula_sum "Si O2"
_cell_formula_units_Z 60
_cell_length_a 5.190269
_cell_length_b 25.917325
_cell_length_c 23.079242
_cell_angle_alpha 90.000000
_cell_angle_beta 90.000000
_cell_angle_gamma 90.000000
_cell_volume 3104.570902
_symmetry_space_group_name_H-M "C C C A"
_symmetry_group_IT_number 68
_space_group.IT_coordinate_system_code '2'
_symmetry_cell_setting 'orthorhombic'
loop_
_space_group_symop_operation_xyz
x,y,z
-x,1/2-y,z
x,1/2-y,1/2-z
-x,y,1/2-z
-x,-y,-z
x,1/2+y,-z
-x,1/2+y,1/2+z
x,-y,1/2+z
1/2+x,1/2+y,z
1/2-x,-y,z
1/2+x,-y,1/2-z
1/2-x,1/2+y,1/2-z
1/2-x,1/2-y,-z
1/2+x,y,-z
1/2-x,y,1/2+z
1/2+x,1/2-y,1/2+z
loop_
_atom_site_type_symbol
_atom_site_label
_atom_site_fract_x
_atom_site_fract_y
_atom_site_fract_z
Si Si1 0.802073 0.807472 0.475649
Si Si2 0.500000 0.250000 0.250000
Si Si3 0.397900 0.828946 0.654347
Si Si4 0.250000 0.500000 0.209799
Si Si5 0.915347 0.109291 0.182777
O O1 0.750000 0.750000 0.500000
O O2 0.525541 0.833151 0.486250
O O3 0.888817 0.805229 0.409484
O O4 0.653786 0.212895 0.294650
O O5 0.674579 0.853776 0.668851
O O6 0.173805 0.871527 0.652450
O O7 0.500000 0.487217 0.250000
O O8 0.173553 0.449478 0.173797
O O9 0.000000 0.111694 0.250000
#
# Coordination Sequence:
#
# PCOD9506881 Si02
#       5
#    16   4  16   8  16
#     4  10  21  40  58  79 111 159 220 252 282 341
#     4  12  24  38  52  90 132 170 188 240 316 368
#     4  12  24  37  61  87 129 163 203 252 303 368
#     4  10  20  36  66  82 124 168 196 254 306 380
#     4  11  21  40  56  95 122 159 203 246 311 384
#
# _framework density 19.326342
#
# number of rings (size 3 to 8) (size 9 to 14) (size 15 to 20)
#    0.000    1.067    2.667    6.400    0.000    4.267 
#    0.000    0.000    0.000    0.000    0.000   18.667 
#    0.000    0.000    0.000    0.000    0.000    0.000 
#
# Total GULP energy -167317.142711 kJ/mol
# GULP energy per Si atom -5577.238090 kJ/mol
# Density = 1.928235 g / cm^3
# Si number density = 19.326342 Si / 1000 Ang^3
#
#
#
# Elastic Constant Matrix: (Units=GPa)
#
#
# Indices 1 2 3 4 5 6 
#
# 1 148.2170 24.1669 27.9233 0.0000 0.0000 0.0000
# 2 24.1669 67.8800 44.2604 0.0000 0.0000 0.0000
# 3 27.9233 44.2604 125.9701 0.0000 0.0000 0.0000
# 4 0.0000 0.0000 0.0000 10.3171 0.0000 0.0000
# 5 0.0000 0.0000 0.0000 0.0000 21.0040 0.0000
# 6 0.0000 0.0000 0.0000 0.0000 0.0000 21.9254
#
#
#
# Elastic Compliance Matrix: (Units=1/GPa)
#
#
# Indices 1 2 3 4 5 6 
#
# 1 0.007242 -0.001987 -0.000907 0.000000 0.000000 0.000000
# 2 -0.001987 0.019655 -0.006465 0.000000 0.000000 0.000000
# 3 -0.000907 -0.006465 0.010411 0.000000 0.000000 0.000000
# 4 0.000000 0.000000 0.000000 0.096927 0.000000 0.000000
# 5 0.000000 0.000000 0.000000 0.000000 0.047610 0.000000
# 6 0.000000 0.000000 0.000000 0.000000 0.000000 0.045609
#
#
# Mechanical properties :
#
#
# Convention : Reuss Voigt Hill
#
# Bulk Modulus (GPa) = 53.79517 59.41872 56.60695
# Shear Modulus (GPa) = 19.81228 27.03039 23.42133
#
# Velocity S-wave (km/s) = 3.20526 3.74388 3.48499
# Velocity P-wave (km/s) = 6.44933 7.03566 6.74887
#
# Compressibility (1/GPa) = 0.01858903
#
# Stress axis : x y z
#
# Youngs Moduli (GPa) = 138.08891 50.87782 96.05061
#
# Poissons Ratio (x) = 0.10108 0.08714
# Poissons Ratio (y) = 0.27434 0.62101
# Poissons Ratio (z) = 0.12528 0.32895
#
# Static dielectric constant tensor:
#      x y z
#    x -2.957000 0.000000 0.000000 
#    y 0.000000 2.857000 0.000000 
#    z 0.000000 0.000000 1.727130 
# 
# From -- ./inp_files/34964.got.cif
#   From: 2010.05.17/outbox.cif.g08.bks.cpg/sg68_18_cif.got.tgz:34964.got - 2010.06.03 18:57:09.
