data_PCOD9506188
_publ_section_title
;
Structure prediction by ZEFSAII (Michael W. Deem and Ramdas Pophale) SiO2 
 PCOD9506188
Probable space group: C C C A
;
_chemical_formula_sum "Si O2"
_cell_formula_units_Z 68
_cell_length_a 14.804037
_cell_length_b 23.414052
_cell_length_c 8.846482
_cell_angle_alpha 90.000000
_cell_angle_beta 90.000000
_cell_angle_gamma 90.000000
_cell_volume 3066.389637
_symmetry_space_group_name_H-M "C C C A"
_symmetry_group_IT_number 68
_space_group.IT_coordinate_system_code '2'
_symmetry_cell_setting 'orthorhombic'
loop_
_space_group_symop_operation_xyz
x,y,z
-x,1/2-y,z
x,1/2-y,1/2-z
-x,y,1/2-z
-x,-y,-z
x,1/2+y,-z
-x,1/2+y,1/2+z
x,-y,1/2+z
1/2+x,1/2+y,z
1/2-x,-y,z
1/2+x,-y,1/2-z
1/2-x,1/2+y,1/2-z
1/2-x,1/2-y,-z
1/2+x,y,-z
1/2-x,y,1/2+z
1/2+x,1/2-y,1/2+z
loop_
_atom_site_type_symbol
_atom_site_label
_atom_site_fract_x
_atom_site_fract_y
_atom_site_fract_z
Si Si1 0.000000 0.750000 0.250000
Si Si2 0.127205 0.839574 0.384793
Si Si3 0.306660 0.816386 0.218606
Si Si4 0.838401 0.566051 0.816505
Si Si5 0.139381 0.456825 0.537336
O O1 0.056056 0.791118 0.356567
O O2 0.202518 0.830429 0.256048
O O3 0.175991 0.828208 0.543808
O O4 0.084664 0.902501 0.401022
O O5 0.326095 0.750000 0.250000
O O6 0.359092 0.866201 0.313083
O O7 0.893310 0.519173 0.911858
O O8 0.845487 0.546623 0.641930
O O9 0.737182 0.557377 0.883794
#
# Coordination Sequence:
#
# PCOD9506188 Si02
#       5
#     4  16  16  16  16
#     4  12  24  40  54  84 116 162 180 232 308 344
#     4  10  22  36  60  81 120 149 195 233 290 340
#     4  10  19  35  58  89 112 147 193 246 277 338
#     4   9  16  26  48  79 112 134 181 234 281 313
#     4   9  16  29  46  81 107 143 177 231 277 334
#
# _framework density 22.175916999999998
#
# number of rings (size 3 to 8) (size 9 to 14) (size 15 to 20)
#    0.000    2.353    1.176    3.529    0.000    1.882 
#    0.000    0.588    0.000    5.647    0.000    0.000 
#    0.000    0.000    0.000    0.000    0.000    0.000 
#
# Total GULP energy -189547.057860 kJ/mol
# GULP energy per Si atom -5574.913466 kJ/mol
# Density = 2.212544 g / cm^3
# Si number density = 22.175917 Si / 1000 Ang^3
#
#
#
# Elastic Constant Matrix: (Units=GPa)
#
#
# Indices 1 2 3 4 5 6 
#
# 1 13.1495 15.3381 11.2287 0.0000 0.0000 0.0000
# 2 15.3381 184.8031 10.9407 0.0000 0.0000 0.0000
# 3 11.2287 10.9407 57.5857 0.0000 0.0000 0.0000
# 4 0.0000 0.0000 0.0000 31.9002 0.0000 0.0000
# 5 0.0000 0.0000 0.0000 0.0000 23.5095 0.0000
# 6 0.0000 0.0000 0.0000 0.0000 0.0000 45.7878
#
#
#
# Elastic Compliance Matrix: (Units=1/GPa)
#
#
# Indices 1 2 3 4 5 6 
#
# 1 0.099942 -0.007222 -0.018116 0.000000 0.000000 0.000000
# 2 -0.007222 0.005995 0.000269 0.000000 0.000000 0.000000
# 3 -0.018116 0.000269 0.020847 0.000000 0.000000 0.000000
# 4 0.000000 0.000000 0.000000 0.031348 0.000000 0.000000
# 5 0.000000 0.000000 0.000000 0.000000 0.042536 0.000000
# 6 0.000000 0.000000 0.000000 0.000000 0.000000 0.021840
#
#
# Mechanical properties :
#
#
# Convention : Reuss Voigt Hill
#
# Bulk Modulus (GPa) = 13.04695 36.72814 24.88754
# Shear Modulus (GPa) = 16.76762 34.77486 25.77124
#
# Velocity S-wave (km/s) = 2.75274 3.96427 3.41270
# Velocity P-wave (km/s) = 3.99995 6.12797 5.17454
#
# Compressibility (1/GPa) = 0.07664626
#
# Stress axis : x y z
#
# Youngs Moduli (GPa) = 10.00576 166.81512 47.96933
#
# Poissons Ratio (x) = 1.20481 0.86900
# Poissons Ratio (y) = 0.07227 -0.01292
# Poissons Ratio (z) = 0.18126 -0.04494
#
# Static dielectric constant tensor:
#      x y z
#    x 1.880780 0.000000 0.000000 
#    y 0.000000 -3.899380 0.000000 
#    z 0.000000 0.000000 1.762980 
# 
# From -- ./inp_files/6177.got.cif
#   From: 2010.05.17/outbox.cif.g08.bks.cpg/sg68_4_cif.got.tgz:6177.got - 2010.06.03 18:57:09.
