data_PCOD9506735
_publ_section_title
;
Structure prediction by ZEFSAII (Michael W. Deem and Ramdas Pophale) SiO2 
 PCOD9506735
Probable space group: C C C A
;
_chemical_formula_sum "Si O2"
_cell_formula_units_Z 60
_cell_length_a 14.183600
_cell_length_b 15.401780
_cell_length_c 14.114119
_cell_angle_alpha 90.000000
_cell_angle_beta 90.000000
_cell_angle_gamma 90.000000
_cell_volume 3083.267217
_symmetry_space_group_name_H-M "C C C A"
_symmetry_group_IT_number 68
_space_group.IT_coordinate_system_code '2'
_symmetry_cell_setting 'orthorhombic'
loop_
_space_group_symop_operation_xyz
x,y,z
-x,1/2-y,z
x,1/2-y,1/2-z
-x,y,1/2-z
-x,-y,-z
x,1/2+y,-z
-x,1/2+y,1/2+z
x,-y,1/2+z
1/2+x,1/2+y,z
1/2-x,-y,z
1/2+x,-y,1/2-z
1/2-x,1/2+y,1/2-z
1/2-x,1/2-y,-z
1/2+x,y,-z
1/2-x,y,1/2+z
1/2+x,1/2-y,1/2+z
loop_
_atom_site_type_symbol
_atom_site_label
_atom_site_fract_x
_atom_site_fract_y
_atom_site_fract_z
Si Si1 0.598195 0.393001 0.766746
Si Si2 0.849190 0.321251 0.901529
Si Si3 0.000000 0.250000 0.750000
Si Si4 0.855847 0.762598 0.890369
Si Si5 0.750000 0.000000 0.624696
O O1 0.500000 0.439246 0.750000
O O2 0.584514 0.314384 0.841968
O O3 0.632489 0.348291 0.671272
O O4 0.674617 0.454010 0.809884
O O5 0.752669 0.268839 0.878181
O O6 0.809730 0.419847 0.921408
O O7 0.928677 0.305232 0.820060
O O8 0.881019 0.280655 0.001486
#
# Coordination Sequence:
#
# PCOD9506735 Si02
#       5
#    16  16   4  16   8
#     4  10  20  35  65  86 117 157 205 250 297 372
#     4  10  22  38  62  86 128 157 206 255 317 375
#     4  12  24  36  64  98 122 170 212 268 308 382
#     4   9  19  40  62  86 114 168 203 245 301 387
#     4  10  22  40  54  92 130 158 196 256 326 360
#
# _framework density 19.459876999999999
#
# number of rings (size 3 to 8) (size 9 to 14) (size 15 to 20)
#    0.000    2.133    0.000    4.800    5.600    1.067 
#    0.000    4.000    0.000    0.000    0.000    0.000 
#    0.000    0.000    0.000    0.000    0.000    0.000 
#
# Total GULP energy -167057.114646 kJ/mol
# GULP energy per Si atom -5568.570488 kJ/mol
# Density = 1.941559 g / cm^3
# Si number density = 19.459877 Si / 1000 Ang^3
#
#
#
# Elastic Constant Matrix: (Units=GPa)
#
#
# Indices 1 2 3 4 5 6 
#
# 1 79.5625 27.2403 32.8901 0.0000 0.0000 0.0000
# 2 27.2403 47.2700 12.3786 0.0000 0.0000 0.0000
# 3 32.8901 12.3786 100.4286 0.0000 0.0000 0.0000
# 4 0.0000 0.0000 0.0000 4.7527 0.0000 0.0000
# 5 0.0000 0.0000 0.0000 0.0000 25.8718 0.0000
# 6 0.0000 0.0000 0.0000 0.0000 0.0000 29.1059
#
#
#
# Elastic Compliance Matrix: (Units=1/GPa)
#
#
# Indices 1 2 3 4 5 6 
#
# 1 0.017532 -0.008886 -0.004646 0.000000 0.000000 0.000000
# 2 -0.008886 0.026365 -0.000339 0.000000 0.000000 0.000000
# 3 -0.004646 -0.000339 0.011521 0.000000 0.000000 0.000000
# 4 0.000000 0.000000 0.000000 0.210407 0.000000 0.000000
# 5 0.000000 0.000000 0.000000 0.000000 0.038652 0.000000
# 6 0.000000 0.000000 0.000000 0.000000 0.000000 0.034357
#
#
# Mechanical properties :
#
#
# Convention : Reuss Voigt Hill
#
# Bulk Modulus (GPa) = 36.13579 41.36433 38.75006
# Shear Modulus (GPa) = 13.30484 22.26287 17.78386
#
# Velocity S-wave (km/s) = 2.61761 3.38603 3.02631
# Velocity P-wave (km/s) = 5.26741 6.04891 5.67164
#
# Compressibility (1/GPa) = 0.02767339
#
# Stress axis : x y z
#
# Youngs Moduli (GPa) = 57.03856 37.92912 86.79933
#
# Poissons Ratio (x) = 0.33706 0.40330
# Poissons Ratio (y) = 0.50687 0.02946
# Poissons Ratio (z) = 0.26502 0.01287
#
# Static dielectric constant tensor:
#      x y z
#    x 1.615660 0.000000 0.000000 
#    y 0.000000 1.711380 0.000000 
#    z 0.000000 0.000000 1.659770 
# 
# From -- ./inp_files/21796.got.cif
#   From: 2010.05.17/outbox.cif.g08.bks.cpg/sg68_11_cif.got.tgz:21796.got - 2010.06.03 18:57:09.
