data_PCOD9506081
_publ_section_title
;
Structure prediction by ZEFSAII (Michael W. Deem and Ramdas Pophale) SiO2 
 PCOD9506081
Probable space group: C C C A
;
_chemical_formula_sum "Si O2"
_cell_formula_units_Z 48
_cell_length_a 26.648825
_cell_length_b 5.265587
_cell_length_c 13.813351
_cell_angle_alpha 90.000000
_cell_angle_beta 90.000000
_cell_angle_gamma 90.000000
_cell_volume 1938.312985
_symmetry_space_group_name_H-M "C C C A"
_symmetry_group_IT_number 68
_space_group.IT_coordinate_system_code '2'
_symmetry_cell_setting 'orthorhombic'
loop_
_space_group_symop_operation_xyz
x,y,z
-x,1/2-y,z
x,1/2-y,1/2-z
-x,y,1/2-z
-x,-y,-z
x,1/2+y,-z
-x,1/2+y,1/2+z
x,-y,1/2+z
1/2+x,1/2+y,z
1/2-x,-y,z
1/2+x,-y,1/2-z
1/2-x,1/2+y,1/2-z
1/2-x,1/2-y,-z
1/2+x,y,-z
1/2-x,y,1/2+z
1/2+x,1/2-y,1/2+z
loop_
_atom_site_type_symbol
_atom_site_label
_atom_site_fract_x
_atom_site_fract_y
_atom_site_fract_z
Si Si1 0.101442 0.047358 0.354868
Si Si2 0.000000 0.750000 0.568205
Si Si3 0.858291 0.462671 0.634999
Si Si4 0.250000 0.500000 0.811229
O O1 0.136595 0.254613 0.405925
O O2 0.047626 0.180969 0.364740
O O3 0.106258 0.766499 0.399401
O O4 0.122356 0.002804 0.246449
O O5 0.000000 0.500000 0.500000
O O6 0.799563 0.401961 0.634160
O O7 0.266051 0.250000 0.750000
#
# Coordination Sequence:
#
# PCOD9506081 Si02
#       4
#    16   8  16   8
#     4  10  20  36  55  82 115 145 192 243 294 347
#     4  12  26  43  58  77 108 166 220 252 282 332
#     4  10  19  33  59  94 118 144 173 235 313 362
#     4  12  16  30  54  96 132 144 170 210 310 408
#
# _framework density 24.763801000000001
#
# number of rings (size 3 to 8) (size 9 to 14) (size 15 to 20)
#    0.000    1.333    6.667    2.000    0.000    2.667 
#    0.000    6.667    0.000    0.000    0.000   39.667 
#    0.000    0.000    0.000    0.000    0.000    0.000 
#
# Total GULP energy -133722.590922 kJ/mol
# GULP energy per Si atom -5571.774622 kJ/mol
# Density = 2.470744 g / cm^3
# Si number density = 24.763801 Si / 1000 Ang^3
#
#
#
# Elastic Constant Matrix: (Units=GPa)
#
#
# Indices 1 2 3 4 5 6 
#
# 1 187.0284 29.3963 7.4533 0.0000 0.0000 0.0000
# 2 29.3963 235.3478 -7.7145 0.0000 0.0000 0.0000
# 3 7.4533 -7.7145 91.7430 0.0000 0.0000 0.0000
# 4 0.0000 0.0000 0.0000 -0.6109 0.0000 0.0000
# 5 0.0000 0.0000 0.0000 0.0000 18.7736 0.0000
# 6 0.0000 0.0000 0.0000 0.0000 0.0000 39.3310
#
#
#
# Elastic Compliance Matrix: (Units=1/GPa)
#
#
# Indices 1 2 3 4 5 6 
#
# 1 0.005477 -0.000701 -0.000504 0.000000 0.000000 0.000000
# 2 -0.000701 0.004350 0.000423 0.000000 0.000000 0.000000
# 3 -0.000504 0.000423 0.010976 0.000000 0.000000 0.000000
# 4 0.000000 0.000000 0.000000 -1.636988 0.000000 0.000000
# 5 0.000000 0.000000 0.000000 0.000000 0.053266 0.000000
# 6 0.000000 0.000000 0.000000 0.000000 0.000000 0.025425
#
#
# Mechanical properties :
#
#
# Convention : Reuss Voigt Hill
#
# Bulk Modulus (GPa) = 51.97407 63.59883 57.78645
# Shear Modulus (GPa) = -3.26901 43.83100 20.28100
#
# Velocity S-wave (km/s) = -1.15019 4.21166 2.86488
# Velocity P-wave (km/s) = 4.38971 7.02771 5.85911
#
# Compressibility (1/GPa) = 0.01924036
#
# Stress axis : x y z
#
# Youngs Moduli (GPa) = 182.58233 229.86401 91.10373
#
# Poissons Ratio (x) = 0.16105 0.04590
# Poissons Ratio (y) = 0.12792 -0.03851
# Poissons Ratio (z) = 0.09200 -0.09717
#
# Static dielectric constant tensor:
#      x y z
#    x 2.016060 0.000000 0.000000 
#    y 0.000000 2.167540 0.000000 
#    z 0.000000 0.000000 2.397050 
# 
# From -- ./inp_files/39931.got.cif
#   From: 2010.05.17/outbox.cif.g08.bks.cpg/sg68_20_cif.got.tgz:39931.got - 2010.06.03 18:57:09.
