data_PCOD9506829
_publ_section_title
;
Structure prediction by ZEFSAII (Michael W. Deem and Ramdas Pophale) SiO2 
 PCOD9506829
Probable space group: C C C A
;
_chemical_formula_sum "Si O2"
_cell_formula_units_Z 104
_cell_length_a 19.769326
_cell_length_b 15.077355
_cell_length_c 15.957407
_cell_angle_alpha 90.000000
_cell_angle_beta 90.000000
_cell_angle_gamma 90.000000
_cell_volume 4756.410680
_symmetry_space_group_name_H-M "C C C A"
_symmetry_group_IT_number 68
_space_group.IT_coordinate_system_code '2'
_symmetry_cell_setting 'orthorhombic'
loop_
_space_group_symop_operation_xyz
x,y,z
-x,1/2-y,z
x,1/2-y,1/2-z
-x,y,1/2-z
-x,-y,-z
x,1/2+y,-z
-x,1/2+y,1/2+z
x,-y,1/2+z
1/2+x,1/2+y,z
1/2-x,-y,z
1/2+x,-y,1/2-z
1/2-x,1/2+y,1/2-z
1/2-x,1/2-y,-z
1/2+x,y,-z
1/2-x,y,1/2+z
1/2+x,1/2-y,1/2+z
loop_
_atom_site_type_symbol
_atom_site_label
_atom_site_fract_x
_atom_site_fract_y
_atom_site_fract_z
Si Si1 0.882716 0.623652 0.038551
Si Si2 0.073879 0.165814 0.710067
Si Si3 0.910683 0.578997 0.503488
Si Si4 0.250000 0.000000 0.368312
Si Si5 0.264542 0.646555 0.490256
Si Si6 0.101714 0.492813 0.681846
Si Si7 0.532045 0.658631 0.389355
O O1 0.921303 0.674650 0.111328
O O2 0.907362 0.523092 0.031630
O O3 0.802947 0.617573 0.059568
O O4 0.901677 0.668449 0.949637
O O5 0.112132 0.250000 0.750000
O O6 0.096703 0.068561 0.737301
O O7 0.000000 0.166928 0.750000
O O8 0.841618 0.626168 0.534720
O O9 0.913395 0.568371 0.401621
O O10 0.974766 0.623468 0.546290
O O11 0.240348 0.913806 0.426584
O O12 0.180367 0.017696 0.322045
O O13 0.250000 0.750000 0.500000
O O14 0.054439 0.579440 0.673232
O O15 0.500000 0.750000 0.355224
#
# Coordination Sequence:
#
# PCOD9506829 Si02
#       7
#    16  16  16   8  16  16  16
#     4  11  21  39  59  89 125 164 213 261 324 377
#     4  11  25  39  60  89 126 166 207 257 319 384
#     4  10  20  36  61  86 122 158 206 265 317 369
#     4  10  20  40  60  90 120 166 202 272 318 366
#     4  11  20  35  61  90 122 156 206 268 315 374
#     4  10  21  41  58  86 128 165 206 258 328 376
#     4  11  21  34  65  97 120 156 214 265 315 378
#
# _framework density 21.865226
#
# number of rings (size 3 to 8) (size 9 to 14) (size 15 to 20)
#    0.000    1.385    4.615    4.615    8.615    0.000 
#    2.769    0.000    0.000    4.154    0.000    0.000 
#    0.000    0.000    0.000    0.000    0.000    0.000 
#
# Total GULP energy -289977.606893 kJ/mol
# GULP energy per Si atom -5576.492440 kJ/mol
# Density = 2.181546 g / cm^3
# Si number density = 21.865226 Si / 1000 Ang^3
#
#
#
# Elastic Constant Matrix: (Units=GPa)
#
#
# Indices 1 2 3 4 5 6 
#
# 1 123.6913 17.2641 -6.1567 0.0000 0.0000 0.0000
# 2 17.2641 124.2161 9.2597 0.0000 0.0000 0.0000
# 3 -6.1567 9.2597 39.9139 0.0000 0.0000 0.0000
# 4 0.0000 0.0000 0.0000 342.5658 0.0000 0.0000
# 5 0.0000 0.0000 0.0000 0.0000 5.1693 0.0000
# 6 0.0000 0.0000 0.0000 0.0000 0.0000 26.3281
#
#
#
# Elastic Compliance Matrix: (Units=1/GPa)
#
#
# Indices 1 2 3 4 5 6 
#
# 1 0.008342 -0.001277 0.001583 0.000000 0.000000 0.000000
# 2 -0.001277 0.008388 -0.002143 0.000000 0.000000 0.000000
# 3 0.001583 -0.002143 0.025795 0.000000 0.000000 0.000000
# 4 0.000000 0.000000 0.000000 0.002919 0.000000 0.000000
# 5 0.000000 0.000000 0.000000 0.000000 0.193449 0.000000
# 6 0.000000 0.000000 0.000000 0.000000 0.000000 0.037982
#
#
# Mechanical properties :
#
#
# Convention : Reuss Voigt Hill
#
# Bulk Modulus (GPa) = 25.73987 36.50618 31.12303
# Shear Modulus (GPa) = 17.03578 92.64293 54.83936
#
# Velocity S-wave (km/s) = 2.79431 6.51628 5.01349
# Velocity P-wave (km/s) = 4.71259 8.56436 6.91219
#
# Compressibility (1/GPa) = 0.03885023
#
# Stress axis : x y z
#
# Youngs Moduli (GPa) = 119.87924 119.22124 38.76679
#
# Poissons Ratio (x) = 0.15229 -0.06137
# Poissons Ratio (y) = 0.15313 0.08307
# Poissons Ratio (z) = -0.18977 0.25548
#
# Static dielectric constant tensor:
#      x y z
#    x 1.910800 0.000000 0.000000 
#    y 0.000000 1.310340 0.000000 
#    z 0.000000 0.000000 1.840660 
# 
# From -- ./inp_files/33009.got.cif
#   From: 2010.05.17/outbox.cif.g08.bks.cpg/sg68_17_cif.got.tgz:33009.got - 2010.06.03 18:57:09.
