data_PCOD9506392
_publ_section_title
;
Structure prediction by ZEFSAII (Michael W. Deem and Ramdas Pophale) SiO2 
 PCOD9506392
Probable space group: C C C A
;
_chemical_formula_sum "Si O2"
_cell_formula_units_Z 88
_cell_length_a 10.313922
_cell_length_b 15.774191
_cell_length_c 27.713412
_cell_angle_alpha 90.000000
_cell_angle_beta 90.000000
_cell_angle_gamma 90.000000
_cell_volume 4508.799633
_symmetry_space_group_name_H-M "C C C A"
_symmetry_group_IT_number 68
_space_group.IT_coordinate_system_code '2'
_symmetry_cell_setting 'orthorhombic'
loop_
_space_group_symop_operation_xyz
x,y,z
-x,1/2-y,z
x,1/2-y,1/2-z
-x,y,1/2-z
-x,-y,-z
x,1/2+y,-z
-x,1/2+y,1/2+z
x,-y,1/2+z
1/2+x,1/2+y,z
1/2-x,-y,z
1/2+x,-y,1/2-z
1/2-x,1/2+y,1/2-z
1/2-x,1/2-y,-z
1/2+x,y,-z
1/2-x,y,1/2+z
1/2+x,1/2-y,1/2+z
loop_
_atom_site_type_symbol
_atom_site_label
_atom_site_fract_x
_atom_site_fract_y
_atom_site_fract_z
Si Si1 0.365372 0.560713 0.087898
Si Si2 0.121603 0.053942 0.580942
Si Si3 0.124249 0.808733 0.995762
Si Si4 0.458508 0.336913 0.333413
Si Si5 0.256968 0.093512 0.307922
Si Si6 0.713268 0.250000 0.250000
O O1 0.250000 0.500000 0.069370
O O2 0.496971 0.507301 0.083718
O O3 0.373004 0.642852 0.055066
O O4 0.323357 0.584301 0.142461
O O5 0.114540 0.120354 0.537311
O O6 0.122966 0.105325 0.631105
O O7 0.250000 0.000000 0.574923
O O8 0.000000 0.750000 0.999063
O O9 0.250000 0.750000 0.000000
O O10 0.500000 0.250000 0.360270
O O11 0.591480 0.384828 0.319118
O O12 0.376726 0.301775 0.288089
O O13 0.211726 0.175234 0.277658
O O14 0.250000 0.000000 0.284161
#
# Coordination Sequence:
#
# PCOD9506392 Si02
#       6
#    16  16  16  16  16   8
#     4  11  22  43  66  92 132 175 217 269 330 401
#     4  12  24  41  65  98 131 174 219 273 327 399
#     4  12  26  41  65  99 132 174 219 271 330 395
#     4  10  20  39  64  96 126 171 219 271 325 397
#     4  10  19  38  68  97 128 174 221 271 340 388
#     4  10  23  38  70 101 134 169 230 285 326 415
#
# _framework density 19.517389000000001
#
# number of rings (size 3 to 8) (size 9 to 14) (size 15 to 20)
#    0.000    1.091    3.636    6.273    5.091    0.727 
#    0.000    0.000    0.000    1.091    0.000    0.000 
#    0.000    0.000    0.000    0.000    0.000    0.000 
#
# Total GULP energy -245753.739222 kJ/mol
# GULP energy per Si atom -5585.312255 kJ/mol
# Density = 1.947297 g / cm^3
# Si number density = 19.517389 Si / 1000 Ang^3
#
#
#
# Elastic Constant Matrix: (Units=GPa)
#
#
# Indices 1 2 3 4 5 6 
#
# 1 130.0450 78.1548 36.5127 0.0000 0.0000 0.0000
# 2 78.1548 177.0622 68.7408 0.0000 0.0000 0.0000
# 3 36.5127 68.7408 90.2562 0.0000 0.0000 0.0000
# 4 0.0000 0.0000 0.0000 79.6931 0.0000 0.0000
# 5 0.0000 0.0000 0.0000 0.0000 37.2490 0.0000
# 6 0.0000 0.0000 0.0000 0.0000 0.0000 54.2226
#
#
#
# Elastic Compliance Matrix: (Units=1/GPa)
#
#
# Indices 1 2 3 4 5 6 
#
# 1 0.010532 -0.004252 -0.001022 0.000000 0.000000 0.000000
# 2 -0.004252 0.009735 -0.005694 0.000000 0.000000 0.000000
# 3 -0.001022 -0.005694 0.015830 0.000000 0.000000 0.000000
# 4 0.000000 0.000000 0.000000 0.012548 0.000000 0.000000
# 5 0.000000 0.000000 0.000000 0.000000 0.026846 0.000000
# 6 0.000000 0.000000 0.000000 0.000000 0.000000 0.018442
#
#
# Mechanical properties :
#
#
# Convention : Reuss Voigt Hill
#
# Bulk Modulus (GPa) = 70.62143 84.90890 77.76517
# Shear Modulus (GPa) = 41.46213 48.49661 44.97937
#
# Velocity S-wave (km/s) = 4.61409 4.99017 4.80581
# Velocity P-wave (km/s) = 8.04045 8.76363 8.40981
#
# Compressibility (1/GPa) = 0.01416001
#
# Stress axis : x y z
#
# Youngs Moduli (GPa) = 94.94869 102.71922 63.17039
#
# Poissons Ratio (x) = 0.43675 0.06458
# Poissons Ratio (y) = 0.40371 0.35972
# Poissons Ratio (z) = 0.09707 0.58493
#
# Static dielectric constant tensor:
#      x y z
#    x 1.656220 0.000000 0.000000 
#    y 0.000000 1.671270 0.000000 
#    z 0.000000 0.000000 1.713270 
# 
# From -- ./inp_files/50158.got.cif
#   From: 2010.05.17/outbox.cif.g08.bks.cpg/sg68_26_cif.got.tgz:50158.got - 2010.06.03 18:57:09.
