data_PCOD9506119
_publ_section_title
;
Structure prediction by ZEFSAII (Michael W. Deem and Ramdas Pophale) SiO2 
 PCOD9506119
Probable space group: C C C A
;
_chemical_formula_sum "Si O2"
_cell_formula_units_Z 88
_cell_length_a 11.775619
_cell_length_b 13.821754
_cell_length_c 25.726317
_cell_angle_alpha 90.000000
_cell_angle_beta 90.000000
_cell_angle_gamma 90.000000
_cell_volume 4187.207869
_symmetry_space_group_name_H-M "C C C A"
_symmetry_group_IT_number 68
_space_group.IT_coordinate_system_code '2'
_symmetry_cell_setting 'orthorhombic'
loop_
_space_group_symop_operation_xyz
x,y,z
-x,1/2-y,z
x,1/2-y,1/2-z
-x,y,1/2-z
-x,-y,-z
x,1/2+y,-z
-x,1/2+y,1/2+z
x,-y,1/2+z
1/2+x,1/2+y,z
1/2-x,-y,z
1/2+x,-y,1/2-z
1/2-x,1/2+y,1/2-z
1/2-x,1/2-y,-z
1/2+x,y,-z
1/2-x,y,1/2+z
1/2+x,1/2-y,1/2+z
loop_
_atom_site_type_symbol
_atom_site_label
_atom_site_fract_x
_atom_site_fract_y
_atom_site_fract_z
Si Si1 0.739631 0.834168 0.143046
Si Si2 0.813796 0.250000 0.750000
Si Si3 0.564744 0.502597 0.858527
Si Si4 0.500000 0.250000 0.512013
Si Si5 0.073647 0.059882 0.543115
Si Si6 0.000000 0.915308 0.250000
Si Si7 0.724847 0.687959 0.051467
O O1 0.744615 0.785639 0.199871
O O2 0.841244 0.911853 0.135906
O O3 0.757452 0.749413 0.101656
O O4 0.627562 0.899713 0.134661
O O5 0.895657 0.341904 0.738218
O O6 0.469754 0.522082 0.901655
O O7 0.521211 0.518910 0.800161
O O8 0.463663 0.332400 0.472038
O O9 0.411310 0.193406 0.548887
O O10 0.208472 0.087886 0.545308
O O11 0.000000 0.000000 0.500000
O O12 0.750000 0.750000 0.000000
#
# Coordination Sequence:
#
# PCOD9506119 Si02
#       7
#    16   8  16   8  16   8  16
#     4  10  20  35  57  82 114 152 194 243 301 364
#     4   9  18  34  54  81 108 146 194 245 304 361
#     4  10  19  34  57  85 113 147 194 249 301 357
#     4  10  22  38  56  82 120 158 196 240 298 362
#     4  11  22  36  58  87 118 154 197 244 298 359
#     4   9  18  32  56  81 108 142 194 255 302 354
#     4  10  20  36  56  82 117 154 192 239 293 357
#
# _framework density 21.016393000000001
#
# number of rings (size 3 to 8) (size 9 to 14) (size 15 to 20)
#    0.000    2.000    0.000    5.455    0.000    5.091 
#    0.000    3.636    0.000    6.545    0.000    0.000 
#    0.000    0.000    0.000    0.000    0.000    0.000 
#
# Total GULP energy -245022.244286 kJ/mol
# GULP energy per Si atom -5568.687370 kJ/mol
# Density = 2.096856 g / cm^3
# Si number density = 21.016393 Si / 1000 Ang^3
#
#
#
# Elastic Constant Matrix: (Units=GPa)
#
#
# Indices 1 2 3 4 5 6 
#
# 1 90.6124 50.0541 45.2968 0.0000 0.0000 0.0000
# 2 50.0541 142.8818 55.6863 0.0000 0.0000 0.0000
# 3 45.2968 55.6863 112.1440 0.0000 0.0000 0.0000
# 4 0.0000 0.0000 0.0000 29.9425 0.0000 0.0000
# 5 0.0000 0.0000 0.0000 0.0000 30.0858 0.0000
# 6 0.0000 0.0000 0.0000 0.0000 0.0000 30.6793
#
#
#
# Elastic Compliance Matrix: (Units=1/GPa)
#
#
# Indices 1 2 3 4 5 6 
#
# 1 0.015215 -0.003639 -0.004339 0.000000 0.000000 0.000000
# 2 -0.003639 0.009549 -0.003272 0.000000 0.000000 0.000000
# 3 -0.004339 -0.003272 0.012294 0.000000 0.000000 0.000000
# 4 0.000000 0.000000 0.000000 0.033397 0.000000 0.000000
# 5 0.000000 0.000000 0.000000 0.000000 0.033238 0.000000
# 6 0.000000 0.000000 0.000000 0.000000 0.000000 0.032595
#
#
# Mechanical properties :
#
#
# Convention : Reuss Voigt Hill
#
# Bulk Modulus (GPa) = 68.68508 71.96808 70.32658
# Shear Modulus (GPa) = 30.55477 31.11493 30.83485
#
# Velocity S-wave (km/s) = 3.81708 3.85191 3.83454
# Velocity P-wave (km/s) = 7.22353 7.35534 7.28974
#
# Compressibility (1/GPa) = 0.01455920
#
# Stress axis : x y z
#
# Youngs Moduli (GPa) = 65.72394 104.72582 81.34019
#
# Poissons Ratio (x) = 0.38112 0.35290
# Poissons Ratio (y) = 0.23919 0.26611
# Poissons Ratio (z) = 0.28515 0.34262
#
# Static dielectric constant tensor:
#      x y z
#    x 1.976290 0.000000 0.000000 
#    y 0.000000 1.753670 0.000000 
#    z 0.000000 0.000000 1.706560 
# 
# From -- ./inp_files/44291.got.cif
#   From: 2010.05.17/outbox.cif.g08.bks.cpg/sg68_23_cif.got.tgz:44291.got - 2010.06.03 18:57:09.
