data_PCOD9506542
_publ_section_title
;
Structure prediction by ZEFSAII (Michael W. Deem and Ramdas Pophale) SiO2 
 PCOD9506542
Probable space group: C C C A
;
_chemical_formula_sum "Si O2"
_cell_formula_units_Z 68
_cell_length_a 8.804879
_cell_length_b 14.225243
_cell_length_c 30.329711
_cell_angle_alpha 90.000000
_cell_angle_beta 90.000000
_cell_angle_gamma 90.000000
_cell_volume 3798.843112
_symmetry_space_group_name_H-M "C C C A"
_symmetry_group_IT_number 68
_space_group.IT_coordinate_system_code '2'
_symmetry_cell_setting 'orthorhombic'
loop_
_space_group_symop_operation_xyz
x,y,z
-x,1/2-y,z
x,1/2-y,1/2-z
-x,y,1/2-z
-x,-y,-z
x,1/2+y,-z
-x,1/2+y,1/2+z
x,-y,1/2+z
1/2+x,1/2+y,z
1/2-x,-y,z
1/2+x,-y,1/2-z
1/2-x,1/2+y,1/2-z
1/2-x,1/2-y,-z
1/2+x,y,-z
1/2-x,y,1/2+z
1/2+x,1/2-y,1/2+z
loop_
_atom_site_type_symbol
_atom_site_label
_atom_site_fract_x
_atom_site_fract_y
_atom_site_fract_z
Si Si1 0.053601 0.354646 0.447793
Si Si2 0.084766 0.850243 0.038587
Si Si3 0.097981 0.561478 0.209082
Si Si4 0.930111 0.487045 0.619033
Si Si5 0.000000 0.250000 0.750000
O O1 0.232463 0.348891 0.459367
O O2 0.021929 0.416950 0.405047
O O3 0.000000 0.250000 0.439132
O O4 0.966742 0.390507 0.491362
O O5 0.000000 0.750000 0.041164
O O6 0.041046 0.910655 0.080940
O O7 0.250000 0.500000 0.208056
O O8 0.000000 0.522972 0.250000
O O9 0.013044 0.543034 0.163261
O O10 0.098356 0.674786 0.220674
O O11 0.750000 0.500000 0.627326
#
# Coordination Sequence:
#
# PCOD9506542 Si02
#       5
#    16  16  16  16   4
#     4  10  20  36  51  83 117 156 204 249 299 362
#     4  10  20  33  56  78 117 160 198 253 299 355
#     4  10  22  43  67  93 125 159 201 255 310 376
#     4  10  22  38  58  85 120 155 202 253 300 370
#     4   8  24  44  70  94 128 156 202 252 320 366
#
# _framework density 17.900186000000001
#
# number of rings (size 3 to 8) (size 9 to 14) (size 15 to 20)
#    0.706    1.412    0.000    4.235    1.647    3.765 
#    4.235    0.588    0.000    0.000    0.000    0.000 
#    0.000    0.000    0.000    0.000    0.000    0.000 
#
# Total GULP energy -189309.708044 kJ/mol
# GULP energy per Si atom -5567.932590 kJ/mol
# Density = 1.785944 g / cm^3
# Si number density = 17.900186 Si / 1000 Ang^3
#
#
#
# Elastic Constant Matrix: (Units=GPa)
#
#
# Indices 1 2 3 4 5 6 
#
# 1 46.6001 48.1978 54.2596 0.0000 0.0000 0.0000
# 2 48.1978 123.4833 76.1295 0.0000 0.0000 0.0000
# 3 54.2596 76.1295 161.4387 0.0000 0.0000 0.0000
# 4 0.0000 0.0000 0.0000 -80.0224 0.0000 0.0000
# 5 0.0000 0.0000 0.0000 0.0000 -105.7129 0.0000
# 6 0.0000 0.0000 0.0000 0.0000 0.0000 20.0653
#
#
#
# Elastic Compliance Matrix: (Units=1/GPa)
#
#
# Indices 1 2 3 4 5 6 
#
# 1 0.044393 -0.011461 -0.009516 0.000000 0.000000 0.000000
# 2 -0.011461 0.014376 -0.002928 0.000000 0.000000 0.000000
# 3 -0.009516 -0.002928 0.010773 0.000000 0.000000 0.000000
# 4 0.000000 0.000000 0.000000 -0.012496 0.000000 0.000000
# 5 0.000000 0.000000 0.000000 0.000000 -0.009460 0.000000
# 6 0.000000 0.000000 0.000000 0.000000 0.000000 0.049837
#
#
# Mechanical properties :
#
#
# Convention : Reuss Voigt Hill
#
# Bulk Modulus (GPa) = 46.01054 76.52176 61.26615
# Shear Modulus (GPa) = 32.79190 -22.93834 4.92678
#
# Velocity S-wave (km/s) = 4.28475 -3.58363 1.66082
# Velocity P-wave (km/s) = 7.08791 5.07137 6.16268
#
# Compressibility (1/GPa) = 0.02173415
#
# Stress axis : x y z
#
# Youngs Moduli (GPa) = 22.52617 69.55830 92.82310
#
# Poissons Ratio (x) = 0.79718 0.88330
# Poissons Ratio (y) = 0.25816 0.27175
# Poissons Ratio (z) = 0.21436 0.20364
#
# Static dielectric constant tensor:
#      x y z
#    x 1.639130 0.000000 0.000000 
#    y 0.000000 1.647290 0.000000 
#    z 0.000000 0.000000 1.587720 
# 
# From -- ./inp_files/48872.got.cif
#   From: 2010.05.17/outbox.cif.g08.bks.cpg/sg68_25_cif.got.tgz:48872.got - 2010.06.03 18:57:09.
