data_PCOD9506237
_publ_section_title
;
Structure prediction by ZEFSAII (Michael W. Deem and Ramdas Pophale) SiO2 
 PCOD9506237
Probable space group: C C C A
;
_chemical_formula_sum "Si O2"
_cell_formula_units_Z 72
_cell_length_a 7.642445
_cell_length_b 22.886830
_cell_length_c 17.851304
_cell_angle_alpha 90.000000
_cell_angle_beta 90.000000
_cell_angle_gamma 90.000000
_cell_volume 3122.395494
_symmetry_space_group_name_H-M "C C C A"
_symmetry_group_IT_number 68
_space_group.IT_coordinate_system_code '2'
_symmetry_cell_setting 'orthorhombic'
loop_
_space_group_symop_operation_xyz
x,y,z
-x,1/2-y,z
x,1/2-y,1/2-z
-x,y,1/2-z
-x,-y,-z
x,1/2+y,-z
-x,1/2+y,1/2+z
x,-y,1/2+z
1/2+x,1/2+y,z
1/2-x,-y,z
1/2+x,-y,1/2-z
1/2-x,1/2+y,1/2-z
1/2-x,1/2-y,-z
1/2+x,y,-z
1/2-x,y,1/2+z
1/2+x,1/2-y,1/2+z
loop_
_atom_site_type_symbol
_atom_site_label
_atom_site_fract_x
_atom_site_fract_y
_atom_site_fract_z
Si Si1 0.556868 0.397766 0.113260
Si Si2 0.334058 0.716657 0.828302
Si Si3 0.547275 0.015744 0.586041
Si Si4 0.673382 0.869581 0.046468
Si Si5 0.000000 0.250000 0.421282
O O1 0.619167 0.351561 0.174386
O O2 0.552648 0.466335 0.133410
O O3 0.363493 0.376393 0.084558
O O4 0.676071 0.391825 0.038887
O O5 0.500000 0.750000 0.865703
O O6 0.313124 0.750000 0.750000
O O7 0.155982 0.723574 0.872438
O O8 0.546700 0.085646 0.592059
O O9 0.500000 0.000000 0.500000
O O10 0.750000 0.000000 0.596255
O O11 0.594916 0.804843 0.040149
#
# Coordination Sequence:
#
# PCOD9506237 Si02
#       5
#    16  16  16  16   8
#     4  10  19  36  57  87 126 159 200 246 303 369
#     4  11  24  41  59  84 113 161 208 250 299 355
#     4   8  16  31  52  83 122 158 188 234 294 363
#     4  10  20  32  57  93 127 157 191 247 314 370
#     4  12  23  38  60  90 119 150 198 256 312 368
#
# _framework density 23.059217
#
# number of rings (size 3 to 8) (size 9 to 14) (size 15 to 20)
#    0.000    2.000    2.222    1.667    1.556    3.556 
#    0.000    0.000    0.000    0.000   23.111    0.000 
#    0.000    0.000    0.000    0.000    0.000    0.000 
#
# Total GULP energy -200832.447441 kJ/mol
# GULP energy per Si atom -5578.679096 kJ/mol
# Density = 2.300673 g / cm^3
# Si number density = 23.059217 Si / 1000 Ang^3
#
#
#
# Elastic Constant Matrix: (Units=GPa)
#
#
# Indices 1 2 3 4 5 6 
#
# 1 104.2962 14.5176 6.6745 0.0000 0.0000 0.0000
# 2 14.5176 160.8329 19.4248 0.0000 0.0000 0.0000
# 3 6.6745 19.4248 25.6487 0.0000 0.0000 0.0000
# 4 0.0000 0.0000 0.0000 26.3066 0.0000 0.0000
# 5 0.0000 0.0000 0.0000 0.0000 31.6903 0.0000
# 6 0.0000 0.0000 0.0000 0.0000 0.0000 30.3685
#
#
#
# Elastic Compliance Matrix: (Units=1/GPa)
#
#
# Indices 1 2 3 4 5 6 
#
# 1 0.009809 -0.000635 -0.002071 0.000000 0.000000 0.000000
# 2 -0.000635 0.006885 -0.005049 0.000000 0.000000 0.000000
# 3 -0.002071 -0.005049 0.043351 0.000000 0.000000 0.000000
# 4 0.000000 0.000000 0.000000 0.038013 0.000000 0.000000
# 5 0.000000 0.000000 0.000000 0.000000 0.031555 0.000000
# 6 0.000000 0.000000 0.000000 0.000000 0.000000 0.032929
#
#
# Mechanical properties :
#
#
# Convention : Reuss Voigt Hill
#
# Bulk Modulus (GPa) = 22.45485 41.33462 31.89473
# Shear Modulus (GPa) = 25.92042 34.35046 30.13544
#
# Velocity S-wave (km/s) = 3.35637 3.86380 3.61899
# Velocity P-wave (km/s) = 4.97788 6.15383 5.59683
#
# Compressibility (1/GPa) = 0.04453381
#
# Stress axis : x y z
#
# Youngs Moduli (GPa) = 101.94654 145.24867 23.06750
#
# Poissons Ratio (x) = 0.09227 0.04778
# Poissons Ratio (y) = 0.06476 0.11646
# Poissons Ratio (z) = 0.21118 0.73333
#
# Static dielectric constant tensor:
#      x y z
#    x 1.914400 0.000000 0.000000 
#    y 0.000000 1.999570 0.000000 
#    z 0.000000 0.000000 1.853370 
# 
# From -- ./inp_files/28152.got.cif
#   From: 2010.05.17/outbox.cif.g08.bks.cpg/sg68_15_cif.got.tgz:28152.got - 2010.06.03 18:57:09.
