data_PCOD9506457
_publ_section_title
;
Structure prediction by ZEFSAII (Michael W. Deem and Ramdas Pophale) SiO2 
 PCOD9506457
Probable space group: C C C A
;
_chemical_formula_sum "Si O2"
_cell_formula_units_Z 72
_cell_length_a 9.053897
_cell_length_b 22.416788
_cell_length_c 14.534681
_cell_angle_alpha 90.000000
_cell_angle_beta 90.000000
_cell_angle_gamma 90.000000
_cell_volume 2949.948531
_symmetry_space_group_name_H-M "C C C A"
_symmetry_group_IT_number 68
_space_group.IT_coordinate_system_code '2'
_symmetry_cell_setting 'orthorhombic'
loop_
_space_group_symop_operation_xyz
x,y,z
-x,1/2-y,z
x,1/2-y,1/2-z
-x,y,1/2-z
-x,-y,-z
x,1/2+y,-z
-x,1/2+y,1/2+z
x,-y,1/2+z
1/2+x,1/2+y,z
1/2-x,-y,z
1/2+x,-y,1/2-z
1/2-x,1/2+y,1/2-z
1/2-x,1/2-y,-z
1/2+x,y,-z
1/2-x,y,1/2+z
1/2+x,1/2-y,1/2+z
loop_
_atom_site_type_symbol
_atom_site_label
_atom_site_fract_x
_atom_site_fract_y
_atom_site_fract_z
Si Si1 0.500000 0.111678 0.750000
Si Si2 0.265985 0.801379 0.187983
Si Si3 0.000000 0.250000 0.936456
Si Si4 0.651532 0.441289 0.915281
Si Si5 0.065129 0.615764 0.043563
Si Si6 0.000000 0.377151 0.750000
O O1 0.600479 0.151356 0.819929
O O2 0.392359 0.071290 0.810690
O O3 0.332346 0.750000 0.250000
O O4 0.155219 0.768650 0.115622
O O5 0.144541 0.836523 0.247948
O O6 0.967829 0.314892 0.979612
O O7 0.750000 0.500000 0.923571
O O8 0.759724 0.390048 0.953175
O O9 0.506163 0.431750 0.975133
O O10 0.006335 0.596760 0.146693
#
# Coordination Sequence:
#
# PCOD9506457 Si02
#       6
#     8  16   8  16  16   8
#     4  12  27  45  72 111 145 201 277 322 380 456
#     4  11  17  38  70 107 149 195 244 309 377 457
#     4  10  21  42  78 107 156 204 240 313 396 463
#     4  12  29  52  72 110 153 201 262 325 377 457
#     4  11  25  46  75 111 152 202 257 308 392 457
#     4  10  19  41  72  99 153 202 241 293 380 468
#
# _framework density 24.407205000000001
#
# number of rings (size 3 to 8) (size 9 to 14) (size 15 to 20)
#    0.000    0.889    6.667    1.000    6.222    1.778 
#    4.000    2.222    0.000    0.000    0.000    0.000 
#    0.000    0.000    0.000    0.000    0.000    0.000 
#
# Total GULP energy -200589.405411 kJ/mol
# GULP energy per Si atom -5571.927928 kJ/mol
# Density = 2.435165 g / cm^3
# Si number density = 24.407205 Si / 1000 Ang^3
#
#
#
# Elastic Constant Matrix: (Units=GPa)
#
#
# Indices 1 2 3 4 5 6 
#
# 1 113.0147 36.7858 16.3383 0.0000 0.0000 0.0000
# 2 36.7858 106.5849 30.5047 0.0000 0.0000 0.0000
# 3 16.3383 30.5047 85.9651 0.0000 0.0000 0.0000
# 4 0.0000 0.0000 0.0000 9.8507 0.0000 0.0000
# 5 0.0000 0.0000 0.0000 0.0000 30.9422 0.0000
# 6 0.0000 0.0000 0.0000 0.0000 0.0000 43.4879
#
#
#
# Elastic Compliance Matrix: (Units=1/GPa)
#
#
# Indices 1 2 3 4 5 6 
#
# 1 0.010012 -0.003240 -0.000753 0.000000 0.000000 0.000000
# 2 -0.003240 0.011491 -0.003462 0.000000 0.000000 0.000000
# 3 -0.000753 -0.003462 0.013004 0.000000 0.000000 0.000000
# 4 0.000000 0.000000 0.000000 0.101516 0.000000 0.000000
# 5 0.000000 0.000000 0.000000 0.000000 0.032318 0.000000
# 6 0.000000 0.000000 0.000000 0.000000 0.000000 0.022995
#
#
# Mechanical properties :
#
#
# Convention : Reuss Voigt Hill
#
# Bulk Modulus (GPa) = 51.02707 52.53581 51.78144
# Shear Modulus (GPa) = 23.49862 31.65189 27.57526
#
# Velocity S-wave (km/s) = 3.10623 3.60505 3.36490
# Velocity P-wave (km/s) = 5.81522 6.23699 6.02979
#
# Compressibility (1/GPa) = 0.01959744
#
# Stress axis : x y z
#
# Youngs Moduli (GPa) = 99.88166 87.02338 76.89813
#
# Poissons Ratio (x) = 0.28194 0.05792
# Poissons Ratio (y) = 0.32360 0.26621
# Poissons Ratio (z) = 0.07523 0.30126
#
# Static dielectric constant tensor:
#      x y z
#    x 1.981350 0.000000 0.000000 
#    y 0.000000 1.990630 0.000000 
#    z 0.000000 0.000000 2.229210 
# 
# From -- ./inp_files/19504.got.cif
#   From: 2010.05.17/outbox.cif.g08.bks.cpg/sg68_10_cif.got.tgz:19504.got - 2010.06.03 18:57:09.
