data_PCOD9506198
_publ_section_title
;
Structure prediction by ZEFSAII (Michael W. Deem and Ramdas Pophale) SiO2 
 PCOD9506198
Probable space group: C C C A
;
_chemical_formula_sum "Si O2"
_cell_formula_units_Z 112
_cell_length_a 15.189256
_cell_length_b 29.763735
_cell_length_c 10.801320
_cell_angle_alpha 90.000000
_cell_angle_beta 90.000000
_cell_angle_gamma 90.000000
_cell_volume 4883.157854
_symmetry_space_group_name_H-M "C C C A"
_symmetry_group_IT_number 68
_space_group.IT_coordinate_system_code '2'
_symmetry_cell_setting 'orthorhombic'
loop_
_space_group_symop_operation_xyz
x,y,z
-x,1/2-y,z
x,1/2-y,1/2-z
-x,y,1/2-z
-x,-y,-z
x,1/2+y,-z
-x,1/2+y,1/2+z
x,-y,1/2+z
1/2+x,1/2+y,z
1/2-x,-y,z
1/2+x,-y,1/2-z
1/2-x,1/2+y,1/2-z
1/2-x,1/2-y,-z
1/2+x,y,-z
1/2-x,y,1/2+z
1/2+x,1/2-y,1/2+z
loop_
_atom_site_type_symbol
_atom_site_label
_atom_site_fract_x
_atom_site_fract_y
_atom_site_fract_z
Si Si1 0.018455 0.036649 0.393510
Si Si2 0.195350 0.410528 0.091529
Si Si3 0.452040 0.683505 0.625209
Si Si4 0.377207 0.897997 0.983649
Si Si5 0.701704 0.165463 0.804051
Si Si6 0.857399 0.172695 0.955900
Si Si7 0.395821 0.255466 0.914298
O O1 0.952556 0.076308 0.440306
O O2 0.000000 0.023441 0.250000
O O3 0.119642 0.053201 0.390705
O O4 0.000000 0.000000 0.500000
O O5 0.294397 0.427183 0.064723
O O6 0.197976 0.372191 0.198369
O O7 0.163288 0.379186 0.979534
O O8 0.500000 0.698238 0.750000
O O9 0.410386 0.633775 0.628154
O O10 0.538434 0.675700 0.542046
O O11 0.395564 0.719905 0.551204
O O12 0.335168 0.862138 0.077569
O O13 0.800669 0.182376 0.833513
O O14 0.641227 0.209475 0.814482
O O15 0.837103 0.210982 0.058291
O O16 0.500000 0.250000 0.888364
#
# Coordination Sequence:
#
# PCOD9506198 Si02
#       7
#    16  16  16  16  16  16  16
#     4  12  27  52  78 111 145 184 230 298 372 448
#     4  11  23  43  72  98 135 188 233 292 367 434
#     4  10  19  35  59  90 133 186 234 292 354 421
#     4  10  22  43  69 103 134 174 234 285 354 445
#     4  10  20  38  63  91 135 187 232 292 357 424
#     4  10  20  35  58  95 133 179 243 293 349 421
#     4   9  20  34  52  90 136 184 248 305 352 412
#
# _framework density 22.935977999999999
#
# number of rings (size 3 to 8) (size 9 to 14) (size 15 to 20)
#    0.000    1.714    2.857    1.286    0.000    4.286 
#    5.143    5.000    0.000    0.000    0.000    0.000 
#    0.000    0.000    0.000    0.000    0.000    0.000 
#
# Total GULP energy -311941.231784 kJ/mol
# GULP energy per Si atom -5570.379139 kJ/mol
# Density = 2.288377 g / cm^3
# Si number density = 22.935978 Si / 1000 Ang^3
#
#
#
# Elastic Constant Matrix: (Units=GPa)
#
#
# Indices 1 2 3 4 5 6 
#
# 1 108.5803 26.2397 11.0171 0.0000 0.0000 0.0000
# 2 26.2397 61.9378 29.1727 0.0000 0.0000 0.0000
# 3 11.0171 29.1727 87.6148 0.0000 0.0000 0.0000
# 4 0.0000 0.0000 0.0000 36.0868 0.0000 0.0000
# 5 0.0000 0.0000 0.0000 0.0000 17.2943 0.0000
# 6 0.0000 0.0000 0.0000 0.0000 0.0000 18.4157
#
#
#
# Elastic Compliance Matrix: (Units=1/GPa)
#
#
# Indices 1 2 3 4 5 6 
#
# 1 0.010263 -0.004436 0.000186 0.000000 0.000000 0.000000
# 2 -0.004436 0.021065 -0.006456 0.000000 0.000000 0.000000
# 3 0.000186 -0.006456 0.013540 0.000000 0.000000 0.000000
# 4 0.000000 0.000000 0.000000 0.027711 0.000000 0.000000
# 5 0.000000 0.000000 0.000000 0.000000 0.057823 0.000000
# 6 0.000000 0.000000 0.000000 0.000000 0.000000 0.054301
#
#
# Mechanical properties :
#
#
# Convention : Reuss Voigt Hill
#
# Bulk Modulus (GPa) = 42.63115 43.44355 43.03735
# Shear Modulus (GPa) = 23.37184 27.13960 25.25572
#
# Velocity S-wave (km/s) = 3.19565 3.44361 3.32194
# Velocity P-wave (km/s) = 5.67834 5.89861 5.78952
#
# Compressibility (1/GPa) = 0.02345703
#
# Stress axis : x y z
#
# Youngs Moduli (GPa) = 97.43958 47.47160 73.85597
#
# Poissons Ratio (x) = 0.21056 -0.01377
# Poissons Ratio (y) = 0.43220 0.47683
# Poissons Ratio (z) = -0.01816 0.30649
#
# Static dielectric constant tensor:
#      x y z
#    x 1.982290 0.000000 0.000000 
#    y 0.000000 1.902960 0.000000 
#    z 0.000000 0.000000 2.002460 
# 
# From -- ./inp_files/13609.got.cif
#   From: 2010.05.17/outbox.cif.g08.bks.cpg/sg68_7_cif.got.tgz:13609.got - 2010.06.03 18:57:09.
