data_PCOD9506371
_publ_section_title
;
Structure prediction by ZEFSAII (Michael W. Deem and Ramdas Pophale) SiO2 
 PCOD9506371
Probable space group: C C C A
;
_chemical_formula_sum "Si O2"
_cell_formula_units_Z 88
_cell_length_a 26.258711
_cell_length_b 12.868577
_cell_length_c 13.267540
_cell_angle_alpha 90.000000
_cell_angle_beta 90.000000
_cell_angle_gamma 90.000000
_cell_volume 4483.264219
_symmetry_space_group_name_H-M "C C C A"
_symmetry_group_IT_number 68
_space_group.IT_coordinate_system_code '2'
_symmetry_cell_setting 'orthorhombic'
loop_
_space_group_symop_operation_xyz
x,y,z
-x,1/2-y,z
x,1/2-y,1/2-z
-x,y,1/2-z
-x,-y,-z
x,1/2+y,-z
-x,1/2+y,1/2+z
x,-y,1/2+z
1/2+x,1/2+y,z
1/2-x,-y,z
1/2+x,-y,1/2-z
1/2-x,1/2+y,1/2-z
1/2-x,1/2-y,-z
1/2+x,y,-z
1/2-x,y,1/2+z
1/2+x,1/2-y,1/2+z
loop_
_atom_site_type_symbol
_atom_site_label
_atom_site_fract_x
_atom_site_fract_y
_atom_site_fract_z
Si Si1 0.211444 0.784387 0.912171
Si Si2 0.448004 0.368824 0.709755
Si Si3 0.785265 0.750000 0.250000
Si Si4 0.649665 0.376596 0.084628
Si Si5 0.127601 0.387717 0.374400
Si Si6 0.942046 0.229447 0.001459
O O1 0.247577 0.817873 0.820904
O O2 0.175154 0.690748 0.874558
O O3 0.250000 0.750000 0.000000
O O4 0.174510 0.858867 0.974166
O O5 0.449943 0.250000 0.750000
O O6 0.500000 0.420138 0.750000
O O7 0.397832 0.406644 0.765218
O O8 0.445885 0.356684 0.590830
O O9 0.817662 0.677398 0.174131
O O10 0.643791 0.498966 0.092592
O O11 0.595708 0.316725 0.081074
O O12 0.085578 0.330267 0.446763
O O13 0.000000 0.250000 0.969872
#
# Coordination Sequence:
#
# PCOD9506371 Si02
#       6
#    16  16   8  16  16  16
#     4   9  21  40  62  80 120 162 195 257 306 364
#     4   9  15  32  58  88 114 151 200 249 283 345
#     4  10  22  44  59  82 123 164 204 252 316 364
#     4  10  23  41  60  93 124 156 206 253 310 374
#     4  10  20  36  62  92 119 155 208 250 301 364
#     4  10  19  38  63  88 127 160 200 254 298 357
#
# _framework density 19.628556
#
# number of rings (size 3 to 8) (size 9 to 14) (size 15 to 20)
#    0.000    2.364    3.636    0.000    6.364    3.636 
#    9.818    5.909    0.000    0.000    0.000    0.000 
#    0.000    0.000    0.000    0.000    0.000    0.000 
#
# Total GULP energy -244977.580327 kJ/mol
# GULP energy per Si atom -5567.672280 kJ/mol
# Density = 1.958388 g / cm^3
# Si number density = 19.628556 Si / 1000 Ang^3
#
#
#
# Elastic Constant Matrix: (Units=GPa)
#
#
# Indices 1 2 3 4 5 6 
#
# 1 148.5945 42.5828 57.3878 0.0000 0.0000 0.0000
# 2 42.5828 87.1475 32.6323 0.0000 0.0000 0.0000
# 3 57.3878 32.6323 89.8055 0.0000 0.0000 0.0000
# 4 0.0000 0.0000 0.0000 7.3966 0.0000 0.0000
# 5 0.0000 0.0000 0.0000 0.0000 15.4712 0.0000
# 6 0.0000 0.0000 0.0000 0.0000 0.0000 -1.1417
#
#
#
# Elastic Compliance Matrix: (Units=1/GPa)
#
#
# Indices 1 2 3 4 5 6 
#
# 1 0.009465 -0.002732 -0.005056 0.000000 0.000000 0.000000
# 2 -0.002732 0.014070 -0.003367 0.000000 0.000000 0.000000
# 3 -0.005056 -0.003367 0.015589 0.000000 0.000000 0.000000
# 4 0.000000 0.000000 0.000000 0.135198 0.000000 0.000000
# 5 0.000000 0.000000 0.000000 0.000000 0.064636 0.000000
# 6 0.000000 0.000000 0.000000 0.000000 0.000000 -0.875864
#
#
# Mechanical properties :
#
#
# Convention : Reuss Voigt Hill
#
# Bulk Modulus (GPa) = 59.46823 65.63926 62.55374
# Shear Modulus (GPa) = -8.21031 17.20819 4.49894
#
# Velocity S-wave (km/s) = -2.04742 2.96411 1.51559
# Velocity P-wave (km/s) = 4.97728 6.72517 5.91613
#
# Compressibility (1/GPa) = 0.01681570
#
# Stress axis : x y z
#
# Youngs Moduli (GPa) = 105.65078 71.07110 64.14606
#
# Poissons Ratio (x) = 0.19415 0.32431
# Poissons Ratio (y) = 0.28862 0.21598
# Poissons Ratio (z) = 0.53415 0.23930
#
# Static dielectric constant tensor:
#      x y z
#    x 1.828070 0.000000 0.000000 
#    y 0.000000 1.678180 0.000000 
#    z 0.000000 0.000000 1.722120 
# 
# From -- ./inp_files/25968.got.cif
#   From: 2010.05.17/outbox.cif.g08.bks.cpg/sg68_13_cif.got.tgz:25968.got - 2010.06.03 18:57:09.
