data_PCOD9506584
_publ_section_title
;
Structure prediction by ZEFSAII (Michael W. Deem and Ramdas Pophale) SiO2 
 PCOD9506584
Probable space group: C C C A
;
_chemical_formula_sum "Si O2"
_cell_formula_units_Z 128
_cell_length_a 24.764480
_cell_length_b 12.509555
_cell_length_c 21.435064
_cell_angle_alpha 90.000000
_cell_angle_beta 90.000000
_cell_angle_gamma 90.000000
_cell_volume 6640.424735
_symmetry_space_group_name_H-M "C C C A"
_symmetry_group_IT_number 68
_space_group.IT_coordinate_system_code '2'
_symmetry_cell_setting 'orthorhombic'
loop_
_space_group_symop_operation_xyz
x,y,z
-x,1/2-y,z
x,1/2-y,1/2-z
-x,y,1/2-z
-x,-y,-z
x,1/2+y,-z
-x,1/2+y,1/2+z
x,-y,1/2+z
1/2+x,1/2+y,z
1/2-x,-y,z
1/2+x,-y,1/2-z
1/2-x,1/2+y,1/2-z
1/2-x,1/2-y,-z
1/2+x,y,-z
1/2-x,y,1/2+z
1/2+x,1/2-y,1/2+z
loop_
_atom_site_type_symbol
_atom_site_label
_atom_site_fract_x
_atom_site_fract_y
_atom_site_fract_z
Si Si1 0.365002 0.039555 0.369943
Si Si2 0.778571 0.301089 0.813216
Si Si3 0.025783 0.368165 0.575207
Si Si4 0.444887 0.960017 0.059332
Si Si5 0.147504 0.403547 0.004903
Si Si6 0.843197 0.337327 0.301025
Si Si7 0.138216 0.797367 0.576553
Si Si8 0.747491 0.616778 0.586844
O O1 0.318020 0.115867 0.345740
O O2 0.417294 0.108635 0.390650
O O3 0.347007 0.974359 0.432272
O O4 0.372736 0.949357 0.315630
O O5 0.802123 0.250000 0.750000
O O6 0.721344 0.354171 0.792823
O O7 0.767357 0.207184 0.863344
O O8 0.031448 0.397480 0.501195
O O9 0.000000 0.250000 0.583594
O O10 0.986903 0.466587 0.595473
O O11 0.411426 0.870920 0.095134
O O12 0.398611 0.039317 0.034445
O O13 0.126008 0.285476 0.021765
O O14 0.203161 0.389523 0.967753
O O15 0.861436 0.250000 0.250000
O O16 0.847600 0.273695 0.365022
O O17 0.192821 0.860418 0.559956
O O18 0.750000 0.500000 0.617766
#
# Coordination Sequence:
#
# PCOD9506584 Si02
#       8
#    16  16  16  16  16  16  16  16
#     4  10  22  40  61  88 118 161 202 249 317 356
#     4  10  23  39  61  88 119 166 206 247 298 368
#     4  10  22  37  58  84 117 158 206 249 296 363
#     4  10  20  36  56  82 115 159 196 243 296 359
#     4  10  21  34  55  87 124 153 190 243 312 376
#     4   9  20  40  62  87 117 152 199 248 292 366
#     4  10  20  34  54  85 117 154 188 238 302 363
#     4  11  22  33  53  89 123 156 195 240 306 370
#
# _framework density 19.275876
#
# number of rings (size 3 to 8) (size 9 to 14) (size 15 to 20)
#    0.000    2.000    1.250    1.500    5.250    7.000 
#    0.000    0.000    0.000    3.375    0.000    0.000 
#    0.000    0.000    0.000    0.000    0.000    0.000 
#
# Total GULP energy -356707.424539 kJ/mol
# GULP energy per Si atom -5573.553508 kJ/mol
# Density = 1.923200 g / cm^3
# Si number density = 19.275876 Si / 1000 Ang^3
#
#
#
# Elastic Constant Matrix: (Units=GPa)
#
#
# Indices 1 2 3 4 5 6 
#
# 1 56.5969 33.9506 11.9930 0.0000 0.0000 0.0000
# 2 33.9506 116.4473 16.0240 0.0000 0.0000 0.0000
# 3 11.9930 16.0240 31.6393 0.0000 0.0000 0.0000
# 4 0.0000 0.0000 0.0000 16.4470 0.0000 0.0000
# 5 0.0000 0.0000 0.0000 0.0000 11.1116 0.0000
# 6 0.0000 0.0000 0.0000 0.0000 0.0000 27.6101
#
#
#
# Elastic Compliance Matrix: (Units=1/GPa)
#
#
# Indices 1 2 3 4 5 6 
#
# 1 0.022283 -0.005734 -0.005542 0.000000 0.000000 0.000000
# 2 -0.005734 0.010706 -0.003249 0.000000 0.000000 0.000000
# 3 -0.005542 -0.003249 0.035353 0.000000 0.000000 0.000000
# 4 0.000000 0.000000 0.000000 0.060802 0.000000 0.000000
# 5 0.000000 0.000000 0.000000 0.000000 0.089996 0.000000
# 6 0.000000 0.000000 0.000000 0.000000 0.000000 0.036219
#
#
# Mechanical properties :
#
#
# Convention : Reuss Voigt Hill
#
# Bulk Modulus (GPa) = 25.45091 36.51319 30.98205
# Shear Modulus (GPa) = 16.80640 20.54813 18.67727
#
# Velocity S-wave (km/s) = 2.95598 3.26851 3.11617
# Velocity P-wave (km/s) = 4.98824 5.76435 5.39029
#
# Compressibility (1/GPa) = 0.03929132
#
# Stress axis : x y z
#
# Youngs Moduli (GPa) = 44.87747 93.40212 28.28654
#
# Poissons Ratio (x) = 0.53557 0.15678
# Poissons Ratio (y) = 0.25733 0.09190
# Poissons Ratio (z) = 0.24873 0.30345
#
# Static dielectric constant tensor:
#      x y z
#    x 1.702140 0.000000 0.000000 
#    y 0.000000 1.731250 0.000000 
#    z 0.000000 0.000000 1.680610 
# 
# From -- ./inp_files/47072.got.cif
#   From: 2010.05.17/outbox.cif.g08.bks.cpg/sg68_24_cif.got.tgz:47072.got - 2010.06.03 18:57:09.
