data_PCOD9506874
_publ_section_title
;
Structure prediction by ZEFSAII (Michael W. Deem and Ramdas Pophale) SiO2 
 PCOD9506874
Probable space group: C C C A
;
_chemical_formula_sum "Si O2"
_cell_formula_units_Z 84
_cell_length_a 22.040131
_cell_length_b 13.436787
_cell_length_c 14.268238
_cell_angle_alpha 90.000000
_cell_angle_beta 90.000000
_cell_angle_gamma 90.000000
_cell_volume 4225.517933
_symmetry_space_group_name_H-M "C C C A"
_symmetry_group_IT_number 68
_space_group.IT_coordinate_system_code '2'
_symmetry_cell_setting 'orthorhombic'
loop_
_space_group_symop_operation_xyz
x,y,z
-x,1/2-y,z
x,1/2-y,1/2-z
-x,y,1/2-z
-x,-y,-z
x,1/2+y,-z
-x,1/2+y,1/2+z
x,-y,1/2+z
1/2+x,1/2+y,z
1/2-x,-y,z
1/2+x,-y,1/2-z
1/2-x,1/2+y,1/2-z
1/2-x,1/2-y,-z
1/2+x,y,-z
1/2-x,y,1/2+z
1/2+x,1/2-y,1/2+z
loop_
_atom_site_type_symbol
_atom_site_label
_atom_site_fract_x
_atom_site_fract_y
_atom_site_fract_z
Si Si1 0.625791 0.558378 0.625214
Si Si2 0.319616 0.232551 0.022022
Si Si3 0.492898 0.403330 0.065274
Si Si4 0.500000 0.250000 0.750000
Si Si5 0.885372 0.848305 0.189957
Si Si6 0.086247 0.333832 0.405114
O O1 0.669694 0.620593 0.558341
O O2 0.559630 0.609684 0.606460
O O3 0.643797 0.579109 0.732691
O O4 0.616992 0.442594 0.602777
O O5 0.343543 0.307244 0.105034
O O6 0.250000 0.250000 0.000000
O O7 0.361746 0.255503 0.931890
O O8 0.443948 0.404354 0.148313
O O9 0.500000 0.500000 0.000000
O O10 0.460130 0.330544 0.992459
O O11 0.455029 0.186453 0.684796
O O12 0.902036 0.750000 0.250000
#
# Coordination Sequence:
#
# PCOD9506874 Si02
#       6
#    16  16  16   4  16  16
#     4  10  20  36  65  93 124 159 212 260 321 380
#     4  10  22  43  63  83 125 168 223 270 316 371
#     4   9  18  32  58  89 125 154 194 244 321 381
#     4  12  24  40  60  96 144 160 204 254 344 408
#     4   9  19  34  59  93 117 160 208 264 306 373
#     4  10  23  39  61  93 128 170 202 255 328 397
#
# _framework density 19.879221000000001
#
# number of rings (size 3 to 8) (size 9 to 14) (size 15 to 20)
#    0.000    2.286    0.000    1.714    5.333    9.143 
#    8.571    0.000    0.000    0.000    0.000    0.000 
#    0.000    0.000    0.000    0.000    0.000    0.000 
#
# Total GULP energy -234078.081049 kJ/mol
# GULP energy per Si atom -5573.287644 kJ/mol
# Density = 1.983397 g / cm^3
# Si number density = 19.879221 Si / 1000 Ang^3
#
#
#
# Elastic Constant Matrix: (Units=GPa)
#
#
# Indices 1 2 3 4 5 6 
#
# 1 107.6485 31.1239 39.4025 0.0000 0.0000 0.0000
# 2 31.1239 83.3459 32.5065 0.0000 0.0000 0.0000
# 3 39.4025 32.5065 92.8283 0.0000 0.0000 0.0000
# 4 0.0000 0.0000 0.0000 26.0720 0.0000 0.0000
# 5 0.0000 0.0000 0.0000 0.0000 8.1483 0.0000
# 6 0.0000 0.0000 0.0000 0.0000 0.0000 14.1318
#
#
#
# Elastic Compliance Matrix: (Units=1/GPa)
#
#
# Indices 1 2 3 4 5 6 
#
# 1 0.011527 -0.002775 -0.003921 0.000000 0.000000 0.000000
# 2 -0.002775 0.014564 -0.003922 0.000000 0.000000 0.000000
# 3 -0.003921 -0.003922 0.013810 0.000000 0.000000 0.000000
# 4 0.000000 0.000000 0.000000 0.038355 0.000000 0.000000
# 5 0.000000 0.000000 0.000000 0.000000 0.122726 0.000000
# 6 0.000000 0.000000 0.000000 0.000000 0.000000 0.070762
#
#
# Mechanical properties :
#
#
# Convention : Reuss Voigt Hill
#
# Bulk Modulus (GPa) = 53.57642 54.43205 54.00424
# Shear Modulus (GPa) = 16.71104 21.72307 19.21706
#
# Velocity S-wave (km/s) = 2.90251 3.30927 3.11254
# Velocity P-wave (km/s) = 6.18403 6.48402 6.33580
#
# Compressibility (1/GPa) = 0.01866493
#
# Stress axis : x y z
#
# Youngs Moduli (GPa) = 86.75199 68.66128 72.40954
#
# Poissons Ratio (x) = 0.19056 0.28392
# Poissons Ratio (y) = 0.24076 0.28399
# Poissons Ratio (z) = 0.34016 0.26929
#
# Static dielectric constant tensor:
#      x y z
#    x 1.703280 0.000000 0.000000 
#    y 0.000000 1.696130 0.000000 
#    z 0.000000 0.000000 1.736640 
# 
# From -- ./inp_files/24380.got.cif
#   From: 2010.05.17/outbox.cif.g08.bks.cpg/sg68_13_cif.got.tgz:24380.got - 2010.06.03 18:57:09.
