data_PCOD9506490
_publ_section_title
;
Structure prediction by ZEFSAII (Michael W. Deem and Ramdas Pophale) SiO2 
 PCOD9506490
Probable space group: C C C A
;
_chemical_formula_sum "Si O2"
_cell_formula_units_Z 64
_cell_length_a 5.257715
_cell_length_b 25.398281
_cell_length_c 23.119545
_cell_angle_alpha 90.000000
_cell_angle_beta 90.000000
_cell_angle_gamma 90.000000
_cell_volume 3087.312900
_symmetry_space_group_name_H-M "C C C A"
_symmetry_group_IT_number 68
_space_group.IT_coordinate_system_code '2'
_symmetry_cell_setting 'orthorhombic'
loop_
_space_group_symop_operation_xyz
x,y,z
-x,1/2-y,z
x,1/2-y,1/2-z
-x,y,1/2-z
-x,-y,-z
x,1/2+y,-z
-x,1/2+y,1/2+z
x,-y,1/2+z
1/2+x,1/2+y,z
1/2-x,-y,z
1/2+x,-y,1/2-z
1/2-x,1/2+y,1/2-z
1/2-x,1/2-y,-z
1/2+x,y,-z
1/2-x,y,1/2+z
1/2+x,1/2-y,1/2+z
loop_
_atom_site_type_symbol
_atom_site_label
_atom_site_fract_x
_atom_site_fract_y
_atom_site_fract_z
Si Si1 0.997682 0.686927 0.318731
Si Si2 0.499256 0.870775 0.359369
Si Si3 0.273995 0.563803 0.031730
Si Si4 0.496748 0.020750 0.685203
O O1 0.732467 0.667029 0.344227
O O2 0.000000 0.750000 0.322906
O O3 0.000000 0.672988 0.250000
O O4 0.234396 0.660295 0.353087
O O5 0.405217 0.904698 0.415162
O O6 0.516324 0.917396 0.312623
O O7 0.250000 0.500000 0.035380
O O8 0.479582 0.578261 0.981187
O O9 0.500000 0.996756 0.750000
O O10 0.250000 0.000000 0.653168
O O11 0.750000 0.000000 0.657014
#
# Coordination Sequence:
#
# PCOD9506490 Si02
#       4
#    16  16  16  16
#     4  11  24  41  62  90 122 158 205 256 305 363
#     4  12  22  38  64  86 117 162 205 247 304 363
#     4  10  22  40  62  91 124 159 203 252 303 364
#     4  10  20  32  49  80 118 149 181 225 285 361
#
# _framework density 20.730001000000001
#
# number of rings (size 3 to 8) (size 9 to 14) (size 15 to 20)
#    0.000    1.250    0.000    6.750    0.000    7.000 
#    0.000    0.000    0.000   15.000    0.000    0.000 
#    0.000    0.000    0.000    0.000    0.000    0.000 
#
# Total GULP energy -178292.601285 kJ/mol
# GULP energy per Si atom -5571.643790 kJ/mol
# Density = 2.068282 g / cm^3
# Si number density = 20.730001 Si / 1000 Ang^3
#
#
#
# Elastic Constant Matrix: (Units=GPa)
#
#
# Indices 1 2 3 4 5 6 
#
# 1 184.3985 46.7904 14.4708 0.0000 0.0000 0.0000
# 2 46.7904 90.8252 12.3797 0.0000 0.0000 0.0000
# 3 14.4708 12.3797 68.7469 0.0000 0.0000 0.0000
# 4 0.0000 0.0000 0.0000 19.1507 0.0000 0.0000
# 5 0.0000 0.0000 0.0000 0.0000 34.3444 0.0000
# 6 0.0000 0.0000 0.0000 0.0000 0.0000 41.0600
#
#
#
# Elastic Compliance Matrix: (Units=1/GPa)
#
#
# Indices 1 2 3 4 5 6 
#
# 1 0.006277 -0.003130 -0.000758 0.000000 0.000000 0.000000
# 2 -0.003130 0.012848 -0.001655 0.000000 0.000000 0.000000
# 3 -0.000758 -0.001655 0.015004 0.000000 0.000000 0.000000
# 4 0.000000 0.000000 0.000000 0.052217 0.000000 0.000000
# 5 0.000000 0.000000 0.000000 0.000000 0.029117 0.000000
# 6 0.000000 0.000000 0.000000 0.000000 0.000000 0.024355
#
#
# Mechanical properties :
#
#
# Convention : Reuss Voigt Hill
#
# Bulk Modulus (GPa) = 43.39634 54.58360 48.98997
# Shear Modulus (GPa) = 31.52901 36.93300 34.23100
#
# Velocity S-wave (km/s) = 3.90415 4.22550 4.06800
# Velocity P-wave (km/s) = 6.42672 7.08480 6.76377
#
# Compressibility (1/GPa) = 0.02304342
#
# Stress axis : x y z
#
# Youngs Moduli (GPa) = 159.31675 77.83085 66.65094
#
# Poissons Ratio (x) = 0.24364 0.05049
# Poissons Ratio (y) = 0.49872 0.11029
# Poissons Ratio (z) = 0.12069 0.12879
#
# Static dielectric constant tensor:
#      x y z
#    x 1.806300 0.000000 0.000000 
#    y 0.000000 1.690670 0.000000 
#    z 0.000000 0.000000 1.820770 
# 
# From -- ./inp_files/42035.got.cif
#   From: 2010.05.17/outbox.cif.g08.bks.cpg/sg68_22_cif.got.tgz:42035.got - 2010.06.03 18:57:09.
