data_PCOD9506086
_publ_section_title
;
Structure prediction by ZEFSAII (Michael W. Deem and Ramdas Pophale) SiO2 
 PCOD9506086
Probable space group: C C C A
;
_chemical_formula_sum "Si O2"
_cell_formula_units_Z 72
_cell_length_a 15.027528
_cell_length_b 15.987766
_cell_length_c 13.476502
_cell_angle_alpha 90.000000
_cell_angle_beta 90.000000
_cell_angle_gamma 90.000000
_cell_volume 3237.818567
_symmetry_space_group_name_H-M "C C C A"
_symmetry_group_IT_number 68
_space_group.IT_coordinate_system_code '2'
_symmetry_cell_setting 'orthorhombic'
loop_
_space_group_symop_operation_xyz
x,y,z
-x,1/2-y,z
x,1/2-y,1/2-z
-x,y,1/2-z
-x,-y,-z
x,1/2+y,-z
-x,1/2+y,1/2+z
x,-y,1/2+z
1/2+x,1/2+y,z
1/2-x,-y,z
1/2+x,-y,1/2-z
1/2-x,1/2+y,1/2-z
1/2-x,1/2-y,-z
1/2+x,y,-z
1/2-x,y,1/2+z
1/2+x,1/2-y,1/2+z
loop_
_atom_site_type_symbol
_atom_site_label
_atom_site_fract_x
_atom_site_fract_y
_atom_site_fract_z
Si Si1 0.204843 0.590877 0.206945
Si Si2 0.662418 0.943643 0.921183
Si Si3 0.500000 0.250000 0.514597
Si Si4 0.484486 0.906581 0.866875
Si Si5 0.815741 0.699700 0.927204
O O1 0.250000 0.500000 0.210980
O O2 0.178483 0.609779 0.320608
O O3 0.120474 0.575989 0.134601
O O4 0.264447 0.666915 0.168619
O O5 0.560497 0.974019 0.899875
O O6 0.750000 0.000000 0.929242
O O7 0.662392 0.886781 0.016896
O O8 0.502532 0.328755 0.439964
O O9 0.409795 0.253135 0.578992
O O10 0.500000 0.887339 0.750000
O O11 0.750000 0.750000 0.000000
#
# Coordination Sequence:
#
# PCOD9506086 Si02
#       5
#    16  16   8  16  16
#     4  10  20  37  58  84 112 147 187 233 283 333
#     4   9  20  37  57  83 111 145 191 235 280 327
#     4  10  19  34  52  83 110 142 184 232 277 335
#     4   9  17  32  57  82 105 140 188 236 274 319
#     4  11  21  36  57  83 116 147 189 229 284 332
#
# _framework density 22.237193999999999
#
# number of rings (size 3 to 8) (size 9 to 14) (size 15 to 20)
#    0.000    2.222    2.222    1.000    0.000    0.889 
#    4.000    3.333    0.000    1.333    0.000    0.000 
#    0.000    0.000    0.000    0.000    0.000    0.000 
#
# Total GULP energy -200573.471257 kJ/mol
# GULP energy per Si atom -5571.485313 kJ/mol
# Density = 2.218658 g / cm^3
# Si number density = 22.237194 Si / 1000 Ang^3
#
#
#
# Elastic Constant Matrix: (Units=GPa)
#
#
# Indices 1 2 3 4 5 6 
#
# 1 149.5469 12.0721 1.9953 0.0000 0.0000 0.0000
# 2 12.0721 24.0288 -6.5691 0.0000 0.0000 0.0000
# 3 1.9953 -6.5691 28.6218 0.0000 0.0000 0.0000
# 4 0.0000 0.0000 0.0000 5.9838 0.0000 0.0000
# 5 0.0000 0.0000 0.0000 0.0000 26.6331 0.0000
# 6 0.0000 0.0000 0.0000 0.0000 0.0000 31.6610
#
#
#
# Elastic Compliance Matrix: (Units=1/GPa)
#
#
# Indices 1 2 3 4 5 6 
#
# 1 0.007021 -0.003906 -0.001386 0.000000 0.000000 0.000000
# 2 -0.003906 0.046576 0.010962 0.000000 0.000000 0.000000
# 3 -0.001386 0.010962 0.037551 0.000000 0.000000 0.000000
# 4 0.000000 0.000000 0.000000 0.167117 0.000000 0.000000
# 5 0.000000 0.000000 0.000000 0.000000 0.037547 0.000000
# 6 0.000000 0.000000 0.000000 0.000000 0.000000 0.031585
#
#
# Mechanical properties :
#
#
# Convention : Reuss Voigt Hill
#
# Bulk Modulus (GPa) = 9.75725 24.13268 16.94497
# Shear Modulus (GPa) = 14.27680 25.83554 20.05617
#
# Velocity S-wave (km/s) = 2.53657 3.41224 3.00646
# Velocity P-wave (km/s) = 3.60225 5.13814 4.43716
#
# Compressibility (1/GPa) = 0.10248786
#
# Stress axis : x y z
#
# Youngs Moduli (GPa) = 142.43641 21.47025 26.63048
#
# Poissons Ratio (x) = 0.08386 0.03691
# Poissons Ratio (y) = 0.55637 -0.29193
# Poissons Ratio (z) = 0.19741 -0.23536
#
# Static dielectric constant tensor:
#      x y z
#    x 2.000880 0.000000 0.000000 
#    y 0.000000 1.815000 0.000000 
#    z 0.000000 0.000000 1.835300 
# 
# From -- ./inp_files/21998.got.cif
#   From: 2010.05.17/outbox.cif.g08.bks.cpg/sg68_11_cif.got.tgz:21998.got - 2010.06.03 18:57:09.
