data_PCOD9506413
_publ_section_title
;
Structure prediction by ZEFSAII (Michael W. Deem and Ramdas Pophale) SiO2 
 PCOD9506413
Probable space group: C C C A
;
_chemical_formula_sum "Si O2"
_cell_formula_units_Z 64
_cell_length_a 16.736030
_cell_length_b 13.401728
_cell_length_c 13.409631
_cell_angle_alpha 90.000000
_cell_angle_beta 90.000000
_cell_angle_gamma 90.000000
_cell_volume 3007.669226
_symmetry_space_group_name_H-M "C C C A"
_symmetry_group_IT_number 68
_space_group.IT_coordinate_system_code '2'
_symmetry_cell_setting 'orthorhombic'
loop_
_space_group_symop_operation_xyz
x,y,z
-x,1/2-y,z
x,1/2-y,1/2-z
-x,y,1/2-z
-x,-y,-z
x,1/2+y,-z
-x,1/2+y,1/2+z
x,-y,1/2+z
1/2+x,1/2+y,z
1/2-x,-y,z
1/2+x,-y,1/2-z
1/2-x,1/2+y,1/2-z
1/2-x,1/2-y,-z
1/2+x,y,-z
1/2-x,y,1/2+z
1/2+x,1/2-y,1/2+z
loop_
_atom_site_type_symbol
_atom_site_label
_atom_site_fract_x
_atom_site_fract_y
_atom_site_fract_z
Si Si1 0.112336 0.250000 0.750000
Si Si2 0.518903 0.144773 0.571814
Si Si3 0.082438 0.567386 0.115149
Si Si4 0.679930 0.816163 0.952069
Si Si5 0.250000 0.500000 0.047153
O O1 0.069139 0.156791 0.806092
O O2 0.165895 0.293658 0.837972
O O3 0.500000 0.250000 0.626824
O O4 0.452640 0.106538 0.491266
O O5 0.594639 0.182831 0.506986
O O6 0.543972 0.043267 0.630474
O O7 0.178272 0.550413 0.109060
O O8 0.750000 0.750000 0.000000
O O9 0.707583 0.925956 0.973131
#
# Coordination Sequence:
#
# PCOD9506413 Si02
#       5
#     8  16  16  16   8
#     4  12  22  39  64 100 137 174 242 290 357 434
#     4  10  19  39  64  94 134 180 229 286 363 432
#     4  10  22  35  65 100 128 184 231 293 351 432
#     4  11  22  38  62  92 133 177 229 293 354 424
#     4  10  20  42  58  88 132 176 236 280 370 412
#
# _framework density 21.278936999999999
#
# number of rings (size 3 to 8) (size 9 to 14) (size 15 to 20)
#    0.000    1.500    5.000    0.000    0.000    3.000 
#    0.000    0.000    0.000    3.000    0.000    0.000 
#    0.000    0.000    0.000    0.000    0.000    0.000 
#
# Total GULP energy -178171.962529 kJ/mol
# GULP energy per Si atom -5567.873829 kJ/mol
# Density = 2.123050 g / cm^3
# Si number density = 21.278937 Si / 1000 Ang^3
#
#
#
# Elastic Constant Matrix: (Units=GPa)
#
#
# Indices 1 2 3 4 5 6 
#
# 1 99.6597 7.8539 20.3340 0.0000 0.0000 0.0000
# 2 7.8539 167.0647 36.5027 0.0000 0.0000 0.0000
# 3 20.3340 36.5027 91.6620 0.0000 0.0000 0.0000
# 4 0.0000 0.0000 0.0000 17.1573 0.0000 0.0000
# 5 0.0000 0.0000 0.0000 0.0000 14.7772 0.0000
# 6 0.0000 0.0000 0.0000 0.0000 0.0000 42.9824
#
#
#
# Elastic Compliance Matrix: (Units=1/GPa)
#
#
# Indices 1 2 3 4 5 6 
#
# 1 0.010510 0.000017 -0.002338 0.000000 0.000000 0.000000
# 2 0.000017 0.006556 -0.002615 0.000000 0.000000 0.000000
# 3 -0.002338 -0.002615 0.012470 0.000000 0.000000 0.000000
# 4 0.000000 0.000000 0.000000 0.058284 0.000000 0.000000
# 5 0.000000 0.000000 0.000000 0.000000 0.067672 0.000000
# 6 0.000000 0.000000 0.000000 0.000000 0.000000 0.023265
#
#
# Mechanical properties :
#
#
# Convention : Reuss Voigt Hill
#
# Bulk Modulus (GPa) = 50.85520 54.19641 52.52580
# Shear Modulus (GPa) = 25.61692 34.56311 30.09002
#
# Velocity S-wave (km/s) = 3.47344 4.03462 3.76450
# Velocity P-wave (km/s) = 6.32752 6.87233 6.60555
#
# Compressibility (1/GPa) = 0.01966367
#
# Stress axis : x y z
#
# Youngs Moduli (GPa) = 95.14849 152.52761 80.19530
#
# Poissons Ratio (x) = -0.00256 0.18751
# Poissons Ratio (y) = -0.00160 0.20968
# Poissons Ratio (z) = 0.22247 0.39880
#
# Static dielectric constant tensor:
#      x y z
#    x 1.925490 0.000000 0.000000 
#    y 0.000000 1.904210 0.000000 
#    z 0.000000 0.000000 1.706800 
# 
# From -- ./inp_files/14051.got.cif
#   From: 2010.05.17/outbox.cif.g08.bks.cpg/sg68_8_cif.got.tgz:14051.got - 2010.06.03 18:57:09.
