data_PCOD9506788
_publ_section_title
;
Structure prediction by ZEFSAII (Michael W. Deem and Ramdas Pophale) SiO2 
 PCOD9506788
Probable space group: C C C A
;
_chemical_formula_sum "Si O2"
_cell_formula_units_Z 96
_cell_length_a 14.648149
_cell_length_b 21.936730
_cell_length_c 14.478383
_cell_angle_alpha 90.000000
_cell_angle_beta 90.000000
_cell_angle_gamma 90.000000
_cell_volume 4652.374855
_symmetry_space_group_name_H-M "C C C A"
_symmetry_group_IT_number 68
_space_group.IT_coordinate_system_code '2'
_symmetry_cell_setting 'orthorhombic'
loop_
_space_group_symop_operation_xyz
x,y,z
-x,1/2-y,z
x,1/2-y,1/2-z
-x,y,1/2-z
-x,-y,-z
x,1/2+y,-z
-x,1/2+y,1/2+z
x,-y,1/2+z
1/2+x,1/2+y,z
1/2-x,-y,z
1/2+x,-y,1/2-z
1/2-x,1/2+y,1/2-z
1/2-x,1/2-y,-z
1/2+x,y,-z
1/2-x,y,1/2+z
1/2+x,1/2-y,1/2+z
loop_
_atom_site_type_symbol
_atom_site_label
_atom_site_fract_x
_atom_site_fract_y
_atom_site_fract_z
Si Si1 0.058150 0.633526 0.574544
Si Si2 0.500000 0.250000 0.471244
Si Si3 0.750000 0.500000 0.344788
Si Si4 0.153614 0.103679 0.084608
Si Si5 0.107268 0.015895 0.503869
Si Si6 0.692497 0.298076 0.435421
Si Si7 0.787547 0.868510 0.720405
O O1 0.104839 0.589411 0.497123
O O2 0.115355 0.629642 0.667785
O O3 0.049446 0.700550 0.535216
O O4 0.954513 0.614611 0.592254
O O5 0.586926 0.278793 0.420062
O O6 0.839495 0.498263 0.409419
O O7 0.746068 0.436228 0.292038
O O8 0.187934 0.138435 0.993391
O O9 0.200526 0.136480 0.170725
O O10 0.156519 0.030004 0.075228
O O11 0.000000 0.000000 0.500000
O O12 0.750000 0.250000 0.500000
O O13 0.736041 0.316290 0.337295
#
# Coordination Sequence:
#
# PCOD9506788 Si02
#       7
#    16   8   8  16  16  16  16
#     4   9  19  36  61  92 128 159 209 273 334 396
#     4  10  20  38  63  93 124 174 218 262 329 399
#     4  10  20  36  58  88 124 158 204 266 326 402
#     4  10  21  37  62  92 124 165 215 268 333 394
#     4   9  18  35  59  86 120 164 200 260 330 392
#     4  11  22  40  61  91 125 173 217 271 332 397
#     4  11  21  38  61  94 127 161 215 273 331 400
#
# _framework density 20.634623999999999
#
# number of rings (size 3 to 8) (size 9 to 14) (size 15 to 20)
#    0.000    2.000    3.333    0.500    0.000    1.333 
#    0.000    0.833    0.000    2.000    0.000    0.000 
#    0.000    0.000    0.000    0.000    0.000    0.000 
#
# Total GULP energy -267308.048782 kJ/mol
# GULP energy per Si atom -5568.917683 kJ/mol
# Density = 2.058766 g / cm^3
# Si number density = 20.634624 Si / 1000 Ang^3
#
#
#
# Elastic Constant Matrix: (Units=GPa)
#
#
# Indices 1 2 3 4 5 6 
#
# 1 92.2114 12.9274 12.3135 0.0000 0.0000 0.0000
# 2 12.9274 102.3964 26.3024 0.0000 0.0000 0.0000
# 3 12.3135 26.3024 75.9669 0.0000 0.0000 0.0000
# 4 0.0000 0.0000 0.0000 19.3156 0.0000 0.0000
# 5 0.0000 0.0000 0.0000 0.0000 17.8555 0.0000
# 6 0.0000 0.0000 0.0000 0.0000 0.0000 35.0954
#
#
#
# Elastic Compliance Matrix: (Units=1/GPa)
#
#
# Indices 1 2 3 4 5 6 
#
# 1 0.011184 -0.001039 -0.001453 0.000000 0.000000 0.000000
# 2 -0.001039 0.010816 -0.003576 0.000000 0.000000 0.000000
# 3 -0.001453 -0.003576 0.014637 0.000000 0.000000 0.000000
# 4 0.000000 0.000000 0.000000 0.051772 0.000000 0.000000
# 5 0.000000 0.000000 0.000000 0.000000 0.056005 0.000000
# 6 0.000000 0.000000 0.000000 0.000000 0.000000 0.028494
#
#
# Mechanical properties :
#
#
# Convention : Reuss Voigt Hill
#
# Bulk Modulus (GPa) = 40.81499 41.51793 41.16646
# Shear Modulus (GPa) = 25.87833 29.05538 27.46686
#
# Velocity S-wave (km/s) = 3.54520 3.75652 3.65239
# Velocity P-wave (km/s) = 6.04820 6.24335 6.14655
#
# Compressibility (1/GPa) = 0.02450080
#
# Stress axis : x y z
#
# Youngs Moduli (GPa) = 89.41085 92.45749 68.31783
#
# Poissons Ratio (x) = 0.09604 0.09928
# Poissons Ratio (y) = 0.09287 0.24433
# Poissons Ratio (z) = 0.12993 0.33067
#
# Static dielectric constant tensor:
#      x y z
#    x 1.767170 0.000000 0.000000 
#    y 0.000000 1.825160 0.000000 
#    z 0.000000 0.000000 1.698610 
# 
# From -- ./inp_files/22538.got.cif
#   From: 2010.05.17/outbox.cif.g08.bks.cpg/sg68_12_cif.got.tgz:22538.got - 2010.06.03 18:57:09.
