data_PCOD9506884
_publ_section_title
;
Structure prediction by ZEFSAII (Michael W. Deem and Ramdas Pophale) SiO2 
 PCOD9506884
Probable space group: C C C A
;
_chemical_formula_sum "Si O2"
_cell_formula_units_Z 60
_cell_length_a 19.592388
_cell_length_b 13.615171
_cell_length_c 9.338271
_cell_angle_alpha 90.000000
_cell_angle_beta 90.000000
_cell_angle_gamma 90.000000
_cell_volume 2491.018461
_symmetry_space_group_name_H-M "C C C A"
_symmetry_group_IT_number 68
_space_group.IT_coordinate_system_code '2'
_symmetry_cell_setting 'orthorhombic'
loop_
_space_group_symop_operation_xyz
x,y,z
-x,1/2-y,z
x,1/2-y,1/2-z
-x,y,1/2-z
-x,-y,-z
x,1/2+y,-z
-x,1/2+y,1/2+z
x,-y,1/2+z
1/2+x,1/2+y,z
1/2-x,-y,z
1/2+x,-y,1/2-z
1/2-x,1/2+y,1/2-z
1/2-x,1/2-y,-z
1/2+x,y,-z
1/2-x,y,1/2+z
1/2+x,1/2-y,1/2+z
loop_
_atom_site_type_symbol
_atom_site_label
_atom_site_fract_x
_atom_site_fract_y
_atom_site_fract_z
Si Si1 0.865919 0.762014 0.090849
Si Si2 0.734572 0.250000 0.750000
Si Si3 0.000000 0.750000 0.750000
Si Si4 0.876330 0.881068 0.656079
Si Si5 0.954524 0.435824 0.890625
O O1 0.895655 0.750000 0.250000
O O2 0.787391 0.787118 0.128987
O O3 0.918129 0.843545 0.031813
O O4 0.859284 0.663117 0.000206
O O5 0.680936 0.160298 0.765068
O O6 0.947578 0.825483 0.678828
O O7 0.891621 0.995171 0.659506
O O8 0.000000 0.414030 0.750000
O O9 0.000000 0.500000 0.000000
#
# Coordination Sequence:
#
# PCOD9506884 Si02
#       5
#    16   8   4  16  16
#     4  10  24  45  65  99 141 180 222 289 344 411
#     4   9  24  43  69  94 135 184 230 272 359 392
#     4  10  20  36  66  92 132 168 214 290 326 396
#     4  11  21  43  68  99 134 177 232 278 342 420
#     4  12  26  43  69 106 136 180 232 285 354 413
#
# _framework density 24.086532999999999
#
# number of rings (size 3 to 8) (size 9 to 14) (size 15 to 20)
#    0.800    0.533    1.333    4.000    3.733    3.733 
#    0.000    0.000    0.000    0.000    0.000    0.000 
#    0.000    0.000    0.000    0.000    0.000    0.000 
#
# Total GULP energy -167136.841304 kJ/mol
# GULP energy per Si atom -5571.228043 kJ/mol
# Density = 2.403171 g / cm^3
# Si number density = 24.086533 Si / 1000 Ang^3
#
#
#
# Elastic Constant Matrix: (Units=GPa)
#
#
# Indices 1 2 3 4 5 6 
#
# 1 146.1268 31.3706 36.3486 0.0000 0.0000 0.0000
# 2 31.3706 67.4564 5.1664 0.0000 0.0000 0.0000
# 3 36.3486 5.1664 59.5126 0.0000 0.0000 0.0000
# 4 0.0000 0.0000 0.0000 28.6313 0.0000 0.0000
# 5 0.0000 0.0000 0.0000 0.0000 47.7933 0.0000
# 6 0.0000 0.0000 0.0000 0.0000 0.0000 23.0810
#
#
#
# Elastic Compliance Matrix: (Units=1/GPa)
#
#
# Indices 1 2 3 4 5 6 
#
# 1 0.008925 -0.003758 -0.005125 0.000000 0.000000 0.000000
# 2 -0.003758 0.016506 0.000862 0.000000 0.000000 0.000000
# 3 -0.005125 0.000862 0.019858 0.000000 0.000000 0.000000
# 4 0.000000 0.000000 0.000000 0.034927 0.000000 0.000000
# 5 0.000000 0.000000 0.000000 0.000000 0.020923 0.000000
# 6 0.000000 0.000000 0.000000 0.000000 0.000000 0.043326
#
#
# Mechanical properties :
#
#
# Convention : Reuss Voigt Hill
#
# Bulk Modulus (GPa) = 34.18997 46.54076 40.36537
# Shear Modulus (GPa) = 29.36760 33.24847 31.30804
#
# Velocity S-wave (km/s) = 3.49557 3.71937 3.60921
# Velocity P-wave (km/s) = 5.52426 6.14892 5.84494
#
# Compressibility (1/GPa) = 0.02924834
#
# Stress axis : x y z
#
# Youngs Moduli (GPa) = 112.04561 60.58395 50.35650
#
# Poissons Ratio (x) = 0.22768 0.25807
# Poissons Ratio (y) = 0.42107 -0.04343
# Poissons Ratio (z) = 0.57422 -0.05225
#
# Static dielectric constant tensor:
#      x y z
#    x 1.926590 0.000000 0.000000 
#    y 0.000000 2.040600 0.000000 
#    z 0.000000 0.000000 2.135880 
# 
# From -- ./inp_files/4918.got.cif
#   From: 2010.05.17/outbox.cif.g08.bks.cpg/sg68_3_cif.got.tgz:4918.got - 2010.06.03 18:57:09.
