data_PCOD9506318
_publ_section_title
;
Structure prediction by ZEFSAII (Michael W. Deem and Ramdas Pophale) SiO2 
 PCOD9506318
Probable space group: C C C A
;
_chemical_formula_sum "Si O2"
_cell_formula_units_Z 96
_cell_length_a 25.684335
_cell_length_b 7.249738
_cell_length_c 21.550113
_cell_angle_alpha 90.000000
_cell_angle_beta 90.000000
_cell_angle_gamma 90.000000
_cell_volume 4012.732314
_symmetry_space_group_name_H-M "C C C A"
_symmetry_group_IT_number 68
_space_group.IT_coordinate_system_code '2'
_symmetry_cell_setting 'orthorhombic'
loop_
_space_group_symop_operation_xyz
x,y,z
-x,1/2-y,z
x,1/2-y,1/2-z
-x,y,1/2-z
-x,-y,-z
x,1/2+y,-z
-x,1/2+y,1/2+z
x,-y,1/2+z
1/2+x,1/2+y,z
1/2-x,-y,z
1/2+x,-y,1/2-z
1/2-x,1/2+y,1/2-z
1/2-x,1/2-y,-z
1/2+x,y,-z
1/2-x,y,1/2+z
1/2+x,1/2-y,1/2+z
loop_
_atom_site_type_symbol
_atom_site_label
_atom_site_fract_x
_atom_site_fract_y
_atom_site_fract_z
Si Si1 0.308268 0.479140 0.686173
Si Si2 0.950727 0.551312 0.218678
Si Si3 0.386556 0.007588 0.419478
Si Si4 0.383396 0.074087 0.554702
Si Si5 0.505728 0.473896 0.589327
Si Si6 0.158696 0.943409 0.684623
O O1 0.250000 0.500000 0.661767
O O2 0.353034 0.562182 0.641105
O O3 0.318172 0.259915 0.682648
O O4 0.311025 0.542421 0.758616
O O5 0.941904 0.750000 0.250000
O O6 0.970588 0.565740 0.149691
O O7 0.898589 0.437963 0.214894
O O8 0.000000 0.457729 0.250000
O O9 0.361765 0.071187 0.484884
O O10 0.386825 0.785426 0.423909
O O11 0.447902 0.055948 0.417012
O O12 0.443220 0.999780 0.545710
O O13 0.351568 0.987192 0.613405
O O14 0.500000 0.250000 0.595012
#
# Coordination Sequence:
#
# PCOD9506318 Si02
#       6
#    16  16  16  16  16  16
#     4  10  21  41  66  88 114 164 228 278 332 389
#     4  10  20  35  55  96 138 166 208 258 323 401
#     4  10  19  37  59  91 127 173 212 267 321 388
#     4   9  19  36  60  92 127 168 217 253 326 401
#     4   9  18  34  59  86 128 181 217 249 315 404
#     4   9  20  42  63  87 128 167 213 272 334 393
#
# _framework density 23.923849000000001
#
# number of rings (size 3 to 8) (size 9 to 14) (size 15 to 20)
#    0.000    2.500    0.000    2.500    0.000    3.000 
#   21.000    4.167    3.667    0.000    0.000    0.000 
#    0.000    0.000    0.000    0.000    0.000    0.000 
#
# Total GULP energy -267461.716752 kJ/mol
# GULP energy per Si atom -5572.119099 kJ/mol
# Density = 2.386940 g / cm^3
# Si number density = 23.923849 Si / 1000 Ang^3
#
#
#
# Elastic Constant Matrix: (Units=GPa)
#
#
# Indices 1 2 3 4 5 6 
#
# 1 108.4418 17.4409 48.5532 0.0000 0.0000 0.0000
# 2 17.4409 85.5242 5.9605 0.0000 0.0000 0.0000
# 3 48.5532 5.9605 159.8383 0.0000 0.0000 0.0000
# 4 0.0000 0.0000 0.0000 22.4626 0.0000 0.0000
# 5 0.0000 0.0000 0.0000 0.0000 9.3316 0.0000
# 6 0.0000 0.0000 0.0000 0.0000 0.0000 21.0536
#
#
#
# Elastic Compliance Matrix: (Units=1/GPa)
#
#
# Indices 1 2 3 4 5 6 
#
# 1 0.011010 -0.002017 -0.003269 0.000000 0.000000 0.000000
# 2 -0.002017 0.012093 0.000162 0.000000 0.000000 0.000000
# 3 -0.003269 0.000162 0.007243 0.000000 0.000000 0.000000
# 4 0.000000 0.000000 0.000000 0.044519 0.000000 0.000000
# 5 0.000000 0.000000 0.000000 0.000000 0.107163 0.000000
# 6 0.000000 0.000000 0.000000 0.000000 0.000000 0.047498
#
#
# Mechanical properties :
#
#
# Convention : Reuss Voigt Hill
#
# Bulk Modulus (GPa) = 49.75996 55.30150 52.53073
# Shear Modulus (GPa) = 20.28621 29.35953 24.82287
#
# Velocity S-wave (km/s) = 2.91512 3.50695 3.22464
# Velocity P-wave (km/s) = 5.67230 6.29000 5.98912
#
# Compressibility (1/GPa) = 0.02009648
#
# Stress axis : x y z
#
# Youngs Moduli (GPa) = 90.82908 82.69437 138.05806
#
# Poissons Ratio (x) = 0.16682 0.45133
# Poissons Ratio (y) = 0.18324 -0.02235
# Poissons Ratio (z) = 0.29693 -0.01338
#
# Static dielectric constant tensor:
#      x y z
#    x 1.911970 0.000000 0.000000 
#    y 0.000000 1.864070 0.000000 
#    z 0.000000 0.000000 2.523320 
# 
# From -- ./inp_files/41203.got.cif
#   From: 2010.05.17/outbox.cif.g08.bks.cpg/sg68_21_cif.got.tgz:41203.got - 2010.06.03 18:57:09.
