data_PCOD9506396
_publ_section_title
;
Structure prediction by ZEFSAII (Michael W. Deem and Ramdas Pophale) SiO2 
 PCOD9506396
Probable space group: C C C A
;
_chemical_formula_sum "Si O2"
_cell_formula_units_Z 72
_cell_length_a 18.912269
_cell_length_b 9.534190
_cell_length_c 17.826651
_cell_angle_alpha 90.000000
_cell_angle_beta 90.000000
_cell_angle_gamma 90.000000
_cell_volume 3214.379881
_symmetry_space_group_name_H-M "C C C A"
_symmetry_group_IT_number 68
_space_group.IT_coordinate_system_code '2'
_symmetry_cell_setting 'orthorhombic'
loop_
_space_group_symop_operation_xyz
x,y,z
-x,1/2-y,z
x,1/2-y,1/2-z
-x,y,1/2-z
-x,-y,-z
x,1/2+y,-z
-x,1/2+y,1/2+z
x,-y,1/2+z
1/2+x,1/2+y,z
1/2-x,-y,z
1/2+x,-y,1/2-z
1/2-x,1/2+y,1/2-z
1/2-x,1/2-y,-z
1/2+x,y,-z
1/2-x,y,1/2+z
1/2+x,1/2-y,1/2+z
loop_
_atom_site_type_symbol
_atom_site_label
_atom_site_fract_x
_atom_site_fract_y
_atom_site_fract_z
Si Si1 0.304061 0.872974 0.194400
Si Si2 0.567339 0.991994 0.211971
Si Si3 0.673988 0.448027 0.409416
Si Si4 0.854782 0.751152 0.960744
Si Si5 0.000000 0.750000 0.893486
O O1 0.279352 0.750000 0.250000
O O2 0.379578 0.924872 0.227154
O O3 0.315027 0.808992 0.112498
O O4 0.250000 0.000000 0.192456
O O5 0.500000 0.064067 0.250000
O O6 0.618447 0.077055 0.156753
O O7 0.533342 0.868304 0.160712
O O8 0.750000 0.500000 0.379767
O O9 0.676636 0.317387 0.464600
O O10 0.648656 0.582870 0.458017
O O11 0.935827 0.797588 0.946645
#
# Coordination Sequence:
#
# PCOD9506396 Si02
#       5
#    16  16  16  16   8
#     4  12  23  41  68 100 128 173 233 288 335 399
#     4  11  20  39  69  94 127 170 233 269 331 402
#     4  11  24  42  67 100 138 177 222 277 342 404
#     4  11  24  41  68 100 134 177 224 280 340 412
#     4  10  19  38  70  92 125 168 226 272 325 402
#
# _framework density 22.399342999999998
#
# number of rings (size 3 to 8) (size 9 to 14) (size 15 to 20)
#    0.000    0.889    6.667    2.333    0.000    3.556 
#    0.000    0.000    0.000    3.333    0.000    0.000 
#    0.000    0.000    0.000    0.000    0.000    0.000 
#
# Total GULP energy -201478.176324 kJ/mol
# GULP energy per Si atom -5596.616009 kJ/mol
# Density = 2.234836 g / cm^3
# Si number density = 22.399343 Si / 1000 Ang^3
#
#
#
# Elastic Constant Matrix: (Units=GPa)
#
#
# Indices 1 2 3 4 5 6 
#
# 1 134.9376 26.9918 29.6388 0.0000 0.0000 0.0000
# 2 26.9918 53.5481 15.5953 0.0000 0.0000 0.0000
# 3 29.6388 15.5953 84.0804 0.0000 0.0000 0.0000
# 4 0.0000 0.0000 0.0000 23.9574 0.0000 0.0000
# 5 0.0000 0.0000 0.0000 0.0000 29.2676 0.0000
# 6 0.0000 0.0000 0.0000 0.0000 0.0000 28.3957
#
#
#
# Elastic Compliance Matrix: (Units=1/GPa)
#
#
# Indices 1 2 3 4 5 6 
#
# 1 0.008668 -0.003678 -0.002373 0.000000 0.000000 0.000000
# 2 -0.003678 0.021302 -0.002655 0.000000 0.000000 0.000000
# 3 -0.002373 -0.002655 0.013222 0.000000 0.000000 0.000000
# 4 0.000000 0.000000 0.000000 0.041741 0.000000 0.000000
# 5 0.000000 0.000000 0.000000 0.000000 0.034168 0.000000
# 6 0.000000 0.000000 0.000000 0.000000 0.000000 0.035217
#
#
# Mechanical properties :
#
#
# Convention : Reuss Voigt Hill
#
# Bulk Modulus (GPa) = 38.78919 46.33533 42.56226
# Shear Modulus (GPa) = 27.72817 29.68014 28.70415
#
# Velocity S-wave (km/s) = 3.52220 3.64407 3.58365
# Velocity P-wave (km/s) = 5.82202 6.19972 6.01384
#
# Compressibility (1/GPa) = 0.02578038
#
# Stress axis : x y z
#
# Youngs Moduli (GPa) = 115.36919 46.94430 75.62958
#
# Poissons Ratio (x) = 0.17266 0.17949
# Poissons Ratio (y) = 0.42432 0.20077
# Poissons Ratio (z) = 0.27380 0.12462
#
# Static dielectric constant tensor:
#      x y z
#    x 1.877910 0.000000 0.000000 
#    y 0.000000 1.810740 0.000000 
#    z 0.000000 0.000000 1.810620 
# 
# From -- ./inp_files/31641.got.cif
#   From: 2010.05.17/outbox.cif.g08.bks.cpg/sg68_16_cif.got.tgz:31641.got - 2010.06.03 18:57:09.
