data_PCOD9506222
_publ_section_title
;
Structure prediction by ZEFSAII (Michael W. Deem and Ramdas Pophale) SiO2 
 PCOD9506222
Probable space group: C C C A
;
_chemical_formula_sum "Si O2"
_cell_formula_units_Z 64
_cell_length_a 7.339700
_cell_length_b 23.479947
_cell_length_c 14.915454
_cell_angle_alpha 90.000000
_cell_angle_beta 90.000000
_cell_angle_gamma 90.000000
_cell_volume 2570.466205
_symmetry_space_group_name_H-M "C C C A"
_symmetry_group_IT_number 68
_space_group.IT_coordinate_system_code '2'
_symmetry_cell_setting 'orthorhombic'
loop_
_space_group_symop_operation_xyz
x,y,z
-x,1/2-y,z
x,1/2-y,1/2-z
-x,y,1/2-z
-x,-y,-z
x,1/2+y,-z
-x,1/2+y,1/2+z
x,-y,1/2+z
1/2+x,1/2+y,z
1/2-x,-y,z
1/2+x,-y,1/2-z
1/2-x,1/2+y,1/2-z
1/2-x,1/2-y,-z
1/2+x,y,-z
1/2-x,y,1/2+z
1/2+x,1/2-y,1/2+z
loop_
_atom_site_type_symbol
_atom_site_label
_atom_site_fract_x
_atom_site_fract_y
_atom_site_fract_z
Si Si1 0.681096 0.118147 0.133323
Si Si2 0.248245 0.868193 0.668729
Si Si3 0.785032 0.753843 0.105856
Si Si4 0.636022 0.453703 0.538885
O O1 0.743214 0.103699 0.233553
O O2 0.457789 0.124182 0.132359
O O3 0.763996 0.181335 0.125207
O O4 0.720469 0.076736 0.050159
O O5 0.207475 0.800524 0.659470
O O6 0.109575 0.901418 0.604888
O O7 0.000000 0.750000 0.124601
O O8 0.750000 0.750000 0.000000
O O9 0.500000 0.500000 0.500000
O O10 0.750000 0.500000 0.596003
#
# Coordination Sequence:
#
# PCOD9506222 Si02
#       4
#    16  16  16  16
#     4  10  21  40  65  94 124 165 221 273 328 388
#     4  10  21  40  65  95 124 166 220 272 328 391
#     4  10  19  35  67  93 125 164 208 270 336 392
#     4  12  24  41  64  89 128 175 219 267 324 390
#
# _framework density 24.898206999999999
#
# number of rings (size 3 to 8) (size 9 to 14) (size 15 to 20)
#    0.000    1.500    5.000    0.750    0.000    4.000 
#    0.000    0.000    0.000    1.500    0.000    0.000 
#    0.000    0.000    0.000    0.000    0.000    0.000 
#
# Total GULP energy -178387.507259 kJ/mol
# GULP energy per Si atom -5574.609602 kJ/mol
# Density = 2.484154 g / cm^3
# Si number density = 24.898207 Si / 1000 Ang^3
#
#
#
# Elastic Constant Matrix: (Units=GPa)
#
#
# Indices 1 2 3 4 5 6 
#
# 1 54.2381 42.3171 14.3329 0.0000 0.0000 0.0000
# 2 42.3171 195.6624 71.0441 0.0000 0.0000 0.0000
# 3 14.3329 71.0441 141.8354 0.0000 0.0000 0.0000
# 4 0.0000 0.0000 0.0000 14.6436 0.0000 0.0000
# 5 0.0000 0.0000 0.0000 0.0000 25.6149 0.0000
# 6 0.0000 0.0000 0.0000 0.0000 0.0000 37.5155
#
#
#
# Elastic Compliance Matrix: (Units=1/GPa)
#
#
# Indices 1 2 3 4 5 6 
#
# 1 0.022184 -0.004870 0.000197 0.000000 0.000000 0.000000
# 2 -0.004870 0.007316 -0.003172 0.000000 0.000000 0.000000
# 3 0.000197 -0.003172 0.008620 0.000000 0.000000 0.000000
# 4 0.000000 0.000000 0.000000 0.068289 0.000000 0.000000
# 5 0.000000 0.000000 0.000000 0.000000 0.039040 0.000000
# 6 0.000000 0.000000 0.000000 0.000000 0.000000 0.026656
#
#
# Mechanical properties :
#
#
# Convention : Reuss Voigt Hill
#
# Bulk Modulus (GPa) = 44.58214 71.90270 58.24242
# Shear Modulus (GPa) = 25.60547 33.15756 29.38152
#
# Velocity S-wave (km/s) = 3.21036 3.65324 3.43894
# Velocity P-wave (km/s) = 5.62908 6.83639 6.26190
#
# Compressibility (1/GPa) = 0.02243051
#
# Stress axis : x y z
#
# Youngs Moduli (GPa) = 45.07668 136.68847 116.01600
#
# Poissons Ratio (x) = 0.66562 -0.02289
# Poissons Ratio (y) = 0.21951 0.36805
# Poissons Ratio (z) = -0.00890 0.43363
#
# Static dielectric constant tensor:
#      x y z
#    x 2.319280 0.000000 0.000000 
#    y 0.000000 1.905250 0.000000 
#    z 0.000000 0.000000 1.938960 
# 
# From -- ./inp_files/19229.got.cif
#   From: 2010.05.17/outbox.cif.g08.bks.cpg/sg68_10_cif.got.tgz:19229.got - 2010.06.03 18:57:09.
