data_PCOD9506407
_publ_section_title
;
Structure prediction by ZEFSAII (Michael W. Deem and Ramdas Pophale) SiO2 
 PCOD9506407
Probable space group: C C C A
;
_chemical_formula_sum "Si O2"
_cell_formula_units_Z 88
_cell_length_a 28.233270
_cell_length_b 5.035836
_cell_length_c 26.518255
_cell_angle_alpha 90.000000
_cell_angle_beta 90.000000
_cell_angle_gamma 90.000000
_cell_volume 3770.315574
_symmetry_space_group_name_H-M "C C C A"
_symmetry_group_IT_number 68
_space_group.IT_coordinate_system_code '2'
_symmetry_cell_setting 'orthorhombic'
loop_
_space_group_symop_operation_xyz
x,y,z
-x,1/2-y,z
x,1/2-y,1/2-z
-x,y,1/2-z
-x,-y,-z
x,1/2+y,-z
-x,1/2+y,1/2+z
x,-y,1/2+z
1/2+x,1/2+y,z
1/2-x,-y,z
1/2+x,-y,1/2-z
1/2-x,1/2+y,1/2-z
1/2-x,1/2-y,-z
1/2+x,y,-z
1/2-x,y,1/2+z
1/2+x,1/2-y,1/2+z
loop_
_atom_site_type_symbol
_atom_site_label
_atom_site_fract_x
_atom_site_fract_y
_atom_site_fract_z
Si Si1 0.099189 0.894640 0.146602
Si Si2 0.096105 0.614966 0.576824
Si Si3 0.500000 0.250000 0.926823
Si Si4 0.250000 0.500000 0.615210
Si Si5 0.799159 0.167371 0.807996
Si Si6 0.500000 0.250000 0.148329
Si Si7 0.805698 0.199411 0.467642
O O1 0.103228 0.681603 0.099542
O O2 0.148017 0.923828 0.177449
O O3 0.051275 0.788946 0.174621
O O4 0.091162 0.187578 0.124552
O O5 0.141294 0.724902 0.547921
O O6 0.048859 0.686969 0.544749
O O7 0.500426 0.502068 0.889633
O O8 0.209255 0.401353 0.652221
O O9 0.226109 0.716267 0.579407
O O10 0.799313 0.250000 0.750000
O O11 0.750000 0.000000 0.814504
O O12 0.797932 0.401742 0.514051
#
# Coordination Sequence:
#
# PCOD9506407 Si02
#       7
#    16  16   8   8  16   8  16
#     4  10  20  38  66  92 130 172 213 265 327 380
#     4  10  19  39  62  92 126 170 212 266 323 380
#     4   8  16  30  60  89 121 163 212 255 319 385
#     4  12  26  46  64  88 130 170 212 272 330 376
#     4  12  26  43  67  99 130 173 219 269 328 406
#     4   8  16  32  59  95 120 165 218 255 314 391
#     4  12  26  42  63  93 125 169 222 267 321 391
#
# _framework density 23.340222000000001
#
# number of rings (size 3 to 8) (size 9 to 14) (size 15 to 20)
#    0.000    1.455    2.727    2.727    2.545    0.000 
#    0.000    1.364    0.000    0.000    0.000    7.636 
#    0.000    0.000    0.000    0.000    0.000    0.000 
#
# Total GULP energy -245434.835199 kJ/mol
# GULP energy per Si atom -5578.064436 kJ/mol
# Density = 2.328710 g / cm^3
# Si number density = 23.340222 Si / 1000 Ang^3
#
#
#
# Elastic Constant Matrix: (Units=GPa)
#
#
# Indices 1 2 3 4 5 6 
#
# 1 163.2019 -2.4882 27.2562 0.0000 0.0000 0.0000
# 2 -2.4882 108.5046 12.2266 0.0000 0.0000 0.0000
# 3 27.2562 12.2266 70.3361 0.0000 0.0000 0.0000
# 4 0.0000 0.0000 0.0000 15.9383 0.0000 0.0000
# 5 0.0000 0.0000 0.0000 0.0000 37.7385 0.0000
# 6 0.0000 0.0000 0.0000 0.0000 0.0000 32.4893
#
#
#
# Elastic Compliance Matrix: (Units=1/GPa)
#
#
# Indices 1 2 3 4 5 6 
#
# 1 0.006573 0.000446 -0.002625 0.000000 0.000000 0.000000
# 2 0.000446 0.009431 -0.001812 0.000000 0.000000 0.000000
# 3 -0.002625 -0.001812 0.015550 0.000000 0.000000 0.000000
# 4 0.000000 0.000000 0.000000 0.062742 0.000000 0.000000
# 5 0.000000 0.000000 0.000000 0.000000 0.026498 0.000000
# 6 0.000000 0.000000 0.000000 0.000000 0.000000 0.030779
#
#
# Mechanical properties :
#
#
# Convention : Reuss Voigt Hill
#
# Bulk Modulus (GPa) = 42.42352 46.22575 44.32464
# Shear Modulus (GPa) = 29.86675 37.56976 33.71825
#
# Velocity S-wave (km/s) = 3.58107 4.01641 3.80497
# Velocity P-wave (km/s) = 5.94258 6.43093 6.19157
#
# Compressibility (1/GPa) = 0.02357183
#
# Stress axis : x y z
#
# Youngs Moduli (GPa) = 152.14889 106.03717 64.31059
#
# Poissons Ratio (x) = -0.04734 0.16879
# Poissons Ratio (y) = -0.06793 0.11655
# Poissons Ratio (z) = 0.39932 0.19218
#
# Static dielectric constant tensor:
#      x y z
#    x 2.099930 0.000000 0.000000 
#    y 0.000000 1.846320 0.000000 
#    z 0.000000 0.000000 1.836660 
# 
# From -- ./inp_files/47499.got.cif
#   From: 2010.05.17/outbox.cif.g08.bks.cpg/sg68_24_cif.got.tgz:47499.got - 2010.06.03 18:57:09.
