data_PCOD9506127
_publ_section_title
;
Structure prediction by ZEFSAII (Michael W. Deem and Ramdas Pophale) SiO2 
 PCOD9506127
Probable space group: C C C A
;
_chemical_formula_sum "Si O2"
_cell_formula_units_Z 104
_cell_length_a 16.859137
_cell_length_b 11.788968
_cell_length_c 22.696312
_cell_angle_alpha 90.000000
_cell_angle_beta 90.000000
_cell_angle_gamma 90.000000
_cell_volume 4510.933467
_symmetry_space_group_name_H-M "C C C A"
_symmetry_group_IT_number 68
_space_group.IT_coordinate_system_code '2'
_symmetry_cell_setting 'orthorhombic'
loop_
_space_group_symop_operation_xyz
x,y,z
-x,1/2-y,z
x,1/2-y,1/2-z
-x,y,1/2-z
-x,-y,-z
x,1/2+y,-z
-x,1/2+y,1/2+z
x,-y,1/2+z
1/2+x,1/2+y,z
1/2-x,-y,z
1/2+x,-y,1/2-z
1/2-x,1/2+y,1/2-z
1/2-x,1/2-y,-z
1/2+x,y,-z
1/2-x,y,1/2+z
1/2+x,1/2-y,1/2+z
loop_
_atom_site_type_symbol
_atom_site_label
_atom_site_fract_x
_atom_site_fract_y
_atom_site_fract_z
Si Si1 0.662876 0.450350 0.790952
Si Si2 0.308138 0.406135 0.498963
Si Si3 0.689359 0.215323 0.091762
Si Si4 0.000000 0.044504 0.250000
Si Si5 0.786587 0.626893 0.668976
Si Si6 0.043975 0.361882 0.374180
Si Si7 0.586848 0.501893 0.906524
O O1 0.750000 0.500000 0.803132
O O2 0.584033 0.516818 0.765036
O O3 0.682467 0.367912 0.736371
O O4 0.629011 0.423250 0.855733
O O5 0.250000 0.500000 0.471429
O O6 0.335850 0.315929 0.451688
O O7 0.254969 0.349757 0.551406
O O8 0.380228 0.466499 0.530799
O O9 0.726237 0.275539 0.149089
O O10 0.620116 0.126754 0.106058
O O11 0.980301 0.121894 0.305849
O O12 0.750000 0.500000 0.665097
O O13 0.861843 0.639956 0.625650
O O14 0.000000 0.250000 0.398110
O O15 0.005227 0.473491 0.402708
#
# Coordination Sequence:
#
# PCOD9506127 Si02
#       7
#    16  16  16   8  16  16  16
#     4   9  17  32  53  83 121 156 193 248 308 366
#     4   9  18  33  57  84 112 150 200 254 306 360
#     4  10  19  34  59  83 111 157 203 246 302 368
#     4   8  17  30  50  84 117 152 195 240 290 358
#     4  10  21  37  58  87 125 164 201 245 305 379
#     4  10  19  34  58  86 119 156 197 248 306 363
#     4  10  20  36  58  88 120 152 204 266 313 366
#
# _framework density 23.055095000000001
#
# number of rings (size 3 to 8) (size 9 to 14) (size 15 to 20)
#    0.000    2.462    0.000    3.000    0.000    1.231 
#    0.000   16.923    0.000   30.462    0.000   14.000 
#    0.000    0.000    0.000    0.000    0.000    0.000 
#
# Total GULP energy -289806.101618 kJ/mol
# GULP energy per Si atom -5573.194262 kJ/mol
# Density = 2.300262 g / cm^3
# Si number density = 23.055095 Si / 1000 Ang^3
#
#
#
# Elastic Constant Matrix: (Units=GPa)
#
#
# Indices 1 2 3 4 5 6 
#
# 1 108.4263 39.2318 0.3537 0.0000 0.0000 0.0000
# 2 39.2318 112.4637 16.7549 0.0000 0.0000 0.0000
# 3 0.3537 16.7549 69.9646 0.0000 0.0000 0.0000
# 4 0.0000 0.0000 0.0000 17.2733 0.0000 0.0000
# 5 0.0000 0.0000 0.0000 0.0000 7.0255 0.0000
# 6 0.0000 0.0000 0.0000 0.0000 0.0000 26.5486
#
#
#
# Elastic Compliance Matrix: (Units=1/GPa)
#
#
# Indices 1 2 3 4 5 6 
#
# 1 0.010605 -0.003828 0.000863 0.000000 0.000000 0.000000
# 2 -0.003828 0.010603 -0.002520 0.000000 0.000000 0.000000
# 3 0.000863 -0.002520 0.014892 0.000000 0.000000 0.000000
# 4 0.000000 0.000000 0.000000 0.057893 0.000000 0.000000
# 5 0.000000 0.000000 0.000000 0.000000 0.142338 0.000000
# 6 0.000000 0.000000 0.000000 0.000000 0.000000 0.037667
#
#
# Mechanical properties :
#
#
# Convention : Reuss Voigt Hill
#
# Bulk Modulus (GPa) = 39.79254 44.83728 42.31491
# Shear Modulus (GPa) = 17.04487 25.80377 21.42432
#
# Velocity S-wave (km/s) = 2.72198 3.34911 3.05169
# Velocity P-wave (km/s) = 5.21307 5.86903 5.55075
#
# Compressibility (1/GPa) = 0.02513034
#
# Stress axis : x y z
#
# Youngs Moduli (GPa) = 94.29372 94.31706 67.15014
#
# Poissons Ratio (x) = 0.36105 -0.05796
# Poissons Ratio (y) = 0.36097 0.16920
# Poissons Ratio (z) = -0.08139 0.23765
#
# Static dielectric constant tensor:
#      x y z
#    x 1.911280 0.000000 0.000000 
#    y 0.000000 1.901810 0.000000 
#    z 0.000000 0.000000 1.881840 
# 
# From -- ./inp_files/51428.got.cif
#   From: 2010.05.17/outbox.cif.g08.bks.cpg/sg68_26_cif.got.tgz:51428.got - 2010.06.03 18:57:09.
