data_PCOD9506482
_publ_section_title
;
Structure prediction by ZEFSAII (Michael W. Deem and Ramdas Pophale) SiO2 
 PCOD9506482
Probable space group: C C C A
;
_chemical_formula_sum "Si O2"
_cell_formula_units_Z 80
_cell_length_a 20.389637
_cell_length_b 25.083318
_cell_length_c 8.646901
_cell_angle_alpha 90.000000
_cell_angle_beta 90.000000
_cell_angle_gamma 90.000000
_cell_volume 4422.368875
_symmetry_space_group_name_H-M "C C C A"
_symmetry_group_IT_number 68
_space_group.IT_coordinate_system_code '2'
_symmetry_cell_setting 'orthorhombic'
loop_
_space_group_symop_operation_xyz
x,y,z
-x,1/2-y,z
x,1/2-y,1/2-z
-x,y,1/2-z
-x,-y,-z
x,1/2+y,-z
-x,1/2+y,1/2+z
x,-y,1/2+z
1/2+x,1/2+y,z
1/2-x,-y,z
1/2+x,-y,1/2-z
1/2-x,1/2+y,1/2-z
1/2-x,1/2-y,-z
1/2+x,y,-z
1/2-x,y,1/2+z
1/2+x,1/2-y,1/2+z
loop_
_atom_site_type_symbol
_atom_site_label
_atom_site_fract_x
_atom_site_fract_y
_atom_site_fract_z
Si Si1 0.200620 0.954162 0.653960
Si Si2 0.197696 0.639559 0.353523
Si Si3 0.110147 0.517447 0.588265
Si Si4 0.783109 0.788723 0.625291
Si Si5 0.433641 0.076631 0.197788
O O1 0.244952 0.903758 0.611504
O O2 0.151405 0.945298 0.795784
O O3 0.250000 0.000000 0.710226
O O4 0.159728 0.982139 0.517172
O O5 0.180435 0.669872 0.513109
O O6 0.229178 0.678925 0.225831
O O7 0.133199 0.610274 0.290568
O O8 0.066658 0.553020 0.475199
O O9 0.072424 0.474710 0.691210
O O10 0.818366 0.750000 0.750000
O O11 0.750000 0.750000 0.500000
O O12 0.500000 0.105421 0.250000
#
# Coordination Sequence:
#
# PCOD9506482 Si02
#       5
#    16  16  16  16  16
#     4  11  19  29  52  81 112 133 178 220 269 315
#     4  11  19  31  56  78 104 139 173 215 275 318
#     4  10  20  32  46  72 114 151 177 221 250 300
#     4   9  20  36  54  80 102 122 163 231 293 325
#     4  11  22  33  47  72 110 154 191 206 242 309
#
# _framework density 18.089853999999999
#
# number of rings (size 3 to 8) (size 9 to 14) (size 15 to 20)
#    0.000    1.600    4.000    3.600    0.000    0.000 
#    0.000    0.000    0.000    5.400    0.000    7.000 
#    0.000    0.000    0.000    0.000    0.000    0.000 
#
# Total GULP energy -222977.328840 kJ/mol
# GULP energy per Si atom -5574.433221 kJ/mol
# Density = 1.804868 g / cm^3
# Si number density = 18.089854 Si / 1000 Ang^3
#
#
#
# Elastic Constant Matrix: (Units=GPa)
#
#
# Indices 1 2 3 4 5 6 
#
# 1 67.3546 11.7078 19.1512 0.0000 0.0000 0.0000
# 2 11.7078 61.6826 14.9355 0.0000 0.0000 0.0000
# 3 19.1512 14.9355 82.0344 0.0000 0.0000 0.0000
# 4 0.0000 0.0000 0.0000 35.2420 0.0000 0.0000
# 5 0.0000 0.0000 0.0000 0.0000 13.4075 0.0000
# 6 0.0000 0.0000 0.0000 0.0000 0.0000 3.2159
#
#
#
# Elastic Compliance Matrix: (Units=1/GPa)
#
#
# Indices 1 2 3 4 5 6 
#
# 1 0.016198 -0.002258 -0.003370 0.000000 0.000000 0.000000
# 2 -0.002258 0.017275 -0.002618 0.000000 0.000000 0.000000
# 3 -0.003370 -0.002618 0.013453 0.000000 0.000000 0.000000
# 4 0.000000 0.000000 0.000000 0.028375 0.000000 0.000000
# 5 0.000000 0.000000 0.000000 0.000000 0.074585 0.000000
# 6 0.000000 0.000000 0.000000 0.000000 0.000000 0.310954
#
#
# Mechanical properties :
#
#
# Convention : Reuss Voigt Hill
#
# Bulk Modulus (GPa) = 32.85937 33.62894 33.24416
# Shear Modulus (GPa) = 10.25690 21.39156 15.82423
#
# Velocity S-wave (km/s) = 2.38375 3.44251 2.96084
# Velocity P-wave (km/s) = 5.07743 5.86783 5.48688
#
# Compressibility (1/GPa) = 0.03043272
#
# Stress axis : x y z
#
# Youngs Moduli (GPa) = 61.73747 57.88860 74.33063
#
# Poissons Ratio (x) = 0.13073 0.25051
# Poissons Ratio (y) = 0.13943 0.19459
# Poissons Ratio (z) = 0.20807 0.15154
#
# Static dielectric constant tensor:
#      x y z
#    x 1.673110 0.000000 0.000000 
#    y 0.000000 1.651690 0.000000 
#    z 0.000000 0.000000 1.667500 
# 
# From -- ./inp_files/6218.got.cif
#   From: 2010.05.17/outbox.cif.g08.bks.cpg/sg68_4_cif.got.tgz:6218.got - 2010.06.03 18:57:09.
