data_PCOD9506321
_publ_section_title
;
Structure prediction by ZEFSAII (Michael W. Deem and Ramdas Pophale) SiO2 
 PCOD9506321
Probable space group: C C C A
;
_chemical_formula_sum "Si O2"
_cell_formula_units_Z 104
_cell_length_a 13.910873
_cell_length_b 22.024305
_cell_length_c 17.197279
_cell_angle_alpha 90.000000
_cell_angle_beta 90.000000
_cell_angle_gamma 90.000000
_cell_volume 5268.856075
_symmetry_space_group_name_H-M "C C C A"
_symmetry_group_IT_number 68
_space_group.IT_coordinate_system_code '2'
_symmetry_cell_setting 'orthorhombic'
loop_
_space_group_symop_operation_xyz
x,y,z
-x,1/2-y,z
x,1/2-y,1/2-z
-x,y,1/2-z
-x,-y,-z
x,1/2+y,-z
-x,1/2+y,1/2+z
x,-y,1/2+z
1/2+x,1/2+y,z
1/2-x,-y,z
1/2+x,-y,1/2-z
1/2-x,1/2+y,1/2-z
1/2-x,1/2-y,-z
1/2+x,y,-z
1/2-x,y,1/2+z
1/2+x,1/2-y,1/2+z
loop_
_atom_site_type_symbol
_atom_site_label
_atom_site_fract_x
_atom_site_fract_y
_atom_site_fract_z
Si Si1 0.102338 0.560203 0.464818
Si Si2 0.221540 0.928596 0.614195
Si Si3 0.639051 0.841934 0.083591
Si Si4 0.500000 0.250000 0.526387
Si Si5 0.853618 0.851418 0.027762
Si Si6 0.111258 0.571849 0.725881
Si Si7 0.404276 0.027133 0.399204
O O1 0.171455 0.594291 0.404268
O O2 0.078893 0.613394 0.525641
O O3 0.140026 0.511293 0.528904
O O4 0.018307 0.527195 0.417899
O O5 0.156622 0.891456 0.552230
O O6 0.175717 0.924680 0.697912
O O7 0.250000 0.000000 0.602050
O O8 0.577090 0.782125 0.081738
O O9 0.641379 0.876518 0.164916
O O10 0.745401 0.830794 0.049465
O O11 0.432537 0.201960 0.478692
O O12 0.876748 0.902974 0.092183
O O13 0.120257 0.507952 0.679279
O O14 0.000000 0.578597 0.750000
#
# Coordination Sequence:
#
# PCOD9506321 Si02
#       7
#    16  16  16   8  16  16  16
#     4   9  18  35  62  90 124 168 205 259 323 388
#     4  11  21  36  60  95 133 162 201 254 329 402
#     4  10  23  39  64  94 126 166 219 269 322 370
#     4  12  22  44  67  88 125 170 232 278 298 372
#     4  11  23  40  66  95 123 171 216 269 320 377
#     4  11  24  37  60 101 138 163 202 258 334 406
#     4  10  19  37  60  91 131 164 204 261 327 379
#
# _framework density 19.738630000000001
#
# number of rings (size 3 to 8) (size 9 to 14) (size 15 to 20)
#    0.000    1.538    3.077    2.308    4.308    0.000 
#    0.000    3.462    0.000    0.000    0.000    4.846 
#    0.000    0.000    0.000    0.000    0.000    0.000 
#
# Total GULP energy -289487.716483 kJ/mol
# GULP energy per Si atom -5567.071471 kJ/mol
# Density = 1.969370 g / cm^3
# Si number density = 19.738630 Si / 1000 Ang^3
#
#
#
# Elastic Constant Matrix: (Units=GPa)
#
#
# Indices 1 2 3 4 5 6 
#
# 1 112.4525 48.5969 66.5693 0.0000 0.0000 0.0000
# 2 48.5969 83.0401 24.8357 0.0000 0.0000 0.0000
# 3 66.5693 24.8357 120.7611 0.0000 0.0000 0.0000
# 4 0.0000 0.0000 0.0000 8.2403 0.0000 0.0000
# 5 0.0000 0.0000 0.0000 0.0000 28.7085 0.0000
# 6 0.0000 0.0000 0.0000 0.0000 0.0000 22.0143
#
#
#
# Elastic Compliance Matrix: (Units=1/GPa)
#
#
# Indices 1 2 3 4 5 6 
#
# 1 0.016633 -0.007450 -0.007637 0.000000 0.000000 0.000000
# 2 -0.007450 0.016169 0.000782 0.000000 0.000000 0.000000
# 3 -0.007637 0.000782 0.012330 0.000000 0.000000 0.000000
# 4 0.000000 0.000000 0.000000 0.121355 0.000000 0.000000
# 5 0.000000 0.000000 0.000000 0.000000 0.034833 0.000000
# 6 0.000000 0.000000 0.000000 0.000000 0.000000 0.045425
#
#
# Mechanical properties :
#
#
# Convention : Reuss Voigt Hill
#
# Bulk Modulus (GPa) = 60.52895 66.25084 63.38989
# Shear Modulus (GPa) = 17.80235 23.54272 20.67254
#
# Velocity S-wave (km/s) = 3.00643 3.45733 3.23973
# Velocity P-wave (km/s) = 6.54089 7.04091 6.79550
#
# Compressibility (1/GPa) = 0.01652102
#
# Stress axis : x y z
#
# Youngs Moduli (GPa) = 60.12161 61.84858 81.10429
#
# Poissons Ratio (x) = 0.46077 0.61937
# Poissons Ratio (y) = 0.44790 -0.06339
# Poissons Ratio (z) = 0.45913 -0.04834
#
# Static dielectric constant tensor:
#      x y z
#    x 2.105300 0.000000 0.000000 
#    y 0.000000 1.864850 0.000000 
#    z 0.000000 0.000000 1.672760 
# 
# From -- ./inp_files/31124.got.cif
#   From: 2010.05.17/outbox.cif.g08.bks.cpg/sg68_16_cif.got.tgz:31124.got - 2010.06.03 18:57:09.
