data_PCOD9506454
_publ_section_title
;
Structure prediction by ZEFSAII (Michael W. Deem and Ramdas Pophale) SiO2 
 PCOD9506454
Probable space group: C C C A
;
_chemical_formula_sum "Si O2"
_cell_formula_units_Z 116
_cell_length_a 16.286805
_cell_length_b 17.800260
_cell_length_c 15.747294
_cell_angle_alpha 90.000000
_cell_angle_beta 90.000000
_cell_angle_gamma 90.000000
_cell_volume 4565.287981
_symmetry_space_group_name_H-M "C C C A"
_symmetry_group_IT_number 68
_space_group.IT_coordinate_system_code '2'
_symmetry_cell_setting 'orthorhombic'
loop_
_space_group_symop_operation_xyz
x,y,z
-x,1/2-y,z
x,1/2-y,1/2-z
-x,y,1/2-z
-x,-y,-z
x,1/2+y,-z
-x,1/2+y,1/2+z
x,-y,1/2+z
1/2+x,1/2+y,z
1/2-x,-y,z
1/2+x,-y,1/2-z
1/2-x,1/2+y,1/2-z
1/2-x,1/2-y,-z
1/2+x,y,-z
1/2-x,y,1/2+z
1/2+x,1/2-y,1/2+z
loop_
_atom_site_type_symbol
_atom_site_label
_atom_site_fract_x
_atom_site_fract_y
_atom_site_fract_z
Si Si1 0.688102 0.093074 0.536839
Si Si2 0.441680 0.503377 0.334781
Si Si3 0.906471 0.549552 0.422846
Si Si4 0.360741 0.838654 0.654905
Si Si5 0.595040 0.269242 0.990273
Si Si6 0.155057 0.629338 0.926541
Si Si7 0.720628 0.084548 0.210813
Si Si8 0.000000 0.750000 0.250000
O O1 0.659072 0.007990 0.537469
O O2 0.607431 0.143794 0.533883
O O3 0.752991 0.111375 0.461360
O O4 0.727203 0.106769 0.628777
O O5 0.500000 0.511062 0.250000
O O6 0.509950 0.492315 0.406888
O O7 0.387739 0.427508 0.350621
O O8 0.383178 0.574863 0.355160
O O9 0.902506 0.616263 0.489101
O O10 0.869516 0.574962 0.332278
O O11 0.354605 0.777086 0.579238
O O12 0.284056 0.851444 0.717977
O O13 0.440667 0.803903 0.698668
O O14 0.500000 0.250000 0.000058
O O15 0.640072 0.217947 0.920379
O O16 0.750000 0.000000 0.236721
#
# Coordination Sequence:
#
# PCOD9506454 Si02
#       8
#    16  16  16  16  16  16  16   4
#     4  10  23  44  69  95 142 194 246 303 374 445
#     4  12  23  41  70 109 143 193 252 309 370 451
#     4  10  19  41  67  95 136 191 240 305 362 435
#     4  12  24  40  69 103 149 181 239 308 382 437
#     4  12  25  43  69 105 141 191 246 309 368 449
#     4  11  24  41  68 100 144 187 249 300 368 449
#     4   9  20  39  67  98 140 191 242 305 376 452
#     4  12  24  40  60 104 152 176 226 300 384 440
#
# _framework density 25.409130999999999
#
# number of rings (size 3 to 8) (size 9 to 14) (size 15 to 20)
#    0.000    1.103    2.759    4.552    3.862    1.103 
#    0.000    0.000    3.034    2.897    0.000    0.000 
#    0.000    0.000    0.000    0.000    0.000    0.000 
#
# Total GULP energy -323662.016247 kJ/mol
# GULP energy per Si atom -5580.379590 kJ/mol
# Density = 2.535130 g / cm^3
# Si number density = 25.409131 Si / 1000 Ang^3
#
#
#
# Elastic Constant Matrix: (Units=GPa)
#
#
# Indices 1 2 3 4 5 6 
#
# 1 95.8576 13.5747 11.2671 0.0000 0.0000 0.0000
# 2 13.5747 89.0334 9.2053 0.0000 0.0000 0.0000
# 3 11.2671 9.2053 79.8209 0.0000 0.0000 0.0000
# 4 0.0000 0.0000 0.0000 34.6627 0.0000 0.0000
# 5 0.0000 0.0000 0.0000 0.0000 30.3002 0.0000
# 6 0.0000 0.0000 0.0000 0.0000 0.0000 57.1356
#
#
#
# Elastic Compliance Matrix: (Units=1/GPa)
#
#
# Indices 1 2 3 4 5 6 
#
# 1 0.010804 -0.001508 -0.001351 0.000000 0.000000 0.000000
# 2 -0.001508 0.011578 -0.001122 0.000000 0.000000 0.000000
# 3 -0.001351 -0.001122 0.012848 0.000000 0.000000 0.000000
# 4 0.000000 0.000000 0.000000 0.028849 0.000000 0.000000
# 5 0.000000 0.000000 0.000000 0.000000 0.033003 0.000000
# 6 0.000000 0.000000 0.000000 0.000000 0.000000 0.017502
#
#
# Mechanical properties :
#
#
# Convention : Reuss Voigt Hill
#
# Bulk Modulus (GPa) = 36.67323 36.97847 36.82585
# Shear Modulus (GPa) = 37.98327 39.79734 38.89030
#
# Velocity S-wave (km/s) = 3.87055 3.96190 3.91649
# Velocity P-wave (km/s) = 5.86850 5.95933 5.91409
#
# Compressibility (1/GPa) = 0.02726785
#
# Stress axis : x y z
#
# Youngs Moduli (GPa) = 92.55429 86.37332 77.83179
#
# Poissons Ratio (x) = 0.13022 0.10517
# Poissons Ratio (y) = 0.13954 0.08736
# Poissons Ratio (z) = 0.12506 0.09694
#
# Static dielectric constant tensor:
#      x y z
#    x 2.023430 0.000000 0.000000 
#    y 0.000000 1.957060 0.000000 
#    z 0.000000 0.000000 2.126520 
# 
# From -- ./inp_files/32143.got.cif
#   From: 2010.05.17/outbox.cif.g08.bks.cpg/sg68_17_cif.got.tgz:32143.got - 2010.06.03 18:57:09.
