data_PCOD9506578
_publ_section_title
;
Structure prediction by ZEFSAII (Michael W. Deem and Ramdas Pophale) SiO2 
 PCOD9506578
Probable space group: C C C A
;
_chemical_formula_sum "Si O2"
_cell_formula_units_Z 64
_cell_length_a 8.560891
_cell_length_b 21.556439
_cell_length_c 16.497754
_cell_angle_alpha 90.000000
_cell_angle_beta 90.000000
_cell_angle_gamma 90.000000
_cell_volume 3044.533874
_symmetry_space_group_name_H-M "C C C A"
_symmetry_group_IT_number 68
_space_group.IT_coordinate_system_code '2'
_symmetry_cell_setting 'orthorhombic'
loop_
_space_group_symop_operation_xyz
x,y,z
-x,1/2-y,z
x,1/2-y,1/2-z
-x,y,1/2-z
-x,-y,-z
x,1/2+y,-z
-x,1/2+y,1/2+z
x,-y,1/2+z
1/2+x,1/2+y,z
1/2-x,-y,z
1/2+x,-y,1/2-z
1/2-x,1/2+y,1/2-z
1/2-x,1/2-y,-z
1/2+x,y,-z
1/2-x,y,1/2+z
1/2+x,1/2-y,1/2+z
loop_
_atom_site_type_symbol
_atom_site_label
_atom_site_fract_x
_atom_site_fract_y
_atom_site_fract_z
Si Si1 0.169348 0.640366 0.532671
Si Si2 0.421386 0.056596 0.170265
Si Si3 0.386070 0.565814 0.409272
Si Si4 0.540690 0.185494 0.112487
O O1 0.282719 0.591342 0.485038
O O2 0.281933 0.684012 0.583290
O O3 0.042604 0.605442 0.587374
O O4 0.073666 0.678325 0.465287
O O5 0.500000 0.028352 0.250000
O O6 0.235964 0.071808 0.166131
O O7 0.510133 0.120942 0.157440
O O8 0.435410 0.006333 0.097555
O O9 0.500000 0.250000 0.154073
#
# Coordination Sequence:
#
# PCOD9506578 Si02
#       4
#    16  16  16  16
#     4   9  19  35  57  85 110 133 176 236 293 340
#     4  10  22  36  51  75 109 148 187 224 269 335
#     4   9  20  36  57  83 111 140 179 236 296 340
#     4  10  20  34  54  79 108 144 179 222 275 330
#
# _framework density 21.021279
#
# number of rings (size 3 to 8) (size 9 to 14) (size 15 to 20)
#    0.000    2.500    0.000    0.750    0.000   23.500 
#    0.000    0.000    0.000    0.000    0.000   10.500 
#    0.000    0.000    0.000    0.000    0.000    0.000 
#
# Total GULP energy -178257.726799 kJ/mol
# GULP energy per Si atom -5570.553962 kJ/mol
# Density = 2.097343 g / cm^3
# Si number density = 21.021279 Si / 1000 Ang^3
#
#
#
# Elastic Constant Matrix: (Units=GPa)
#
#
# Indices 1 2 3 4 5 6 
#
# 1 126.2030 18.4349 34.7399 0.0000 0.0000 0.0000
# 2 18.4349 67.6239 12.8297 0.0000 0.0000 0.0000
# 3 34.7399 12.8297 45.7735 0.0000 0.0000 0.0000
# 4 0.0000 0.0000 0.0000 6.3889 0.0000 0.0000
# 5 0.0000 0.0000 0.0000 0.0000 21.2544 0.0000
# 6 0.0000 0.0000 0.0000 0.0000 0.0000 24.8211
#
#
#
# Elastic Compliance Matrix: (Units=1/GPa)
#
#
# Indices 1 2 3 4 5 6 
#
# 1 0.010136 -0.001377 -0.007307 0.000000 0.000000 0.000000
# 2 -0.001377 0.015805 -0.003385 0.000000 0.000000 0.000000
# 3 -0.007307 -0.003385 0.028341 0.000000 0.000000 0.000000
# 4 0.000000 0.000000 0.000000 0.156521 0.000000 0.000000
# 5 0.000000 0.000000 0.000000 0.000000 0.047049 0.000000
# 6 0.000000 0.000000 0.000000 0.000000 0.000000 0.040288
#
#
# Mechanical properties :
#
#
# Convention : Reuss Voigt Hill
#
# Bulk Modulus (GPa) = 33.17322 41.28997 37.23159
# Shear Modulus (GPa) = 15.04541 22.06595 18.55568
#
# Velocity S-wave (km/s) = 2.67820 3.24342 2.97427
# Velocity P-wave (km/s) = 5.03773 5.80611 5.43552
#
# Compressibility (1/GPa) = 0.03014480
#
# Stress axis : x y z
#
# Youngs Moduli (GPa) = 98.65552 63.27018 35.28441
#
# Poissons Ratio (x) = 0.08712 0.25782
# Poissons Ratio (y) = 0.13584 0.11944
# Poissons Ratio (z) = 0.72088 0.21417
#
# Static dielectric constant tensor:
#      x y z
#    x 1.771610 0.000000 0.000000 
#    y 0.000000 1.800500 0.000000 
#    z 0.000000 0.000000 1.802520 
# 
# From -- ./inp_files/27892.got.cif
#   From: 2010.05.17/outbox.cif.g08.bks.cpg/sg68_14_cif.got.tgz:27892.got - 2010.06.03 18:57:09.
