data_PCOD9506623
_publ_section_title
;
Structure prediction by ZEFSAII (Michael W. Deem and Ramdas Pophale) SiO2 
 PCOD9506623
Probable space group: C C C A
;
_chemical_formula_sum "Si O2"
_cell_formula_units_Z 84
_cell_length_a 10.493052
_cell_length_b 18.273675
_cell_length_c 24.733835
_cell_angle_alpha 90.000000
_cell_angle_beta 90.000000
_cell_angle_gamma 90.000000
_cell_volume 4742.629311
_symmetry_space_group_name_H-M "C C C A"
_symmetry_group_IT_number 68
_space_group.IT_coordinate_system_code '2'
_symmetry_cell_setting 'orthorhombic'
loop_
_space_group_symop_operation_xyz
x,y,z
-x,1/2-y,z
x,1/2-y,1/2-z
-x,y,1/2-z
-x,-y,-z
x,1/2+y,-z
-x,1/2+y,1/2+z
x,-y,1/2+z
1/2+x,1/2+y,z
1/2-x,-y,z
1/2+x,-y,1/2-z
1/2-x,1/2+y,1/2-z
1/2-x,1/2-y,-z
1/2+x,y,-z
1/2-x,y,1/2+z
1/2+x,1/2-y,1/2+z
loop_
_atom_site_type_symbol
_atom_site_label
_atom_site_fract_x
_atom_site_fract_y
_atom_site_fract_z
Si Si1 0.750000 0.500000 0.773088
Si Si2 0.000000 0.422796 0.750000
Si Si3 0.352319 0.644806 0.166937
Si Si4 0.903192 0.586777 0.948168
Si Si5 0.427901 0.174653 0.352721
Si Si6 0.000000 0.250000 0.250000
Si Si7 0.892810 0.411890 0.960155
O O1 0.627570 0.529727 0.741137
O O2 0.694881 0.433061 0.808617
O O3 0.025402 0.373516 0.697718
O O4 0.420222 0.624050 0.110512
O O5 0.222474 0.687275 0.153794
O O6 0.425243 0.694399 0.210161
O O7 0.903788 0.498170 0.945855
O O8 0.758196 0.604887 0.967740
O O9 0.016537 0.606004 0.989291
O O10 0.500000 0.250000 0.353463
O O11 0.442666 0.131206 0.408244
#
# Coordination Sequence:
#
# PCOD9506623 Si02
#       7
#     8   8  16  16  16   4  16
#     4  10  20  38  60  86 112 156 202 246 294 364
#     4  10  20  34  60  82 112 148 192 244 291 339
#     4  10  22  39  60  83 123 159 192 245 306 356
#     4   9  17  37  60  84 113 149 194 244 291 346
#     4  10  21  37  56  81 114 157 192 234 286 361
#     4  12  26  40  58  94 128 162 200 252 318 368
#     4   9  18  35  60  85 112 149 195 242 293 342
#
# _framework density 17.711694999999999
#
# number of rings (size 3 to 8) (size 9 to 14) (size 15 to 20)
#    0.000    2.286    0.000    4.286    5.333    0.000 
#    5.143    5.714    0.000    0.000    0.000    0.000 
#    0.000    0.000    0.000    0.000    0.000    0.000 
#
# Total GULP energy -234096.891005 kJ/mol
# GULP energy per Si atom -5573.735500 kJ/mol
# Density = 1.767138 g / cm^3
# Si number density = 17.711695 Si / 1000 Ang^3
#
#
#
# Elastic Constant Matrix: (Units=GPa)
#
#
# Indices 1 2 3 4 5 6 
#
# 1 98.6486 61.5459 85.7750 0.0000 0.0000 0.0000
# 2 61.5459 78.5651 60.6132 0.0000 0.0000 0.0000
# 3 85.7750 60.6132 139.3885 0.0000 0.0000 0.0000
# 4 0.0000 0.0000 0.0000 35.2251 0.0000 0.0000
# 5 0.0000 0.0000 0.0000 0.0000 35.7208 0.0000
# 6 0.0000 0.0000 0.0000 0.0000 0.0000 32.4692
#
#
#
# Elastic Compliance Matrix: (Units=1/GPa)
#
#
# Indices 1 2 3 4 5 6 
#
# 1 0.028898 -0.013421 -0.011947 0.000000 0.000000 0.000000
# 2 -0.013421 0.025387 -0.002781 0.000000 0.000000 0.000000
# 3 -0.011947 -0.002781 0.015735 0.000000 0.000000 0.000000
# 4 0.000000 0.000000 0.000000 0.028389 0.000000 0.000000
# 5 0.000000 0.000000 0.000000 0.000000 0.027995 0.000000
# 6 0.000000 0.000000 0.000000 0.000000 0.000000 0.030798
#
#
# Mechanical properties :
#
#
# Convention : Reuss Voigt Hill
#
# Bulk Modulus (GPa) = 72.86909 81.38560 77.12734
# Shear Modulus (GPa) = 22.92803 27.92756 25.42779
#
# Velocity S-wave (km/s) = 3.60184 3.97519 3.79311
# Velocity P-wave (km/s) = 7.65041 8.19264 7.92616
#
# Compressibility (1/GPa) = 0.01372324
#
# Stress axis : x y z
#
# Youngs Moduli (GPa) = 34.60477 39.38960 63.55248
#
# Poissons Ratio (x) = 0.52864 0.75924
# Poissons Ratio (y) = 0.46443 0.17674
# Poissons Ratio (z) = 0.41341 0.10954
#
# Static dielectric constant tensor:
#      x y z
#    x 1.614160 0.000000 0.000000 
#    y 0.000000 1.623070 0.000000 
#    z 0.000000 0.000000 1.599890 
# 
# From -- ./inp_files/37419.got.cif
#   From: 2010.05.17/outbox.cif.g08.bks.cpg/sg68_19_cif.got.tgz:37419.got - 2010.06.03 18:57:09.
