data_PCOD9506898
_publ_section_title
;
Structure prediction by ZEFSAII (Michael W. Deem and Ramdas Pophale) SiO2 
 PCOD9506898
Probable space group: C C C A
;
_chemical_formula_sum "Si O2"
_cell_formula_units_Z 68
_cell_length_a 21.748992
_cell_length_b 9.398741
_cell_length_c 15.684454
_cell_angle_alpha 90.000000
_cell_angle_beta 90.000000
_cell_angle_gamma 90.000000
_cell_volume 3206.108536
_symmetry_space_group_name_H-M "C C C A"
_symmetry_group_IT_number 68
_space_group.IT_coordinate_system_code '2'
_symmetry_cell_setting 'orthorhombic'
loop_
_space_group_symop_operation_xyz
x,y,z
-x,1/2-y,z
x,1/2-y,1/2-z
-x,y,1/2-z
-x,-y,-z
x,1/2+y,-z
-x,1/2+y,1/2+z
x,-y,1/2+z
1/2+x,1/2+y,z
1/2-x,-y,z
1/2+x,-y,1/2-z
1/2-x,1/2+y,1/2-z
1/2-x,1/2-y,-z
1/2+x,y,-z
1/2-x,y,1/2+z
1/2+x,1/2-y,1/2+z
loop_
_atom_site_type_symbol
_atom_site_label
_atom_site_fract_x
_atom_site_fract_y
_atom_site_fract_z
Si Si1 0.696079 0.164969 0.112437
Si Si2 0.402629 0.544784 0.323548
Si Si3 0.184730 0.453460 0.968470
Si Si4 0.500000 0.250000 0.750000
Si Si5 0.097200 0.250000 0.750000
Si Si6 0.700480 0.250000 0.750000
O O1 0.687926 0.284235 0.038800
O O2 0.640025 0.189729 0.175443
O O3 0.754908 0.200692 0.172213
O O4 0.687561 0.018022 0.062487
O O5 0.372839 0.511387 0.415387
O O6 0.456524 0.656859 0.310900
O O7 0.429568 0.394946 0.288482
O O8 0.344163 0.617331 0.274157
O O9 0.250000 0.500000 0.926764
#
# Coordination Sequence:
#
# PCOD9506898 Si02
#       6
#    16  16  16   4   8   8
#     4  10  22  34  57  91 135 167 196 245 330 384
#     4  10  22  40  61  88 122 162 224 258 312 365
#     4  11  21  35  54  94 128 166 200 260 319 389
#     4  10  24  44  72  84 114 184 218 278 296 364
#     4   9  22  38  60  92 123 159 203 264 310 388
#     4  10  20  37  54  88 128 169 206 246 306 403
#
# _framework density 21.209513000000001
#
# number of rings (size 3 to 8) (size 9 to 14) (size 15 to 20)
#    0.000    1.882    2.353    0.706    3.294    2.353 
#    0.000    0.000    0.000   12.706    0.000    0.000 
#    0.000    0.000    0.000    0.000    0.000    0.000 
#
# Total GULP energy -189502.676538 kJ/mol
# GULP energy per Si atom -5573.608133 kJ/mol
# Density = 2.116124 g / cm^3
# Si number density = 21.209513 Si / 1000 Ang^3
#
#
#
# Elastic Constant Matrix: (Units=GPa)
#
#
# Indices 1 2 3 4 5 6 
#
# 1 88.3881 16.5796 37.0934 0.0000 0.0000 0.0000
# 2 16.5796 72.3013 61.5513 0.0000 0.0000 0.0000
# 3 37.0934 61.5513 112.4665 0.0000 0.0000 0.0000
# 4 0.0000 0.0000 0.0000 36.2888 0.0000 0.0000
# 5 0.0000 0.0000 0.0000 0.0000 11.3132 0.0000
# 6 0.0000 0.0000 0.0000 0.0000 0.0000 5.5205
#
#
#
# Elastic Compliance Matrix: (Units=1/GPa)
#
#
# Indices 1 2 3 4 5 6 
#
# 1 0.013193 0.001271 -0.005047 0.000000 0.000000 0.000000
# 2 0.001271 0.026019 -0.014659 0.000000 0.000000 0.000000
# 3 -0.005047 -0.014659 0.018579 0.000000 0.000000 0.000000
# 4 0.000000 0.000000 0.000000 0.027557 0.000000 0.000000
# 5 0.000000 0.000000 0.000000 0.000000 0.088392 0.000000
# 6 0.000000 0.000000 0.000000 0.000000 0.000000 0.181142
#
#
# Mechanical properties :
#
#
# Convention : Reuss Voigt Hill
#
# Bulk Modulus (GPa) = 47.79799 55.95605 51.87702
# Shear Modulus (GPa) = 12.53993 21.15328 16.84660
#
# Velocity S-wave (km/s) = 2.43418 3.16151 2.82138
# Velocity P-wave (km/s) = 5.52135 6.30608 5.92672
#
# Compressibility (1/GPa) = 0.02092138
#
# Stress axis : x y z
#
# Youngs Moduli (GPa) = 75.79545 38.43327 53.82427
#
# Poissons Ratio (x) = -0.04886 0.27166
# Poissons Ratio (y) = -0.09636 0.78902
# Poissons Ratio (z) = 0.38256 0.56340
#
# Static dielectric constant tensor:
#      x y z
#    x 1.771370 0.000000 0.000000 
#    y 0.000000 1.874730 0.000000 
#    z 0.000000 0.000000 1.775900 
# 
# From -- ./inp_files/32602.got.cif
#   From: 2010.05.17/outbox.cif.g08.bks.cpg/sg68_17_cif.got.tgz:32602.got - 2010.06.03 18:57:09.
