data_PCOD9506256
_publ_section_title
;
Structure prediction by ZEFSAII (Michael W. Deem and Ramdas Pophale) SiO2 
 PCOD9506256
Probable space group: C C C A
;
_chemical_formula_sum "Si O2"
_cell_formula_units_Z 48
_cell_length_a 5.086446
_cell_length_b 31.095966
_cell_length_c 15.197404
_cell_angle_alpha 90.000000
_cell_angle_beta 90.000000
_cell_angle_gamma 90.000000
_cell_volume 2403.742265
_symmetry_space_group_name_H-M "C C C A"
_symmetry_group_IT_number 68
_space_group.IT_coordinate_system_code '2'
_symmetry_cell_setting 'orthorhombic'
loop_
_space_group_symop_operation_xyz
x,y,z
-x,1/2-y,z
x,1/2-y,1/2-z
-x,y,1/2-z
-x,-y,-z
x,1/2+y,-z
-x,1/2+y,1/2+z
x,-y,1/2+z
1/2+x,1/2+y,z
1/2-x,-y,z
1/2+x,-y,1/2-z
1/2-x,1/2+y,1/2-z
1/2-x,1/2-y,-z
1/2+x,y,-z
1/2-x,y,1/2+z
1/2+x,1/2-y,1/2+z
loop_
_atom_site_type_symbol
_atom_site_label
_atom_site_fract_x
_atom_site_fract_y
_atom_site_fract_z
Si Si1 0.551433 0.344222 0.936029
Si Si2 0.750000 0.000000 0.562547
Si Si3 0.000000 0.750000 0.563734
Si Si4 0.741796 0.419693 0.809589
O O1 0.529448 0.296560 0.892069
O O2 0.632998 0.378647 0.863263
O O3 0.275526 0.348765 0.988023
O O4 0.787390 0.041997 0.622271
O O5 0.500000 0.000000 0.500000
O O6 0.250000 0.750000 0.500000
O O7 0.500000 0.434577 0.750000
O O8 0.000000 0.411036 0.750000
#
# Coordination Sequence:
#
# PCOD9506256 Si02
#       4
#    16   8   8  16
#     4  10  19  36  59  84 111 151 198 239 282 344
#     4  12  24  42  64  86 112 156 206 246 286 354
#     4   8  16  30  55  82 107 140 190 240 276 322
#     4  12  24  39  58  87 123 155 189 244 306 356
#
# _framework density 19.968862999999999
#
# number of rings (size 3 to 8) (size 9 to 14) (size 15 to 20)
#    0.000    1.333    0.000    7.000    0.000    0.000 
#    0.000    0.833    0.000    2.000    0.000    0.000 
#    0.000    0.000    0.000    0.000    0.000    0.000 
#
# Total GULP energy -133874.098582 kJ/mol
# GULP energy per Si atom -5578.087441 kJ/mol
# Density = 1.992341 g / cm^3
# Si number density = 19.968863 Si / 1000 Ang^3
#
#
#
# Elastic Constant Matrix: (Units=GPa)
#
#
# Indices 1 2 3 4 5 6 
#
# 1 135.9678 11.7882 32.0353 0.0000 0.0000 0.0000
# 2 11.7882 161.9585 59.3835 0.0000 0.0000 0.0000
# 3 32.0353 59.3835 86.3314 0.0000 0.0000 0.0000
# 4 0.0000 0.0000 0.0000 8.0715 0.0000 0.0000
# 5 0.0000 0.0000 0.0000 0.0000 -32.5444 0.0000
# 6 0.0000 0.0000 0.0000 0.0000 0.0000 26.9487
#
#
#
# Elastic Compliance Matrix: (Units=1/GPa)
#
#
# Indices 1 2 3 4 5 6 
#
# 1 0.008116 0.000687 -0.003484 0.000000 0.000000 0.000000
# 2 0.000687 0.008315 -0.005974 0.000000 0.000000 0.000000
# 3 -0.003484 -0.005974 0.016986 0.000000 0.000000 0.000000
# 4 0.000000 0.000000 0.000000 0.123893 0.000000 0.000000
# 5 0.000000 0.000000 0.000000 0.000000 -0.030727 0.000000
# 6 0.000000 0.000000 0.000000 0.000000 0.000000 0.037108
#
#
# Mechanical properties :
#
#
# Convention : Reuss Voigt Hill
#
# Bulk Modulus (GPa) = 62.99874 65.63019 64.31446
# Shear Modulus (GPa) = 26.80613 19.23187 23.01900
#
# Velocity S-wave (km/s) = 3.66785 3.10674 3.39889
# Velocity P-wave (km/s) = 7.03949 6.76807 6.90511
#
# Compressibility (1/GPa) = 0.01587333
#
# Stress axis : x y z
#
# Youngs Moduli (GPa) = 123.21331 120.26488 58.87352
#
# Poissons Ratio (x) = -0.08259 0.20512
# Poissons Ratio (y) = -0.08461 0.35173
# Poissons Ratio (z) = 0.42927 0.71850
#
# Static dielectric constant tensor:
#      x y z
#    x 1.715040 0.000000 0.000000 
#    y 0.000000 1.770790 0.000000 
#    z 0.000000 0.000000 1.770400 
# 
# From -- ./inp_files/18219.got.cif
#   From: 2010.05.17/outbox.cif.g08.bks.cpg/sg68_10_cif.got.tgz:18219.got - 2010.06.03 18:57:09.
