data_PCOD9506858
_publ_section_title
;
Structure prediction by ZEFSAII (Michael W. Deem and Ramdas Pophale) SiO2 
 PCOD9506858
Probable space group: C C C A
;
_chemical_formula_sum "Si O2"
_cell_formula_units_Z 108
_cell_length_a 14.693466
_cell_length_b 16.184032
_cell_length_c 22.978075
_cell_angle_alpha 90.000000
_cell_angle_beta 90.000000
_cell_angle_gamma 90.000000
_cell_volume 5464.175296
_symmetry_space_group_name_H-M "C C C A"
_symmetry_group_IT_number 68
_space_group.IT_coordinate_system_code '2'
_symmetry_cell_setting 'orthorhombic'
loop_
_space_group_symop_operation_xyz
x,y,z
-x,1/2-y,z
x,1/2-y,1/2-z
-x,y,1/2-z
-x,-y,-z
x,1/2+y,-z
-x,1/2+y,1/2+z
x,-y,1/2+z
1/2+x,1/2+y,z
1/2-x,-y,z
1/2+x,-y,1/2-z
1/2-x,1/2+y,1/2-z
1/2-x,1/2-y,-z
1/2+x,y,-z
1/2-x,y,1/2+z
1/2+x,1/2-y,1/2+z
loop_
_atom_site_type_symbol
_atom_site_label
_atom_site_fract_x
_atom_site_fract_y
_atom_site_fract_z
Si Si1 0.674391 0.931230 0.382092
Si Si2 0.581690 0.950497 0.795892
Si Si3 0.947700 0.586431 0.504442
Si Si4 0.462550 0.841156 0.880828
Si Si5 0.851204 0.263264 0.162148
Si Si6 0.689994 0.167166 0.215829
Si Si7 0.000000 0.750000 0.750000
Si Si8 0.000000 0.250000 0.434623
O O1 0.628728 0.922516 0.445535
O O2 0.706842 0.842167 0.358463
O O3 0.750000 0.000000 0.387227
O O4 0.608142 0.969291 0.332873
O O5 0.500000 0.965344 0.750000
O O6 0.541743 0.887733 0.844506
O O7 0.664895 0.909261 0.758692
O O8 0.928582 0.611540 0.438164
O O9 0.000000 0.500000 0.500000
O O10 0.000372 0.666847 0.528134
O O11 0.500000 0.750000 0.894570
O O12 0.376941 0.838765 0.838196
O O13 0.790535 0.190875 0.190986
O O14 0.928764 0.293876 0.207340
O O15 0.911377 0.241044 0.106300
O O16 0.662841 0.250000 0.250000
#
# Coordination Sequence:
#
# PCOD9506858 Si02
#       8
#    16  16  16  16  16  16   4   8
#     4  11  24  41  60  91 130 170 215 267 333 386
#     4  10  22  38  65  96 127 164 209 268 330 393
#     4  11  22  43  68  90 124 170 227 275 319 390
#     4  11  21  37  66  96 123 164 213 271 326 379
#     4  10  22  39  62  88 126 169 212 257 317 401
#     4  11  20  36  62  95 129 157 203 264 326 387
#     4  10  20  36  64  84 118 172 204 248 306 384
#     4   9  22  43  62  92 119 172 223 264 326 382
#
# _framework density 19.765104999999998
#
# number of rings (size 3 to 8) (size 9 to 14) (size 15 to 20)
#    0.000    1.481    4.444    0.889    1.037    0.000 
#    2.667    1.481    3.259    0.000    0.000    0.000 
#    0.000    0.000    0.000    0.000    0.000    0.000 
#
# Total GULP energy -300793.638621 kJ/mol
# GULP energy per Si atom -5570.252567 kJ/mol
# Density = 1.972012 g / cm^3
# Si number density = 19.765105 Si / 1000 Ang^3
#
#
#
# Elastic Constant Matrix: (Units=GPa)
#
#
# Indices 1 2 3 4 5 6 
#
# 1 67.7689 21.6067 32.8972 0.0000 0.0000 0.0000
# 2 21.6067 63.8780 32.9357 0.0000 0.0000 0.0000
# 3 32.8972 32.9357 137.7640 0.0000 0.0000 0.0000
# 4 0.0000 0.0000 0.0000 8.8595 0.0000 0.0000
# 5 0.0000 0.0000 0.0000 0.0000 22.6940 0.0000
# 6 0.0000 0.0000 0.0000 0.0000 0.0000 22.4454
#
#
#
# Elastic Compliance Matrix: (Units=1/GPa)
#
#
# Indices 1 2 3 4 5 6 
#
# 1 0.017686 -0.004340 -0.003186 0.000000 0.000000 0.000000
# 2 -0.004340 0.018921 -0.003487 0.000000 0.000000 0.000000
# 3 -0.003186 -0.003487 0.008853 0.000000 0.000000 0.000000
# 4 0.000000 0.000000 0.000000 0.112874 0.000000 0.000000
# 5 0.000000 0.000000 0.000000 0.000000 0.044064 0.000000
# 6 0.000000 0.000000 0.000000 0.000000 0.000000 0.044552
#
#
# Mechanical properties :
#
#
# Convention : Reuss Voigt Hill
#
# Bulk Modulus (GPa) = 42.67168 49.36555 46.01862
# Shear Modulus (GPa) = 18.06440 22.93121 20.49780
#
# Velocity S-wave (km/s) = 3.02645 3.40985 3.22385
# Velocity P-wave (km/s) = 5.81797 6.36656 6.09844
#
# Compressibility (1/GPa) = 0.02343475
#
# Stress axis : x y z
#
# Youngs Moduli (GPa) = 56.54134 52.85208 112.95311
#
# Poissons Ratio (x) = 0.22936 0.35985
# Poissons Ratio (y) = 0.24537 0.39388
# Poissons Ratio (z) = 0.18013 0.18430
#
# Static dielectric constant tensor:
#      x y z
#    x 1.733860 0.000000 0.000000 
#    y 0.000000 1.710880 0.000000 
#    z 0.000000 0.000000 1.722170 
# 
# From -- ./inp_files/45574.got.cif
#   From: 2010.05.17/outbox.cif.g08.bks.cpg/sg68_23_cif.got.tgz:45574.got - 2010.06.03 18:57:09.
