data_PCOD9506309
_publ_section_title
;
Structure prediction by ZEFSAII (Michael W. Deem and Ramdas Pophale) SiO2 
 PCOD9506309
Probable space group: C C C A
;
_chemical_formula_sum "Si O2"
_cell_formula_units_Z 116
_cell_length_a 22.409316
_cell_length_b 17.235043
_cell_length_c 15.752530
_cell_angle_alpha 90.000000
_cell_angle_beta 90.000000
_cell_angle_gamma 90.000000
_cell_volume 6084.029167
_symmetry_space_group_name_H-M "C C C A"
_symmetry_group_IT_number 68
_space_group.IT_coordinate_system_code '2'
_symmetry_cell_setting 'orthorhombic'
loop_
_space_group_symop_operation_xyz
x,y,z
-x,1/2-y,z
x,1/2-y,1/2-z
-x,y,1/2-z
-x,-y,-z
x,1/2+y,-z
-x,1/2+y,1/2+z
x,-y,1/2+z
1/2+x,1/2+y,z
1/2-x,-y,z
1/2+x,-y,1/2-z
1/2-x,1/2+y,1/2-z
1/2-x,1/2-y,-z
1/2+x,y,-z
1/2-x,y,1/2+z
1/2+x,1/2-y,1/2+z
loop_
_atom_site_type_symbol
_atom_site_label
_atom_site_fract_x
_atom_site_fract_y
_atom_site_fract_z
Si Si1 0.380593 0.031735 0.375276
Si Si2 0.420101 0.297583 0.597274
Si Si3 0.607353 0.125675 0.949443
Si Si4 0.299220 0.881470 0.403490
Si Si5 0.500000 0.250000 0.750000
Si Si6 0.742674 0.906763 0.420462
Si Si7 0.714461 0.417733 0.256065
Si Si8 0.989900 0.443295 0.421527
O O1 0.388535 0.089694 0.455334
O O2 0.351673 0.069402 0.292067
O O3 0.331146 0.966629 0.401944
O O4 0.442982 0.987109 0.361185
O O5 0.415587 0.214072 0.553559
O O6 0.352886 0.323370 0.612215
O O7 0.456540 0.294502 0.685540
O O8 0.454834 0.365798 0.548166
O O9 0.673101 0.114593 0.911168
O O10 0.556516 0.080529 0.895446
O O11 0.268750 0.870208 0.494164
O O12 0.250703 0.874988 0.329928
O O13 0.778882 0.882286 0.336792
O O14 0.750000 0.000000 0.430787
O O15 0.750000 0.500000 0.248761
O O16 0.000000 0.500000 0.500000
#
# Coordination Sequence:
#
# PCOD9506309 Si02
#       8
#    16  16  16  16   4  16  16  16
#     4   9  17  35  59  82 118 155 206 261 306 365
#     4  11  24  37  59  86 127 160 198 256 329 393
#     4  11  19  35  59  85 119 161 199 250 318 385
#     4  10  19  37  56  82 119 163 204 260 307 383
#     4  12  24  44  56  92 140 158 198 272 338 392
#     4  11  20  34  58  86 122 162 214 260 314 372
#     4   9  18  32  54  83 115 160 207 259 310 359
#     4   9  19  36  61  87 112 156 206 257 314 381
#
# _framework density 19.066312
#
# number of rings (size 3 to 8) (size 9 to 14) (size 15 to 20)
#    0.000    1.931    4.138    0.414    1.931    0.552 
#    0.000    0.000    0.000    0.000    0.000    0.000 
#    8.276    0.000    0.000    0.000    0.000    0.000 
#
# Total GULP energy -323204.854214 kJ/mol
# GULP energy per Si atom -5572.497486 kJ/mol
# Density = 1.902292 g / cm^3
# Si number density = 19.066312 Si / 1000 Ang^3
#
#
#
# Elastic Constant Matrix: (Units=GPa)
#
#
# Indices 1 2 3 4 5 6 
#
# 1 126.1780 17.4129 29.0054 0.0000 0.0000 0.0000
# 2 17.4129 67.0817 7.5161 0.0000 0.0000 0.0000
# 3 29.0054 7.5161 81.0538 0.0000 0.0000 0.0000
# 4 0.0000 0.0000 0.0000 -0.9249 0.0000 0.0000
# 5 0.0000 0.0000 0.0000 0.0000 16.7902 0.0000
# 6 0.0000 0.0000 0.0000 0.0000 0.0000 25.9151
#
#
#
# Elastic Compliance Matrix: (Units=1/GPa)
#
#
# Indices 1 2 3 4 5 6 
#
# 1 0.008886 -0.001971 -0.002997 0.000000 0.000000 0.000000
# 2 -0.001971 0.015501 -0.000732 0.000000 0.000000 0.000000
# 3 -0.002997 -0.000732 0.013478 0.000000 0.000000 0.000000
# 4 0.000000 0.000000 0.000000 -1.081178 0.000000 0.000000
# 5 0.000000 0.000000 0.000000 0.000000 0.059559 0.000000
# 6 0.000000 0.000000 0.000000 0.000000 0.000000 0.038587
#
#
# Mechanical properties :
#
#
# Convention : Reuss Voigt Hill
#
# Bulk Modulus (GPa) = 37.78626 42.46470 40.12548
# Shear Modulus (GPa) = -5.40573 23.04801 8.82114
#
# Velocity S-wave (km/s) = -1.68564 3.48060 2.15328
# Velocity P-wave (km/s) = 4.00910 6.20268 5.22236
#
# Compressibility (1/GPa) = 0.02646465
#
# Stress axis : x y z
#
# Youngs Moduli (GPa) = 112.53288 64.51274 74.19526
#
# Poissons Ratio (x) = 0.12715 0.22238
# Poissons Ratio (y) = 0.22179 0.05432
# Poissons Ratio (z) = 0.33729 0.04723
#
# Static dielectric constant tensor:
#      x y z
#    x 1.697190 0.000000 0.000000 
#    y 0.000000 1.726740 0.000000 
#    z 0.000000 0.000000 1.671010 
# 
# From -- ./inp_files/25614.got.cif
#   From: 2010.05.17/outbox.cif.g08.bks.cpg/sg68_13_cif.got.tgz:25614.got - 2010.06.03 18:57:09.
