data_PCOD9506291
_publ_section_title
;
Structure prediction by ZEFSAII (Michael W. Deem and Ramdas Pophale) SiO2 
 PCOD9506291
Probable space group: C C C A
;
_chemical_formula_sum "Si O2"
_cell_formula_units_Z 64
_cell_length_a 13.059101
_cell_length_b 12.867828
_cell_length_c 15.158069
_cell_angle_alpha 90.000000
_cell_angle_beta 90.000000
_cell_angle_gamma 90.000000
_cell_volume 2547.196255
_symmetry_space_group_name_H-M "C C C A"
_symmetry_group_IT_number 68
_space_group.IT_coordinate_system_code '2'
_symmetry_cell_setting 'orthorhombic'
loop_
_space_group_symop_operation_xyz
x,y,z
-x,1/2-y,z
x,1/2-y,1/2-z
-x,y,1/2-z
-x,-y,-z
x,1/2+y,-z
-x,1/2+y,1/2+z
x,-y,1/2+z
1/2+x,1/2+y,z
1/2-x,-y,z
1/2+x,-y,1/2-z
1/2-x,1/2+y,1/2-z
1/2-x,1/2-y,-z
1/2+x,y,-z
1/2-x,y,1/2+z
1/2+x,1/2-y,1/2+z
loop_
_atom_site_type_symbol
_atom_site_label
_atom_site_fract_x
_atom_site_fract_y
_atom_site_fract_z
Si Si1 0.919177 0.655138 0.090147
Si Si2 0.298484 0.715802 0.348089
Si Si3 0.126710 0.486963 0.275549
Si Si4 0.857202 0.936631 0.580396
O O1 0.800711 0.691361 0.093872
O O2 0.920321 0.585988 0.177772
O O3 0.000000 0.750000 0.086633
O O4 0.922307 0.576135 0.007964
O O5 0.262971 0.750000 0.250000
O O6 0.378449 0.621899 0.329908
O O7 0.344157 0.816695 0.392288
O O8 0.250000 0.500000 0.275902
O O9 0.900359 0.480864 0.327478
O O10 0.750000 0.000000 0.563403
#
# Coordination Sequence:
#
# PCOD9506291 Si02
#       4
#    16  16  16  16
#     4  11  22  36  60  99 136 169 211 278 349 399
#     4   9  18  36  63  89 123 175 229 273 318 386
#     4   8  17  36  62  90 123 170 225 272 321 390
#     4  10  19  36  64  91 123 177 233 271 312 393
#
# _framework density 25.125665999999999
#
# number of rings (size 3 to 8) (size 9 to 14) (size 15 to 20)
#    0.000    2.500    0.000    4.500    0.000    0.500 
#    0.000    5.000    0.000   33.750    0.000    1.750 
#    0.000    0.000    0.000    0.000    0.000    0.000 
#
# Total GULP energy -178704.117533 kJ/mol
# GULP energy per Si atom -5584.503673 kJ/mol
# Density = 2.506848 g / cm^3
# Si number density = 25.125666 Si / 1000 Ang^3
#
#
#
# Elastic Constant Matrix: (Units=GPa)
#
#
# Indices 1 2 3 4 5 6 
#
# 1 77.6069 42.0694 26.0991 0.0000 0.0000 0.0000
# 2 42.0694 83.7487 50.8230 0.0000 0.0000 0.0000
# 3 26.0991 50.8230 186.4843 0.0000 0.0000 0.0000
# 4 0.0000 0.0000 0.0000 26.5937 0.0000 0.0000
# 5 0.0000 0.0000 0.0000 0.0000 186.2213 0.0000
# 6 0.0000 0.0000 0.0000 0.0000 0.0000 46.2646
#
#
#
# Elastic Compliance Matrix: (Units=1/GPa)
#
#
# Indices 1 2 3 4 5 6 
#
# 1 0.017708 -0.008856 -0.000065 0.000000 0.000000 0.000000
# 2 -0.008856 0.018736 -0.003867 0.000000 0.000000 0.000000
# 3 -0.000065 -0.003867 0.006425 0.000000 0.000000 0.000000
# 4 0.000000 0.000000 0.000000 0.037603 0.000000 0.000000
# 5 0.000000 0.000000 0.000000 0.000000 0.005370 0.000000
# 6 0.000000 0.000000 0.000000 0.000000 0.000000 0.021615
#
#
# Mechanical properties :
#
#
# Convention : Reuss Voigt Hill
#
# Bulk Modulus (GPa) = 57.82325 65.09143 61.45734
# Shear Modulus (GPa) = 36.02423 67.07247 51.54835
#
# Velocity S-wave (km/s) = 3.79061 5.17231 4.53440
# Velocity P-wave (km/s) = 6.49784 7.85066 7.20607
#
# Compressibility (1/GPa) = 0.01729408
#
# Stress axis : x y z
#
# Youngs Moduli (GPa) = 56.47212 53.37457 155.63649
#
# Poissons Ratio (x) = 0.47268 0.01008
# Poissons Ratio (y) = 0.50011 0.60179
# Poissons Ratio (z) = 0.00366 0.20638
#
# Static dielectric constant tensor:
#      x y z
#    x 2.063830 0.000000 0.000000 
#    y 0.000000 2.031280 0.000000 
#    z 0.000000 0.000000 2.031560 
# 
# From -- ./inp_files/29128.got.cif
#   From: 2010.05.17/outbox.cif.g08.bks.cpg/sg68_15_cif.got.tgz:29128.got - 2010.06.03 18:57:09.
