data_PCOD9506953
_publ_section_title
;
Structure prediction by ZEFSAII (Michael W. Deem and Ramdas Pophale) SiO2 
 PCOD9506953
Probable space group: C C C A
;
_chemical_formula_sum "Si O2"
_cell_formula_units_Z 88
_cell_length_a 15.782757
_cell_length_b 18.937830
_cell_length_c 13.328928
_cell_angle_alpha 90.000000
_cell_angle_beta 90.000000
_cell_angle_gamma 90.000000
_cell_volume 3983.898871
_symmetry_space_group_name_H-M "C C C A"
_symmetry_group_IT_number 68
_space_group.IT_coordinate_system_code '2'
_symmetry_cell_setting 'orthorhombic'
loop_
_space_group_symop_operation_xyz
x,y,z
-x,1/2-y,z
x,1/2-y,1/2-z
-x,y,1/2-z
-x,-y,-z
x,1/2+y,-z
-x,1/2+y,1/2+z
x,-y,1/2+z
1/2+x,1/2+y,z
1/2-x,-y,z
1/2+x,-y,1/2-z
1/2-x,1/2+y,1/2-z
1/2-x,1/2-y,-z
1/2+x,y,-z
1/2-x,y,1/2+z
1/2+x,1/2-y,1/2+z
loop_
_atom_site_type_symbol
_atom_site_label
_atom_site_fract_x
_atom_site_fract_y
_atom_site_fract_z
Si Si1 0.513904 0.326509 0.562149
Si Si2 0.824539 0.948148 0.705643
Si Si3 0.333098 0.120930 0.998282
Si Si4 0.169703 0.803196 0.406656
Si Si5 0.000000 0.569291 0.750000
Si Si6 0.793947 0.849240 0.298687
O O1 0.500000 0.250000 0.610197
O O2 0.426146 0.344495 0.504995
O O3 0.593142 0.316948 0.485155
O O4 0.516334 0.382971 0.651326
O O5 0.830622 0.938393 0.586288
O O6 0.799188 0.872666 0.757887
O O7 0.915193 0.974045 0.738514
O O8 0.750000 0.000000 0.729534
O O9 0.256390 0.171525 0.959923
O O10 0.315482 0.098396 0.111144
O O11 0.189635 0.726111 0.355582
O O12 0.154540 0.848750 0.305112
#
# Coordination Sequence:
#
# PCOD9506953 Si02
#       6
#    16  16  16  16   8  16
#     4  11  21  35  60  97 133 165 197 252 321 398
#     4  10  23  42  64  87 119 169 226 277 315 369
#     4  10  21  37  59  89 128 164 206 256 323 387
#     4  10  21  36  59  93 134 161 204 255 323 404
#     4  10  23  40  64  94 126 167 220 264 322 386
#     4  10  20  37  62  89 123 169 202 258 327 386
#
# _framework density 22.088913999999999
#
# number of rings (size 3 to 8) (size 9 to 14) (size 15 to 20)
#    0.000    1.818    1.818    1.909    2.545    1.455 
#    0.000    3.636    0.000   12.000    0.000    0.000 
#    0.000    0.000    0.000    0.000    0.000    0.000 
#
# Total GULP energy -244964.633832 kJ/mol
# GULP energy per Si atom -5567.378042 kJ/mol
# Density = 2.203864 g / cm^3
# Si number density = 22.088914 Si / 1000 Ang^3
#
#
#
# Elastic Constant Matrix: (Units=GPa)
#
#
# Indices 1 2 3 4 5 6 
#
# 1 168.4243 32.6060 46.5034 0.0000 0.0000 0.0000
# 2 32.6060 29.0473 10.8352 0.0000 0.0000 0.0000
# 3 46.5034 10.8352 145.8983 0.0000 0.0000 0.0000
# 4 0.0000 0.0000 0.0000 11.4033 0.0000 0.0000
# 5 0.0000 0.0000 0.0000 0.0000 27.6618 0.0000
# 6 0.0000 0.0000 0.0000 0.0000 0.0000 18.5649
#
#
#
# Elastic Compliance Matrix: (Units=1/GPa)
#
#
# Indices 1 2 3 4 5 6 
#
# 1 0.008096 -0.008357 -0.001960 0.000000 0.000000 0.000000
# 2 -0.008357 0.044034 -0.000606 0.000000 0.000000 0.000000
# 3 -0.001960 -0.000606 0.007524 0.000000 0.000000 0.000000
# 4 0.000000 0.000000 0.000000 0.087694 0.000000 0.000000
# 5 0.000000 0.000000 0.000000 0.000000 0.036151 0.000000
# 6 0.000000 0.000000 0.000000 0.000000 0.000000 0.053865
#
#
# Mechanical properties :
#
#
# Convention : Reuss Voigt Hill
#
# Bulk Modulus (GPa) = 26.45020 58.13990 42.29505
# Shear Modulus (GPa) = 18.39493 28.42101 23.40797
#
# Velocity S-wave (km/s) = 2.88890 3.59090 3.25886
# Velocity P-wave (km/s) = 4.80917 6.60081 5.77490
#
# Compressibility (1/GPa) = 0.03780690
#
# Stress axis : x y z
#
# Youngs Moduli (GPa) = 123.51047 22.70973 132.91060
#
# Poissons Ratio (x) = 0.18979 0.26050
# Poissons Ratio (y) = 1.03221 0.08060
# Poissons Ratio (z) = 0.24208 0.01377
#
# Static dielectric constant tensor:
#      x y z
#    x 1.815430 0.000000 0.000000 
#    y 0.000000 1.970850 0.000000 
#    z 0.000000 0.000000 1.832830 
# 
# From -- ./inp_files/22246.got.cif
#   From: 2010.05.17/outbox.cif.g08.bks.cpg/sg68_12_cif.got.tgz:22246.got - 2010.06.03 18:57:09.
