data_PCOD9506253
_publ_section_title
;
Structure prediction by ZEFSAII (Michael W. Deem and Ramdas Pophale) SiO2 
 PCOD9506253
Probable space group: C C C A
;
_chemical_formula_sum "Si O2"
_cell_formula_units_Z 88
_cell_length_a 20.221488
_cell_length_b 13.726059
_cell_length_c 15.775312
_cell_angle_alpha 90.000000
_cell_angle_beta 90.000000
_cell_angle_gamma 90.000000
_cell_volume 4378.616696
_symmetry_space_group_name_H-M "C C C A"
_symmetry_group_IT_number 68
_space_group.IT_coordinate_system_code '2'
_symmetry_cell_setting 'orthorhombic'
loop_
_space_group_symop_operation_xyz
x,y,z
-x,1/2-y,z
x,1/2-y,1/2-z
-x,y,1/2-z
-x,-y,-z
x,1/2+y,-z
-x,1/2+y,1/2+z
x,-y,1/2+z
1/2+x,1/2+y,z
1/2-x,-y,z
1/2+x,-y,1/2-z
1/2-x,1/2+y,1/2-z
1/2-x,1/2-y,-z
1/2+x,y,-z
1/2-x,y,1/2+z
1/2+x,1/2-y,1/2+z
loop_
_atom_site_type_symbol
_atom_site_label
_atom_site_fract_x
_atom_site_fract_y
_atom_site_fract_z
Si Si1 0.392208 0.682333 0.173134
Si Si2 0.210796 0.311315 0.429816
Si Si3 0.665962 0.322813 0.171456
Si Si4 0.893911 0.152018 0.558993
Si Si5 0.000000 0.750000 0.548186
Si Si6 0.578277 0.528128 0.774124
O O1 0.412942 0.750000 0.250000
O O2 0.329961 0.734219 0.127879
O O3 0.450039 0.687535 0.104586
O O4 0.387148 0.576112 0.213371
O O5 0.250000 0.250000 0.500000
O O6 0.266050 0.360292 0.370502
O O7 0.160249 0.375056 0.486697
O O8 0.681927 0.250000 0.250000
O O9 0.630077 0.252860 0.103237
O O10 0.616982 0.405676 0.205698
O O11 0.959567 0.176082 0.508751
O O12 0.909652 0.079741 0.635155
O O13 0.500000 0.520406 0.750000
#
# Coordination Sequence:
#
# PCOD9506253 Si02
#       6
#    16  16  16  16   8  16
#     4  11  23  40  59  83 119 161 201 243 295 363
#     4   9  19  40  61  80 115 157 199 248 303 354
#     4   9  18  36  61  89 120 156 201 254 306 363
#     4   9  19  35  59  90 119 155 197 252 307 358
#     4  10  19  36  59  80 118 158 194 246 301 352
#     4  11  22  37  62  94 125 158 202 251 309 373
#
# _framework density 20.097670999999998
#
# number of rings (size 3 to 8) (size 9 to 14) (size 15 to 20)
#    0.000    2.182    0.000    3.000    0.000    3.273 
#    0.000   27.273    0.000    0.000    0.000    0.000 
#    0.000    0.000    0.000    0.000    0.000    0.000 
#
# Total GULP energy -245405.755116 kJ/mol
# GULP energy per Si atom -5577.403525 kJ/mol
# Density = 2.005193 g / cm^3
# Si number density = 20.097671 Si / 1000 Ang^3
#
#
#
# Elastic Constant Matrix: (Units=GPa)
#
#
# Indices 1 2 3 4 5 6 
#
# 1 99.3245 8.7445 48.8441 0.0000 0.0000 0.0000
# 2 8.7445 66.5086 32.4723 0.0000 0.0000 0.0000
# 3 48.8441 32.4723 99.2989 0.0000 0.0000 0.0000
# 4 0.0000 0.0000 0.0000 171.8906 0.0000 0.0000
# 5 0.0000 0.0000 0.0000 0.0000 26.1688 0.0000
# 6 0.0000 0.0000 0.0000 0.0000 0.0000 -0.4088
#
#
#
# Elastic Compliance Matrix: (Units=1/GPa)
#
#
# Indices 1 2 3 4 5 6 
#
# 1 0.013447 0.001739 -0.007183 0.000000 0.000000 0.000000
# 2 0.001739 0.018117 -0.006780 0.000000 0.000000 0.000000
# 3 -0.007183 -0.006780 0.015821 0.000000 0.000000 0.000000
# 4 0.000000 0.000000 0.000000 0.005818 0.000000 0.000000
# 5 0.000000 0.000000 0.000000 0.000000 0.038213 0.000000
# 6 0.000000 0.000000 0.000000 0.000000 0.000000 -2.446412
#
#
# Mechanical properties :
#
#
# Convention : Reuss Voigt Hill
#
# Bulk Modulus (GPa) = 43.59710 49.47265 46.53487
# Shear Modulus (GPa) = -2.15248 51.20152 24.52452
#
# Velocity S-wave (km/s) = -1.03602 5.05289 3.49702
# Velocity P-wave (km/s) = 4.50651 7.66236 6.28571
#
# Compressibility (1/GPa) = 0.02293731
#
# Stress axis : x y z
#
# Youngs Moduli (GPa) = 74.36378 55.19575 63.20621
#
# Poissons Ratio (x) = -0.09599 0.45403
# Poissons Ratio (y) = -0.12933 0.42855
# Poissons Ratio (z) = 0.53418 0.37423
#
# Static dielectric constant tensor:
#      x y z
#    x 1.734150 0.000000 0.000000 
#    y 0.000000 1.759080 0.000000 
#    z 0.000000 0.000000 1.751690 
# 
# From -- ./inp_files/24378.got.cif
#   From: 2010.05.17/outbox.cif.g08.bks.cpg/sg68_13_cif.got.tgz:24378.got - 2010.06.03 18:57:09.
