data_PCOD9506919
_publ_section_title
;
Structure prediction by ZEFSAII (Michael W. Deem and Ramdas Pophale) SiO2 
 PCOD9506919
Probable space group: C C C A
;
_chemical_formula_sum "Si O2"
_cell_formula_units_Z 112
_cell_length_a 26.160905
_cell_length_b 14.153241
_cell_length_c 15.149060
_cell_angle_alpha 90.000000
_cell_angle_beta 90.000000
_cell_angle_gamma 90.000000
_cell_volume 5609.115092
_symmetry_space_group_name_H-M "C C C A"
_symmetry_group_IT_number 68
_space_group.IT_coordinate_system_code '2'
_symmetry_cell_setting 'orthorhombic'
loop_
_space_group_symop_operation_xyz
x,y,z
-x,1/2-y,z
x,1/2-y,1/2-z
-x,y,1/2-z
-x,-y,-z
x,1/2+y,-z
-x,1/2+y,1/2+z
x,-y,1/2+z
1/2+x,1/2+y,z
1/2-x,-y,z
1/2+x,-y,1/2-z
1/2-x,1/2+y,1/2-z
1/2-x,1/2-y,-z
1/2+x,y,-z
1/2-x,y,1/2+z
1/2+x,1/2-y,1/2+z
loop_
_atom_site_type_symbol
_atom_site_label
_atom_site_fract_x
_atom_site_fract_y
_atom_site_fract_z
Si Si1 0.500000 0.578785 0.250000
Si Si2 0.715673 0.586444 0.114344
Si Si3 0.135385 0.150665 0.972895
Si Si4 0.620564 0.838936 0.077815
Si Si5 0.955269 0.002635 0.571259
Si Si6 0.422943 0.750000 0.250000
Si Si7 0.793131 0.424430 0.318862
Si Si8 0.216180 0.235002 0.844577
O O1 0.520935 0.513921 0.330211
O O2 0.543938 0.656371 0.224617
O O3 0.750000 0.500000 0.083166
O O4 0.667026 0.603818 0.053090
O O5 0.695447 0.564353 0.214304
O O6 0.757975 0.671512 0.114339
O O7 0.126031 0.258858 0.004668
O O8 0.085468 0.089451 0.943722
O O9 0.177774 0.169617 0.898429
O O10 0.610078 0.781136 0.167308
O O11 0.663349 0.914894 0.108047
O O12 0.573920 0.904898 0.054335
O O13 0.000000 0.000000 0.500000
O O14 0.750000 0.500000 0.340970
O O15 0.766398 0.324115 0.324110
O O16 0.190228 0.250000 0.750000
#
# Coordination Sequence:
#
# PCOD9506919 Si02
#       8
#     8  16  16  16  16   8  16  16
#     4   9  20  44  66  91 122 160 200 283 340 385
#     4  10  22  37  64  96 136 169 206 259 321 387
#     4  12  24  39  64  96 125 174 217 263 322 386
#     4  11  22  38  67  95 125 165 218 276 317 384
#     4  11  26  45  65  95 127 163 219 280 333 390
#     4   9  18  36  70  94 114 150 214 274 344 377
#     4  10  20  37  59  93 129 174 212 259 317 382
#     4  10  22  41  58  89 135 169 211 253 305 385
#
# _framework density 19.967499
#
# number of rings (size 3 to 8) (size 9 to 14) (size 15 to 20)
#    0.000    1.571    1.429    3.000    3.000    3.429 
#    2.571    0.000    0.000    0.000    0.000    0.000 
#    0.000    0.000    0.000    0.000    0.000    0.000 
#
# Total GULP energy -311968.211697 kJ/mol
# GULP energy per Si atom -5570.860923 kJ/mol
# Density = 1.992205 g / cm^3
# Si number density = 19.967499 Si / 1000 Ang^3
#
#
#
# Elastic Constant Matrix: (Units=GPa)
#
#
# Indices 1 2 3 4 5 6 
#
# 1 97.0259 45.3419 64.5245 0.0000 0.0000 0.0000
# 2 45.3419 83.9464 40.3301 0.0000 0.0000 0.0000
# 3 64.5245 40.3301 80.6261 0.0000 0.0000 0.0000
# 4 0.0000 0.0000 0.0000 20.3978 0.0000 0.0000
# 5 0.0000 0.0000 0.0000 0.0000-3381.6776 0.0000
# 6 0.0000 0.0000 0.0000 0.0000 0.0000 450.9286
#
#
#
# Elastic Compliance Matrix: (Units=1/GPa)
#
#
# Indices 1 2 3 4 5 6 
#
# 1 0.023414 -0.004797 -0.016338 0.000000 0.000000 0.000000
# 2 -0.004797 0.016663 -0.004496 0.000000 0.000000 0.000000
# 3 -0.016338 -0.004496 0.027727 0.000000 0.000000 0.000000
# 4 0.000000 0.000000 0.000000 0.049025 0.000000 0.000000
# 5 0.000000 0.000000 0.000000 0.000000 -0.000296 0.000000
# 6 0.000000 0.000000 0.000000 0.000000 0.000000 0.002218
#
#
# Mechanical properties :
#
#
# Convention : Reuss Voigt Hill
#
# Bulk Modulus (GPa) = 60.45409 62.44351 61.44880
# Shear Modulus (GPa) = 28.48549 -574.64344 -273.07898
#
# Velocity S-wave (km/s) = 3.78112 -16.98276 -11.70720
# Velocity P-wave (km/s) = 7.02883 18.79393 12.32492
#
# Compressibility (1/GPa) = 0.01654148
#
# Stress axis : x y z
#
# Youngs Moduli (GPa) = 42.71035 60.01144 36.06547
#
# Poissons Ratio (x) = 0.28788 0.58924
# Poissons Ratio (y) = 0.20488 0.16216
# Poissons Ratio (z) = 0.69781 0.26983
#
# Static dielectric constant tensor:
#      x y z
#    x 1.826630 0.000000 0.000000 
#    y 0.000000 1.827780 0.000000 
#    z 0.000000 0.000000 1.423700 
# 
# From -- ./inp_files/26088.got.cif
#   From: 2010.05.17/outbox.cif.g08.bks.cpg/sg68_14_cif.got.tgz:26088.got - 2010.06.03 18:57:09.
