data_PCOD9506703
_publ_section_title
;
Structure prediction by ZEFSAII (Michael W. Deem and Ramdas Pophale) SiO2 
 PCOD9506703
Probable space group: C C C A
;
_chemical_formula_sum "Si O2"
_cell_formula_units_Z 68
_cell_length_a 14.798589
_cell_length_b 9.314272
_cell_length_c 22.442949
_cell_angle_alpha 90.000000
_cell_angle_beta 90.000000
_cell_angle_gamma 90.000000
_cell_volume 3093.493071
_symmetry_space_group_name_H-M "C C C A"
_symmetry_group_IT_number 68
_space_group.IT_coordinate_system_code '2'
_symmetry_cell_setting 'orthorhombic'
loop_
_space_group_symop_operation_xyz
x,y,z
-x,1/2-y,z
x,1/2-y,1/2-z
-x,y,1/2-z
-x,-y,-z
x,1/2+y,-z
-x,1/2+y,1/2+z
x,-y,1/2+z
1/2+x,1/2+y,z
1/2-x,-y,z
1/2+x,-y,1/2-z
1/2-x,1/2+y,1/2-z
1/2-x,1/2-y,-z
1/2+x,y,-z
1/2-x,y,1/2+z
1/2+x,1/2-y,1/2+z
loop_
_atom_site_type_symbol
_atom_site_label
_atom_site_fract_x
_atom_site_fract_y
_atom_site_fract_z
Si Si1 0.637708 0.676064 0.953737
Si Si2 0.835456 0.295735 0.183031
Si Si3 0.632519 0.375268 0.157708
Si Si4 0.000000 0.250000 0.750000
Si Si5 0.356484 0.144910 0.934575
O O1 0.611693 0.793746 0.903961
O O2 0.605272 0.513589 0.945432
O O3 0.747231 0.655556 0.946446
O O4 0.610439 0.739377 0.017475
O O5 0.862395 0.250000 0.250000
O O6 0.726375 0.304119 0.180040
O O7 0.859400 0.453272 0.157402
O O8 0.870757 0.185043 0.133968
O O9 0.559565 0.344794 0.207135
#
# Coordination Sequence:
#
# PCOD9506703 Si02
#       5
#    16  16  16   4  16
#     4   9  17  31  53  86 116 156 192 249 297 360
#     4  10  20  35  59  90 118 156 200 257 292 358
#     4  10  22  36  58  83 123 157 205 241 305 355
#     4  12  24  40  58  88 124 170 192 248 304 376
#     4   9  17  29  55  86 120 145 198 250 305 336
#
# _framework density 21.981622999999999
#
# number of rings (size 3 to 8) (size 9 to 14) (size 15 to 20)
#    0.000    2.353    1.176    1.412    3.294    7.529 
#    0.000    0.588    0.000    5.647    0.000    0.000 
#    0.000    0.000    0.000    0.000    0.000    0.000 
#
# Total GULP energy -189781.503962 kJ/mol
# GULP energy per Si atom -5581.808940 kJ/mol
# Density = 2.193159 g / cm^3
# Si number density = 21.981623 Si / 1000 Ang^3
#
#
#
# Elastic Constant Matrix: (Units=GPa)
#
#
# Indices 1 2 3 4 5 6 
#
# 1 33.8928 10.5326 7.9779 0.0000 0.0000 0.0000
# 2 10.5326 151.0581 109.4012 0.0000 0.0000 0.0000
# 3 7.9779 109.4012 191.8527 0.0000 0.0000 0.0000
# 4 0.0000 0.0000 0.0000 45.3197 0.0000 0.0000
# 5 0.0000 0.0000 0.0000 0.0000 7.6320 0.0000
# 6 0.0000 0.0000 0.0000 0.0000 0.0000 2.7020
#
#
#
# Elastic Compliance Matrix: (Units=1/GPa)
#
#
# Indices 1 2 3 4 5 6 
#
# 1 0.030159 -0.002035 -0.000094 0.000000 0.000000 0.000000
# 2 -0.002035 0.011415 -0.006424 0.000000 0.000000 0.000000
# 3 -0.000094 -0.006424 0.008880 0.000000 0.000000 0.000000
# 4 0.000000 0.000000 0.000000 0.022065 0.000000 0.000000
# 5 0.000000 0.000000 0.000000 0.000000 0.131027 0.000000
# 6 0.000000 0.000000 0.000000 0.000000 0.000000 0.370102
#
#
# Mechanical properties :
#
#
# Convention : Reuss Voigt Hill
#
# Bulk Modulus (GPa) = 29.98746 70.29192 50.13969
# Shear Modulus (GPa) = 8.30743 27.72353 18.01548
#
# Velocity S-wave (km/s) = 1.94614 3.55521 2.86592
# Velocity P-wave (km/s) = 4.32685 6.99283 5.81469
#
# Compressibility (1/GPa) = 0.03334727
#
# Stress axis : x y z
#
# Youngs Moduli (GPa) = 33.15735 87.60685 112.61703
#
# Poissons Ratio (x) = 0.17828 0.01055
# Poissons Ratio (y) = 0.06748 0.72350
# Poissons Ratio (z) = 0.00311 0.56282
#
# Static dielectric constant tensor:
#      x y z
#    x 1.760260 0.000000 0.000000 
#    y 0.000000 1.744310 0.000000 
#    z 0.000000 0.000000 1.761080 
# 
# From -- ./inp_files/39198.got.cif
#   From: 2010.05.17/outbox.cif.g08.bks.cpg/sg68_20_cif.got.tgz:39198.got - 2010.06.03 18:57:09.
