data_PCOD9506888
_publ_section_title
;
Structure prediction by ZEFSAII (Michael W. Deem and Ramdas Pophale) SiO2 
 PCOD9506888
Probable space group: C C C A
;
_chemical_formula_sum "Si O2"
_cell_formula_units_Z 108
_cell_length_a 16.271107
_cell_length_b 14.890089
_cell_length_c 19.572757
_cell_angle_alpha 90.000000
_cell_angle_beta 90.000000
_cell_angle_gamma 90.000000
_cell_volume 4742.052949
_symmetry_space_group_name_H-M "C C C A"
_symmetry_group_IT_number 68
_space_group.IT_coordinate_system_code '2'
_symmetry_cell_setting 'orthorhombic'
loop_
_space_group_symop_operation_xyz
x,y,z
-x,1/2-y,z
x,1/2-y,1/2-z
-x,y,1/2-z
-x,-y,-z
x,1/2+y,-z
-x,1/2+y,1/2+z
x,-y,1/2+z
1/2+x,1/2+y,z
1/2-x,-y,z
1/2+x,-y,1/2-z
1/2-x,1/2+y,1/2-z
1/2-x,1/2-y,-z
1/2+x,y,-z
1/2-x,y,1/2+z
1/2+x,1/2-y,1/2+z
loop_
_atom_site_type_symbol
_atom_site_label
_atom_site_fract_x
_atom_site_fract_y
_atom_site_fract_z
Si Si1 0.044981 0.345775 0.379610
Si Si2 0.783620 0.193289 0.312184
Si Si3 0.411852 0.566266 0.524697
Si Si4 0.586580 0.099462 0.442460
Si Si5 0.500000 0.043372 0.750000
Si Si6 0.000000 0.750000 0.250000
Si Si7 0.187982 0.271425 0.560860
Si Si8 0.874498 0.597470 0.205063
O O1 0.138858 0.341140 0.353598
O O2 0.053869 0.392266 0.453196
O O3 0.998860 0.398966 0.319223
O O4 0.000000 0.250000 0.387383
O O5 0.818634 0.250000 0.250000
O O6 0.728897 0.248541 0.366848
O O7 0.717812 0.125837 0.277790
O O8 0.389772 0.464418 0.505759
O O9 0.491026 0.580423 0.571986
O O10 0.340353 0.626942 0.553554
O O11 0.611641 0.202800 0.451024
O O12 0.631978 0.068346 0.373996
O O13 0.580309 0.979872 0.753357
O O14 0.937205 0.683371 0.210027
O O15 0.250000 0.250000 0.500000
#
# Coordination Sequence:
#
# PCOD9506888 Si02
#       8
#    16  16  16  16   8   4  16  16
#     4  12  24  44  69  93 138 184 234 280 343 419
#     4  11  24  43  67 103 134 180 230 284 351 417
#     4  11  23  43  68  98 131 179 232 284 343 426
#     4  10  23  41  66  98 130 172 228 285 347 416
#     4  11  23  41  63 100 128 180 225 277 345 413
#     4  10  20  36  66  96 132 176 214 278 348 414
#     4  11  23  41  67  98 135 180 225 283 352 420
#     4  10  22  40  66  97 137 171 224 285 348 423
#
# _framework density 22.774944999999999
#
# number of rings (size 3 to 8) (size 9 to 14) (size 15 to 20)
#    0.000    1.185    3.704    2.444    4.148    1.185 
#    0.000    0.000    0.000    1.778    0.000    0.000 
#    0.000    0.000    0.000    0.000    0.000    0.000 
#
# Total GULP energy -301796.673192 kJ/mol
# GULP energy per Si atom -5588.827281 kJ/mol
# Density = 2.272311 g / cm^3
# Si number density = 22.774945 Si / 1000 Ang^3
#
#
#
# Elastic Constant Matrix: (Units=GPa)
#
#
# Indices 1 2 3 4 5 6 
#
# 1 68.5122 6.5431 -9.4609 0.0000 0.0000 0.0000
# 2 6.5431 44.0754 8.6862 0.0000 0.0000 0.0000
# 3 -9.4609 8.6862 54.0189 0.0000 0.0000 0.0000
# 4 0.0000 0.0000 0.0000 37.2096 0.0000 0.0000
# 5 0.0000 0.0000 0.0000 0.0000 36.0157 0.0000
# 6 0.0000 0.0000 0.0000 0.0000 0.0000 20.0387
#
#
#
# Elastic Compliance Matrix: (Units=1/GPa)
#
#
# Indices 1 2 3 4 5 6 
#
# 1 0.015307 -0.002892 0.003146 0.000000 0.000000 0.000000
# 2 -0.002892 0.023977 -0.004362 0.000000 0.000000 0.000000
# 3 0.003146 -0.004362 0.019764 0.000000 0.000000 0.000000
# 4 0.000000 0.000000 0.000000 0.026875 0.000000 0.000000
# 5 0.000000 0.000000 0.000000 0.000000 0.027766 0.000000
# 6 0.000000 0.000000 0.000000 0.000000 0.000000 0.049903
#
#
# Mechanical properties :
#
#
# Convention : Reuss Voigt Hill
#
# Bulk Modulus (GPa) = 19.67286 19.79369 19.73328
# Shear Modulus (GPa) = 26.48961 29.37534 27.93247
#
# Velocity S-wave (km/s) = 3.41413 3.59529 3.50588
# Velocity P-wave (km/s) = 4.91919 5.09359 5.00715
#
# Compressibility (1/GPa) = 0.05083145
#
# Stress axis : x y z
#
# Youngs Moduli (GPa) = 65.33134 41.70587 50.59588
#
# Poissons Ratio (x) = 0.12063 -0.15917
# Poissons Ratio (y) = 0.18896 0.22071
# Poissons Ratio (z) = -0.20553 0.18193
#
# Static dielectric constant tensor:
#      x y z
#    x 1.836110 0.000000 0.000000 
#    y 0.000000 1.922380 0.000000 
#    z 0.000000 0.000000 1.653550 
# 
# From -- ./inp_files/45568.got.cif
#   From: 2010.05.17/outbox.cif.g08.bks.cpg/sg68_23_cif.got.tgz:45568.got - 2010.06.03 18:57:09.
