data_PCOD9506797
_publ_section_title
;
Structure prediction by ZEFSAII (Michael W. Deem and Ramdas Pophale) SiO2 
 PCOD9506797
Probable space group: C C C A
;
_chemical_formula_sum "Si O2"
_cell_formula_units_Z 112
_cell_length_a 5.074684
_cell_length_b 33.171929
_cell_length_c 33.294976
_cell_angle_alpha 90.000000
_cell_angle_beta 90.000000
_cell_angle_gamma 90.000000
_cell_volume 5604.778284
_symmetry_space_group_name_H-M "C C C A"
_symmetry_group_IT_number 68
_space_group.IT_coordinate_system_code '2'
_symmetry_cell_setting 'orthorhombic'
loop_
_space_group_symop_operation_xyz
x,y,z
-x,1/2-y,z
x,1/2-y,1/2-z
-x,y,1/2-z
-x,-y,-z
x,1/2+y,-z
-x,1/2+y,1/2+z
x,-y,1/2+z
1/2+x,1/2+y,z
1/2-x,-y,z
1/2+x,-y,1/2-z
1/2-x,1/2+y,1/2-z
1/2-x,1/2-y,-z
1/2+x,y,-z
1/2-x,y,1/2+z
1/2+x,1/2-y,1/2+z
loop_
_atom_site_type_symbol
_atom_site_label
_atom_site_fract_x
_atom_site_fract_y
_atom_site_fract_z
Si Si1 0.177891 0.582904 0.865709
Si Si2 0.311587 0.868748 0.892573
Si Si3 0.530044 0.297556 0.155241
Si Si4 0.934790 0.888140 0.523555
Si Si5 0.250150 0.048522 0.222724
Si Si6 0.006724 0.026856 0.062282
Si Si7 0.965911 0.298496 0.294308
O O1 0.437980 0.601865 0.886311
O O2 0.242177 0.569235 0.820688
O O3 0.089158 0.546525 0.894978
O O4 0.929795 0.613549 0.866132
O O5 0.424401 0.825574 0.880004
O O6 0.186693 0.868611 0.936714
O O7 0.500000 0.250000 0.145976
O O8 0.816695 0.309025 0.172140
O O9 0.327556 0.306199 0.191272
O O10 0.733616 0.878046 0.487766
O O11 0.939920 0.935804 0.533385
O O12 0.500000 0.059046 0.250000
O O13 0.000000 0.058821 0.250000
O O14 0.250000 0.000000 0.216173
O O15 0.250000 0.000000 0.047380
O O16 0.750000 0.000000 0.067402
O O17 0.000000 0.250000 0.291298
O O18 0.000000 0.316097 0.250000
#
# Coordination Sequence:
#
# PCOD9506797 Si02
#       7
#    16  16  16  16  16  16  16
#     4  11  22  39  58  80 115 151 190 232 278 335
#     4  11  23  40  60  82 111 148 187 228 282 346
#     4  10  20  36  59  84 111 147 191 234 274 326
#     4  11  23  39  58  82 114 149 179 221 283 343
#     4  10  21  36  56  80 108 149 198 243 278 309
#     4  11  22  36  58  87 114 146 185 227 275 332
#     4   9  17  31  53  82 114 144 177 221 273 326
#
# _framework density 19.982948
#
# number of rings (size 3 to 8) (size 9 to 14) (size 15 to 20)
#    0.000    1.571    0.000    6.857    0.000    5.143 
#    0.000    7.143    0.000    0.857    0.000    0.000 
#    0.000    0.000    0.000    0.000    0.000    0.000 
#
# Total GULP energy -312857.630543 kJ/mol
# GULP energy per Si atom -5586.743403 kJ/mol
# Density = 1.993747 g / cm^3
# Si number density = 19.982948 Si / 1000 Ang^3
#
#
#
# Elastic Constant Matrix: (Units=GPa)
#
#
# Indices 1 2 3 4 5 6 
#
# 1 110.3689 17.1369 14.6213 0.0000 0.0000 0.0000
# 2 17.1369 43.7804 15.5837 0.0000 0.0000 0.0000
# 3 14.6213 15.5837 75.6172 0.0000 0.0000 0.0000
# 4 0.0000 0.0000 0.0000 7.9597 0.0000 0.0000
# 5 0.0000 0.0000 0.0000 0.0000 15.8219 0.0000
# 6 0.0000 0.0000 0.0000 0.0000 0.0000 11.3358
#
#
#
# Elastic Compliance Matrix: (Units=1/GPa)
#
#
# Indices 1 2 3 4 5 6 
#
# 1 0.009744 -0.003392 -0.001185 0.000000 0.000000 0.000000
# 2 -0.003392 0.025830 -0.004667 0.000000 0.000000 0.000000
# 3 -0.001185 -0.004667 0.014416 0.000000 0.000000 0.000000
# 4 0.000000 0.000000 0.000000 0.125632 0.000000 0.000000
# 5 0.000000 0.000000 0.000000 0.000000 0.063203 0.000000
# 6 0.000000 0.000000 0.000000 0.000000 0.000000 0.088216
#
#
# Mechanical properties :
#
#
# Convention : Reuss Voigt Hill
#
# Bulk Modulus (GPa) = 31.74531 36.05005 33.89768
# Shear Modulus (GPa) = 14.04367 19.18512 16.61440
#
# Velocity S-wave (km/s) = 2.65388 3.10187 2.88658
# Velocity P-wave (km/s) = 5.03105 5.55953 5.30188
#
# Compressibility (1/GPa) = 0.03150072
#
# Stress axis : x y z
#
# Youngs Moduli (GPa) = 102.62474 38.71397 69.36962
#
# Poissons Ratio (x) = 0.13133 0.08220
# Poissons Ratio (y) = 0.34814 0.32377
# Poissons Ratio (z) = 0.12161 0.18069
#
# Static dielectric constant tensor:
#      x y z
#    x 1.681070 0.000000 0.000000 
#    y 0.000000 1.717060 0.000000 
#    z 0.000000 0.000000 1.717600 
# 
# From -- ./inp_files/53505.got.cif
#   From: 2010.05.17/outbox.cif.g08.bks.cpg/sg68_27_cif.got.tgz:53505.got - 2010.06.03 18:57:09.
