data_PCOD9506712
_publ_section_title
;
Structure prediction by ZEFSAII (Michael W. Deem and Ramdas Pophale) SiO2 
 PCOD9506712
Probable space group: C C C A
;
_chemical_formula_sum "Si O2"
_cell_formula_units_Z 88
_cell_length_a 11.263467
_cell_length_b 17.391585
_cell_length_c 25.104405
_cell_angle_alpha 90.000000
_cell_angle_beta 90.000000
_cell_angle_gamma 90.000000
_cell_volume 4917.690441
_symmetry_space_group_name_H-M "C C C A"
_symmetry_group_IT_number 68
_space_group.IT_coordinate_system_code '2'
_symmetry_cell_setting 'orthorhombic'
loop_
_space_group_symop_operation_xyz
x,y,z
-x,1/2-y,z
x,1/2-y,1/2-z
-x,y,1/2-z
-x,-y,-z
x,1/2+y,-z
-x,1/2+y,1/2+z
x,-y,1/2+z
1/2+x,1/2+y,z
1/2-x,-y,z
1/2+x,-y,1/2-z
1/2-x,1/2+y,1/2-z
1/2-x,1/2-y,-z
1/2+x,y,-z
1/2-x,y,1/2+z
1/2+x,1/2-y,1/2+z
loop_
_atom_site_type_symbol
_atom_site_label
_atom_site_fract_x
_atom_site_fract_y
_atom_site_fract_z
Si Si1 0.625073 0.452628 0.997852
Si Si2 0.375144 0.543364 0.118726
Si Si3 0.000000 0.750000 0.159277
Si Si4 0.126233 0.385497 0.233532
Si Si5 0.076573 0.410889 0.886292
Si Si6 0.750000 0.500000 0.190797
Si Si7 0.193877 0.250000 0.750000
O O1 0.750000 0.500000 0.998937
O O2 0.622458 0.406451 0.052943
O O3 0.500000 0.500000 0.000000
O O4 0.621136 0.415046 0.938977
O O5 0.250000 0.500000 0.121446
O O6 0.380269 0.594440 0.171290
O O7 0.478943 0.479113 0.118924
O O8 0.017446 0.829588 0.128022
O O9 0.112404 0.746246 0.198143
O O10 0.155188 0.460115 0.269754
O O11 0.226869 0.325355 0.247730
O O12 0.000000 0.353248 0.250000
O O13 0.182621 0.438413 0.846956
#
# Coordination Sequence:
#
# PCOD9506712 Si02
#       7
#    16  16   8  16  16   8   8
#     4   9  19  35  61  89 118 157 206 258 308 362
#     4  10  20  35  60  89 116 154 206 249 298 364
#     4  11  24  38  62  86 124 158 197 254 320 372
#     4  12  23  37  60  85 122 161 202 252 308 372
#     4  11  21  39  62  89 121 157 204 258 309 366
#     4  12  22  36  62  94 114 156 214 252 294 376
#     4  11  25  40  54  86 125 163 196 246 322 379
#
# _framework density 17.894579
#
# number of rings (size 3 to 8) (size 9 to 14) (size 15 to 20)
#    0.000    1.273    5.455    1.364    0.000    0.000 
#    0.000    0.000    4.000   10.909    0.000    0.000 
#    0.000    0.000    0.000    0.000    0.000    0.000 
#
# Total GULP energy -245207.406254 kJ/mol
# GULP energy per Si atom -5572.895597 kJ/mol
# Density = 1.785385 g / cm^3
# Si number density = 17.894579 Si / 1000 Ang^3
#
#
#
# Elastic Constant Matrix: (Units=GPa)
#
#
# Indices 1 2 3 4 5 6 
#
# 1 96.5324 17.3148 41.5367 0.0000 0.0000 0.0000
# 2 17.3148 72.5464 58.0604 0.0000 0.0000 0.0000
# 3 41.5367 58.0604 186.2838 0.0000 0.0000 0.0000
# 4 0.0000 0.0000 0.0000 -185.2839 0.0000 0.0000
# 5 0.0000 0.0000 0.0000 0.0000 43.8642 0.0000
# 6 0.0000 0.0000 0.0000 0.0000 0.0000 31.9501
#
#
#
# Elastic Compliance Matrix: (Units=1/GPa)
#
#
# Indices 1 2 3 4 5 6 
#
# 1 0.011505 -0.000923 -0.002278 0.000000 0.000000 0.000000
# 2 -0.000923 0.018439 -0.005541 0.000000 0.000000 0.000000
# 3 -0.002278 -0.005541 0.007603 0.000000 0.000000 0.000000
# 4 0.000000 0.000000 0.000000 -0.005397 0.000000 0.000000
# 5 0.000000 0.000000 0.000000 0.000000 0.022798 0.000000
# 6 0.000000 0.000000 0.000000 0.000000 0.000000 0.031299
#
#
# Mechanical properties :
#
#
# Convention : Reuss Voigt Hill
#
# Bulk Modulus (GPa) = 49.84209 65.46516 57.65362
# Shear Modulus (GPa) = 45.28229 -5.99720 19.64255
#
# Velocity S-wave (km/s) = 5.03587 -1.83267 3.31672
# Velocity P-wave (km/s) = 7.85665 5.67318 6.85244
#
# Compressibility (1/GPa) = 0.02006337
#
# Stress axis : x y z
#
# Youngs Moduli (GPa) = 86.92025 54.23162 131.52515
#
# Poissons Ratio (x) = 0.05006 0.29956
# Poissons Ratio (y) = 0.08023 0.72882
# Poissons Ratio (z) = 0.19797 0.30052
#
# Static dielectric constant tensor:
#      x y z
#    x 1.587690 0.000000 0.000000 
#    y 0.000000 1.572960 0.000000 
#    z 0.000000 0.000000 1.641960 
# 
# From -- ./inp_files/37514.got.cif
#   From: 2010.05.17/outbox.cif.g08.bks.cpg/sg68_19_cif.got.tgz:37514.got - 2010.06.03 18:57:09.
