data_PCOD9506328
_publ_section_title
;
Structure prediction by ZEFSAII (Michael W. Deem and Ramdas Pophale) SiO2 
 PCOD9506328
Probable space group: C C C A
;
_chemical_formula_sum "Si O2"
_cell_formula_units_Z 64
_cell_length_a 18.493947
_cell_length_b 10.412499
_cell_length_c 12.995561
_cell_angle_alpha 90.000000
_cell_angle_beta 90.000000
_cell_angle_gamma 90.000000
_cell_volume 2502.531850
_symmetry_space_group_name_H-M "C C C A"
_symmetry_group_IT_number 68
_space_group.IT_coordinate_system_code '2'
_symmetry_cell_setting 'orthorhombic'
loop_
_space_group_symop_operation_xyz
x,y,z
-x,1/2-y,z
x,1/2-y,1/2-z
-x,y,1/2-z
-x,-y,-z
x,1/2+y,-z
-x,1/2+y,1/2+z
x,-y,1/2+z
1/2+x,1/2+y,z
1/2-x,-y,z
1/2+x,-y,1/2-z
1/2-x,1/2+y,1/2-z
1/2-x,1/2-y,-z
1/2+x,y,-z
1/2-x,y,1/2+z
1/2+x,1/2-y,1/2+z
loop_
_atom_site_type_symbol
_atom_site_label
_atom_site_fract_x
_atom_site_fract_y
_atom_site_fract_z
Si Si1 0.650134 0.850795 0.678001
Si Si2 0.564677 0.556201 0.184915
Si Si3 0.175167 0.962598 0.529690
Si Si4 0.942671 0.337117 0.544608
O O1 0.691831 0.750000 0.750000
O O2 0.627286 0.589117 0.501352
O O3 0.586690 0.761732 0.630173
O O4 0.691811 0.893629 0.576745
O O5 0.500000 0.615869 0.250000
O O6 0.523373 0.456875 0.107372
O O7 0.615949 0.468208 0.258353
O O8 0.623371 0.617519 0.107017
O O9 0.250000 0.000000 0.581598
O O10 0.000000 0.250000 0.483490
#
# Coordination Sequence:
#
# PCOD9506328 Si02
#       4
#    16  16  16  16
#     4  10  19  37  61  88 122 181 231 282 362 439
#     4   9  18  33  62  90 123 168 232 286 338 430
#     4  10  23  36  56  96 141 174 236 304 351 420
#     4   9  18  33  62  89 124 169 234 284 336 428
#
# _framework density 25.574100000000001
#
# number of rings (size 3 to 8) (size 9 to 14) (size 15 to 20)
#    1.500    1.000    2.500    0.000    0.000    6.000 
#    0.000    0.000    0.000    0.000    0.000    3.500 
#    0.000    0.000    0.000    0.000    0.000    0.000 
#
# Total GULP energy -178159.711879 kJ/mol
# GULP energy per Si atom -5567.490996 kJ/mol
# Density = 2.551589 g / cm^3
# Si number density = 25.574100 Si / 1000 Ang^3
#
#
#
# Elastic Constant Matrix: (Units=GPa)
#
#
# Indices 1 2 3 4 5 6 
#
# 1 118.4424 21.3460 27.8316 0.0000 0.0000 0.0000
# 2 21.3460 58.2855 12.2504 0.0000 0.0000 0.0000
# 3 27.8316 12.2504 106.2915 0.0000 0.0000 0.0000
# 4 0.0000 0.0000 0.0000 31.2331 0.0000 0.0000
# 5 0.0000 0.0000 0.0000 0.0000 18.3436 0.0000
# 6 0.0000 0.0000 0.0000 0.0000 0.0000 5.8033
#
#
#
# Elastic Compliance Matrix: (Units=1/GPa)
#
#
# Indices 1 2 3 4 5 6 
#
# 1 0.009490 -0.003027 -0.002136 0.000000 0.000000 0.000000
# 2 -0.003027 0.018548 -0.001345 0.000000 0.000000 0.000000
# 3 -0.002136 -0.001345 0.010122 0.000000 0.000000 0.000000
# 4 0.000000 0.000000 0.000000 0.032017 0.000000 0.000000
# 5 0.000000 0.000000 0.000000 0.000000 0.054515 0.000000
# 6 0.000000 0.000000 0.000000 0.000000 0.000000 0.172314
#
#
# Mechanical properties :
#
#
# Convention : Reuss Voigt Hill
#
# Bulk Modulus (GPa) = 39.76955 45.09726 42.43341
# Shear Modulus (GPa) = 15.70325 25.84876 20.77600
#
# Velocity S-wave (km/s) = 2.48065 3.18266 2.85333
# Velocity P-wave (km/s) = 4.87743 5.58373 5.24249
#
# Compressibility (1/GPa) = 0.02514487
#
# Stress axis : x y z
#
# Youngs Moduli (GPa) = 105.37019 53.91377 98.79023
#
# Poissons Ratio (x) = 0.16318 0.21103
# Poissons Ratio (y) = 0.31892 0.13289
# Poissons Ratio (z) = 0.22509 0.07252
#
# Static dielectric constant tensor:
#      x y z
#    x 1.494950 0.000000 0.000000 
#    y 0.000000 2.096610 0.000000 
#    z 0.000000 0.000000 2.102070 
# 
# From -- ./inp_files/16080.got.cif
#   From: 2010.05.17/outbox.cif.g08.bks.cpg/sg68_9_cif.got.tgz:16080.got - 2010.06.03 18:57:09.
