data_PCOD9506479
_publ_section_title
;
Structure prediction by ZEFSAII (Michael W. Deem and Ramdas Pophale) SiO2 
 PCOD9506479
Probable space group: C C C A
;
_chemical_formula_sum "Si O2"
_cell_formula_units_Z 112
_cell_length_a 13.537639
_cell_length_b 27.293854
_cell_length_c 13.890825
_cell_angle_alpha 90.000000
_cell_angle_beta 90.000000
_cell_angle_gamma 90.000000
_cell_volume 5132.581248
_symmetry_space_group_name_H-M "C C C A"
_symmetry_group_IT_number 68
_space_group.IT_coordinate_system_code '2'
_symmetry_cell_setting 'orthorhombic'
loop_
_space_group_symop_operation_xyz
x,y,z
-x,1/2-y,z
x,1/2-y,1/2-z
-x,y,1/2-z
-x,-y,-z
x,1/2+y,-z
-x,1/2+y,1/2+z
x,-y,1/2+z
1/2+x,1/2+y,z
1/2-x,-y,z
1/2+x,-y,1/2-z
1/2-x,1/2+y,1/2-z
1/2-x,1/2-y,-z
1/2+x,y,-z
1/2-x,y,1/2+z
1/2+x,1/2-y,1/2+z
loop_
_atom_site_type_symbol
_atom_site_label
_atom_site_fract_x
_atom_site_fract_y
_atom_site_fract_z
Si Si1 0.431819 0.106142 0.171671
Si Si2 0.077746 0.291768 0.023847
Si Si3 0.284243 0.812014 0.637144
Si Si4 0.065758 0.046980 0.975037
Si Si5 0.289129 0.949206 0.808611
Si Si6 0.389062 0.645968 0.478450
Si Si7 0.259705 0.342024 0.655153
O O1 0.500000 0.135200 0.250000
O O2 0.346618 0.138060 0.123984
O O3 0.496118 0.078212 0.095298
O O4 0.376451 0.067635 0.238992
O O5 0.148523 0.277444 0.932075
O O6 0.000000 0.250000 0.053246
O O7 0.151248 0.313268 0.104164
O O8 0.997188 0.333382 0.002357
O O9 0.175370 0.821636 0.595557
O O10 0.274727 0.810322 0.752446
O O11 0.162830 0.036572 0.911676
O O12 0.100045 0.088710 0.051341
O O13 0.000000 0.000000 0.000000
O O14 0.221858 0.899629 0.816392
O O15 0.250000 0.000000 0.768271
O O16 0.326533 0.650902 0.576740
#
# Coordination Sequence:
#
# PCOD9506479 Si02
#       7
#    16  16  16  16  16  16  16
#     4   9  18  36  58  82 117 165 208 268 308 375
#     4  11  24  43  69  94 131 170 213 278 337 391
#     4  10  21  40  69  89 125 174 217 263 337 392
#     4  10  20  31  55  85 121 166 210 258 324 388
#     4   9  19  33  55  86 123 164 217 266 321 383
#     4  10  22  40  60  93 128 166 214 276 324 380
#     4   9  22  41  63  92 132 173 213 281 325 392
#
# _framework density 21.821377999999999
#
# number of rings (size 3 to 8) (size 9 to 14) (size 15 to 20)
#    0.000    2.286    1.429    0.857    2.000    6.286 
#    0.000    4.286    0.000    0.000    0.000    0.000 
#    0.000    0.000    0.000    0.000    0.000    0.000 
#
# Total GULP energy -311780.198400 kJ/mol
# GULP energy per Si atom -5567.503543 kJ/mol
# Density = 2.177171 g / cm^3
# Si number density = 21.821378 Si / 1000 Ang^3
#
#
#
# Elastic Constant Matrix: (Units=GPa)
#
#
# Indices 1 2 3 4 5 6 
#
# 1 118.6269 47.3961 34.9774 0.0000 0.0000 0.0000
# 2 47.3961 87.3548 16.9844 0.0000 0.0000 0.0000
# 3 34.9774 16.9844 60.6122 0.0000 0.0000 0.0000
# 4 0.0000 0.0000 0.0000 11.0890 0.0000 0.0000
# 5 0.0000 0.0000 0.0000 0.0000 22.5767 0.0000
# 6 0.0000 0.0000 0.0000 0.0000 0.0000 42.6146
#
#
#
# Elastic Compliance Matrix: (Units=1/GPa)
#
#
# Indices 1 2 3 4 5 6 
#
# 1 0.012296 -0.005597 -0.005527 0.000000 0.000000 0.000000
# 2 -0.005597 0.014655 -0.000877 0.000000 0.000000 0.000000
# 3 -0.005527 -0.000877 0.019934 0.000000 0.000000 0.000000
# 4 0.000000 0.000000 0.000000 0.090180 0.000000 0.000000
# 5 0.000000 0.000000 0.000000 0.000000 0.044293 0.000000
# 6 0.000000 0.000000 0.000000 0.000000 0.000000 0.023466
#
#
# Mechanical properties :
#
#
# Convention : Reuss Voigt Hill
#
# Bulk Modulus (GPa) = 43.70124 51.70107 47.70116
# Shear Modulus (GPa) = 21.14599 26.40512 23.77556
#
# Velocity S-wave (km/s) = 3.11633 3.48236 3.30442
# Velocity P-wave (km/s) = 5.74621 6.31771 6.03873
#
# Compressibility (1/GPa) = 0.02288264
#
# Stress axis : x y z
#
# Youngs Moduli (GPa) = 81.33053 68.23817 50.16671
#
# Poissons Ratio (x) = 0.38190 0.27728
# Poissons Ratio (y) = 0.45517 0.04399
# Poissons Ratio (z) = 0.44952 0.05983
#
# Static dielectric constant tensor:
#      x y z
#    x 5.585830 0.000000 0.000000 
#    y 0.000000 1.968300 0.000000 
#    z 0.000000 0.000000 1.863380 
# 
# From -- ./inp_files/21244.got.cif
#   From: 2010.05.17/outbox.cif.g08.bks.cpg/sg68_11_cif.got.tgz:21244.got - 2010.06.03 18:57:09.
