data_PCOD9506883
_publ_section_title
;
Structure prediction by ZEFSAII (Michael W. Deem and Ramdas Pophale) SiO2 
 PCOD9506883
Probable space group: C C C A
;
_chemical_formula_sum "Si O2"
_cell_formula_units_Z 76
_cell_length_a 9.575610
_cell_length_b 25.754020
_cell_length_c 15.010715
_cell_angle_alpha 90.000000
_cell_angle_beta 90.000000
_cell_angle_gamma 90.000000
_cell_volume 3701.799203
_symmetry_space_group_name_H-M "C C C A"
_symmetry_group_IT_number 68
_space_group.IT_coordinate_system_code '2'
_symmetry_cell_setting 'orthorhombic'
loop_
_space_group_symop_operation_xyz
x,y,z
-x,1/2-y,z
x,1/2-y,1/2-z
-x,y,1/2-z
-x,-y,-z
x,1/2+y,-z
-x,1/2+y,1/2+z
x,-y,1/2+z
1/2+x,1/2+y,z
1/2-x,-y,z
1/2+x,-y,1/2-z
1/2-x,1/2+y,1/2-z
1/2-x,1/2-y,-z
1/2+x,y,-z
1/2-x,y,1/2+z
1/2+x,1/2-y,1/2+z
loop_
_atom_site_type_symbol
_atom_site_label
_atom_site_fract_x
_atom_site_fract_y
_atom_site_fract_z
Si Si1 0.000000 0.925863 0.750000
Si Si2 0.029688 0.192274 0.645700
Si Si3 0.500000 0.750000 0.250000
Si Si4 0.345113 0.839704 0.149803
Si Si5 0.598423 0.606749 0.970804
Si Si6 0.132066 0.045339 0.437109
O O1 0.124023 0.887438 0.717170
O O2 0.059554 0.955302 0.838274
O O3 0.186894 0.174052 0.631456
O O4 0.941828 0.144882 0.607687
O O5 0.000000 0.250000 0.607381
O O6 0.000000 0.195737 0.750000
O O7 0.410100 0.788016 0.189667
O O8 0.415900 0.859242 0.059897
O O9 0.759076 0.592196 0.954199
O O10 0.492736 0.557923 0.991154
O O11 0.250000 0.000000 0.446004
#
# Coordination Sequence:
#
# PCOD9506883 Si02
#       6
#     8  16   4  16  16  16
#     4   9  22  43  66  90 136 168 221 270 337 402
#     4  11  23  38  61  93 133 172 222 268 323 388
#     4  10  20  36  66  88 134 176 220 258 318 396
#     4  10  21  40  60  94 129 178 214 272 324 387
#     4  11  23  42  68  94 136 169 219 277 331 390
#     4  11  23  45  68  99 127 173 220 275 334 398
#
# _framework density 20.530557000000002
#
# number of rings (size 3 to 8) (size 9 to 14) (size 15 to 20)
#    0.000    1.474    2.105    3.158    1.474    4.211 
#    5.684    2.105    0.000    0.000    0.000    0.000 
#    0.000    0.000    0.000    0.000    0.000    0.000 
#
# Total GULP energy -211693.063270 kJ/mol
# GULP energy per Si atom -5570.870086 kJ/mol
# Density = 2.048383 g / cm^3
# Si number density = 20.530557 Si / 1000 Ang^3
#
#
#
# Elastic Constant Matrix: (Units=GPa)
#
#
# Indices 1 2 3 4 5 6 
#
# 1 105.5568 15.3142 -5.2012 0.0000 0.0000 0.0000
# 2 15.3142 61.7311 16.0850 0.0000 0.0000 0.0000
# 3 -5.2012 16.0850 59.6133 0.0000 0.0000 0.0000
# 4 0.0000 0.0000 0.0000 33.7717 0.0000 0.0000
# 5 0.0000 0.0000 0.0000 0.0000 34.3565 0.0000
# 6 0.0000 0.0000 0.0000 0.0000 0.0000 -50.8163
#
#
#
# Elastic Compliance Matrix: (Units=1/GPa)
#
#
# Indices 1 2 3 4 5 6 
#
# 1 0.009977 -0.002906 0.001655 0.000000 0.000000 0.000000
# 2 -0.002906 0.018271 -0.005183 0.000000 0.000000 0.000000
# 3 0.001655 -0.005183 0.018318 0.000000 0.000000 0.000000
# 4 0.000000 0.000000 0.000000 0.029611 0.000000 0.000000
# 5 0.000000 0.000000 0.000000 0.000000 0.029107 0.000000
# 6 0.000000 0.000000 0.000000 0.000000 0.000000 -0.019679
#
#
# Mechanical properties :
#
#
# Convention : Reuss Voigt Hill
#
# Bulk Modulus (GPa) = 29.67766 31.03301 30.35533
# Shear Modulus (GPa) = 45.57654 16.84260 31.20957
#
# Velocity S-wave (km/s) = 4.71673 2.86731 3.90314
# Velocity P-wave (km/s) = 6.64456 5.10983 5.92708
#
# Compressibility (1/GPa) = 0.03369538
#
# Stress axis : x y z
#
# Youngs Moduli (GPa) = 100.23330 54.73191 54.59181
#
# Poissons Ratio (x) = 0.15906 -0.09033
# Poissons Ratio (y) = 0.29129 0.28297
# Poissons Ratio (z) = -0.16585 0.28370
#
# Static dielectric constant tensor:
#      x y z
#    x 1.661160 0.000000 0.000000 
#    y 0.000000 1.493780 0.000000 
#    z 0.000000 0.000000 1.760610 
# 
# From -- ./inp_files/28387.got.cif
#   From: 2010.05.17/outbox.cif.g08.bks.cpg/sg68_15_cif.got.tgz:28387.got - 2010.06.03 18:57:09.
