data_PCOD9506027
_publ_section_title
;
Structure prediction by ZEFSAII (Michael W. Deem and Ramdas Pophale) SiO2 
 PCOD9506027
Probable space group: C C C A
;
_chemical_formula_sum "Si O2"
_cell_formula_units_Z 96
_cell_length_a 16.789828
_cell_length_b 12.005366
_cell_length_c 22.610044
_cell_angle_alpha 90.000000
_cell_angle_beta 90.000000
_cell_angle_gamma 90.000000
_cell_volume 4557.462032
_symmetry_space_group_name_H-M "C C C A"
_symmetry_group_IT_number 68
_space_group.IT_coordinate_system_code '2'
_symmetry_cell_setting 'orthorhombic'
loop_
_space_group_symop_operation_xyz
x,y,z
-x,1/2-y,z
x,1/2-y,1/2-z
-x,y,1/2-z
-x,-y,-z
x,1/2+y,-z
-x,1/2+y,1/2+z
x,-y,1/2+z
1/2+x,1/2+y,z
1/2-x,-y,z
1/2+x,-y,1/2-z
1/2-x,1/2+y,1/2-z
1/2-x,1/2-y,-z
1/2+x,y,-z
1/2-x,y,1/2+z
1/2+x,1/2-y,1/2+z
loop_
_atom_site_type_symbol
_atom_site_label
_atom_site_fract_x
_atom_site_fract_y
_atom_site_fract_z
Si Si1 0.000000 0.250000 0.620185
Si Si2 0.039004 0.422163 0.449145
Si Si3 0.858222 0.384959 0.557067
Si Si4 0.109519 0.192941 0.432817
Si Si5 0.750000 0.000000 0.763063
Si Si6 0.234514 0.697465 0.854902
Si Si7 0.371666 0.155660 0.299307
O O1 0.931076 0.308614 0.581738
O O2 0.950973 0.159104 0.659860
O O3 0.109994 0.494394 0.423787
O O4 0.077322 0.304398 0.465801
O O5 0.000000 0.500000 0.500000
O O6 0.963596 0.383232 0.411378
O O7 0.848469 0.372795 0.486412
O O8 0.776827 0.357819 0.588730
O O9 0.158764 0.236726 0.378043
O O10 0.725290 0.105048 0.804172
O O11 0.828557 0.045862 0.727772
O O12 0.298829 0.788303 0.834390
O O13 0.390339 0.250000 0.250000
#
# Coordination Sequence:
#
# PCOD9506027 Si02
#       7
#     8  16  16  16   8  16  16
#     4  10  19  34  58  84 112 150 191 236 290 338
#     4   9  18  31  48  70 106 151 184 218 268 325
#     4  10  19  33  53  81 113 148 186 227 277 346
#     4  10  19  33  51  78 115 149 183 227 278 348
#     4  10  20  38  58  80 110 146 192 250 298 338
#     4  10  20  34  56  82 110 147 187 233 294 344
#     4   9  20  36  55  81 110 143 194 249 288 332
#
# _framework density 21.064354999999999
#
# number of rings (size 3 to 8) (size 9 to 14) (size 15 to 20)
#    0.000    2.333    0.000    3.750    0.000    1.333 
#    0.000    1.667    0.000    7.000    0.000   18.667 
#    0.000    0.000    0.000    0.000    0.000    0.000 
#
# Total GULP energy -267261.515521 kJ/mol
# GULP energy per Si atom -5567.948240 kJ/mol
# Density = 2.101641 g / cm^3
# Si number density = 21.064355 Si / 1000 Ang^3
#
#
#
# Elastic Constant Matrix: (Units=GPa)
#
#
# Indices 1 2 3 4 5 6 
#
# 1 77.3606 24.7672 19.0503 0.0000 0.0000 0.0000
# 2 24.7672 53.4550 3.6581 0.0000 0.0000 0.0000
# 3 19.0503 3.6581 43.7593 0.0000 0.0000 0.0000
# 4 0.0000 0.0000 0.0000 19.5405 0.0000 0.0000
# 5 0.0000 0.0000 0.0000 0.0000 15.8644 0.0000
# 6 0.0000 0.0000 0.0000 0.0000 0.0000 36.2701
#
#
#
# Elastic Compliance Matrix: (Units=1/GPa)
#
#
# Indices 1 2 3 4 5 6 
#
# 1 0.016960 -0.007395 -0.006765 0.000000 0.000000 0.000000
# 2 -0.007395 0.022039 0.001377 0.000000 0.000000 0.000000
# 3 -0.006765 0.001377 0.025682 0.000000 0.000000 0.000000
# 4 0.000000 0.000000 0.000000 0.051176 0.000000 0.000000
# 5 0.000000 0.000000 0.000000 0.000000 0.063034 0.000000
# 6 0.000000 0.000000 0.000000 0.000000 0.000000 0.027571
#
#
# Mechanical properties :
#
#
# Convention : Reuss Voigt Hill
#
# Bulk Modulus (GPa) = 25.56551 29.94733 27.75642
# Shear Modulus (GPa) = 20.40255 22.80830 21.60542
#
# Velocity S-wave (km/s) = 3.11558 3.29415 3.20611
# Velocity P-wave (km/s) = 5.01056 5.35878 5.18759
#
# Compressibility (1/GPa) = 0.03911519
#
# Stress axis : x y z
#
# Youngs Moduli (GPa) = 58.96232 45.37320 38.93723
#
# Poissons Ratio (x) = 0.33554 0.26342
# Poissons Ratio (y) = 0.43603 -0.05362
# Poissons Ratio (z) = 0.39889 -0.06248
#
# Static dielectric constant tensor:
#      x y z
#    x 1.783350 0.000000 0.000000 
#    y 0.000000 1.842560 0.000000 
#    z 0.000000 0.000000 1.810430 
# 
# From -- ./inp_files/46024.got.cif
#   From: 2010.05.17/outbox.cif.g08.bks.cpg/sg68_24_cif.got.tgz:46024.got - 2010.06.03 18:57:09.
