data_PCOD9506842
_publ_section_title
;
Structure prediction by ZEFSAII (Michael W. Deem and Ramdas Pophale) SiO2 
 PCOD9506842
Probable space group: C C C A
;
_chemical_formula_sum "Si O2"
_cell_formula_units_Z 80
_cell_length_a 12.889352
_cell_length_b 20.376942
_cell_length_c 13.371649
_cell_angle_alpha 90.000000
_cell_angle_beta 90.000000
_cell_angle_gamma 90.000000
_cell_volume 3512.004482
_symmetry_space_group_name_H-M "C C C A"
_symmetry_group_IT_number 68
_space_group.IT_coordinate_system_code '2'
_symmetry_cell_setting 'orthorhombic'
loop_
_space_group_symop_operation_xyz
x,y,z
-x,1/2-y,z
x,1/2-y,1/2-z
-x,y,1/2-z
-x,-y,-z
x,1/2+y,-z
-x,1/2+y,1/2+z
x,-y,1/2+z
1/2+x,1/2+y,z
1/2-x,-y,z
1/2+x,-y,1/2-z
1/2-x,1/2+y,1/2-z
1/2-x,1/2-y,-z
1/2+x,y,-z
1/2-x,y,1/2+z
1/2+x,1/2-y,1/2+z
loop_
_atom_site_type_symbol
_atom_site_label
_atom_site_fract_x
_atom_site_fract_y
_atom_site_fract_z
Si Si1 0.291355 0.793153 0.342979
Si Si2 0.004175 0.011275 0.360045
Si Si3 0.640276 0.928820 0.968018
Si Si4 0.296668 0.431658 0.139292
Si Si5 0.606855 0.285765 0.052246
O O1 0.326363 0.750000 0.250000
O O2 0.250260 0.865822 0.314049
O O3 0.373793 0.792962 0.432907
O O4 0.193767 0.757246 0.394376
O O5 0.081232 0.947128 0.358554
O O6 0.000000 0.040326 0.250000
O O7 0.891621 0.986872 0.393999
O O8 0.057829 0.058394 0.440998
O O9 0.750280 0.927379 0.025292
O O10 0.619049 0.860641 0.913667
O O11 0.250000 0.500000 0.180152
O O12 0.500000 0.250000 0.072080
#
# Coordination Sequence:
#
# PCOD9506842 Si02
#       5
#    16  16  16  16  16
#     4  10  22  38  61  91 121 156 209 250 294 373
#     4  10  20  36  62  91 116 157 206 250 293 367
#     4   9  20  39  57  85 126 153 195 253 307 357
#     4   9  19  39  59  84 124 154 194 253 305 354
#     4  10  21  40  60  85 122 163 193 248 310 357
#
# _framework density 22.779015000000001
#
# number of rings (size 3 to 8) (size 9 to 14) (size 15 to 20)
#    0.000    2.400    0.000    1.200    2.800    0.800 
#   10.800   15.000    0.000    0.000    0.000    0.000 
#    0.000    0.000    0.000    0.000    0.000    0.000 
#
# Total GULP energy -223196.988184 kJ/mol
# GULP energy per Si atom -5579.924705 kJ/mol
# Density = 2.272717 g / cm^3
# Si number density = 22.779015 Si / 1000 Ang^3
#
#
#
# Elastic Constant Matrix: (Units=GPa)
#
#
# Indices 1 2 3 4 5 6 
#
# 1 38.6335 -17.2681 -15.7938 0.0000 0.0000 0.0000
# 2 -17.2681 113.2059 -2.3078 0.0000 0.0000 0.0000
# 3 -15.7938 -2.3078 61.0665 0.0000 0.0000 0.0000
# 4 0.0000 0.0000 0.0000 2.4638 0.0000 0.0000
# 5 0.0000 0.0000 0.0000 0.0000 11.8193 0.0000
# 6 0.0000 0.0000 0.0000 0.0000 0.0000 23.1283
#
#
#
# Elastic Compliance Matrix: (Units=1/GPa)
#
#
# Indices 1 2 3 4 5 6 
#
# 1 0.031519 0.004978 0.008340 0.000000 0.000000 0.000000
# 2 0.004978 0.009626 0.001651 0.000000 0.000000 0.000000
# 3 0.008340 0.001651 0.018595 0.000000 0.000000 0.000000
# 4 0.000000 0.000000 0.000000 0.405883 0.000000 0.000000
# 5 0.000000 0.000000 0.000000 0.000000 0.084608 0.000000
# 6 0.000000 0.000000 0.000000 0.000000 0.000000 0.043237
#
#
# Mechanical properties :
#
#
# Convention : Reuss Voigt Hill
#
# Bulk Modulus (GPa) = 11.15102 15.79626 13.47364
# Shear Modulus (GPa) = 8.42570 24.03397 16.22983
#
# Velocity S-wave (km/s) = 1.92534 3.25174 2.67215
# Velocity P-wave (km/s) = 3.13823 4.58782 3.93043
#
# Compressibility (1/GPa) = 0.08967792
#
# Stress axis : x y z
#
# Youngs Moduli (GPa) = 31.72721 103.88075 53.77798
#
# Poissons Ratio (x) = -0.51710 -0.44850
# Poissons Ratio (y) = -0.15793 -0.08880
# Poissons Ratio (z) = -0.26460 -0.17153
#
# Static dielectric constant tensor:
#      x y z
#    x 1.905650 0.000000 0.000000 
#    y 0.000000 1.882510 0.000000 
#    z 0.000000 0.000000 1.880730 
# 
# From -- ./inp_files/22142.got.cif
#   From: 2010.05.17/outbox.cif.g08.bks.cpg/sg68_12_cif.got.tgz:22142.got - 2010.06.03 18:57:09.
