data_PCOD9506630
_publ_section_title
;
Structure prediction by ZEFSAII (Michael W. Deem and Ramdas Pophale) SiO2 
 PCOD9506630
Probable space group: C C C A
;
_chemical_formula_sum "Si O2"
_cell_formula_units_Z 64
_cell_length_a 16.929443
_cell_length_b 13.296982
_cell_length_c 11.083518
_cell_angle_alpha 90.000000
_cell_angle_beta 90.000000
_cell_angle_gamma 90.000000
_cell_volume 2495.016266
_symmetry_space_group_name_H-M "C C C A"
_symmetry_group_IT_number 68
_space_group.IT_coordinate_system_code '2'
_symmetry_cell_setting 'orthorhombic'
loop_
_space_group_symop_operation_xyz
x,y,z
-x,1/2-y,z
x,1/2-y,1/2-z
-x,y,1/2-z
-x,-y,-z
x,1/2+y,-z
-x,1/2+y,1/2+z
x,-y,1/2+z
1/2+x,1/2+y,z
1/2-x,-y,z
1/2+x,-y,1/2-z
1/2-x,1/2+y,1/2-z
1/2-x,1/2-y,-z
1/2+x,y,-z
1/2-x,y,1/2+z
1/2+x,1/2-y,1/2+z
loop_
_atom_site_type_symbol
_atom_site_label
_atom_site_fract_x
_atom_site_fract_y
_atom_site_fract_z
Si Si1 0.486820 0.066417 0.119457
Si Si2 0.870278 0.179113 0.528575
Si Si3 0.197563 0.331895 0.142346
Si Si4 0.840085 0.015697 0.328656
O O1 0.500000 0.012082 0.250000
O O2 0.550859 0.155306 0.104520
O O3 0.393260 0.080846 0.143383
O O4 0.500000 0.000000 0.000000
O O5 0.857739 0.284549 0.460137
O O6 0.788158 0.159375 0.599019
O O7 0.871922 0.101097 0.417396
O O8 0.199200 0.250000 0.250000
O O9 0.164445 0.436243 0.195081
O O10 0.750000 0.000000 0.363491
#
# Coordination Sequence:
#
# PCOD9506630 Si02
#       4
#    16  16  16  16
#     4  10  21  37  60  92 132 172 221 284 345 409
#     4   9  19  36  59  89 129 172 222 284 349 419
#     4   9  18  35  61  90 125 173 223 277 350 424
#     4  10  20  34  60  94 127 170 224 282 344 417
#
# _framework density 25.651135
#
# number of rings (size 3 to 8) (size 9 to 14) (size 15 to 20)
#    0.000    2.500    0.000    1.500    0.000    5.000 
#    0.000    2.500    0.000   73.500    0.000    0.000 
#    0.000    0.000    0.000    0.000    0.000    0.000 
#
# Total GULP energy -178555.623288 kJ/mol
# GULP energy per Si atom -5579.863228 kJ/mol
# Density = 2.559275 g / cm^3
# Si number density = 25.651135 Si / 1000 Ang^3
#
#
#
# Elastic Constant Matrix: (Units=GPa)
#
#
# Indices 1 2 3 4 5 6 
#
# 1 193.8937 63.0323 55.5270 0.0000 0.0000 0.0000
# 2 63.0323 79.0141 64.6041 0.0000 0.0000 0.0000
# 3 55.5270 64.6041 162.8132 0.0000 0.0000 0.0000
# 4 0.0000 0.0000 0.0000 52.0853 0.0000 0.0000
# 5 0.0000 0.0000 0.0000 0.0000 -36.5631 0.0000
# 6 0.0000 0.0000 0.0000 0.0000 0.0000 45.9583
#
#
#
# Elastic Compliance Matrix: (Units=1/GPa)
#
#
# Indices 1 2 3 4 5 6 
#
# 1 0.006970 -0.005354 -0.000253 0.000000 0.000000 0.000000
# 2 -0.005354 0.022846 -0.007239 0.000000 0.000000 0.000000
# 3 -0.000253 -0.007239 0.009101 0.000000 0.000000 0.000000
# 4 0.000000 0.000000 0.000000 0.019199 0.000000 0.000000
# 5 0.000000 0.000000 0.000000 0.000000 -0.027350 0.000000
# 6 0.000000 0.000000 0.000000 0.000000 0.000000 0.021759
#
#
# Mechanical properties :
#
#
# Convention : Reuss Voigt Hill
#
# Bulk Modulus (GPa) = 75.61341 89.11642 82.36492
# Shear Modulus (GPa) = 60.51406 29.13327 44.82367
#
# Velocity S-wave (km/s) = 4.86234 3.37374 4.18477
# Velocity P-wave (km/s) = 7.81440 7.07060 7.45178
#
# Compressibility (1/GPa) = 0.01322517
#
# Stress axis : x y z
#
# Youngs Moduli (GPa) = 143.46597 43.77150 109.88016
#
# Poissons Ratio (x) = 0.23434 0.02778
# Poissons Ratio (y) = 0.76807 0.79546
# Poissons Ratio (z) = 0.03628 0.31688
#
# Static dielectric constant tensor:
#      x y z
#    x 1.784300 0.000000 0.000000 
#    y 0.000000 2.076510 0.000000 
#    z 0.000000 0.000000 2.075790 
# 
# From -- ./inp_files/12791.got.cif
#   From: 2010.05.17/outbox.cif.g08.bks.cpg/sg68_7_cif.got.tgz:12791.got - 2010.06.03 18:57:09.
