data_PCOD9506988
_publ_section_title
;
Structure prediction by ZEFSAII (Michael W. Deem and Ramdas Pophale) SiO2 
 PCOD9506988
Probable space group: C C C A
;
_chemical_formula_sum "Si O2"
_cell_formula_units_Z 88
_cell_length_a 26.053916
_cell_length_b 15.148199
_cell_length_c 10.623020
_cell_angle_alpha 90.000000
_cell_angle_beta 90.000000
_cell_angle_gamma 90.000000
_cell_volume 4192.586287
_symmetry_space_group_name_H-M "C C C A"
_symmetry_group_IT_number 68
_space_group.IT_coordinate_system_code '2'
_symmetry_cell_setting 'orthorhombic'
loop_
_space_group_symop_operation_xyz
x,y,z
-x,1/2-y,z
x,1/2-y,1/2-z
-x,y,1/2-z
-x,-y,-z
x,1/2+y,-z
-x,1/2+y,1/2+z
x,-y,1/2+z
1/2+x,1/2+y,z
1/2-x,-y,z
1/2+x,-y,1/2-z
1/2-x,1/2+y,1/2-z
1/2-x,1/2-y,-z
1/2+x,y,-z
1/2-x,y,1/2+z
1/2+x,1/2-y,1/2+z
loop_
_atom_site_type_symbol
_atom_site_label
_atom_site_fract_x
_atom_site_fract_y
_atom_site_fract_z
Si Si1 0.614438 0.750000 0.750000
Si Si2 0.809711 0.480279 0.449674
Si Si3 0.945359 0.202072 0.512561
Si Si4 0.054807 0.945280 0.684765
Si Si5 0.143474 0.933670 0.204746
Si Si6 0.631170 0.680214 0.345697
O O1 0.577946 0.798515 0.650479
O O2 0.647700 0.828705 0.808649
O O3 0.750000 0.500000 0.436826
O O4 0.839011 0.540247 0.345739
O O5 0.825798 0.487231 0.596447
O O6 0.827486 0.381931 0.410960
O O7 0.949775 0.106787 0.446783
O O8 0.904918 0.261948 0.435529
O O9 0.000000 0.250000 0.507663
O O10 0.091932 0.883558 0.769967
O O11 0.000000 0.953118 0.750000
O O12 0.084987 0.036790 0.676195
O O13 0.655788 0.750000 0.250000
#
# Coordination Sequence:
#
# PCOD9506988 Si02
#       6
#     8  16  16  16  16  16
#     4  12  25  42  58  92 146 176 216 288 345 392
#     4  11  23  47  73  98 131 180 233 292 353 404
#     4  11  20  36  62  97 135 177 222 266 328 408
#     4  10  20  37  67  94 130 184 226 265 330 415
#     4  11  25  45  67  99 137 178 230 289 345 416
#     4   9  19  37  65 100 133 167 226 279 326 404
#
# _framework density 20.989431
#
# number of rings (size 3 to 8) (size 9 to 14) (size 15 to 20)
#    0.000    1.455    3.636    1.909    0.000    1.455 
#    1.636    4.545    0.000    0.000    0.000    0.000 
#    0.000    0.000    0.000    0.000    0.000    0.000 
#
# Total GULP energy -245740.010961 kJ/mol
# GULP energy per Si atom -5585.000249 kJ/mol
# Density = 2.094166 g / cm^3
# Si number density = 20.989431 Si / 1000 Ang^3
#
#
#
# Elastic Constant Matrix: (Units=GPa)
#
#
# Indices 1 2 3 4 5 6 
#
# 1 96.8586 26.2725 23.7212 0.0000 0.0000 0.0000
# 2 26.2725 61.5768 3.0040 0.0000 0.0000 0.0000
# 3 23.7212 3.0040 85.1589 0.0000 0.0000 0.0000
# 4 0.0000 0.0000 0.0000 20.3734 0.0000 0.0000
# 5 0.0000 0.0000 0.0000 0.0000 18.6760 0.0000
# 6 0.0000 0.0000 0.0000 0.0000 0.0000 9.0339
#
#
#
# Elastic Compliance Matrix: (Units=1/GPa)
#
#
# Indices 1 2 3 4 5 6 
#
# 1 0.012543 -0.005190 -0.003311 0.000000 0.000000 0.000000
# 2 -0.005190 0.018415 0.000796 0.000000 0.000000 0.000000
# 3 -0.003311 0.000796 0.012637 0.000000 0.000000 0.000000
# 4 0.000000 0.000000 0.000000 0.049084 0.000000 0.000000
# 5 0.000000 0.000000 0.000000 0.000000 0.053545 0.000000
# 6 0.000000 0.000000 0.000000 0.000000 0.000000 0.110695
#
#
# Mechanical properties :
#
#
# Convention : Reuss Voigt Hill
#
# Bulk Modulus (GPa) = 35.47891 38.84331 37.16111
# Shear Modulus (GPa) = 17.74793 22.32309 20.03551
#
# Velocity S-wave (km/s) = 2.91102 3.26473 3.09293
# Velocity P-wave (km/s) = 5.31400 5.72343 5.52251
#
# Compressibility (1/GPa) = 0.02818576
#
# Stress axis : x y z
#
# Youngs Moduli (GPa) = 79.72605 54.30221 79.13331
#
# Poissons Ratio (x) = 0.28183 0.26199
# Poissons Ratio (y) = 0.41379 -0.06300
# Poissons Ratio (z) = 0.26396 -0.04323
#
# Static dielectric constant tensor:
#      x y z
#    x 1.700040 0.000000 0.000000 
#    y 0.000000 1.774240 0.000000 
#    z 0.000000 0.000000 1.824440 
# 
# From -- ./inp_files/16294.got.cif
#   From: 2010.05.17/outbox.cif.g08.bks.cpg/sg68_9_cif.got.tgz:16294.got - 2010.06.03 18:57:09.
