data_PCOD9506701
_publ_section_title
;
Structure prediction by ZEFSAII (Michael W. Deem and Ramdas Pophale) SiO2 
 PCOD9506701
Probable space group: C C C A
;
_chemical_formula_sum "Si O2"
_cell_formula_units_Z 48
_cell_length_a 9.062076
_cell_length_b 12.596877
_cell_length_c 17.423609
_cell_angle_alpha 90.000000
_cell_angle_beta 90.000000
_cell_angle_gamma 90.000000
_cell_volume 1988.972166
_symmetry_space_group_name_H-M "C C C A"
_symmetry_group_IT_number 68
_space_group.IT_coordinate_system_code '2'
_symmetry_cell_setting 'orthorhombic'
loop_
_space_group_symop_operation_xyz
x,y,z
-x,1/2-y,z
x,1/2-y,1/2-z
-x,y,1/2-z
-x,-y,-z
x,1/2+y,-z
-x,1/2+y,1/2+z
x,-y,1/2+z
1/2+x,1/2+y,z
1/2-x,-y,z
1/2+x,-y,1/2-z
1/2-x,1/2+y,1/2-z
1/2-x,1/2-y,-z
1/2+x,y,-z
1/2-x,y,1/2+z
1/2+x,1/2-y,1/2+z
loop_
_atom_site_type_symbol
_atom_site_label
_atom_site_fract_x
_atom_site_fract_y
_atom_site_fract_z
Si Si1 0.849462 0.788393 0.116753
Si Si2 0.151108 0.102215 0.043376
Si Si3 0.062821 0.628809 0.672466
O O1 0.751754 0.688567 0.088133
O O2 0.738496 0.860144 0.166576
O O3 0.000000 0.750000 0.154603
O O4 0.891247 0.848866 0.038227
O O5 0.008572 0.080494 0.096045
O O6 0.250000 0.000000 0.032910
O O7 0.000000 0.750000 0.672642
O O8 0.000000 0.577934 0.750000
#
# Coordination Sequence:
#
# PCOD9506701 Si02
#       3
#    16  16  16
#     4  10  20  35  59  88 112 146 200 248 290 350
#     4  10  20  36  57  85 120 157 195 236 290 352
#     4   9  19  38  58  78 117 160 191 240 303 351
#
# _framework density 24.133067
#
# number of rings (size 3 to 8) (size 9 to 14) (size 15 to 20)
#    0.000    2.333    0.000    5.000    0.000    5.333 
#    0.000   18.333    0.000    0.000    0.000    0.000 
#    0.000    0.000    0.000    0.000    0.000    0.000 
#
# Total GULP energy -134328.105788 kJ/mol
# GULP energy per Si atom -5597.004408 kJ/mol
# Density = 2.407814 g / cm^3
# Si number density = 24.133067 Si / 1000 Ang^3
#
#
#
# Elastic Constant Matrix: (Units=GPa)
#
#
# Indices 1 2 3 4 5 6 
#
# 1 202.6643 11.1362 85.0819 0.0000 0.0000 0.0000
# 2 11.1362 63.3852 14.2602 0.0000 0.0000 0.0000
# 3 85.0819 14.2602 94.1622 0.0000 0.0000 0.0000
# 4 0.0000 0.0000 0.0000 -13.2373 0.0000 0.0000
# 5 0.0000 0.0000 0.0000 0.0000 19.1496 0.0000
# 6 0.0000 0.0000 0.0000 0.0000 0.0000 30.5302
#
#
#
# Elastic Compliance Matrix: (Units=1/GPa)
#
#
# Indices 1 2 3 4 5 6 
#
# 1 0.007953 0.000227 -0.007221 0.000000 0.000000 0.000000
# 2 0.000227 0.016340 -0.002680 0.000000 0.000000 0.000000
# 3 -0.007221 -0.002680 0.017550 0.000000 0.000000 0.000000
# 4 0.000000 0.000000 0.000000 -0.075544 0.000000 0.000000
# 5 0.000000 0.000000 0.000000 0.000000 0.052220 0.000000
# 6 0.000000 0.000000 0.000000 0.000000 0.000000 0.032754
#
#
# Mechanical properties :
#
#
# Convention : Reuss Voigt Hill
#
# Bulk Modulus (GPa) = 44.45163 64.57426 54.51295
# Shear Modulus (GPa) = 64.00528 23.93741 43.97135
#
# Velocity S-wave (km/s) = 5.15552 3.15285 4.27316
# Velocity P-wave (km/s) = 7.34156 6.33006 6.85449
#
# Compressibility (1/GPa) = 0.02249636
#
# Stress axis : x y z
#
# Youngs Moduli (GPa) = 125.73713 61.20130 56.97984
#
# Poissons Ratio (x) = -0.01390 0.41143
# Poissons Ratio (y) = -0.02856 0.15269
# Poissons Ratio (z) = 0.90789 0.16401
#
# Static dielectric constant tensor:
#      x y z
#    x 1.946370 0.000000 0.000000 
#    y 0.000000 1.978330 0.000000 
#    z 0.000000 0.000000 1.967250 
# 
# From -- ./inp_files/27396.got.cif
#   From: 2010.05.17/outbox.cif.g08.bks.cpg/sg68_14_cif.got.tgz:27396.got - 2010.06.03 18:57:09.
