data_PCOD9506295
_publ_section_title
;
Structure prediction by ZEFSAII (Michael W. Deem and Ramdas Pophale) SiO2 
 PCOD9506295
Probable space group: C C C A
;
_chemical_formula_sum "Si O2"
_cell_formula_units_Z 64
_cell_length_a 25.282110
_cell_length_b 5.289932
_cell_length_c 25.154379
_cell_angle_alpha 90.000000
_cell_angle_beta 90.000000
_cell_angle_gamma 90.000000
_cell_volume 3364.162815
_symmetry_space_group_name_H-M "C C C A"
_symmetry_group_IT_number 68
_space_group.IT_coordinate_system_code '2'
_symmetry_cell_setting 'orthorhombic'
loop_
_space_group_symop_operation_xyz
x,y,z
-x,1/2-y,z
x,1/2-y,1/2-z
-x,y,1/2-z
-x,-y,-z
x,1/2+y,-z
-x,1/2+y,1/2+z
x,-y,1/2+z
1/2+x,1/2+y,z
1/2-x,-y,z
1/2+x,-y,1/2-z
1/2-x,1/2+y,1/2-z
1/2-x,1/2-y,-z
1/2+x,y,-z
1/2-x,y,1/2+z
1/2+x,1/2-y,1/2+z
loop_
_atom_site_type_symbol
_atom_site_label
_atom_site_fract_x
_atom_site_fract_y
_atom_site_fract_z
Si Si1 0.853586 0.122949 0.306839
Si Si2 0.976789 0.002081 0.310331
Si Si3 0.810110 0.735022 0.477184
Si Si4 0.307394 0.389342 0.147046
O O1 0.840817 0.250000 0.250000
O O2 0.845174 0.366319 0.344907
O O3 0.914059 0.026951 0.306865
O O4 0.820967 0.868812 0.321140
O O5 0.000000 0.750000 0.335673
O O6 0.000000 0.001238 0.250000
O O7 0.000000 0.250000 0.337278
O O8 0.835769 0.499014 0.507028
O O9 0.750000 0.750000 0.500000
O O10 0.807431 0.689030 0.414697
O O11 0.250000 0.500000 0.161746
#
# Coordination Sequence:
#
# PCOD9506295 Si02
#       4
#    16  16  16  16
#     4  12  25  40  59  90 128 171 210 241 295 373
#     4  10  19  36  65  82 105 156 209 260 306 324
#     4  10  19  36  65  83 107 159 212 262 308 326
#     4  12  25  39  60  89 130 172 210 242 293 372
#
# _framework density 19.024046999999999
#
# number of rings (size 3 to 8) (size 9 to 14) (size 15 to 20)
#    0.000    1.000    5.000    4.500    7.000    2.000 
#    0.000    0.000    0.000    0.000    0.000    0.000 
#    0.000   70.000    0.000    0.000    0.000    0.000 
#
# Total GULP energy -178432.359043 kJ/mol
# GULP energy per Si atom -5576.011220 kJ/mol
# Density = 1.898075 g / cm^3
# Si number density = 19.024047 Si / 1000 Ang^3
#
#
#
# Elastic Constant Matrix: (Units=GPa)
#
#
# Indices 1 2 3 4 5 6 
#
# 1 79.3736 60.7394 50.9654 0.0000 0.0000 0.0000
# 2 60.7394 241.1289 61.0987 0.0000 0.0000 0.0000
# 3 50.9654 61.0987 80.5140 0.0000 0.0000 0.0000
# 4 0.0000 0.0000 0.0000 23.5413 0.0000 0.0000
# 5 0.0000 0.0000 0.0000 0.0000 -5.3810 0.0000
# 6 0.0000 0.0000 0.0000 0.0000 0.0000 36.4523
#
#
#
# Elastic Compliance Matrix: (Units=1/GPa)
#
#
# Indices 1 2 3 4 5 6 
#
# 1 0.022415 -0.002539 -0.012262 0.000000 0.000000 0.000000
# 2 -0.002539 0.005422 -0.002507 0.000000 0.000000 0.000000
# 3 -0.012262 -0.002507 0.022084 0.000000 0.000000 0.000000
# 4 0.000000 0.000000 0.000000 0.042479 0.000000 0.000000
# 5 0.000000 0.000000 0.000000 0.000000 -0.185840 0.000000
# 6 0.000000 0.000000 0.000000 0.000000 0.000000 0.027433
#
#
# Mechanical properties :
#
#
# Convention : Reuss Voigt Hill
#
# Bulk Modulus (GPa) = 65.33772 82.95815 74.14793
# Shear Modulus (GPa) = -190.20023 26.13672 -82.03175
#
# Velocity S-wave (km/s) = -10.00979 3.71061 -6.57371
# Velocity P-wave (km/s) = 9.95867 7.87780 4.30786
#
# Compressibility (1/GPa) = 0.01530509
#
# Stress axis : x y z
#
# Youngs Moduli (GPa) = 44.61300 184.43069 45.28066
#
# Poissons Ratio (x) = 0.46832 0.55522
# Poissons Ratio (y) = 0.11329 0.11353
# Poissons Ratio (z) = 0.54703 0.46241
#
# Static dielectric constant tensor:
#      x y z
#    x 1.649430 0.000000 0.000000 
#    y 0.000000 1.752100 0.000000 
#    z 0.000000 0.000000 1.650580 
# 
# From -- ./inp_files/46324.got.cif
#   From: 2010.05.17/outbox.cif.g08.bks.cpg/sg68_24_cif.got.tgz:46324.got - 2010.06.03 18:57:09.
