data_PCOD9506776
_publ_section_title
;
Structure prediction by ZEFSAII (Michael W. Deem and Ramdas Pophale) SiO2 
 PCOD9506776
Probable space group: C C C A
;
_chemical_formula_sum "Si O2"
_cell_formula_units_Z 76
_cell_length_a 30.099056
_cell_length_b 13.494408
_cell_length_c 10.333287
_cell_angle_alpha 90.000000
_cell_angle_beta 90.000000
_cell_angle_gamma 90.000000
_cell_volume 4197.060249
_symmetry_space_group_name_H-M "C C C A"
_symmetry_group_IT_number 68
_space_group.IT_coordinate_system_code '2'
_symmetry_cell_setting 'orthorhombic'
loop_
_space_group_symop_operation_xyz
x,y,z
-x,1/2-y,z
x,1/2-y,1/2-z
-x,y,1/2-z
-x,-y,-z
x,1/2+y,-z
-x,1/2+y,1/2+z
x,-y,1/2+z
1/2+x,1/2+y,z
1/2-x,-y,z
1/2+x,-y,1/2-z
1/2-x,1/2+y,1/2-z
1/2-x,1/2-y,-z
1/2+x,y,-z
1/2-x,y,1/2+z
1/2+x,1/2-y,1/2+z
loop_
_atom_site_type_symbol
_atom_site_label
_atom_site_fract_x
_atom_site_fract_y
_atom_site_fract_z
Si Si1 0.045707 0.445695 0.303336
Si Si2 0.672550 0.867367 0.614110
Si Si3 0.600117 0.481912 0.956646
Si Si4 0.750000 0.500000 0.486070
Si Si5 0.675488 0.855431 0.916130
Si Si6 0.500000 0.250000 0.750000
O O1 0.064030 0.497654 0.431544
O O2 0.079560 0.455518 0.182802
O O3 0.031359 0.329626 0.324821
O O4 0.000000 0.493037 0.250000
O O5 0.715232 0.936472 0.595736
O O6 0.662841 0.860821 0.765846
O O7 0.682921 0.759980 0.555866
O O8 0.630199 0.919297 0.550398
O O9 0.634951 0.398106 0.000579
O O10 0.718998 0.576999 0.563560
#
# Coordination Sequence:
#
# PCOD9506776 Si02
#       6
#    16  16  16   8  16   4
#     4  10  22  40  59  87 117 152 190 241 279 350
#     4  10  21  36  57  84 117 151 192 239 284 345
#     4  11  21  39  61  86 118 154 191 235 295 331
#     4  10  20  36  58  80 114 154 196 234 288 334
#     4  10  21  36  57  84 117 151 192 239 284 345
#     4   8  24  36  64  86 118 148 200 234 280 344
#
# _framework density 18.107911000000001
#
# number of rings (size 3 to 8) (size 9 to 14) (size 15 to 20)
#    0.632    1.263    2.105    1.895    2.947    0.000 
#    0.000    0.000    0.000    2.526    0.000    0.000 
#    0.000    0.000    0.000    0.000    0.000    0.000 
#
# Total GULP energy -211622.329801 kJ/mol
# GULP energy per Si atom -5569.008679 kJ/mol
# Density = 1.806670 g / cm^3
# Si number density = 18.107911 Si / 1000 Ang^3
#
#
#
# Elastic Constant Matrix: (Units=GPa)
#
#
# Indices 1 2 3 4 5 6 
#
# 1 76.8829 28.9808 9.1125 0.0000 0.0000 0.0000
# 2 28.9808 107.8614 15.3223 0.0000 0.0000 0.0000
# 3 9.1125 15.3223 52.8164 0.0000 0.0000 0.0000
# 4 0.0000 0.0000 0.0000 15.8296 0.0000 0.0000
# 5 0.0000 0.0000 0.0000 0.0000 23.0898 0.0000
# 6 0.0000 0.0000 0.0000 0.0000 0.0000 15.4302
#
#
#
# Elastic Compliance Matrix: (Units=1/GPa)
#
#
# Indices 1 2 3 4 5 6 
#
# 1 0.014577 -0.003712 -0.001438 0.000000 0.000000 0.000000
# 2 -0.003712 0.010615 -0.002439 0.000000 0.000000 0.000000
# 3 -0.001438 -0.002439 0.019889 0.000000 0.000000 0.000000
# 4 0.000000 0.000000 0.000000 0.063173 0.000000 0.000000
# 5 0.000000 0.000000 0.000000 0.000000 0.043309 0.000000
# 6 0.000000 0.000000 0.000000 0.000000 0.000000 0.064808
#
#
# Mechanical properties :
#
#
# Convention : Reuss Voigt Hill
#
# Bulk Modulus (GPa) = 33.44220 38.26576 35.85398
# Shear Modulus (GPa) = 20.70249 23.14624 21.92437
#
# Velocity S-wave (km/s) = 3.38492 3.57913 3.48338
# Velocity P-wave (km/s) = 5.81251 6.18532 6.00181
#
# Compressibility (1/GPa) = 0.02990234
#
# Stress axis : x y z
#
# Youngs Moduli (GPa) = 68.60335 94.20582 50.27861
#
# Poissons Ratio (x) = 0.34971 0.07230
# Poissons Ratio (y) = 0.25467 0.12263
# Poissons Ratio (z) = 0.09865 0.22977
#
# Static dielectric constant tensor:
#      x y z
#    x 1.621890 0.000000 0.000000 
#    y 0.000000 1.637920 0.000000 
#    z 0.000000 0.000000 1.610220 
# 
# From -- ./inp_files/11989.got.cif
#   From: 2010.05.17/outbox.cif.g08.bks.cpg/sg68_6_cif.got.tgz:11989.got - 2010.06.03 18:57:09.
