data_PCOD9506275
_publ_section_title
;
Structure prediction by ZEFSAII (Michael W. Deem and Ramdas Pophale) SiO2 
 PCOD9506275
Probable space group: C C C A
;
_chemical_formula_sum "Si O2"
_cell_formula_units_Z 88
_cell_length_a 8.619334
_cell_length_b 31.082501
_cell_length_c 17.407749
_cell_angle_alpha 90.000000
_cell_angle_beta 90.000000
_cell_angle_gamma 90.000000
_cell_volume 4663.718002
_symmetry_space_group_name_H-M "C C C A"
_symmetry_group_IT_number 68
_space_group.IT_coordinate_system_code '2'
_symmetry_cell_setting 'orthorhombic'
loop_
_space_group_symop_operation_xyz
x,y,z
-x,1/2-y,z
x,1/2-y,1/2-z
-x,y,1/2-z
-x,-y,-z
x,1/2+y,-z
-x,1/2+y,1/2+z
x,-y,1/2+z
1/2+x,1/2+y,z
1/2-x,-y,z
1/2+x,-y,1/2-z
1/2-x,1/2+y,1/2-z
1/2-x,1/2-y,-z
1/2+x,y,-z
1/2-x,y,1/2+z
1/2+x,1/2-y,1/2+z
loop_
_atom_site_type_symbol
_atom_site_label
_atom_site_fract_x
_atom_site_fract_y
_atom_site_fract_z
Si Si1 0.931397 0.488544 0.582443
Si Si2 0.497494 0.811375 0.886490
Si Si3 0.143422 0.039597 0.299029
Si Si4 0.561166 0.906580 0.662192
Si Si5 0.500000 0.750000 0.030164
Si Si6 0.245884 0.255725 0.334791
O O1 0.750000 0.500000 0.585326
O O2 0.000000 0.500000 0.500000
O O3 0.044099 0.515988 0.636538
O O4 0.960078 0.440171 0.612502
O O5 0.451282 0.860462 0.877741
O O6 0.660586 0.800275 0.845567
O O7 0.371500 0.782235 0.842847
O O8 0.504952 0.790895 0.972352
O O9 0.265165 0.074209 0.330022
O O10 0.000000 0.058300 0.250000
O O11 0.250000 0.000000 0.263644
O O12 0.500000 0.904264 0.750000
O O13 0.641385 0.748572 0.089660
O O14 0.175719 0.250000 0.250000
#
# Coordination Sequence:
#
# PCOD9506275 Si02
#       6
#    16  16  16  16   8  16
#     4  11  22  41  59  86 121 162 208 250 317 371
#     4  10  20  39  61  88 123 166 206 243 313 376
#     4  10  19  36  61  86 115 158 205 257 314 366
#     4  11  22  38  63  90 119 160 213 260 304 373
#     4  10  21  40  61  94 126 160 202 256 317 368
#     4  10  19  38  65  89 123 161 201 250 308 380
#
# _framework density 18.869066
#
# number of rings (size 3 to 8) (size 9 to 14) (size 15 to 20)
#    0.000    1.818    0.000   10.091    0.000    0.000 
#   13.091    3.636    0.000    0.000    0.000    0.000 
#    0.000    0.000    0.000    0.000    0.000    0.000 
#
# Total GULP energy -245196.877758 kJ/mol
# GULP energy per Si atom -5572.656313 kJ/mol
# Density = 1.882612 g / cm^3
# Si number density = 18.869066 Si / 1000 Ang^3
#
#
#
# Elastic Constant Matrix: (Units=GPa)
#
#
# Indices 1 2 3 4 5 6 
#
# 1 139.6503 62.2484 36.8650 0.0000 0.0000 0.0000
# 2 62.2484 155.1543 44.1369 0.0000 0.0000 0.0000
# 3 36.8650 44.1369 116.8803 0.0000 0.0000 0.0000
# 4 0.0000 0.0000 0.0000 10.9724 0.0000 0.0000
# 5 0.0000 0.0000 0.0000 0.0000 30.2873 0.0000
# 6 0.0000 0.0000 0.0000 0.0000 0.0000 14.8781
#
#
#
# Elastic Compliance Matrix: (Units=1/GPa)
#
#
# Indices 1 2 3 4 5 6 
#
# 1 0.008996 -0.003139 -0.001652 0.000000 0.000000 0.000000
# 2 -0.003139 0.008316 -0.002150 0.000000 0.000000 0.000000
# 3 -0.001652 -0.002150 0.009889 0.000000 0.000000 0.000000
# 4 0.000000 0.000000 0.000000 0.091138 0.000000 0.000000
# 5 0.000000 0.000000 0.000000 0.000000 0.033017 0.000000
# 6 0.000000 0.000000 0.000000 0.000000 0.000000 0.067213
#
#
# Mechanical properties :
#
#
# Convention : Reuss Voigt Hill
#
# Bulk Modulus (GPa) = 75.08553 77.57618 76.33086
# Shear Modulus (GPa) = 21.10667 29.12319 25.11493
#
# Velocity S-wave (km/s) = 3.34816 3.93292 3.65226
# Velocity P-wave (km/s) = 7.40447 7.86295 7.63715
#
# Compressibility (1/GPa) = 0.01331814
#
# Stress axis : x y z
#
# Youngs Moduli (GPa) = 111.15819 120.24403 101.12433
#
# Poissons Ratio (x) = 0.37749 0.16705
# Poissons Ratio (y) = 0.34897 0.21745
# Poissons Ratio (z) = 0.18363 0.25856
#
# Static dielectric constant tensor:
#      x y z
#    x 1.727870 0.000000 0.000000 
#    y 0.000000 1.635160 0.000000 
#    z 0.000000 0.000000 1.745590 
# 
# From -- ./inp_files/28518.got.cif
#   From: 2010.05.17/outbox.cif.g08.bks.cpg/sg68_15_cif.got.tgz:28518.got - 2010.06.03 18:57:09.
