data_PCOD9506559
_publ_section_title
;
Structure prediction by ZEFSAII (Michael W. Deem and Ramdas Pophale) SiO2 
 PCOD9506559
Probable space group: C C C A
;
_chemical_formula_sum "Si O2"
_cell_formula_units_Z 104
_cell_length_a 20.261617
_cell_length_b 26.236832
_cell_length_c 9.878770
_cell_angle_alpha 90.000000
_cell_angle_beta 90.000000
_cell_angle_gamma 90.000000
_cell_volume 5251.560467
_symmetry_space_group_name_H-M "C C C A"
_symmetry_group_IT_number 68
_space_group.IT_coordinate_system_code '2'
_symmetry_cell_setting 'orthorhombic'
loop_
_space_group_symop_operation_xyz
x,y,z
-x,1/2-y,z
x,1/2-y,1/2-z
-x,y,1/2-z
-x,-y,-z
x,1/2+y,-z
-x,1/2+y,1/2+z
x,-y,1/2+z
1/2+x,1/2+y,z
1/2-x,-y,z
1/2+x,-y,1/2-z
1/2-x,1/2+y,1/2-z
1/2-x,1/2-y,-z
1/2+x,y,-z
1/2-x,y,1/2+z
1/2+x,1/2-y,1/2+z
loop_
_atom_site_type_symbol
_atom_site_label
_atom_site_fract_x
_atom_site_fract_y
_atom_site_fract_z
Si Si1 0.643924 0.433474 0.079971
Si Si2 0.098522 0.878522 0.551150
Si Si3 0.707575 0.609013 0.828513
Si Si4 0.544928 0.513914 0.125545
Si Si5 0.018440 0.805629 0.910025
Si Si6 0.854191 0.642547 0.851442
Si Si7 0.750000 0.500000 0.940346
O O1 0.680299 0.392610 0.175440
O O2 0.586509 0.463091 0.158201
O O3 0.693603 0.477519 0.035082
O O4 0.623668 0.407086 0.938796
O O5 0.150505 0.873477 0.430312
O O6 0.087222 0.938073 0.579008
O O7 0.128352 0.859159 0.693198
O O8 0.029150 0.849137 0.527432
O O9 0.774654 0.640587 0.855381
O O10 0.725280 0.549194 0.857210
O O11 0.500000 0.529784 0.250000
O O12 0.500000 0.500000 0.000000
O O13 0.096998 0.815444 0.915787
O O14 0.000000 0.750000 0.963711
O O15 0.000000 0.806672 0.750000
#
# Coordination Sequence:
#
# PCOD9506559 Si02
#       7
#    16  16  16  16  16  16   8
#     4  11  22  34  52  80 118 158 193 229 283 346
#     4  11  21  38  57  83 112 148 192 239 287 340
#     4  11  22  34  56  83 120 155 193 232 280 340
#     4  12  23  34  50  77 112 152 192 237 277 334
#     4   9  19  39  66  87 107 144 194 246 298 349
#     4  10  21  37  58  85 114 147 191 243 284 343
#     4  10  20  34  52  74 112 160 200 224 270 326
#
# _framework density 19.803639
#
# number of rings (size 3 to 8) (size 9 to 14) (size 15 to 20)
#    0.000    1.385    1.538    6.462    4.308    0.000 
#    0.000    0.769    0.000    3.692    0.000    0.000 
#    0.000    0.000    0.000    0.000    0.000    0.000 
#
# Total GULP energy -290034.500399 kJ/mol
# GULP energy per Si atom -5577.586546 kJ/mol
# Density = 1.975856 g / cm^3
# Si number density = 19.803639 Si / 1000 Ang^3
#
#
#
# Elastic Constant Matrix: (Units=GPa)
#
#
# Indices 1 2 3 4 5 6 
#
# 1 74.7138 12.5266 13.4402 0.0000 0.0000 0.0000
# 2 12.5266 40.3152 -4.1530 0.0000 0.0000 0.0000
# 3 13.4402 -4.1530 50.1208 0.0000 0.0000 0.0000
# 4 0.0000 0.0000 0.0000 4.3060 0.0000 0.0000
# 5 0.0000 0.0000 0.0000 0.0000 28.7293 0.0000
# 6 0.0000 0.0000 0.0000 0.0000 0.0000 28.0770
#
#
#
# Elastic Compliance Matrix: (Units=1/GPa)
#
#
# Indices 1 2 3 4 5 6 
#
# 1 0.015048 -0.005135 -0.004461 0.000000 0.000000 0.000000
# 2 -0.005135 0.026770 0.003595 0.000000 0.000000 0.000000
# 3 -0.004461 0.003595 0.021446 0.000000 0.000000 0.000000
# 4 0.000000 0.000000 0.000000 0.232234 0.000000 0.000000
# 5 0.000000 0.000000 0.000000 0.000000 0.034808 0.000000
# 6 0.000000 0.000000 0.000000 0.000000 0.000000 0.035616
#
#
# Mechanical properties :
#
#
# Convention : Reuss Voigt Hill
#
# Bulk Modulus (GPa) = 19.50724 23.19748 21.35236
# Shear Modulus (GPa) = 12.65787 21.77821 17.21804
#
# Velocity S-wave (km/s) = 2.53092 3.31978 2.95182
# Velocity P-wave (km/s) = 4.29098 5.14138 4.73531
#
# Compressibility (1/GPa) = 0.05126302
#
# Stress axis : x y z
#
# Youngs Moduli (GPa) = 66.45498 37.35466 46.62904
#
# Poissons Ratio (x) = 0.19182 0.20800
# Poissons Ratio (y) = 0.34125 -0.16764
# Poissons Ratio (z) = 0.29643 -0.13430
#
# Static dielectric constant tensor:
#      x y z
#    x 1.716860 0.000000 0.000000 
#    y 0.000000 1.702770 0.000000 
#    z 0.000000 0.000000 1.695580 
# 
# From -- ./inp_files/14772.got.cif
#   From: 2010.05.17/outbox.cif.g08.bks.cpg/sg68_8_cif.got.tgz:14772.got - 2010.06.03 18:57:09.
