data_PCOD9506353
_publ_section_title
;
Structure prediction by ZEFSAII (Michael W. Deem and Ramdas Pophale) SiO2 
 PCOD9506353
Probable space group: C C C A
;
_chemical_formula_sum "Si O2"
_cell_formula_units_Z 116
_cell_length_a 12.325696
_cell_length_b 16.816497
_cell_length_c 29.779901
_cell_angle_alpha 90.000000
_cell_angle_beta 90.000000
_cell_angle_gamma 90.000000
_cell_volume 6172.629867
_symmetry_space_group_name_H-M "C C C A"
_symmetry_group_IT_number 68
_space_group.IT_coordinate_system_code '2'
_symmetry_cell_setting 'orthorhombic'
loop_
_space_group_symop_operation_xyz
x,y,z
-x,1/2-y,z
x,1/2-y,1/2-z
-x,y,1/2-z
-x,-y,-z
x,1/2+y,-z
-x,1/2+y,1/2+z
x,-y,1/2+z
1/2+x,1/2+y,z
1/2-x,-y,z
1/2+x,-y,1/2-z
1/2-x,1/2+y,1/2-z
1/2-x,1/2-y,-z
1/2+x,y,-z
1/2-x,y,1/2+z
1/2+x,1/2-y,1/2+z
loop_
_atom_site_type_symbol
_atom_site_label
_atom_site_fract_x
_atom_site_fract_y
_atom_site_fract_z
Si Si1 0.358996 0.052923 0.619262
Si Si2 0.076444 0.872987 0.320279
Si Si3 0.015420 0.093811 0.588208
Si Si4 0.262724 0.837494 0.553251
Si Si5 0.500000 0.250000 0.250000
Si Si6 0.488514 0.445293 0.698390
Si Si7 0.705436 0.910093 0.136050
Si Si8 0.285221 0.352435 0.048715
O O1 0.323019 0.128240 0.589568
O O2 0.401597 0.065831 0.669731
O O3 0.250000 0.000000 0.620533
O O4 0.454305 0.998801 0.596764
O O5 0.194640 0.863678 0.341884
O O6 0.994504 0.866452 0.362383
O O7 0.064983 0.808398 0.282268
O O8 0.050892 0.961871 0.301866
O O9 0.117789 0.129726 0.563370
O O10 0.901937 0.112327 0.563980
O O11 0.274338 0.742585 0.554023
O O12 0.231092 0.867970 0.503756
O O13 0.500000 0.419989 0.750000
O O14 0.398000 0.402379 0.667732
O O15 0.697856 0.887567 0.083846
O O16 0.750000 0.000000 0.137034
#
# Coordination Sequence:
#
# PCOD9506353 Si02
#       8
#    16  16  16  16   4  16  16  16
#     4   9  20  37  58  85 112 145 194 242 291 344
#     4   9  20  34  55  88 113 141 189 244 295 333
#     4   9  19  37  57  79 115 145 180 240 291 341
#     4  10  21  36  56  87 115 145 188 244 300 343
#     4  12  20  32  60  96 110 136 190 260 300 340
#     4  10  19  38  56  79 117 158 195 229 282 347
#     4   9  20  37  56  81 116 155 194 234 281 349
#     4  10  21  36  58  84 111 151 193 236 293 348
#
# _framework density 18.792636999999999
#
# number of rings (size 3 to 8) (size 9 to 14) (size 15 to 20)
#    0.000    2.483    0.690    1.241    3.862    4.966 
#    2.483    2.069    0.000    0.828    0.000    0.000 
#    0.000    0.000    0.000    0.000    0.000    0.000 
#
# Total GULP energy -323166.732920 kJ/mol
# GULP energy per Si atom -5571.840223 kJ/mol
# Density = 1.874986 g / cm^3
# Si number density = 18.792637 Si / 1000 Ang^3
#
#
#
# Elastic Constant Matrix: (Units=GPa)
#
#
# Indices 1 2 3 4 5 6 
#
# 1 75.2851 27.9362 57.5985 0.0000 0.0000 0.0000
# 2 27.9362 32.0089 31.2875 0.0000 0.0000 0.0000
# 3 57.5985 31.2875 129.6873 0.0000 0.0000 0.0000
# 4 0.0000 0.0000 0.0000 33.8146 0.0000 0.0000
# 5 0.0000 0.0000 0.0000 0.0000 189.0905 0.0000
# 6 0.0000 0.0000 0.0000 0.0000 0.0000 15.9584
#
#
#
# Elastic Compliance Matrix: (Units=1/GPa)
#
#
# Indices 1 2 3 4 5 6 
#
# 1 0.024013 -0.013783 -0.007340 0.000000 0.000000 0.000000
# 2 -0.013783 0.048794 -0.005650 0.000000 0.000000 0.000000
# 3 -0.007340 -0.005650 0.012334 0.000000 0.000000 0.000000
# 4 0.000000 0.000000 0.000000 0.029573 0.000000 0.000000
# 5 0.000000 0.000000 0.000000 0.000000 0.005288 0.000000
# 6 0.000000 0.000000 0.000000 0.000000 0.000000 0.062663
#
#
# Mechanical properties :
#
#
# Convention : Reuss Voigt Hill
#
# Bulk Modulus (GPa) = 31.65132 52.29173 41.97152
# Shear Modulus (GPa) = 20.26413 55.78331 38.02372
#
# Velocity S-wave (km/s) = 3.28731 5.45418 4.50302
# Velocity P-wave (km/s) = 5.59353 8.21889 7.02985
#
# Compressibility (1/GPa) = 0.03159426
#
# Stress axis : x y z
#
# Youngs Moduli (GPa) = 41.64455 20.49452 81.07862
#
# Poissons Ratio (x) = 0.28248 0.59509
# Poissons Ratio (y) = 0.57400 0.45809
# Poissons Ratio (z) = 0.30566 0.11579
#
# Static dielectric constant tensor:
#      x y z
#    x 1.660920 0.000000 0.000000 
#    y 0.000000 1.683120 0.000000 
#    z 0.000000 0.000000 1.668220 
# 
# From -- ./inp_files/50357.got.cif
#   From: 2010.05.17/outbox.cif.g08.bks.cpg/sg68_26_cif.got.tgz:50357.got - 2010.06.03 18:57:09.
