data_PCOD9506622
_publ_section_title
;
Structure prediction by ZEFSAII (Michael W. Deem and Ramdas Pophale) SiO2 
 PCOD9506622
Probable space group: C C C A
;
_chemical_formula_sum "Si O2"
_cell_formula_units_Z 68
_cell_length_a 8.429293
_cell_length_b 22.103682
_cell_length_c 16.472555
_cell_angle_alpha 90.000000
_cell_angle_beta 90.000000
_cell_angle_gamma 90.000000
_cell_volume 3069.140288
_symmetry_space_group_name_H-M "C C C A"
_symmetry_group_IT_number 68
_space_group.IT_coordinate_system_code '2'
_symmetry_cell_setting 'orthorhombic'
loop_
_space_group_symop_operation_xyz
x,y,z
-x,1/2-y,z
x,1/2-y,1/2-z
-x,y,1/2-z
-x,-y,-z
x,1/2+y,-z
-x,1/2+y,1/2+z
x,-y,1/2+z
1/2+x,1/2+y,z
1/2-x,-y,z
1/2+x,-y,1/2-z
1/2-x,1/2+y,1/2-z
1/2-x,1/2-y,-z
1/2+x,y,-z
1/2-x,y,1/2+z
1/2+x,1/2-y,1/2+z
loop_
_atom_site_type_symbol
_atom_site_label
_atom_site_fract_x
_atom_site_fract_y
_atom_site_fract_z
Si Si1 0.244856 0.928281 0.592603
Si Si2 0.791721 0.321563 0.879540
Si Si3 0.024501 0.148985 0.478775
Si Si4 0.500000 0.750000 0.750000
Si Si5 0.810455 0.433803 0.273073
O O1 0.360449 0.892290 0.533651
O O2 0.277914 0.919089 0.687834
O O3 0.076384 0.897780 0.574666
O O4 0.250000 0.000000 0.577067
O O5 0.746986 0.386469 0.840178
O O6 0.910398 0.321429 0.955326
O O7 0.879622 0.285687 0.808956
O O8 0.623677 0.305789 0.921619
O O9 0.750000 0.500000 0.298005
O O10 0.000000 0.433927 0.250000
#
# Coordination Sequence:
#
# PCOD9506622 Si02
#       5
#    16  16  16   4  16
#     4  10  20  34  59  96 138 182 224 271 342 405
#     4  11  25  46  70 100 137 178 236 279 356 402
#     4  10  22  40  65  94 137 176 225 292 334 418
#     4  12  28  48  78 100 132 186 230 298 332 432
#     4  11  24  40  66 102 143 187 231 286 341 414
#
# _framework density 22.156040999999998
#
# number of rings (size 3 to 8) (size 9 to 14) (size 15 to 20)
#    0.000    1.412    2.353    2.118    8.235    4.706 
#    0.000    0.588    0.000    0.000    0.000    0.000 
#    0.000    0.000    0.000    0.000    0.000    0.000 
#
# Total GULP energy -189843.725210 kJ/mol
# GULP energy per Si atom -5583.638977 kJ/mol
# Density = 2.210561 g / cm^3
# Si number density = 22.156041 Si / 1000 Ang^3
#
#
#
# Elastic Constant Matrix: (Units=GPa)
#
#
# Indices 1 2 3 4 5 6 
#
# 1 119.8535 58.0020 47.1837 0.0000 0.0000 0.0000
# 2 58.0020 65.3800 63.3206 0.0000 0.0000 0.0000
# 3 47.1837 63.3206 113.1813 0.0000 0.0000 0.0000
# 4 0.0000 0.0000 0.0000 4.3003 0.0000 0.0000
# 5 0.0000 0.0000 0.0000 0.0000 42.3584 0.0000
# 6 0.0000 0.0000 0.0000 0.0000 0.0000 17.0451
#
#
#
# Elastic Compliance Matrix: (Units=1/GPa)
#
#
# Indices 1 2 3 4 5 6 
#
# 1 0.014962 -0.015786 0.002594 0.000000 0.000000 0.000000
# 2 -0.015786 0.050039 -0.021414 0.000000 0.000000 0.000000
# 3 0.002594 -0.021414 0.019734 0.000000 0.000000 0.000000
# 4 0.000000 0.000000 0.000000 0.232541 0.000000 0.000000
# 5 0.000000 0.000000 0.000000 0.000000 0.023608 0.000000
# 6 0.000000 0.000000 0.000000 0.000000 0.000000 0.058668
#
#
# Mechanical properties :
#
#
# Convention : Reuss Voigt Hill
#
# Bulk Modulus (GPa) = 64.41745 70.60305 67.51025
# Shear Modulus (GPa) = 10.54991 21.40134 15.97562
#
# Velocity S-wave (km/s) = 2.18449 3.11132 2.68815
# Velocity P-wave (km/s) = 5.95820 6.69646 6.33809
#
# Compressibility (1/GPa) = 0.01552374
#
# Stress axis : x y z
#
# Youngs Moduli (GPa) = 66.83798 19.98440 50.67326
#
# Poissons Ratio (x) = 0.31547 -0.13146
# Poissons Ratio (y) = 1.05508 1.08512
# Poissons Ratio (z) = -0.17339 0.42795
#
# Static dielectric constant tensor:
#      x y z
#    x 1.884860 0.000000 0.000000 
#    y 0.000000 1.793250 0.000000 
#    z 0.000000 0.000000 1.811240 
# 
# From -- ./inp_files/19377.got.cif
#   From: 2010.05.17/outbox.cif.g08.bks.cpg/sg68_10_cif.got.tgz:19377.got - 2010.06.03 18:57:09.
