data_PCOD9506023
_publ_section_title
;
Structure prediction by ZEFSAII (Michael W. Deem and Ramdas Pophale) SiO2 
 PCOD9506023
Probable space group: C C C A
;
_chemical_formula_sum "Si O2"
_cell_formula_units_Z 96
_cell_length_a 9.707790
_cell_length_b 22.808780
_cell_length_c 25.991572
_cell_angle_alpha 90.000000
_cell_angle_beta 90.000000
_cell_angle_gamma 90.000000
_cell_volume 5755.127855
_symmetry_space_group_name_H-M "C C C A"
_symmetry_group_IT_number 68
_space_group.IT_coordinate_system_code '2'
_symmetry_cell_setting 'orthorhombic'
loop_
_space_group_symop_operation_xyz
x,y,z
-x,1/2-y,z
x,1/2-y,1/2-z
-x,y,1/2-z
-x,-y,-z
x,1/2+y,-z
-x,1/2+y,1/2+z
x,-y,1/2+z
1/2+x,1/2+y,z
1/2-x,-y,z
1/2+x,-y,1/2-z
1/2-x,1/2+y,1/2-z
1/2-x,1/2-y,-z
1/2+x,y,-z
1/2-x,y,1/2+z
1/2+x,1/2-y,1/2+z
loop_
_atom_site_type_symbol
_atom_site_label
_atom_site_fract_x
_atom_site_fract_y
_atom_site_fract_z
Si Si1 0.775578 0.170773 0.389123
Si Si2 0.984044 0.136989 0.040142
Si Si3 0.991338 0.820956 0.691618
Si Si4 0.587143 0.007806 0.552001
Si Si5 0.502279 0.114832 0.082134
Si Si6 0.265626 0.191078 0.890378
O O1 0.638834 0.132560 0.390647
O O2 0.738568 0.239601 0.386511
O O3 0.867632 0.157471 0.439646
O O4 0.879479 0.158043 0.342190
O O5 0.945243 0.074573 0.066615
O O6 0.869254 0.181249 0.061486
O O7 0.983633 0.128805 0.978955
O O8 0.851908 0.831215 0.659291
O O9 0.000000 0.750000 0.692819
O O10 0.000000 0.842508 0.750000
O O11 0.500000 0.000000 0.500000
O O12 0.750000 0.000000 0.542478
O O13 0.538940 0.953877 0.587209
O O14 0.628473 0.154142 0.101484
#
# Coordination Sequence:
#
# PCOD9506023 Si02
#       6
#    16  16  16  16  16  16
#     4  10  21  31  49  78 102 132 170 201 250 310
#     4  10  20  33  49  69 103 144 175 200 235 290
#     4   8  16  34  55  71  95 132 170 207 249 303
#     4  10  21  34  50  68  96 140 184 212 236 274
#     4  11  21  31  48  73 109 135 164 211 247 285
#     4  10  19  33  49  75 104 132 169 203 247 309
#
# _framework density 16.680776000000002
#
# number of rings (size 3 to 8) (size 9 to 14) (size 15 to 20)
#    0.000    2.167    1.667    3.000    7.000    4.000 
#    0.000    0.833    0.000    4.000    0.000   18.667 
#    0.000    0.000    0.000    0.000    0.000    0.000 
#
# Total GULP energy -267549.283457 kJ/mol
# GULP energy per Si atom -5573.943405 kJ/mol
# Density = 1.664281 g / cm^3
# Si number density = 16.680776 Si / 1000 Ang^3
#
#
#
# Elastic Constant Matrix: (Units=GPa)
#
#
# Indices 1 2 3 4 5 6 
#
# 1 128.9001 39.4305 26.6349 0.0000 0.0000 0.0000
# 2 39.4305 76.6176 12.6905 0.0000 0.0000 0.0000
# 3 26.6349 12.6905 76.2408 0.0000 0.0000 0.0000
# 4 0.0000 0.0000 0.0000 -24.8704 0.0000 0.0000
# 5 0.0000 0.0000 0.0000 0.0000 -0.3364 0.0000
# 6 0.0000 0.0000 0.0000 0.0000 0.0000 26.9040
#
#
#
# Elastic Compliance Matrix: (Units=1/GPa)
#
#
# Indices 1 2 3 4 5 6 
#
# 1 0.009694 -0.004554 -0.002629 0.000000 0.000000 0.000000
# 2 -0.004554 0.015561 -0.000999 0.000000 0.000000 0.000000
# 3 -0.002629 -0.000999 0.014201 0.000000 0.000000 0.000000
# 4 0.000000 0.000000 0.000000 -0.040208 0.000000 0.000000
# 5 0.000000 0.000000 0.000000 0.000000 -2.972558 0.000000
# 6 0.000000 0.000000 0.000000 0.000000 0.000000 0.037169
#
#
# Mechanical properties :
#
#
# Convention : Reuss Voigt Hill
#
# Bulk Modulus (GPa) = 43.30374 48.80781 46.05577
# Shear Modulus (GPa) = -1.71699 13.87295 6.07798
#
# Velocity S-wave (km/s) = -1.01565 2.88700 1.91092
# Velocity P-wave (km/s) = 4.96399 6.35897 5.70428
#
# Compressibility (1/GPa) = 0.02309269
#
# Stress axis : x y z
#
# Youngs Moduli (GPa) = 103.15612 64.26410 70.41747
#
# Poissons Ratio (x) = 0.29263 0.18511
# Poissons Ratio (y) = 0.46973 0.07037
# Poissons Ratio (z) = 0.27117 0.06422
#
# Static dielectric constant tensor:
#      x y z
#    x 1.554650 0.000000 0.000000 
#    y 0.000000 1.601650 0.000000 
#    z 0.000000 0.000000 1.558460 
# 
# From -- ./inp_files/46930.got.cif
#   From: 2010.05.17/outbox.cif.g08.bks.cpg/sg68_24_cif.got.tgz:46930.got - 2010.06.03 18:57:09.
