data_PCOD9506644
_publ_section_title
;
Structure prediction by ZEFSAII (Michael W. Deem and Ramdas Pophale) SiO2 
 PCOD9506644
Probable space group: C C C A
;
_chemical_formula_sum "Si O2"
_cell_formula_units_Z 92
_cell_length_a 13.934630
_cell_length_b 15.093469
_cell_length_c 19.546439
_cell_angle_alpha 90.000000
_cell_angle_beta 90.000000
_cell_angle_gamma 90.000000
_cell_volume 4111.044305
_symmetry_space_group_name_H-M "C C C A"
_symmetry_group_IT_number 68
_space_group.IT_coordinate_system_code '2'
_symmetry_cell_setting 'orthorhombic'
loop_
_space_group_symop_operation_xyz
x,y,z
-x,1/2-y,z
x,1/2-y,1/2-z
-x,y,1/2-z
-x,-y,-z
x,1/2+y,-z
-x,1/2+y,1/2+z
x,-y,1/2+z
1/2+x,1/2+y,z
1/2-x,-y,z
1/2+x,-y,1/2-z
1/2-x,1/2+y,1/2-z
1/2-x,1/2-y,-z
1/2+x,y,-z
1/2-x,y,1/2+z
1/2+x,1/2-y,1/2+z
loop_
_atom_site_type_symbol
_atom_site_label
_atom_site_fract_x
_atom_site_fract_y
_atom_site_fract_z
Si Si1 0.701425 0.707339 0.175624
Si Si2 0.504939 0.150646 0.016287
Si Si3 0.500000 0.750000 0.750000
Si Si4 0.078375 0.431482 0.391133
Si Si5 0.224306 0.174073 0.944562
Si Si6 0.106218 0.113613 0.652718
Si Si7 0.750000 0.500000 0.012384
O O1 0.691604 0.750000 0.250000
O O2 0.607005 0.658805 0.146757
O O3 0.740885 0.784384 0.126038
O O4 0.781992 0.629477 0.168427
O O5 0.500000 0.250000 0.988624
O O6 0.610770 0.149732 0.052224
O O7 0.426387 0.137440 0.075181
O O8 0.501125 0.086764 0.950680
O O9 0.559227 0.685488 0.701648
O O10 0.066516 0.513810 0.339990
O O11 0.167792 0.463802 0.437866
O O12 0.276037 0.083471 0.965540
O O13 0.250000 0.250000 0.000000
#
# Coordination Sequence:
#
# PCOD9506644 Si02
#       7
#    16  16   4  16  16  16   8
#     4  12  23  42  68  93 137 182 214 272 338 409
#     4  11  22  37  67  96 128 166 215 278 335 388
#     4  12  24  40  68  92 142 168 212 280 340 396
#     4  11  23  42  64  97 129 174 223 275 337 392
#     4  11  20  41  64  95 130 168 229 276 329 395
#     4  12  22  42  62  98 131 174 218 267 338 403
#     4  10  20  34  66  90 124 162 218 288 314 376
#
# _framework density 22.378741999999999
#
# number of rings (size 3 to 8) (size 9 to 14) (size 15 to 20)
#    0.000    0.696    8.696    0.522    0.000    0.000 
#    3.130    1.739    0.000    0.000    0.000    0.000 
#    0.000    0.000    0.000    0.000    0.000    0.000 
#
# Total GULP energy -257013.472971 kJ/mol
# GULP energy per Si atom -5587.249412 kJ/mol
# Density = 2.232781 g / cm^3
# Si number density = 22.378742 Si / 1000 Ang^3
#
#
#
# Elastic Constant Matrix: (Units=GPa)
#
#
# Indices 1 2 3 4 5 6 
#
# 1 40.7099 4.2979 20.1317 0.0000 0.0000 0.0000
# 2 4.2979 131.8962 63.1679 0.0000 0.0000 0.0000
# 3 20.1317 63.1679 138.3013 0.0000 0.0000 0.0000
# 4 0.0000 0.0000 0.0000 36.6709 0.0000 0.0000
# 5 0.0000 0.0000 0.0000 0.0000 4.9380 0.0000
# 6 0.0000 0.0000 0.0000 0.0000 0.0000 22.3592
#
#
#
# Elastic Compliance Matrix: (Units=1/GPa)
#
#
# Indices 1 2 3 4 5 6 
#
# 1 0.026633 0.001266 -0.004455 0.000000 0.000000 0.000000
# 2 0.001266 0.009765 -0.004644 0.000000 0.000000 0.000000
# 3 -0.004455 -0.004644 0.010000 0.000000 0.000000 0.000000
# 4 0.000000 0.000000 0.000000 0.027270 0.000000 0.000000
# 5 0.000000 0.000000 0.000000 0.000000 0.202513 0.000000
# 6 0.000000 0.000000 0.000000 0.000000 0.000000 0.044724
#
#
# Mechanical properties :
#
#
# Convention : Reuss Voigt Hill
#
# Bulk Modulus (GPa) = 32.53987 54.01137 43.27562
# Shear Modulus (GPa) = 14.41688 27.68094 21.04891
#
# Velocity S-wave (km/s) = 2.54091 3.52082 3.07021
# Velocity P-wave (km/s) = 4.81460 6.38089 5.65226
#
# Compressibility (1/GPa) = 0.03073153
#
# Stress axis : x y z
#
# Youngs Moduli (GPa) = 37.54675 102.41013 99.99751
#
# Poissons Ratio (x) = -0.12962 0.44549
# Poissons Ratio (y) = -0.04752 0.46440
# Poissons Ratio (z) = 0.16727 0.47561
#
# Static dielectric constant tensor:
#      x y z
#    x 1.976820 0.000000 0.000000 
#    y 0.000000 1.935060 0.000000 
#    z 0.000000 0.000000 1.828080 
# 
# From -- ./inp_files/38608.got.cif
#   From: 2010.05.17/outbox.cif.g08.bks.cpg/sg68_20_cif.got.tgz:38608.got - 2010.06.03 18:57:09.
