data_PCOD9506468
_publ_section_title
;
Structure prediction by ZEFSAII (Michael W. Deem and Ramdas Pophale) SiO2 
 PCOD9506468
Probable space group: C C C A
;
_chemical_formula_sum "Si O2"
_cell_formula_units_Z 92
_cell_length_a 13.394854
_cell_length_b 14.814061
_cell_length_c 17.203879
_cell_angle_alpha 90.000000
_cell_angle_beta 90.000000
_cell_angle_gamma 90.000000
_cell_volume 3413.803287
_symmetry_space_group_name_H-M "C C C A"
_symmetry_group_IT_number 68
_space_group.IT_coordinate_system_code '2'
_symmetry_cell_setting 'orthorhombic'
loop_
_space_group_symop_operation_xyz
x,y,z
-x,1/2-y,z
x,1/2-y,1/2-z
-x,y,1/2-z
-x,-y,-z
x,1/2+y,-z
-x,1/2+y,1/2+z
x,-y,1/2+z
1/2+x,1/2+y,z
1/2-x,-y,z
1/2+x,-y,1/2-z
1/2-x,1/2+y,1/2-z
1/2-x,1/2-y,-z
1/2+x,y,-z
1/2-x,y,1/2+z
1/2+x,1/2-y,1/2+z
loop_
_atom_site_type_symbol
_atom_site_label
_atom_site_fract_x
_atom_site_fract_y
_atom_site_fract_z
Si Si1 0.278857 0.605823 0.418941
Si Si2 0.214676 0.894552 0.751246
Si Si3 0.001544 0.897624 0.969805
Si Si4 0.500000 0.750000 0.750000
Si Si5 0.219675 0.138234 0.417394
Si Si6 0.436475 0.388233 0.127775
Si Si7 0.000000 0.034994 0.250000
O O1 0.250000 0.500000 0.430954
O O2 0.240333 0.628697 0.332762
O O3 0.397686 0.621973 0.426734
O O4 0.232204 0.660217 0.490459
O O5 0.224426 0.831405 0.826563
O O6 0.250000 0.000000 0.767711
O O7 0.097615 0.907096 0.739054
O O8 0.101621 0.882801 0.922309
O O9 0.998379 0.851432 0.054686
O O10 0.000000 0.000000 0.000000
O O11 0.565551 0.687045 0.805671
O O12 0.327866 0.085530 0.408331
O O13 0.485454 0.470924 0.174550
#
# Coordination Sequence:
#
# PCOD9506468 Si02
#       7
#    16  16  16   4  16  16   8
#     4  10  20  29  45  77 122 170 203 238 308 404
#     4  11  20  30  48  80 125 166 201 244 313 411
#     4  11  20  32  56  89 130 167 202 260 348 418
#     4  10  24  48  68  84 128 176 256 300 332 382
#     4  11  21  35  54  85 122 166 213 263 330 406
#     4  10  23  39  61  87 119 173 225 284 335 396
#     4  11  20  33  50  82 118 165 204 253 322 405
#
# _framework density 26.949414000000001
#
# number of rings (size 3 to 8) (size 9 to 14) (size 15 to 20)
#    0.000    1.391    3.478    3.652    2.435    0.000 
#    0.000    0.870    0.000    0.000    0.000    0.000 
#    0.000    2.783    0.000    0.000    0.000    0.000 
#
# Total GULP energy -256287.694060 kJ/mol
# GULP energy per Si atom -5571.471610 kJ/mol
# Density = 2.688808 g / cm^3
# Si number density = 26.949414 Si / 1000 Ang^3
#
#
#
# Elastic Constant Matrix: (Units=GPa)
#
#
# Indices 1 2 3 4 5 6 
#
# 1 168.6123 -0.6241 23.2673 0.0000 0.0000 0.0000
# 2 -0.6241 83.5044 34.6948 0.0000 0.0000 0.0000
# 3 23.2673 34.6948 259.6803 0.0000 0.0000 0.0000
# 4 0.0000 0.0000 0.0000 -23.8638 0.0000 0.0000
# 5 0.0000 0.0000 0.0000 0.0000 40.7494 0.0000
# 6 0.0000 0.0000 0.0000 0.0000 0.0000 -6.9203
#
#
#
# Elastic Compliance Matrix: (Units=1/GPa)
#
#
# Indices 1 2 3 4 5 6 
#
# 1 0.006011 0.000285 -0.000577 0.000000 0.000000 0.000000
# 2 0.000285 0.012693 -0.001721 0.000000 0.000000 0.000000
# 3 -0.000577 -0.001721 0.004133 0.000000 0.000000 0.000000
# 4 0.000000 0.000000 0.000000 -0.041905 0.000000 0.000000
# 5 0.000000 0.000000 0.000000 0.000000 0.024540 0.000000
# 6 0.000000 0.000000 0.000000 0.000000 0.000000 -0.144503
#
#
# Mechanical properties :
#
#
# Convention : Reuss Voigt Hill
#
# Bulk Modulus (GPa) = 53.16386 69.60812 61.38599
# Shear Modulus (GPa) = -38.83979 32.29035 -3.27472
#
# Velocity S-wave (km/s) = -3.80045 3.46523 -1.10353
# Velocity P-wave (km/s) = 0.71571 6.47269 4.60478
#
# Compressibility (1/GPa) = 0.01880977
#
# Stress axis : x y z
#
# Youngs Moduli (GPa) = 166.35091 78.78531 241.98232
#
# Poissons Ratio (x) = -0.02242 0.13953
# Poissons Ratio (y) = -0.04733 0.41653
# Poissons Ratio (z) = 0.09592 0.13561
#
# Static dielectric constant tensor:
#      x y z
#    x 2.108260 0.000000 0.000000 
#    y 0.000000 2.216530 0.000000 
#    z 0.000000 0.000000 2.213320 
# 
# From -- ./inp_files/31078.got.cif
#   From: 2010.05.17/outbox.cif.g08.bks.cpg/sg68_16_cif.got.tgz:31078.got - 2010.06.03 18:57:09.
