data_PCOD9506251
_publ_section_title
;
Structure prediction by ZEFSAII (Michael W. Deem and Ramdas Pophale) SiO2 
 PCOD9506251
Probable space group: C C C A
;
_chemical_formula_sum "Si O2"
_cell_formula_units_Z 96
_cell_length_a 25.276842
_cell_length_b 7.714114
_cell_length_c 18.261486
_cell_angle_alpha 90.000000
_cell_angle_beta 90.000000
_cell_angle_gamma 90.000000
_cell_volume 3560.778681
_symmetry_space_group_name_H-M "C C C A"
_symmetry_group_IT_number 68
_space_group.IT_coordinate_system_code '2'
_symmetry_cell_setting 'orthorhombic'
loop_
_space_group_symop_operation_xyz
x,y,z
-x,1/2-y,z
x,1/2-y,1/2-z
-x,y,1/2-z
-x,-y,-z
x,1/2+y,-z
-x,1/2+y,1/2+z
x,-y,1/2+z
1/2+x,1/2+y,z
1/2-x,-y,z
1/2+x,-y,1/2-z
1/2-x,1/2+y,1/2-z
1/2-x,1/2-y,-z
1/2+x,y,-z
1/2-x,y,1/2+z
1/2+x,1/2-y,1/2+z
loop_
_atom_site_type_symbol
_atom_site_label
_atom_site_fract_x
_atom_site_fract_y
_atom_site_fract_z
Si Si1 0.934489 0.373375 0.356213
Si Si2 0.321775 0.728290 0.943935
Si Si3 0.303480 0.551869 0.318662
Si Si4 0.445409 0.714433 0.574226
Si Si5 0.427203 0.001675 0.696145
Si Si6 0.810880 0.392340 0.395381
O O1 0.954456 0.511441 0.413088
O O2 0.944856 0.169196 0.351426
O O3 0.947249 0.459811 0.277535
O O4 0.872544 0.387377 0.373866
O O5 0.307529 0.565753 0.892775
O O6 0.385916 0.751017 0.954021
O O7 0.299923 0.903502 0.905884
O O8 0.302510 0.691956 0.025179
O O9 0.250000 0.500000 0.276940
O O10 0.363039 0.516419 0.290764
O O11 0.292722 0.751265 0.337074
O O12 0.500000 0.750000 0.532570
O O13 0.442338 0.830234 0.650451
#
# Coordination Sequence:
#
# PCOD9506251 Si02
#       6
#    16  16  16  16  16  16
#     4   9  19  35  59  79 109 152 185 226 280 333
#     4  10  20  37  57  80 114 149 183 234 281 329
#     4  10  21  36  59  84 111 145 188 231 280 338
#     4  10  21  36  58  87 111 146 191 231 281 339
#     4   9  19  37  59  78 115 148 181 232 286 331
#     4  10  19  36  59  78 114 149 188 226 284 330
#
# _framework density 26.960395999999999
#
# number of rings (size 3 to 8) (size 9 to 14) (size 15 to 20)
#    0.000    2.333    1.667    0.500    0.000    3.333 
#    0.000    5.000   44.000    0.000    0.000    0.000 
#    0.000    0.000    0.000    0.000    0.000    0.000 
#
# Total GULP energy -268137.953753 kJ/mol
# GULP energy per Si atom -5586.207370 kJ/mol
# Density = 2.689903 g / cm^3
# Si number density = 26.960396 Si / 1000 Ang^3
#
#
#
# Elastic Constant Matrix: (Units=GPa)
#
#
# Indices 1 2 3 4 5 6 
#
# 1 160.1137 34.4164 10.6945 0.0000 0.0000 0.0000
# 2 34.4164 173.9185 34.0555 0.0000 0.0000 0.0000
# 3 10.6945 34.0555 64.5743 0.0000 0.0000 0.0000
# 4 0.0000 0.0000 0.0000 35.1164 0.0000 0.0000
# 5 0.0000 0.0000 0.0000 0.0000 22.7951 0.0000
# 6 0.0000 0.0000 0.0000 0.0000 0.0000 55.7090
#
#
#
# Elastic Compliance Matrix: (Units=1/GPa)
#
#
# Indices 1 2 3 4 5 6 
#
# 1 0.006535 -0.001206 -0.000446 0.000000 0.000000 0.000000
# 2 -0.001206 0.006634 -0.003299 0.000000 0.000000 0.000000
# 3 -0.000446 -0.003299 0.017300 0.000000 0.000000 0.000000
# 4 0.000000 0.000000 0.000000 0.028477 0.000000 0.000000
# 5 0.000000 0.000000 0.000000 0.000000 0.043869 0.000000
# 6 0.000000 0.000000 0.000000 0.000000 0.000000 0.017950
#
#
# Mechanical properties :
#
#
# Convention : Reuss Voigt Hill
#
# Bulk Modulus (GPa) = 48.62312 61.88215 55.25263
# Shear Modulus (GPa) = 36.35751 44.02010 40.18881
#
# Velocity S-wave (km/s) = 3.67625 4.04514 3.86510
# Velocity P-wave (km/s) = 6.00782 6.69480 6.36059
#
# Compressibility (1/GPa) = 0.02056635
#
# Stress axis : x y z
#
# Youngs Moduli (GPa) = 153.03292 150.72851 57.80371
#
# Poissons Ratio (x) = 0.18173 0.02580
# Poissons Ratio (y) = 0.18451 0.19071
# Poissons Ratio (z) = 0.06831 0.49729
#
# Static dielectric constant tensor:
#      x y z
#    x 2.240480 0.000000 0.000000 
#    y 0.000000 2.077180 0.000000 
#    z 0.000000 0.000000 2.055420 
# 
# From -- ./inp_files/41252.got.cif
#   From: 2010.05.17/outbox.cif.g08.bks.cpg/sg68_21_cif.got.tgz:41252.got - 2010.06.03 18:57:09.
