data_PCOD9506238
_publ_section_title
;
Structure prediction by ZEFSAII (Michael W. Deem and Ramdas Pophale) SiO2 
 PCOD9506238
Probable space group: C C C A
;
_chemical_formula_sum "Si O2"
_cell_formula_units_Z 72
_cell_length_a 13.644647
_cell_length_b 14.697983
_cell_length_c 18.497428
_cell_angle_alpha 90.000000
_cell_angle_beta 90.000000
_cell_angle_gamma 90.000000
_cell_volume 3709.636797
_symmetry_space_group_name_H-M "C C C A"
_symmetry_group_IT_number 68
_space_group.IT_coordinate_system_code '2'
_symmetry_cell_setting 'orthorhombic'
loop_
_space_group_symop_operation_xyz
x,y,z
-x,1/2-y,z
x,1/2-y,1/2-z
-x,y,1/2-z
-x,-y,-z
x,1/2+y,-z
-x,1/2+y,1/2+z
x,-y,1/2+z
1/2+x,1/2+y,z
1/2-x,-y,z
1/2+x,-y,1/2-z
1/2-x,1/2+y,1/2-z
1/2-x,1/2-y,-z
1/2+x,y,-z
1/2-x,y,1/2+z
1/2+x,1/2-y,1/2+z
loop_
_atom_site_type_symbol
_atom_site_label
_atom_site_fract_x
_atom_site_fract_y
_atom_site_fract_z
Si Si1 0.740313 0.143647 0.981739
Si Si2 0.750000 0.000000 0.111143
Si Si3 0.962938 0.157723 0.398460
Si Si4 0.960058 0.976864 0.172427
Si Si5 0.547339 0.909585 0.962571
O O1 0.646318 0.142445 0.929361
O O2 0.837550 0.098218 0.946983
O O3 0.750000 0.250000 0.000000
O O4 0.733710 0.084939 0.055971
O O5 0.846198 0.000667 0.160692
O O6 0.000000 0.250000 0.360611
O O7 0.985878 0.070255 0.350274
O O8 0.029909 0.157907 0.471258
O O9 0.000000 0.949324 0.250000
O O10 0.989681 0.902399 0.111869
O O11 0.500000 0.000000 0.000000
#
# Coordination Sequence:
#
# PCOD9506238 Si02
#       5
#    16   8  16  16  16
#     4  12  21  35  68  96 119 158 211 268 319 362
#     4  12  20  40  62  88 124 162 206 258 314 372
#     4  11  20  37  61  92 119 155 212 264 305 359
#     4  11  24  38  59  88 126 169 200 248 313 383
#     4  10  19  36  57  89 114 157 207 252 304 358
#
# _framework density 19.408908
#
# number of rings (size 3 to 8) (size 9 to 14) (size 15 to 20)
#    0.000    0.889    8.889    1.333    0.000    2.222 
#    0.000    0.000    0.000    8.667    0.000    0.000 
#    0.000    0.000    0.000    0.000    0.000    0.000 
#
# Total GULP energy -200437.234490 kJ/mol
# GULP energy per Si atom -5567.700958 kJ/mol
# Density = 1.936473 g / cm^3
# Si number density = 19.408908 Si / 1000 Ang^3
#
#
#
# Elastic Constant Matrix: (Units=GPa)
#
#
# Indices 1 2 3 4 5 6 
#
# 1 174.2228 -3.8390 14.4117 0.0000 0.0000 0.0000
# 2 -3.8390 63.6520 -9.2583 0.0000 0.0000 0.0000
# 3 14.4117 -9.2583 74.2291 0.0000 0.0000 0.0000
# 4 0.0000 0.0000 0.0000 12.4935 0.0000 0.0000
# 5 0.0000 0.0000 0.0000 0.0000 11.4865 0.0000
# 6 0.0000 0.0000 0.0000 0.0000 0.0000 27.3198
#
#
#
# Elastic Compliance Matrix: (Units=1/GPa)
#
#
# Indices 1 2 3 4 5 6 
#
# 1 0.005836 0.000191 -0.001109 0.000000 0.000000 0.000000
# 2 0.000191 0.016007 0.001959 0.000000 0.000000 0.000000
# 3 -0.001109 0.001959 0.013932 0.000000 0.000000 0.000000
# 4 0.000000 0.000000 0.000000 0.080042 0.000000 0.000000
# 5 0.000000 0.000000 0.000000 0.000000 0.087058 0.000000
# 6 0.000000 0.000000 0.000000 0.000000 0.000000 0.036604
#
#
# Mechanical properties :
#
#
# Convention : Reuss Voigt Hill
#
# Bulk Modulus (GPa) = 26.41594 34.97030 30.69312
# Shear Modulus (GPa) = 19.99883 30.97927 25.48905
#
# Velocity S-wave (km/s) = 3.21346 3.99950 3.62783
# Velocity P-wave (km/s) = 5.23528 6.27573 5.77897
#
# Compressibility (1/GPa) = 0.03785594
#
# Stress axis : x y z
#
# Youngs Moduli (GPa) = 171.35810 62.47294 71.77944
#
# Poissons Ratio (x) = -0.01191 0.07962
# Poissons Ratio (y) = -0.03267 -0.14065
# Poissons Ratio (z) = 0.19008 -0.12241
#
# Static dielectric constant tensor:
#      x y z
#    x 1.756720 0.000000 0.000000 
#    y 0.000000 1.779100 0.000000 
#    z 0.000000 0.000000 1.675350 
# 
# From -- ./inp_files/37338.got.cif
#   From: 2010.05.17/outbox.cif.g08.bks.cpg/sg68_19_cif.got.tgz:37338.got - 2010.06.03 18:57:09.
