data_PCOD9506307
_publ_section_title
;
Structure prediction by ZEFSAII (Michael W. Deem and Ramdas Pophale) SiO2 
 PCOD9506307
Probable space group: C C C A
;
_chemical_formula_sum "Si O2"
_cell_formula_units_Z 72
_cell_length_a 21.417783
_cell_length_b 13.737930
_cell_length_c 13.338005
_cell_angle_alpha 90.000000
_cell_angle_beta 90.000000
_cell_angle_gamma 90.000000
_cell_volume 3924.521287
_symmetry_space_group_name_H-M "C C C A"
_symmetry_group_IT_number 68
_space_group.IT_coordinate_system_code '2'
_symmetry_cell_setting 'orthorhombic'
loop_
_space_group_symop_operation_xyz
x,y,z
-x,1/2-y,z
x,1/2-y,1/2-z
-x,y,1/2-z
-x,-y,-z
x,1/2+y,-z
-x,1/2+y,1/2+z
x,-y,1/2+z
1/2+x,1/2+y,z
1/2-x,-y,z
1/2+x,-y,1/2-z
1/2-x,1/2+y,1/2-z
1/2-x,1/2-y,-z
1/2+x,y,-z
1/2-x,y,1/2+z
1/2+x,1/2-y,1/2+z
loop_
_atom_site_type_symbol
_atom_site_label
_atom_site_fract_x
_atom_site_fract_y
_atom_site_fract_z
Si Si1 0.750000 0.000000 0.273182
Si Si2 0.209993 0.864018 0.402432
Si Si3 0.360761 0.963885 0.080100
Si Si4 0.571388 0.279831 0.636233
Si Si5 0.661393 0.327666 0.020243
O O1 0.720442 0.081789 0.201494
O O2 0.802921 0.046410 0.343163
O O3 0.162853 0.924564 0.472745
O O4 0.276247 0.861127 0.461009
O O5 0.184229 0.754149 0.401340
O O6 0.415600 0.894264 0.118403
O O7 0.370960 0.078781 0.068924
O O8 0.500000 0.250000 0.618537
O O9 0.587289 0.250000 0.750000
O O10 0.616420 0.223455 0.559838
#
# Coordination Sequence:
#
# PCOD9506307 Si02
#       5
#     8  16  16  16  16
#     4  12  18  32  56  86 126 160 182 244 304 370
#     4  10  20  33  51  88 121 147 190 233 304 363
#     4  11  21  36  56  89 118 150 196 239 304 358
#     4  10  23  40  60  84 111 157 212 247 291 355
#     4  10  19  37  55  81 122 149 190 253 292 361
#
# _framework density 18.346184999999998
#
# number of rings (size 3 to 8) (size 9 to 14) (size 15 to 20)
#    0.000    1.556    4.444    1.333    0.000    1.778 
#    0.000    0.000    0.000    0.000    0.000    0.000 
#    0.000    0.000    0.000    0.000    0.000    0.000 
#
# Total GULP energy -201005.187722 kJ/mol
# GULP energy per Si atom -5583.477437 kJ/mol
# Density = 1.830443 g / cm^3
# Si number density = 18.346185 Si / 1000 Ang^3
#
#
#
# Elastic Constant Matrix: (Units=GPa)
#
#
# Indices 1 2 3 4 5 6 
#
# 1 58.4108 31.1562 12.3488 0.0000 0.0000 0.0000
# 2 31.1562 141.3509 26.1467 0.0000 0.0000 0.0000
# 3 12.3488 26.1467 58.1028 0.0000 0.0000 0.0000
# 4 0.0000 0.0000 0.0000 25.1413 0.0000 0.0000
# 5 0.0000 0.0000 0.0000 0.0000 21.9671 0.0000
# 6 0.0000 0.0000 0.0000 0.0000 0.0000 33.1308
#
#
#
# Elastic Compliance Matrix: (Units=1/GPa)
#
#
# Indices 1 2 3 4 5 6 
#
# 1 0.019713 -0.003894 -0.002437 0.000000 0.000000 0.000000
# 2 -0.003894 0.008486 -0.002991 0.000000 0.000000 0.000000
# 3 -0.002437 -0.002991 0.019075 0.000000 0.000000 0.000000
# 4 0.000000 0.000000 0.000000 0.039775 0.000000 0.000000
# 5 0.000000 0.000000 0.000000 0.000000 0.045523 0.000000
# 6 0.000000 0.000000 0.000000 0.000000 0.000000 0.030183
#
#
# Mechanical properties :
#
#
# Convention : Reuss Voigt Hill
#
# Bulk Modulus (GPa) = 34.93015 44.12979 39.52997
# Shear Modulus (GPa) = 26.18585 28.59537 27.39061
#
# Velocity S-wave (km/s) = 3.78209 3.95226 3.86811
# Velocity P-wave (km/s) = 6.17681 6.70323 6.44540
#
# Compressibility (1/GPa) = 0.02862856
#
# Stress axis : x y z
#
# Youngs Moduli (GPa) = 50.72915 117.83773 52.42480
#
# Poissons Ratio (x) = 0.45888 0.12777
# Poissons Ratio (y) = 0.19755 0.15682
# Poissons Ratio (z) = 0.12364 0.35248
#
# Static dielectric constant tensor:
#      x y z
#    x 1.595630 0.000000 0.000000 
#    y 0.000000 1.679020 0.000000 
#    z 0.000000 0.000000 1.616780 
# 
# From -- ./inp_files/13112.got.cif
#   From: 2010.05.17/outbox.cif.g08.bks.cpg/sg68_7_cif.got.tgz:13112.got - 2010.06.03 18:57:09.
