data_PCOD9506411
_publ_section_title
;
Structure prediction by ZEFSAII (Michael W. Deem and Ramdas Pophale) SiO2 
 PCOD9506411
Probable space group: C C C A
;
_chemical_formula_sum "Si O2"
_cell_formula_units_Z 72
_cell_length_a 14.185080
_cell_length_b 9.168765
_cell_length_c 23.895193
_cell_angle_alpha 90.000000
_cell_angle_beta 90.000000
_cell_angle_gamma 90.000000
_cell_volume 3107.800797
_symmetry_space_group_name_H-M "C C C A"
_symmetry_group_IT_number 68
_space_group.IT_coordinate_system_code '2'
_symmetry_cell_setting 'orthorhombic'
loop_
_space_group_symop_operation_xyz
x,y,z
-x,1/2-y,z
x,1/2-y,1/2-z
-x,y,1/2-z
-x,-y,-z
x,1/2+y,-z
-x,1/2+y,1/2+z
x,-y,1/2+z
1/2+x,1/2+y,z
1/2-x,-y,z
1/2+x,-y,1/2-z
1/2-x,1/2+y,1/2-z
1/2-x,1/2-y,-z
1/2+x,y,-z
1/2-x,y,1/2+z
1/2+x,1/2-y,1/2+z
loop_
_atom_site_type_symbol
_atom_site_label
_atom_site_fract_x
_atom_site_fract_y
_atom_site_fract_z
Si Si1 0.858104 0.666403 0.306733
Si Si2 0.323138 0.273508 0.069783
Si Si3 0.500000 0.250000 0.600856
Si Si4 0.369741 0.583247 0.029781
Si Si5 0.869220 0.331192 0.305948
O O1 0.888660 0.750000 0.250000
O O2 0.867631 0.737041 0.368394
O O3 0.898477 0.501660 0.309190
O O4 0.743967 0.660868 0.304365
O O5 0.365773 0.411956 0.037704
O O6 0.213492 0.329392 0.064947
O O7 0.346693 0.133704 0.032746
O O8 0.532650 0.126589 0.558267
O O9 0.585962 0.262935 0.644309
O O10 0.897904 0.250000 0.250000
#
# Coordination Sequence:
#
# PCOD9506411 Si02
#       5
#    16  16   8  16  16
#     4  10  19  39  64  88 120 160 210 264 304 359
#     4  10  19  42  56  91 118 161 209 262 296 375
#     4  12  19  36  60  88 121 166 196 256 322 370
#     4  10  21  35  65  82 124 161 204 254 321 360
#     4  10  20  36  60  90 120 161 209 257 309 378
#
# _framework density 23.167508000000002
#
# number of rings (size 3 to 8) (size 9 to 14) (size 15 to 20)
#    0.000    1.778    4.444    1.667    0.000    0.889 
#    4.000    4.444    0.000    2.667    0.000    0.000 
#    0.000    0.000    0.000    0.000    0.000    0.000 
#
# Total GULP energy -200597.478769 kJ/mol
# GULP energy per Si atom -5572.152188 kJ/mol
# Density = 2.311478 g / cm^3
# Si number density = 23.167508 Si / 1000 Ang^3
#
#
#
# Elastic Constant Matrix: (Units=GPa)
#
#
# Indices 1 2 3 4 5 6 
#
# 1 53.2413 17.7714 1.4033 0.0000 0.0000 0.0000
# 2 17.7714 41.2671 29.0714 0.0000 0.0000 0.0000
# 3 1.4033 29.0714 148.0495 0.0000 0.0000 0.0000
# 4 0.0000 0.0000 0.0000 10.8026 0.0000 0.0000
# 5 0.0000 0.0000 0.0000 0.0000 -2.6031 0.0000
# 6 0.0000 0.0000 0.0000 0.0000 0.0000 15.7005
#
#
#
# Elastic Compliance Matrix: (Units=1/GPa)
#
#
# Indices 1 2 3 4 5 6 
#
# 1 0.022412 -0.011027 0.001953 0.000000 0.000000 0.000000
# 2 -0.011027 0.033548 -0.006483 0.000000 0.000000 0.000000
# 3 0.001953 -0.006483 0.008009 0.000000 0.000000 0.000000
# 4 0.000000 0.000000 0.000000 0.092571 0.000000 0.000000
# 5 0.000000 0.000000 0.000000 0.000000 -0.384164 0.000000
# 6 0.000000 0.000000 0.000000 0.000000 0.000000 0.063692
#
#
# Mechanical properties :
#
#
# Convention : Reuss Voigt Hill
#
# Bulk Modulus (GPa) = 30.43748 37.67221 34.05485
# Shear Modulus (GPa) = -41.02897 17.73411 -11.64743
#
# Velocity S-wave (km/s) = -4.21286 2.76972 -2.24464
# Velocity P-wave (km/s) = 3.24001 5.15020 2.83080
#
# Compressibility (1/GPa) = 0.03285423
#
# Stress axis : x y z
#
# Youngs Moduli (GPa) = 44.61948 29.80771 124.85906
#
# Poissons Ratio (x) = 0.32870 -0.24384
# Poissons Ratio (y) = 0.49203 0.80948
# Poissons Ratio (z) = -0.08714 0.19325
#
# Static dielectric constant tensor:
#      x y z
#    x 1.978450 0.000000 0.000000 
#    y 0.000000 1.838590 0.000000 
#    z 0.000000 0.000000 1.923160 
# 
# From -- ./inp_files/50726.got.cif
#   From: 2010.05.17/outbox.cif.g08.bks.cpg/sg68_26_cif.got.tgz:50726.got - 2010.06.03 18:57:09.
