data_PCOD9506285
_publ_section_title
;
Structure prediction by ZEFSAII (Michael W. Deem and Ramdas Pophale) SiO2 
 PCOD9506285
Probable space group: C C C A
;
_chemical_formula_sum "Si O2"
_cell_formula_units_Z 64
_cell_length_a 16.981410
_cell_length_b 11.253086
_cell_length_c 14.648388
_cell_angle_alpha 90.000000
_cell_angle_beta 90.000000
_cell_angle_gamma 90.000000
_cell_volume 2799.208321
_symmetry_space_group_name_H-M "C C C A"
_symmetry_group_IT_number 68
_space_group.IT_coordinate_system_code '2'
_symmetry_cell_setting 'orthorhombic'
loop_
_space_group_symop_operation_xyz
x,y,z
-x,1/2-y,z
x,1/2-y,1/2-z
-x,y,1/2-z
-x,-y,-z
x,1/2+y,-z
-x,1/2+y,1/2+z
x,-y,1/2+z
1/2+x,1/2+y,z
1/2-x,-y,z
1/2+x,-y,1/2-z
1/2-x,1/2+y,1/2-z
1/2-x,1/2-y,-z
1/2+x,y,-z
1/2-x,y,1/2+z
1/2+x,1/2-y,1/2+z
loop_
_atom_site_type_symbol
_atom_site_label
_atom_site_fract_x
_atom_site_fract_y
_atom_site_fract_z
Si Si1 0.009737 0.879867 0.410633
Si Si2 0.315243 0.103618 0.489570
Si Si3 0.702665 0.269846 0.852707
Si Si4 0.458859 0.626847 0.114855
O O1 0.098006 0.905084 0.447244
O O2 0.000000 0.750000 0.365475
O O3 0.958123 0.869307 0.503311
O O4 0.995424 0.005173 0.360017
O O5 0.327733 0.156272 0.590717
O O6 0.273395 0.189248 0.416506
O O7 0.250000 0.000000 0.497313
O O8 0.728030 0.250000 0.750000
O O9 0.630704 0.363417 0.851512
O O10 0.500000 0.750000 0.144050
#
# Coordination Sequence:
#
# PCOD9506285 Si02
#       4
#    16  16  16  16
#     4  10  19  37  67  96 127 177 227 274 338 420
#     4  11  22  42  68  93 131 187 226 283 355 416
#     4  11  24  40  64 101 135 174 234 292 344 420
#     4  10  19  36  62  95 129 173 217 277 338 408
#
# _framework density 22.863606999999998
#
# number of rings (size 3 to 8) (size 9 to 14) (size 15 to 20)
#    0.000    1.500    7.500    0.000    0.000    1.500 
#    0.000    0.000    0.000    0.750    0.000    0.000 
#    0.000    0.000    0.000    0.000    0.000    0.000 
#
# Total GULP energy -178358.053822 kJ/mol
# GULP energy per Si atom -5573.689182 kJ/mol
# Density = 2.281157 g / cm^3
# Si number density = 22.863607 Si / 1000 Ang^3
#
#
#
# Elastic Constant Matrix: (Units=GPa)
#
#
# Indices 1 2 3 4 5 6 
#
# 1 64.6997 15.5452 12.5324 0.0000 0.0000 0.0000
# 2 15.5452 172.9704 24.7674 0.0000 0.0000 0.0000
# 3 12.5324 24.7674 122.2123 0.0000 0.0000 0.0000
# 4 0.0000 0.0000 0.0000 -12.7291 0.0000 0.0000
# 5 0.0000 0.0000 0.0000 0.0000 0.5052 0.0000
# 6 0.0000 0.0000 0.0000 0.0000 0.0000 27.3469
#
#
#
# Elastic Compliance Matrix: (Units=1/GPa)
#
#
# Indices 1 2 3 4 5 6 
#
# 1 0.016024 -0.001241 -0.001392 0.000000 0.000000 0.000000
# 2 -0.001241 0.006050 -0.001099 0.000000 0.000000 0.000000
# 3 -0.001392 -0.001099 0.008548 0.000000 0.000000 0.000000
# 4 0.000000 0.000000 0.000000 -0.078560 0.000000 0.000000
# 5 0.000000 0.000000 0.000000 0.000000 1.979587 0.000000
# 6 0.000000 0.000000 0.000000 0.000000 0.000000 0.036567
#
#
# Mechanical properties :
#
#
# Convention : Reuss Voigt Hill
#
# Bulk Modulus (GPa) = 43.17975 51.73028 47.45502
# Shear Modulus (GPa) = 2.52093 23.49377 13.00735
#
# Velocity S-wave (km/s) = 1.05118 3.20904 2.38777
# Velocity P-wave (km/s) = 4.51665 6.03368 5.32942
#
# Compressibility (1/GPa) = 0.02315900
#
# Stress axis : x y z
#
# Youngs Moduli (GPa) = 62.40745 165.28390 116.98788
#
# Poissons Ratio (x) = 0.20509 0.16281
# Poissons Ratio (y) = 0.07744 0.12856
# Poissons Ratio (z) = 0.08685 0.18163
#
# Static dielectric constant tensor:
#      x y z
#    x 1.879500 0.000000 0.000000 
#    y 0.000000 2.130290 0.000000 
#    z 0.000000 0.000000 1.786190 
# 
# From -- ./inp_files/20597.got.cif
#   From: 2010.05.17/outbox.cif.g08.bks.cpg/sg68_11_cif.got.tgz:20597.got - 2010.06.03 18:57:09.
