data_PCOD9506359
_publ_section_title
;
Structure prediction by ZEFSAII (Michael W. Deem and Ramdas Pophale) SiO2 
 PCOD9506359
Probable space group: C C C A
;
_chemical_formula_sum "Si O2"
_cell_formula_units_Z 80
_cell_length_a 8.025081
_cell_length_b 24.257260
_cell_length_c 17.712861
_cell_angle_alpha 90.000000
_cell_angle_beta 90.000000
_cell_angle_gamma 90.000000
_cell_volume 3448.100237
_symmetry_space_group_name_H-M "C C C A"
_symmetry_group_IT_number 68
_space_group.IT_coordinate_system_code '2'
_symmetry_cell_setting 'orthorhombic'
loop_
_space_group_symop_operation_xyz
x,y,z
-x,1/2-y,z
x,1/2-y,1/2-z
-x,y,1/2-z
-x,-y,-z
x,1/2+y,-z
-x,1/2+y,1/2+z
x,-y,1/2+z
1/2+x,1/2+y,z
1/2-x,-y,z
1/2+x,-y,1/2-z
1/2-x,1/2+y,1/2-z
1/2-x,1/2-y,-z
1/2+x,y,-z
1/2-x,y,1/2+z
1/2+x,1/2-y,1/2+z
loop_
_atom_site_type_symbol
_atom_site_label
_atom_site_fract_x
_atom_site_fract_y
_atom_site_fract_z
Si Si1 0.324838 0.420650 0.651355
Si Si2 0.993526 0.514954 0.412669
Si Si3 0.207857 0.314656 0.579098
Si Si4 0.307381 0.312690 0.408909
Si Si5 0.329813 0.593068 0.801782
O O1 0.172642 0.449140 0.604835
O O2 0.481542 0.455557 0.626480
O O3 0.310166 0.356904 0.630318
O O4 0.291530 0.430049 0.738760
O O5 0.000000 0.500000 0.500000
O O6 0.128775 0.552588 0.371043
O O7 0.245329 0.329732 0.492008
O O8 0.248641 0.250916 0.596209
O O9 0.009033 0.317895 0.590613
O O10 0.260173 0.351305 0.339371
O O11 0.500000 0.602515 0.750000
#
# Coordination Sequence:
#
# PCOD9506359 Si02
#       5
#    16  16  16  16  16
#     4  10  21  36  58  87 119 152 206 257 307 376
#     4  10  20  37  59  81 116 162 203 255 303 369
#     4  10  20  36  60  90 123 155 208 252 311 373
#     4  10  20  36  61  91 120 162 199 259 307 374
#     4  10  19  38  59  86 125 153 206 260 307 372
#
# _framework density 23.201180999999998
#
# number of rings (size 3 to 8) (size 9 to 14) (size 15 to 20)
#    0.000    2.000    4.000    1.200    0.000    0.800 
#    0.000   22.000    0.000    0.000    0.000    5.600 
#    0.000    0.000    0.000    0.000    0.000    0.000 
#
# Total GULP energy -223607.702832 kJ/mol
# GULP energy per Si atom -5590.192571 kJ/mol
# Density = 2.314837 g / cm^3
# Si number density = 23.201181 Si / 1000 Ang^3
#
#
#
# Elastic Constant Matrix: (Units=GPa)
#
#
# Indices 1 2 3 4 5 6 
#
# 1 40.9108 19.4307 21.2167 0.0000 0.0000 0.0000
# 2 19.4307 115.5073 76.0263 0.0000 0.0000 0.0000
# 3 21.2167 76.0263 195.4443 0.0000 0.0000 0.0000
# 4 0.0000 0.0000 0.0000 -98.8855 0.0000 0.0000
# 5 0.0000 0.0000 0.0000 0.0000 14.3935 0.0000
# 6 0.0000 0.0000 0.0000 0.0000 0.0000 22.5468
#
#
#
# Elastic Compliance Matrix: (Units=1/GPa)
#
#
# Indices 1 2 3 4 5 6 
#
# 1 0.026915 -0.003501 -0.001560 0.000000 0.000000 0.000000
# 2 -0.003501 0.012092 -0.004324 0.000000 0.000000 0.000000
# 3 -0.001560 -0.004324 0.006968 0.000000 0.000000 0.000000
# 4 0.000000 0.000000 0.000000 -0.010113 0.000000 0.000000
# 5 0.000000 0.000000 0.000000 0.000000 0.069476 0.000000
# 6 0.000000 0.000000 0.000000 0.000000 0.000000 0.044352
#
#
# Mechanical properties :
#
#
# Convention : Reuss Voigt Hill
#
# Bulk Modulus (GPa) = 36.75664 65.02330 50.88997
# Shear Modulus (GPa) = 28.16452 3.29021 15.72737
#
# Velocity S-wave (km/s) = 3.48792 1.19214 2.60642
# Velocity P-wave (km/s) = 5.66549 5.47555 5.57133
#
# Compressibility (1/GPa) = 0.02720597
#
# Stress axis : x y z
#
# Youngs Moduli (GPa) = 37.15372 82.69758 143.51734
#
# Poissons Ratio (x) = 0.28952 0.22388
# Poissons Ratio (y) = 0.13007 0.62053
# Poissons Ratio (z) = 0.05796 0.35756
#
# Static dielectric constant tensor:
#      x y z
#    x 1.988100 0.000000 0.000000 
#    y 0.000000 1.916880 0.000000 
#    z 0.000000 0.000000 1.831960 
# 
# From -- ./inp_files/20867.got.cif
#   From: 2010.05.17/outbox.cif.g08.bks.cpg/sg68_11_cif.got.tgz:20867.got - 2010.06.03 18:57:09.
