data_PCOD9506394
_publ_section_title
;
Structure prediction by ZEFSAII (Michael W. Deem and Ramdas Pophale) SiO2 
 PCOD9506394
Probable space group: C C C A
;
_chemical_formula_sum "Si O2"
_cell_formula_units_Z 112
_cell_length_a 13.985630
_cell_length_b 12.697110
_cell_length_c 27.842998
_cell_angle_alpha 90.000000
_cell_angle_beta 90.000000
_cell_angle_gamma 90.000000
_cell_volume 4944.278354
_symmetry_space_group_name_H-M "C C C A"
_symmetry_group_IT_number 68
_space_group.IT_coordinate_system_code '2'
_symmetry_cell_setting 'orthorhombic'
loop_
_space_group_symop_operation_xyz
x,y,z
-x,1/2-y,z
x,1/2-y,1/2-z
-x,y,1/2-z
-x,-y,-z
x,1/2+y,-z
-x,1/2+y,1/2+z
x,-y,1/2+z
1/2+x,1/2+y,z
1/2-x,-y,z
1/2+x,-y,1/2-z
1/2-x,1/2+y,1/2-z
1/2-x,1/2-y,-z
1/2+x,y,-z
1/2-x,y,1/2+z
1/2+x,1/2-y,1/2+z
loop_
_atom_site_type_symbol
_atom_site_label
_atom_site_fract_x
_atom_site_fract_y
_atom_site_fract_z
Si Si1 0.947705 0.987794 0.174856
Si Si2 0.341547 0.064898 0.164644
Si Si3 0.339921 0.049813 0.562083
Si Si4 0.722085 0.780609 0.053344
Si Si5 0.104003 0.194748 0.297675
Si Si6 0.301046 0.193745 0.352161
Si Si7 0.531245 0.873109 0.076718
O O1 0.871164 0.894735 0.168971
O O2 0.054876 0.954394 0.186606
O O3 0.913665 0.073208 0.212735
O O4 0.956927 0.058249 0.125283
O O5 0.330437 0.189672 0.163078
O O6 0.250000 0.000000 0.184798
O O7 0.348385 0.021471 0.109632
O O8 0.308243 0.167808 0.575952
O O9 0.447987 0.071305 0.545275
O O10 0.250000 0.000000 0.533585
O O11 0.801810 0.821054 0.089999
O O12 0.633552 0.860068 0.052336
O O13 0.750000 0.750000 0.000000
O O14 0.141326 0.250000 0.250000
O O15 0.189507 0.191377 0.336262
O O16 0.000000 0.250000 0.308545
O O17 0.500000 0.750000 0.085467
#
# Coordination Sequence:
#
# PCOD9506394 Si02
#       7
#    16  16  16  16  16  16  16
#     4  11  22  39  68 104 141 171 234 296 356 413
#     4  10  19  38  69  97 127 192 228 274 348 435
#     4   9  17  36  61  87 121 173 242 279 334 414
#     4  11  22  38  61  95 138 187 240 291 348 423
#     4  11  25  45  72 105 134 179 243 294 345 444
#     4  12  23  42  68 101 145 183 224 298 368 416
#     4   9  19  36  64  89 124 184 233 282 346 412
#
# _framework density 22.652446000000001
#
# number of rings (size 3 to 8) (size 9 to 14) (size 15 to 20)
#    0.000    1.571    4.286    2.143    2.000    0.000 
#    2.571   12.143    0.000    0.857    0.000    0.000 
#    0.000    0.000    0.000    0.000    0.000    0.000 
#
# Total GULP energy -312146.113983 kJ/mol
# GULP energy per Si atom -5574.037750 kJ/mol
# Density = 2.260089 g / cm^3
# Si number density = 22.652446 Si / 1000 Ang^3
#
#
#
# Elastic Constant Matrix: (Units=GPa)
#
#
# Indices 1 2 3 4 5 6 
#
# 1 135.4841 84.5808 29.3692 0.0000 0.0000 0.0000
# 2 84.5808 155.3632 20.1534 0.0000 0.0000 0.0000
# 3 29.3692 20.1534 52.4465 0.0000 0.0000 0.0000
# 4 0.0000 0.0000 0.0000 15.6689 0.0000 0.0000
# 5 0.0000 0.0000 0.0000 0.0000 14.7918 0.0000
# 6 0.0000 0.0000 0.0000 0.0000 0.0000 61.5200
#
#
#
# Elastic Compliance Matrix: (Units=1/GPa)
#
#
# Indices 1 2 3 4 5 6 
#
# 1 0.012100 -0.006008 -0.004467 0.000000 0.000000 0.000000
# 2 -0.006008 0.009757 -0.000385 0.000000 0.000000 0.000000
# 3 -0.004467 -0.000385 0.021717 0.000000 0.000000 0.000000
# 4 0.000000 0.000000 0.000000 0.063821 0.000000 0.000000
# 5 0.000000 0.000000 0.000000 0.000000 0.067605 0.000000
# 6 0.000000 0.000000 0.000000 0.000000 0.000000 0.016255
#
#
# Mechanical properties :
#
#
# Convention : Reuss Voigt Hill
#
# Bulk Modulus (GPa) = 45.75910 67.94450 56.85180
# Shear Modulus (GPa) = 22.70060 32.34218 27.52139
#
# Velocity S-wave (km/s) = 3.16907 3.78267 3.48938
# Velocity P-wave (km/s) = 5.79957 7.00982 6.43322
#
# Compressibility (1/GPa) = 0.02185358
#
# Stress axis : x y z
#
# Youngs Moduli (GPa) = 82.64559 102.48882 46.04780
#
# Poissons Ratio (x) = 0.61573 0.20570
# Poissons Ratio (y) = 0.49652 0.01773
# Poissons Ratio (z) = 0.36919 0.03947
#
# Static dielectric constant tensor:
#      x y z
#    x 1.976620 0.000000 0.000000 
#    y 0.000000 1.836110 0.000000 
#    z 0.000000 0.000000 1.913740 
# 
# From -- ./inp_files/55284.got.cif
#   From: 2010.05.17/outbox.cif.g08.bks.cpg/sg68_28_cif.got.tgz:55284.got - 2010.06.03 18:57:09.
