data_PCOD9506800
_publ_section_title
;
Structure prediction by ZEFSAII (Michael W. Deem and Ramdas Pophale) SiO2 
 PCOD9506800
Probable space group: C C C A
;
_chemical_formula_sum "Si O2"
_cell_formula_units_Z 64
_cell_length_a 19.934048
_cell_length_b 4.959182
_cell_length_c 29.701094
_cell_angle_alpha 90.000000
_cell_angle_beta 90.000000
_cell_angle_gamma 90.000000
_cell_volume 2936.148338
_symmetry_space_group_name_H-M "C C C A"
_symmetry_group_IT_number 68
_space_group.IT_coordinate_system_code '2'
_symmetry_cell_setting 'orthorhombic'
loop_
_space_group_symop_operation_xyz
x,y,z
-x,1/2-y,z
x,1/2-y,1/2-z
-x,y,1/2-z
-x,-y,-z
x,1/2+y,-z
-x,1/2+y,1/2+z
x,-y,1/2+z
1/2+x,1/2+y,z
1/2-x,-y,z
1/2+x,-y,1/2-z
1/2-x,1/2+y,1/2-z
1/2-x,1/2-y,-z
1/2+x,y,-z
1/2-x,y,1/2+z
1/2+x,1/2-y,1/2+z
loop_
_atom_site_type_symbol
_atom_site_label
_atom_site_fract_x
_atom_site_fract_y
_atom_site_fract_z
Si Si1 0.750000 0.000000 0.821038
Si Si2 0.578662 0.722032 0.970337
Si Si3 0.367180 0.617965 0.877693
Si Si4 0.647173 0.250000 0.750000
Si Si5 0.928749 0.105089 0.166947
O O1 0.795424 0.180779 0.854408
O O2 0.695615 0.113777 0.786188
O O3 0.500000 0.750000 0.956550
O O4 0.625836 0.819784 0.930134
O O5 0.588397 0.417955 0.986862
O O6 0.384811 0.310769 0.864192
O O7 0.421635 0.814151 0.854881
O O8 0.600098 0.423456 0.782520
O O9 0.000000 0.250000 0.168784
#
# Coordination Sequence:
#
# PCOD9506800 Si02
#       5
#     8  16  16   8  16
#     4  10  22  40  62  86 122 168 210 246 294 368
#     4  10  20  36  59  86 116 149 192 247 307 366
#     4  11  23  39  61  88 121 160 200 245 301 364
#     4  10  21  38  60  86 117 160 204 244 292 354
#     4  11  22  37  60  89 122 155 198 254 305 353
#
# _framework density 21.797263000000001
#
# number of rings (size 3 to 8) (size 9 to 14) (size 15 to 20)
#    0.000    1.500    0.000    5.625    0.000    8.000 
#    0.000    6.250    0.000    0.000    0.000    0.000 
#    0.000    0.000    0.000    0.000    0.000    0.000 
#
# Total GULP energy -178562.458889 kJ/mol
# GULP energy per Si atom -5580.076840 kJ/mol
# Density = 2.174765 g / cm^3
# Si number density = 21.797263 Si / 1000 Ang^3
#
#
#
# Elastic Constant Matrix: (Units=GPa)
#
#
# Indices 1 2 3 4 5 6 
#
# 1 54.4332 1.1067 20.4439 0.0000 0.0000 0.0000
# 2 1.1067 64.3782 0.5594 0.0000 0.0000 0.0000
# 3 20.4439 0.5594 106.7612 0.0000 0.0000 0.0000
# 4 0.0000 0.0000 0.0000 17.6194 0.0000 0.0000
# 5 0.0000 0.0000 0.0000 0.0000 29.4645 0.0000
# 6 0.0000 0.0000 0.0000 0.0000 0.0000 20.8547
#
#
#
# Elastic Compliance Matrix: (Units=1/GPa)
#
#
# Indices 1 2 3 4 5 6 
#
# 1 0.019801 -0.000307 -0.003790 0.000000 0.000000 0.000000
# 2 -0.000307 0.015539 -0.000023 0.000000 0.000000 0.000000
# 3 -0.003790 -0.000023 0.010093 0.000000 0.000000 0.000000
# 4 0.000000 0.000000 0.000000 0.056756 0.000000 0.000000
# 5 0.000000 0.000000 0.000000 0.000000 0.033939 0.000000
# 6 0.000000 0.000000 0.000000 0.000000 0.000000 0.047951
#
#
# Mechanical properties :
#
#
# Convention : Reuss Voigt Hill
#
# Bulk Modulus (GPa) = 26.88757 29.97699 28.43228
# Shear Modulus (GPa) = 24.42416 27.15189 25.78802
#
# Velocity S-wave (km/s) = 3.35104 3.53321 3.44333
# Velocity P-wave (km/s) = 5.22826 5.51609 5.37410
#
# Compressibility (1/GPa) = 0.03719191
#
# Stress axis : x y z
#
# Youngs Moduli (GPa) = 50.50286 64.35551 99.08256
#
# Poissons Ratio (x) = 0.01979 0.37553
# Poissons Ratio (y) = 0.01553 0.00223
# Poissons Ratio (z) = 0.19141 0.00145
#
# Static dielectric constant tensor:
#      x y z
#    x 1.867560 0.000000 0.000000 
#    y 0.000000 1.795870 0.000000 
#    z 0.000000 0.000000 1.798060 
# 
# From -- ./inp_files/48144.got.cif
#   From: 2010.05.17/outbox.cif.g08.bks.cpg/sg68_25_cif.got.tgz:48144.got - 2010.06.03 18:57:09.
