data_PCOD9506970
_publ_section_title
;
Structure prediction by ZEFSAII (Michael W. Deem and Ramdas Pophale) SiO2 
 PCOD9506970
Probable space group: C C C A
;
_chemical_formula_sum "Si O2"
_cell_formula_units_Z 88
_cell_length_a 11.518125
_cell_length_b 14.131697
_cell_length_c 25.864730
_cell_angle_alpha 90.000000
_cell_angle_beta 90.000000
_cell_angle_gamma 90.000000
_cell_volume 4210.018979
_symmetry_space_group_name_H-M "C C C A"
_symmetry_group_IT_number 68
_space_group.IT_coordinate_system_code '2'
_symmetry_cell_setting 'orthorhombic'
loop_
_space_group_symop_operation_xyz
x,y,z
-x,1/2-y,z
x,1/2-y,1/2-z
-x,y,1/2-z
-x,-y,-z
x,1/2+y,-z
-x,1/2+y,1/2+z
x,-y,1/2+z
1/2+x,1/2+y,z
1/2-x,-y,z
1/2+x,-y,1/2-z
1/2-x,1/2+y,1/2-z
1/2-x,1/2-y,-z
1/2+x,y,-z
1/2-x,y,1/2+z
1/2+x,1/2-y,1/2+z
loop_
_atom_site_type_symbol
_atom_site_label
_atom_site_fract_x
_atom_site_fract_y
_atom_site_fract_z
Si Si1 0.802173 0.645336 0.755594
Si Si2 0.932567 0.889646 0.200482
Si Si3 0.638079 0.126266 0.086713
Si Si4 0.020917 0.903681 0.676344
Si Si5 0.408750 0.595750 0.071936
Si Si6 0.000000 0.250000 0.508462
O O1 0.753314 0.750000 0.750000
O O2 0.695993 0.588088 0.778588
O O3 0.914693 0.646253 0.792877
O O4 0.855255 0.618395 0.700517
O O5 0.911935 0.846580 0.143550
O O6 0.000000 0.848345 0.250000
O O7 0.998358 0.986586 0.187654
O O8 0.777712 0.121355 0.089403
O O9 0.595761 0.019953 0.068927
O O10 0.595895 0.201564 0.044982
O O11 0.001093 0.882248 0.616982
O O12 0.444779 0.663782 0.024907
#
# Coordination Sequence:
#
# PCOD9506970 Si02
#       6
#    16  16  16  16  16   8
#     4  11  22  34  59  92 128 155 206 254 292 364
#     4  11  22  39  64  89 130 174 198 239 318 385
#     4  10  23  43  63  92 127 164 209 254 321 392
#     4  10  20  37  64  88 120 162 212 238 302 375
#     4  10  22  41  68  90 120 169 207 259 321 375
#     4  12  24  40  69  91 120 154 222 278 310 352
#
# _framework density 20.902518000000001
#
# number of rings (size 3 to 8) (size 9 to 14) (size 15 to 20)
#    0.000    1.455    3.636    2.727    2.545    1.818 
#    0.000    1.818    0.000    2.182    0.000    0.000 
#    0.000    0.000    0.000    0.000    0.000    0.000 
#
# Total GULP energy -245392.227163 kJ/mol
# GULP energy per Si atom -5577.096072 kJ/mol
# Density = 2.085494 g / cm^3
# Si number density = 20.902518 Si / 1000 Ang^3
#
#
#
# Elastic Constant Matrix: (Units=GPa)
#
#
# Indices 1 2 3 4 5 6 
#
# 1 75.9964 25.1103 47.4367 0.0000 0.0000 0.0000
# 2 25.1103 59.9179 51.8806 0.0000 0.0000 0.0000
# 3 47.4367 51.8806 159.2902 0.0000 0.0000 0.0000
# 4 0.0000 0.0000 0.0000 -14.4594 0.0000 0.0000
# 5 0.0000 0.0000 0.0000 0.0000 32.7630 0.0000
# 6 0.0000 0.0000 0.0000 0.0000 0.0000 22.9178
#
#
#
# Elastic Compliance Matrix: (Units=1/GPa)
#
#
# Indices 1 2 3 4 5 6 
#
# 1 0.016750 -0.003761 -0.003763 0.000000 0.000000 0.000000
# 2 -0.003761 0.024089 -0.006726 0.000000 0.000000 0.000000
# 3 -0.003763 -0.006726 0.009589 0.000000 0.000000 0.000000
# 4 0.000000 0.000000 0.000000 -0.069159 0.000000 0.000000
# 5 0.000000 0.000000 0.000000 0.000000 0.030522 0.000000
# 6 0.000000 0.000000 0.000000 0.000000 0.000000 0.043634
#
#
# Mechanical properties :
#
#
# Convention : Reuss Voigt Hill
#
# Bulk Modulus (GPa) = 45.60322 60.45106 53.02714
# Shear Modulus (GPa) = 54.80297 19.62940 37.21619
#
# Velocity S-wave (km/s) = 5.12594 3.06779 4.22413
# Velocity P-wave (km/s) = 7.54309 6.44451 7.01533
#
# Compressibility (1/GPa) = 0.02192827
#
# Stress axis : x y z
#
# Youngs Moduli (GPa) = 59.70056 41.51214 104.28505
#
# Poissons Ratio (x) = 0.15614 0.39245
# Poissons Ratio (y) = 0.22455 0.70140
# Poissons Ratio (z) = 0.22466 0.27920
#
# Static dielectric constant tensor:
#      x y z
#    x 1.786620 0.000000 0.000000 
#    y 0.000000 1.816610 0.000000 
#    z 0.000000 0.000000 1.769090 
# 
# From -- ./inp_files/44221.got.cif
#   From: 2010.05.17/outbox.cif.g08.bks.cpg/sg68_23_cif.got.tgz:44221.got - 2010.06.03 18:57:09.
