data_PCOD9506420
_publ_section_title
;
Structure prediction by ZEFSAII (Michael W. Deem and Ramdas Pophale) SiO2 
 PCOD9506420
Probable space group: C C C A
;
_chemical_formula_sum "Si O2"
_cell_formula_units_Z 68
_cell_length_a 17.173195
_cell_length_b 10.417265
_cell_length_c 20.008090
_cell_angle_alpha 90.000000
_cell_angle_beta 90.000000
_cell_angle_gamma 90.000000
_cell_volume 3579.401747
_symmetry_space_group_name_H-M "C C C A"
_symmetry_group_IT_number 68
_space_group.IT_coordinate_system_code '2'
_symmetry_cell_setting 'orthorhombic'
loop_
_space_group_symop_operation_xyz
x,y,z
-x,1/2-y,z
x,1/2-y,1/2-z
-x,y,1/2-z
-x,-y,-z
x,1/2+y,-z
-x,1/2+y,1/2+z
x,-y,1/2+z
1/2+x,1/2+y,z
1/2-x,-y,z
1/2+x,-y,1/2-z
1/2-x,1/2+y,1/2-z
1/2-x,1/2-y,-z
1/2+x,y,-z
1/2-x,y,1/2+z
1/2+x,1/2-y,1/2+z
loop_
_atom_site_type_symbol
_atom_site_label
_atom_site_fract_x
_atom_site_fract_y
_atom_site_fract_z
Si Si1 0.000000 0.750000 0.750000
Si Si2 0.941395 0.632022 0.366605
Si Si3 0.313566 0.105800 0.252939
Si Si4 0.082286 0.553409 0.846213
Si Si5 0.053907 0.625018 0.986232
O O1 0.941701 0.834610 0.795443
O O2 0.878023 0.620459 0.309996
O O3 0.906898 0.645220 0.441253
O O4 0.000000 0.750000 0.355554
O O5 0.998841 0.512461 0.359195
O O6 0.279282 0.250000 0.250000
O O7 0.250000 0.000000 0.270602
O O8 0.358243 0.047403 0.187706
O O9 0.105443 0.601490 0.920344
O O10 0.000000 0.750000 0.974006
O O11 0.000000 0.500000 0.000000
#
# Coordination Sequence:
#
# PCOD9506420 Si02
#       5
#     4  16  16  16  16
#     4  12  20  28  58  96 120 152 186 264 308 356
#     4  10  19  39  67  89 116 162 213 256 304 374
#     4  12  26  41  61  90 129 170 213 262 320 380
#     4  11  21  36  62  92 124 159 207 260 317 367
#     4   9  19  34  59  95 124 151 203 267 312 362
#
# _framework density 18.997588
#
# number of rings (size 3 to 8) (size 9 to 14) (size 15 to 20)
#    0.000    1.412    5.882    0.000    1.647    0.000 
#    0.000    1.176    0.000    2.824    0.000    0.000 
#    0.000    0.000    0.000    0.000    0.000    0.000 
#
# Total GULP energy -189444.597993 kJ/mol
# GULP energy per Si atom -5571.899941 kJ/mol
# Density = 1.895435 g / cm^3
# Si number density = 18.997588 Si / 1000 Ang^3
#
#
#
# Elastic Constant Matrix: (Units=GPa)
#
#
# Indices 1 2 3 4 5 6 
#
# 1 30.1726 25.2742 34.9003 0.0000 0.0000 0.0000
# 2 25.2742 130.4990 49.3068 0.0000 0.0000 0.0000
# 3 34.9003 49.3068 152.3850 0.0000 0.0000 0.0000
# 4 0.0000 0.0000 0.0000 6.6631 0.0000 0.0000
# 5 0.0000 0.0000 0.0000 0.0000 -84.2298 0.0000
# 6 0.0000 0.0000 0.0000 0.0000 0.0000 20.9530
#
#
#
# Elastic Compliance Matrix: (Units=1/GPa)
#
#
# Indices 1 2 3 4 5 6 
#
# 1 0.048845 -0.005962 -0.009258 0.000000 0.000000 0.000000
# 2 -0.005962 0.009458 -0.001695 0.000000 0.000000 0.000000
# 3 -0.009258 -0.001695 0.009231 0.000000 0.000000 0.000000
# 4 0.000000 0.000000 0.000000 0.150080 0.000000 0.000000
# 5 0.000000 0.000000 0.000000 0.000000 -0.011872 0.000000
# 6 0.000000 0.000000 0.000000 0.000000 0.000000 0.047726
#
#
# Mechanical properties :
#
#
# Convention : Reuss Voigt Hill
#
# Bulk Modulus (GPa) = 29.66939 59.11325 44.39132
# Shear Modulus (GPa) = 16.74862 2.24896 9.49879
#
# Velocity S-wave (km/s) = 2.97243 1.08921 2.23849
# Velocity P-wave (km/s) = 5.23754 5.72412 5.48623
#
# Compressibility (1/GPa) = 0.03370477
#
# Stress axis : x y z
#
# Youngs Moduli (GPa) = 20.47287 105.73121 108.33093
#
# Poissons Ratio (x) = 0.63038 1.00290
# Poissons Ratio (y) = 0.12206 0.18360
# Poissons Ratio (z) = 0.18953 0.17919
#
# Static dielectric constant tensor:
#      x y z
#    x 1.612460 0.000000 0.000000 
#    y 0.000000 1.712050 0.000000 
#    z 0.000000 0.000000 1.754400 
# 
# From -- ./inp_files/35866.got.cif
#   From: 2010.05.17/outbox.cif.g08.bks.cpg/sg68_18_cif.got.tgz:35866.got - 2010.06.03 18:57:09.
