data_PCOD9506948
_publ_section_title
;
Structure prediction by ZEFSAII (Michael W. Deem and Ramdas Pophale) SiO2 
 PCOD9506948
Probable space group: C C C A
;
_chemical_formula_sum "Si O2"
_cell_formula_units_Z 108
_cell_length_a 12.500713
_cell_length_b 15.993048
_cell_length_c 27.089351
_cell_angle_alpha 90.000000
_cell_angle_beta 90.000000
_cell_angle_gamma 90.000000
_cell_volume 5415.825036
_symmetry_space_group_name_H-M "C C C A"
_symmetry_group_IT_number 68
_space_group.IT_coordinate_system_code '2'
_symmetry_cell_setting 'orthorhombic'
loop_
_space_group_symop_operation_xyz
x,y,z
-x,1/2-y,z
x,1/2-y,1/2-z
-x,y,1/2-z
-x,-y,-z
x,1/2+y,-z
-x,1/2+y,1/2+z
x,-y,1/2+z
1/2+x,1/2+y,z
1/2-x,-y,z
1/2+x,-y,1/2-z
1/2-x,1/2+y,1/2-z
1/2-x,1/2-y,-z
1/2+x,y,-z
1/2-x,y,1/2+z
1/2+x,1/2-y,1/2+z
loop_
_atom_site_type_symbol
_atom_site_label
_atom_site_fract_x
_atom_site_fract_y
_atom_site_fract_z
Si Si1 0.308387 0.588918 0.801835
Si Si2 0.897327 0.194938 0.887414
Si Si3 0.000000 0.976751 0.250000
Si Si4 0.655619 0.434565 0.900020
Si Si5 0.343806 0.616669 0.210286
Si Si6 0.975892 0.559367 0.452786
Si Si7 0.778648 0.683171 0.458946
Si Si8 0.000000 0.250000 0.250000
O O1 0.250000 0.500000 0.814032
O O2 0.320157 0.651716 0.847123
O O3 0.432189 0.574518 0.788579
O O4 0.248447 0.621279 0.752012
O O5 0.825607 0.262939 0.914527
O O6 0.000000 0.250000 0.868583
O O7 0.941622 0.125166 0.926994
O O8 0.087914 0.034598 0.275782
O O9 0.750000 0.500000 0.907465
O O10 0.679484 0.394651 0.846924
O O11 0.552631 0.491854 0.909425
O O12 0.672461 0.365519 0.941903
O O13 0.423633 0.693126 0.217383
O O14 0.873322 0.616072 0.469170
O O15 0.000000 0.500000 0.500000
O O16 0.750000 0.750000 0.500000
#
# Coordination Sequence:
#
# PCOD9506948 Si02
#       8
#    16  16   8  16  16  16  16   4
#     4  10  21  37  62  87 117 161 208 248 307 371
#     4  10  22  38  57  89 127 153 197 263 314 361
#     4   9  18  37  57  84 115 150 202 256 285 354
#     4  10  20  37  62  84 112 159 205 239 303 378
#     4  10  21  38  59  83 122 160 201 252 309 365
#     4  10  21  39  62  87 117 160 209 256 308 371
#     4  10  22  39  57  85 121 151 192 254 311 364
#     4  10  24  40  52  82 134 152 202 260 302 374
#
# _framework density 19.941559000000002
#
# number of rings (size 3 to 8) (size 9 to 14) (size 15 to 20)
#    0.000    2.074    0.000    3.111    2.074    3.556 
#    2.667    0.000    0.000    0.000    0.000    0.000 
#    0.000    0.000    0.000    0.000    0.000    0.000 
#
# Total GULP energy -300728.516756 kJ/mol
# GULP energy per Si atom -5569.046607 kJ/mol
# Density = 1.989617 g / cm^3
# Si number density = 19.941559 Si / 1000 Ang^3
#
#
#
# Elastic Constant Matrix: (Units=GPa)
#
#
# Indices 1 2 3 4 5 6 
#
# 1 44.7319 24.2817 14.0467 0.0000 0.0000 0.0000
# 2 24.2817 111.7686 47.3792 0.0000 0.0000 0.0000
# 3 14.0467 47.3792 89.2194 0.0000 0.0000 0.0000
# 4 0.0000 0.0000 0.0000 67.8353 0.0000 0.0000
# 5 0.0000 0.0000 0.0000 0.0000 17.9270 0.0000
# 6 0.0000 0.0000 0.0000 0.0000 0.0000 3.5654
#
#
#
# Elastic Compliance Matrix: (Units=1/GPa)
#
#
# Indices 1 2 3 4 5 6 
#
# 1 0.025476 -0.004948 -0.001383 0.000000 0.000000 0.000000
# 2 -0.004948 0.012507 -0.005863 0.000000 0.000000 0.000000
# 3 -0.001383 -0.005863 0.014540 0.000000 0.000000 0.000000
# 4 0.000000 0.000000 0.000000 0.014742 0.000000 0.000000
# 5 0.000000 0.000000 0.000000 0.000000 0.055782 0.000000
# 6 0.000000 0.000000 0.000000 0.000000 0.000000 0.280470
#
#
# Mechanical properties :
#
#
# Convention : Reuss Voigt Hill
#
# Bulk Modulus (GPa) = 35.54412 46.34834 40.94623
# Shear Modulus (GPa) = 11.43425 28.53305 19.98365
#
# Velocity S-wave (km/s) = 2.39715 3.78674 3.16905
# Velocity P-wave (km/s) = 5.05219 6.51243 5.82822
#
# Compressibility (1/GPa) = 0.02813405
#
# Stress axis : x y z
#
# Youngs Moduli (GPa) = 39.25297 79.95284 68.77805
#
# Poissons Ratio (x) = 0.39563 0.09513
# Poissons Ratio (y) = 0.19423 0.40324
# Poissons Ratio (z) = 0.05429 0.46875
#
# Static dielectric constant tensor:
#      x y z
#    x 1.447690 0.000000 0.000000 
#    y 0.000000 1.783360 0.000000 
#    z 0.000000 0.000000 2.459630 
# 
# From -- ./inp_files/54855.got.cif
#   From: 2010.05.17/outbox.cif.g08.bks.cpg/sg68_28_cif.got.tgz:54855.got - 2010.06.03 18:57:09.
