data_PCOD9506383
_publ_section_title
;
Structure prediction by ZEFSAII (Michael W. Deem and Ramdas Pophale) SiO2 
 PCOD9506383
Probable space group: C C C A
;
_chemical_formula_sum "Si O2"
_cell_formula_units_Z 96
_cell_length_a 10.237321
_cell_length_b 17.482252
_cell_length_c 25.885032
_cell_angle_alpha 90.000000
_cell_angle_beta 90.000000
_cell_angle_gamma 90.000000
_cell_volume 4632.681077
_symmetry_space_group_name_H-M "C C C A"
_symmetry_group_IT_number 68
_space_group.IT_coordinate_system_code '2'
_symmetry_cell_setting 'orthorhombic'
loop_
_space_group_symop_operation_xyz
x,y,z
-x,1/2-y,z
x,1/2-y,1/2-z
-x,y,1/2-z
-x,-y,-z
x,1/2+y,-z
-x,1/2+y,1/2+z
x,-y,1/2+z
1/2+x,1/2+y,z
1/2-x,-y,z
1/2+x,-y,1/2-z
1/2-x,1/2+y,1/2-z
1/2-x,1/2-y,-z
1/2+x,y,-z
1/2-x,y,1/2+z
1/2+x,1/2-y,1/2+z
loop_
_atom_site_type_symbol
_atom_site_label
_atom_site_fract_x
_atom_site_fract_y
_atom_site_fract_z
Si Si1 0.363648 0.060084 0.265460
Si Si2 0.638656 0.937492 0.551472
Si Si3 0.383449 0.536468 0.432754
Si Si4 0.499956 0.665884 0.360694
Si Si5 0.803523 0.333733 0.857074
Si Si6 0.249821 0.807053 0.701500
O O1 0.500000 0.022297 0.250000
O O2 0.378896 0.113678 0.315888
O O3 0.321708 0.116816 0.219186
O O4 0.250000 0.000000 0.274785
O O5 0.647826 0.929599 0.489670
O O6 0.662364 0.862727 0.585919
O O7 0.750000 0.000000 0.566500
O O8 0.496191 0.972874 0.561877
O O9 0.250000 0.500000 0.412069
O O10 0.441283 0.601901 0.397117
O O11 0.500000 0.750000 0.386649
O O12 0.649332 0.649355 0.346936
O O13 0.398717 0.674651 0.313811
O O14 0.815838 0.243697 0.843969
O O15 0.251764 0.750000 0.750000
#
# Coordination Sequence:
#
# PCOD9506383 Si02
#       6
#    16  16  16  16  16  16
#     4  11  26  41  63  94 128 166 214 268 316 378
#     4  10  19  38  66  90 127 167 210 257 322 389
#     4  10  22  37  63  99 127 159 211 274 320 369
#     4  10  21  39  64  91 128 172 212 258 320 393
#     4  10  21  39  66  88 122 177 210 250 326 391
#     4   9  22  41  62  90 127 166 213 264 314 376
#
# _framework density 20.722342999999999
#
# number of rings (size 3 to 8) (size 9 to 14) (size 15 to 20)
#    0.000    2.000    1.667    0.500    2.333   12.000 
#    0.000    5.000    3.667    0.000    0.000    0.000 
#    0.000    0.000    0.000    0.000    0.000    0.000 
#
# Total GULP energy -268117.389521 kJ/mol
# GULP energy per Si atom -5585.778948 kJ/mol
# Density = 2.067518 g / cm^3
# Si number density = 20.722343 Si / 1000 Ang^3
#
#
#
# Elastic Constant Matrix: (Units=GPa)
#
#
# Indices 1 2 3 4 5 6 
#
# 1 62.4551 -12.5913 -11.1245 0.0000 0.0000 0.0000
# 2 -12.5913 39.5203 7.1847 0.0000 0.0000 0.0000
# 3 -11.1245 7.1847 27.3906 0.0000 0.0000 0.0000
# 4 0.0000 0.0000 0.0000 56.9788 0.0000 0.0000
# 5 0.0000 0.0000 0.0000 0.0000 19.2917 0.0000
# 6 0.0000 0.0000 0.0000 0.0000 0.0000 28.1569
#
#
#
# Elastic Compliance Matrix: (Units=1/GPa)
#
#
# Indices 1 2 3 4 5 6 
#
# 1 0.018034 0.004635 0.006109 0.000000 0.000000 0.000000
# 2 0.004635 0.027762 -0.005400 0.000000 0.000000 0.000000
# 3 0.006109 -0.005400 0.040406 0.000000 0.000000 0.000000
# 4 0.000000 0.000000 0.000000 0.017550 0.000000 0.000000
# 5 0.000000 0.000000 0.000000 0.000000 0.051836 0.000000
# 6 0.000000 0.000000 0.000000 0.000000 0.000000 0.035515
#
#
# Mechanical properties :
#
#
# Convention : Reuss Voigt Hill
#
# Bulk Modulus (GPa) = 10.32093 10.70042 10.51067
# Shear Modulus (GPa) = 23.50598 30.61195 27.05896
#
# Velocity S-wave (km/s) = 3.37164 3.84766 3.61749
# Velocity P-wave (km/s) = 4.48872 4.99142 4.74673
#
# Compressibility (1/GPa) = 0.09689052
#
# Stress axis : x y z
#
# Youngs Moduli (GPa) = 55.45071 36.02063 24.74868
#
# Poissons Ratio (x) = -0.16696 -0.15118
# Poissons Ratio (y) = -0.25702 0.13363
# Poissons Ratio (z) = -0.33872 0.19449
#
# Static dielectric constant tensor:
#      x y z
#    x 1.753070 0.000000 0.000000 
#    y 0.000000 1.737450 0.000000 
#    z 0.000000 0.000000 1.746770 
# 
# From -- ./inp_files/49305.got.cif
#   From: 2010.05.17/outbox.cif.g08.bks.cpg/sg68_25_cif.got.tgz:49305.got - 2010.06.03 18:57:09.
