data_PCOD9506677
_publ_section_title
;
Structure prediction by ZEFSAII (Michael W. Deem and Ramdas Pophale) SiO2 
 PCOD9506677
Probable space group: C C C A
;
_chemical_formula_sum "Si O2"
_cell_formula_units_Z 104
_cell_length_a 9.533585
_cell_length_b 27.167424
_cell_length_c 18.858556
_cell_angle_alpha 90.000000
_cell_angle_beta 90.000000
_cell_angle_gamma 90.000000
_cell_volume 4884.421560
_symmetry_space_group_name_H-M "C C C A"
_symmetry_group_IT_number 68
_space_group.IT_coordinate_system_code '2'
_symmetry_cell_setting 'orthorhombic'
loop_
_space_group_symop_operation_xyz
x,y,z
-x,1/2-y,z
x,1/2-y,1/2-z
-x,y,1/2-z
-x,-y,-z
x,1/2+y,-z
-x,1/2+y,1/2+z
x,-y,1/2+z
1/2+x,1/2+y,z
1/2-x,-y,z
1/2+x,-y,1/2-z
1/2-x,1/2+y,1/2-z
1/2-x,1/2-y,-z
1/2+x,y,-z
1/2-x,y,1/2+z
1/2+x,1/2-y,1/2+z
loop_
_atom_site_type_symbol
_atom_site_label
_atom_site_fract_x
_atom_site_fract_y
_atom_site_fract_z
Si Si1 0.037700 0.392141 0.372303
Si Si2 0.200065 0.449981 0.868425
Si Si3 0.974560 0.557200 0.475745
Si Si4 0.876792 0.217705 0.584215
Si Si5 0.111545 0.287657 0.420550
Si Si6 0.500000 0.933873 0.750000
Si Si7 0.290038 0.109836 0.361859
O O1 0.164727 0.422678 0.338107
O O2 0.035579 0.412770 0.452446
O O3 0.095732 0.337153 0.377361
O O4 0.876575 0.395467 0.347473
O O5 0.250000 0.500000 0.903405
O O6 0.091579 0.463410 0.806453
O O7 0.107367 0.423847 0.928596
O O8 0.842743 0.572011 0.424665
O O9 0.000000 0.500000 0.500000
O O10 0.922603 0.203346 0.503823
O O11 0.755239 0.258233 0.580148
O O12 0.823973 0.166392 0.616833
O O13 0.000000 0.250000 0.619391
O O14 0.000000 0.250000 0.390391
O O15 0.611490 0.902777 0.704773
#
# Coordination Sequence:
#
# PCOD9506677 Si02
#       7
#    16  16  16  16  16   8  16
#     4  12  23  37  70 101 134 166 211 277 342 396
#     4  11  25  45  67  95 132 179 221 276 319 391
#     4  11  23  41  63 102 141 167 210 265 344 403
#     4  10  21  34  62  94 134 172 201 260 334 400
#     4  10  20  35  57 102 138 157 206 260 333 411
#     4  10  28  48  63  86 128 174 245 264 320 384
#     4  11  24  43  65  94 132 177 220 275 323 399
#
# _framework density 21.292183000000001
#
# number of rings (size 3 to 8) (size 9 to 14) (size 15 to 20)
#    0.000    1.231    4.615    0.923    4.308    1.846 
#    0.000    0.385    0.000    0.000    0.000    0.000 
#    0.000    0.000    0.000    0.000    0.000    0.000 
#
# Total GULP energy -289915.941901 kJ/mol
# GULP energy per Si atom -5575.306575 kJ/mol
# Density = 2.124372 g / cm^3
# Si number density = 21.292183 Si / 1000 Ang^3
#
#
#
# Elastic Constant Matrix: (Units=GPa)
#
#
# Indices 1 2 3 4 5 6 
#
# 1 136.8193 29.5784 12.3714 0.0000 0.0000 0.0000
# 2 29.5784 92.7314 -8.7102 0.0000 0.0000 0.0000
# 3 12.3714 -8.7102 44.3258 0.0000 0.0000 0.0000
# 4 0.0000 0.0000 0.0000 17.1639 0.0000 0.0000
# 5 0.0000 0.0000 0.0000 0.0000 26.7974 0.0000
# 6 0.0000 0.0000 0.0000 0.0000 0.0000 30.9752
#
#
#
# Elastic Compliance Matrix: (Units=1/GPa)
#
#
# Indices 1 2 3 4 5 6 
#
# 1 0.008189 -0.002880 -0.002852 0.000000 0.000000 0.000000
# 2 -0.002880 0.011999 0.003162 0.000000 0.000000 0.000000
# 3 -0.002852 0.003162 0.023977 0.000000 0.000000 0.000000
# 4 0.000000 0.000000 0.000000 0.058262 0.000000 0.000000
# 5 0.000000 0.000000 0.000000 0.000000 0.037317 0.000000
# 6 0.000000 0.000000 0.000000 0.000000 0.000000 0.032284
#
#
# Mechanical properties :
#
#
# Convention : Reuss Voigt Hill
#
# Bulk Modulus (GPa) = 25.62360 37.81731 31.72045
# Shear Modulus (GPa) = 26.29119 31.02974 28.66047
#
# Velocity S-wave (km/s) = 3.51776 3.82164 3.67284
# Velocity P-wave (km/s) = 5.34415 6.10516 5.73728
#
# Compressibility (1/GPa) = 0.03902652
#
# Stress axis : x y z
#
# Youngs Moduli (GPa) = 122.10958 83.33726 41.70592
#
# Poissons Ratio (x) = 0.24001 0.11893
# Poissons Ratio (y) = 0.35167 -0.13186
# Poissons Ratio (z) = 0.34821 -0.26349
#
# Static dielectric constant tensor:
#      x y z
#    x 1.790170 0.000000 0.000000 
#    y 0.000000 1.726370 0.000000 
#    z 0.000000 0.000000 1.774910 
# 
# From -- ./inp_files/36695.got.cif
#   From: 2010.05.17/outbox.cif.g08.bks.cpg/sg68_19_cif.got.tgz:36695.got - 2010.06.03 18:57:09.
