data_PCOD9506072
_publ_section_title
;
Structure prediction by ZEFSAII (Michael W. Deem and Ramdas Pophale) SiO2 
 PCOD9506072
Probable space group: C C C A
;
_chemical_formula_sum "Si O2"
_cell_formula_units_Z 96
_cell_length_a 13.852017
_cell_length_b 24.847014
_cell_length_c 11.078687
_cell_angle_alpha 90.000000
_cell_angle_beta 90.000000
_cell_angle_gamma 90.000000
_cell_volume 3813.076454
_symmetry_space_group_name_H-M "C C C A"
_symmetry_group_IT_number 68
_space_group.IT_coordinate_system_code '2'
_symmetry_cell_setting 'orthorhombic'
loop_
_space_group_symop_operation_xyz
x,y,z
-x,1/2-y,z
x,1/2-y,1/2-z
-x,y,1/2-z
-x,-y,-z
x,1/2+y,-z
-x,1/2+y,1/2+z
x,-y,1/2+z
1/2+x,1/2+y,z
1/2-x,-y,z
1/2+x,-y,1/2-z
1/2-x,1/2+y,1/2-z
1/2-x,1/2-y,-z
1/2+x,y,-z
1/2-x,y,1/2+z
1/2+x,1/2-y,1/2+z
loop_
_atom_site_type_symbol
_atom_site_label
_atom_site_fract_x
_atom_site_fract_y
_atom_site_fract_z
Si Si1 0.870225 0.146273 0.998997
Si Si2 0.616223 0.813198 0.256664
Si Si3 0.651796 0.534108 0.589386
Si Si4 0.640469 0.478338 0.359125
Si Si5 0.603102 0.365679 0.488570
Si Si6 0.608860 0.745058 0.891225
O O1 0.824736 0.096493 0.929694
O O2 0.839410 0.203217 0.943089
O O3 0.852410 0.152690 0.140591
O O4 0.985801 0.136551 0.980983
O O5 0.652356 0.750000 0.250000
O O6 0.500000 0.807741 0.250000
O O7 0.631315 0.849688 0.374966
O O8 0.750000 0.500000 0.590073
O O9 0.598487 0.517273 0.464217
O O10 0.603960 0.524425 0.720326
O O11 0.750000 0.500000 0.345143
O O12 0.634555 0.419966 0.422268
O O13 0.643256 0.314148 0.417953
O O14 0.500000 0.750000 0.945858
O O15 0.601880 0.750000 0.750000
#
# Coordination Sequence:
#
# PCOD9506072 Si02
#       6
#    16  16  16  16  16  16
#     4  10  19  33  57  90 126 158 197 246 301 366
#     4   9  16  30  53  90 134 166 190 232 301 372
#     4  10  23  42  61  82 114 160 210 258 308 359
#     4  10  23  42  61  82 114 160 210 258 308 359
#     4  10  19  33  57  90 126 158 197 246 301 366
#     4   9  16  27  49  84 121 152 183 233 303 371
#
# _framework density 25.176521000000001
#
# number of rings (size 3 to 8) (size 9 to 14) (size 15 to 20)
#    0.000    2.333    1.667    1.000    2.333    2.667 
#    0.000    0.000    0.000    4.000    0.000    2.333 
#    0.000    0.000    0.000    0.000    0.000    1.667 
#
# Total GULP energy -268190.214583 kJ/mol
# GULP energy per Si atom -5587.296137 kJ/mol
# Density = 2.511922 g / cm^3
# Si number density = 25.176521 Si / 1000 Ang^3
#
#
#
# Elastic Constant Matrix: (Units=GPa)
#
#
# Indices 1 2 3 4 5 6 
#
# 1 80.5906 -0.4939 -19.3909 0.0000 0.0000 0.0000
# 2 -0.4939 167.6651 39.8261 0.0000 0.0000 0.0000
# 3 -19.3909 39.8261 179.2732 0.0000 0.0000 0.0000
# 4 0.0000 0.0000 0.0000 16.6071 0.0000 0.0000
# 5 0.0000 0.0000 0.0000 0.0000 -104.7046 0.0000
# 6 0.0000 0.0000 0.0000 0.0000 0.0000 45.4488
#
#
#
# Elastic Compliance Matrix: (Units=1/GPa)
#
#
# Indices 1 2 3 4 5 6 
#
# 1 0.012755 -0.000306 0.001448 0.000000 0.000000 0.000000
# 2 -0.000306 0.006304 -0.001434 0.000000 0.000000 0.000000
# 3 0.001448 -0.001434 0.006053 0.000000 0.000000 0.000000
# 4 0.000000 0.000000 0.000000 0.060215 0.000000 0.000000
# 5 0.000000 0.000000 0.000000 0.000000 -0.009551 0.000000
# 6 0.000000 0.000000 0.000000 0.000000 0.000000 0.022003
#
#
# Mechanical properties :
#
#
# Convention : Reuss Voigt Hill
#
# Bulk Modulus (GPa) = 40.77062 51.93462 46.35262
# Shear Modulus (GPa) = 46.93095 18.64277 32.78686
#
# Velocity S-wave (km/s) = 4.32218 2.72413 3.61263
# Velocity P-wave (km/s) = 6.41384 5.52879 5.98769
#
# Compressibility (1/GPa) = 0.02452747
#
# Stress axis : x y z
#
# Youngs Moduli (GPa) = 78.40161 158.63233 165.20373
#
# Poissons Ratio (x) = 0.04859 -0.23916
# Poissons Ratio (y) = 0.02401 0.23683
# Poissons Ratio (z) = -0.11350 0.22741
#
# Static dielectric constant tensor:
#      x y z
#    x 2.144360 0.000000 0.000000 
#    y 0.000000 1.958490 0.000000 
#    z 0.000000 0.000000 2.024150 
# 
# From -- ./inp_files/14617.got.cif
#   From: 2010.05.17/outbox.cif.g08.bks.cpg/sg68_8_cif.got.tgz:14617.got - 2010.06.03 18:57:09.
