data_PCOD9506637
_publ_section_title
;
Structure prediction by ZEFSAII (Michael W. Deem and Ramdas Pophale) SiO2 
 PCOD9506637
Probable space group: C C C A
;
_chemical_formula_sum "Si O2"
_cell_formula_units_Z 80
_cell_length_a 12.249943
_cell_length_b 12.670874
_cell_length_c 23.750854
_cell_angle_alpha 90.000000
_cell_angle_beta 90.000000
_cell_angle_gamma 90.000000
_cell_volume 3686.547807
_symmetry_space_group_name_H-M "C C C A"
_symmetry_group_IT_number 68
_space_group.IT_coordinate_system_code '2'
_symmetry_cell_setting 'orthorhombic'
loop_
_space_group_symop_operation_xyz
x,y,z
-x,1/2-y,z
x,1/2-y,1/2-z
-x,y,1/2-z
-x,-y,-z
x,1/2+y,-z
-x,1/2+y,1/2+z
x,-y,1/2+z
1/2+x,1/2+y,z
1/2-x,-y,z
1/2+x,-y,1/2-z
1/2-x,1/2+y,1/2-z
1/2-x,1/2-y,-z
1/2+x,y,-z
1/2-x,y,1/2+z
1/2+x,1/2-y,1/2+z
loop_
_atom_site_type_symbol
_atom_site_label
_atom_site_fract_x
_atom_site_fract_y
_atom_site_fract_z
Si Si1 0.635287 0.879552 0.001981
Si Si2 0.204966 0.670372 0.197254
Si Si3 0.930444 0.954265 0.696590
Si Si4 0.656817 0.674698 0.928001
Si Si5 0.521724 0.489164 0.579061
O O1 0.736411 0.879282 0.044821
O O2 0.530254 0.898371 0.040928
O O3 0.632182 0.770442 0.969077
O O4 0.627859 0.969159 0.953315
O O5 0.197802 0.750000 0.250000
O O6 0.122926 0.570821 0.205127
O O7 0.326585 0.622363 0.190337
O O8 0.176150 0.716264 0.135557
O O9 0.000000 0.923147 0.750000
O O10 0.012313 0.955764 0.643413
O O11 0.562745 0.587684 0.924639
#
# Coordination Sequence:
#
# PCOD9506637 Si02
#       5
#    16  16  16  16  16
#     4  10  20  34  62  90 118 154 194 242 308 366
#     4  10  22  41  64  87 121 164 207 257 308 360
#     4  10  22  41  64  87 121 164 207 257 308 360
#     4  10  20  38  60  87 123 156 200 250 305 359
#     4  10  20  38  60  87 123 156 200 250 305 359
#
# _framework density 21.700520000000001
#
# number of rings (size 3 to 8) (size 9 to 14) (size 15 to 20)
#    0.000    2.000    2.000    1.200    2.800    0.800 
#    0.000   12.000    0.000    0.000    0.000    0.000 
#    0.000    0.000    0.000    0.000    0.000    0.000 
#
# Total GULP energy -223464.433691 kJ/mol
# GULP energy per Si atom -5586.610842 kJ/mol
# Density = 2.165113 g / cm^3
# Si number density = 21.700520 Si / 1000 Ang^3
#
#
#
# Elastic Constant Matrix: (Units=GPa)
#
#
# Indices 1 2 3 4 5 6 
#
# 1 54.2787 1.5029 24.1220 0.0000 0.0000 0.0000
# 2 1.5029 63.6728 37.7496 0.0000 0.0000 0.0000
# 3 24.1220 37.7496 184.7581 0.0000 0.0000 0.0000
# 4 0.0000 0.0000 0.0000 32.2118 0.0000 0.0000
# 5 0.0000 0.0000 0.0000 0.0000 21.1157 0.0000
# 6 0.0000 0.0000 0.0000 0.0000 0.0000 12.5758
#
#
#
# Elastic Compliance Matrix: (Units=1/GPa)
#
#
# Indices 1 2 3 4 5 6 
#
# 1 0.019639 0.001202 -0.002810 0.000000 0.000000 0.000000
# 2 0.001202 0.017944 -0.003823 0.000000 0.000000 0.000000
# 3 -0.002810 -0.003823 0.006560 0.000000 0.000000 0.000000
# 4 0.000000 0.000000 0.000000 0.031045 0.000000 0.000000
# 5 0.000000 0.000000 0.000000 0.000000 0.047358 0.000000
# 6 0.000000 0.000000 0.000000 0.000000 0.000000 0.079518
#
#
# Mechanical properties :
#
#
# Convention : Reuss Voigt Hill
#
# Bulk Modulus (GPa) = 30.04669 47.71764 38.88216
# Shear Modulus (GPa) = 22.31962 29.13635 25.72798
#
# Velocity S-wave (km/s) = 3.21055 3.66820 3.44698
# Velocity P-wave (km/s) = 5.25544 6.32280 5.81367
#
# Compressibility (1/GPa) = 0.03328154
#
# Stress axis : x y z
#
# Youngs Moduli (GPa) = 50.91962 55.73036 152.42838
#
# Poissons Ratio (x) = -0.06700 0.42827
# Poissons Ratio (y) = -0.06122 0.58276
# Poissons Ratio (z) = 0.14307 0.21307
#
# Static dielectric constant tensor:
#      x y z
#    x 1.831800 0.000000 0.000000 
#    y 0.000000 1.804500 0.000000 
#    z 0.000000 0.000000 1.788480 
# 
# From -- ./inp_files/44098.got.cif
#   From: 2010.05.17/outbox.cif.g08.bks.cpg/sg68_23_cif.got.tgz:44098.got - 2010.06.03 18:57:09.
