data_PCOD9506369
_publ_section_title
;
Structure prediction by ZEFSAII (Michael W. Deem and Ramdas Pophale) SiO2 
 PCOD9506369
Probable space group: C C C A
;
_chemical_formula_sum "Si O2"
_cell_formula_units_Z 112
_cell_length_a 16.299155
_cell_length_b 13.490688
_cell_length_c 22.854335
_cell_angle_alpha 90.000000
_cell_angle_beta 90.000000
_cell_angle_gamma 90.000000
_cell_volume 5025.366927
_symmetry_space_group_name_H-M "C C C A"
_symmetry_group_IT_number 68
_space_group.IT_coordinate_system_code '2'
_symmetry_cell_setting 'orthorhombic'
loop_
_space_group_symop_operation_xyz
x,y,z
-x,1/2-y,z
x,1/2-y,1/2-z
-x,y,1/2-z
-x,-y,-z
x,1/2+y,-z
-x,1/2+y,1/2+z
x,-y,1/2+z
1/2+x,1/2+y,z
1/2-x,-y,z
1/2+x,-y,1/2-z
1/2-x,1/2+y,1/2-z
1/2-x,1/2-y,-z
1/2+x,y,-z
1/2-x,y,1/2+z
1/2+x,1/2-y,1/2+z
loop_
_atom_site_type_symbol
_atom_site_label
_atom_site_fract_x
_atom_site_fract_y
_atom_site_fract_z
Si Si1 0.330266 0.636972 0.992889
Si Si2 0.231718 0.169030 0.830317
Si Si3 0.397498 0.848870 0.383889
Si Si4 0.587905 0.287072 0.411206
Si Si5 0.357300 0.905129 0.015896
Si Si6 0.429428 0.872708 0.143796
Si Si7 0.776127 0.393795 0.202262
O O1 0.363703 0.691223 0.935832
O O2 0.347475 0.520813 0.994615
O O3 0.231491 0.645486 0.995695
O O4 0.383247 0.675349 0.047984
O O5 0.307780 0.118252 0.863932
O O6 0.146064 0.160658 0.863746
O O7 0.251455 0.288476 0.827519
O O8 0.237257 0.122322 0.766081
O O9 0.419906 0.745912 0.352959
O O10 0.478121 0.910604 0.366837
O O11 0.500000 0.250000 0.389893
O O12 0.581415 0.358259 0.468196
O O13 0.382979 0.896129 0.083089
O O14 0.375147 0.904670 0.199058
O O15 0.750000 0.500000 0.176124
#
# Coordination Sequence:
#
# PCOD9506369 Si02
#       7
#    16  16  16  16  16  16  16
#     4  11  22  37  61  94 134 175 209 257 318 396
#     4  10  23  43  67  89 122 174 212 268 327 386
#     4  10  19  38  62  89 130 157 207 260 323 377
#     4  12  24  41  65  95 134 173 214 262 326 398
#     4  11  23  37  61  96 133 172 215 255 323 391
#     4  10  21  35  62  95 120 165 207 269 317 372
#     4  10  23  43  66  90 123 165 222 269 323 382
#
# _framework density 22.286929000000001
#
# number of rings (size 3 to 8) (size 9 to 14) (size 15 to 20)
#    0.000    1.429    2.857    3.000    4.000    4.000 
#    0.000    4.286    3.143    0.000    0.000    0.000 
#    0.000    0.000    0.000    0.000    0.000    0.000 
#
# Total GULP energy -312283.795569 kJ/mol
# GULP energy per Si atom -5576.496349 kJ/mol
# Density = 2.223620 g / cm^3
# Si number density = 22.286929 Si / 1000 Ang^3
#
#
#
# Elastic Constant Matrix: (Units=GPa)
#
#
# Indices 1 2 3 4 5 6 
#
# 1 122.5071 3.0068 23.2889 0.0000 0.0000 0.0000
# 2 3.0068 59.5793 -8.7512 0.0000 0.0000 0.0000
# 3 23.2889 -8.7512 52.9375 0.0000 0.0000 0.0000
# 4 0.0000 0.0000 0.0000 8.6022 0.0000 0.0000
# 5 0.0000 0.0000 0.0000 0.0000 -66.2928 0.0000
# 6 0.0000 0.0000 0.0000 0.0000 0.0000 14.3009
#
#
#
# Elastic Compliance Matrix: (Units=1/GPa)
#
#
# Indices 1 2 3 4 5 6 
#
# 1 0.008972 -0.001058 -0.004122 0.000000 0.000000 0.000000
# 2 -0.001058 0.017327 0.003330 0.000000 0.000000 0.000000
# 3 -0.004122 0.003330 0.021254 0.000000 0.000000 0.000000
# 4 0.000000 0.000000 0.000000 0.116250 0.000000 0.000000
# 5 0.000000 0.000000 0.000000 0.000000 -0.015085 0.000000
# 6 0.000000 0.000000 0.000000 0.000000 0.000000 0.069926
#
#
# Mechanical properties :
#
#
# Convention : Reuss Voigt Hill
#
# Bulk Modulus (GPa) = 22.80383 30.01254 26.40818
# Shear Modulus (GPa) = 21.10034 5.82068 13.46051
#
# Velocity S-wave (km/s) = 3.08028 1.61783 2.46023
# Velocity P-wave (km/s) = 4.78592 4.12135 4.46601
#
# Compressibility (1/GPa) = 0.04385229
#
# Stress axis : x y z
#
# Youngs Moduli (GPa) = 111.45284 57.71381 47.04962
#
# Poissons Ratio (x) = 0.06108 0.19395
# Poissons Ratio (y) = 0.11795 -0.15667
# Poissons Ratio (z) = 0.45943 -0.19218
#
# Static dielectric constant tensor:
#      x y z
#    x 1.906500 0.000000 0.000000 
#    y 0.000000 1.890180 0.000000 
#    z 0.000000 0.000000 1.827690 
# 
# From -- ./inp_files/45559.got.cif
#   From: 2010.05.17/outbox.cif.g08.bks.cpg/sg68_23_cif.got.tgz:45559.got - 2010.06.03 18:57:09.
