data_PCOD9506172
_publ_section_title
;
Structure prediction by ZEFSAII (Michael W. Deem and Ramdas Pophale) SiO2 
 PCOD9506172
Probable space group: C C C A
;
_chemical_formula_sum "Si O2"
_cell_formula_units_Z 112
_cell_length_a 15.716418
_cell_length_b 14.647369
_cell_length_c 26.691517
_cell_angle_alpha 90.000000
_cell_angle_beta 90.000000
_cell_angle_gamma 90.000000
_cell_volume 6144.498619
_symmetry_space_group_name_H-M "C C C A"
_symmetry_group_IT_number 68
_space_group.IT_coordinate_system_code '2'
_symmetry_cell_setting 'orthorhombic'
loop_
_space_group_symop_operation_xyz
x,y,z
-x,1/2-y,z
x,1/2-y,1/2-z
-x,y,1/2-z
-x,-y,-z
x,1/2+y,-z
-x,1/2+y,1/2+z
x,-y,1/2+z
1/2+x,1/2+y,z
1/2-x,-y,z
1/2+x,-y,1/2-z
1/2-x,1/2+y,1/2-z
1/2-x,1/2-y,-z
1/2+x,y,-z
1/2-x,y,1/2+z
1/2+x,1/2-y,1/2+z
loop_
_atom_site_type_symbol
_atom_site_label
_atom_site_fract_x
_atom_site_fract_y
_atom_site_fract_z
Si Si1 0.752867 0.204957 0.445938
Si Si2 0.998218 0.614565 0.810662
Si Si3 0.250000 0.500000 0.751841
Si Si4 0.362116 0.246152 0.852386
Si Si5 0.200098 0.311548 0.704310
Si Si6 0.750000 0.000000 0.918962
Si Si7 0.611164 0.463582 0.164914
Si Si8 0.095705 0.762142 0.125903
O O1 0.750000 0.250000 0.500000
O O2 0.829426 0.240068 0.409264
O O3 0.756776 0.094810 0.448422
O O4 0.665027 0.229357 0.417621
O O5 0.075551 0.674428 0.833578
O O6 0.021338 0.512832 0.827387
O O7 0.000000 0.624758 0.750000
O O8 0.914114 0.655378 0.836655
O O9 0.239563 0.407786 0.720357
O O10 0.332183 0.504554 0.787832
O O11 0.276286 0.247123 0.820194
O O12 0.168676 0.250000 0.750000
O O13 0.126858 0.317744 0.662956
O O14 0.667184 0.994495 0.882933
O O15 0.601565 0.355802 0.157965
O O16 0.000000 0.750000 0.107997
#
# Coordination Sequence:
#
# PCOD9506172 Si02
#       8
#    16  16   8  16  16   8  16  16
#     4  10  21  42  67  86 109 156 206 252 315 374
#     4  11  20  32  55  92 126 156 188 246 297 365
#     4  11  20  32  55  86 110 176 213 232 281 362
#     4  10  20  35  55  83 121 149 191 247 305 348
#     4  11  20  36  53  78 117 161 200 240 285 358
#     4   9  18  38  63  84 110 150 203 254 293 368
#     4  10  19  35  56  82 120 162 205 235 292 367
#     4  10  23  40  57  83 124 159 197 255 305 360
#
# _framework density 18.227687
#
# number of rings (size 3 to 8) (size 9 to 14) (size 15 to 20)
#    0.000    1.714    2.857    3.429    0.000    2.571 
#    2.571    4.286    0.000    3.429    0.000    0.000 
#    0.000    0.000    0.000    0.000    0.000    0.000 
#
# Total GULP energy -312304.556899 kJ/mol
# GULP energy per Si atom -5576.867087 kJ/mol
# Density = 1.818620 g / cm^3
# Si number density = 18.227687 Si / 1000 Ang^3
#
#
#
# Elastic Constant Matrix: (Units=GPa)
#
#
# Indices 1 2 3 4 5 6 
#
# 1 92.4983 24.5830 41.6016 0.0000 0.0000 0.0000
# 2 24.5830 96.2598 62.2928 0.0000 0.0000 0.0000
# 3 41.6016 62.2928 123.6075 0.0000 0.0000 0.0000
# 4 0.0000 0.0000 0.0000 27.7860 0.0000 0.0000
# 5 0.0000 0.0000 0.0000 0.0000 15.9887 0.0000
# 6 0.0000 0.0000 0.0000 0.0000 0.0000 31.1265
#
#
#
# Elastic Compliance Matrix: (Units=1/GPa)
#
#
# Indices 1 2 3 4 5 6 
#
# 1 0.012772 -0.000712 -0.003940 0.000000 0.000000 0.000000
# 2 -0.000712 0.015456 -0.007549 0.000000 0.000000 0.000000
# 3 -0.003940 -0.007549 0.013221 0.000000 0.000000 0.000000
# 4 0.000000 0.000000 0.000000 0.035989 0.000000 0.000000
# 5 0.000000 0.000000 0.000000 0.000000 0.062544 0.000000
# 6 0.000000 0.000000 0.000000 0.000000 0.000000 0.032127
#
#
# Mechanical properties :
#
#
# Convention : Reuss Voigt Hill
#
# Bulk Modulus (GPa) = 58.66466 63.25783 60.96125
# Shear Modulus (GPa) = 24.72873 27.23944 25.98408
#
# Velocity S-wave (km/s) = 3.68728 3.86994 3.77971
# Velocity P-wave (km/s) = 7.09805 7.39920 7.25019
#
# Compressibility (1/GPa) = 0.01704604
#
# Stress axis : x y z
#
# Youngs Moduli (GPa) = 78.29505 64.70025 75.63943
#
# Poissons Ratio (x) = 0.04609 0.29799
# Poissons Ratio (y) = 0.05577 0.57103
# Poissons Ratio (z) = 0.30846 0.48845
#
# Static dielectric constant tensor:
#      x y z
#    x 1.653970 0.000000 0.000000 
#    y 0.000000 1.677770 0.000000 
#    z 0.000000 0.000000 1.606610 
# 
# From -- ./inp_files/51035.got.cif
#   From: 2010.05.17/outbox.cif.g08.bks.cpg/sg68_26_cif.got.tgz:51035.got - 2010.06.03 18:57:09.
