data_PCOD9506181
_publ_section_title
;
Structure prediction by ZEFSAII (Michael W. Deem and Ramdas Pophale) SiO2 
 PCOD9506181
Probable space group: C C C A
;
_chemical_formula_sum "Si O2"
_cell_formula_units_Z 120
_cell_length_a 19.385309
_cell_length_b 20.772494
_cell_length_c 15.203718
_cell_angle_alpha 90.000000
_cell_angle_beta 90.000000
_cell_angle_gamma 90.000000
_cell_volume 6122.251635
_symmetry_space_group_name_H-M "C C C A"
_symmetry_group_IT_number 68
_space_group.IT_coordinate_system_code '2'
_symmetry_cell_setting 'orthorhombic'
loop_
_space_group_symop_operation_xyz
x,y,z
-x,1/2-y,z
x,1/2-y,1/2-z
-x,y,1/2-z
-x,-y,-z
x,1/2+y,-z
-x,1/2+y,1/2+z
x,-y,1/2+z
1/2+x,1/2+y,z
1/2-x,-y,z
1/2+x,-y,1/2-z
1/2-x,1/2+y,1/2-z
1/2-x,1/2-y,-z
1/2+x,y,-z
1/2-x,y,1/2+z
1/2+x,1/2-y,1/2+z
loop_
_atom_site_type_symbol
_atom_site_label
_atom_site_fract_x
_atom_site_fract_y
_atom_site_fract_z
Si Si1 0.175747 0.008986 0.380009
Si Si2 0.820228 0.363293 0.646667
Si Si3 0.932534 0.834563 0.030008
Si Si4 0.299447 0.103063 0.521535
Si Si5 0.575871 0.917398 0.707390
Si Si6 0.261695 0.750000 0.750000
Si Si7 0.695791 0.158408 0.614494
Si Si8 0.416147 0.811000 0.504542
O O1 0.187244 0.964390 0.468439
O O2 0.108937 0.981834 0.332213
O O3 0.250000 0.000000 0.331898
O O4 0.169589 0.085135 0.385551
O O5 0.751425 0.397341 0.606057
O O6 0.864064 0.393848 0.725923
O O7 0.802375 0.290427 0.676490
O O8 0.873935 0.358528 0.566964
O O9 0.874192 0.865252 0.967887
O O10 0.929654 0.869746 0.124078
O O11 0.922267 0.759101 0.046923
O O12 0.008527 0.839147 0.988831
O O13 0.260114 0.151159 0.452865
O O14 0.500000 0.922776 0.750000
O O15 0.221017 0.692527 0.702068
O O16 0.632466 0.199243 0.578563
#
# Coordination Sequence:
#
# PCOD9506181 Si02
#       8
#    16  16  16  16  16   8  16  16
#     4   9  19  40  64  80 117 165 204 254 303 355
#     4  11  20  34  58  93 124 152 198 245 311 372
#     4  10  19  35  57  87 118 157 191 244 308 365
#     4   9  19  36  61  84 115 158 209 248 298 371
#     4  11  21  37  62  93 129 155 192 255 325 370
#     4  12  22  34  61  93 128 164 202 262 320 380
#     4  10  21  39  60  83 118 163 209 252 307 361
#     4  10  20  34  57  82 121 157 196 244 299 375
#
# _framework density 19.600632000000001
#
# number of rings (size 3 to 8) (size 9 to 14) (size 15 to 20)
#    0.000    1.867    1.333    4.800    0.000    2.133 
#    0.000   12.667   14.667    0.800    0.000    0.000 
#    0.000    0.000    0.000    0.000    0.000    0.000 
#
# Total GULP energy -334128.148743 kJ/mol
# GULP energy per Si atom -5568.802479 kJ/mol
# Density = 1.955602 g / cm^3
# Si number density = 19.600632 Si / 1000 Ang^3
#
#
#
# Elastic Constant Matrix: (Units=GPa)
#
#
# Indices 1 2 3 4 5 6 
#
# 1 117.2442 40.0482 24.4386 0.0000 0.0000 0.0000
# 2 40.0482 78.4817 15.2606 0.0000 0.0000 0.0000
# 3 24.4386 15.2606 32.4077 0.0000 0.0000 0.0000
# 4 0.0000 0.0000 0.0000 4.9708 0.0000 0.0000
# 5 0.0000 0.0000 0.0000 0.0000 28.5504 0.0000
# 6 0.0000 0.0000 0.0000 0.0000 0.0000 27.4856
#
#
#
# Elastic Compliance Matrix: (Units=1/GPa)
#
#
# Indices 1 2 3 4 5 6 
#
# 1 0.011443 -0.004581 -0.006472 0.000000 0.000000 0.000000
# 2 -0.004581 0.015860 -0.004014 0.000000 0.000000 0.000000
# 3 -0.006472 -0.004014 0.037628 0.000000 0.000000 0.000000
# 4 0.000000 0.000000 0.000000 0.201176 0.000000 0.000000
# 5 0.000000 0.000000 0.000000 0.000000 0.035026 0.000000
# 6 0.000000 0.000000 0.000000 0.000000 0.000000 0.036383
#
#
# Mechanical properties :
#
#
# Convention : Reuss Voigt Hill
#
# Bulk Modulus (GPa) = 28.73826 43.06982 35.90404
# Shear Modulus (GPa) = 13.18402 22.09376 17.63889
#
# Velocity S-wave (km/s) = 2.59633 3.36102 3.00311
# Velocity P-wave (km/s) = 4.86638 6.08961 5.51203
#
# Compressibility (1/GPa) = 0.03479682
#
# Stress axis : x y z
#
# Youngs Moduli (GPa) = 87.39024 63.05241 26.57620
#
# Poissons Ratio (x) = 0.28882 0.17200
# Poissons Ratio (y) = 0.40031 0.10668
# Poissons Ratio (z) = 0.56560 0.25309
#
# Static dielectric constant tensor:
#      x y z
#    x 1.731580 0.000000 0.000000 
#    y 0.000000 1.735570 0.000000 
#    z 0.000000 0.000000 1.731710 
# 
# From -- ./inp_files/24797.got.cif
#   From: 2010.05.17/outbox.cif.g08.bks.cpg/sg68_13_cif.got.tgz:24797.got - 2010.06.03 18:57:09.
