data_PCOD9506925
_publ_section_title
;
Structure prediction by ZEFSAII (Michael W. Deem and Ramdas Pophale) SiO2 
 PCOD9506925
Probable space group: C C C A
;
_chemical_formula_sum "Si O2"
_cell_formula_units_Z 64
_cell_length_a 14.884151
_cell_length_b 8.379077
_cell_length_c 22.637415
_cell_angle_alpha 90.000000
_cell_angle_beta 90.000000
_cell_angle_gamma 90.000000
_cell_volume 2823.235338
_symmetry_space_group_name_H-M "C C C A"
_symmetry_group_IT_number 68
_space_group.IT_coordinate_system_code '2'
_symmetry_cell_setting 'orthorhombic'
loop_
_space_group_symop_operation_xyz
x,y,z
-x,1/2-y,z
x,1/2-y,1/2-z
-x,y,1/2-z
-x,-y,-z
x,1/2+y,-z
-x,1/2+y,1/2+z
x,-y,1/2+z
1/2+x,1/2+y,z
1/2-x,-y,z
1/2+x,-y,1/2-z
1/2-x,1/2+y,1/2-z
1/2-x,1/2-y,-z
1/2+x,y,-z
1/2-x,y,1/2+z
1/2+x,1/2-y,1/2+z
loop_
_atom_site_type_symbol
_atom_site_label
_atom_site_fract_x
_atom_site_fract_y
_atom_site_fract_z
Si Si1 0.351441 0.938209 0.755009
Si Si2 0.004047 0.060571 0.163054
Si Si3 0.687997 0.626833 0.461814
Si Si4 0.932821 0.115088 0.458313
O O1 0.348122 0.750000 0.750000
O O2 0.250000 0.000000 0.757215
O O3 0.413701 0.986295 0.810495
O O4 0.409689 0.000473 0.699350
O O5 0.016707 0.024438 0.093780
O O6 0.000000 0.250000 0.171970
O O7 0.750000 0.500000 0.428827
O O8 0.750000 0.750000 0.500000
O O9 0.633336 0.758194 0.426101
O O10 0.624183 0.509200 0.502150
O O11 0.000000 0.250000 0.487390
#
# Coordination Sequence:
#
# PCOD9506925 Si02
#       4
#    16  16  16  16
#     4  11  22  41  66  92 124 165 208 262 320 377
#     4  10  21  39  62  94 129 163 207 259 314 380
#     4   9  19  37  59  84 120 161 208 259 307 367
#     4  10  20  37  60  88 123 165 205 253 313 374
#
# _framework density 22.669025999999999
#
# number of rings (size 3 to 8) (size 9 to 14) (size 15 to 20)
#    0.000    2.000    0.000    5.250    0.000    3.000 
#    0.000   32.500    0.000    0.000    0.000    0.000 
#    0.000    0.000    0.000    0.000    0.000    0.000 
#
# Total GULP energy -178226.925937 kJ/mol
# GULP energy per Si atom -5569.591436 kJ/mol
# Density = 2.261743 g / cm^3
# Si number density = 22.669026 Si / 1000 Ang^3
#
#
#
# Elastic Constant Matrix: (Units=GPa)
#
#
# Indices 1 2 3 4 5 6 
#
# 1 173.8447 83.4141 56.8481 0.0000 0.0000 0.0000
# 2 83.4141 165.3402 43.2986 0.0000 0.0000 0.0000
# 3 56.8481 43.2986 71.9578 0.0000 0.0000 0.0000
# 4 0.0000 0.0000 0.0000 22.6094 0.0000 0.0000
# 5 0.0000 0.0000 0.0000 0.0000 -12.4770 0.0000
# 6 0.0000 0.0000 0.0000 0.0000 0.0000 84.8046
#
#
#
# Elastic Compliance Matrix: (Units=1/GPa)
#
#
# Indices 1 2 3 4 5 6 
#
# 1 0.008965 -0.003167 -0.005177 0.000000 0.000000 0.000000
# 2 -0.003167 0.008298 -0.002491 0.000000 0.000000 0.000000
# 3 -0.005177 -0.002491 0.019486 0.000000 0.000000 0.000000
# 4 0.000000 0.000000 0.000000 0.044229 0.000000 0.000000
# 5 0.000000 0.000000 0.000000 0.000000 -0.080148 0.000000
# 6 0.000000 0.000000 0.000000 0.000000 0.000000 0.011792
#
#
# Mechanical properties :
#
#
# Convention : Reuss Voigt Hill
#
# Bulk Modulus (GPa) = 66.31787 86.47383 76.39585
# Shear Modulus (GPa) = 127.16763 34.15952 80.66357
#
# Velocity S-wave (km/s) = 7.49795 3.88607 5.97163
# Velocity P-wave (km/s) = 10.21163 7.63966 9.01781
#
# Compressibility (1/GPa) = 0.01507889
#
# Stress axis : x y z
#
# Youngs Moduli (GPa) = 111.54956 120.50650 51.31982
#
# Poissons Ratio (x) = 0.38165 0.26566
# Poissons Ratio (y) = 0.35328 0.12785
# Poissons Ratio (z) = 0.57744 0.30021
#
# Static dielectric constant tensor:
#      x y z
#    x 2.281320 0.000000 0.000000 
#    y 0.000000 1.809770 0.000000 
#    z 0.000000 0.000000 1.854390 
# 
# From -- ./inp_files/55099.got.cif
#   From: 2010.05.17/outbox.cif.g08.bks.cpg/sg68_28_cif.got.tgz:55099.got - 2010.06.03 18:57:09.
