data_PCOD9506922
_publ_section_title
;
Structure prediction by ZEFSAII (Michael W. Deem and Ramdas Pophale) SiO2 
 PCOD9506922
Probable space group: C C C A
;
_chemical_formula_sum "Si O2"
_cell_formula_units_Z 96
_cell_length_a 17.790755
_cell_length_b 15.469229
_cell_length_c 17.677106
_cell_angle_alpha 90.000000
_cell_angle_beta 90.000000
_cell_angle_gamma 90.000000
_cell_volume 4864.903317
_symmetry_space_group_name_H-M "C C C A"
_symmetry_group_IT_number 68
_space_group.IT_coordinate_system_code '2'
_symmetry_cell_setting 'orthorhombic'
loop_
_space_group_symop_operation_xyz
x,y,z
-x,1/2-y,z
x,1/2-y,1/2-z
-x,y,1/2-z
-x,-y,-z
x,1/2+y,-z
-x,1/2+y,1/2+z
x,-y,1/2+z
1/2+x,1/2+y,z
1/2-x,-y,z
1/2+x,-y,1/2-z
1/2-x,1/2+y,1/2-z
1/2-x,1/2-y,-z
1/2+x,y,-z
1/2-x,y,1/2+z
1/2+x,1/2-y,1/2+z
loop_
_atom_site_type_symbol
_atom_site_label
_atom_site_fract_x
_atom_site_fract_y
_atom_site_fract_z
Si Si1 0.647517 0.677551 0.527822
Si Si2 0.422662 0.011341 0.781743
Si Si3 0.675320 0.638213 0.034962
Si Si4 0.789924 0.908776 0.801541
Si Si5 0.630650 0.335409 0.206336
Si Si6 0.920622 0.988478 0.540523
O O1 0.639171 0.774651 0.497762
O O2 0.735254 0.649765 0.523002
O O3 0.623370 0.671747 0.615767
O O4 0.604248 0.608729 0.477503
O O5 0.500000 0.049765 0.750000
O O6 0.409344 0.920881 0.737800
O O7 0.427227 0.995862 0.870549
O O8 0.350284 0.069652 0.762340
O O9 0.667917 0.627320 0.125074
O O10 0.639539 0.555241 0.994816
O O11 0.720070 0.849437 0.778258
O O12 0.750000 0.000000 0.824167
O O13 0.604919 0.250000 0.250000
O O14 0.000000 0.000000 0.500000
#
# Coordination Sequence:
#
# PCOD9506922 Si02
#       6
#    16  16  16  16  16  16
#     4  10  22  38  62  91 117 151 195 239 286 344
#     4  11  23  38  57  82 114 155 195 234 289 345
#     4  10  20  38  62  88 119 151 188 242 292 339
#     4   9  19  36  58  83 117 154 190 234 284 345
#     4  10  20  37  60  88 117 146 187 238 289 339
#     4  12  24  39  60  84 118 157 196 241 290 346
#
# _framework density 19.733177999999999
#
# number of rings (size 3 to 8) (size 9 to 14) (size 15 to 20)
#    0.000    1.667    0.000    6.500    0.000    9.000 
#    0.000    3.333    0.000    3.500    0.000    0.000 
#    0.000    0.000    0.000    0.000    0.000    0.000 
#
# Total GULP energy -268242.700378 kJ/mol
# GULP energy per Si atom -5588.389591 kJ/mol
# Density = 1.968826 g / cm^3
# Si number density = 19.733178 Si / 1000 Ang^3
#
#
#
# Elastic Constant Matrix: (Units=GPa)
#
#
# Indices 1 2 3 4 5 6 
#
# 1 26.4998 -4.8385 40.8888 0.0000 0.0000 0.0000
# 2 -4.8385 49.1871 20.5755 0.0000 0.0000 0.0000
# 3 40.8888 20.5755 104.5560 0.0000 0.0000 0.0000
# 4 0.0000 0.0000 0.0000 32.2355 0.0000 0.0000
# 5 0.0000 0.0000 0.0000 0.0000 22.2088 0.0000
# 6 0.0000 0.0000 0.0000 0.0000 0.0000 3.7833
#
#
#
# Elastic Compliance Matrix: (Units=1/GPa)
#
#
# Indices 1 2 3 4 5 6 
#
# 1 0.146385 0.041787 -0.065470 0.000000 0.000000 0.000000
# 2 0.041787 0.034082 -0.023049 0.000000 0.000000 0.000000
# 3 -0.065470 -0.023049 0.039703 0.000000 0.000000 0.000000
# 4 0.000000 0.000000 0.000000 0.031022 0.000000 0.000000
# 5 0.000000 0.000000 0.000000 0.000000 0.045027 0.000000
# 6 0.000000 0.000000 0.000000 0.000000 0.000000 0.264323
#
#
# Mechanical properties :
#
#
# Convention : Reuss Voigt Hill
#
# Bulk Modulus (GPa) = 7.89223 32.61050 20.25137
# Shear Modulus (GPa) = 7.18140 19.88665 13.53403
#
# Velocity S-wave (km/s) = 1.90975 3.17800 2.62172
# Velocity P-wave (km/s) = 2.97843 5.47976 4.41015
#
# Compressibility (1/GPa) = 0.12670688
#
# Stress axis : x y z
#
# Youngs Moduli (GPa) = 6.83129 29.34061 25.18677
#
# Poissons Ratio (x) = -1.22604 1.64898
# Poissons Ratio (y) = -0.28546 0.58052
# Poissons Ratio (z) = 0.44725 0.67626
#
# Static dielectric constant tensor:
#      x y z
#    x 1.705630 0.000000 0.000000 
#    y 0.000000 1.688550 0.000000 
#    z 0.000000 0.000000 1.654510 
# 
# From -- ./inp_files/24446.got.cif
#   From: 2010.05.17/outbox.cif.g08.bks.cpg/sg68_13_cif.got.tgz:24446.got - 2010.06.03 18:57:09.
