data_PCOD9506058
_publ_section_title
;
Structure prediction by ZEFSAII (Michael W. Deem and Ramdas Pophale) SiO2 
 PCOD9506058
Probable space group: C C C A
;
_chemical_formula_sum "Si O2"
_cell_formula_units_Z 96
_cell_length_a 10.307624
_cell_length_b 16.750501
_cell_length_c 24.517900
_cell_angle_alpha 90.000000
_cell_angle_beta 90.000000
_cell_angle_gamma 90.000000
_cell_volume 4233.208296
_symmetry_space_group_name_H-M "C C C A"
_symmetry_group_IT_number 68
_space_group.IT_coordinate_system_code '2'
_symmetry_cell_setting 'orthorhombic'
loop_
_space_group_symop_operation_xyz
x,y,z
-x,1/2-y,z
x,1/2-y,1/2-z
-x,y,1/2-z
-x,-y,-z
x,1/2+y,-z
-x,1/2+y,1/2+z
x,-y,1/2+z
1/2+x,1/2+y,z
1/2-x,-y,z
1/2+x,-y,1/2-z
1/2-x,1/2+y,1/2-z
1/2-x,1/2-y,-z
1/2+x,y,-z
1/2-x,y,1/2+z
1/2+x,1/2-y,1/2+z
loop_
_atom_site_type_symbol
_atom_site_label
_atom_site_fract_x
_atom_site_fract_y
_atom_site_fract_z
Si Si1 0.798653 0.150168 0.704625
Si Si2 0.248016 0.097547 0.557830
Si Si3 0.764043 0.330280 0.675690
Si Si4 0.989376 0.095119 0.508679
Si Si5 0.392992 0.037092 0.381746
Si Si6 0.991972 0.905612 0.688442
O O1 0.814871 0.240732 0.684660
O O2 0.815906 0.131210 0.768387
O O3 0.884978 0.090929 0.671095
O O4 0.649496 0.132889 0.688789
O O5 0.209931 0.130924 0.617200
O O6 0.387473 0.126635 0.535343
O O7 0.136350 0.124266 0.514822
O O8 0.250000 0.000000 0.559229
O O9 0.608041 0.342477 0.682275
O O10 0.928538 0.094363 0.568785
O O11 0.000000 0.000000 0.500000
O O12 0.250000 0.000000 0.392934
O O13 0.490511 0.966838 0.362681
O O14 0.000000 0.941477 0.750000
#
# Coordination Sequence:
#
# PCOD9506058 Si02
#       6
#    16  16  16  16  16  16
#     4   9  20  34  54  86 123 156 192 245 310 366
#     4  10  21  36  60  88 117 156 205 255 301 361
#     4  10  19  36  57  82 118 161 199 240 302 372
#     4  10  20  36  57  85 116 152 201 253 303 354
#     4  10  19  33  55  83 115 150 193 250 304 352
#     4   9  17  30  54  85 115 151 202 252 295 356
#
# _framework density 22.677835999999999
#
# number of rings (size 3 to 8) (size 9 to 14) (size 15 to 20)
#    0.000    2.333    0.000    4.000    0.000    8.000 
#    0.000    1.667    0.000    6.000    0.000    0.000 
#    0.000    2.667    0.000    0.000    0.000    0.000 
#
# Total GULP energy -267685.239523 kJ/mol
# GULP energy per Si atom -5576.775823 kJ/mol
# Density = 2.262622 g / cm^3
# Si number density = 22.677836 Si / 1000 Ang^3
#
#
#
# Elastic Constant Matrix: (Units=GPa)
#
#
# Indices 1 2 3 4 5 6 
#
# 1 69.3107 16.7435 39.5601 0.0000 0.0000 0.0000
# 2 16.7435 17.6339 13.7268 0.0000 0.0000 0.0000
# 3 39.5601 13.7268 105.8954 0.0000 0.0000 0.0000
# 4 0.0000 0.0000 0.0000 21.5393 0.0000 0.0000
# 5 0.0000 0.0000 0.0000 0.0000 33.6594 0.0000
# 6 0.0000 0.0000 0.0000 0.0000 0.0000 4.1148
#
#
#
# Elastic Compliance Matrix: (Units=1/GPa)
#
#
# Indices 1 2 3 4 5 6 
#
# 1 0.021729 -0.015919 -0.006054 0.000000 0.000000 0.000000
# 2 -0.015919 0.074736 -0.003741 0.000000 0.000000 0.000000
# 3 -0.006054 -0.003741 0.012190 0.000000 0.000000 0.000000
# 4 0.000000 0.000000 0.000000 0.046427 0.000000 0.000000
# 5 0.000000 0.000000 0.000000 0.000000 0.029709 0.000000
# 6 0.000000 0.000000 0.000000 0.000000 0.000000 0.243026
#
#
# Mechanical properties :
#
#
# Convention : Reuss Voigt Hill
#
# Bulk Modulus (GPa) = 17.47417 36.98897 27.23157
# Shear Modulus (GPa) = 10.03374 20.05002 15.04188
#
# Velocity S-wave (km/s) = 2.10572 2.97665 2.57823
# Velocity P-wave (km/s) = 3.69245 5.30659 4.57133
#
# Compressibility (1/GPa) = 0.05722732
#
# Stress axis : x y z
#
# Youngs Moduli (GPa) = 46.02221 13.38043 82.03619
#
# Poissons Ratio (x) = 0.21300 0.49663
# Poissons Ratio (y) = 0.73263 0.30688
# Poissons Ratio (z) = 0.27861 0.05005
#
# Static dielectric constant tensor:
#      x y z
#    x 1.888350 0.000000 0.000000 
#    y 0.000000 1.821690 0.000000 
#    z 0.000000 0.000000 1.702400 
# 
# From -- ./inp_files/44398.got.cif
#   From: 2010.05.17/outbox.cif.g08.bks.cpg/sg68_23_cif.got.tgz:44398.got - 2010.06.03 18:57:09.
