data_PCOD9506294
_publ_section_title
;
Structure prediction by ZEFSAII (Michael W. Deem and Ramdas Pophale) SiO2 
 PCOD9506294
Probable space group: C C C A
;
_chemical_formula_sum "Si O2"
_cell_formula_units_Z 84
_cell_length_a 17.158125
_cell_length_b 18.354636
_cell_length_c 12.528395
_cell_angle_alpha 90.000000
_cell_angle_beta 90.000000
_cell_angle_gamma 90.000000
_cell_volume 3945.581705
_symmetry_space_group_name_H-M "C C C A"
_symmetry_group_IT_number 68
_space_group.IT_coordinate_system_code '2'
_symmetry_cell_setting 'orthorhombic'
loop_
_space_group_symop_operation_xyz
x,y,z
-x,1/2-y,z
x,1/2-y,1/2-z
-x,y,1/2-z
-x,-y,-z
x,1/2+y,-z
-x,1/2+y,1/2+z
x,-y,1/2+z
1/2+x,1/2+y,z
1/2-x,-y,z
1/2+x,-y,1/2-z
1/2-x,1/2+y,1/2-z
1/2-x,1/2-y,-z
1/2+x,y,-z
1/2-x,y,1/2+z
1/2+x,1/2-y,1/2+z
loop_
_atom_site_type_symbol
_atom_site_label
_atom_site_fract_x
_atom_site_fract_y
_atom_site_fract_z
Si Si1 0.500000 0.750000 0.750000
Si Si2 0.714697 0.419306 0.874470
Si Si3 0.369994 0.589101 0.903632
Si Si4 0.968417 0.581548 0.479218
Si Si5 0.865462 0.647121 0.318176
Si Si6 0.585922 0.434149 0.698925
O O1 0.563085 0.795878 0.680674
O O2 0.750000 0.500000 0.850039
O O3 0.780760 0.356557 0.870716
O O4 0.646683 0.406325 0.787164
O O5 0.683208 0.421463 0.994648
O O6 0.451856 0.620158 0.946644
O O7 0.344449 0.638830 0.806110
O O8 0.383810 0.511974 0.844466
O O9 0.927134 0.608925 0.586940
O O10 0.000000 0.500000 0.500000
O O11 0.909432 0.581035 0.380352
O O12 0.500000 0.441240 0.750000
#
# Coordination Sequence:
#
# PCOD9506294 Si02
#       6
#     4  16  16  16  16  16
#     4  12  28  52  72  92 136 204 252 270 312 438
#     4  12  25  36  60 105 145 173 219 297 369 409
#     4  11  21  37  59  92 134 176 221 279 340 420
#     4  10  19  36  64  92 128 172 225 282 349 410
#     4  12  25  43  68  96 132 185 239 283 335 411
#     4  11  21  35  59 100 144 182 209 270 369 434
#
# _framework density 21.289636000000002
#
# number of rings (size 3 to 8) (size 9 to 14) (size 15 to 20)
#    0.000    0.762    5.714    4.571    5.333    0.000 
#    0.000    0.952    0.000    0.000    0.000    0.000 
#    0.000    0.000    0.000    0.000    0.000    0.000 
#
# Total GULP energy -233909.835118 kJ/mol
# GULP energy per Si atom -5569.281789 kJ/mol
# Density = 2.124118 g / cm^3
# Si number density = 21.289636 Si / 1000 Ang^3
#
#
#
# Elastic Constant Matrix: (Units=GPa)
#
#
# Indices 1 2 3 4 5 6 
#
# 1 149.5415 26.8441 64.6612 0.0000 0.0000 0.0000
# 2 26.8441 21.3143 9.1807 0.0000 0.0000 0.0000
# 3 64.6612 9.1807 150.5287 0.0000 0.0000 0.0000
# 4 0.0000 0.0000 0.0000 8.2154 0.0000 0.0000
# 5 0.0000 0.0000 0.0000 0.0000 54.2591 0.0000
# 6 0.0000 0.0000 0.0000 0.0000 0.0000 18.2168
#
#
#
# Elastic Compliance Matrix: (Units=1/GPa)
#
#
# Indices 1 2 3 4 5 6 
#
# 1 0.010363 -0.011435 -0.003754 0.000000 0.000000 0.000000
# 2 -0.011435 0.060799 0.001204 0.000000 0.000000 0.000000
# 3 -0.003754 0.001204 0.008182 0.000000 0.000000 0.000000
# 4 0.000000 0.000000 0.000000 0.121723 0.000000 0.000000
# 5 0.000000 0.000000 0.000000 0.000000 0.018430 0.000000
# 6 0.000000 0.000000 0.000000 0.000000 0.000000 0.054895
#
#
# Mechanical properties :
#
#
# Convention : Reuss Voigt Hill
#
# Bulk Modulus (GPa) = 19.46473 58.08404 38.77438
# Shear Modulus (GPa) = 15.65007 30.85149 23.25078
#
# Velocity S-wave (km/s) = 2.71422 3.81088 3.30831
# Velocity P-wave (km/s) = 4.35721 6.83416 5.73110
#
# Compressibility (1/GPa) = 0.05137497
#
# Stress axis : x y z
#
# Youngs Moduli (GPa) = 96.49723 16.44750 122.21249
#
# Poissons Ratio (x) = 0.18807 0.45880
# Poissons Ratio (y) = 1.10340 -0.14711
# Poissons Ratio (z) = 0.36226 -0.01980
#
# Static dielectric constant tensor:
#      x y z
#    x 1.889220 0.000000 0.000000 
#    y 0.000000 1.938360 0.000000 
#    z 0.000000 0.000000 1.857440 
# 
# From -- ./inp_files/15526.got.cif
#   From: 2010.05.17/outbox.cif.g08.bks.cpg/sg68_8_cif.got.tgz:15526.got - 2010.06.03 18:57:09.
