data_PCOD9506568
_publ_section_title
;
Structure prediction by ZEFSAII (Michael W. Deem and Ramdas Pophale) SiO2 
 PCOD9506568
Probable space group: C C C A
;
_chemical_formula_sum "Si O2"
_cell_formula_units_Z 112
_cell_length_a 33.653462
_cell_length_b 14.810396
_cell_length_c 13.699818
_cell_angle_alpha 90.000000
_cell_angle_beta 90.000000
_cell_angle_gamma 90.000000
_cell_volume 6828.278344
_symmetry_space_group_name_H-M "C C C A"
_symmetry_group_IT_number 68
_space_group.IT_coordinate_system_code '2'
_symmetry_cell_setting 'orthorhombic'
loop_
_space_group_symop_operation_xyz
x,y,z
-x,1/2-y,z
x,1/2-y,1/2-z
-x,y,1/2-z
-x,-y,-z
x,1/2+y,-z
-x,1/2+y,1/2+z
x,-y,1/2+z
1/2+x,1/2+y,z
1/2-x,-y,z
1/2+x,-y,1/2-z
1/2-x,1/2+y,1/2-z
1/2-x,1/2-y,-z
1/2+x,y,-z
1/2-x,y,1/2+z
1/2+x,1/2-y,1/2+z
loop_
_atom_site_type_symbol
_atom_site_label
_atom_site_fract_x
_atom_site_fract_y
_atom_site_fract_z
Si Si1 0.304382 0.179959 0.338139
Si Si2 0.401362 0.577477 0.061164
Si Si3 0.392911 0.565646 0.391691
Si Si4 0.214973 0.680721 0.660934
Si Si5 0.353774 0.245950 0.519363
Si Si6 0.163758 0.986202 0.780176
Si Si7 0.046927 0.143203 0.264214
O O1 0.303070 0.250000 0.250000
O O2 0.259522 0.170885 0.379604
O O3 0.334994 0.215869 0.417867
O O4 0.318932 0.084350 0.298144
O O5 0.383471 0.669207 0.015279
O O6 0.368939 0.537632 0.137185
O O7 0.438016 0.607186 0.130520
O O8 0.406270 0.502960 0.976742
O O9 0.375691 0.659335 0.434507
O O10 0.357878 0.524062 0.324065
O O11 0.428665 0.590132 0.318593
O O12 0.216317 0.750000 0.750000
O O13 0.182950 0.720046 0.585679
O O14 0.198208 0.587262 0.703688
O O15 0.056612 0.250000 0.250000
O O16 0.000000 0.132186 0.250000
#
# Coordination Sequence:
#
# PCOD9506568 Si02
#       7
#    16  16  16  16  16  16  16
#     4  11  22  35  50  76 112 146 181 236 288 328
#     4  10  21  35  59  86 108 148 181 225 279 329
#     4  11  20  36  61  84 111 148 185 229 277 334
#     4  10  20  34  54  73 106 145 189 239 284 315
#     4  11  20  36  55  80 107 145 192 232 271 337
#     4  10  20  34  54  78 105 142 195 227 270 334
#     4  10  21  38  62  91 116 142 183 228 277 341
#
# _framework density 16.402377999999999
#
# number of rings (size 3 to 8) (size 9 to 14) (size 15 to 20)
#    0.000    1.571    4.286    1.714    0.000    0.571 
#    0.000    0.000    0.000    0.000    0.000    1.000 
#    0.000    0.000    0.000    0.000    0.000    0.000 
#
# Total GULP energy -312412.062423 kJ/mol
# GULP energy per Si atom -5578.786829 kJ/mol
# Density = 1.636505 g / cm^3
# Si number density = 16.402378 Si / 1000 Ang^3
#
#
#
# Elastic Constant Matrix: (Units=GPa)
#
#
# Indices 1 2 3 4 5 6 
#
# 1 89.0365 53.8281 41.1353 0.0000 0.0000 0.0000
# 2 53.8281 140.4697 54.2975 0.0000 0.0000 0.0000
# 3 41.1353 54.2975 83.9063 0.0000 0.0000 0.0000
# 4 0.0000 0.0000 0.0000 33.5798 0.0000 0.0000
# 5 0.0000 0.0000 0.0000 0.0000 18.3489 0.0000
# 6 0.0000 0.0000 0.0000 0.0000 0.0000 24.4088
#
#
#
# Elastic Compliance Matrix: (Units=1/GPa)
#
#
# Indices 1 2 3 4 5 6 
#
# 1 0.016170 -0.004177 -0.005225 0.000000 0.000000 0.000000
# 2 -0.004177 0.010573 -0.004794 0.000000 0.000000 0.000000
# 3 -0.005225 -0.004794 0.017582 0.000000 0.000000 0.000000
# 4 0.000000 0.000000 0.000000 0.029780 0.000000 0.000000
# 5 0.000000 0.000000 0.000000 0.000000 0.054499 0.000000
# 6 0.000000 0.000000 0.000000 0.000000 0.000000 0.040969
#
#
# Mechanical properties :
#
#
# Convention : Reuss Voigt Hill
#
# Bulk Modulus (GPa) = 62.76028 67.99271 65.37649
# Shear Modulus (GPa) = 24.59725 26.21096 25.40410
#
# Velocity S-wave (km/s) = 3.87669 4.00183 3.93976
# Velocity P-wave (km/s) = 7.64096 7.93069 7.78717
#
# Compressibility (1/GPa) = 0.01593365
#
# Stress axis : x y z
#
# Youngs Moduli (GPa) = 61.84146 94.58330 56.87729
#
# Poissons Ratio (x) = 0.39507 0.29716
# Poissons Ratio (y) = 0.25831 0.27267
# Poissons Ratio (z) = 0.32309 0.45343
#
# Static dielectric constant tensor:
#      x y z
#    x 1.538630 0.000000 0.000000 
#    y 0.000000 1.574810 0.000000 
#    z 0.000000 0.000000 1.533110 
# 
# From -- ./inp_files/13595.got.cif
#   From: 2010.05.17/outbox.cif.g08.bks.cpg/sg68_7_cif.got.tgz:13595.got - 2010.06.03 18:57:09.
