data_PCOD9506091
_publ_section_title
;
Structure prediction by ZEFSAII (Michael W. Deem and Ramdas Pophale) SiO2 
 PCOD9506091
Probable space group: C C C A
;
_chemical_formula_sum "Si O2"
_cell_formula_units_Z 72
_cell_length_a 22.456573
_cell_length_b 9.018013
_cell_length_c 17.109548
_cell_angle_alpha 90.000000
_cell_angle_beta 90.000000
_cell_angle_gamma 90.000000
_cell_volume 3464.917310
_symmetry_space_group_name_H-M "C C C A"
_symmetry_group_IT_number 68
_space_group.IT_coordinate_system_code '2'
_symmetry_cell_setting 'orthorhombic'
loop_
_space_group_symop_operation_xyz
x,y,z
-x,1/2-y,z
x,1/2-y,1/2-z
-x,y,1/2-z
-x,-y,-z
x,1/2+y,-z
-x,1/2+y,1/2+z
x,-y,1/2+z
1/2+x,1/2+y,z
1/2-x,-y,z
1/2+x,-y,1/2-z
1/2-x,1/2+y,1/2-z
1/2-x,1/2-y,-z
1/2+x,y,-z
1/2-x,y,1/2+z
1/2+x,1/2-y,1/2+z
loop_
_atom_site_type_symbol
_atom_site_label
_atom_site_fract_x
_atom_site_fract_y
_atom_site_fract_z
Si Si1 0.105615 0.103713 0.466853
Si Si2 0.771335 0.659368 0.898887
Si Si3 0.750000 0.000000 0.754654
Si Si4 0.329719 0.882787 0.615022
Si Si5 0.061821 0.193622 0.905024
O O1 0.070375 0.980303 0.418948
O O2 0.159657 0.173711 0.418280
O O3 0.120331 0.239908 0.637253
O O4 0.066447 0.227064 0.509631
O O5 0.750000 0.500000 0.932603
O O6 0.761693 0.632183 0.806356
O O7 0.726830 0.791941 0.919356
O O8 0.694517 0.972255 0.811889
O O9 0.361075 0.968122 0.543426
O O10 0.000000 0.250000 0.869646
#
# Coordination Sequence:
#
# PCOD9506091 Si02
#       5
#    16  16   8  16  16
#     4  10  21  34  59  82 112 145 193 239 291 332
#     4  10  19  34  53  79 114 141 181 235 292 342
#     4  10  22  32  54  78 118 148 184 224 302 344
#     4  10  22  33  56  82 118 143 192 231 296 348
#     4  10  21  36  57  85 113 148 195 240 285 333
#
# _framework density 20.779714999999999
#
# number of rings (size 3 to 8) (size 9 to 14) (size 15 to 20)
#    2.000    0.000    2.222    2.000    4.667    0.000 
#    0.000    0.000    0.000   10.667    0.000    1.556 
#    0.000    0.000    0.000    0.000    0.000    0.000 
#
# Total GULP energy -200409.197528 kJ/mol
# GULP energy per Si atom -5566.922154 kJ/mol
# Density = 2.073242 g / cm^3
# Si number density = 20.779715 Si / 1000 Ang^3
#
#
#
# Elastic Constant Matrix: (Units=GPa)
#
#
# Indices 1 2 3 4 5 6 
#
# 1 96.9714 13.3760 6.6617 0.0000 0.0000 0.0000
# 2 13.3760 49.0393 -9.0866 0.0000 0.0000 0.0000
# 3 6.6617 -9.0866 46.3550 0.0000 0.0000 0.0000
# 4 0.0000 0.0000 0.0000 14.1360 0.0000 0.0000
# 5 0.0000 0.0000 0.0000 0.0000 7.9838 0.0000
# 6 0.0000 0.0000 0.0000 0.0000 0.0000 26.3484
#
#
#
# Elastic Compliance Matrix: (Units=1/GPa)
#
#
# Indices 1 2 3 4 5 6 
#
# 1 0.010935 -0.003397 -0.002237 0.000000 0.000000 0.000000
# 2 -0.003397 0.022216 0.004843 0.000000 0.000000 0.000000
# 3 -0.002237 0.004843 0.022843 0.000000 0.000000 0.000000
# 4 0.000000 0.000000 0.000000 0.070742 0.000000 0.000000
# 5 0.000000 0.000000 0.000000 0.000000 0.125253 0.000000
# 6 0.000000 0.000000 0.000000 0.000000 0.000000 0.037953
#
#
# Mechanical properties :
#
#
# Convention : Reuss Voigt Hill
#
# Bulk Modulus (GPa) = 18.37864 23.80755 21.09309
# Shear Modulus (GPa) = 16.14666 21.78794 18.96730
#
# Velocity S-wave (km/s) = 2.79057 3.24160 3.02450
# Velocity P-wave (km/s) = 4.38711 5.04902 4.72966
#
# Compressibility (1/GPa) = 0.05441099
#
# Stress axis : x y z
#
# Youngs Moduli (GPa) = 91.45276 45.01311 43.77614
#
# Poissons Ratio (x) = 0.15291 0.09794
# Poissons Ratio (y) = 0.31067 -0.21201
# Poissons Ratio (z) = 0.20461 -0.21800
#
# Static dielectric constant tensor:
#      x y z
#    x 1.752080 0.000000 0.000000 
#    y 0.000000 1.768630 0.000000 
#    z 0.000000 0.000000 1.767370 
# 
# From -- ./inp_files/31647.got.cif
#   From: 2010.05.17/outbox.cif.g08.bks.cpg/sg68_16_cif.got.tgz:31647.got - 2010.06.03 18:57:09.
