data_PCOD9506939
_publ_section_title
;
Structure prediction by ZEFSAII (Michael W. Deem and Ramdas Pophale) SiO2 
 PCOD9506939
Probable space group: C C C A
;
_chemical_formula_sum "Si O2"
_cell_formula_units_Z 96
_cell_length_a 16.179637
_cell_length_b 18.703881
_cell_length_c 15.228414
_cell_angle_alpha 90.000000
_cell_angle_beta 90.000000
_cell_angle_gamma 90.000000
_cell_volume 4608.453179
_symmetry_space_group_name_H-M "C C C A"
_symmetry_group_IT_number 68
_space_group.IT_coordinate_system_code '2'
_symmetry_cell_setting 'orthorhombic'
loop_
_space_group_symop_operation_xyz
x,y,z
-x,1/2-y,z
x,1/2-y,1/2-z
-x,y,1/2-z
-x,-y,-z
x,1/2+y,-z
-x,1/2+y,1/2+z
x,-y,1/2+z
1/2+x,1/2+y,z
1/2-x,-y,z
1/2+x,-y,1/2-z
1/2-x,1/2+y,1/2-z
1/2-x,1/2-y,-z
1/2+x,y,-z
1/2-x,y,1/2+z
1/2+x,1/2-y,1/2+z
loop_
_atom_site_type_symbol
_atom_site_label
_atom_site_fract_x
_atom_site_fract_y
_atom_site_fract_z
Si Si1 0.560392 0.098463 0.328203
Si Si2 0.494824 0.960946 0.405772
Si Si3 0.029472 0.829074 0.490797
Si Si4 0.250297 0.084802 0.661704
Si Si5 0.280988 0.169898 0.483848
Si Si6 0.810036 0.568902 0.847408
O O1 0.500000 0.121462 0.250000
O O2 0.531102 0.139354 0.415928
O O3 0.657056 0.108003 0.312405
O O4 0.545637 0.013584 0.343561
O O5 0.526102 0.881625 0.425594
O O6 0.400829 0.955857 0.374676
O O7 0.500000 0.000000 0.500000
O O8 0.123132 0.829468 0.455600
O O9 0.000000 0.750000 0.513057
O O10 0.275252 0.127109 0.575277
O O11 0.306031 0.095844 0.747434
O O12 0.250000 0.000000 0.641057
O O13 0.250000 0.250000 0.500000
O O14 0.224767 0.128353 0.413649
O O15 0.750000 0.500000 0.852220
#
# Coordination Sequence:
#
# PCOD9506939 Si02
#       6
#    16  16  16  16  16  16
#     4  11  21  38  62  91 120 154 200 255 310 367
#     4  10  20  37  61  88 120 161 202 250 307 373
#     4  11  23  40  59  86 119 161 205 250 308 373
#     4  11  23  40  64  95 124 161 210 264 317 379
#     4  12  24  41  63  89 125 168 209 260 320 387
#     4  11  22  40  64  94 127 164 208 262 318 378
#
# _framework density 20.831284
#
# number of rings (size 3 to 8) (size 9 to 14) (size 15 to 20)
#    0.000    1.000    0.000   10.500    0.000    1.000 
#    0.000    3.333    0.000    3.500    0.000    0.000 
#    0.000    0.000    0.000    0.000    0.000    0.000 
#
# Total GULP energy -268575.622562 kJ/mol
# GULP energy per Si atom -5595.325470 kJ/mol
# Density = 2.078387 g / cm^3
# Si number density = 20.831284 Si / 1000 Ang^3
#
#
#
# Elastic Constant Matrix: (Units=GPa)
#
#
# Indices 1 2 3 4 5 6 
#
# 1 102.5101 -3.8987 7.9009 0.0000 0.0000 0.0000
# 2 -3.8987 111.4214 40.2371 0.0000 0.0000 0.0000
# 3 7.9009 40.2371 106.3118 0.0000 0.0000 0.0000
# 4 0.0000 0.0000 0.0000 2.7676 0.0000 0.0000
# 5 0.0000 0.0000 0.0000 0.0000 32.0507 0.0000
# 6 0.0000 0.0000 0.0000 0.0000 0.0000 33.1241
#
#
#
# Elastic Compliance Matrix: (Units=1/GPa)
#
#
# Indices 1 2 3 4 5 6 
#
# 1 0.009859 0.000706 -0.001000 0.000000 0.000000 0.000000
# 2 0.000706 0.010446 -0.004006 0.000000 0.000000 0.000000
# 3 -0.001000 -0.004006 0.010997 0.000000 0.000000 0.000000
# 4 0.000000 0.000000 0.000000 0.361324 0.000000 0.000000
# 5 0.000000 0.000000 0.000000 0.000000 0.031201 0.000000
# 6 0.000000 0.000000 0.000000 0.000000 0.000000 0.030189
#
#
# Mechanical properties :
#
#
# Convention : Reuss Voigt Hill
#
# Bulk Modulus (GPa) = 44.04872 45.41354 44.73113
# Shear Modulus (GPa) = 10.63413 31.98875 21.31144
#
# Velocity S-wave (km/s) = 2.26185 3.92294 3.20198
# Velocity P-wave (km/s) = 5.29270 6.50901 5.93211
#
# Compressibility (1/GPa) = 0.02270213
#
# Stress axis : x y z
#
# Youngs Moduli (GPa) = 101.42952 95.72674 90.93475
#
# Poissons Ratio (x) = -0.06759 0.09093
# Poissons Ratio (y) = -0.07162 0.36431
# Poissons Ratio (z) = 0.10142 0.38351
#
# Static dielectric constant tensor:
#      x y z
#    x 1.727390 0.000000 0.000000 
#    y 0.000000 1.731780 0.000000 
#    z 0.000000 0.000000 1.735890 
# 
# From -- ./inp_files/22335.got.cif
#   From: 2010.05.17/outbox.cif.g08.bks.cpg/sg68_12_cif.got.tgz:22335.got - 2010.06.03 18:57:09.
