data_PCOD9506255
_publ_section_title
;
Structure prediction by ZEFSAII (Michael W. Deem and Ramdas Pophale) SiO2 
 PCOD9506255
Probable space group: C C C A
;
_chemical_formula_sum "Si O2"
_cell_formula_units_Z 100
_cell_length_a 28.844420
_cell_length_b 12.046819
_cell_length_c 14.405918
_cell_angle_alpha 90.000000
_cell_angle_beta 90.000000
_cell_angle_gamma 90.000000
_cell_volume 5005.818907
_symmetry_space_group_name_H-M "C C C A"
_symmetry_group_IT_number 68
_space_group.IT_coordinate_system_code '2'
_symmetry_cell_setting 'orthorhombic'
loop_
_space_group_symop_operation_xyz
x,y,z
-x,1/2-y,z
x,1/2-y,1/2-z
-x,y,1/2-z
-x,-y,-z
x,1/2+y,-z
-x,1/2+y,1/2+z
x,-y,1/2+z
1/2+x,1/2+y,z
1/2-x,-y,z
1/2+x,-y,1/2-z
1/2-x,1/2+y,1/2-z
1/2-x,1/2-y,-z
1/2+x,y,-z
1/2-x,y,1/2+z
1/2+x,1/2-y,1/2+z
loop_
_atom_site_type_symbol
_atom_site_label
_atom_site_fract_x
_atom_site_fract_y
_atom_site_fract_z
Si Si1 0.300349 0.950708 0.500993
Si Si2 0.828686 0.786394 0.358052
Si Si3 0.280071 0.752284 0.137565
Si Si4 0.882807 0.411153 0.933686
Si Si5 0.124983 0.156234 0.124477
Si Si6 0.000000 0.750000 0.750000
Si Si7 0.583932 0.386353 0.822340
O O1 0.330108 0.906165 0.590205
O O2 0.292202 0.852758 0.425817
O O3 0.250000 0.000000 0.525858
O O4 0.332015 0.034114 0.442418
O O5 0.830938 0.750000 0.250000
O O6 0.774268 0.766737 0.381881
O O7 0.869772 0.711622 0.399726
O O8 0.284701 0.750000 0.250000
O O9 0.319293 0.843146 0.112086
O O10 0.912459 0.495798 0.872500
O O11 0.900455 0.399071 0.038296
O O12 0.111959 0.287214 0.127279
O O13 0.108231 0.106472 0.221440
O O14 0.966407 0.668543 0.807681
#
# Coordination Sequence:
#
# PCOD9506255 Si02
#       7
#    16  16  16  16  16   4  16
#     4  12  22  37  54  78 116 168 211 249 297 339
#     4  11  25  37  49  80 122 157 205 266 287 336
#     4  11  18  36  52  73 114 158 206 247 284 325
#     4  12  21  35  60  85 115 155 206 245 305 355
#     4  10  19  36  59  81 118 155 199 250 283 358
#     4   8  20  44  68  92 126 138 184 256 304 388
#     4  10  21  40  64  91 114 153 192 244 312 376
#
# _framework density 19.976751
#
# number of rings (size 3 to 8) (size 9 to 14) (size 15 to 20)
#    0.000    1.280    6.400    1.440    2.240    0.000 
#    5.760    3.200    0.000    0.000    0.000    0.000 
#    0.000    0.000    0.000    0.000    0.000    0.000 
#
# Total GULP energy -278349.283402 kJ/mol
# GULP energy per Si atom -5566.985668 kJ/mol
# Density = 1.993128 g / cm^3
# Si number density = 19.976751 Si / 1000 Ang^3
#
#
#
# Elastic Constant Matrix: (Units=GPa)
#
#
# Indices 1 2 3 4 5 6 
#
# 1 77.5828 20.2087 16.9079 0.0000 0.0000 0.0000
# 2 20.2087 81.2427 47.5119 0.0000 0.0000 0.0000
# 3 16.9079 47.5119 89.6687 0.0000 0.0000 0.0000
# 4 0.0000 0.0000 0.0000 34.6940 0.0000 0.0000
# 5 0.0000 0.0000 0.0000 0.0000 9.9585 0.0000
# 6 0.0000 0.0000 0.0000 0.0000 0.0000 17.5403
#
#
#
# Elastic Compliance Matrix: (Units=1/GPa)
#
#
# Indices 1 2 3 4 5 6 
#
# 1 0.013862 -0.002781 -0.001140 0.000000 0.000000 0.000000
# 2 -0.002781 0.018394 -0.009222 0.000000 0.000000 0.000000
# 3 -0.001140 -0.009222 0.016253 0.000000 0.000000 0.000000
# 4 0.000000 0.000000 0.000000 0.028823 0.000000 0.000000
# 5 0.000000 0.000000 0.000000 0.000000 0.100417 0.000000
# 6 0.000000 0.000000 0.000000 0.000000 0.000000 0.057012
#
#
# Mechanical properties :
#
#
# Convention : Reuss Voigt Hill
#
# Bulk Modulus (GPa) = 44.99834 46.41680 45.70757
# Shear Modulus (GPa) = 18.62510 23.36294 20.99402
#
# Velocity S-wave (km/s) = 3.05673 3.42351 3.24531
# Velocity P-wave (km/s) = 5.91882 6.23804 6.08052
#
# Compressibility (1/GPa) = 0.02222304
#
# Stress axis : x y z
#
# Youngs Moduli (GPa) = 72.13735 54.36688 61.52607
#
# Poissons Ratio (x) = 0.15122 0.07015
# Poissons Ratio (y) = 0.20065 0.56737
# Poissons Ratio (z) = 0.08224 0.50135
#
# Static dielectric constant tensor:
#      x y z
#    x 1.702950 0.000000 0.000000 
#    y 0.000000 1.837950 0.000000 
#    z 0.000000 0.000000 1.782770 
# 
# From -- ./inp_files/26368.got.cif
#   From: 2010.05.17/outbox.cif.g08.bks.cpg/sg68_14_cif.got.tgz:26368.got - 2010.06.03 18:57:09.
