data_PCOD9506083
_publ_section_title
;
Structure prediction by ZEFSAII (Michael W. Deem and Ramdas Pophale) SiO2 
 PCOD9506083
Probable space group: C C C A
;
_chemical_formula_sum "Si O2"
_cell_formula_units_Z 116
_cell_length_a 13.303916
_cell_length_b 28.630456
_cell_length_c 11.881797
_cell_angle_alpha 90.000000
_cell_angle_beta 90.000000
_cell_angle_gamma 90.000000
_cell_volume 4525.742990
_symmetry_space_group_name_H-M "C C C A"
_symmetry_group_IT_number 68
_space_group.IT_coordinate_system_code '2'
_symmetry_cell_setting 'orthorhombic'
loop_
_space_group_symop_operation_xyz
x,y,z
-x,1/2-y,z
x,1/2-y,1/2-z
-x,y,1/2-z
-x,-y,-z
x,1/2+y,-z
-x,1/2+y,1/2+z
x,-y,1/2+z
1/2+x,1/2+y,z
1/2-x,-y,z
1/2+x,-y,1/2-z
1/2-x,1/2+y,1/2-z
1/2-x,1/2-y,-z
1/2+x,y,-z
1/2-x,y,1/2+z
1/2+x,1/2-y,1/2+z
loop_
_atom_site_type_symbol
_atom_site_label
_atom_site_fract_x
_atom_site_fract_y
_atom_site_fract_z
Si Si1 0.979445 0.180109 0.081339
Si Si2 0.286050 0.699660 0.449710
Si Si3 0.601370 0.152271 0.347302
Si Si4 0.626826 0.910155 0.183179
Si Si5 0.125733 0.947024 0.574270
Si Si6 0.366827 0.449630 0.451758
Si Si7 0.000000 0.750000 0.750000
Si Si8 0.839638 0.878458 0.119751
O O1 0.901239 0.309676 0.089456
O O2 0.931579 0.134391 0.135390
O O3 0.935171 0.219131 0.164221
O O4 0.954937 0.180229 0.948824
O O5 0.250000 0.750000 0.500000
O O6 0.209313 0.679435 0.357334
O O7 0.282820 0.661314 0.549367
O O8 0.603824 0.098668 0.391721
O O9 0.590129 0.145914 0.212284
O O10 0.599517 0.922403 0.309394
O O11 0.748218 0.904331 0.181644
O O12 0.608990 0.947423 0.084557
O O13 0.246608 0.949893 0.562778
O O14 0.103465 0.913916 0.465935
O O15 0.091722 0.000596 0.586047
#
# Coordination Sequence:
#
# PCOD9506083 Si02
#       8
#    16  16  16  16  16  16   4  16
#     4  11  27  45  73 109 144 196 244 324 383 457
#     4  12  26  46  75 107 145 195 253 317 399 470
#     4  11  23  47  67 110 152 192 259 313 389 468
#     4  10  20  41  63 105 152 190 260 319 372 455
#     4  10  19  33  65 114 144 203 267 310 378 462
#     4   9  19  32  65 104 145 197 260 317 371 449
#     4  12  28  44  76 102 136 182 260 296 386 452
#     4  11  22  41  70 104 152 201 250 315 388 459
#
# _framework density 25.631152
#
# number of rings (size 3 to 8) (size 9 to 14) (size 15 to 20)
#    0.000    1.379    5.517    0.828    5.793    2.207 
#    0.000    0.000    0.000    5.793   21.517    0.000 
#    0.000    0.000    0.000    0.000    0.000    0.000 
#
# Total GULP energy -324078.460786 kJ/mol
# GULP energy per Si atom -5587.559669 kJ/mol
# Density = 2.557281 g / cm^3
# Si number density = 25.631152 Si / 1000 Ang^3
#
#
#
# Elastic Constant Matrix: (Units=GPa)
#
#
# Indices 1 2 3 4 5 6 
#
# 1 72.4681 6.8771 8.9884 0.0000 0.0000 0.0000
# 2 6.8771 111.5626 38.2725 0.0000 0.0000 0.0000
# 3 8.9884 38.2725 181.0176 0.0000 0.0000 0.0000
# 4 0.0000 0.0000 0.0000 34.2540 0.0000 0.0000
# 5 0.0000 0.0000 0.0000 0.0000 26.0083 0.0000
# 6 0.0000 0.0000 0.0000 0.0000 0.0000 18.8947
#
#
#
# Elastic Compliance Matrix: (Units=1/GPa)
#
#
# Indices 1 2 3 4 5 6 
#
# 1 0.013931 -0.000670 -0.000550 0.000000 0.000000 0.000000
# 2 -0.000670 0.009697 -0.002017 0.000000 0.000000 0.000000
# 3 -0.000550 -0.002017 0.005978 0.000000 0.000000 0.000000
# 4 0.000000 0.000000 0.000000 0.029194 0.000000 0.000000
# 5 0.000000 0.000000 0.000000 0.000000 0.038449 0.000000
# 6 0.000000 0.000000 0.000000 0.000000 0.000000 0.052925
#
#
# Mechanical properties :
#
#
# Convention : Reuss Voigt Hill
#
# Bulk Modulus (GPa) = 43.23057 52.59160 47.91108
# Shear Modulus (GPa) = 30.42132 36.55875 33.49004
#
# Velocity S-wave (km/s) = 3.44886 3.78079 3.61863
# Velocity P-wave (km/s) = 5.72386 6.29463 6.01602
#
# Compressibility (1/GPa) = 0.02313178
#
# Stress axis : x y z
#
# Youngs Moduli (GPa) = 71.78240 103.12676 167.27785
#
# Poissons Ratio (x) = 0.06910 0.09202
# Poissons Ratio (y) = 0.04810 0.33739
# Poissons Ratio (z) = 0.03949 0.20800
#
# Static dielectric constant tensor:
#      x y z
#    x 2.320360 0.000000 0.000000 
#    y 0.000000 2.062900 0.000000 
#    z 0.000000 0.000000 2.005600 
# 
# From -- ./inp_files/14840.got.cif
#   From: 2010.05.17/outbox.cif.g08.bks.cpg/sg68_8_cif.got.tgz:14840.got - 2010.06.03 18:57:09.
