data_PCOD9506989
_publ_section_title
;
Structure prediction by ZEFSAII (Michael W. Deem and Ramdas Pophale) SiO2 
 PCOD9506989
Probable space group: C C C A
;
_chemical_formula_sum "Si O2"
_cell_formula_units_Z 96
_cell_length_a 13.564689
_cell_length_b 14.618427
_cell_length_c 20.632230
_cell_angle_alpha 90.000000
_cell_angle_beta 90.000000
_cell_angle_gamma 90.000000
_cell_volume 4091.255997
_symmetry_space_group_name_H-M "C C C A"
_symmetry_group_IT_number 68
_space_group.IT_coordinate_system_code '2'
_symmetry_cell_setting 'orthorhombic'
loop_
_space_group_symop_operation_xyz
x,y,z
-x,1/2-y,z
x,1/2-y,1/2-z
-x,y,1/2-z
-x,-y,-z
x,1/2+y,-z
-x,1/2+y,1/2+z
x,-y,1/2+z
1/2+x,1/2+y,z
1/2-x,-y,z
1/2+x,-y,1/2-z
1/2-x,1/2+y,1/2-z
1/2-x,1/2-y,-z
1/2+x,y,-z
1/2-x,y,1/2+z
1/2+x,1/2-y,1/2+z
loop_
_atom_site_type_symbol
_atom_site_label
_atom_site_fract_x
_atom_site_fract_y
_atom_site_fract_z
Si Si1 0.502258 0.611579 0.350678
Si Si2 0.613153 0.920471 0.013858
Si Si3 0.479385 0.902083 0.676003
Si Si4 0.163612 0.737332 0.679467
Si Si5 0.669424 0.790417 0.915529
Si Si6 0.911691 0.108581 0.558332
O O1 0.555652 0.613706 0.421480
O O2 0.462212 0.511331 0.332711
O O3 0.414533 0.683456 0.340673
O O4 0.595658 0.647513 0.309902
O O5 0.646031 0.022749 0.030995
O O6 0.692054 0.863253 0.972390
O O7 0.521883 0.917191 0.963762
O O8 0.500000 0.879184 0.750000
O O9 0.396674 0.838750 0.641174
O O10 0.581012 0.890070 0.635963
O O11 0.211648 0.750000 0.750000
O O12 0.241059 0.741223 0.621157
O O13 0.613483 0.711924 0.956455
#
# Coordination Sequence:
#
# PCOD9506989 Si02
#       6
#    16  16  16  16  16  16
#     4  10  22  44  69  91 128 196 231 281 340 420
#     4   9  19  41  66  95 134 175 230 274 343 425
#     4  10  20  37  67  95 134 184 234 272 350 421
#     4  11  25  42  66  99 142 178 233 282 350 416
#     4  11  24  39  68 107 136 176 223 300 349 402
#     4   9  20  37  64  98 140 172 217 280 348 412
#
# _framework density 23.464677999999999
#
# number of rings (size 3 to 8) (size 9 to 14) (size 15 to 20)
#    0.000    2.000    0.000    5.000    7.000    2.000 
#    0.000    3.333   11.000    0.000    0.000    0.000 
#    0.000    0.000    0.000    0.000    0.000    0.000 
#
# Total GULP energy -267435.438007 kJ/mol
# GULP energy per Si atom -5571.571625 kJ/mol
# Density = 2.341127 g / cm^3
# Si number density = 23.464678 Si / 1000 Ang^3
#
#
#
# Elastic Constant Matrix: (Units=GPa)
#
#
# Indices 1 2 3 4 5 6 
#
# 1 75.7371 32.1918 14.6821 0.0000 0.0000 0.0000
# 2 32.1918 125.8006 25.4469 0.0000 0.0000 0.0000
# 3 14.6821 25.4469 118.0716 0.0000 0.0000 0.0000
# 4 0.0000 0.0000 0.0000 24.7451 0.0000 0.0000
# 5 0.0000 0.0000 0.0000 0.0000 20.3697 0.0000
# 6 0.0000 0.0000 0.0000 0.0000 0.0000 18.4117
#
#
#
# Elastic Compliance Matrix: (Units=1/GPa)
#
#
# Indices 1 2 3 4 5 6 
#
# 1 0.014946 -0.003606 -0.001081 0.000000 0.000000 0.000000
# 2 -0.003606 0.009181 -0.001530 0.000000 0.000000 0.000000
# 3 -0.001081 -0.001530 0.008934 0.000000 0.000000 0.000000
# 4 0.000000 0.000000 0.000000 0.040412 0.000000 0.000000
# 5 0.000000 0.000000 0.000000 0.000000 0.049093 0.000000
# 6 0.000000 0.000000 0.000000 0.000000 0.000000 0.054313
#
#
# Mechanical properties :
#
#
# Convention : Reuss Voigt Hill
#
# Bulk Modulus (GPa) = 48.48310 51.58346 50.03328
# Shear Modulus (GPa) = 25.48557 29.19119 27.33838
#
# Velocity S-wave (km/s) = 3.29922 3.53093 3.41704
# Velocity P-wave (km/s) = 5.93465 6.21727 6.07761
#
# Compressibility (1/GPa) = 0.02062574
#
# Stress axis : x y z
#
# Youngs Moduli (GPa) = 66.90823 108.91619 111.93528
#
# Poissons Ratio (x) = 0.39273 0.12104
# Poissons Ratio (y) = 0.24126 0.17131
# Poissons Ratio (z) = 0.07235 0.16668
#
# Static dielectric constant tensor:
#      x y z
#    x 1.970150 0.000000 0.000000 
#    y 0.000000 2.039830 0.000000 
#    z 0.000000 0.000000 2.044010 
# 
# From -- ./inp_files/38531.got.cif
#   From: 2010.05.17/outbox.cif.g08.bks.cpg/sg68_20_cif.got.tgz:38531.got - 2010.06.03 18:57:09.
