data_PCOD9506656
_publ_section_title
;
Structure prediction by ZEFSAII (Michael W. Deem and Ramdas Pophale) SiO2 
 PCOD9506656
Probable space group: C C C A
;
_chemical_formula_sum "Si O2"
_cell_formula_units_Z 96
_cell_length_a 8.216529
_cell_length_b 22.928553
_cell_length_c 27.829647
_cell_angle_alpha 90.000000
_cell_angle_beta 90.000000
_cell_angle_gamma 90.000000
_cell_volume 5242.914045
_symmetry_space_group_name_H-M "C C C A"
_symmetry_group_IT_number 68
_space_group.IT_coordinate_system_code '2'
_symmetry_cell_setting 'orthorhombic'
loop_
_space_group_symop_operation_xyz
x,y,z
-x,1/2-y,z
x,1/2-y,1/2-z
-x,y,1/2-z
-x,-y,-z
x,1/2+y,-z
-x,1/2+y,1/2+z
x,-y,1/2+z
1/2+x,1/2+y,z
1/2-x,-y,z
1/2+x,-y,1/2-z
1/2-x,1/2+y,1/2-z
1/2-x,1/2-y,-z
1/2+x,y,-z
1/2-x,y,1/2+z
1/2+x,1/2-y,1/2+z
loop_
_atom_site_type_symbol
_atom_site_label
_atom_site_fract_x
_atom_site_fract_y
_atom_site_fract_z
Si Si1 0.768574 0.804573 0.445203
Si Si2 0.615859 0.359035 0.208522
Si Si3 0.847644 0.327825 0.956324
Si Si4 0.178192 0.938092 0.773397
Si Si5 0.686843 0.857829 0.645660
Si Si6 0.818138 0.770744 0.843926
O O1 0.753674 0.734304 0.452339
O O2 0.682585 0.840885 0.487578
O O3 0.696353 0.809928 0.392195
O O4 0.960722 0.817652 0.447536
O O5 0.500000 0.334650 0.250000
O O6 0.701554 0.414747 0.231651
O O7 0.496128 0.371505 0.163954
O O8 0.750392 0.311576 0.197158
O O9 0.790573 0.367268 0.911552
O O10 0.195842 0.893094 0.818195
O O11 0.000000 0.941508 0.750000
O O12 0.250000 0.000000 0.789547
O O13 0.711039 0.788034 0.651750
O O14 0.000000 0.750000 0.836816
#
# Coordination Sequence:
#
# PCOD9506656 Si02
#       6
#    16  16  16  16  16  16
#     4   9  18  28  47  71 112 146 185 219 264 322
#     4  10  21  37  55  75 108 149 184 228 278 329
#     4   9  17  30  46  75 107 148 181 220 267 319
#     4  11  23  41  61  83 105 137 185 235 281 332
#     4  10  20  35  54  78 112 148 185 224 277 328
#     4  11  21  32  49  82 117 150 187 226 272 335
#
# _framework density 18.310428000000002
#
# number of rings (size 3 to 8) (size 9 to 14) (size 15 to 20)
#    0.000    2.000    1.667    3.000    7.000    4.667 
#    0.000    4.167    0.000    0.000    0.000    2.333 
#    0.000    0.000    0.000    0.000    0.000    0.000 
#
# Total GULP energy -267454.525766 kJ/mol
# GULP energy per Si atom -5571.969287 kJ/mol
# Density = 1.826875 g / cm^3
# Si number density = 18.310428 Si / 1000 Ang^3
#
#
#
# Elastic Constant Matrix: (Units=GPa)
#
#
# Indices 1 2 3 4 5 6 
#
# 1 71.7079 0.5088 35.2834 0.0000 0.0000 0.0000
# 2 0.5088 36.2302 32.1722 0.0000 0.0000 0.0000
# 3 35.2834 32.1722 102.9721 0.0000 0.0000 0.0000
# 4 0.0000 0.0000 0.0000 -5.1477 0.0000 0.0000
# 5 0.0000 0.0000 0.0000 0.0000 21.7000 0.0000
# 6 0.0000 0.0000 0.0000 0.0000 0.0000 19.4622
#
#
#
# Elastic Compliance Matrix: (Units=1/GPa)
#
#
# Indices 1 2 3 4 5 6 
#
# 1 0.018052 0.007251 -0.008451 0.000000 0.000000 0.000000
# 2 0.007251 0.041112 -0.015329 0.000000 0.000000 0.000000
# 3 -0.008451 -0.015329 0.017397 0.000000 0.000000 0.000000
# 4 0.000000 0.000000 0.000000 -0.194263 0.000000 0.000000
# 5 0.000000 0.000000 0.000000 0.000000 0.046083 0.000000
# 6 0.000000 0.000000 0.000000 0.000000 0.000000 0.051382
#
#
# Mechanical properties :
#
#
# Convention : Reuss Voigt Hill
#
# Bulk Modulus (GPa) = 22.98756 38.53768 30.76262
# Shear Modulus (GPa) = 183.00365 16.73261 99.86813
#
# Velocity S-wave (km/s) = 10.00810 3.02624 7.39325
# Velocity P-wave (km/s) = 12.08846 5.77091 9.47191
#
# Compressibility (1/GPa) = 0.04350178
#
# Stress axis : x y z
#
# Youngs Moduli (GPa) = 55.39453 24.32391 57.48256
#
# Poissons Ratio (x) = -0.17637 0.48579
# Poissons Ratio (y) = -0.40167 0.88117
# Poissons Ratio (z) = 0.46814 0.37287
#
# Static dielectric constant tensor:
#      x y z
#    x 1.659940 0.000000 0.000000 
#    y 0.000000 1.612290 0.000000 
#    z 0.000000 0.000000 1.767650 
# 
# From -- ./inp_files/49293.got.cif
#   From: 2010.05.17/outbox.cif.g08.bks.cpg/sg68_25_cif.got.tgz:49293.got - 2010.06.03 18:57:09.
