data_PCOD9506404
_publ_section_title
;
Structure prediction by ZEFSAII (Michael W. Deem and Ramdas Pophale) SiO2 
 PCOD9506404
Probable space group: C C C A
;
_chemical_formula_sum "Si O2"
_cell_formula_units_Z 108
_cell_length_a 15.175006
_cell_length_b 27.032563
_cell_length_c 12.153048
_cell_angle_alpha 90.000000
_cell_angle_beta 90.000000
_cell_angle_gamma 90.000000
_cell_volume 4985.414913
_symmetry_space_group_name_H-M "C C C A"
_symmetry_group_IT_number 68
_space_group.IT_coordinate_system_code '2'
_symmetry_cell_setting 'orthorhombic'
loop_
_space_group_symop_operation_xyz
x,y,z
-x,1/2-y,z
x,1/2-y,1/2-z
-x,y,1/2-z
-x,-y,-z
x,1/2+y,-z
-x,1/2+y,1/2+z
x,-y,1/2+z
1/2+x,1/2+y,z
1/2-x,-y,z
1/2+x,-y,1/2-z
1/2-x,1/2+y,1/2-z
1/2-x,1/2-y,-z
1/2+x,y,-z
1/2-x,y,1/2+z
1/2+x,1/2-y,1/2+z
loop_
_atom_site_type_symbol
_atom_site_label
_atom_site_fract_x
_atom_site_fract_y
_atom_site_fract_z
Si Si1 0.000000 0.250000 0.250000
Si Si2 0.291183 0.074197 0.936182
Si Si3 0.102691 0.976637 0.437557
Si Si4 0.444913 0.319533 0.587241
Si Si5 0.309399 0.148151 0.742013
Si Si6 0.640580 0.349265 0.116565
Si Si7 0.000000 0.914951 0.250000
Si Si8 0.041409 0.082667 0.134101
O O1 0.978412 0.210043 0.349211
O O2 0.197820 0.048981 0.953392
O O3 0.278210 0.106680 0.827893
O O4 0.367011 0.032988 0.920407
O O5 0.315936 0.109813 0.036212
O O6 0.050212 0.949381 0.339486
O O7 0.056843 0.962820 0.553259
O O8 0.366365 0.315812 0.677879
O O9 0.408522 0.310456 0.465351
O O10 0.476816 0.376127 0.583187
O O11 0.224090 0.171187 0.684402
O O12 0.372083 0.115861 0.661603
O O13 0.570822 0.378869 0.191110
O O14 0.000000 0.067494 0.250000
#
# Coordination Sequence:
#
# PCOD9506404 Si02
#       8
#     4  16  16  16  16  16   8  16
#     4  12  20  44  74 106 132 154 212 286 338 424
#     4  10  23  38  57  84 124 172 224 274 320 371
#     4  11  22  40  56  88 124 171 227 274 323 378
#     4  10  22  39  68  98 122 162 210 269 344 405
#     4  10  19  39  62  85 121 168 210 258 325 399
#     4  11  22  40  61  93 126 177 222 266 335 396
#     4  12  24  38  59  89 128 174 220 278 324 386
#     4  10  19  39  63  87 118 165 213 266 332 386
#
# _framework density 21.663191999999999
#
# number of rings (size 3 to 8) (size 9 to 14) (size 15 to 20)
#    0.000    1.481    6.667    0.000    0.000    1.778 
#    8.000    0.741    0.000    0.444    0.000    0.000 
#    0.000    0.000    0.000    0.000    0.000    0.000 
#
# Total GULP energy -300876.193767 kJ/mol
# GULP energy per Si atom -5571.781366 kJ/mol
# Density = 2.161389 g / cm^3
# Si number density = 21.663192 Si / 1000 Ang^3
#
#
#
# Elastic Constant Matrix: (Units=GPa)
#
#
# Indices 1 2 3 4 5 6 
#
# 1 85.1220 -16.9505 32.4444 0.0000 0.0000 0.0000
# 2 -16.9505 23.7710 1.7701 0.0000 0.0000 0.0000
# 3 32.4444 1.7701 97.7947 0.0000 0.0000 0.0000
# 4 0.0000 0.0000 0.0000 29.3411 0.0000 0.0000
# 5 0.0000 0.0000 0.0000 0.0000 47.1788 0.0000
# 6 0.0000 0.0000 0.0000 0.0000 0.0000 -51.3816
#
#
#
# Elastic Compliance Matrix: (Units=1/GPa)
#
#
# Indices 1 2 3 4 5 6 
#
# 1 0.016286 0.012032 -0.005621 0.000000 0.000000 0.000000
# 2 0.012032 0.051013 -0.004915 0.000000 0.000000 0.000000
# 3 -0.005621 -0.004915 0.012179 0.000000 0.000000 0.000000
# 4 0.000000 0.000000 0.000000 0.034082 0.000000 0.000000
# 5 0.000000 0.000000 0.000000 0.000000 0.021196 0.000000
# 6 0.000000 0.000000 0.000000 0.000000 0.000000 -0.019462
#
#
# Mechanical properties :
#
#
# Convention : Reuss Voigt Hill
#
# Bulk Modulus (GPa) = 12.12552 26.80174 19.46363
# Shear Modulus (GPa) = 35.76718 17.65590 26.71154
#
# Velocity S-wave (km/s) = 4.06773 2.85795 3.51527
# Velocity P-wave (km/s) = 5.26035 4.82591 5.04781
#
# Compressibility (1/GPa) = 0.08247068
#
# Stress axis : x y z
#
# Youngs Moduli (GPa) = 61.40190 19.60265 82.10695
#
# Poissons Ratio (x) = -0.23585 0.46151
# Poissons Ratio (y) = -0.73877 0.40355
# Poissons Ratio (z) = 0.34513 0.09635
#
# Static dielectric constant tensor:
#      x y z
#    x 1.957730 0.000000 0.000000 
#    y 0.000000 1.820860 0.000000 
#    z 0.000000 0.000000 1.796410 
# 
# From -- ./inp_files/13655.got.cif
#   From: 2010.05.17/outbox.cif.g08.bks.cpg/sg68_7_cif.got.tgz:13655.got - 2010.06.03 18:57:09.
