data_PCOD9506305
_publ_section_title
;
Structure prediction by ZEFSAII (Michael W. Deem and Ramdas Pophale) SiO2 
 PCOD9506305
Probable space group: C C C A
;
_chemical_formula_sum "Si O2"
_cell_formula_units_Z 104
_cell_length_a 18.446800
_cell_length_b 13.384826
_cell_length_c 25.313408
_cell_angle_alpha 90.000000
_cell_angle_beta 90.000000
_cell_angle_gamma 90.000000
_cell_volume 6250.062901
_symmetry_space_group_name_H-M "C C C A"
_symmetry_group_IT_number 68
_space_group.IT_coordinate_system_code '2'
_symmetry_cell_setting 'orthorhombic'
loop_
_space_group_symop_operation_xyz
x,y,z
-x,1/2-y,z
x,1/2-y,1/2-z
-x,y,1/2-z
-x,-y,-z
x,1/2+y,-z
-x,1/2+y,1/2+z
x,-y,1/2+z
1/2+x,1/2+y,z
1/2-x,-y,z
1/2+x,-y,1/2-z
1/2-x,1/2+y,1/2-z
1/2-x,1/2-y,-z
1/2+x,y,-z
1/2-x,y,1/2+z
1/2+x,1/2-y,1/2+z
loop_
_atom_site_type_symbol
_atom_site_label
_atom_site_fract_x
_atom_site_fract_y
_atom_site_fract_z
Si Si1 0.083039 0.126896 0.307093
Si Si2 0.194025 0.909607 0.594595
Si Si3 0.255845 0.207982 0.441009
Si Si4 0.000000 0.750000 0.534031
Si Si5 0.611573 0.406618 0.920005
Si Si6 0.388582 0.102372 0.482285
Si Si7 0.090209 0.865621 0.690075
O O1 0.113529 0.071482 0.357909
O O2 0.099257 0.245425 0.311838
O O3 0.110678 0.097397 0.248997
O O4 0.996045 0.116073 0.311874
O O5 0.236806 0.803284 0.595198
O O6 0.154083 0.916855 0.537589
O O7 0.135114 0.909739 0.641535
O O8 0.250000 0.000000 0.599526
O O9 0.250000 0.250000 0.500000
O O10 0.191864 0.128223 0.435299
O O11 0.333968 0.156346 0.441052
O O12 0.943881 0.814840 0.568953
O O13 0.953462 0.675141 0.498297
O O14 0.588168 0.499076 0.955851
#
# Coordination Sequence:
#
# PCOD9506305 Si02
#       7
#    16  16  16   8  16  16  16
#     4   9  17  31  57  79 109 136 173 233 281 318
#     4  11  20  33  56  78 108 150 185 220 269 332
#     4  10  19  37  51  70 111 144 178 218 265 326
#     4  12  22  34  54  81 118 139 182 236 264 334
#     4  12  20  35  56  81 108 146 182 222 273 329
#     4  11  23  36  53  80 112 151 181 216 281 326
#     4   9  17  33  53  82 108 138 175 228 285 314
#
# _framework density 16.639831999999998
#
# number of rings (size 3 to 8) (size 9 to 14) (size 15 to 20)
#    0.000    1.538    4.615    5.538    0.000    0.000 
#    0.000    1.538    0.000    0.000    0.000    0.000 
#    0.000    0.000    0.000    0.000    0.000    0.000 
#
# Total GULP energy -289928.433480 kJ/mol
# GULP energy per Si atom -5575.546798 kJ/mol
# Density = 1.660196 g / cm^3
# Si number density = 16.639832 Si / 1000 Ang^3
#
#
#
# Elastic Constant Matrix: (Units=GPa)
#
#
# Indices 1 2 3 4 5 6 
#
# 1 56.8431 18.1188 36.0460 0.0000 0.0000 0.0000
# 2 18.1188 62.6738 35.3872 0.0000 0.0000 0.0000
# 3 36.0460 35.3872 122.5958 0.0000 0.0000 0.0000
# 4 0.0000 0.0000 0.0000 13.8531 0.0000 0.0000
# 5 0.0000 0.0000 0.0000 0.0000 16.8221 0.0000
# 6 0.0000 0.0000 0.0000 0.0000 0.0000 30.7086
#
#
#
# Elastic Compliance Matrix: (Units=1/GPa)
#
#
# Indices 1 2 3 4 5 6 
#
# 1 0.022168 -0.003260 -0.005577 0.000000 0.000000 0.000000
# 2 -0.003260 0.019542 -0.004682 0.000000 0.000000 0.000000
# 3 -0.005577 -0.004682 0.011148 0.000000 0.000000 0.000000
# 4 0.000000 0.000000 0.000000 0.072186 0.000000 0.000000
# 5 0.000000 0.000000 0.000000 0.000000 0.059446 0.000000
# 6 0.000000 0.000000 0.000000 0.000000 0.000000 0.032564
#
#
# Mechanical properties :
#
#
# Convention : Reuss Voigt Hill
#
# Bulk Modulus (GPa) = 38.72994 46.80184 42.76589
# Shear Modulus (GPa) = 19.78647 22.44748 21.11698
#
# Velocity S-wave (km/s) = 3.45208 3.67689 3.56625
# Velocity P-wave (km/s) = 6.26220 6.79805 6.53562
#
# Compressibility (1/GPa) = 0.02581982
#
# Stress axis : x y z
#
# Youngs Moduli (GPa) = 45.11045 51.17257 89.70091
#
# Poissons Ratio (x) = 0.16681 0.50025
# Poissons Ratio (y) = 0.14705 0.42000
# Poissons Ratio (z) = 0.25158 0.23960
#
# Static dielectric constant tensor:
#      x y z
#    x 1.563870 0.000000 0.000000 
#    y 0.000000 1.573540 0.000000 
#    z 0.000000 0.000000 1.576490 
# 
# From -- ./inp_files/51433.got.cif
#   From: 2010.05.17/outbox.cif.g08.bks.cpg/sg68_26_cif.got.tgz:51433.got - 2010.06.03 18:57:09.
