data_PCOD9506753
_publ_section_title
;
Structure prediction by ZEFSAII (Michael W. Deem and Ramdas Pophale) SiO2 
 PCOD9506753
Probable space group: C C C A
;
_chemical_formula_sum "Si O2"
_cell_formula_units_Z 56
_cell_length_a 11.912400
_cell_length_b 13.867309
_cell_length_c 17.912993
_cell_angle_alpha 90.000000
_cell_angle_beta 90.000000
_cell_angle_gamma 90.000000
_cell_volume 2959.099830
_symmetry_space_group_name_H-M "C C C A"
_symmetry_group_IT_number 68
_space_group.IT_coordinate_system_code '2'
_symmetry_cell_setting 'orthorhombic'
loop_
_space_group_symop_operation_xyz
x,y,z
-x,1/2-y,z
x,1/2-y,1/2-z
-x,y,1/2-z
-x,-y,-z
x,1/2+y,-z
-x,1/2+y,1/2+z
x,-y,1/2+z
1/2+x,1/2+y,z
1/2-x,-y,z
1/2+x,-y,1/2-z
1/2-x,1/2+y,1/2-z
1/2-x,1/2-y,-z
1/2+x,y,-z
1/2-x,y,1/2+z
1/2+x,1/2-y,1/2+z
loop_
_atom_site_type_symbol
_atom_site_label
_atom_site_fract_x
_atom_site_fract_y
_atom_site_fract_z
Si Si1 0.932139 0.648368 0.683084
Si Si2 0.370416 0.727023 0.592937
Si Si3 0.775846 0.750000 0.250000
Si Si4 0.197519 0.604744 0.957765
O O1 0.810429 0.670557 0.718211
O O2 0.905026 0.606527 0.602071
O O3 0.000000 0.750000 0.671524
O O4 0.000000 0.596236 0.750000
O O5 0.500000 0.750000 0.581428
O O6 0.345887 0.711612 0.680319
O O7 0.290161 0.815815 0.567733
O O8 0.339989 0.638245 0.539576
O O9 0.250000 0.500000 0.957897
#
# Coordination Sequence:
#
# PCOD9506753 Si02
#       4
#    16  16   8  16
#     4   8  15  32  58  78 103 144 185 222 269 325
#     4  10  20  36  56  76 109 146 181 226 277 328
#     4   8  16  32  54  80 104 138 182 228 274 320
#     4  10  21  36  54  82 112 141 183 230 274 329
#
# _framework density 18.924674
#
# number of rings (size 3 to 8) (size 9 to 14) (size 15 to 20)
#    0.000    3.143    0.000    1.286    0.000    3.429 
#    0.000   11.429    0.000    0.000    0.000    0.000 
#    0.000    0.000    0.000    0.000    0.000    0.000 
#
# Total GULP energy -155885.609433 kJ/mol
# GULP energy per Si atom -5567.343194 kJ/mol
# Density = 1.888160 g / cm^3
# Si number density = 18.924674 Si / 1000 Ang^3
#
#
#
# Elastic Constant Matrix: (Units=GPa)
#
#
# Indices 1 2 3 4 5 6 
#
# 1 71.3184 12.2671 43.7337 0.0000 0.0000 0.0000
# 2 12.2671 66.6371 51.5461 0.0000 0.0000 0.0000
# 3 43.7337 51.5461 179.8361 0.0000 0.0000 0.0000
# 4 0.0000 0.0000 0.0000 -5.8187 0.0000 0.0000
# 5 0.0000 0.0000 0.0000 0.0000 -11.8454 0.0000
# 6 0.0000 0.0000 0.0000 0.0000 0.0000 9.4804
#
#
#
# Elastic Compliance Matrix: (Units=1/GPa)
#
#
# Indices 1 2 3 4 5 6 
#
# 1 0.016479 0.000085 -0.004032 0.000000 0.000000 0.000000
# 2 0.000085 0.019282 -0.005548 0.000000 0.000000 0.000000
# 3 -0.004032 -0.005548 0.008131 0.000000 0.000000 0.000000
# 4 0.000000 0.000000 0.000000 -0.171861 0.000000 0.000000
# 5 0.000000 0.000000 0.000000 0.000000 -0.084421 0.000000
# 6 0.000000 0.000000 0.000000 0.000000 0.000000 0.105481
#
#
# Mechanical properties :
#
#
# Convention : Reuss Voigt Hill
#
# Bulk Modulus (GPa) = 40.15385 59.20948 49.68166
# Shear Modulus (GPa) = -62.79973 12.37958 -25.21007
#
# Velocity S-wave (km/s) = -5.76681 2.56041 -3.65379
# Velocity P-wave (km/s) = 4.80392 6.33212 2.91703
#
# Compressibility (1/GPa) = 0.02490422
#
# Stress axis : x y z
#
# Youngs Moduli (GPa) = 60.68157 51.86135 122.98262
#
# Poissons Ratio (x) = -0.00442 0.49587
# Poissons Ratio (y) = -0.00517 0.68225
# Poissons Ratio (z) = 0.24467 0.28770
#
# Static dielectric constant tensor:
#      x y z
#    x 1.658350 0.000000 0.000000 
#    y 0.000000 1.640250 0.000000 
#    z 0.000000 0.000000 1.715330 
# 
# From -- ./inp_files/29000.got.cif
#   From: 2010.05.17/outbox.cif.g08.bks.cpg/sg68_15_cif.got.tgz:29000.got - 2010.06.03 18:57:09.
