data_PCOD9506068
_publ_section_title
;
Structure prediction by ZEFSAII (Michael W. Deem and Ramdas Pophale) SiO2 
 PCOD9506068
Probable space group: C C C A
;
_chemical_formula_sum "Si O2"
_cell_formula_units_Z 72
_cell_length_a 24.029749
_cell_length_b 7.794612
_cell_length_c 14.329578
_cell_angle_alpha 90.000000
_cell_angle_beta 90.000000
_cell_angle_gamma 90.000000
_cell_volume 2683.966785
_symmetry_space_group_name_H-M "C C C A"
_symmetry_group_IT_number 68
_space_group.IT_coordinate_system_code '2'
_symmetry_cell_setting 'orthorhombic'
loop_
_space_group_symop_operation_xyz
x,y,z
-x,1/2-y,z
x,1/2-y,1/2-z
-x,y,1/2-z
-x,-y,-z
x,1/2+y,-z
-x,1/2+y,1/2+z
x,-y,1/2+z
1/2+x,1/2+y,z
1/2-x,-y,z
1/2+x,-y,1/2-z
1/2-x,1/2+y,1/2-z
1/2-x,1/2-y,-z
1/2+x,y,-z
1/2-x,y,1/2+z
1/2+x,1/2-y,1/2+z
loop_
_atom_site_type_symbol
_atom_site_label
_atom_site_fract_x
_atom_site_fract_y
_atom_site_fract_z
Si Si1 0.000000 0.750000 0.880268
Si Si2 0.531378 0.577671 0.907609
Si Si3 0.139423 0.766219 0.138039
Si Si4 0.740369 0.296126 0.640343
Si Si5 0.880666 0.323348 0.141577
O O1 0.935277 0.765856 0.915398
O O2 0.011140 0.933282 0.837210
O O3 0.500000 0.750000 0.885925
O O4 0.595409 0.629172 0.900778
O O5 0.500000 0.500000 0.000000
O O6 0.139771 0.750000 0.250000
O O7 0.201839 0.720558 0.103388
O O8 0.124025 0.969347 0.128245
O O9 0.738340 0.250000 0.750000
O O10 0.750000 0.500000 0.632628
O O11 0.678567 0.250859 0.606427
O O12 0.886844 0.250000 0.250000
#
# Coordination Sequence:
#
# PCOD9506068 Si02
#       5
#     8  16  16  16  16
#     4  12  23  38  60  90 127 176 220 268 326 400
#     4  12  25  44  65  91 127 177 227 276 333 410
#     4  10  20  37  62  96 130 170 221 280 337 398
#     4   8  16  31  54  86 129 170 208 264 336 400
#     4  10  19  33  56  95 138 170 210 273 342 404
#
# _framework density 26.825966000000001
#
# number of rings (size 3 to 8) (size 9 to 14) (size 15 to 20)
#    0.000    1.778    3.333    1.667    0.000    2.222 
#    0.000    0.000    0.000    1.333    5.778    0.000 
#    0.000    0.000    0.000    0.000    0.000    0.000 
#
# Total GULP energy -200504.473959 kJ/mol
# GULP energy per Si atom -5569.568721 kJ/mol
# Density = 2.676491 g / cm^3
# Si number density = 26.825966 Si / 1000 Ang^3
#
#
#
# Elastic Constant Matrix: (Units=GPa)
#
#
# Indices 1 2 3 4 5 6 
#
# 1 335.4220 72.9269 53.7371 0.0000 0.0000 0.0000
# 2 72.9269 158.5349 6.1299 0.0000 0.0000 0.0000
# 3 53.7371 6.1299 112.3638 0.0000 0.0000 0.0000
# 4 0.0000 0.0000 0.0000 0.9144 0.0000 0.0000
# 5 0.0000 0.0000 0.0000 0.0000 17.0005 0.0000
# 6 0.0000 0.0000 0.0000 0.0000 0.0000 50.2790
#
#
#
# Elastic Compliance Matrix: (Units=1/GPa)
#
#
# Indices 1 2 3 4 5 6 
#
# 1 0.003587 -0.001587 -0.001629 0.000000 0.000000 0.000000
# 2 -0.001587 0.007023 0.000376 0.000000 0.000000 0.000000
# 3 -0.001629 0.000376 0.009658 0.000000 0.000000 0.000000
# 4 0.000000 0.000000 0.000000 1.093629 0.000000 0.000000
# 5 0.000000 0.000000 0.000000 0.000000 0.058822 0.000000
# 6 0.000000 0.000000 0.000000 0.000000 0.000000 0.019889
#
#
# Mechanical properties :
#
#
# Convention : Reuss Voigt Hill
#
# Bulk Modulus (GPa) = 68.54820 96.87873 82.71347
# Shear Modulus (GPa) = 4.15575 45.20722 24.68148
#
# Velocity S-wave (km/s) = 1.24600 4.10958 3.03654
# Velocity P-wave (km/s) = 5.26103 7.66227 6.57224
#
# Compressibility (1/GPa) = 0.01458827
#
# Stress axis : x y z
#
# Youngs Moduli (GPa) = 278.75337 142.38196 103.53858
#
# Poissons Ratio (x) = 0.22599 0.16867
# Poissons Ratio (y) = 0.44245 -0.03892
# Poissons Ratio (z) = 0.45410 -0.05353
#
# Static dielectric constant tensor:
#      x y z
#    x 2.146510 0.000000 0.000000 
#    y 0.000000 1.875600 0.000000 
#    z 0.000000 0.000000 2.537320 
# 
# From -- ./inp_files/40096.got.cif
#   From: 2010.05.17/outbox.cif.g08.bks.cpg/sg68_21_cif.got.tgz:40096.got - 2010.06.03 18:57:09.
