data_PCOD9506665
_publ_section_title
;
Structure prediction by ZEFSAII (Michael W. Deem and Ramdas Pophale) SiO2 
 PCOD9506665
Probable space group: C C C A
;
_chemical_formula_sum "Si O2"
_cell_formula_units_Z 68
_cell_length_a 37.532005
_cell_length_b 19.487800
_cell_length_c 5.064434
_cell_angle_alpha 90.000000
_cell_angle_beta 90.000000
_cell_angle_gamma 90.000000
_cell_volume 3704.209107
_symmetry_space_group_name_H-M "C C C A"
_symmetry_group_IT_number 68
_space_group.IT_coordinate_system_code '2'
_symmetry_cell_setting 'orthorhombic'
loop_
_space_group_symop_operation_xyz
x,y,z
-x,1/2-y,z
x,1/2-y,1/2-z
-x,y,1/2-z
-x,-y,-z
x,1/2+y,-z
-x,1/2+y,1/2+z
x,-y,1/2+z
1/2+x,1/2+y,z
1/2-x,-y,z
1/2+x,-y,1/2-z
1/2-x,1/2+y,1/2-z
1/2-x,1/2-y,-z
1/2+x,y,-z
1/2-x,y,1/2+z
1/2+x,1/2-y,1/2+z
loop_
_atom_site_type_symbol
_atom_site_label
_atom_site_fract_x
_atom_site_fract_y
_atom_site_fract_z
Si Si1 0.676053 0.453252 0.887638
Si Si2 0.500000 0.250000 0.250000
Si Si3 0.976917 0.617239 0.007786
Si Si4 0.726125 0.671452 0.223011
Si Si5 0.593067 0.457668 0.847840
O O1 0.683423 0.512983 0.671849
O O2 0.698517 0.386845 0.807921
O O3 0.633961 0.435540 0.882585
O O4 0.476958 0.301898 0.424355
O O5 0.937461 0.591762 0.953594
O O6 0.000000 0.604699 0.750000
O O7 0.000000 0.585395 0.250000
O O8 0.712642 0.750000 0.250000
O O9 0.759245 0.663997 0.426360
O O10 0.588550 0.476369 0.540692
#
# Coordination Sequence:
#
# PCOD9506665 Si02
#       5
#    16   4  16  16  16
#     4  10  21  37  58  83 115 145 187 233 277 331
#     4   8  22  36  50  76 106 136 182 230 258 316
#     4  10  20  35  56  75 107 140 179 226 271 321
#     4  10  21  37  58  83 116 149 185 230 278 332
#     4  10  21  36  55  81 110 140 177 228 281 325
#
# _framework density 18.357496000000001
#
# number of rings (size 3 to 8) (size 9 to 14) (size 15 to 20)
#    0.706    1.412    0.000    3.176    0.000    5.647 
#    0.000    2.353    7.765    0.000    0.000    0.000 
#    0.000    0.000    0.000    0.000    0.000    0.000 
#
# Total GULP energy -189479.627834 kJ/mol
# GULP energy per Si atom -5572.930230 kJ/mol
# Density = 1.831571 g / cm^3
# Si number density = 18.357496 Si / 1000 Ang^3
#
#
#
# Elastic Constant Matrix: (Units=GPa)
#
#
# Indices 1 2 3 4 5 6 
#
# 1 71.3470 66.1708 5.9462 0.0000 0.0000 0.0000
# 2 66.1708 83.0215 -1.5928 0.0000 0.0000 0.0000
# 3 5.9462 -1.5928 88.9943 0.0000 0.0000 0.0000
# 4 0.0000 0.0000 0.0000 11.1145 0.0000 0.0000
# 5 0.0000 0.0000 0.0000 0.0000 23.7212 0.0000
# 6 0.0000 0.0000 0.0000 0.0000 0.0000 -6.6001
#
#
#
# Elastic Compliance Matrix: (Units=1/GPa)
#
#
# Indices 1 2 3 4 5 6 
#
# 1 0.055489 -0.044313 -0.004501 0.000000 0.000000 0.000000
# 2 -0.044313 0.047437 0.003810 0.000000 0.000000 0.000000
# 3 -0.004501 0.003810 0.011606 0.000000 0.000000 0.000000
# 4 0.000000 0.000000 0.000000 0.089972 0.000000 0.000000
# 5 0.000000 0.000000 0.000000 0.000000 0.042156 0.000000
# 6 0.000000 0.000000 0.000000 0.000000 0.000000 -0.151512
#
#
# Mechanical properties :
#
#
# Convention : Reuss Voigt Hill
#
# Bulk Modulus (GPa) = 40.77613 42.71234 41.74423
# Shear Modulus (GPa) = 25.86235 17.16970 21.51603
#
# Velocity S-wave (km/s) = 3.75749 3.06158 3.42725
# Velocity P-wave (km/s) = 6.40980 5.98458 6.20083
#
# Compressibility (1/GPa) = 0.02452415
#
# Stress axis : x y z
#
# Youngs Moduli (GPa) = 18.02147 21.08052 86.16545
#
# Poissons Ratio (x) = 0.93414 0.38780
# Poissons Ratio (y) = 0.79859 -0.32828
# Poissons Ratio (z) = 0.08111 -0.08031
#
# Static dielectric constant tensor:
#      x y z
#    x 1.611550 0.000000 0.000000 
#    y 0.000000 1.640410 0.000000 
#    z 0.000000 0.000000 1.645350 
# 
# From -- ./inp_files/2673.got.cif
#   From: 2010.05.17/outbox.cif.g08.bks.cpg/sg68_2_cif.got.tgz:2673.got - 2010.06.03 18:57:09.
