data_PCOD9506340
_publ_section_title
;
Structure prediction by ZEFSAII (Michael W. Deem and Ramdas Pophale) SiO2 
 PCOD9506340
Probable space group: C C C A
;
_chemical_formula_sum "Si O2"
_cell_formula_units_Z 80
_cell_length_a 12.615584
_cell_length_b 13.584222
_cell_length_c 16.389909
_cell_angle_alpha 90.000000
_cell_angle_beta 90.000000
_cell_angle_gamma 90.000000
_cell_volume 2808.786133
_symmetry_space_group_name_H-M "C C C A"
_symmetry_group_IT_number 68
_space_group.IT_coordinate_system_code '2'
_symmetry_cell_setting 'orthorhombic'
loop_
_space_group_symop_operation_xyz
x,y,z
-x,1/2-y,z
x,1/2-y,1/2-z
-x,y,1/2-z
-x,-y,-z
x,1/2+y,-z
-x,1/2+y,1/2+z
x,-y,1/2+z
1/2+x,1/2+y,z
1/2-x,-y,z
1/2+x,-y,1/2-z
1/2-x,1/2+y,1/2-z
1/2-x,1/2-y,-z
1/2+x,y,-z
1/2-x,y,1/2+z
1/2+x,1/2-y,1/2+z
loop_
_atom_site_type_symbol
_atom_site_label
_atom_site_fract_x
_atom_site_fract_y
_atom_site_fract_z
Si Si1 0.174331 0.909778 0.493569
Si Si2 0.514104 0.394050 0.894555
Si Si3 0.660671 0.631476 0.248056
Si Si4 0.868605 0.205807 0.954117
Si Si5 0.397305 0.139318 0.215130
O O1 0.138117 0.822182 0.433590
O O2 0.070875 0.944212 0.542214
O O3 0.250000 0.000000 0.469627
O O4 0.248897 0.160055 0.547064
O O5 0.425433 0.376773 0.824353
O O6 0.613451 0.412338 0.832790
O O7 0.574896 0.321126 0.960167
O O8 0.669370 0.750000 0.250000
O O9 0.781063 0.597251 0.230711
O O10 0.920730 0.150116 0.879867
O O11 0.394994 0.250000 0.250000
O O12 0.500000 0.085278 0.250000
#
# Coordination Sequence:
#
# PCOD9506340 Si02
#       5
#    16  16  16  16  16
#     4  11  25  43  69 109 149 188 250 320 370 466
#     4  11  22  39  74 105 143 200 256 310 377 479
#     4  10  19  37  65 109 141 188 262 307 371 457
#     4  11  24  43  74 104 141 204 253 301 400 458
#     4  10  23  38  65 110 147 186 255 323 377 466
#
# _framework density 28.482054000000002
#
# number of rings (size 3 to 8) (size 9 to 14) (size 15 to 20)
#    0.000    1.400    2.000    4.200   14.000    0.800 
#    0.000    0.000    4.400    6.000    0.000    0.000 
#    0.000    0.000    0.000    0.000    0.000    0.000 
#
# Total GULP energy -222998.079787 kJ/mol
# GULP energy per Si atom -5574.951995 kJ/mol
# Density = 2.841723 g / cm^3
# Si number density = 28.482054 Si / 1000 Ang^3
#
#
#
# Elastic Constant Matrix: (Units=GPa)
#
#
# Indices 1 2 3 4 5 6 
#
# 1 282.3464 71.9511 105.5709 0.0000 0.0000 0.0000
# 2 71.9511 160.9954 49.5092 0.0000 0.0000 0.0000
# 3 105.5709 49.5092 159.4961 0.0000 0.0000 0.0000
# 4 0.0000 0.0000 0.0000 -132.9449 0.0000 0.0000
# 5 0.0000 0.0000 0.0000 0.0000 62.6985 0.0000
# 6 0.0000 0.0000 0.0000 0.0000 0.0000 186.8154
#
#
#
# Elastic Compliance Matrix: (Units=1/GPa)
#
#
# Indices 1 2 3 4 5 6 
#
# 1 0.004952 -0.001332 -0.002864 0.000000 0.000000 0.000000
# 2 -0.001332 0.007225 -0.001361 0.000000 0.000000 0.000000
# 3 -0.002864 -0.001361 0.008588 0.000000 0.000000 0.000000
# 4 0.000000 0.000000 0.000000 -0.007522 0.000000 0.000000
# 5 0.000000 0.000000 0.000000 0.000000 0.015949 0.000000
# 6 0.000000 0.000000 0.000000 0.000000 0.000000 0.005353
#
#
# Mechanical properties :
#
#
# Convention : Reuss Voigt Hill
#
# Bulk Modulus (GPa) = 103.62227 117.43336 110.52781
# Shear Modulus (GPa) = 102.29535 48.36759 75.33147
#
# Velocity S-wave (km/s) = 5.99947 4.12537 5.14841
# Velocity P-wave (km/s) = 9.18979 8.00073 8.61579
#
# Compressibility (1/GPa) = 0.00965044
#
# Stress axis : x y z
#
# Youngs Moduli (GPa) = 201.92718 138.40200 116.44030
#
# Poissons Ratio (x) = 0.18441 0.33352
# Poissons Ratio (y) = 0.26905 0.15846
# Poissons Ratio (z) = 0.57839 0.18835
#
# Static dielectric constant tensor:
#      x y z
#    x 2.229980 0.000000 0.000000 
#    y 0.000000 2.352560 0.000000 
#    z 0.000000 0.000000 2.314090 
# 
# From -- ./inp_files/20843.got.cif
#   From: 2010.05.17/outbox.cif.g08.bks.cpg/sg68_11_cif.got.tgz:20843.got - 2010.06.03 18:57:09.
