data_PCOD9506372
_publ_section_title
;
Structure prediction by ZEFSAII (Michael W. Deem and Ramdas Pophale) SiO2 
 PCOD9506372
Probable space group: C C C A
;
_chemical_formula_sum "Si O2"
_cell_formula_units_Z 72
_cell_length_a 8.546732
_cell_length_b 20.065687
_cell_length_c 15.166695
_cell_angle_alpha 90.000000
_cell_angle_beta 90.000000
_cell_angle_gamma 90.000000
_cell_volume 2601.028272
_symmetry_space_group_name_H-M "C C C A"
_symmetry_group_IT_number 68
_space_group.IT_coordinate_system_code '2'
_symmetry_cell_setting 'orthorhombic'
loop_
_space_group_symop_operation_xyz
x,y,z
-x,1/2-y,z
x,1/2-y,1/2-z
-x,y,1/2-z
-x,-y,-z
x,1/2+y,-z
-x,1/2+y,1/2+z
x,-y,1/2+z
1/2+x,1/2+y,z
1/2-x,-y,z
1/2+x,-y,1/2-z
1/2-x,1/2+y,1/2-z
1/2-x,1/2-y,-z
1/2+x,y,-z
1/2-x,y,1/2+z
1/2+x,1/2-y,1/2+z
loop_
_atom_site_type_symbol
_atom_site_label
_atom_site_fract_x
_atom_site_fract_y
_atom_site_fract_z
Si Si1 0.500000 0.750000 0.129480
Si Si2 0.244229 0.160768 0.050619
Si Si3 0.500000 0.750000 0.859465
Si Si4 0.084085 0.538888 0.847653
Si Si5 0.250000 0.500000 0.644626
Si Si6 0.753523 0.351208 0.343343
O O1 0.630984 0.722489 0.065029
O O2 0.411076 0.689569 0.177733
O O3 0.403667 0.190756 0.089981
O O4 0.151704 0.105046 0.106508
O O5 0.255119 0.140023 0.949570
O O6 0.374905 0.798359 0.813792
O O7 0.250000 0.500000 0.846287
O O8 0.000000 0.541691 0.750000
O O9 0.925763 0.511473 0.898349
O O10 0.276325 0.573833 0.688576
#
# Coordination Sequence:
#
# PCOD9506372 Si02
#       6
#     8  16   8  16   8  16
#     4  10  19  38  63  97 143 187 208 265 360 435
#     4  11  21  38  68  99 137 177 228 277 351 424
#     4  10  21  38  66 104 140 184 214 271 358 443
#     4  12  27  48  70  94 136 194 240 289 352 414
#     4  12  26  44  72 108 142 174 238 302 344 418
#     4  11  21  37  67 104 145 176 218 283 360 420
#
# _framework density 27.681360999999999
#
# number of rings (size 3 to 8) (size 9 to 14) (size 15 to 20)
#    0.000    0.889    3.333    6.667    1.556    0.889 
#    0.000    0.556    0.000    1.333    0.000    0.000 
#    0.000    0.000    0.000    0.000    0.000    0.000 
#
# Total GULP energy -200621.334932 kJ/mol
# GULP energy per Si atom -5572.814859 kJ/mol
# Density = 2.761836 g / cm^3
# Si number density = 27.681361 Si / 1000 Ang^3
#
#
#
# Elastic Constant Matrix: (Units=GPa)
#
#
# Indices 1 2 3 4 5 6 
#
# 1 253.9452 87.0129 57.5657 0.0000 0.0000 0.0000
# 2 87.0129 231.1406 40.4426 0.0000 0.0000 0.0000
# 3 57.5657 40.4426 79.7637 0.0000 0.0000 0.0000
# 4 0.0000 0.0000 0.0000 28.9264 0.0000 0.0000
# 5 0.0000 0.0000 0.0000 0.0000 34.4889 0.0000
# 6 0.0000 0.0000 0.0000 0.0000 0.0000 79.6678
#
#
#
# Elastic Compliance Matrix: (Units=1/GPa)
#
#
# Indices 1 2 3 4 5 6 
#
# 1 0.005088 -0.001397 -0.002964 0.000000 0.000000 0.000000
# 2 -0.001397 0.005131 -0.001593 0.000000 0.000000 0.000000
# 3 -0.002964 -0.001593 0.015484 0.000000 0.000000 0.000000
# 4 0.000000 0.000000 0.000000 0.034571 0.000000 0.000000
# 5 0.000000 0.000000 0.000000 0.000000 0.028995 0.000000
# 6 0.000000 0.000000 0.000000 0.000000 0.000000 0.012552
#
#
# Mechanical properties :
#
#
# Convention : Reuss Voigt Hill
#
# Bulk Modulus (GPa) = 72.49124 103.87689 88.18406
# Shear Modulus (GPa) = 42.25540 53.93850 48.09695
#
# Velocity S-wave (km/s) = 3.91127 4.41903 4.17288
# Velocity P-wave (km/s) = 6.82950 7.97775 7.42585
#
# Compressibility (1/GPa) = 0.01379477
#
# Stress axis : x y z
#
# Youngs Moduli (GPa) = 196.52511 194.89219 64.58240
#
# Poissons Ratio (x) = 0.27225 0.19142
# Poissons Ratio (y) = 0.27453 0.10291
# Poissons Ratio (z) = 0.58251 0.31055
#
# Static dielectric constant tensor:
#      x y z
#    x 2.257790 0.000000 0.000000 
#    y 0.000000 2.261930 0.000000 
#    z 0.000000 0.000000 2.339300 
# 
# From -- ./inp_files/36093.got.cif
#   From: 2010.05.17/outbox.cif.g08.bks.cpg/sg68_19_cif.got.tgz:36093.got - 2010.06.03 18:57:09.
