data_PCOD9506544
_publ_section_title
;
Structure prediction by ZEFSAII (Michael W. Deem and Ramdas Pophale) SiO2 
 PCOD9506544
Probable space group: C C C A
;
_chemical_formula_sum "Si O2"
_cell_formula_units_Z 88
_cell_length_a 10.969438
_cell_length_b 21.761555
_cell_length_c 17.288592
_cell_angle_alpha 90.000000
_cell_angle_beta 90.000000
_cell_angle_gamma 90.000000
_cell_volume 4126.994864
_symmetry_space_group_name_H-M "C C C A"
_symmetry_group_IT_number 68
_space_group.IT_coordinate_system_code '2'
_symmetry_cell_setting 'orthorhombic'
loop_
_space_group_symop_operation_xyz
x,y,z
-x,1/2-y,z
x,1/2-y,1/2-z
-x,y,1/2-z
-x,-y,-z
x,1/2+y,-z
-x,1/2+y,1/2+z
x,-y,1/2+z
1/2+x,1/2+y,z
1/2-x,-y,z
1/2+x,-y,1/2-z
1/2-x,1/2+y,1/2-z
1/2-x,1/2-y,-z
1/2+x,y,-z
1/2-x,y,1/2+z
1/2+x,1/2-y,1/2+z
loop_
_atom_site_type_symbol
_atom_site_label
_atom_site_fract_x
_atom_site_fract_y
_atom_site_fract_z
Si Si1 0.608476 0.005645 0.438898
Si Si2 0.881036 0.780203 0.162904
Si Si3 0.750000 0.500000 0.307741
Si Si4 0.131659 0.769116 0.659669
Si Si5 0.616911 0.592660 0.195901
Si Si6 0.038196 0.920422 0.337182
O O1 0.591033 0.952610 0.374682
O O2 0.500000 0.000000 0.500000
O O3 0.750000 0.000000 0.463891
O O4 0.577017 0.068793 0.392676
O O5 0.876286 0.750000 0.250000
O O6 0.750205 0.765090 0.126607
O O7 0.907849 0.852363 0.164561
O O8 0.000000 0.750000 0.124702
O O9 0.707358 0.555595 0.252155
O O10 0.857764 0.529894 0.356840
O O11 0.125311 0.750000 0.750000
O O12 0.155575 0.841835 0.662198
O O13 0.000000 0.750000 0.625754
O O14 0.500000 0.604752 0.250000
O O15 0.000000 0.936460 0.250000
#
# Coordination Sequence:
#
# PCOD9506544 Si02
#       6
#    16  16   8  16  16  16
#     4  12  28  46  64  92 132 179 224 272 331 392
#     4  10  20  33  56  95 130 161 199 258 324 386
#     4  12  20  34  64 102 126 162 212 270 332 382
#     4  10  20  34  55  96 132 164 200 257 323 384
#     4  12  21  38  67  98 135 168 212 272 327 392
#     4  12  22  39  66  98 132 166 213 273 331 391
#
# _framework density 21.323022000000002
#
# number of rings (size 3 to 8) (size 9 to 14) (size 15 to 20)
#    0.000    0.727    8.182    2.182    3.818    0.000 
#    0.000    0.000    0.000    2.182    0.000    0.000 
#    0.000    0.000    0.000    0.000    0.000    0.000 
#
# Total GULP energy -245611.102986 kJ/mol
# GULP energy per Si atom -5582.070522 kJ/mol
# Density = 2.127449 g / cm^3
# Si number density = 21.323022 Si / 1000 Ang^3
#
#
#
# Elastic Constant Matrix: (Units=GPa)
#
#
# Indices 1 2 3 4 5 6 
#
# 1 195.9295 48.0580 32.4537 0.0000 0.0000 0.0000
# 2 48.0580 135.9130 8.1327 0.0000 0.0000 0.0000
# 3 32.4537 8.1327 52.1377 0.0000 0.0000 0.0000
# 4 0.0000 0.0000 0.0000 -0.4839 0.0000 0.0000
# 5 0.0000 0.0000 0.0000 0.0000 26.6652 0.0000
# 6 0.0000 0.0000 0.0000 0.0000 0.0000 53.2848
#
#
#
# Elastic Compliance Matrix: (Units=1/GPa)
#
#
# Indices 1 2 3 4 5 6 
#
# 1 0.006173 -0.001971 -0.003535 0.000000 0.000000 0.000000
# 2 -0.001971 0.008056 -0.000030 0.000000 0.000000 0.000000
# 3 -0.003535 -0.000030 0.021385 0.000000 0.000000 0.000000
# 4 0.000000 0.000000 0.000000 -2.066753 0.000000 0.000000
# 5 0.000000 0.000000 0.000000 0.000000 0.037502 0.000000
# 6 0.000000 0.000000 0.000000 0.000000 0.000000 0.018767
#
#
# Mechanical properties :
#
#
# Convention : Reuss Voigt Hill
#
# Bulk Modulus (GPa) = 40.74529 62.36319 51.55424
# Shear Modulus (GPa) = -2.55674 35.58228 16.51277
#
# Velocity S-wave (km/s) = -1.09620 4.08944 2.78584
# Velocity P-wave (km/s) = 4.18902 7.18390 5.88032
#
# Compressibility (1/GPa) = 0.02454272
#
# Stress axis : x y z
#
# Youngs Moduli (GPa) = 161.99862 124.12458 46.76181
#
# Poissons Ratio (x) = 0.24467 0.16530
# Poissons Ratio (y) = 0.31933 0.00139
# Poissons Ratio (z) = 0.57265 0.00369
#
# Static dielectric constant tensor:
#      x y z
#    x 1.865950 0.000000 0.000000 
#    y 0.000000 1.807660 0.000000 
#    z 0.000000 0.000000 1.669610 
# 
# From -- ./inp_files/29627.got.cif
#   From: 2010.05.17/outbox.cif.g08.bks.cpg/sg68_15_cif.got.tgz:29627.got - 2010.06.03 18:57:09.
