data_PCOD9506845
_publ_section_title
;
Structure prediction by ZEFSAII (Michael W. Deem and Ramdas Pophale) SiO2 
 PCOD9506845
Probable space group: C C C A
;
_chemical_formula_sum "Si O2"
_cell_formula_units_Z 56
_cell_length_a 16.489756
_cell_length_b 14.822286
_cell_length_c 8.701907
_cell_angle_alpha 90.000000
_cell_angle_beta 90.000000
_cell_angle_gamma 90.000000
_cell_volume 2126.884253
_symmetry_space_group_name_H-M "C C C A"
_symmetry_group_IT_number 68
_space_group.IT_coordinate_system_code '2'
_symmetry_cell_setting 'orthorhombic'
loop_
_space_group_symop_operation_xyz
x,y,z
-x,1/2-y,z
x,1/2-y,1/2-z
-x,y,1/2-z
-x,-y,-z
x,1/2+y,-z
-x,1/2+y,1/2+z
x,-y,1/2+z
1/2+x,1/2+y,z
1/2-x,-y,z
1/2+x,-y,1/2-z
1/2-x,1/2+y,1/2-z
1/2-x,1/2-y,-z
1/2+x,y,-z
1/2-x,y,1/2+z
1/2+x,1/2-y,1/2+z
loop_
_atom_site_type_symbol
_atom_site_label
_atom_site_fract_x
_atom_site_fract_y
_atom_site_fract_z
Si Si1 0.547496 0.329717 0.914851
Si Si2 0.811427 0.926506 0.903672
Si Si3 0.696623 0.750000 0.250000
Si Si4 0.424031 0.977590 0.851336
O O1 0.500000 0.250000 0.001615
O O2 0.500000 0.337126 0.750000
O O3 0.636427 0.293111 0.876970
O O4 0.552994 0.434126 0.955149
O O5 0.767840 0.837586 0.835010
O O6 0.750000 0.000000 0.967726
O O7 0.860034 0.977242 0.768026
O O8 0.876691 0.908243 0.038569
O O9 0.500000 0.945547 0.750000
#
# Coordination Sequence:
#
# PCOD9506845 Si02
#       4
#    16  16   8  16
#     4   7  12  27  52  81 108 150 210 263 317 386
#     4  11  22  39  61  94 134 181 232 282 342 409
#     4   8  17  34  58  82 121 178 224 268 338 404
#     4  10  20  36  62  93 127 172 229 285 339 408
#
# _framework density 26.329595000000001
#
# number of rings (size 3 to 8) (size 9 to 14) (size 15 to 20)
#    0.000    3.143    0.000    3.429    0.000    0.000 
#    0.000   12.857    0.000    0.000    0.000   26.000 
#    0.000    0.000    0.000    4.286    0.000    0.571 
#
# Total GULP energy -156253.776000 kJ/mol
# GULP energy per Si atom -5580.492000 kJ/mol
# Density = 2.626967 g / cm^3
# Si number density = 26.329595 Si / 1000 Ang^3
#
#
#
# Elastic Constant Matrix: (Units=GPa)
#
#
# Indices 1 2 3 4 5 6 
#
# 1 60.4617 24.6244 26.2316 0.0000 0.0000 0.0000
# 2 24.6244 130.9958 24.2234 0.0000 0.0000 0.0000
# 3 26.2316 24.2234 115.3036 0.0000 0.0000 0.0000
# 4 0.0000 0.0000 0.0000 33.5559 0.0000 0.0000
# 5 0.0000 0.0000 0.0000 0.0000 22.1851 0.0000
# 6 0.0000 0.0000 0.0000 0.0000 0.0000 17.9959
#
#
#
# Elastic Compliance Matrix: (Units=1/GPa)
#
#
# Indices 1 2 3 4 5 6 
#
# 1 0.019383 -0.002942 -0.003791 0.000000 0.000000 0.000000
# 2 -0.002942 0.008389 -0.001093 0.000000 0.000000 0.000000
# 3 -0.003791 -0.001093 0.009765 0.000000 0.000000 0.000000
# 4 0.000000 0.000000 0.000000 0.029801 0.000000 0.000000
# 5 0.000000 0.000000 0.000000 0.000000 0.045075 0.000000
# 6 0.000000 0.000000 0.000000 0.000000 0.000000 0.055568
#
#
# Mechanical properties :
#
#
# Convention : Reuss Voigt Hill
#
# Bulk Modulus (GPa) = 45.69759 50.76887 48.23323
# Shear Modulus (GPa) = 26.18769 30.19282 28.19025
#
# Velocity S-wave (km/s) = 3.15717 3.39001 3.27566
# Velocity P-wave (km/s) = 5.53931 5.88615 5.71536
#
# Compressibility (1/GPa) = 0.02188299
#
# Stress axis : x y z
#
# Youngs Moduli (GPa) = 51.59244 119.20285 102.40738
#
# Poissons Ratio (x) = 0.35075 0.38827
# Poissons Ratio (y) = 0.15181 0.11193
# Poissons Ratio (z) = 0.19561 0.13029
#
# Static dielectric constant tensor:
#      x y z
#    x 2.220230 0.000000 0.000000 
#    y 0.000000 2.155080 0.000000 
#    z 0.000000 0.000000 2.097800 
# 
# From -- ./inp_files/6662.got.cif
#   From: 2010.05.17/outbox.cif.g08.bks.cpg/sg68_4_cif.got.tgz:6662.got - 2010.06.03 18:57:09.
