data_PCOD9506137
_publ_section_title
;
Structure prediction by ZEFSAII (Michael W. Deem and Ramdas Pophale) SiO2 
 PCOD9506137
Probable space group: C C C A
;
_chemical_formula_sum "Si O2"
_cell_formula_units_Z 72
_cell_length_a 10.718330
_cell_length_b 15.387192
_cell_length_c 18.785522
_cell_angle_alpha 90.000000
_cell_angle_beta 90.000000
_cell_angle_gamma 90.000000
_cell_volume 3098.202246
_symmetry_space_group_name_H-M "C C C A"
_symmetry_group_IT_number 68
_space_group.IT_coordinate_system_code '2'
_symmetry_cell_setting 'orthorhombic'
loop_
_space_group_symop_operation_xyz
x,y,z
-x,1/2-y,z
x,1/2-y,1/2-z
-x,y,1/2-z
-x,-y,-z
x,1/2+y,-z
-x,1/2+y,1/2+z
x,-y,1/2+z
1/2+x,1/2+y,z
1/2-x,-y,z
1/2+x,-y,1/2-z
1/2-x,1/2+y,1/2-z
1/2-x,1/2-y,-z
1/2+x,y,-z
1/2-x,y,1/2+z
1/2+x,1/2-y,1/2+z
loop_
_atom_site_type_symbol
_atom_site_label
_atom_site_fract_x
_atom_site_fract_y
_atom_site_fract_z
Si Si1 0.000000 0.404953 0.750000
Si Si2 0.272945 0.842720 0.276360
Si Si3 0.880704 0.539599 0.655739
Si Si4 0.488009 0.897233 0.016395
Si Si5 0.745892 0.106317 0.561983
O O1 0.126253 0.352383 0.740963
O O2 0.024152 0.464499 0.820089
O O3 0.318451 0.750000 0.250000
O O4 0.343066 0.913878 0.228935
O O5 0.283648 0.860915 0.359293
O O6 0.750000 0.500000 0.626708
O O7 0.937684 0.603101 0.597423
O O8 0.629055 0.863861 0.013438
O O9 0.379288 0.861793 0.966419
O O10 0.500000 0.000000 0.000000
O O11 0.750000 0.000000 0.563137
#
# Coordination Sequence:
#
# PCOD9506137 Si02
#       5
#     8  16  16  16  16
#     4  10  19  36  61  88 120 166 220 262 303 370
#     4  11  23  38  59  92 131 167 207 261 320 378
#     4  10  19  34  59  88 118 161 213 259 308 373
#     4  10  19  34  60  92 121 157 210 268 314 368
#     4  10  20  37  62  93 125 163 212 265 318 380
#
# _framework density 23.239283
#
# number of rings (size 3 to 8) (size 9 to 14) (size 15 to 20)
#    0.000    1.778    0.000    8.333    0.000    1.778 
#    0.000    6.111    0.000    5.333    0.000    1.556 
#    0.000    0.000    0.000    0.000    0.000    0.000 
#
# Total GULP energy -201357.338766 kJ/mol
# GULP energy per Si atom -5593.259410 kJ/mol
# Density = 2.318639 g / cm^3
# Si number density = 23.239283 Si / 1000 Ang^3
#
#
#
# Elastic Constant Matrix: (Units=GPa)
#
#
# Indices 1 2 3 4 5 6 
#
# 1 127.5062 16.7710 39.1644 0.0000 0.0000 0.0000
# 2 16.7710 44.0477 8.8772 0.0000 0.0000 0.0000
# 3 39.1644 8.8772 105.1588 0.0000 0.0000 0.0000
# 4 0.0000 0.0000 0.0000 7.3101 0.0000 0.0000
# 5 0.0000 0.0000 0.0000 0.0000 23.5706 0.0000
# 6 0.0000 0.0000 0.0000 0.0000 0.0000 3.4148
#
#
#
# Elastic Compliance Matrix: (Units=1/GPa)
#
#
# Indices 1 2 3 4 5 6 
#
# 1 0.009197 -0.002860 -0.003184 0.000000 0.000000 0.000000
# 2 -0.002860 0.023985 -0.000960 0.000000 0.000000 0.000000
# 3 -0.003184 -0.000960 0.010776 0.000000 0.000000 0.000000
# 4 0.000000 0.000000 0.000000 0.136796 0.000000 0.000000
# 5 0.000000 0.000000 0.000000 0.000000 0.042426 0.000000
# 6 0.000000 0.000000 0.000000 0.000000 0.000000 0.292845
#
#
# Mechanical properties :
#
#
# Convention : Reuss Voigt Hill
#
# Bulk Modulus (GPa) = 33.38756 45.14865 39.26811
# Shear Modulus (GPa) = 9.25900 20.98579 15.12239
#
# Velocity S-wave (km/s) = 1.99821 3.00831 2.55370
# Velocity P-wave (km/s) = 4.44093 5.61573 5.06252
#
# Compressibility (1/GPa) = 0.02995128
#
# Stress axis : x y z
#
# Youngs Moduli (GPa) = 108.73291 41.69275 92.79744
#
# Poissons Ratio (x) = 0.11924 0.29544
# Poissons Ratio (y) = 0.31098 0.08905
# Poissons Ratio (z) = 0.34618 0.04001
#
# Static dielectric constant tensor:
#      x y z
#    x 1.872700 0.000000 0.000000 
#    y 0.000000 1.821340 0.000000 
#    z 0.000000 0.000000 1.885950 
# 
# From -- ./inp_files/29419.got.cif
#   From: 2010.05.17/outbox.cif.g08.bks.cpg/sg68_15_cif.got.tgz:29419.got - 2010.06.03 18:57:09.
