data_PCOD9506924
_publ_section_title
;
Structure prediction by ZEFSAII (Michael W. Deem and Ramdas Pophale) SiO2 
 PCOD9506924
Probable space group: C C C A
;
_chemical_formula_sum "Si O2"
_cell_formula_units_Z 112
_cell_length_a 10.133532
_cell_length_b 28.966850
_cell_length_c 20.987660
_cell_angle_alpha 90.000000
_cell_angle_beta 90.000000
_cell_angle_gamma 90.000000
_cell_volume 6160.644289
_symmetry_space_group_name_H-M "C C C A"
_symmetry_group_IT_number 68
_space_group.IT_coordinate_system_code '2'
_symmetry_cell_setting 'orthorhombic'
loop_
_space_group_symop_operation_xyz
x,y,z
-x,1/2-y,z
x,1/2-y,1/2-z
-x,y,1/2-z
-x,-y,-z
x,1/2+y,-z
-x,1/2+y,1/2+z
x,-y,1/2+z
1/2+x,1/2+y,z
1/2-x,-y,z
1/2+x,-y,1/2-z
1/2-x,1/2+y,1/2-z
1/2-x,1/2-y,-z
1/2+x,y,-z
1/2-x,y,1/2+z
1/2+x,1/2-y,1/2+z
loop_
_atom_site_type_symbol
_atom_site_label
_atom_site_fract_x
_atom_site_fract_y
_atom_site_fract_z
Si Si1 0.662934 0.802452 0.624558
Si Si2 0.605698 0.989544 0.919782
Si Si3 0.352649 0.038591 0.224627
Si Si4 0.014752 0.076600 0.023679
Si Si5 0.843649 0.304719 0.620703
Si Si6 0.839619 0.856706 0.251416
Si Si7 0.234472 0.860096 0.994155
O O1 0.503421 0.805029 0.621492
O O2 0.699482 0.748538 0.624666
O O3 0.705193 0.829381 0.688634
O O4 0.718963 0.827310 0.562642
O O5 0.634182 0.966653 0.851824
O O6 0.750000 0.000000 0.949856
O O7 0.534584 0.039384 0.919736
O O8 0.521106 0.954865 0.962368
O O9 0.500000 0.031185 0.250000
O O10 0.305257 0.089362 0.245039
O O11 0.250000 0.000000 0.246844
O O12 0.148174 0.104740 0.011793
O O13 0.893331 0.111546 0.028959
O O14 0.797308 0.331609 0.683740
O O15 0.798651 0.330397 0.556897
O O16 0.000000 0.855431 0.250000
#
# Coordination Sequence:
#
# PCOD9506924 Si02
#       7
#    16  16  16  16  16  16  16
#     4  10  21  36  60  91 119 155 206 253 305 361
#     4  10  21  39  58  84 121 158 205 242 299 354
#     4  10  22  37  59  85 118 152 196 245 300 357
#     4  11  23  37  60  84 119 163 198 245 293 366
#     4  10  20  37  60  88 122 157 202 256 305 358
#     4   9  19  36  62  86 116 158 201 253 297 355
#     4  12  22  37  60  92 123 158 198 252 311 356
#
# _framework density 18.179918000000001
#
# number of rings (size 3 to 8) (size 9 to 14) (size 15 to 20)
#    0.000    1.714    2.857    1.714    6.000    2.857 
#    0.000    0.000    0.000    0.000    0.000    2.000 
#    0.000    0.000    0.000    0.000    0.000    0.000 
#
# Total GULP energy -312520.356067 kJ/mol
# GULP energy per Si atom -5580.720644 kJ/mol
# Density = 1.813854 g / cm^3
# Si number density = 18.179918 Si / 1000 Ang^3
#
#
#
# Elastic Constant Matrix: (Units=GPa)
#
#
# Indices 1 2 3 4 5 6 
#
# 1 49.1566 44.2829 10.0234 0.0000 0.0000 0.0000
# 2 44.2829 170.6477 67.0526 0.0000 0.0000 0.0000
# 3 10.0234 67.0526 96.9370 0.0000 0.0000 0.0000
# 4 0.0000 0.0000 0.0000 23.9494 0.0000 0.0000
# 5 0.0000 0.0000 0.0000 0.0000 25.3083 0.0000
# 6 0.0000 0.0000 0.0000 0.0000 0.0000 28.6462
#
#
#
# Elastic Compliance Matrix: (Units=1/GPa)
#
#
# Indices 1 2 3 4 5 6 
#
# 1 0.027104 -0.008147 0.002832 0.000000 0.000000 0.000000
# 2 -0.008147 0.010496 -0.006418 0.000000 0.000000 0.000000
# 3 0.002832 -0.006418 0.014462 0.000000 0.000000 0.000000
# 4 0.000000 0.000000 0.000000 0.041755 0.000000 0.000000
# 5 0.000000 0.000000 0.000000 0.000000 0.039513 0.000000
# 6 0.000000 0.000000 0.000000 0.000000 0.000000 0.034909
#
#
# Mechanical properties :
#
#
# Convention : Reuss Voigt Hill
#
# Bulk Modulus (GPa) = 34.96638 62.16212 48.56425
# Shear Modulus (GPa) = 24.84656 28.60627 26.72642
#
# Velocity S-wave (km/s) = 3.70091 3.97105 3.83836
# Velocity P-wave (km/s) = 6.12679 7.43590 6.81286
#
# Compressibility (1/GPa) = 0.02859890
#
# Stress axis : x y z
#
# Youngs Moduli (GPa) = 36.89433 95.27676 69.14534
#
# Poissons Ratio (x) = 0.77617 -0.19585
# Poissons Ratio (y) = 0.30056 0.44375
# Poissons Ratio (z) = -0.10450 0.61146
#
# Static dielectric constant tensor:
#      x y z
#    x 1.619970 0.000000 0.000000 
#    y 0.000000 1.638380 0.000000 
#    z 0.000000 0.000000 1.613410 
# 
# From -- ./inp_files/37829.got.cif
#   From: 2010.05.17/outbox.cif.g08.bks.cpg/sg68_19_cif.got.tgz:37829.got - 2010.06.03 18:57:09.
