data_PCOD9506895
_publ_section_title
;
Structure prediction by ZEFSAII (Michael W. Deem and Ramdas Pophale) SiO2 
 PCOD9506895
Probable space group: C C C A
;
_chemical_formula_sum "Si O2"
_cell_formula_units_Z 68
_cell_length_a 14.955614
_cell_length_b 14.697020
_cell_length_c 11.582925
_cell_angle_alpha 90.000000
_cell_angle_beta 90.000000
_cell_angle_gamma 90.000000
_cell_volume 2545.961178
_symmetry_space_group_name_H-M "C C C A"
_symmetry_group_IT_number 68
_space_group.IT_coordinate_system_code '2'
_symmetry_cell_setting 'orthorhombic'
loop_
_space_group_symop_operation_xyz
x,y,z
-x,1/2-y,z
x,1/2-y,1/2-z
-x,y,1/2-z
-x,-y,-z
x,1/2+y,-z
-x,1/2+y,1/2+z
x,-y,1/2+z
1/2+x,1/2+y,z
1/2-x,-y,z
1/2+x,-y,1/2-z
1/2-x,1/2+y,1/2-z
1/2-x,1/2-y,-z
1/2+x,y,-z
1/2-x,y,1/2+z
1/2+x,1/2-y,1/2+z
loop_
_atom_site_type_symbol
_atom_site_label
_atom_site_fract_x
_atom_site_fract_y
_atom_site_fract_z
Si Si1 0.500000 0.250000 0.902263
Si Si2 0.884674 0.972345 0.100084
Si Si3 0.750000 0.000000 0.303422
Si Si4 0.432630 0.896166 0.579493
Si Si5 0.314683 0.676071 0.438300
Si Si6 0.500000 0.250000 0.250000
O O1 0.599419 0.213218 0.865039
O O2 0.532770 0.335787 0.973784
O O3 0.834787 0.992167 0.217608
O O4 0.854283 0.875976 0.049893
O O5 0.864288 0.039938 0.992454
O O6 0.990394 0.966441 0.117386
O O7 0.735260 0.900270 0.361692
O O8 0.435282 0.818061 0.677685
O O9 0.250000 0.750000 0.500000
#
# Coordination Sequence:
#
# PCOD9506895 Si02
#       6
#     8  16   8  16  16   4
#     4   9  22  47  76 114 160 216 279 369 410 504
#     4  10  24  47  71 113 165 210 283 346 426 511
#     4  12  28  46  82 120 168 236 268 362 454 518
#     4   9  21  43  75 112 156 211 280 352 408 520
#     4  11  27  50  83 116 169 225 296 356 431 527
#     4  10  20  36  82 116 146 214 278 350 434 502
#
# _framework density 26.708969
#
# number of rings (size 3 to 8) (size 9 to 14) (size 15 to 20)
#    0.000    1.882    0.000    0.706    9.882    4.706 
#    0.000    2.353    0.000    0.000    0.000    0.000 
#    0.000    0.000    0.000    0.000    0.000    0.000 
#
# Total GULP energy -189399.484483 kJ/mol
# GULP energy per Si atom -5570.573073 kJ/mol
# Density = 2.664818 g / cm^3
# Si number density = 26.708969 Si / 1000 Ang^3
#
#
#
# Elastic Constant Matrix: (Units=GPa)
#
#
# Indices 1 2 3 4 5 6 
#
# 1 118.1415 66.6363 41.6152 0.0000 0.0000 0.0000
# 2 66.6363 186.1589 74.3573 0.0000 0.0000 0.0000
# 3 41.6152 74.3573 112.4916 0.0000 0.0000 0.0000
# 4 0.0000 0.0000 0.0000 59.6449 0.0000 0.0000
# 5 0.0000 0.0000 0.0000 0.0000 33.0666 0.0000
# 6 0.0000 0.0000 0.0000 0.0000 0.0000 44.8915
#
#
#
# Elastic Compliance Matrix: (Units=1/GPa)
#
#
# Indices 1 2 3 4 5 6 
#
# 1 0.010920 -0.003119 -0.001978 0.000000 0.000000 0.000000
# 2 -0.003119 0.008190 -0.004260 0.000000 0.000000 0.000000
# 3 -0.001978 -0.004260 0.012437 0.000000 0.000000 0.000000
# 4 0.000000 0.000000 0.000000 0.016766 0.000000 0.000000
# 5 0.000000 0.000000 0.000000 0.000000 0.030242 0.000000
# 6 0.000000 0.000000 0.000000 0.000000 0.000000 0.022276
#
#
# Mechanical properties :
#
#
# Convention : Reuss Voigt Hill
#
# Bulk Modulus (GPa) = 77.92078 86.88996 82.40537
# Shear Modulus (GPa) = 40.38056 43.13283 41.75669
#
# Velocity S-wave (km/s) = 3.89250 4.02297 3.95827
# Velocity P-wave (km/s) = 7.03132 7.36083 7.19796
#
# Compressibility (1/GPa) = 0.01283355
#
# Stress axis : x y z
#
# Youngs Moduli (GPa) = 91.57151 122.10730 80.40524
#
# Poissons Ratio (x) = 0.38083 0.15907
# Poissons Ratio (y) = 0.28559 0.34249
# Poissons Ratio (z) = 0.18116 0.52012
#
# Static dielectric constant tensor:
#      x y z
#    x 2.475740 0.000000 0.000000 
#    y 0.000000 2.355840 0.000000 
#    z 0.000000 0.000000 2.152220 
# 
# From -- ./inp_files/23458.got.cif
#   From: 2010.05.17/outbox.cif.g08.bks.cpg/sg68_12_cif.got.tgz:23458.got - 2010.06.03 18:57:09.
