data_PCOD9506029
_publ_section_title
;
Structure prediction by ZEFSAII (Michael W. Deem and Ramdas Pophale) SiO2 
 PCOD9506029
Probable space group: C C C A
;
_chemical_formula_sum "Si O2"
_cell_formula_units_Z 80
_cell_length_a 17.415780
_cell_length_b 7.696365
_cell_length_c 26.300634
_cell_angle_alpha 90.000000
_cell_angle_beta 90.000000
_cell_angle_gamma 90.000000
_cell_volume 3525.289631
_symmetry_space_group_name_H-M "C C C A"
_symmetry_group_IT_number 68
_space_group.IT_coordinate_system_code '2'
_symmetry_cell_setting 'orthorhombic'
loop_
_space_group_symop_operation_xyz
x,y,z
-x,1/2-y,z
x,1/2-y,1/2-z
-x,y,1/2-z
-x,-y,-z
x,1/2+y,-z
-x,1/2+y,1/2+z
x,-y,1/2+z
1/2+x,1/2+y,z
1/2-x,-y,z
1/2+x,-y,1/2-z
1/2-x,1/2+y,1/2-z
1/2-x,1/2-y,-z
1/2+x,y,-z
1/2-x,y,1/2+z
1/2+x,1/2-y,1/2+z
loop_
_atom_site_type_symbol
_atom_site_label
_atom_site_fract_x
_atom_site_fract_y
_atom_site_fract_z
Si Si1 0.662008 0.551945 0.727001
Si Si2 0.912117 0.265161 0.976607
Si Si3 0.667139 0.903983 0.062316
Si Si4 0.161262 0.967651 0.831243
Si Si5 0.913900 0.320471 0.632201
O O1 0.661503 0.750000 0.750000
O O2 0.750000 0.500000 0.714088
O O3 0.629412 0.440670 0.774810
O O4 0.611070 0.547398 0.676180
O O5 0.897295 0.455432 0.953753
O O6 0.902152 0.138522 0.927370
O O7 0.000000 0.250000 0.994593
O O8 0.848283 0.237774 0.019537
O O9 0.750000 0.000000 0.060567
O O10 0.653968 0.842117 0.120385
O O11 0.135314 0.150469 0.854551
O O12 0.250000 0.000000 0.820232
O O13 0.000000 0.250000 0.637957
#
# Coordination Sequence:
#
# PCOD9506029 Si02
#       5
#    16  16  16  16  16
#     4   9  17  31  51  75 100 130 164 206 254 300
#     4  10  20  34  51  74 105 134 165 206 254 299
#     4  10  19  33  52  74  99 132 172 209 245 296
#     4   8  16  30  48  68  96 130 162 196 248 302
#     4   9  18  31  50  77 101 128 168 209 244 293
#
# _framework density 22.693172000000001
#
# number of rings (size 3 to 8) (size 9 to 14) (size 15 to 20)
#    0.000    2.800    0.000    1.200    0.000    4.400 
#    0.000    6.000    0.000    0.000    0.000   30.800 
#    0.000    0.000    0.000    0.000    0.000    0.000 
#
# Total GULP energy -222722.149316 kJ/mol
# GULP energy per Si atom -5568.053733 kJ/mol
# Density = 2.264152 g / cm^3
# Si number density = 22.693172 Si / 1000 Ang^3
#
#
#
# Elastic Constant Matrix: (Units=GPa)
#
#
# Indices 1 2 3 4 5 6 
#
# 1 65.0139 6.9228 19.3720 0.0000 0.0000 0.0000
# 2 6.9228 24.6386 17.7189 0.0000 0.0000 0.0000
# 3 19.3720 17.7189 204.3432 0.0000 0.0000 0.0000
# 4 0.0000 0.0000 0.0000 16.1312 0.0000 0.0000
# 5 0.0000 0.0000 0.0000 0.0000 41.5776 0.0000
# 6 0.0000 0.0000 0.0000 0.0000 0.0000 16.0810
#
#
#
# Elastic Compliance Matrix: (Units=1/GPa)
#
#
# Indices 1 2 3 4 5 6 
#
# 1 0.016132 -0.003661 -0.001212 0.000000 0.000000 0.000000
# 2 -0.003661 0.044117 -0.003478 0.000000 0.000000 0.000000
# 3 -0.001212 -0.003478 0.005310 0.000000 0.000000 0.000000
# 4 0.000000 0.000000 0.000000 0.061992 0.000000 0.000000
# 5 0.000000 0.000000 0.000000 0.000000 0.024051 0.000000
# 6 0.000000 0.000000 0.000000 0.000000 0.000000 0.062185
#
#
# Mechanical properties :
#
#
# Convention : Reuss Voigt Hill
#
# Bulk Modulus (GPa) = 20.46811 42.44702 31.45757
# Shear Modulus (GPa) = 20.26128 31.42341 25.84235
#
# Velocity S-wave (km/s) = 2.99128 3.72520 3.37823
# Velocity P-wave (km/s) = 4.57924 6.10313 5.39526
#
# Compressibility (1/GPa) = 0.04885648
#
# Stress axis : x y z
#
# Youngs Moduli (GPa) = 61.98751 22.66706 188.31568
#
# Poissons Ratio (x) = 0.08299 0.22822
# Poissons Ratio (y) = 0.22695 0.65503
# Poissons Ratio (z) = 0.07512 0.07884
#
# Static dielectric constant tensor:
#      x y z
#    x 1.718170 0.000000 0.000000 
#    y 0.000000 1.969730 0.000000 
#    z 0.000000 0.000000 2.073670 
# 
# From -- ./inp_files/44065.got.cif
#   From: 2010.05.17/outbox.cif.g08.bks.cpg/sg68_23_cif.got.tgz:44065.got - 2010.06.03 18:57:09.
