data_PCOD9506594
_publ_section_title
;
Structure prediction by ZEFSAII (Michael W. Deem and Ramdas Pophale) SiO2 
 PCOD9506594
Probable space group: C C C A
;
_chemical_formula_sum "Si O2"
_cell_formula_units_Z 104
_cell_length_a 7.697873
_cell_length_b 21.777363
_cell_length_c 27.614747
_cell_angle_alpha 90.000000
_cell_angle_beta 90.000000
_cell_angle_gamma 90.000000
_cell_volume 4629.318918
_symmetry_space_group_name_H-M "C C C A"
_symmetry_group_IT_number 68
_space_group.IT_coordinate_system_code '2'
_symmetry_cell_setting 'orthorhombic'
loop_
_space_group_symop_operation_xyz
x,y,z
-x,1/2-y,z
x,1/2-y,1/2-z
-x,y,1/2-z
-x,-y,-z
x,1/2+y,-z
-x,1/2+y,1/2+z
x,-y,1/2+z
1/2+x,1/2+y,z
1/2-x,-y,z
1/2+x,-y,1/2-z
1/2-x,1/2+y,1/2-z
1/2-x,1/2-y,-z
1/2+x,y,-z
1/2-x,y,1/2+z
1/2+x,1/2-y,1/2+z
loop_
_atom_site_type_symbol
_atom_site_label
_atom_site_fract_x
_atom_site_fract_y
_atom_site_fract_z
Si Si1 0.892117 0.347596 0.457894
Si Si2 0.045764 0.566639 0.805838
Si Si3 0.269908 0.427410 0.970128
Si Si4 0.544893 0.312512 0.637698
Si Si5 0.037150 0.569443 0.306721
Si Si6 0.433556 0.850414 0.606446
Si Si7 0.000000 0.250000 0.537062
O O1 0.051521 0.396648 0.453558
O O2 0.922587 0.310821 0.409306
O O3 0.751267 0.394666 0.477924
O O4 0.896241 0.294447 0.499820
O O5 0.989251 0.625675 0.835185
O O6 0.974118 0.499395 0.819508
O O7 0.254099 0.566259 0.811224
O O8 0.000000 0.574639 0.750000
O O9 0.250000 0.500000 0.973195
O O10 0.129523 0.402898 0.931147
O O11 0.500000 0.250000 0.665672
O O12 0.749802 0.318469 0.623104
O O13 0.980629 0.619384 0.346269
O O14 0.000000 0.582167 0.250000
O O15 0.550473 0.802827 0.575972
#
# Coordination Sequence:
#
# PCOD9506594 Si02
#       7
#    16  16  16  16  16  16   8
#     4  10  21  34  57  78 112 153 184 228 272 320
#     4   9  19  36  59  84 110 141 180 230 282 334
#     4  10  21  35  54  82 114 146 187 231 275 327
#     4  10  20  34  56  81 111 150 188 220 270 334
#     4   9  18  37  61  82 107 141 181 228 287 334
#     4   9  21  34  58  80 107 151 184 227 275 330
#     4  10  20  38  53  80 113 146 194 222 268 326
#
# _framework density 22.465509000000001
#
# number of rings (size 3 to 8) (size 9 to 14) (size 15 to 20)
#    0.000    2.462    0.769    0.462    8.615    2.154 
#    2.769    0.385    3.385    0.000    0.000    0.000 
#    0.000    0.000    0.000    0.000    0.000    0.000 
#
# Total GULP energy -289615.330585 kJ/mol
# GULP energy per Si atom -5569.525588 kJ/mol
# Density = 2.241438 g / cm^3
# Si number density = 22.465509 Si / 1000 Ang^3
#
#
#
# Elastic Constant Matrix: (Units=GPa)
#
#
# Indices 1 2 3 4 5 6 
#
# 1 38.7219 18.4149 -3.5110 0.0000 0.0000 0.0000
# 2 18.4149 186.0662 72.5115 0.0000 0.0000 0.0000
# 3 -3.5110 72.5115 89.9432 0.0000 0.0000 0.0000
# 4 0.0000 0.0000 0.0000 12.3105 0.0000 0.0000
# 5 0.0000 0.0000 0.0000 0.0000 4.8429 0.0000
# 6 0.0000 0.0000 0.0000 0.0000 0.0000 18.1593
#
#
#
# Elastic Compliance Matrix: (Units=1/GPa)
#
#
# Indices 1 2 3 4 5 6 
#
# 1 0.028533 -0.004750 0.004944 0.000000 0.000000 0.000000
# 2 -0.004750 0.008627 -0.007141 0.000000 0.000000 0.000000
# 3 0.004944 -0.007141 0.017068 0.000000 0.000000 0.000000
# 4 0.000000 0.000000 0.000000 0.081231 0.000000 0.000000
# 5 0.000000 0.000000 0.000000 0.000000 0.206487 0.000000
# 6 0.000000 0.000000 0.000000 0.000000 0.000000 0.055068
#
#
# Mechanical properties :
#
#
# Convention : Reuss Voigt Hill
#
# Bulk Modulus (GPa) = 24.79382 54.39577 39.59479
# Shear Modulus (GPa) = 11.78262 22.21695 16.99978
#
# Velocity S-wave (km/s) = 2.29263 3.14815 2.75381
# Velocity P-wave (km/s) = 4.25071 6.12209 5.27013
#
# Compressibility (1/GPa) = 0.04033263
#
# Stress axis : x y z
#
# Youngs Moduli (GPa) = 35.04768 115.90992 58.58936
#
# Poissons Ratio (x) = 0.55062 -0.28964
# Poissons Ratio (y) = 0.16649 0.41837
# Poissons Ratio (z) = -0.17326 0.82769
#
# Static dielectric constant tensor:
#      x y z
#    x 2.264560 0.000000 0.000000 
#    y 0.000000 1.883760 0.000000 
#    z 0.000000 0.000000 1.851030 
# 
# From -- ./inp_files/54124.got.cif
#   From: 2010.05.17/outbox.cif.g08.bks.cpg/sg68_28_cif.got.tgz:54124.got - 2010.06.03 18:57:09.
