data_PCOD9506910
_publ_section_title
;
Structure prediction by ZEFSAII (Michael W. Deem and Ramdas Pophale) SiO2 
 PCOD9506910
Probable space group: C C C A
;
_chemical_formula_sum "Si O2"
_cell_formula_units_Z 112
_cell_length_a 14.572795
_cell_length_b 14.335837
_cell_length_c 26.978402
_cell_angle_alpha 90.000000
_cell_angle_beta 90.000000
_cell_angle_gamma 90.000000
_cell_volume 5636.144664
_symmetry_space_group_name_H-M "C C C A"
_symmetry_group_IT_number 68
_space_group.IT_coordinate_system_code '2'
_symmetry_cell_setting 'orthorhombic'
loop_
_space_group_symop_operation_xyz
x,y,z
-x,1/2-y,z
x,1/2-y,1/2-z
-x,y,1/2-z
-x,-y,-z
x,1/2+y,-z
-x,1/2+y,1/2+z
x,-y,1/2+z
1/2+x,1/2+y,z
1/2-x,-y,z
1/2+x,-y,1/2-z
1/2-x,1/2+y,1/2-z
1/2-x,1/2-y,-z
1/2+x,y,-z
1/2-x,y,1/2+z
1/2+x,1/2-y,1/2+z
loop_
_atom_site_type_symbol
_atom_site_label
_atom_site_fract_x
_atom_site_fract_y
_atom_site_fract_z
Si Si1 0.830378 0.344567 0.554637
Si Si2 0.354797 0.139463 0.240094
Si Si3 0.450816 0.843452 0.100647
Si Si4 0.147431 0.350282 0.501824
Si Si5 0.975561 0.639212 0.326901
Si Si6 0.731380 0.606869 0.152381
Si Si7 0.485320 0.957247 0.930557
O O1 0.853505 0.240096 0.537130
O O2 0.749029 0.376156 0.517341
O O3 0.792871 0.339519 0.611287
O O4 0.915905 0.414917 0.552989
O O5 0.360854 0.250000 0.250000
O O6 0.387550 0.107561 0.294288
O O7 0.434475 0.103981 0.202765
O O8 0.263052 0.121711 0.208978
O O9 0.500000 0.750000 0.117765
O O10 0.373336 0.871219 0.140210
O O11 0.508711 0.935114 0.085839
O O12 0.401503 0.819360 0.048835
O O13 0.089773 0.430973 0.528465
O O14 0.964779 0.600248 0.380987
O O15 0.000000 0.750000 0.329337
O O16 0.750000 0.500000 0.139607
#
# Coordination Sequence:
#
# PCOD9506910 Si02
#       7
#    16  16  16  16  16  16  16
#     4  10  20  37  58  97 126 162 218 264 328 390
#     4   9  18  32  55  94 125 148 195 269 335 382
#     4  11  24  41  57  88 129 174 227 264 318 386
#     4  10  23  35  60  94 132 167 209 276 328 386
#     4   9  17  31  58  97 127 146 195 273 337 378
#     4  11  20  39  64  89 122 174 220 267 322 404
#     4  12  20  37  66  88 128 174 221 266 329 388
#
# _framework density 19.871741
#
# number of rings (size 3 to 8) (size 9 to 14) (size 15 to 20)
#    0.000    1.714    2.857    3.429    2.000    0.000 
#    0.000    2.857    0.000    2.143    3.714    0.000 
#    0.000    0.000    0.000    0.000    0.000    0.000 
#
# Total GULP energy -312276.789910 kJ/mol
# GULP energy per Si atom -5576.371248 kJ/mol
# Density = 1.982651 g / cm^3
# Si number density = 19.871741 Si / 1000 Ang^3
#
#
#
# Elastic Constant Matrix: (Units=GPa)
#
#
# Indices 1 2 3 4 5 6 
#
# 1 93.8163 49.1310 42.4479 0.0000 0.0000 0.0000
# 2 49.1310 79.3081 26.7280 0.0000 0.0000 0.0000
# 3 42.4479 26.7280 88.5077 0.0000 0.0000 0.0000
# 4 0.0000 0.0000 0.0000 19.7046 0.0000 0.0000
# 5 0.0000 0.0000 0.0000 0.0000 27.4571 0.0000
# 6 0.0000 0.0000 0.0000 0.0000 0.0000 18.0676
#
#
#
# Elastic Compliance Matrix: (Units=1/GPa)
#
#
# Indices 1 2 3 4 5 6 
#
# 1 0.018199 -0.009277 -0.005927 0.000000 0.000000 0.000000
# 2 -0.009277 0.018766 -0.001218 0.000000 0.000000 0.000000
# 3 -0.005927 -0.001218 0.014509 0.000000 0.000000 0.000000
# 4 0.000000 0.000000 0.000000 0.050750 0.000000 0.000000
# 5 0.000000 0.000000 0.000000 0.000000 0.036421 0.000000
# 6 0.000000 0.000000 0.000000 0.000000 0.000000 0.055348
#
#
# Mechanical properties :
#
#
# Convention : Reuss Voigt Hill
#
# Bulk Modulus (GPa) = 53.67389 55.36062 54.51726
# Shear Modulus (GPa) = 21.45508 22.60087 22.02798
#
# Velocity S-wave (km/s) = 3.28941 3.37610 3.33304
# Velocity P-wave (km/s) = 6.44172 6.56634 6.50433
#
# Compressibility (1/GPa) = 0.01863103
#
# Stress axis : x y z
#
# Youngs Moduli (GPa) = 54.94851 53.28656 68.92415
#
# Poissons Ratio (x) = 0.49433 0.40849
# Poissons Ratio (y) = 0.50974 0.08396
# Poissons Ratio (z) = 0.32566 0.06491
#
# Static dielectric constant tensor:
#      x y z
#    x 1.769760 0.000000 0.000000 
#    y 0.000000 1.715220 0.000000 
#    z 0.000000 0.000000 1.705980 
# 
# From -- ./inp_files/50984.got.cif
#   From: 2010.05.17/outbox.cif.g08.bks.cpg/sg68_26_cif.got.tgz:50984.got - 2010.06.03 18:57:09.
