data_PCOD9506099
_publ_section_title
;
Structure prediction by ZEFSAII (Michael W. Deem and Ramdas Pophale) SiO2 
 PCOD9506099
Probable space group: C C C A
;
_chemical_formula_sum "Si O2"
_cell_formula_units_Z 88
_cell_length_a 20.005167
_cell_length_b 25.354401
_cell_length_c 8.932475
_cell_angle_alpha 90.000000
_cell_angle_beta 90.000000
_cell_angle_gamma 90.000000
_cell_volume 4530.721271
_symmetry_space_group_name_H-M "C C C A"
_symmetry_group_IT_number 68
_space_group.IT_coordinate_system_code '2'
_symmetry_cell_setting 'orthorhombic'
loop_
_space_group_symop_operation_xyz
x,y,z
-x,1/2-y,z
x,1/2-y,1/2-z
-x,y,1/2-z
-x,-y,-z
x,1/2+y,-z
-x,1/2+y,1/2+z
x,-y,1/2+z
1/2+x,1/2+y,z
1/2-x,-y,z
1/2+x,-y,1/2-z
1/2-x,1/2+y,1/2-z
1/2-x,1/2-y,-z
1/2+x,y,-z
1/2-x,y,1/2+z
1/2+x,1/2-y,1/2+z
loop_
_atom_site_type_symbol
_atom_site_label
_atom_site_fract_x
_atom_site_fract_y
_atom_site_fract_z
Si Si1 0.068074 0.635142 0.947512
Si Si2 0.334767 0.547426 0.080998
Si Si3 0.910692 0.149851 0.095830
Si Si4 0.951624 0.030721 0.612936
Si Si5 0.750000 0.000000 0.320035
Si Si6 0.418787 0.254560 0.078586
O O1 0.088668 0.641394 0.774814
O O2 0.987031 0.638253 0.952613
O O3 0.082503 0.580632 0.031755
O O4 0.097271 0.686723 0.025798
O O5 0.361668 0.604684 0.039120
O O6 0.394880 0.512124 0.149099
O O7 0.277949 0.544823 0.208312
O O8 0.306813 0.520781 0.931301
O O9 0.894581 0.207797 0.031312
O O10 0.000000 0.046773 0.750000
O O11 0.000000 0.000000 0.500000
O O12 0.500000 0.250000 0.075573
O O13 0.396832 0.250000 0.250000
#
# Coordination Sequence:
#
# PCOD9506099 Si02
#       6
#    16  16  16  16   8  16
#     4  10  20  32  51  85 121 154 184 226 299 377
#     4  11  22  39  58  83 116 158 203 252 302 352
#     4  10  19  34  55  78 117 154 193 237 295 359
#     4  12  23  34  57  89 124 155 193 246 315 379
#     4  10  24  40  56  80 114 162 218 254 286 352
#     4   9  19  31  50  79 118 156 189 225 282 363
#
# _framework density 19.422955999999999
#
# number of rings (size 3 to 8) (size 9 to 14) (size 15 to 20)
#    0.000    1.636    1.818    3.818    5.091    2.182 
#    0.000    0.000    0.000    0.000    0.000   31.818 
#    0.000    0.000    0.000    0.000    0.000    0.000 
#
# Total GULP energy -245505.455543 kJ/mol
# GULP energy per Si atom -5579.669444 kJ/mol
# Density = 1.937875 g / cm^3
# Si number density = 19.422956 Si / 1000 Ang^3
#
#
#
# Elastic Constant Matrix: (Units=GPa)
#
#
# Indices 1 2 3 4 5 6 
#
# 1 28.6741 12.8960 14.5172 0.0000 0.0000 0.0000
# 2 12.8960 148.4612 46.7161 0.0000 0.0000 0.0000
# 3 14.5172 46.7161 96.8753 0.0000 0.0000 0.0000
# 4 0.0000 0.0000 0.0000 26.9711 0.0000 0.0000
# 5 0.0000 0.0000 0.0000 0.0000 18.3260 0.0000
# 6 0.0000 0.0000 0.0000 0.0000 0.0000 16.9754
#
#
#
# Elastic Compliance Matrix: (Units=1/GPa)
#
#
# Indices 1 2 3 4 5 6 
#
# 1 0.038135 -0.001785 -0.004854 0.000000 0.000000 0.000000
# 2 -0.001785 0.008024 -0.003602 0.000000 0.000000 0.000000
# 3 -0.004854 -0.003602 0.012787 0.000000 0.000000 0.000000
# 4 0.000000 0.000000 0.000000 0.037077 0.000000 0.000000
# 5 0.000000 0.000000 0.000000 0.000000 0.054567 0.000000
# 6 0.000000 0.000000 0.000000 0.000000 0.000000 0.058909
#
#
# Mechanical properties :
#
#
# Convention : Reuss Voigt Hill
#
# Bulk Modulus (GPa) = 25.99828 46.91878 36.45853
# Shear Modulus (GPa) = 20.59287 25.77992 23.18640
#
# Velocity S-wave (km/s) = 3.25966 3.64715 3.45884
# Velocity P-wave (km/s) = 5.25181 6.47645 5.89601
#
# Compressibility (1/GPa) = 0.03846409
#
# Stress axis : x y z
#
# Youngs Moduli (GPa) = 26.22265 124.62178 78.20500
#
# Poissons Ratio (x) = 0.22248 0.37959
# Poissons Ratio (y) = 0.04681 0.28170
# Poissons Ratio (z) = 0.12728 0.44889
#
# Static dielectric constant tensor:
#      x y z
#    x 1.707020 0.000000 0.000000 
#    y 0.000000 1.682880 0.000000 
#    z 0.000000 0.000000 1.720520 
# 
# From -- ./inp_files/7119.got.cif
#   From: 2010.05.17/outbox.cif.g08.bks.cpg/sg68_4_cif.got.tgz:7119.got - 2010.06.03 18:57:09.
