data_PCOD9506475
_publ_section_title
;
Structure prediction by ZEFSAII (Michael W. Deem and Ramdas Pophale) SiO2 
 PCOD9506475
Probable space group: C C C A
;
_chemical_formula_sum "Si O2"
_cell_formula_units_Z 120
_cell_length_a 20.530715
_cell_length_b 12.174534
_cell_length_c 25.547981
_cell_angle_alpha 90.000000
_cell_angle_beta 90.000000
_cell_angle_gamma 90.000000
_cell_volume 6385.766081
_symmetry_space_group_name_H-M "C C C A"
_symmetry_group_IT_number 68
_space_group.IT_coordinate_system_code '2'
_symmetry_cell_setting 'orthorhombic'
loop_
_space_group_symop_operation_xyz
x,y,z
-x,1/2-y,z
x,1/2-y,1/2-z
-x,y,1/2-z
-x,-y,-z
x,1/2+y,-z
-x,1/2+y,1/2+z
x,-y,1/2+z
1/2+x,1/2+y,z
1/2-x,-y,z
1/2+x,-y,1/2-z
1/2-x,1/2+y,1/2-z
1/2-x,1/2-y,-z
1/2+x,y,-z
1/2-x,y,1/2+z
1/2+x,1/2-y,1/2+z
loop_
_atom_site_type_symbol
_atom_site_label
_atom_site_fract_x
_atom_site_fract_y
_atom_site_fract_z
Si Si1 0.283752 0.725426 0.808293
Si Si2 0.928936 0.749809 0.341584
Si Si3 0.638865 0.356405 0.968009
Si Si4 0.886390 0.949686 0.416503
Si Si5 0.250000 0.500000 0.361036
Si Si6 0.588797 0.577322 0.929343
Si Si7 0.734207 0.120134 0.093552
Si Si8 0.946543 0.841979 0.960776
O O1 0.259625 0.750000 0.750000
O O2 0.362292 0.745430 0.808853
O O3 0.259929 0.605251 0.824390
O O4 0.261187 0.798307 0.857828
O O5 0.916725 0.854915 0.379958
O O6 0.932128 0.638881 0.376882
O O7 0.000000 0.750000 0.315304
O O8 0.597814 0.445857 0.933514
O O9 0.713016 0.363171 0.951075
O O10 0.617609 0.232535 0.958923
O O11 0.627047 0.394776 0.027162
O O12 0.816990 0.995350 0.394961
O O13 0.935683 0.051305 0.425417
O O14 0.663472 0.620467 0.932783
O O15 0.547149 0.617050 0.979121
O O16 0.750000 0.000000 0.115847
O O17 0.000000 0.750000 0.948392
#
# Coordination Sequence:
#
# PCOD9506475 Si02
#       8
#    16  16  16  16   8  16  16  16
#     4  10  22  39  61  85 109 142 182 240 301 337
#     4  10  20  37  56  79 110 145 186 234 280 331
#     4  10  20  31  51  76 110 153 189 223 265 325
#     4  10  22  34  55  80 113 155 183 233 271 324
#     4  10  22  40  58  86 112 138 186 232 288 340
#     4   9  19  31  47  72 103 144 185 228 261 312
#     4   9  19  35  53  80 106 139 190 229 277 331
#     4  11  22  31  45  74 112 157 193 214 258 325
#
# _framework density 18.791793999999999
#
# number of rings (size 3 to 8) (size 9 to 14) (size 15 to 20)
#    0.000    2.133    1.333    1.200    7.467    1.867 
#    0.000    0.000    0.000    0.000    0.000    0.000 
#    0.000    4.800    0.000    0.000    0.000    0.000 
#
# Total GULP energy -334446.704436 kJ/mol
# GULP energy per Si atom -5574.111741 kJ/mol
# Density = 1.874902 g / cm^3
# Si number density = 18.791794 Si / 1000 Ang^3
#
#
#
# Elastic Constant Matrix: (Units=GPa)
#
#
# Indices 1 2 3 4 5 6 
#
# 1 65.8729 -2.5051 1.7980 0.0000 0.0000 0.0000
# 2 -2.5051 76.9706 31.0284 0.0000 0.0000 0.0000
# 3 1.7980 31.0284 57.6651 0.0000 0.0000 0.0000
# 4 0.0000 0.0000 0.0000 -3.2727 0.0000 0.0000
# 5 0.0000 0.0000 0.0000 0.0000 -495.2493 0.0000
# 6 0.0000 0.0000 0.0000 0.0000 0.0000 27.2396
#
#
#
# Elastic Compliance Matrix: (Units=1/GPa)
#
#
# Indices 1 2 3 4 5 6 
#
# 1 0.015240 0.000878 -0.000948 0.000000 0.000000 0.000000
# 2 0.000878 0.016641 -0.008982 0.000000 0.000000 0.000000
# 3 -0.000948 -0.008982 0.022204 0.000000 0.000000 0.000000
# 4 0.000000 0.000000 0.000000 -0.305561 0.000000 0.000000
# 5 0.000000 0.000000 0.000000 0.000000 -0.002019 0.000000
# 6 0.000000 0.000000 0.000000 0.000000 0.000000 0.036711
#
#
# Mechanical properties :
#
#
# Convention : Reuss Voigt Hill
#
# Bulk Modulus (GPa) = 27.79123 29.01680 28.40401
# Shear Modulus (GPa) = -26.78278 -82.91066 -54.84672
#
# Velocity S-wave (km/s) = -3.77933 -6.64955 -5.40832
# Velocity P-wave (km/s) = 2.05507 6.59398 4.88384
#
# Compressibility (1/GPa) = 0.03598258
#
# Stress axis : x y z
#
# Youngs Moduli (GPa) = 65.61680 60.09162 45.03707
#
# Poissons Ratio (x) = -0.05276 0.04268
# Poissons Ratio (y) = -0.05761 0.40451
# Poissons Ratio (z) = 0.06218 0.53972
#
# Static dielectric constant tensor:
#      x y z
#    x 1.727760 0.000000 0.000000 
#    y 0.000000 1.686560 0.000000 
#    z 0.000000 0.000000 1.616310 
# 
# From -- ./inp_files/51972.got.cif
#   From: 2010.05.17/outbox.cif.g08.bks.cpg/sg68_26_cif.got.tgz:51972.got - 2010.06.03 18:57:09.
