data_PCOD9506244
_publ_section_title
;
Structure prediction by ZEFSAII (Michael W. Deem and Ramdas Pophale) SiO2 
 PCOD9506244
Probable space group: C C C A
;
_chemical_formula_sum "Si O2"
_cell_formula_units_Z 96
_cell_length_a 16.594857
_cell_length_b 9.342580
_cell_length_c 30.868331
_cell_angle_alpha 90.000000
_cell_angle_beta 90.000000
_cell_angle_gamma 90.000000
_cell_volume 4785.788351
_symmetry_space_group_name_H-M "C C C A"
_symmetry_group_IT_number 68
_space_group.IT_coordinate_system_code '2'
_symmetry_cell_setting 'orthorhombic'
loop_
_space_group_symop_operation_xyz
x,y,z
-x,1/2-y,z
x,1/2-y,1/2-z
-x,y,1/2-z
-x,-y,-z
x,1/2+y,-z
-x,1/2+y,1/2+z
x,-y,1/2+z
1/2+x,1/2+y,z
1/2-x,-y,z
1/2+x,-y,1/2-z
1/2-x,1/2+y,1/2-z
1/2-x,1/2-y,-z
1/2+x,y,-z
1/2-x,y,1/2+z
1/2+x,1/2-y,1/2+z
loop_
_atom_site_type_symbol
_atom_site_label
_atom_site_fract_x
_atom_site_fract_y
_atom_site_fract_z
Si Si1 0.169863 0.907795 0.533592
Si Si2 0.591278 0.195932 0.469337
Si Si3 0.669067 0.094706 0.865504
Si Si4 0.910294 0.807642 0.370960
Si Si5 0.345716 0.847376 0.789336
Si Si6 0.845709 0.830249 0.708245
O O1 0.149186 0.777107 0.502579
O O2 0.175790 0.862281 0.583981
O O3 0.250000 0.000000 0.523839
O O4 0.099222 0.025172 0.526954
O O5 0.500000 0.250000 0.474738
O O6 0.618047 0.225519 0.419749
O O7 0.652075 0.226170 0.833487
O O8 0.750000 0.000000 0.854588
O O9 0.598224 0.977011 0.863560
O O10 0.859233 0.730508 0.334571
O O11 0.000000 0.750000 0.367123
O O12 0.379333 0.750000 0.750000
O O13 0.249663 0.852398 0.782992
O O14 0.379065 0.008434 0.793593
O O15 0.880682 0.750000 0.750000
#
# Coordination Sequence:
#
# PCOD9506244 Si02
#       6
#    16  16  16  16  16  16
#     4  10  21  36  57  84 115 151 191 246 295 334
#     4  10  21  38  57  81 114 154 195 234 290 357
#     4  10  19  36  58  82 116 149 192 241 287 340
#     4  10  21  37  56  80 114 154 189 232 290 349
#     4  10  20  35  56  84 113 146 189 235 288 345
#     4  10  20  33  58  86 110 145 189 239 285 337
#
# _framework density 20.059391999999999
#
# number of rings (size 3 to 8) (size 9 to 14) (size 15 to 20)
#    0.000    2.000    1.667    2.000    2.333    1.667 
#    3.000    0.833    0.000    1.000    0.000    0.000 
#    0.000    0.000    0.000    0.000    0.000    0.000 
#
# Total GULP energy -267697.579244 kJ/mol
# GULP energy per Si atom -5577.032901 kJ/mol
# Density = 2.001374 g / cm^3
# Si number density = 20.059392 Si / 1000 Ang^3
#
#
#
# Elastic Constant Matrix: (Units=GPa)
#
#
# Indices 1 2 3 4 5 6 
#
# 1 29.3278 16.7571 12.3729 0.0000 0.0000 0.0000
# 2 16.7571 140.6362 91.8037 0.0000 0.0000 0.0000
# 3 12.3729 91.8037 122.9260 0.0000 0.0000 0.0000
# 4 0.0000 0.0000 0.0000 -39.6574 0.0000 0.0000
# 5 0.0000 0.0000 0.0000 0.0000 50.1410 0.0000
# 6 0.0000 0.0000 0.0000 0.0000 0.0000 26.2034
#
#
#
# Elastic Compliance Matrix: (Units=1/GPa)
#
#
# Indices 1 2 3 4 5 6 
#
# 1 0.036632 -0.003820 -0.000834 0.000000 0.000000 0.000000
# 2 -0.003820 0.014273 -0.010275 0.000000 0.000000 0.000000
# 3 -0.000834 -0.010275 0.015892 0.000000 0.000000 0.000000
# 4 0.000000 0.000000 0.000000 -0.025216 0.000000 0.000000
# 5 0.000000 0.000000 0.000000 0.000000 0.019944 0.000000
# 6 0.000000 0.000000 0.000000 0.000000 0.000000 0.038163
#
#
# Mechanical properties :
#
#
# Convention : Reuss Voigt Hill
#
# Bulk Modulus (GPa) = 27.07168 59.41750 43.24459
# Shear Modulus (GPa) = 35.24627 18.80116 27.02372
#
# Velocity S-wave (km/s) = 4.19632 3.06482 3.67438
# Velocity P-wave (km/s) = 6.08308 6.49686 6.29337
#
# Compressibility (1/GPa) = 0.03693896
#
# Stress axis : x y z
#
# Youngs Moduli (GPa) = 27.29853 70.06324 62.92360
#
# Poissons Ratio (x) = 0.26767 0.05248
# Poissons Ratio (y) = 0.10429 0.64652
# Poissons Ratio (z) = 0.02277 0.71988
#
# Static dielectric constant tensor:
#      x y z
#    x 1.852810 0.000000 0.000000 
#    y 0.000000 1.742130 0.000000 
#    z 0.000000 0.000000 1.699560 
# 
# From -- ./inp_files/51724.got.cif
#   From: 2010.05.17/outbox.cif.g08.bks.cpg/sg68_26_cif.got.tgz:51724.got - 2010.06.03 18:57:09.
