data_PCOD9506994
_publ_section_title
;
Structure prediction by ZEFSAII (Michael W. Deem and Ramdas Pophale) SiO2 
 PCOD9506994
Probable space group: C C C A
;
_chemical_formula_sum "Si O2"
_cell_formula_units_Z 60
_cell_length_a 18.821249
_cell_length_b 29.891351
_cell_length_c 4.909346
_cell_angle_alpha 90.000000
_cell_angle_beta 90.000000
_cell_angle_gamma 90.000000
_cell_volume 2761.961535
_symmetry_space_group_name_H-M "C C C A"
_symmetry_group_IT_number 68
_space_group.IT_coordinate_system_code '2'
_symmetry_cell_setting 'orthorhombic'
loop_
_space_group_symop_operation_xyz
x,y,z
-x,1/2-y,z
x,1/2-y,1/2-z
-x,y,1/2-z
-x,-y,-z
x,1/2+y,-z
-x,1/2+y,1/2+z
x,-y,1/2+z
1/2+x,1/2+y,z
1/2-x,-y,z
1/2+x,-y,1/2-z
1/2-x,1/2+y,1/2-z
1/2-x,1/2-y,-z
1/2+x,y,-z
1/2-x,y,1/2+z
1/2+x,1/2-y,1/2+z
loop_
_atom_site_type_symbol
_atom_site_label
_atom_site_fract_x
_atom_site_fract_y
_atom_site_fract_z
Si Si1 0.568544 0.890362 0.547000
Si Si2 0.302275 0.250000 0.250000
Si Si3 0.000000 0.966212 0.750000
Si Si4 0.000000 0.812499 0.750000
Si Si5 0.301163 0.651448 0.797707
Si Si6 0.000000 0.250000 0.750000
O O1 0.500000 0.893417 0.750000
O O2 0.562437 0.931615 0.337466
O O3 0.559444 0.845630 0.366833
O O4 0.639859 0.884773 0.719255
O O5 0.250000 0.250000 0.500000
O O6 0.336209 0.200985 0.246489
O O7 0.000000 0.000000 0.500000
O O8 0.972747 0.784273 0.488821
O O9 0.233646 0.648230 0.594169
#
# Coordination Sequence:
#
# PCOD9506994 Si02
#       6
#    16   8   8   8  16   4
#     4  11  24  42  70 100 134 166 233 281 341 407
#     4   8  16  37  55  80 121 176 225 254 302 381
#     4  11  24  44  72 103 128 165 208 272 348 433
#     4  10  22  37  58  89 132 169 216 271 324 394
#     4  10  23  39  64  93 133 182 227 274 330 390
#     4  10  20  38  52  88 136 176 206 264 354 368
#
# _framework density 21.723692
#
# number of rings (size 3 to 8) (size 9 to 14) (size 15 to 20)
#    0.000    1.867    2.667    0.000    7.467    1.067 
#    0.000    2.667    0.000    4.800    0.000    0.000 
#    0.000    0.000    0.000    0.000    0.000    0.000 
#
# Total GULP energy -167046.153220 kJ/mol
# GULP energy per Si atom -5568.205107 kJ/mol
# Density = 2.167425 g / cm^3
# Si number density = 21.723692 Si / 1000 Ang^3
#
#
#
# Elastic Constant Matrix: (Units=GPa)
#
#
# Indices 1 2 3 4 5 6 
#
# 1 81.9948 34.3242 20.3526 0.0000 0.0000 0.0000
# 2 34.3242 116.1559 38.3119 0.0000 0.0000 0.0000
# 3 20.3526 38.3119 155.7793 0.0000 0.0000 0.0000
# 4 0.0000 0.0000 0.0000 60.6467 0.0000 0.0000
# 5 0.0000 0.0000 0.0000 0.0000 38.7093 0.0000
# 6 0.0000 0.0000 0.0000 0.0000 0.0000 18.3670
#
#
#
# Elastic Compliance Matrix: (Units=1/GPa)
#
#
# Indices 1 2 3 4 5 6 
#
# 1 0.014029 -0.003854 -0.000885 0.000000 0.000000 0.000000
# 2 -0.003854 0.010428 -0.002061 0.000000 0.000000 0.000000
# 3 -0.000885 -0.002061 0.007042 0.000000 0.000000 0.000000
# 4 0.000000 0.000000 0.000000 0.016489 0.000000 0.000000
# 5 0.000000 0.000000 0.000000 0.000000 0.025834 0.000000
# 6 0.000000 0.000000 0.000000 0.000000 0.000000 0.054445
#
#
# Mechanical properties :
#
#
# Convention : Reuss Voigt Hill
#
# Bulk Modulus (GPa) = 55.86984 59.98972 57.92978
# Shear Modulus (GPa) = 33.82216 40.94068 37.38142
#
# Velocity S-wave (km/s) = 3.95007 4.34592 4.15271
# Velocity P-wave (km/s) = 6.82483 7.27032 7.05109
#
# Compressibility (1/GPa) = 0.01789874
#
# Stress axis : x y z
#
# Youngs Moduli (GPa) = 71.28212 95.89876 142.00767
#
# Poissons Ratio (x) = 0.36955 0.12569
# Poissons Ratio (y) = 0.27469 0.29269
# Poissons Ratio (z) = 0.06309 0.19765
#
# Static dielectric constant tensor:
#      x y z
#    x 1.817280 0.000000 0.000000 
#    y 0.000000 1.853770 0.000000 
#    z 0.000000 0.000000 1.800710 
# 
# From -- ./inp_files/1082.got.cif
#   From: 2010.05.17/outbox.cif.g08.bks.cpg/sg68_1_cif.got.tgz:1082.got - 2010.06.03 18:57:09.
