data_PCOD9506214
_publ_section_title
;
Structure prediction by ZEFSAII (Michael W. Deem and Ramdas Pophale) SiO2 
 PCOD9506214
Probable space group: C C C A
;
_chemical_formula_sum "Si O2"
_cell_formula_units_Z 116
_cell_length_a 28.406121
_cell_length_b 11.309070
_cell_length_c 17.574484
_cell_angle_alpha 90.000000
_cell_angle_beta 90.000000
_cell_angle_gamma 90.000000
_cell_volume 5645.746937
_symmetry_space_group_name_H-M "C C C A"
_symmetry_group_IT_number 68
_space_group.IT_coordinate_system_code '2'
_symmetry_cell_setting 'orthorhombic'
loop_
_space_group_symop_operation_xyz
x,y,z
-x,1/2-y,z
x,1/2-y,1/2-z
-x,y,1/2-z
-x,-y,-z
x,1/2+y,-z
-x,1/2+y,1/2+z
x,-y,1/2+z
1/2+x,1/2+y,z
1/2-x,-y,z
1/2+x,-y,1/2-z
1/2-x,1/2+y,1/2-z
1/2-x,1/2-y,-z
1/2+x,y,-z
1/2-x,y,1/2+z
1/2+x,1/2-y,1/2+z
loop_
_atom_site_type_symbol
_atom_site_label
_atom_site_fract_x
_atom_site_fract_y
_atom_site_fract_z
Si Si1 0.359770 0.934320 0.444126
Si Si2 0.709884 0.715180 0.087595
Si Si3 0.283202 0.608531 0.575735
Si Si4 0.984330 0.382195 0.902947
Si Si5 0.928590 0.952320 0.947463
Si Si6 0.000000 0.750000 0.750000
Si Si7 0.372501 0.356100 0.812052
Si Si8 0.429095 0.444648 0.689229
O O1 0.323148 0.825256 0.442361
O O2 0.400316 0.905920 0.384805
O O3 0.334697 0.054464 0.413510
O O4 0.384935 0.967347 0.522899
O O5 0.759248 0.775468 0.111687
O O6 0.679435 0.650727 0.152098
O O7 0.719125 0.633047 0.015086
O O8 0.250000 0.500000 0.598055
O O9 0.956163 0.437497 0.832938
O O10 0.000000 0.250000 0.891028
O O11 0.029560 0.466118 0.916250
O O12 0.951156 0.389768 0.978394
O O13 0.907740 0.864458 0.884129
O O14 0.033503 0.659072 0.705681
O O15 0.374698 0.250000 0.750000
O O16 0.392611 0.459788 0.758512
#
# Coordination Sequence:
#
# PCOD9506214 Si02
#       8
#    16  16  16  16  16   4  16  16
#     4  10  19  36  59  89 122 161 214 263 321 389
#     4  10  19  35  63  91 120 158 202 270 325 383
#     4   9  19  35  61  90 120 157 205 259 325 395
#     4  10  24  42  59  91 129 175 229 277 328 382
#     4  10  23  38  61  93 125 168 220 280 326 376
#     4  12  20  40  58  96 124 164 240 280 324 392
#     4  12  22  38  63  94 125 164 213 266 330 397
#     4  11  23  37  63  91 126 179 215 271 331 383
#
# _framework density 20.546438999999999
#
# number of rings (size 3 to 8) (size 9 to 14) (size 15 to 20)
#    0.000    1.655    3.448    0.828    1.931    1.103 
#    6.207    3.103    3.034    0.000    0.000    0.000 
#    0.000    0.000    0.000    0.000    0.000    0.000 
#
# Total GULP energy -323241.721918 kJ/mol
# GULP energy per Si atom -5573.133137 kJ/mol
# Density = 2.049967 g / cm^3
# Si number density = 20.546439 Si / 1000 Ang^3
#
#
#
# Elastic Constant Matrix: (Units=GPa)
#
#
# Indices 1 2 3 4 5 6 
#
# 1 60.5168 9.9571 25.8408 0.0000 0.0000 0.0000
# 2 9.9571 66.5333 26.3776 0.0000 0.0000 0.0000
# 3 25.8408 26.3776 73.5684 0.0000 0.0000 0.0000
# 4 0.0000 0.0000 0.0000 18.1022 0.0000 0.0000
# 5 0.0000 0.0000 0.0000 0.0000 36.0634 0.0000
# 6 0.0000 0.0000 0.0000 0.0000 0.0000 33.5389
#
#
#
# Elastic Compliance Matrix: (Units=1/GPa)
#
#
# Indices 1 2 3 4 5 6 
#
# 1 0.019443 -0.000236 -0.006745 0.000000 0.000000 0.000000
# 2 -0.000236 0.017523 -0.006200 0.000000 0.000000 0.000000
# 3 -0.006745 -0.006200 0.018185 0.000000 0.000000 0.000000
# 4 0.000000 0.000000 0.000000 0.055242 0.000000 0.000000
# 5 0.000000 0.000000 0.000000 0.000000 0.027729 0.000000
# 6 0.000000 0.000000 0.000000 0.000000 0.000000 0.029816
#
#
# Mechanical properties :
#
#
# Convention : Reuss Voigt Hill
#
# Bulk Modulus (GPa) = 34.73420 36.10774 35.42097
# Shear Modulus (GPa) = 24.52223 26.77045 25.64634
#
# Velocity S-wave (km/s) = 3.45846 3.61352 3.53684
# Velocity P-wave (km/s) = 5.73497 5.91793 5.82717
#
# Compressibility (1/GPa) = 0.02879007
#
# Stress axis : x y z
#
# Youngs Moduli (GPa) = 51.43188 57.06643 54.99048
#
# Poissons Ratio (x) = 0.01345 0.37090
# Poissons Ratio (y) = 0.01212 0.34095
# Poissons Ratio (z) = 0.34690 0.35382
#
# Static dielectric constant tensor:
#      x y z
#    x 1.786400 0.000000 0.000000 
#    y 0.000000 1.785820 0.000000 
#    z 0.000000 0.000000 1.739560 
# 
# From -- ./inp_files/34449.got.cif
#   From: 2010.05.17/outbox.cif.g08.bks.cpg/sg68_18_cif.got.tgz:34449.got - 2010.06.03 18:57:09.
