data_PCOD9506799
_publ_section_title
;
Structure prediction by ZEFSAII (Michael W. Deem and Ramdas Pophale) SiO2 
 PCOD9506799
Probable space group: C C C A
;
_chemical_formula_sum "Si O2"
_cell_formula_units_Z 72
_cell_length_a 14.469988
_cell_length_b 28.285086
_cell_length_c 9.160849
_cell_angle_alpha 90.000000
_cell_angle_beta 90.000000
_cell_angle_gamma 90.000000
_cell_volume 3749.396755
_symmetry_space_group_name_H-M "C C C A"
_symmetry_group_IT_number 68
_space_group.IT_coordinate_system_code '2'
_symmetry_cell_setting 'orthorhombic'
loop_
_space_group_symop_operation_xyz
x,y,z
-x,1/2-y,z
x,1/2-y,1/2-z
-x,y,1/2-z
-x,-y,-z
x,1/2+y,-z
-x,1/2+y,1/2+z
x,-y,1/2+z
1/2+x,1/2+y,z
1/2-x,-y,z
1/2+x,-y,1/2-z
1/2-x,1/2+y,1/2-z
1/2-x,1/2-y,-z
1/2+x,y,-z
1/2-x,y,1/2+z
1/2+x,1/2-y,1/2+z
loop_
_atom_site_type_symbol
_atom_site_label
_atom_site_fract_x
_atom_site_fract_y
_atom_site_fract_z
Si Si1 0.820922 0.935085 0.489865
Si Si2 0.319493 0.350089 0.021475
Si Si3 0.684232 0.199293 0.324012
Si Si4 0.750000 0.500000 0.259478
Si Si5 0.975059 0.137359 0.918694
O O1 0.735527 0.897995 0.486794
O O2 0.811573 0.967861 0.347480
O O3 0.913163 0.904088 0.485195
O O4 0.809459 0.966968 0.633091
O O5 0.305029 0.337735 0.191252
O O6 0.428856 0.354221 0.999715
O O7 0.271249 0.308728 0.928485
O O8 0.676190 0.250000 0.250000
O O9 0.591354 0.183358 0.408374
O O10 0.000000 0.125598 0.750000
#
# Coordination Sequence:
#
# PCOD9506799 Si02
#       5
#    16  16  16   8  16
#     4  10  20  38  56  80 111 145 186 231 282 335
#     4  10  20  37  59  81 113 152 183 227 284 332
#     4  10  20  36  59  86 114 149 191 229 270 328
#     4  10  20  36  60  80 108 146 186 236 282 330
#     4   9  19  35  57  81 112 150 186 225 279 337
#
# _framework density 19.203088999999999
#
# number of rings (size 3 to 8) (size 9 to 14) (size 15 to 20)
#    0.000    2.222    0.000    4.667    0.000    4.000 
#    0.000   22.222    0.000    5.333    0.000    0.000 
#    0.000    0.000    0.000    0.000    0.000    0.000 
#
# Total GULP energy -200940.849410 kJ/mol
# GULP energy per Si atom -5581.690261 kJ/mol
# Density = 1.915938 g / cm^3
# Si number density = 19.203089 Si / 1000 Ang^3
#
#
#
# Elastic Constant Matrix: (Units=GPa)
#
#
# Indices 1 2 3 4 5 6 
#
# 1 162.1564 43.8174 38.0835 0.0000 0.0000 0.0000
# 2 43.8174 79.6316 19.3034 0.0000 0.0000 0.0000
# 3 38.0835 19.3034 58.2140 0.0000 0.0000 0.0000
# 4 0.0000 0.0000 0.0000 33.4178 0.0000 0.0000
# 5 0.0000 0.0000 0.0000 0.0000 24.5888 0.0000
# 6 0.0000 0.0000 0.0000 0.0000 0.0000 4.2352
#
#
#
# Elastic Compliance Matrix: (Units=1/GPa)
#
#
# Indices 1 2 3 4 5 6 
#
# 1 0.008067 -0.003436 -0.004138 0.000000 0.000000 0.000000
# 2 -0.003436 0.015119 -0.002766 0.000000 0.000000 0.000000
# 3 -0.004138 -0.002766 0.020802 0.000000 0.000000 0.000000
# 4 0.000000 0.000000 0.000000 0.029924 0.000000 0.000000
# 5 0.000000 0.000000 0.000000 0.000000 0.040669 0.000000
# 6 0.000000 0.000000 0.000000 0.000000 0.000000 0.236117
#
#
# Mechanical properties :
#
#
# Convention : Reuss Voigt Hill
#
# Bulk Modulus (GPa) = 42.90197 55.82340 49.36269
# Shear Modulus (GPa) = 13.18747 25.70154 19.44451
#
# Velocity S-wave (km/s) = 2.62341 3.66239 3.18555
# Velocity P-wave (km/s) = 5.61837 6.85692 6.26831
#
# Compressibility (1/GPa) = 0.02330895
#
# Stress axis : x y z
#
# Youngs Moduli (GPa) = 123.95866 66.14280 48.07160
#
# Poissons Ratio (x) = 0.22726 0.19893
# Poissons Ratio (y) = 0.42590 0.13295
# Poissons Ratio (z) = 0.51297 0.18292
#
# Static dielectric constant tensor:
#      x y z
#    x 1.659680 0.000000 0.000000 
#    y 0.000000 1.690230 0.000000 
#    z 0.000000 0.000000 1.673170 
# 
# From -- ./inp_files/5201.got.cif
#   From: 2010.05.17/outbox.cif.g08.bks.cpg/sg68_3_cif.got.tgz:5201.got - 2010.06.03 18:57:09.
