data_PCOD9506962
_publ_section_title
;
Structure prediction by ZEFSAII (Michael W. Deem and Ramdas Pophale) SiO2 
 PCOD9506962
Probable space group: C C C A
;
_chemical_formula_sum "Si O2"
_cell_formula_units_Z 88
_cell_length_a 11.663213
_cell_length_b 23.744328
_cell_length_c 15.046887
_cell_angle_alpha 90.000000
_cell_angle_beta 90.000000
_cell_angle_gamma 90.000000
_cell_volume 4167.011984
_symmetry_space_group_name_H-M "C C C A"
_symmetry_group_IT_number 68
_space_group.IT_coordinate_system_code '2'
_symmetry_cell_setting 'orthorhombic'
loop_
_space_group_symop_operation_xyz
x,y,z
-x,1/2-y,z
x,1/2-y,1/2-z
-x,y,1/2-z
-x,-y,-z
x,1/2+y,-z
-x,1/2+y,1/2+z
x,-y,1/2+z
1/2+x,1/2+y,z
1/2-x,-y,z
1/2+x,-y,1/2-z
1/2-x,1/2+y,1/2-z
1/2-x,1/2-y,-z
1/2+x,y,-z
1/2-x,y,1/2+z
1/2+x,1/2-y,1/2+z
loop_
_atom_site_type_symbol
_atom_site_label
_atom_site_fract_x
_atom_site_fract_y
_atom_site_fract_z
Si Si1 0.000000 0.668940 0.250000
Si Si2 0.140703 0.303098 0.914852
Si Si3 0.396060 0.718882 0.417479
Si Si4 0.413676 0.450445 0.673583
Si Si5 0.001229 0.105569 0.004794
Si Si6 0.345894 0.422430 0.161706
O O1 0.053961 0.700425 0.333263
O O2 0.100794 0.627741 0.217804
O O3 0.269129 0.291395 0.880731
O O4 0.121078 0.257916 0.993918
O O5 0.109236 0.364993 0.956302
O O6 0.500000 0.750000 0.366425
O O7 0.442105 0.658075 0.444715
O O8 0.500000 0.429678 0.750000
O O9 0.468717 0.440958 0.576853
O O10 0.385017 0.515692 0.693082
O O11 0.290925 0.419865 0.667047
O O12 0.094622 0.084669 0.934238
#
# Coordination Sequence:
#
# PCOD9506962 Si02
#       6
#     8  16  16  16  16  16
#     4  10  20  38  65  92 132 172 215 264 328 374
#     4   9  19  35  60  94 126 167 214 262 316 386
#     4   9  18  35  60  90 122 162 212 265 311 379
#     4  11  23  39  60  93 130 166 211 273 326 369
#     4  10  20  37  63  87 120 170 218 257 325 385
#     4  10  22  41  58  92 128 164 216 264 316 401
#
# _framework density 21.118251000000001
#
# number of rings (size 3 to 8) (size 9 to 14) (size 15 to 20)
#    0.000    2.182    0.909    1.636    2.545    0.000 
#    0.000   13.182    0.000    4.909    0.000    0.000 
#    0.000    0.000    0.000    0.000    0.000    0.000 
#
# Total GULP energy -245400.202839 kJ/mol
# GULP energy per Si atom -5577.277337 kJ/mol
# Density = 2.107018 g / cm^3
# Si number density = 21.118251 Si / 1000 Ang^3
#
#
#
# Elastic Constant Matrix: (Units=GPa)
#
#
# Indices 1 2 3 4 5 6 
#
# 1 135.4637 55.9703 31.6578 0.0000 0.0000 0.0000
# 2 55.9703 46.9707 24.5149 0.0000 0.0000 0.0000
# 3 31.6578 24.5149 82.0315 0.0000 0.0000 0.0000
# 4 0.0000 0.0000 0.0000 -0.0457 0.0000 0.0000
# 5 0.0000 0.0000 0.0000 0.0000 1.6216 0.0000
# 6 0.0000 0.0000 0.0000 0.0000 0.0000 26.3237
#
#
#
# Elastic Compliance Matrix: (Units=1/GPa)
#
#
# Indices 1 2 3 4 5 6 
#
# 1 0.014560 -0.017081 -0.000514 0.000000 0.000000 0.000000
# 2 -0.017081 0.045263 -0.006935 0.000000 0.000000 0.000000
# 3 -0.000514 -0.006935 0.014461 0.000000 0.000000 0.000000
# 4 0.000000 0.000000 0.000000-21.882122 0.000000 0.000000
# 5 0.000000 0.000000 0.000000 0.000000 0.616691 0.000000
# 6 0.000000 0.000000 0.000000 0.000000 0.000000 0.037989
#
#
# Mechanical properties :
#
#
# Convention : Reuss Voigt Hill
#
# Bulk Modulus (GPa) = 39.64497 54.30577 46.97537
# Shear Modulus (GPa) = -0.23702 15.73477 7.74888
#
# Velocity S-wave (km/s) = -0.33537 2.73258 1.91761
# Velocity P-wave (km/s) = 4.32014 5.97720 5.21491
#
# Compressibility (1/GPa) = 0.02522388
#
# Stress axis : x y z
#
# Youngs Moduli (GPa) = 68.68311 22.09321 69.14968
#
# Poissons Ratio (x) = 0.37737 0.03556
# Poissons Ratio (y) = 1.17316 0.47954
# Poissons Ratio (z) = 0.03532 0.15321
#
# Static dielectric constant tensor:
#      x y z
#    x 1.796610 0.000000 0.000000 
#    y 0.000000 1.772570 0.000000 
#    z 0.000000 0.000000 1.767210 
# 
# From -- ./inp_files/20951.got.cif
#   From: 2010.05.17/outbox.cif.g08.bks.cpg/sg68_11_cif.got.tgz:20951.got - 2010.06.03 18:57:09.
