data_PCOD9506483
_publ_section_title
;
Structure prediction by ZEFSAII (Michael W. Deem and Ramdas Pophale) SiO2 
 PCOD9506483
Probable space group: C C C A
;
_chemical_formula_sum "Si O2"
_cell_formula_units_Z 80
_cell_length_a 5.296034
_cell_length_b 29.691184
_cell_length_c 28.703878
_cell_angle_alpha 90.000000
_cell_angle_beta 90.000000
_cell_angle_gamma 90.000000
_cell_volume 4513.556221
_symmetry_space_group_name_H-M "C C C A"
_symmetry_group_IT_number 68
_space_group.IT_coordinate_system_code '2'
_symmetry_cell_setting 'orthorhombic'
loop_
_space_group_symop_operation_xyz
x,y,z
-x,1/2-y,z
x,1/2-y,1/2-z
-x,y,1/2-z
-x,-y,-z
x,1/2+y,-z
-x,1/2+y,1/2+z
x,-y,1/2+z
1/2+x,1/2+y,z
1/2-x,-y,z
1/2+x,-y,1/2-z
1/2-x,1/2+y,1/2-z
1/2-x,1/2-y,-z
1/2+x,y,-z
1/2-x,y,1/2+z
1/2+x,1/2-y,1/2+z
loop_
_atom_site_type_symbol
_atom_site_label
_atom_site_fract_x
_atom_site_fract_y
_atom_site_fract_z
Si Si1 0.241392 0.946659 0.030534
Si Si2 0.253420 0.769714 0.802725
Si Si3 0.185186 0.591979 0.870372
Si Si4 0.000000 0.560043 0.250000
Si Si5 0.800319 0.125450 0.681136
Si Si6 0.250000 0.000000 0.174766
O O1 0.264466 0.913981 0.074948
O O2 0.250000 0.000000 0.044290
O O3 0.478697 0.939566 0.996362
O O4 0.500000 0.750000 0.826949
O O5 0.252404 0.750000 0.750000
O O6 0.279388 0.823180 0.802435
O O7 0.000000 0.750000 0.824755
O O8 0.432538 0.612786 0.844207
O O9 0.134616 0.540225 0.854633
O O10 0.933923 0.616997 0.853304
O O11 0.793960 0.593402 0.272956
O O12 0.935246 0.526647 0.208459
#
# Coordination Sequence:
#
# PCOD9506483 Si02
#       6
#    16  16  16   8  16   8
#     4  10  20  36  58  82 108 147 189 229 285 343
#     4  10  20  35  55  76 104 142 183 229 278 331
#     4  11  22  37  53  80 115 142 190 232 274 324
#     4  10  20  34  49  72 106 154 203 222 258 320
#     4  11  23  35  55  79 110 149 187 237 273 319
#     4  10  20  32  48  70 104 156 186 228 256 300
#
# _framework density 17.724383
#
# number of rings (size 3 to 8) (size 9 to 14) (size 15 to 20)
#    0.000    1.600    1.000    4.800    0.000    9.600 
#    0.000    0.000    0.000    0.000    0.000    0.000 
#    0.000   56.000    0.000    0.000    0.000    0.000 
#
# Total GULP energy -222933.041369 kJ/mol
# GULP energy per Si atom -5573.326034 kJ/mol
# Density = 1.768404 g / cm^3
# Si number density = 17.724383 Si / 1000 Ang^3
#
#
#
# Elastic Constant Matrix: (Units=GPa)
#
#
# Indices 1 2 3 4 5 6 
#
# 1 132.7058 38.9633 24.8761 0.0000 0.0000 0.0000
# 2 38.9633 135.5846 29.3765 0.0000 0.0000 0.0000
# 3 24.8761 29.3765 73.7945 0.0000 0.0000 0.0000
# 4 0.0000 0.0000 0.0000 21.7989 0.0000 0.0000
# 5 0.0000 0.0000 0.0000 0.0000 16.2065 0.0000
# 6 0.0000 0.0000 0.0000 0.0000 0.0000 23.0126
#
#
#
# Elastic Compliance Matrix: (Units=1/GPa)
#
#
# Indices 1 2 3 4 5 6 
#
# 1 0.008510 -0.001996 -0.002074 0.000000 0.000000 0.000000
# 2 -0.001996 0.008540 -0.002727 0.000000 0.000000 0.000000
# 3 -0.002074 -0.002727 0.015336 0.000000 0.000000 0.000000
# 4 0.000000 0.000000 0.000000 0.045874 0.000000 0.000000
# 5 0.000000 0.000000 0.000000 0.000000 0.061704 0.000000
# 6 0.000000 0.000000 0.000000 0.000000 0.000000 0.043454
#
#
# Mechanical properties :
#
#
# Convention : Reuss Voigt Hill
#
# Bulk Modulus (GPa) = 53.21443 58.72408 55.96926
# Shear Modulus (GPa) = 24.59708 28.79487 26.69597
#
# Velocity S-wave (km/s) = 3.72930 4.03499 3.88515
# Velocity P-wave (km/s) = 6.97367 7.41026 7.19528
#
# Compressibility (1/GPa) = 0.01879189
#
# Stress axis : x y z
#
# Youngs Moduli (GPa) = 117.50343 117.09721 65.20691
#
# Poissons Ratio (x) = 0.23376 0.13525
# Poissons Ratio (y) = 0.23457 0.17780
# Poissons Ratio (z) = 0.24372 0.31929
#
# Static dielectric constant tensor:
#      x y z
#    x 1.638010 0.000000 0.000000 
#    y 0.000000 1.545620 0.000000 
#    z 0.000000 0.000000 1.608270 
# 
# From -- ./inp_files/48442.got.cif
#   From: 2010.05.17/outbox.cif.g08.bks.cpg/sg68_25_cif.got.tgz:48442.got - 2010.06.03 18:57:09.
