data_PCOD9506722
_publ_section_title
;
Structure prediction by ZEFSAII (Michael W. Deem and Ramdas Pophale) SiO2 
 PCOD9506722
Probable space group: C C C A
;
_chemical_formula_sum "Si O2"
_cell_formula_units_Z 80
_cell_length_a 8.738747
_cell_length_b 15.523625
_cell_length_c 26.157799
_cell_angle_alpha 90.000000
_cell_angle_beta 90.000000
_cell_angle_gamma 90.000000
_cell_volume 3548.489360
_symmetry_space_group_name_H-M "C C C A"
_symmetry_group_IT_number 68
_space_group.IT_coordinate_system_code '2'
_symmetry_cell_setting 'orthorhombic'
loop_
_space_group_symop_operation_xyz
x,y,z
-x,1/2-y,z
x,1/2-y,1/2-z
-x,y,1/2-z
-x,-y,-z
x,1/2+y,-z
-x,1/2+y,1/2+z
x,-y,1/2+z
1/2+x,1/2+y,z
1/2-x,-y,z
1/2+x,-y,1/2-z
1/2-x,1/2+y,1/2-z
1/2-x,1/2-y,-z
1/2+x,y,-z
1/2-x,y,1/2+z
1/2+x,1/2-y,1/2+z
loop_
_atom_site_type_symbol
_atom_site_label
_atom_site_fract_x
_atom_site_fract_y
_atom_site_fract_z
Si Si1 0.337277 0.851008 0.740300
Si Si2 0.791255 0.401908 0.136559
Si Si3 0.155358 0.090924 0.029809
Si Si4 0.194510 0.903745 0.929676
Si Si5 0.903924 0.839846 0.673857
O O1 0.349784 0.750000 0.750000
O O2 0.500000 0.895029 0.750000
O O3 0.305660 0.860333 0.680771
O O4 0.198438 0.872118 0.778993
O O5 0.750000 0.500000 0.130053
O O6 0.783173 0.360993 0.080455
O O7 0.960959 0.403939 0.159568
O O8 0.974923 0.085012 0.043974
O O9 0.250000 0.000000 0.027108
O O10 0.192562 0.129116 0.974495
O O11 0.188530 0.842603 0.879770
O O12 0.250000 0.000000 0.913809
O O13 0.000000 0.750000 0.683061
#
# Coordination Sequence:
#
# PCOD9506722 Si02
#       5
#    16  16  16  16  16
#     4  11  24  40  63  90 123 165 211 262 326 384
#     4  10  22  39  64  94 122 163 216 263 312 378
#     4   9  18  34  58  89 126 163 207 260 320 365
#     4  10  20  35  61  92 124 169 215 259 314 376
#     4  11  23  42  67  90 130 175 211 257 332 388
#
# _framework density 22.544806000000001
#
# number of rings (size 3 to 8) (size 9 to 14) (size 15 to 20)
#    0.000    1.800    2.000    3.000    0.000    8.800 
#    0.000    4.000    4.400    0.000    0.000    0.000 
#    0.000    0.000    0.000    0.000    0.000    0.000 
#
# Total GULP energy -222782.346377 kJ/mol
# GULP energy per Si atom -5569.558659 kJ/mol
# Density = 2.249349 g / cm^3
# Si number density = 22.544806 Si / 1000 Ang^3
#
#
#
# Elastic Constant Matrix: (Units=GPa)
#
#
# Indices 1 2 3 4 5 6 
#
# 1 50.9730 -8.9299 4.4761 0.0000 0.0000 0.0000
# 2 -8.9299 24.4795 1.7827 0.0000 0.0000 0.0000
# 3 4.4761 1.7827 122.3045 0.0000 0.0000 0.0000
# 4 0.0000 0.0000 0.0000 9.3787 0.0000 0.0000
# 5 0.0000 0.0000 0.0000 0.0000 39.8697 0.0000
# 6 0.0000 0.0000 0.0000 0.0000 0.0000 15.7810
#
#
#
# Elastic Compliance Matrix: (Units=1/GPa)
#
#
# Indices 1 2 3 4 5 6 
#
# 1 0.021052 0.007744 -0.000883 0.000000 0.000000 0.000000
# 2 0.007744 0.043743 -0.000921 0.000000 0.000000 0.000000
# 3 -0.000883 -0.000921 0.008222 0.000000 0.000000 0.000000
# 4 0.000000 0.000000 0.000000 0.106625 0.000000 0.000000
# 5 0.000000 0.000000 0.000000 0.000000 0.025082 0.000000
# 6 0.000000 0.000000 0.000000 0.000000 0.000000 0.063368
#
#
# Mechanical properties :
#
#
# Convention : Reuss Voigt Hill
#
# Bulk Modulus (GPa) = 11.77904 21.37942 16.57923
# Shear Modulus (GPa) = 17.57402 26.36773 21.97088
#
# Velocity S-wave (km/s) = 2.79501 3.42361 3.12515
# Velocity P-wave (km/s) = 3.95628 5.01316 4.51575
#
# Compressibility (1/GPa) = 0.08489656
#
# Stress axis : x y z
#
# Youngs Moduli (GPa) = 47.50038 22.86102 121.62391
#
# Poissons Ratio (x) = -0.17704 0.10744
# Poissons Ratio (y) = -0.36785 0.11201
# Poissons Ratio (z) = 0.04196 0.02105
#
# Static dielectric constant tensor:
#      x y z
#    x 1.937450 0.000000 0.000000 
#    y 0.000000 1.858810 0.000000 
#    z 0.000000 0.000000 1.949130 
# 
# From -- ./inp_files/49116.got.cif
#   From: 2010.05.17/outbox.cif.g08.bks.cpg/sg68_25_cif.got.tgz:49116.got - 2010.06.03 18:57:09.
