data_PCOD9506239
_publ_section_title
;
Structure prediction by ZEFSAII (Michael W. Deem and Ramdas Pophale) SiO2 
 PCOD9506239
Probable space group: C C C A
;
_chemical_formula_sum "Si O2"
_cell_formula_units_Z 68
_cell_length_a 13.980391
_cell_length_b 18.832808
_cell_length_c 12.136210
_cell_angle_alpha 90.000000
_cell_angle_beta 90.000000
_cell_angle_gamma 90.000000
_cell_volume 3195.342967
_symmetry_space_group_name_H-M "C C C A"
_symmetry_group_IT_number 68
_space_group.IT_coordinate_system_code '2'
_symmetry_cell_setting 'orthorhombic'
loop_
_space_group_symop_operation_xyz
x,y,z
-x,1/2-y,z
x,1/2-y,1/2-z
-x,y,1/2-z
-x,-y,-z
x,1/2+y,-z
-x,1/2+y,1/2+z
x,-y,1/2+z
1/2+x,1/2+y,z
1/2-x,-y,z
1/2+x,-y,1/2-z
1/2-x,1/2+y,1/2-z
1/2-x,1/2-y,-z
1/2+x,y,-z
1/2-x,y,1/2+z
1/2+x,1/2-y,1/2+z
loop_
_atom_site_type_symbol
_atom_site_label
_atom_site_fract_x
_atom_site_fract_y
_atom_site_fract_z
Si Si1 0.699466 0.921637 0.476069
Si Si2 0.495568 0.433688 0.582772
Si Si3 0.645046 0.970574 0.709558
Si Si4 0.611661 0.360280 0.102217
Si Si5 0.500000 0.750000 0.750000
O O1 0.606485 0.916489 0.398994
O O2 0.661655 0.919092 0.602753
O O3 0.778476 0.865308 0.438196
O O4 0.750000 0.000000 0.473944
O O5 0.500000 0.500000 0.500000
O O6 0.422282 0.464430 0.672120
O O7 0.447959 0.372651 0.509169
O O8 0.603588 0.926359 0.811264
O O9 0.750000 0.000000 0.736367
O O10 0.568847 0.295965 0.171007
#
# Coordination Sequence:
#
# PCOD9506239 Si02
#       5
#    16  16  16  16   4
#     4  10  19  36  57  91 121 150 195 258 315 355
#     4  10  19  36  57  89 123 151 191 259 317 356
#     4  10  20  36  64  98 119 154 191 260 331 352
#     4  12  23  42  57  89 127 158 211 241 297 381
#     4  12  28  40  64  80 122 186 204 238 288 372
#
# _framework density 21.280971999999998
#
# number of rings (size 3 to 8) (size 9 to 14) (size 15 to 20)
#    0.000    1.412    7.059    3.529    0.000    0.000 
#    4.235    4.706    0.000    0.000    0.000    1.647 
#    0.000    0.000    0.000    0.000    0.000    0.000 
#
# Total GULP energy -189791.107099 kJ/mol
# GULP energy per Si atom -5582.091385 kJ/mol
# Density = 2.123254 g / cm^3
# Si number density = 21.280972 Si / 1000 Ang^3
#
#
#
# Elastic Constant Matrix: (Units=GPa)
#
#
# Indices 1 2 3 4 5 6 
#
# 1 192.3858 38.4343 41.4629 0.0000 0.0000 0.0000
# 2 38.4343 54.8813 21.5314 0.0000 0.0000 0.0000
# 3 41.4629 21.5314 120.5955 0.0000 0.0000 0.0000
# 4 0.0000 0.0000 0.0000 20.8002 0.0000 0.0000
# 5 0.0000 0.0000 0.0000 0.0000 38.2595 0.0000
# 6 0.0000 0.0000 0.0000 0.0000 0.0000 25.4195
#
#
#
# Elastic Compliance Matrix: (Units=1/GPa)
#
#
# Indices 1 2 3 4 5 6 
#
# 1 0.006279 -0.003818 -0.001477 0.000000 0.000000 0.000000
# 2 -0.003818 0.021915 -0.002600 0.000000 0.000000 0.000000
# 3 -0.001477 -0.002600 0.009264 0.000000 0.000000 0.000000
# 4 0.000000 0.000000 0.000000 0.048076 0.000000 0.000000
# 5 0.000000 0.000000 0.000000 0.000000 0.026137 0.000000
# 6 0.000000 0.000000 0.000000 0.000000 0.000000 0.039340
#
#
# Mechanical properties :
#
#
# Convention : Reuss Voigt Hill
#
# Bulk Modulus (GPa) = 46.15091 63.41331 54.78211
# Shear Modulus (GPa) = 28.73160 34.65811 31.69486
#
# Velocity S-wave (km/s) = 3.67837 4.03996 3.86340
# Velocity P-wave (km/s) = 6.30667 7.18502 6.76013
#
# Compressibility (1/GPa) = 0.02166804
#
# Stress axis : x y z
#
# Youngs Moduli (GPa) = 159.26233 45.63111 107.94122
#
# Poissons Ratio (x) = 0.17421 0.15945
# Poissons Ratio (y) = 0.60802 0.28066
# Poissons Ratio (z) = 0.23526 0.11865
#
# Static dielectric constant tensor:
#      x y z
#    x 1.853750 0.000000 0.000000 
#    y 0.000000 1.752980 0.000000 
#    z 0.000000 0.000000 1.912640 
# 
# From -- ./inp_files/13032.got.cif
#   From: 2010.05.17/outbox.cif.g08.bks.cpg/sg68_7_cif.got.tgz:13032.got - 2010.06.03 18:57:09.
