data_PCOD9506794
_publ_section_title
;
Structure prediction by ZEFSAII (Michael W. Deem and Ramdas Pophale) SiO2 
 PCOD9506794
Probable space group: C C C A
;
_chemical_formula_sum "Si O2"
_cell_formula_units_Z 72
_cell_length_a 22.007889
_cell_length_b 5.246494
_cell_length_c 36.634551
_cell_angle_alpha 90.000000
_cell_angle_beta 90.000000
_cell_angle_gamma 90.000000
_cell_volume 4229.981233
_symmetry_space_group_name_H-M "C C C A"
_symmetry_group_IT_number 68
_space_group.IT_coordinate_system_code '2'
_symmetry_cell_setting 'orthorhombic'
loop_
_space_group_symop_operation_xyz
x,y,z
-x,1/2-y,z
x,1/2-y,1/2-z
-x,y,1/2-z
-x,-y,-z
x,1/2+y,-z
-x,1/2+y,1/2+z
x,-y,1/2+z
1/2+x,1/2+y,z
1/2-x,-y,z
1/2+x,-y,1/2-z
1/2-x,1/2+y,1/2-z
1/2-x,1/2-y,-z
1/2+x,y,-z
1/2-x,y,1/2+z
1/2+x,1/2-y,1/2+z
loop_
_atom_site_type_symbol
_atom_site_label
_atom_site_fract_x
_atom_site_fract_y
_atom_site_fract_z
Si Si1 0.618432 0.489905 0.352563
Si Si2 0.322941 0.499840 0.476770
Si Si3 0.677027 0.999669 0.226766
Si Si4 0.500000 0.750000 0.875150
Si Si5 0.618183 0.492840 0.102384
O O1 0.645713 0.502589 0.312509
O O2 0.546413 0.422170 0.351952
O O3 0.627577 0.750093 0.374736
O O4 0.645164 0.249924 0.375449
O O5 0.338886 0.243066 0.498498
O O6 0.250000 0.500000 0.471333
O O7 0.354661 0.512138 0.437650
O O8 0.660889 0.250000 0.250000
O O9 0.660910 0.750000 0.250000
O O10 0.750000 0.000000 0.221510
O O11 0.453808 0.576005 0.898278
#
# Coordination Sequence:
#
# PCOD9506794 Si02
#       5
#    16  16  16   8  16
#     4  10  20  36  60  79 112 146 187 226 271 321
#     4  10  21  37  56  83 117 145 178 228 281 330
#     4  10  21  37  57  84 117 144 177 229 282 330
#     4   8  22  36  59  78 114 140 190 236 260 320
#     4  10  20  36  59  80 111 145 187 227 272 320
#
# _framework density 17.021352
#
# number of rings (size 3 to 8) (size 9 to 14) (size 15 to 20)
#    1.333    0.889    0.000    3.333    0.000    1.778 
#    0.000    1.667    0.000    0.000    0.000    0.000 
#    0.000    0.000    0.000    0.000    0.000    0.000 
#
# Total GULP energy -200505.523084 kJ/mol
# GULP energy per Si atom -5569.597863 kJ/mol
# Density = 1.698261 g / cm^3
# Si number density = 17.021352 Si / 1000 Ang^3
#
#
#
# Elastic Constant Matrix: (Units=GPa)
#
#
# Indices 1 2 3 4 5 6 
#
# 1 42.4170 46.4847 72.2659 0.0000 0.0000 0.0000
# 2 46.4847 184.9437 107.0221 0.0000 0.0000 0.0000
# 3 72.2659 107.0221 195.7430 0.0000 0.0000 0.0000
# 4 0.0000 0.0000 0.0000 27.6002 0.0000 0.0000
# 5 0.0000 0.0000 0.0000 0.0000 79.1533 0.0000
# 6 0.0000 0.0000 0.0000 0.0000 0.0000 -0.2325
#
#
#
# Elastic Compliance Matrix: (Units=1/GPa)
#
#
# Indices 1 2 3 4 5 6 
#
# 1 0.065135 -0.003593 -0.022083 0.000000 0.000000 0.000000
# 2 -0.003593 0.008108 -0.003106 0.000000 0.000000 0.000000
# 3 -0.022083 -0.003106 0.014960 0.000000 0.000000 0.000000
# 4 0.000000 0.000000 0.000000 0.036232 0.000000 0.000000
# 5 0.000000 0.000000 0.000000 0.000000 0.012634 0.000000
# 6 0.000000 0.000000 0.000000 0.000000 0.000000 -4.301180
#
#
# Mechanical properties :
#
#
# Convention : Reuss Voigt Hill
#
# Bulk Modulus (GPa) = 32.63836 97.18325 64.91080
# Shear Modulus (GPa) = -1.22060 34.45961 16.61950
#
# Velocity S-wave (km/s) = -0.84774 4.50432 3.12812
# Velocity P-wave (km/s) = 4.27298 9.17991 7.15993
#
# Compressibility (1/GPa) = 0.03063880
#
# Stress axis : x y z
#
# Youngs Moduli (GPa) = 15.35270 123.33953 66.84535
#
# Poissons Ratio (x) = 0.44312 1.47613
# Poissons Ratio (y) = 0.05516 0.20765
# Poissons Ratio (z) = 0.33903 0.38315
#
# Static dielectric constant tensor:
#      x y z
#    x 1.574300 0.000000 0.000000 
#    y 0.000000 1.605820 0.000000 
#    z 0.000000 0.000000 1.516780 
# 
# From -- ./inp_files/47400.got.cif
#   From: 2010.05.17/outbox.cif.g08.bks.cpg/sg68_24_cif.got.tgz:47400.got - 2010.06.03 18:57:09.
