data_PCOD9506231
_publ_section_title
;
Structure prediction by ZEFSAII (Michael W. Deem and Ramdas Pophale) SiO2 
 PCOD9506231
Probable space group: C C C A
;
_chemical_formula_sum "Si O2"
_cell_formula_units_Z 88
_cell_length_a 7.904080
_cell_length_b 26.295986
_cell_length_c 14.598762
_cell_angle_alpha 90.000000
_cell_angle_beta 90.000000
_cell_angle_gamma 90.000000
_cell_volume 3034.288112
_symmetry_space_group_name_H-M "C C C A"
_symmetry_group_IT_number 68
_space_group.IT_coordinate_system_code '2'
_symmetry_cell_setting 'orthorhombic'
loop_
_space_group_symop_operation_xyz
x,y,z
-x,1/2-y,z
x,1/2-y,1/2-z
-x,y,1/2-z
-x,-y,-z
x,1/2+y,-z
-x,1/2+y,1/2+z
x,-y,1/2+z
1/2+x,1/2+y,z
1/2-x,-y,z
1/2+x,-y,1/2-z
1/2-x,1/2+y,1/2-z
1/2-x,1/2-y,-z
1/2+x,y,-z
1/2-x,y,1/2+z
1/2+x,1/2-y,1/2+z
loop_
_atom_site_type_symbol
_atom_site_label
_atom_site_fract_x
_atom_site_fract_y
_atom_site_fract_z
Si Si1 0.981830 0.359290 0.525162
Si Si2 0.814372 0.271275 0.902134
Si Si3 0.816752 0.104871 0.726350
Si Si4 0.000000 0.009152 0.750000
Si Si5 0.858794 0.953835 0.572976
Si Si6 0.156976 0.323257 0.357697
O O1 0.128519 0.329417 0.582678
O O2 0.965171 0.418237 0.494838
O O3 0.998807 0.331308 0.425343
O O4 0.810901 0.347354 0.580668
O O5 0.693145 0.235912 0.841223
O O6 0.000000 0.250000 0.878864
O O7 0.750000 0.250000 0.000000
O O8 0.769458 0.082976 0.627515
O O9 0.677528 0.142070 0.768179
O O10 0.000000 0.129228 0.750000
O O11 0.849855 0.049612 0.774791
O O12 0.961915 0.977239 0.659072
O O13 0.750000 0.000000 0.530727
#
# Coordination Sequence:
#
# PCOD9506231 Si02
#       6
#    16  16  16   8  16  16
#     4  10  21  34  61  88 120 160 207 263 322 383
#     4   8  16  33  54  85 109 145 195 244 304 366
#     4   9  20  34  58  82 123 164 205 254 316 378
#     4   8  18  34  56  80 116 170 206 256 310 388
#     4  10  19  36  56  85 124 168 214 262 316 397
#     4  10  20  36  59  92 116 162 205 262 321 384
#
# _framework density 29.001859
#
# number of rings (size 3 to 8) (size 9 to 14) (size 15 to 20)
#    0.545    2.182    0.000    1.091    2.545    0.000 
#    0.000    6.364    0.000    4.909    0.000   40.091 
#    0.000    0.000    0.000    0.000    0.000    0.000 
#
# Total GULP energy -245476.469353 kJ/mol
# GULP energy per Si atom -5579.010667 kJ/mol
# Density = 2.893585 g / cm^3
# Si number density = 29.001859 Si / 1000 Ang^3
#
#
#
# Elastic Constant Matrix: (Units=GPa)
#
#
# Indices 1 2 3 4 5 6 
#
# 1 132.7271 48.4792 50.3416 0.0000 0.0000 0.0000
# 2 48.4792 257.6706 65.4834 0.0000 0.0000 0.0000
# 3 50.3416 65.4834 129.8700 0.0000 0.0000 0.0000
# 4 0.0000 0.0000 0.0000 -24.7123 0.0000 0.0000
# 5 0.0000 0.0000 0.0000 0.0000 30.3111 0.0000
# 6 0.0000 0.0000 0.0000 0.0000 0.0000 37.2235
#
#
#
# Elastic Compliance Matrix: (Units=1/GPa)
#
#
# Indices 1 2 3 4 5 6 
#
# 1 0.009022 -0.000928 -0.003030 0.000000 0.000000 0.000000
# 2 -0.000928 0.004547 -0.001933 0.000000 0.000000 0.000000
# 3 -0.003030 -0.001933 0.009849 0.000000 0.000000 0.000000
# 4 0.000000 0.000000 0.000000 -0.040466 0.000000 0.000000
# 5 0.000000 0.000000 0.000000 0.000000 0.032991 0.000000
# 6 0.000000 0.000000 0.000000 0.000000 0.000000 0.026865
#
#
# Mechanical properties :
#
#
# Convention : Reuss Voigt Hill
#
# Bulk Modulus (GPa) = 85.92821 94.31956 90.12388
# Shear Modulus (GPa) = 85.51765 32.29536 58.90651
#
# Velocity S-wave (km/s) = 5.43608 3.34063 4.51169
# Velocity P-wave (km/s) = 8.31229 6.89001 7.63434
#
# Compressibility (1/GPa) = 0.01163762
#
# Stress axis : x y z
#
# Youngs Moduli (GPa) = 110.83875 219.94070 101.53291
#
# Poissons Ratio (x) = 0.20400 0.30760
# Poissons Ratio (y) = 0.10281 0.19626
# Poissons Ratio (z) = 0.33579 0.42515
#
# Static dielectric constant tensor:
#      x y z
#    x 2.547630 0.000000 0.000000 
#    y 0.000000 2.361380 0.000000 
#    z 0.000000 0.000000 2.335040 
# 
# From -- ./inp_files/21183.got.cif
#   From: 2010.05.17/outbox.cif.g08.bks.cpg/sg68_11_cif.got.tgz:21183.got - 2010.06.03 18:57:09.
