data_PCOD9506151
_publ_section_title
;
Structure prediction by ZEFSAII (Michael W. Deem and Ramdas Pophale) SiO2 
 PCOD9506151
Probable space group: C C C A
;
_chemical_formula_sum "Si O2"
_cell_formula_units_Z 88
_cell_length_a 19.853385
_cell_length_b 13.171156
_cell_length_c 16.100785
_cell_angle_alpha 90.000000
_cell_angle_beta 90.000000
_cell_angle_gamma 90.000000
_cell_volume 4210.226970
_symmetry_space_group_name_H-M "C C C A"
_symmetry_group_IT_number 68
_space_group.IT_coordinate_system_code '2'
_symmetry_cell_setting 'orthorhombic'
loop_
_space_group_symop_operation_xyz
x,y,z
-x,1/2-y,z
x,1/2-y,1/2-z
-x,y,1/2-z
-x,-y,-z
x,1/2+y,-z
-x,1/2+y,1/2+z
x,-y,1/2+z
1/2+x,1/2+y,z
1/2-x,-y,z
1/2+x,-y,1/2-z
1/2-x,1/2+y,1/2-z
1/2-x,1/2-y,-z
1/2+x,y,-z
1/2-x,y,1/2+z
1/2+x,1/2-y,1/2+z
loop_
_atom_site_type_symbol
_atom_site_label
_atom_site_fract_x
_atom_site_fract_y
_atom_site_fract_z
Si Si1 0.441279 0.329686 0.408904
Si Si2 0.001845 0.372502 0.427990
Si Si3 0.112181 0.344454 0.192812
Si Si4 0.872268 0.024702 0.346055
Si Si5 0.682983 0.307201 0.972741
Si Si6 0.250000 0.500000 0.960519
O O1 0.500000 0.250000 0.378871
O O2 0.481083 0.396555 0.477890
O O3 0.402148 0.408683 0.348455
O O4 0.379802 0.282452 0.465098
O O5 0.945492 0.399268 0.360663
O O6 0.000000 0.250000 0.426989
O O7 0.071240 0.412242 0.394615
O O8 0.088172 0.250000 0.250000
O O9 0.138975 0.429153 0.255468
O O10 0.161504 0.298476 0.122894
O O11 0.805244 0.044335 0.398294
O O12 0.750000 0.250000 0.000000
O O13 0.705327 0.423635 0.986068
#
# Coordination Sequence:
#
# PCOD9506151 Si02
#       6
#    16  16  16  16  16   8
#     4   9  21  38  61  94 126 173 217 259 321 394
#     4  10  19  34  61  96 127 157 208 268 329 381
#     4  11  21  35  61  96 127 163 210 272 336 382
#     4  11  21  37  62  94 134 159 216 271 320 390
#     4  10  22  41  62  91 130 172 215 270 319 395
#     4  10  24  40  62  90 124 174 216 256 324 394
#
# _framework density 20.901486999999999
#
# number of rings (size 3 to 8) (size 9 to 14) (size 15 to 20)
#    0.000    1.818    1.818    2.182    5.091    0.727 
#    0.000    0.000    4.000    2.182    0.000    1.273 
#    0.000    0.000    0.000    0.000    0.000    0.000 
#
# Total GULP energy -245198.581115 kJ/mol
# GULP energy per Si atom -5572.695025 kJ/mol
# Density = 2.085391 g / cm^3
# Si number density = 20.901487 Si / 1000 Ang^3
#
#
#
# Elastic Constant Matrix: (Units=GPa)
#
#
# Indices 1 2 3 4 5 6 
#
# 1 122.0691 12.8159 23.4130 0.0000 0.0000 0.0000
# 2 12.8159 49.3563 18.8491 0.0000 0.0000 0.0000
# 3 23.4130 18.8491 80.9500 0.0000 0.0000 0.0000
# 4 0.0000 0.0000 0.0000 21.0233 0.0000 0.0000
# 5 0.0000 0.0000 0.0000 0.0000 -27.2959 0.0000
# 6 0.0000 0.0000 0.0000 0.0000 0.0000 42.1640
#
#
#
# Elastic Compliance Matrix: (Units=1/GPa)
#
#
# Indices 1 2 3 4 5 6 
#
# 1 0.008765 -0.001435 -0.002201 0.000000 0.000000 0.000000
# 2 -0.001435 0.022473 -0.004818 0.000000 0.000000 0.000000
# 3 -0.002201 -0.004818 0.014112 0.000000 0.000000 0.000000
# 4 0.000000 0.000000 0.000000 0.047566 0.000000 0.000000
# 5 0.000000 0.000000 0.000000 0.000000 -0.036636 0.000000
# 6 0.000000 0.000000 0.000000 0.000000 0.000000 0.023717
#
#
# Mechanical properties :
#
#
# Convention : Reuss Voigt Hill
#
# Bulk Modulus (GPa) = 35.15922 40.28127 37.72025
# Shear Modulus (GPa) = 46.99853 20.33144 33.66499
#
# Velocity S-wave (km/s) = 4.74706 3.12224 4.01764
# Velocity P-wave (km/s) = 6.84865 5.68433 6.29347
#
# Compressibility (1/GPa) = 0.02844204
#
# Stress axis : x y z
#
# Youngs Moduli (GPa) = 114.09139 44.49699 70.86350
#
# Poissons Ratio (x) = 0.06387 0.15596
# Poissons Ratio (y) = 0.16377 0.34140
# Poissons Ratio (z) = 0.25110 0.21437
#
# Static dielectric constant tensor:
#      x y z
#    x 1.798960 0.000000 0.000000 
#    y 0.000000 1.861110 0.000000 
#    z 0.000000 0.000000 1.778410 
# 
# From -- ./inp_files/32822.got.cif
#   From: 2010.05.17/outbox.cif.g08.bks.cpg/sg68_17_cif.got.tgz:32822.got - 2010.06.03 18:57:09.
