data_PCOD9506145
_publ_section_title
;
Structure prediction by ZEFSAII (Michael W. Deem and Ramdas Pophale) SiO2 
 PCOD9506145
Probable space group: C C C A
;
_chemical_formula_sum "Si O2"
_cell_formula_units_Z 68
_cell_length_a 9.552417
_cell_length_b 16.519792
_cell_length_c 17.270805
_cell_angle_alpha 90.000000
_cell_angle_beta 90.000000
_cell_angle_gamma 90.000000
_cell_volume 2725.401109
_symmetry_space_group_name_H-M "C C C A"
_symmetry_group_IT_number 68
_space_group.IT_coordinate_system_code '2'
_symmetry_cell_setting 'orthorhombic'
loop_
_space_group_symop_operation_xyz
x,y,z
-x,1/2-y,z
x,1/2-y,1/2-z
-x,y,1/2-z
-x,-y,-z
x,1/2+y,-z
-x,1/2+y,1/2+z
x,-y,1/2+z
1/2+x,1/2+y,z
1/2-x,-y,z
1/2+x,-y,1/2-z
1/2-x,1/2+y,1/2-z
1/2-x,1/2-y,-z
1/2+x,y,-z
1/2-x,y,1/2+z
1/2+x,1/2-y,1/2+z
loop_
_atom_site_type_symbol
_atom_site_label
_atom_site_fract_x
_atom_site_fract_y
_atom_site_fract_z
Si Si1 0.969695 0.428537 0.896896
Si Si2 0.237786 0.334158 0.167652
Si Si3 0.508896 0.880556 0.429825
Si Si4 0.500000 0.750000 0.750000
Si Si5 0.253404 0.902952 0.673115
O O1 0.814670 0.409782 0.871624
O O2 0.985794 0.524878 0.905529
O O3 0.080531 0.393566 0.835153
O O4 0.000143 0.383974 0.978012
O O5 0.103851 0.322981 0.112377
O O6 0.373417 0.278533 0.187521
O O7 0.186812 0.361921 0.252139
O O8 0.667519 0.868952 0.399603
O O9 0.250000 0.000000 0.678351
#
# Coordination Sequence:
#
# PCOD9506145 Si02
#       5
#    16  16  16   4  16
#     4  10  19  37  62  97 134 159 189 262 348 408
#     4  12  22  41  61  82 127 174 222 262 310 375
#     4  10  21  34  64 101 128 155 202 269 342 394
#     4  12  28  44  62  80 124 192 240 262 296 364
#     4  10  19  34  60  95 126 157 202 264 336 398
#
# _framework density 24.950455000000002
#
# number of rings (size 3 to 8) (size 9 to 14) (size 15 to 20)
#    0.000    1.412    2.353    4.235    0.000    7.529 
#    0.000    3.529    0.000    0.000    0.000    0.000 
#    0.000    0.000    0.000    0.000    0.000    0.000 
#
# Total GULP energy -189403.567794 kJ/mol
# GULP energy per Si atom -5570.693170 kJ/mol
# Density = 2.489367 g / cm^3
# Si number density = 24.950455 Si / 1000 Ang^3
#
#
#
# Elastic Constant Matrix: (Units=GPa)
#
#
# Indices 1 2 3 4 5 6 
#
# 1 126.5578 6.8071 15.0291 0.0000 0.0000 0.0000
# 2 6.8071 53.7717 1.4826 0.0000 0.0000 0.0000
# 3 15.0291 1.4826 69.9643 0.0000 0.0000 0.0000
# 4 0.0000 0.0000 0.0000 5.1518 0.0000 0.0000
# 5 0.0000 0.0000 0.0000 0.0000 81.2282 0.0000
# 6 0.0000 0.0000 0.0000 0.0000 0.0000 -15.0067
#
#
#
# Elastic Compliance Matrix: (Units=1/GPa)
#
#
# Indices 1 2 3 4 5 6 
#
# 1 0.008160 -0.000985 -0.001732 0.000000 0.000000 0.000000
# 2 -0.000985 0.018727 -0.000185 0.000000 0.000000 0.000000
# 3 -0.001732 -0.000185 0.014669 0.000000 0.000000 0.000000
# 4 0.000000 0.000000 0.000000 0.194107 0.000000 0.000000
# 5 0.000000 0.000000 0.000000 0.000000 0.012311 0.000000
# 6 0.000000 0.000000 0.000000 0.000000 0.000000 -0.066637
#
#
# Mechanical properties :
#
#
# Convention : Reuss Voigt Hill
#
# Bulk Modulus (GPa) = 27.97111 32.99239 30.48175
# Shear Modulus (GPa) = 25.11820 29.40634 27.26227
#
# Velocity S-wave (km/s) = 3.17633 3.43678 3.30912
# Velocity P-wave (km/s) = 4.96861 5.38521 5.18110
#
# Compressibility (1/GPa) = 0.03575117
#
# Stress axis : x y z
#
# Youngs Moduli (GPa) = 122.54600 53.39894 68.17105
#
# Poissons Ratio (x) = 0.05261 0.11807
# Poissons Ratio (y) = 0.12074 0.01263
# Poissons Ratio (z) = 0.21225 0.00989
#
# Static dielectric constant tensor:
#      x y z
#    x 1.907540 0.000000 0.000000 
#    y 0.000000 2.089750 0.000000 
#    z 0.000000 0.000000 1.942960 
# 
# From -- ./inp_files/27959.got.cif
#   From: 2010.05.17/outbox.cif.g08.bks.cpg/sg68_14_cif.got.tgz:27959.got - 2010.06.03 18:57:09.
