data_PCOD9506713
_publ_section_title
;
Structure prediction by ZEFSAII (Michael W. Deem and Ramdas Pophale) SiO2 
 PCOD9506713
Probable space group: C C C A
;
_chemical_formula_sum "Si O2"
_cell_formula_units_Z 88
_cell_length_a 22.117224
_cell_length_b 13.505578
_cell_length_c 11.570506
_cell_angle_alpha 90.000000
_cell_angle_beta 90.000000
_cell_angle_gamma 90.000000
_cell_volume 3456.178337
_symmetry_space_group_name_H-M "C C C A"
_symmetry_group_IT_number 68
_space_group.IT_coordinate_system_code '2'
_symmetry_cell_setting 'orthorhombic'
loop_
_space_group_symop_operation_xyz
x,y,z
-x,1/2-y,z
x,1/2-y,1/2-z
-x,y,1/2-z
-x,-y,-z
x,1/2+y,-z
-x,1/2+y,1/2+z
x,-y,1/2+z
1/2+x,1/2+y,z
1/2-x,-y,z
1/2+x,-y,1/2-z
1/2-x,1/2+y,1/2-z
1/2-x,1/2-y,-z
1/2+x,y,-z
1/2-x,y,1/2+z
1/2+x,1/2-y,1/2+z
loop_
_atom_site_type_symbol
_atom_site_label
_atom_site_fract_x
_atom_site_fract_y
_atom_site_fract_z
Si Si1 0.566556 0.925524 0.466902
Si Si2 0.113764 0.609375 0.613412
Si Si3 0.185742 0.876355 0.113950
Si Si4 0.393873 0.750000 0.750000
Si Si5 0.500000 0.250000 0.429186
Si Si6 0.500000 0.089700 0.750000
Si Si7 0.681493 0.389571 0.650471
O O1 0.513912 0.852619 0.507992
O O2 0.538406 0.970560 0.347346
O O3 0.623122 0.859624 0.424118
O O4 0.589281 0.002944 0.562780
O O5 0.148173 0.651257 0.500754
O O6 0.053880 0.647491 0.682773
O O7 0.163865 0.612365 0.714838
O O8 0.150737 0.840902 0.228334
O O9 0.254930 0.840388 0.119755
O O10 0.186729 0.994745 0.117660
O O11 0.439992 0.755354 0.645715
#
# Coordination Sequence:
#
# PCOD9506713 Si02
#       7
#    16  16  16   8   8   8  16
#     4  10  21  38  59  88 122 162 204 258 307 362
#     4  10  20  37  63  92 122 159 208 259 305 361
#     4  10  21  40  63  92 126 162 206 258 309 367
#     4  11  24  40  60  92 126 165 204 252 316 375
#     4  11  24  39  58  86 128 167 200 247 312 372
#     4  10  20  35  60  89 116 158 208 252 306 363
#     4   9  21  39  65  92 119 164 216 255 302 367
#
# _framework density 25.461649999999999
#
# number of rings (size 3 to 8) (size 9 to 14) (size 15 to 20)
#    0.000    2.000    0.000    2.727    0.000   12.000 
#    0.000    7.273    0.000    0.000    0.000    0.000 
#    0.000    0.000    0.000    0.000    0.000    0.000 
#
# Total GULP energy -245412.186823 kJ/mol
# GULP energy per Si atom -5577.549701 kJ/mol
# Density = 2.540370 g / cm^3
# Si number density = 25.461650 Si / 1000 Ang^3
#
#
#
# Elastic Constant Matrix: (Units=GPa)
#
#
# Indices 1 2 3 4 5 6 
#
# 1 189.9362 33.2369 105.5844 0.0000 0.0000 0.0000
# 2 33.2369 62.1629 44.4115 0.0000 0.0000 0.0000
# 3 105.5844 44.4115 136.0494 0.0000 0.0000 0.0000
# 4 0.0000 0.0000 0.0000 17.6378 0.0000 0.0000
# 5 0.0000 0.0000 0.0000 0.0000 17.3710 0.0000
# 6 0.0000 0.0000 0.0000 0.0000 0.0000 25.3520
#
#
#
# Elastic Compliance Matrix: (Units=1/GPa)
#
#
# Indices 1 2 3 4 5 6 
#
# 1 0.009262 0.000239 -0.007266 0.000000 0.000000 0.000000
# 2 0.000239 0.020986 -0.007036 0.000000 0.000000 0.000000
# 3 -0.007266 -0.007036 0.015286 0.000000 0.000000 0.000000
# 4 0.000000 0.000000 0.000000 0.056696 0.000000 0.000000
# 5 0.000000 0.000000 0.000000 0.000000 0.057567 0.000000
# 6 0.000000 0.000000 0.000000 0.000000 0.000000 0.039445
#
#
# Mechanical properties :
#
#
# Convention : Reuss Voigt Hill
#
# Bulk Modulus (GPa) = 57.44559 83.84602 70.64581
# Shear Modulus (GPa) = 21.44341 25.73322 23.58831
#
# Velocity S-wave (km/s) = 2.90519 3.18255 3.04703
# Velocity P-wave (km/s) = 5.81929 6.81958 6.33919
#
# Compressibility (1/GPa) = 0.01740778
#
# Stress axis : x y z
#
# Youngs Moduli (GPa) = 107.96315 47.65138 65.41814
#
# Poissons Ratio (x) = -0.01139 0.47535
# Poissons Ratio (y) = -0.02580 0.46028
# Poissons Ratio (z) = 0.78450 0.33527
#
# Static dielectric constant tensor:
#      x y z
#    x 2.097420 0.000000 0.000000 
#    y 0.000000 2.100610 0.000000 
#    z 0.000000 0.000000 2.064280 
# 
# From -- ./inp_files/16361.got.cif
#   From: 2010.05.17/outbox.cif.g08.bks.cpg/sg68_9_cif.got.tgz:16361.got - 2010.06.03 18:57:09.
