data_PCOD9506406
_publ_section_title
;
Structure prediction by ZEFSAII (Michael W. Deem and Ramdas Pophale) SiO2 
 PCOD9506406
Probable space group: C C C A
;
_chemical_formula_sum "Si O2"
_cell_formula_units_Z 112
_cell_length_a 14.987453
_cell_length_b 15.564744
_cell_length_c 23.503575
_cell_angle_alpha 90.000000
_cell_angle_beta 90.000000
_cell_angle_gamma 90.000000
_cell_volume 5482.816886
_symmetry_space_group_name_H-M "C C C A"
_symmetry_group_IT_number 68
_space_group.IT_coordinate_system_code '2'
_symmetry_cell_setting 'orthorhombic'
loop_
_space_group_symop_operation_xyz
x,y,z
-x,1/2-y,z
x,1/2-y,1/2-z
-x,y,1/2-z
-x,-y,-z
x,1/2+y,-z
-x,1/2+y,1/2+z
x,-y,1/2+z
1/2+x,1/2+y,z
1/2-x,-y,z
1/2+x,-y,1/2-z
1/2-x,1/2+y,1/2-z
1/2-x,1/2-y,-z
1/2+x,y,-z
1/2-x,y,1/2+z
1/2+x,1/2-y,1/2+z
loop_
_atom_site_type_symbol
_atom_site_label
_atom_site_fract_x
_atom_site_fract_y
_atom_site_fract_z
Si Si1 0.239389 0.169575 0.541976
Si Si2 0.710663 0.902784 0.340019
Si Si3 0.868083 0.441466 0.969520
Si Si4 0.555965 0.909224 0.954838
Si Si5 0.367941 0.152452 0.240917
Si Si6 0.345283 0.968229 0.837855
Si Si7 0.539627 0.503282 0.668367
O O1 0.250000 0.250000 0.500000
O O2 0.283848 0.157609 0.604245
O O3 0.287713 0.094108 0.506508
O O4 0.134137 0.158630 0.553223
O O5 0.773739 0.860485 0.292317
O O6 0.750000 0.000000 0.353373
O O7 0.610194 0.927082 0.322056
O O8 0.840502 0.455033 0.904900
O O9 0.955997 0.380088 0.969682
O O10 0.906757 0.528838 0.995900
O O11 0.548447 0.964982 0.897052
O O12 0.395559 0.250000 0.250000
O O13 0.360070 0.119305 0.304911
O O14 0.430868 0.086139 0.205812
O O15 0.435788 0.020469 0.823519
O O16 0.250000 0.000000 0.816371
#
# Coordination Sequence:
#
# PCOD9506406 Si02
#       7
#    16  16  16  16  16  16  16
#     4  12  22  34  61  91 125 159 206 255 307 378
#     4  10  19  41  67  86 118 176 220 247 300 395
#     4  10  22  37  61  90 123 159 203 263 305 363
#     4  10  19  39  62  88 120 164 212 247 301 374
#     4  11  24  39  62  93 132 162 205 267 325 378
#     4  11  23  38  61  96 127 157 207 272 316 359
#     4  10  20  39  69  89 115 174 222 248 303 390
#
# _framework density 20.427455999999999
#
# number of rings (size 3 to 8) (size 9 to 14) (size 15 to 20)
#    0.000    1.429    4.286    3.000    2.000    1.714 
#    0.000    2.857    0.000    1.714    0.000    0.000 
#    0.000    0.000    0.000    0.000    0.000    0.000 
#
# Total GULP energy -312211.112133 kJ/mol
# GULP energy per Si atom -5575.198431 kJ/mol
# Density = 2.038096 g / cm^3
# Si number density = 20.427456 Si / 1000 Ang^3
#
#
#
# Elastic Constant Matrix: (Units=GPa)
#
#
# Indices 1 2 3 4 5 6 
#
# 1 170.0136 20.9621 -0.6036 0.0000 0.0000 0.0000
# 2 20.9621 48.4683 22.5145 0.0000 0.0000 0.0000
# 3 -0.6036 22.5145 101.9101 0.0000 0.0000 0.0000
# 4 0.0000 0.0000 0.0000 30.2269 0.0000 0.0000
# 5 0.0000 0.0000 0.0000 0.0000 30.1052 0.0000
# 6 0.0000 0.0000 0.0000 0.0000 0.0000 2.2618
#
#
#
# Elastic Compliance Matrix: (Units=1/GPa)
#
#
# Indices 1 2 3 4 5 6 
#
# 1 0.006259 -0.003036 0.000708 0.000000 0.000000 0.000000
# 2 -0.003036 0.024464 -0.005423 0.000000 0.000000 0.000000
# 3 0.000708 -0.005423 0.011015 0.000000 0.000000 0.000000
# 4 0.000000 0.000000 0.000000 0.033083 0.000000 0.000000
# 5 0.000000 0.000000 0.000000 0.000000 0.033217 0.000000
# 6 0.000000 0.000000 0.000000 0.000000 0.000000 0.442134
#
#
# Mechanical properties :
#
#
# Convention : Reuss Voigt Hill
#
# Bulk Modulus (GPa) = 38.11523 45.12644 41.62084
# Shear Modulus (GPa) = 8.70446 31.02002 19.86224
#
# Velocity S-wave (km/s) = 2.06650 3.90108 3.12160
# Velocity P-wave (km/s) = 4.93895 6.51385 5.78029
#
# Compressibility (1/GPa) = 0.02623623
#
# Stress axis : x y z
#
# Youngs Moduli (GPa) = 159.77830 40.87668 90.78729
#
# Poissons Ratio (x) = 0.12408 -0.06425
# Poissons Ratio (y) = 0.48502 0.49231
# Poissons Ratio (z) = -0.11308 0.22166
#
# Static dielectric constant tensor:
#      x y z
#    x 1.829490 0.000000 0.000000 
#    y 0.000000 1.773930 0.000000 
#    z 0.000000 0.000000 1.728020 
# 
# From -- ./inp_files/45548.got.cif
#   From: 2010.05.17/outbox.cif.g08.bks.cpg/sg68_23_cif.got.tgz:45548.got - 2010.06.03 18:57:09.
