data_PCOD9506632
_publ_section_title
;
Structure prediction by ZEFSAII (Michael W. Deem and Ramdas Pophale) SiO2 
 PCOD9506632
Probable space group: C C C A
;
_chemical_formula_sum "Si O2"
_cell_formula_units_Z 56
_cell_length_a 19.511015
_cell_length_b 4.988485
_cell_length_c 28.624155
_cell_angle_alpha 90.000000
_cell_angle_beta 90.000000
_cell_angle_gamma 90.000000
_cell_volume 2786.000618
_symmetry_space_group_name_H-M "C C C A"
_symmetry_group_IT_number 68
_space_group.IT_coordinate_system_code '2'
_symmetry_cell_setting 'orthorhombic'
loop_
_space_group_symop_operation_xyz
x,y,z
-x,1/2-y,z
x,1/2-y,1/2-z
-x,y,1/2-z
-x,-y,-z
x,1/2+y,-z
-x,1/2+y,1/2+z
x,-y,1/2+z
1/2+x,1/2+y,z
1/2-x,-y,z
1/2+x,-y,1/2-z
1/2-x,1/2+y,1/2-z
1/2-x,1/2-y,-z
1/2+x,y,-z
1/2-x,y,1/2+z
1/2+x,1/2-y,1/2+z
loop_
_atom_site_type_symbol
_atom_site_label
_atom_site_fract_x
_atom_site_fract_y
_atom_site_fract_z
Si Si1 0.167270 0.981189 0.153368
Si Si2 0.378714 0.973389 0.398550
Si Si3 0.250000 0.000000 0.466318
Si Si4 0.796801 0.750000 0.250000
Si Si5 0.500000 0.250000 0.963782
O O1 0.124016 0.775785 0.121164
O O2 0.163668 0.872176 0.206036
O O3 0.250000 0.000000 0.142177
O O4 0.138028 0.274632 0.144164
O O5 0.440252 0.845986 0.428222
O O6 0.315295 0.973967 0.433811
O O7 0.250000 0.250000 0.500000
O O8 0.750000 0.500000 0.267217
O O9 0.500000 0.500000 0.000000
#
# Coordination Sequence:
#
# PCOD9506632 Si02
#       5
#    16  16   8   8   8
#     4  11  20  38  61  95 125 157 203 253 317 372
#     4  12  23  39  63  87 123 161 208 258 308 378
#     4  12  22  36  56  86 114 150 200 262 316 350
#     4  10  20  34  60  95 132 161 192 252 314 382
#     4  12  26  46  62  85 122 169 218 254 312 384
#
# _framework density 20.100498000000002
#
# number of rings (size 3 to 8) (size 9 to 14) (size 15 to 20)
#    0.000    0.571    2.857    8.571    0.000    0.000 
#    0.000    0.000    0.000    5.143    0.000    0.000 
#    0.000    0.000    0.000    0.000    0.000    0.000 
#
# Total GULP energy -156188.246070 kJ/mol
# GULP energy per Si atom -5578.151645 kJ/mol
# Density = 2.005475 g / cm^3
# Si number density = 20.100498 Si / 1000 Ang^3
#
#
#
# Elastic Constant Matrix: (Units=GPa)
#
#
# Indices 1 2 3 4 5 6 
#
# 1 96.6044 8.2097 30.9644 0.0000 0.0000 0.0000
# 2 8.2097 133.6305 27.2501 0.0000 0.0000 0.0000
# 3 30.9644 27.2501 109.5546 0.0000 0.0000 0.0000
# 4 0.0000 0.0000 0.0000 57.9235 0.0000 0.0000
# 5 0.0000 0.0000 0.0000 0.0000 29.1165 0.0000
# 6 0.0000 0.0000 0.0000 0.0000 0.0000 30.7312
#
#
#
# Elastic Compliance Matrix: (Units=1/GPa)
#
#
# Indices 1 2 3 4 5 6 
#
# 1 0.011383 -0.000046 -0.003206 0.000000 0.000000 0.000000
# 2 -0.000046 0.007883 -0.001948 0.000000 0.000000 0.000000
# 3 -0.003206 -0.001948 0.010519 0.000000 0.000000 0.000000
# 4 0.000000 0.000000 0.000000 0.017264 0.000000 0.000000
# 5 0.000000 0.000000 0.000000 0.000000 0.034345 0.000000
# 6 0.000000 0.000000 0.000000 0.000000 0.000000 0.032540
#
#
# Mechanical properties :
#
#
# Convention : Reuss Voigt Hill
#
# Bulk Modulus (GPa) = 51.58399 52.51533 52.04966
# Shear Modulus (GPa) = 38.22779 41.77860 40.00320
#
# Velocity S-wave (km/s) = 4.36573 4.56399 4.46596
# Velocity P-wave (km/s) = 7.15063 7.34550 7.24872
#
# Compressibility (1/GPa) = 0.01938586
#
# Stress axis : x y z
#
# Youngs Moduli (GPa) = 87.85062 126.84952 95.07036
#
# Poissons Ratio (x) = 0.00578 0.30479
# Poissons Ratio (y) = 0.00400 0.18520
# Poissons Ratio (z) = 0.28164 0.24710
#
# Static dielectric constant tensor:
#      x y z
#    x 1.704260 0.000000 0.000000 
#    y 0.000000 1.793660 0.000000 
#    z 0.000000 0.000000 1.718480 
# 
# From -- ./inp_files/46304.got.cif
#   From: 2010.05.17/outbox.cif.g08.bks.cpg/sg68_24_cif.got.tgz:46304.got - 2010.06.03 18:57:09.
