data_PCOD9506597
_publ_section_title
;
Structure prediction by ZEFSAII (Michael W. Deem and Ramdas Pophale) SiO2 
 PCOD9506597
Probable space group: C C C A
;
_chemical_formula_sum "Si O2"
_cell_formula_units_Z 56
_cell_length_a 13.237546
_cell_length_b 16.528620
_cell_length_c 10.435270
_cell_angle_alpha 90.000000
_cell_angle_beta 90.000000
_cell_angle_gamma 90.000000
_cell_volume 2283.220041
_symmetry_space_group_name_H-M "C C C A"
_symmetry_group_IT_number 68
_space_group.IT_coordinate_system_code '2'
_symmetry_cell_setting 'orthorhombic'
loop_
_space_group_symop_operation_xyz
x,y,z
-x,1/2-y,z
x,1/2-y,1/2-z
-x,y,1/2-z
-x,-y,-z
x,1/2+y,-z
-x,1/2+y,1/2+z
x,-y,1/2+z
1/2+x,1/2+y,z
1/2-x,-y,z
1/2+x,-y,1/2-z
1/2-x,1/2+y,1/2-z
1/2-x,1/2-y,-z
1/2+x,y,-z
1/2-x,y,1/2+z
1/2+x,1/2-y,1/2+z
loop_
_atom_site_type_symbol
_atom_site_label
_atom_site_fract_x
_atom_site_fract_y
_atom_site_fract_z
Si Si1 0.143251 0.208851 0.124951
Si Si2 0.345547 0.146346 0.080014
Si Si3 0.750000 0.500000 0.418964
Si Si4 0.051559 0.577746 0.064127
O O1 0.099680 0.250000 0.250000
O O2 0.253338 0.174938 0.168230
O O3 0.089043 0.135252 0.052255
O O4 0.146680 0.279850 0.020253
O O5 0.457392 0.125274 0.126674
O O6 0.301095 0.069161 0.004955
O O7 0.848916 0.545197 0.358729
O O8 0.000000 0.500000 0.000000
#
# Coordination Sequence:
#
# PCOD9506597 Si02
#       4
#    16  16   8  16
#     4  10  20  34  56  85 113 153 211 266 317 393
#     4   9  18  33  54  79 115 152 192 255 324 377
#     4   8  16  32  52  76 108 152 196 236 302 380
#     4   9  17  32  55  80 112 156 197 251 324 383
#
# _framework density 24.526762999999999
#
# number of rings (size 3 to 8) (size 9 to 14) (size 15 to 20)
#    0.000    2.857    0.000    0.857    0.000    2.286 
#    0.000    8.571    0.000   61.714    0.000    0.000 
#    0.000    0.000    0.000    0.000    0.000    0.000 
#
# Total GULP energy -156077.211470 kJ/mol
# GULP energy per Si atom -5574.186124 kJ/mol
# Density = 2.447094 g / cm^3
# Si number density = 24.526763 Si / 1000 Ang^3
#
#
#
# Elastic Constant Matrix: (Units=GPa)
#
#
# Indices 1 2 3 4 5 6 
#
# 1 271.2499 60.7478 40.5571 0.0000 0.0000 0.0000
# 2 60.7478 176.7762 39.9836 0.0000 0.0000 0.0000
# 3 40.5571 39.9836 44.3453 0.0000 0.0000 0.0000
# 4 0.0000 0.0000 0.0000 11.9286 0.0000 0.0000
# 5 0.0000 0.0000 0.0000 0.0000 4.6976 0.0000
# 6 0.0000 0.0000 0.0000 0.0000 0.0000 305.9385
#
#
#
# Elastic Compliance Matrix: (Units=1/GPa)
#
#
# Indices 1 2 3 4 5 6 
#
# 1 0.004348 -0.000747 -0.003303 0.000000 0.000000 0.000000
# 2 -0.000747 0.007234 -0.005840 0.000000 0.000000 0.000000
# 3 -0.003303 -0.005840 0.030836 0.000000 0.000000 0.000000
# 4 0.000000 0.000000 0.000000 0.083832 0.000000 0.000000
# 5 0.000000 0.000000 0.000000 0.000000 0.212877 0.000000
# 6 0.000000 0.000000 0.000000 0.000000 0.000000 0.003269
#
#
# Mechanical properties :
#
#
# Convention : Reuss Voigt Hill
#
# Bulk Modulus (GPa) = 44.17067 86.10536 65.13802
# Shear Modulus (GPa) = 13.52370 87.91846 50.72108
#
# Velocity S-wave (km/s) = 2.35071 5.99364 4.55245
# Velocity P-wave (km/s) = 5.04143 9.11489 7.36537
#
# Compressibility (1/GPa) = 0.02263946
#
# Stress axis : x y z
#
# Youngs Moduli (GPa) = 230.00267 138.22853 32.42944
#
# Poissons Ratio (x) = 0.10326 0.10711
# Poissons Ratio (y) = 0.17182 0.18937
# Poissons Ratio (z) = 0.75965 0.80720
#
# Static dielectric constant tensor:
#      x y z
#    x 2.182260 0.000000 0.000000 
#    y 0.000000 1.883350 0.000000 
#    z 0.000000 0.000000 12.415930 
# 
# From -- ./inp_files/13936.got.cif
#   From: 2010.05.17/outbox.cif.g08.bks.cpg/sg68_7_cif.got.tgz:13936.got - 2010.06.03 18:57:09.
