data_PCOD9506565
_publ_section_title
;
Structure prediction by ZEFSAII (Michael W. Deem and Ramdas Pophale) SiO2 
 PCOD9506565
Probable space group: C C C A
;
_chemical_formula_sum "Si O2"
_cell_formula_units_Z 64
_cell_length_a 16.719949
_cell_length_b 7.913373
_cell_length_c 20.062307
_cell_angle_alpha 90.000000
_cell_angle_beta 90.000000
_cell_angle_gamma 90.000000
_cell_volume 2654.467773
_symmetry_space_group_name_H-M "C C C A"
_symmetry_group_IT_number 68
_space_group.IT_coordinate_system_code '2'
_symmetry_cell_setting 'orthorhombic'
loop_
_space_group_symop_operation_xyz
x,y,z
-x,1/2-y,z
x,1/2-y,1/2-z
-x,y,1/2-z
-x,-y,-z
x,1/2+y,-z
-x,1/2+y,1/2+z
x,-y,1/2+z
1/2+x,1/2+y,z
1/2-x,-y,z
1/2+x,-y,1/2-z
1/2-x,1/2+y,1/2-z
1/2-x,1/2-y,-z
1/2+x,y,-z
1/2-x,y,1/2+z
1/2+x,1/2-y,1/2+z
loop_
_atom_site_type_symbol
_atom_site_label
_atom_site_fract_x
_atom_site_fract_y
_atom_site_fract_z
Si Si1 0.663675 0.910411 0.911250
Si Si2 0.158810 0.008219 0.227144
Si Si3 0.590903 0.224302 0.981084
Si Si4 0.087992 0.330883 0.158225
O O1 0.645969 0.877813 0.833395
O O2 0.602582 0.045591 0.944190
O O3 0.750000 0.000000 0.914894
O O4 0.652741 0.752360 0.959530
O O5 0.146148 0.184456 0.186501
O O6 0.100900 0.017537 0.290316
O O7 0.250000 0.000000 0.250573
O O8 0.500000 0.250000 0.004229
O O9 0.604430 0.355370 0.919484
O O10 0.000000 0.250000 0.164101
#
# Coordination Sequence:
#
# PCOD9506565 Si02
#       4
#    16  16  16  16
#     4  10  20  34  53  78 110 142 174 218 268 315
#     4   9  17  30  50  74 100 131 172 219 258 300
#     4  10  20  35  56  81 106 139 180 221 262 315
#     4   9  18  34  55  75  99 137 180 214 255 316
#
# _framework density 24.110295000000001
#
# number of rings (size 3 to 8) (size 9 to 14) (size 15 to 20)
#    0.000    2.500    0.000    3.000    0.000    2.000 
#    0.000    5.000    0.000    0.000    0.000    1.750 
#    0.000    0.000    0.000    0.000    0.000    0.000 
#
# Total GULP energy -178612.751618 kJ/mol
# GULP energy per Si atom -5581.648488 kJ/mol
# Density = 2.405542 g / cm^3
# Si number density = 24.110295 Si / 1000 Ang^3
#
#
#
# Elastic Constant Matrix: (Units=GPa)
#
#
# Indices 1 2 3 4 5 6 
#
# 1 86.1522 15.4367 15.3258 0.0000 0.0000 0.0000
# 2 15.4367 40.6484 10.1615 0.0000 0.0000 0.0000
# 3 15.3258 10.1615 167.6758 0.0000 0.0000 0.0000
# 4 0.0000 0.0000 0.0000 14.4707 0.0000 0.0000
# 5 0.0000 0.0000 0.0000 0.0000 17.6401 0.0000
# 6 0.0000 0.0000 0.0000 0.0000 0.0000 21.3171
#
#
#
# Elastic Compliance Matrix: (Units=1/GPa)
#
#
# Indices 1 2 3 4 5 6 
#
# 1 0.012580 -0.004559 -0.000874 0.000000 0.000000 0.000000
# 2 -0.004559 0.026632 -0.001197 0.000000 0.000000 0.000000
# 3 -0.000874 -0.001197 0.006116 0.000000 0.000000 0.000000
# 4 0.000000 0.000000 0.000000 0.069105 0.000000 0.000000
# 5 0.000000 0.000000 0.000000 0.000000 0.056689 0.000000
# 6 0.000000 0.000000 0.000000 0.000000 0.000000 0.046911
#
#
# Mechanical properties :
#
#
# Convention : Reuss Voigt Hill
#
# Bulk Modulus (GPa) = 31.18339 41.81385 36.49862
# Shear Modulus (GPa) = 20.66272 27.58905 24.12588
#
# Velocity S-wave (km/s) = 2.93065 3.38640 3.16673
# Velocity P-wave (km/s) = 4.94098 5.71582 5.34247
#
# Compressibility (1/GPa) = 0.03206836
#
# Stress axis : x y z
#
# Youngs Moduli (GPa) = 79.49362 37.54910 163.49788
#
# Poissons Ratio (x) = 0.17118 0.14282
# Poissons Ratio (y) = 0.36240 0.19575
# Poissons Ratio (z) = 0.06944 0.04496
#
# Static dielectric constant tensor:
#      x y z
#    x 1.892730 0.000000 0.000000 
#    y 0.000000 2.077010 0.000000 
#    z 0.000000 0.000000 2.047840 
# 
# From -- ./inp_files/39135.got.cif
#   From: 2010.05.17/outbox.cif.g08.bks.cpg/sg68_20_cif.got.tgz:39135.got - 2010.06.03 18:57:09.
