data_PCOD9506535
_publ_section_title
;
Structure prediction by ZEFSAII (Michael W. Deem and Ramdas Pophale) SiO2 
 PCOD9506535
Probable space group: C C C A
;
_chemical_formula_sum "Si O2"
_cell_formula_units_Z 64
_cell_length_a 10.003759
_cell_length_b 16.960170
_cell_length_c 13.307364
_cell_angle_alpha 90.000000
_cell_angle_beta 90.000000
_cell_angle_gamma 90.000000
_cell_volume 2257.799945
_symmetry_space_group_name_H-M "C C C A"
_symmetry_group_IT_number 68
_space_group.IT_coordinate_system_code '2'
_symmetry_cell_setting 'orthorhombic'
loop_
_space_group_symop_operation_xyz
x,y,z
-x,1/2-y,z
x,1/2-y,1/2-z
-x,y,1/2-z
-x,-y,-z
x,1/2+y,-z
-x,1/2+y,1/2+z
x,-y,1/2+z
1/2+x,1/2+y,z
1/2-x,-y,z
1/2+x,-y,1/2-z
1/2-x,1/2+y,1/2-z
1/2-x,1/2-y,-z
1/2+x,y,-z
1/2-x,y,1/2+z
1/2+x,1/2-y,1/2+z
loop_
_atom_site_type_symbol
_atom_site_label
_atom_site_fract_x
_atom_site_fract_y
_atom_site_fract_z
Si Si1 0.081591 0.446643 0.876035
Si Si2 0.136830 0.555755 0.606161
Si Si3 0.734106 0.691056 0.158449
Si Si4 0.353349 0.172502 0.439968
O O1 0.196651 0.394810 0.820956
O O2 0.005396 0.528535 0.849280
O O3 0.958554 0.386286 0.891863
O O4 0.129373 0.464235 0.988013
O O5 0.250000 0.500000 0.652510
O O6 0.206048 0.640510 0.595055
O O7 0.690377 0.750000 0.250000
O O8 0.853077 0.741330 0.106417
O O9 0.637863 0.677055 0.061412
#
# Coordination Sequence:
#
# PCOD9506535 Si02
#       4
#    16  16  16  16
#     4   9  16  29  53  77 102 142 186 224 281 348
#     4   8  15  29  51  75 102 140 184 227 277 341
#     4  10  20  33  53  81 110 141 184 237 288 343
#     4   9  18  32  52  77 108 144 180 229 288 342
#
# _framework density 28.346177000000001
#
# number of rings (size 3 to 8) (size 9 to 14) (size 15 to 20)
#    0.000    3.000    0.000    0.750    0.000    2.000 
#    0.000    0.000    0.000   87.000    0.000    0.000 
#    0.000    0.000    0.000    0.000    0.000    0.000 
#
# Total GULP energy -178190.170931 kJ/mol
# GULP energy per Si atom -5568.442842 kJ/mol
# Density = 2.828166 g / cm^3
# Si number density = 28.346177 Si / 1000 Ang^3
#
#
#
# Elastic Constant Matrix: (Units=GPa)
#
#
# Indices 1 2 3 4 5 6 
#
# 1 55.5453 19.1673 -23.7350 0.0000 0.0000 0.0000
# 2 19.1673 109.0895 27.3859 0.0000 0.0000 0.0000
# 3 -23.7350 27.3859 151.8626 0.0000 0.0000 0.0000
# 4 0.0000 0.0000 0.0000 17.2006 0.0000 0.0000
# 5 0.0000 0.0000 0.0000 0.0000 -46.9987 0.0000
# 6 0.0000 0.0000 0.0000 0.0000 0.0000 48.9743
#
#
#
# Elastic Compliance Matrix: (Units=1/GPa)
#
#
# Indices 1 2 3 4 5 6 
#
# 1 0.021479 -0.004836 0.004229 0.000000 0.000000 0.000000
# 2 -0.004836 0.010690 -0.002684 0.000000 0.000000 0.000000
# 3 0.004229 -0.002684 0.007730 0.000000 0.000000 0.000000
# 4 0.000000 0.000000 0.000000 0.058138 0.000000 0.000000
# 5 0.000000 0.000000 0.000000 0.000000 -0.021277 0.000000
# 6 0.000000 0.000000 0.000000 0.000000 0.000000 0.020419
#
#
# Mechanical properties :
#
#
# Convention : Reuss Voigt Hill
#
# Bulk Modulus (GPa) = 30.01309 40.23709 35.12509
# Shear Modulus (GPa) = 43.52944 23.41385 33.47164
#
# Velocity S-wave (km/s) = 3.92297 2.87713 3.44003
# Velocity P-wave (km/s) = 5.57948 5.02622 5.31006
#
# Compressibility (1/GPa) = 0.03331879
#
# Stress axis : x y z
#
# Youngs Moduli (GPa) = 46.55690 93.54454 129.36940
#
# Poissons Ratio (x) = 0.45234 -0.54711
# Poissons Ratio (y) = 0.22513 0.34717
# Poissons Ratio (z) = -0.19689 0.25103
#
# Static dielectric constant tensor:
#      x y z
#    x 2.315420 0.000000 0.000000 
#    y 0.000000 2.255900 0.000000 
#    z 0.000000 0.000000 2.214670 
# 
# From -- ./inp_files/20594.got.cif
#   From: 2010.05.17/outbox.cif.g08.bks.cpg/sg68_11_cif.got.tgz:20594.got - 2010.06.03 18:57:09.
