data_PCOD9506977
_publ_section_title
;
Structure prediction by ZEFSAII (Michael W. Deem and Ramdas Pophale) SiO2 
 PCOD9506977
Probable space group: C C C A
;
_chemical_formula_sum "Si O2"
_cell_formula_units_Z 88
_cell_length_a 8.834896
_cell_length_b 22.462970
_cell_length_c 18.892461
_cell_angle_alpha 90.000000
_cell_angle_beta 90.000000
_cell_angle_gamma 90.000000
_cell_volume 3749.360097
_symmetry_space_group_name_H-M "C C C A"
_symmetry_group_IT_number 68
_space_group.IT_coordinate_system_code '2'
_symmetry_cell_setting 'orthorhombic'
loop_
_space_group_symop_operation_xyz
x,y,z
-x,1/2-y,z
x,1/2-y,1/2-z
-x,y,1/2-z
-x,-y,-z
x,1/2+y,-z
-x,1/2+y,1/2+z
x,-y,1/2+z
1/2+x,1/2+y,z
1/2-x,-y,z
1/2+x,-y,1/2-z
1/2-x,1/2+y,1/2-z
1/2-x,1/2-y,-z
1/2+x,y,-z
1/2-x,y,1/2+z
1/2+x,1/2-y,1/2+z
loop_
_atom_site_type_symbol
_atom_site_label
_atom_site_fract_x
_atom_site_fract_y
_atom_site_fract_z
Si Si1 0.500000 0.872153 0.750000
Si Si2 0.111763 0.867489 0.512545
Si Si3 0.773149 0.561589 0.799222
Si Si4 0.500000 0.250000 0.440537
Si Si5 0.841719 0.054740 0.047789
Si Si6 0.000000 0.835029 0.750000
Si Si7 0.755550 0.810691 0.352032
O O1 0.395046 0.911598 0.801114
O O2 0.385099 0.835620 0.700458
O O3 0.027712 0.807858 0.488369
O O4 0.235918 0.887094 0.456144
O O5 0.196580 0.855950 0.587023
O O6 0.995904 0.922281 0.515826
O O7 0.750000 0.500000 0.755100
O O8 0.857871 0.540154 0.870082
O O9 0.875810 0.617532 0.777915
O O10 0.347910 0.259620 0.393871
O O11 0.750000 0.000000 0.013914
O O12 0.896219 0.799349 0.806475
#
# Coordination Sequence:
#
# PCOD9506977 Si02
#       7
#     8  16  16   8  16   8  16
#     4  10  23  43  66  94 140 190 227 295 346 428
#     4  12  24  46  71 107 138 183 237 291 362 425
#     4  10  20  37  64  98 138 181 233 282 349 422
#     4  12  26  47  78 101 142 186 232 302 364 428
#     4  11  24  42  70 104 144 180 230 291 354 422
#     4  10  21  42  66  99 138 182 235 293 346 428
#     4  11  24  45  70 100 136 188 236 293 362 423
#
# _framework density 23.470669999999998
#
# number of rings (size 3 to 8) (size 9 to 14) (size 15 to 20)
#    0.000    1.091    3.636    2.727    0.000    0.364 
#    0.000    2.727    0.000    0.000    0.000    0.000 
#    0.000    0.000    0.000    0.000    0.000    0.000 
#
# Total GULP energy -245245.546286 kJ/mol
# GULP energy per Si atom -5573.762416 kJ/mol
# Density = 2.341725 g / cm^3
# Si number density = 23.470670 Si / 1000 Ang^3
#
#
#
# Elastic Constant Matrix: (Units=GPa)
#
#
# Indices 1 2 3 4 5 6 
#
# 1 156.7343 55.3292 33.6245 0.0000 0.0000 0.0000
# 2 55.3292 91.1763 22.6776 0.0000 0.0000 0.0000
# 3 33.6245 22.6776 59.3620 0.0000 0.0000 0.0000
# 4 0.0000 0.0000 0.0000 20.9333 0.0000 0.0000
# 5 0.0000 0.0000 0.0000 0.0000 37.7623 0.0000
# 6 0.0000 0.0000 0.0000 0.0000 0.0000 45.5992
#
#
#
# Elastic Compliance Matrix: (Units=1/GPa)
#
#
# Indices 1 2 3 4 5 6 
#
# 1 0.008635 -0.004446 -0.003193 0.000000 0.000000 0.000000
# 2 -0.004446 0.014408 -0.002986 0.000000 0.000000 0.000000
# 3 -0.003193 -0.002986 0.019795 0.000000 0.000000 0.000000
# 4 0.000000 0.000000 0.000000 0.047771 0.000000 0.000000
# 5 0.000000 0.000000 0.000000 0.000000 0.026481 0.000000
# 6 0.000000 0.000000 0.000000 0.000000 0.000000 0.021930
#
#
# Mechanical properties :
#
#
# Convention : Reuss Voigt Hill
#
# Bulk Modulus (GPa) = 46.31973 58.94837 52.63405
# Shear Modulus (GPa) = 29.85700 33.90173 31.87937
#
# Velocity S-wave (km/s) = 3.57052 3.80469 3.68946
# Velocity P-wave (km/s) = 6.06433 6.66867 6.37367
#
# Compressibility (1/GPa) = 0.02158907
#
# Stress axis : x y z
#
# Youngs Moduli (GPa) = 115.81435 69.40444 50.51813
#
# Poissons Ratio (x) = 0.30855 0.16128
# Poissons Ratio (y) = 0.51488 0.15085
# Poissons Ratio (z) = 0.36974 0.20725
#
# Static dielectric constant tensor:
#      x y z
#    x 1.855100 0.000000 0.000000 
#    y 0.000000 1.997280 0.000000 
#    z 0.000000 0.000000 1.974280 
# 
# From -- ./inp_files/36347.got.cif
#   From: 2010.05.17/outbox.cif.g08.bks.cpg/sg68_19_cif.got.tgz:36347.got - 2010.06.03 18:57:09.
