data_PCOD9506339
_publ_section_title
;
Structure prediction by ZEFSAII (Michael W. Deem and Ramdas Pophale) SiO2 
 PCOD9506339
Probable space group: C C C A
;
_chemical_formula_sum "Si O2"
_cell_formula_units_Z 88
_cell_length_a 14.707889
_cell_length_b 20.607775
_cell_length_c 12.911918
_cell_angle_alpha 90.000000
_cell_angle_beta 90.000000
_cell_angle_gamma 90.000000
_cell_volume 3913.561896
_symmetry_space_group_name_H-M "C C C A"
_symmetry_group_IT_number 68
_space_group.IT_coordinate_system_code '2'
_symmetry_cell_setting 'orthorhombic'
loop_
_space_group_symop_operation_xyz
x,y,z
-x,1/2-y,z
x,1/2-y,1/2-z
-x,y,1/2-z
-x,-y,-z
x,1/2+y,-z
-x,1/2+y,1/2+z
x,-y,1/2+z
1/2+x,1/2+y,z
1/2-x,-y,z
1/2+x,-y,1/2-z
1/2-x,1/2+y,1/2-z
1/2-x,1/2-y,-z
1/2+x,y,-z
1/2-x,y,1/2+z
1/2+x,1/2-y,1/2+z
loop_
_atom_site_type_symbol
_atom_site_label
_atom_site_fract_x
_atom_site_fract_y
_atom_site_fract_z
Si Si1 0.655926 0.606682 0.564636
Si Si2 0.331536 0.118631 0.470554
Si Si3 0.984937 0.051087 0.633591
Si Si4 0.250000 0.500000 0.286553
Si Si5 0.393978 0.751815 0.626398
Si Si6 0.919732 0.918927 0.814557
O O1 0.726050 0.601013 0.472131
O O2 0.550979 0.589019 0.555619
O O3 0.694337 0.554183 0.646932
O O4 0.655732 0.681773 0.596215
O O5 0.384692 0.065180 0.404052
O O6 0.348268 0.188302 0.421073
O O7 0.371251 0.116220 0.588367
O O8 0.000000 0.079009 0.750000
O O9 0.020972 0.978565 0.638866
O O10 0.163325 0.454589 0.251224
O O11 0.500000 0.750000 0.593415
O O12 0.392745 0.750000 0.750000
O O13 0.000000 0.882834 0.750000
#
# Coordination Sequence:
#
# PCOD9506339 Si02
#       6
#    16  16  16   8  16  16
#     4  10  20  37  60  92 123 160 210 271 340 382
#     4  11  21  36  61  91 129 162 212 279 336 392
#     4  10  19  37  64  93 126 170 225 275 324 399
#     4   8  18  36  62  88 130 164 214 282 320 402
#     4  11  22  39  66  93 121 169 228 280 326 399
#     4   9  19  36  60  91 131 176 217 270 340 407
#
# _framework density 22.485911000000002
#
# number of rings (size 3 to 8) (size 9 to 14) (size 15 to 20)
#    0.000    2.000    1.818    2.182    0.000    0.000 
#    0.000   10.909    0.000   40.364    0.000    0.000 
#    0.000    0.000    0.000    0.000    0.000    0.000 
#
# Total GULP energy -245354.146608 kJ/mol
# GULP energy per Si atom -5576.230605 kJ/mol
# Density = 2.243473 g / cm^3
# Si number density = 22.485911 Si / 1000 Ang^3
#
#
#
# Elastic Constant Matrix: (Units=GPa)
#
#
# Indices 1 2 3 4 5 6 
#
# 1 113.7091 21.4130 43.4999 0.0000 0.0000 0.0000
# 2 21.4130 81.7461 22.2757 0.0000 0.0000 0.0000
# 3 43.4999 22.2757 78.5997 0.0000 0.0000 0.0000
# 4 0.0000 0.0000 0.0000 21.8330 0.0000 0.0000
# 5 0.0000 0.0000 0.0000 0.0000 12.2856 0.0000
# 6 0.0000 0.0000 0.0000 0.0000 0.0000 30.3062
#
#
#
# Elastic Compliance Matrix: (Units=1/GPa)
#
#
# Indices 1 2 3 4 5 6 
#
# 1 0.011294 -0.001360 -0.005865 0.000000 0.000000 0.000000
# 2 -0.001360 0.013421 -0.003051 0.000000 0.000000 0.000000
# 3 -0.005865 -0.003051 0.016833 0.000000 0.000000 0.000000
# 4 0.000000 0.000000 0.000000 0.045802 0.000000 0.000000
# 5 0.000000 0.000000 0.000000 0.000000 0.081396 0.000000
# 6 0.000000 0.000000 0.000000 0.000000 0.000000 0.032997
#
#
# Mechanical properties :
#
#
# Convention : Reuss Voigt Hill
#
# Bulk Modulus (GPa) = 47.62812 49.82577 48.72695
# Shear Modulus (GPa) = 21.80609 25.34272 23.57441
#
# Velocity S-wave (km/s) = 3.11749 3.36080 3.24143
# Velocity P-wave (km/s) = 5.84684 6.10465 5.97714
#
# Compressibility (1/GPa) = 0.02099600
#
# Stress axis : x y z
#
# Youngs Moduli (GPa) = 88.54059 74.51218 59.40618
#
# Poissons Ratio (x) = 0.10135 0.34843
# Poissons Ratio (y) = 0.12044 0.18123
# Poissons Ratio (z) = 0.51930 0.22731
#
# Static dielectric constant tensor:
#      x y z
#    x 1.921820 0.000000 0.000000 
#    y 0.000000 1.802850 0.000000 
#    z 0.000000 0.000000 1.937740 
# 
# From -- ./inp_files/22275.got.cif
#   From: 2010.05.17/outbox.cif.g08.bks.cpg/sg68_12_cif.got.tgz:22275.got - 2010.06.03 18:57:09.
