data_PCOD9506978
_publ_section_title
;
Structure prediction by ZEFSAII (Michael W. Deem and Ramdas Pophale) SiO2 
 PCOD9506978
Probable space group: C C C A
;
_chemical_formula_sum "Si O2"
_cell_formula_units_Z 80
_cell_length_a 11.295814
_cell_length_b 15.074326
_cell_length_c 21.450182
_cell_angle_alpha 90.000000
_cell_angle_beta 90.000000
_cell_angle_gamma 90.000000
_cell_volume 3652.467979
_symmetry_space_group_name_H-M "C C C A"
_symmetry_group_IT_number 68
_space_group.IT_coordinate_system_code '2'
_symmetry_cell_setting 'orthorhombic'
loop_
_space_group_symop_operation_xyz
x,y,z
-x,1/2-y,z
x,1/2-y,1/2-z
-x,y,1/2-z
-x,-y,-z
x,1/2+y,-z
-x,1/2+y,1/2+z
x,-y,1/2+z
1/2+x,1/2+y,z
1/2-x,-y,z
1/2+x,-y,1/2-z
1/2-x,1/2+y,1/2-z
1/2-x,1/2-y,-z
1/2+x,y,-z
1/2-x,y,1/2+z
1/2+x,1/2-y,1/2+z
loop_
_atom_site_type_symbol
_atom_site_label
_atom_site_fract_x
_atom_site_fract_y
_atom_site_fract_z
Si Si1 0.348950 0.325189 0.982978
Si Si2 0.000000 0.750000 0.413917
Si Si3 0.750000 0.000000 0.529443
Si Si4 0.066576 0.162557 0.158289
Si Si5 0.200979 0.236908 0.681703
Si Si6 0.166927 0.923262 0.847693
O O1 0.405968 0.318686 0.914898
O O2 0.250000 0.250000 0.000000
O O3 0.444195 0.320152 0.038577
O O4 0.295921 0.422122 0.987139
O O5 0.896560 0.785482 0.369522
O O6 0.836731 0.951545 0.579153
O O7 0.196253 0.162982 0.187814
O O8 0.000000 0.250000 0.181793
O O9 0.969981 0.087026 0.170906
O O10 0.148558 0.250000 0.750000
O O11 0.264933 0.329192 0.659958
O O12 0.250000 0.000000 0.818694
#
# Coordination Sequence:
#
# PCOD9506978 Si02
#       6
#    16   8   8  16  16  16
#     4  12  22  40  67  98 134 176 223 289 348 421
#     4  12  21  38  70  96 133 176 218 282 358 410
#     4  10  22  40  62  94 142 172 214 280 354 416
#     4  10  20  37  65 101 128 173 232 275 341 416
#     4  11  23  41  69  95 133 183 239 277 339 419
#     4   9  20  40  62  93 133 173 220 281 351 400
#
# _framework density 21.902998
#
# number of rings (size 3 to 8) (size 9 to 14) (size 15 to 20)
#    0.600    0.800    5.000    1.500    0.000    4.400 
#    3.600    0.000   19.800    0.000    0.000    0.000 
#    0.000    0.000    0.000    0.000    0.000    0.000 
#
# Total GULP energy -223034.552795 kJ/mol
# GULP energy per Si atom -5575.863820 kJ/mol
# Density = 2.185315 g / cm^3
# Si number density = 21.902998 Si / 1000 Ang^3
#
#
#
# Elastic Constant Matrix: (Units=GPa)
#
#
# Indices 1 2 3 4 5 6 
#
# 1 124.4154 46.3305 28.1998 0.0000 0.0000 0.0000
# 2 46.3305 98.4390 15.6586 0.0000 0.0000 0.0000
# 3 28.1998 15.6586 113.9621 0.0000 0.0000 0.0000
# 4 0.0000 0.0000 0.0000 12.1230 0.0000 0.0000
# 5 0.0000 0.0000 0.0000 0.0000 826.2326 0.0000
# 6 0.0000 0.0000 0.0000 0.0000 0.0000 34.4164
#
#
#
# Elastic Compliance Matrix: (Units=1/GPa)
#
#
# Indices 1 2 3 4 5 6 
#
# 1 0.010130 -0.004467 -0.001893 0.000000 0.000000 0.000000
# 2 -0.004467 0.012355 -0.000592 0.000000 0.000000 0.000000
# 3 -0.001893 -0.000592 0.009325 0.000000 0.000000 0.000000
# 4 0.000000 0.000000 0.000000 0.082488 0.000000 0.000000
# 5 0.000000 0.000000 0.000000 0.000000 0.001210 0.000000
# 6 0.000000 0.000000 0.000000 0.000000 0.000000 0.029056
#
#
# Mechanical properties :
#
#
# Convention : Reuss Voigt Hill
#
# Bulk Modulus (GPa) = 55.84760 57.46605 56.65683
# Shear Modulus (GPa) = 30.40696 190.99624 110.70160
#
# Velocity S-wave (km/s) = 3.72997 9.34828 7.11699
# Velocity P-wave (km/s) = 6.64103 11.95048 9.66740
#
# Compressibility (1/GPa) = 0.01790587
#
# Stress axis : x y z
#
# Youngs Moduli (GPa) = 98.71745 80.93889 107.24272
#
# Poissons Ratio (x) = 0.36152 0.20300
# Poissons Ratio (y) = 0.44093 0.06353
# Poissons Ratio (z) = 0.18686 0.04794
#
# Static dielectric constant tensor:
#      x y z
#    x 1.922090 0.000000 0.000000 
#    y 0.000000 1.795890 0.000000 
#    z 0.000000 0.000000 1.844200 
# 
# From -- ./inp_files/44166.got.cif
#   From: 2010.05.17/outbox.cif.g08.bks.cpg/sg68_23_cif.got.tgz:44166.got - 2010.06.03 18:57:09.
