data_PCOD9506106
_publ_section_title
;
Structure prediction by ZEFSAII (Michael W. Deem and Ramdas Pophale) SiO2 
 PCOD9506106
Probable space group: C C C A
;
_chemical_formula_sum "Si O2"
_cell_formula_units_Z 120
_cell_length_a 10.673289
_cell_length_b 20.594349
_cell_length_c 24.643691
_cell_angle_alpha 90.000000
_cell_angle_beta 90.000000
_cell_angle_gamma 90.000000
_cell_volume 5416.915885
_symmetry_space_group_name_H-M "C C C A"
_symmetry_group_IT_number 68
_space_group.IT_coordinate_system_code '2'
_symmetry_cell_setting 'orthorhombic'
loop_
_space_group_symop_operation_xyz
x,y,z
-x,1/2-y,z
x,1/2-y,1/2-z
-x,y,1/2-z
-x,-y,-z
x,1/2+y,-z
-x,1/2+y,1/2+z
x,-y,1/2+z
1/2+x,1/2+y,z
1/2-x,-y,z
1/2+x,-y,1/2-z
1/2-x,1/2+y,1/2-z
1/2-x,1/2-y,-z
1/2+x,y,-z
1/2-x,y,1/2+z
1/2+x,1/2-y,1/2+z
loop_
_atom_site_type_symbol
_atom_site_label
_atom_site_fract_x
_atom_site_fract_y
_atom_site_fract_z
Si Si1 0.036044 0.471960 0.864067
Si Si2 0.086673 0.404274 0.094351
Si Si3 0.250000 0.500000 0.777375
Si Si4 0.103201 0.193641 0.970269
Si Si5 0.885930 0.302575 0.086965
Si Si6 0.063985 0.433532 0.979217
Si Si7 0.619552 0.614730 0.787424
Si Si8 0.745510 0.705434 0.857638
O O1 0.129303 0.499860 0.817855
O O2 0.110947 0.449147 0.918345
O O3 0.935590 0.526087 0.881178
O O4 0.947098 0.415869 0.840512
O O5 0.159689 0.354527 0.132025
O O6 0.948455 0.372242 0.091378
O O7 0.140921 0.410223 0.032821
O O8 0.283118 0.562893 0.739634
O O9 0.168541 0.202432 0.913267
O O10 0.000000 0.250000 0.973094
O O11 0.034625 0.124270 0.971137
O O12 0.177760 0.198501 0.027626
O O13 0.806324 0.276523 0.137296
O O14 0.000000 0.250000 0.084468
O O15 0.000000 0.500000 0.000000
O O16 0.500000 0.623465 0.750000
O O17 0.676518 0.683668 0.804030
#
# Coordination Sequence:
#
# PCOD9506106 Si02
#       8
#    16  16   8  16  16  16  16  16
#     4  10  19  39  57  85 120 153 197 256 322 364
#     4   9  19  34  57  86 127 152 191 244 300 386
#     4  10  22  38  58  84 110 160 212 260 324 372
#     4  10  19  34  55  86 126 166 203 237 302 382
#     4   8  17  32  52  84 121 151 190 236 284 377
#     4   9  18  36  54  87 132 159 188 252 303 377
#     4  10  21  37  60  84 113 148 212 271 309 368
#     4  11  19  35  59  86 113 163 203 243 312 366
#
# _framework density 22.152828
#
# number of rings (size 3 to 8) (size 9 to 14) (size 15 to 20)
#    0.000    2.400    1.333    2.000    0.000    0.000 
#    9.600    0.000    0.000    2.800    0.000    4.667 
#    0.000    0.000    0.000    0.000    0.000    0.000 
#
# Total GULP energy -334202.622777 kJ/mol
# GULP energy per Si atom -5570.043713 kJ/mol
# Density = 2.210241 g / cm^3
# Si number density = 22.152828 Si / 1000 Ang^3
#
#
#
# Elastic Constant Matrix: (Units=GPa)
#
#
# Indices 1 2 3 4 5 6 
#
# 1 28.5590 7.1498 13.9185 0.0000 0.0000 0.0000
# 2 7.1498 74.2078 29.2318 0.0000 0.0000 0.0000
# 3 13.9185 29.2318 88.7148 0.0000 0.0000 0.0000
# 4 0.0000 0.0000 0.0000 -375.3049 0.0000 0.0000
# 5 0.0000 0.0000 0.0000 0.0000 -186.5167 0.0000
# 6 0.0000 0.0000 0.0000 0.0000 0.0000 9.7988
#
#
#
# Elastic Compliance Matrix: (Units=1/GPa)
#
#
# Indices 1 2 3 4 5 6 
#
# 1 0.038061 -0.001511 -0.005474 0.000000 0.000000 0.000000
# 2 -0.001511 0.015546 -0.004885 0.000000 0.000000 0.000000
# 3 -0.005474 -0.004885 0.013741 0.000000 0.000000 0.000000
# 4 0.000000 0.000000 0.000000 -0.002665 0.000000 0.000000
# 5 0.000000 0.000000 0.000000 0.000000 -0.005361 0.000000
# 6 0.000000 0.000000 0.000000 0.000000 0.000000 0.102053
#
#
# Mechanical properties :
#
#
# Convention : Reuss Voigt Hill
#
# Bulk Modulus (GPa) = 22.93175 32.45351 27.69263
# Shear Modulus (GPa) = 25.04385 -100.99244 -37.97430
#
# Velocity S-wave (km/s) = 3.36594 -6.75928 -4.14478
# Velocity P-wave (km/s) = 5.04779 6.79968 3.22145
#
# Compressibility (1/GPa) = 0.04360766
#
# Stress axis : x y z
#
# Youngs Moduli (GPa) = 26.27358 64.32664 72.77744
#
# Poissons Ratio (x) = 0.09720 0.39835
# Poissons Ratio (y) = 0.03970 0.35554
# Poissons Ratio (z) = 0.14381 0.31425
#
# Static dielectric constant tensor:
#      x y z
#    x 1.931900 0.000000 0.000000 
#    y 0.000000 1.902930 0.000000 
#    z 0.000000 0.000000 1.861850 
# 
# From -- ./inp_files/44651.got.cif
#   From: 2010.05.17/outbox.cif.g08.bks.cpg/sg68_23_cif.got.tgz:44651.got - 2010.06.03 18:57:09.
