data_PCOD9506385
_publ_section_title
;
Structure prediction by ZEFSAII (Michael W. Deem and Ramdas Pophale) SiO2 
 PCOD9506385
Probable space group: C C C A
;
_chemical_formula_sum "Si O2"
_cell_formula_units_Z 112
_cell_length_a 13.411284
_cell_length_b 11.853698
_cell_length_c 31.287627
_cell_angle_alpha 90.000000
_cell_angle_beta 90.000000
_cell_angle_gamma 90.000000
_cell_volume 4973.897637
_symmetry_space_group_name_H-M "C C C A"
_symmetry_group_IT_number 68
_space_group.IT_coordinate_system_code '2'
_symmetry_cell_setting 'orthorhombic'
loop_
_space_group_symop_operation_xyz
x,y,z
-x,1/2-y,z
x,1/2-y,1/2-z
-x,y,1/2-z
-x,-y,-z
x,1/2+y,-z
-x,1/2+y,1/2+z
x,-y,1/2+z
1/2+x,1/2+y,z
1/2-x,-y,z
1/2+x,-y,1/2-z
1/2-x,1/2+y,1/2-z
1/2-x,1/2-y,-z
1/2+x,y,-z
1/2-x,y,1/2+z
1/2+x,1/2-y,1/2+z
loop_
_atom_site_type_symbol
_atom_site_label
_atom_site_fract_x
_atom_site_fract_y
_atom_site_fract_z
Si Si1 0.595067 0.314820 0.330396
Si Si2 0.177292 0.270613 0.165958
Si Si3 0.367253 0.478577 0.821271
Si Si4 0.053721 0.374946 0.990716
Si Si5 0.980912 0.418739 0.602042
Si Si6 0.132560 0.471369 0.224881
Si Si7 0.586342 0.846235 0.081295
O O1 0.500000 0.250000 0.311331
O O2 0.704489 0.263078 0.323801
O O3 0.567720 0.336024 0.380270
O O4 0.596453 0.436202 0.308406
O O5 0.123065 0.151287 0.165244
O O6 0.128296 0.350278 0.202001
O O7 0.164454 0.322017 0.118709
O O8 0.250000 0.500000 0.819901
O O9 0.411327 0.559966 0.857123
O O10 0.406949 0.483792 0.772883
O O11 0.079013 0.386739 0.940650
O O12 0.000000 0.250000 0.991021
O O13 0.124249 0.359925 0.032320
O O14 0.000000 0.500000 0.000000
O O15 0.033881 0.536812 0.592715
O O16 0.250000 0.500000 0.228729
O O17 0.500000 0.750000 0.081995
#
# Coordination Sequence:
#
# PCOD9506385 Si02
#       7
#    16  16  16  16  16  16  16
#     4  11  23  40  65  95 132 174 223 275 337 402
#     4  11  21  41  69  95 132 177 227 280 337 405
#     4  11  23  39  62  92 135 177 223 282 339 393
#     4   9  20  37  65  96 135 177 221 281 350 410
#     4  11  21  38  63  92 133 173 219 275 338 403
#     4   9  21  40  61  92 129 174 222 272 333 403
#     4  10  19  38  66  97 125 173 221 272 334 406
#
# _framework density 22.517551999999998
#
# number of rings (size 3 to 8) (size 9 to 14) (size 15 to 20)
#    0.000    1.714    2.857    1.714    0.000    0.571 
#    0.000    9.286    9.429    3.429    0.000    0.000 
#    0.000    0.000    0.000    0.000    0.000    0.000 
#
# Total GULP energy -312176.782110 kJ/mol
# GULP energy per Si atom -5574.585395 kJ/mol
# Density = 2.246630 g / cm^3
# Si number density = 22.517552 Si / 1000 Ang^3
#
#
#
# Elastic Constant Matrix: (Units=GPa)
#
#
# Indices 1 2 3 4 5 6 
#
# 1 55.3195 -8.8766 25.9445 0.0000 0.0000 0.0000
# 2 -8.8766 78.2124 4.5865 0.0000 0.0000 0.0000
# 3 25.9445 4.5865 181.6141 0.0000 0.0000 0.0000
# 4 0.0000 0.0000 0.0000 131.1464 0.0000 0.0000
# 5 0.0000 0.0000 0.0000 0.0000 -1.0727 0.0000
# 6 0.0000 0.0000 0.0000 0.0000 0.0000 29.5382
#
#
#
# Elastic Compliance Matrix: (Units=1/GPa)
#
#
# Indices 1 2 3 4 5 6 
#
# 1 0.019822 0.002419 -0.002893 0.000000 0.000000 0.000000
# 2 0.002419 0.013100 -0.000676 0.000000 0.000000 0.000000
# 3 -0.002893 -0.000676 0.005937 0.000000 0.000000 0.000000
# 4 0.000000 0.000000 0.000000 0.007625 0.000000 0.000000
# 5 0.000000 0.000000 0.000000 0.000000 -0.932232 0.000000
# 6 0.000000 0.000000 0.000000 0.000000 0.000000 0.033854
#
#
# Mechanical properties :
#
#
# Convention : Reuss Voigt Hill
#
# Bulk Modulus (GPa) = 27.35355 39.82832 33.59094
# Shear Modulus (GPa) = -5.97080 51.48849 22.75884
#
# Velocity S-wave (km/s) = -1.63015 4.78702 3.18262
# Velocity P-wave (km/s) = 2.93783 6.94839 5.33437
#
# Compressibility (1/GPa) = 0.03655832
#
# Stress axis : x y z
#
# Youngs Moduli (GPa) = 50.44984 76.33624 168.44938
#
# Poissons Ratio (x) = -0.18468 0.48728
# Poissons Ratio (y) = -0.12205 0.11394
# Poissons Ratio (z) = 0.14594 0.05164
#
# Static dielectric constant tensor:
#      x y z
#    x 1.945330 0.000000 0.000000 
#    y 0.000000 1.979560 0.000000 
#    z 0.000000 0.000000 1.853580 
# 
# From -- ./inp_files/55259.got.cif
#   From: 2010.05.17/outbox.cif.g08.bks.cpg/sg68_28_cif.got.tgz:55259.got - 2010.06.03 18:57:09.
