data_PCOD9506094
_publ_section_title
;
Structure prediction by ZEFSAII (Michael W. Deem and Ramdas Pophale) SiO2 
 PCOD9506094
Probable space group: C C C A
;
_chemical_formula_sum "Si O2"
_cell_formula_units_Z 120
_cell_length_a 18.753908
_cell_length_b 22.921171
_cell_length_c 15.146758
_cell_angle_alpha 90.000000
_cell_angle_beta 90.000000
_cell_angle_gamma 90.000000
_cell_volume 6511.008602
_symmetry_space_group_name_H-M "C C C A"
_symmetry_group_IT_number 68
_space_group.IT_coordinate_system_code '2'
_symmetry_cell_setting 'orthorhombic'
loop_
_space_group_symop_operation_xyz
x,y,z
-x,1/2-y,z
x,1/2-y,1/2-z
-x,y,1/2-z
-x,-y,-z
x,1/2+y,-z
-x,1/2+y,1/2+z
x,-y,1/2+z
1/2+x,1/2+y,z
1/2-x,-y,z
1/2+x,-y,1/2-z
1/2-x,1/2+y,1/2-z
1/2-x,1/2-y,-z
1/2+x,y,-z
1/2-x,y,1/2+z
1/2+x,1/2-y,1/2+z
loop_
_atom_site_type_symbol
_atom_site_label
_atom_site_fract_x
_atom_site_fract_y
_atom_site_fract_z
Si Si1 0.252075 0.371128 0.272430
Si Si2 0.777874 0.819038 0.093005
Si Si3 0.328214 0.467067 0.864172
Si Si4 0.007051 0.183735 0.555706
Si Si5 0.000000 0.350281 0.750000
Si Si6 0.883014 0.945090 0.228475
Si Si7 0.169837 0.193425 0.567437
Si Si8 0.106733 0.585212 0.037029
O O1 0.243457 0.328765 0.189237
O O2 0.187430 0.405210 0.316928
O O3 0.302499 0.421427 0.232104
O O4 0.293320 0.339964 0.351879
O O5 0.827391 0.761679 0.092990
O O6 0.827919 0.872012 0.062652
O O7 0.717071 0.812511 0.020014
O O8 0.250000 0.500000 0.877491
O O9 0.378953 0.502800 0.797684
O O10 0.367731 0.454230 0.956015
O O11 0.988188 0.184656 0.660439
O O12 0.958273 0.130776 0.519135
O O13 0.000000 0.250000 0.519637
O O14 0.090853 0.170721 0.550259
O O15 0.066965 0.393043 0.762607
O O16 0.906403 0.952398 0.126581
#
# Coordination Sequence:
#
# PCOD9506094 Si02
#       8
#    16  16  16  16   8  16  16  16
#     4  10  19  35  56  82 112 146 191 235 289 339
#     4  10  21  33  56  86 116 147 192 232 283 348
#     4  10  21  38  58  79 111 156 196 248 288 330
#     4  11  21  33  56  87 121 150 181 230 303 355
#     4  10  19  34  54  80 114 142 183 238 288 350
#     4   9  20  35  53  80 107 141 192 238 280 334
#     4  11  20  35  55  87 119 150 184 236 288 346
#     4  10  20  37  57  86 113 152 194 237 288 355
#
# _framework density 18.430323999999999
#
# number of rings (size 3 to 8) (size 9 to 14) (size 15 to 20)
#    0.000    1.867    4.000    0.600    0.000    3.733 
#    0.000    4.000    0.000    0.000    0.000    0.933 
#    0.000    0.000    0.000    0.000    0.000    0.000 
#
# Total GULP energy -334217.763050 kJ/mol
# GULP energy per Si atom -5570.296051 kJ/mol
# Density = 1.838838 g / cm^3
# Si number density = 18.430324 Si / 1000 Ang^3
#
#
#
# Elastic Constant Matrix: (Units=GPa)
#
#
# Indices 1 2 3 4 5 6 
#
# 1 53.5897 30.2967 37.4278 0.0000 0.0000 0.0000
# 2 30.2967 67.3608 47.7116 0.0000 0.0000 0.0000
# 3 37.4278 47.7116 95.1808 0.0000 0.0000 0.0000
# 4 0.0000 0.0000 0.0000 55.5874 0.0000 0.0000
# 5 0.0000 0.0000 0.0000 0.0000 16.7103 0.0000
# 6 0.0000 0.0000 0.0000 0.0000 0.0000 20.4938
#
#
#
# Elastic Compliance Matrix: (Units=1/GPa)
#
#
# Indices 1 2 3 4 5 6 
#
# 1 0.027926 -0.007415 -0.007264 0.000000 0.000000 0.000000
# 2 -0.007415 0.024987 -0.009610 0.000000 0.000000 0.000000
# 3 -0.007264 -0.009610 0.018180 0.000000 0.000000 0.000000
# 4 0.000000 0.000000 0.000000 0.017990 0.000000 0.000000
# 5 0.000000 0.000000 0.000000 0.000000 0.059843 0.000000
# 6 0.000000 0.000000 0.000000 0.000000 0.000000 0.048795
#
#
# Mechanical properties :
#
#
# Convention : Reuss Voigt Hill
#
# Bulk Modulus (GPa) = 44.41466 49.66706 47.04086
# Shear Modulus (GPa) = 19.70034 25.27132 22.48583
#
# Velocity S-wave (km/s) = 3.27296 3.70696 3.49670
# Velocity P-wave (km/s) = 6.19952 6.73269 6.47160
#
# Compressibility (1/GPa) = 0.02251509
#
# Stress axis : x y z
#
# Youngs Moduli (GPa) = 35.80927 40.02118 55.00588
#
# Poissons Ratio (x) = 0.29675 0.39958
# Poissons Ratio (y) = 0.26552 0.52858
# Poissons Ratio (z) = 0.26013 0.38458
#
# Static dielectric constant tensor:
#      x y z
#    x 1.694060 0.000000 0.000000 
#    y 0.000000 1.672700 0.000000 
#    z 0.000000 0.000000 1.656580 
# 
# From -- ./inp_files/24856.got.cif
#   From: 2010.05.17/outbox.cif.g08.bks.cpg/sg68_13_cif.got.tgz:24856.got - 2010.06.03 18:57:09.
