data_PCOD9506628
_publ_section_title
;
Structure prediction by ZEFSAII (Michael W. Deem and Ramdas Pophale) SiO2 
 PCOD9506628
Probable space group: C C C A
;
_chemical_formula_sum "Si O2"
_cell_formula_units_Z 64
_cell_length_a 24.137857
_cell_length_b 5.261674
_cell_length_c 27.542755
_cell_angle_alpha 90.000000
_cell_angle_beta 90.000000
_cell_angle_gamma 90.000000
_cell_volume 3498.082323
_symmetry_space_group_name_H-M "C C C A"
_symmetry_group_IT_number 68
_space_group.IT_coordinate_system_code '2'
_symmetry_cell_setting 'orthorhombic'
loop_
_space_group_symop_operation_xyz
x,y,z
-x,1/2-y,z
x,1/2-y,1/2-z
-x,y,1/2-z
-x,-y,-z
x,1/2+y,-z
-x,1/2+y,1/2+z
x,-y,1/2+z
1/2+x,1/2+y,z
1/2-x,-y,z
1/2+x,-y,1/2-z
1/2-x,1/2+y,1/2-z
1/2-x,1/2-y,-z
1/2+x,y,-z
1/2-x,y,1/2+z
1/2+x,1/2-y,1/2+z
loop_
_atom_site_type_symbol
_atom_site_label
_atom_site_fract_x
_atom_site_fract_y
_atom_site_fract_z
Si Si1 0.024740 0.498156 0.444274
Si Si2 0.284155 0.250000 0.250000
Si Si3 0.683049 0.510191 0.849115
Si Si4 0.750000 0.000000 0.968395
Si Si5 0.144509 0.008897 0.098979
O O1 0.089857 0.482056 0.434722
O O2 0.000000 0.250000 0.420292
O O3 0.000000 0.500000 0.500000
O O4 0.000000 0.750000 0.421379
O O5 0.250000 0.500000 0.270633
O O6 0.316184 0.390808 0.206539
O O7 0.750000 0.500000 0.861634
O O8 0.654293 0.242175 0.863048
O O9 0.650890 0.732786 0.876985
O O10 0.696475 0.023946 0.935891
O O11 0.750000 0.250000 0.000000
#
# Coordination Sequence:
#
# PCOD9506628 Si02
#       5
#    16   8  16   8  16
#     4  10  23  40  58  79 109 158 216 265 296 337
#     4  10  20  34  60  92 133 168 191 234 300 396
#     4  11  20  38  58  94 128 159 194 238 313 383
#     4  12  26  36  56  84 122 168 206 244 320 366
#     4  12  23  39  60  85 123 165 204 259 302 370
#
# _framework density 18.295739999999999
#
# number of rings (size 3 to 8) (size 9 to 14) (size 15 to 20)
#    0.000    1.000    2.500    6.000    7.000    0.000 
#    0.000    0.000    0.000    0.000    0.000   13.125 
#    0.000    0.000    0.000    0.000    0.000    0.000 
#
# Total GULP energy -178149.425886 kJ/mol
# GULP energy per Si atom -5567.169559 kJ/mol
# Density = 1.825410 g / cm^3
# Si number density = 18.295740 Si / 1000 Ang^3
#
#
#
# Elastic Constant Matrix: (Units=GPa)
#
#
# Indices 1 2 3 4 5 6 
#
# 1 142.2919 30.9000 39.8478 0.0000 0.0000 0.0000
# 2 30.9000 162.9426 28.3262 0.0000 0.0000 0.0000
# 3 39.8478 28.3262 76.6546 0.0000 0.0000 0.0000
# 4 0.0000 0.0000 0.0000 -0.7653 0.0000 0.0000
# 5 0.0000 0.0000 0.0000 0.0000 32.8578 0.0000
# 6 0.0000 0.0000 0.0000 0.0000 0.0000 28.8144
#
#
#
# Elastic Compliance Matrix: (Units=1/GPa)
#
#
# Indices 1 2 3 4 5 6 
#
# 1 0.008343 -0.000885 -0.004010 0.000000 0.000000 0.000000
# 2 -0.000885 0.006652 -0.001998 0.000000 0.000000 0.000000
# 3 -0.004010 -0.001998 0.015868 0.000000 0.000000 0.000000
# 4 0.000000 0.000000 0.000000 -1.306681 0.000000 0.000000
# 5 0.000000 0.000000 0.000000 0.000000 0.030434 0.000000
# 6 0.000000 0.000000 0.000000 0.000000 0.000000 0.034705
#
#
# Mechanical properties :
#
#
# Convention : Reuss Voigt Hill
#
# Bulk Modulus (GPa) = 58.55675 64.44859 61.50267
# Shear Modulus (GPa) = -4.19745 31.03573 13.41914
#
# Velocity S-wave (km/s) = -1.51631 4.12313 2.71118
# Velocity P-wave (km/s) = 5.38605 7.61376 6.59466
#
# Compressibility (1/GPa) = 0.01707745
#
# Stress axis : x y z
#
# Youngs Moduli (GPa) = 119.86169 150.32323 63.01824
#
# Poissons Ratio (x) = 0.13304 0.25270
# Poissons Ratio (y) = 0.10608 0.12592
# Poissons Ratio (z) = 0.48064 0.30037
#
# Static dielectric constant tensor:
#      x y z
#    x 1.671170 0.000000 0.000000 
#    y 0.000000 1.813950 0.000000 
#    z 0.000000 0.000000 1.654700 
# 
# From -- ./inp_files/51601.got.cif
#   From: 2010.05.17/outbox.cif.g08.bks.cpg/sg68_26_cif.got.tgz:51601.got - 2010.06.03 18:57:09.
