data_PCOD9506310
_publ_section_title
;
Structure prediction by ZEFSAII (Michael W. Deem and Ramdas Pophale) SiO2 
 PCOD9506310
Probable space group: C C C A
;
_chemical_formula_sum "Si O2"
_cell_formula_units_Z 128
_cell_length_a 18.256890
_cell_length_b 18.372756
_cell_length_c 23.292872
_cell_angle_alpha 90.000000
_cell_angle_beta 90.000000
_cell_angle_gamma 90.000000
_cell_volume 7813.113737
_symmetry_space_group_name_H-M "C C C A"
_symmetry_group_IT_number 68
_space_group.IT_coordinate_system_code '2'
_symmetry_cell_setting 'orthorhombic'
loop_
_space_group_symop_operation_xyz
x,y,z
-x,1/2-y,z
x,1/2-y,1/2-z
-x,y,1/2-z
-x,-y,-z
x,1/2+y,-z
-x,1/2+y,1/2+z
x,-y,1/2+z
1/2+x,1/2+y,z
1/2-x,-y,z
1/2+x,-y,1/2-z
1/2-x,1/2+y,1/2-z
1/2-x,1/2-y,-z
1/2+x,y,-z
1/2-x,y,1/2+z
1/2+x,1/2-y,1/2+z
loop_
_atom_site_type_symbol
_atom_site_label
_atom_site_fract_x
_atom_site_fract_y
_atom_site_fract_z
Si Si1 0.584794 0.735604 0.363379
Si Si2 0.705459 0.685492 0.277527
Si Si3 0.670738 0.966611 0.530924
Si Si4 0.562175 0.573983 0.400361
Si Si5 0.894059 0.108581 0.420301
Si Si6 0.573096 0.480643 0.282115
Si Si7 0.704935 0.076444 0.153846
Si Si8 0.319721 0.553331 0.307008
O O1 0.500000 0.750000 0.346577
O O2 0.635420 0.723452 0.307596
O O3 0.588389 0.657521 0.395060
O O4 0.606238 0.805501 0.402512
O O5 0.751961 0.750000 0.250000
O O6 0.744146 0.641035 0.327107
O O7 0.694867 0.627787 0.226918
O O8 0.638611 0.917192 0.480659
O O9 0.686255 0.919630 0.587556
O O10 0.750000 0.000000 0.514105
O O11 0.613821 0.027822 0.556220
O O12 0.477700 0.580007 0.418652
O O13 0.562574 0.535858 0.336680
O O14 0.847889 0.069427 0.370351
O O15 0.500000 0.454029 0.250000
O O16 0.631232 0.424348 0.308664
O O17 0.616008 0.519507 0.230950
O O18 0.750000 0.000000 0.162986
O O19 0.250000 0.500000 0.306272
#
# Coordination Sequence:
#
# PCOD9506310 Si02
#       8
#    16  16  16  16  16  16  16  16
#     4  10  21  33  51  83 118 142 172 219 288 343
#     4  12  20  33  53  81 112 145 176 215 285 336
#     4  10  21  38  59  75 104 147 199 229 257 323
#     4  10  20  35  57  81 110 144 184 223 281 336
#     4  11  22  36  52  85 115 146 175 234 284 323
#     4  11  18  30  56  84 108 139 181 227 275 330
#     4  10  19  37  57  78 105 148 188 226 263 329
#     4  12  21  34  55  83 121 144 178 222 273 339
#
# _framework density 16.382712999999999
#
# number of rings (size 3 to 8) (size 9 to 14) (size 15 to 20)
#    0.000    1.250    6.250    2.250    0.000    0.250 
#    0.000    2.500    0.000    0.375    6.500    0.000 
#    0.000    0.000    0.000    0.000    0.000    0.000 
#
# Total GULP energy -356483.612815 kJ/mol
# GULP energy per Si atom -5570.056450 kJ/mol
# Density = 1.634543 g / cm^3
# Si number density = 16.382713 Si / 1000 Ang^3
#
#
#
# Elastic Constant Matrix: (Units=GPa)
#
#
# Indices 1 2 3 4 5 6 
#
# 1 103.0277 53.2802 58.4545 0.0000 0.0000 0.0000
# 2 53.2802 90.2874 60.0815 0.0000 0.0000 0.0000
# 3 58.4545 60.0815 116.2260 0.0000 0.0000 0.0000
# 4 0.0000 0.0000 0.0000 45.1607 0.0000 0.0000
# 5 0.0000 0.0000 0.0000 0.0000 6.2166 0.0000
# 6 0.0000 0.0000 0.0000 0.0000 0.0000 18.1010
#
#
#
# Elastic Compliance Matrix: (Units=1/GPa)
#
#
# Indices 1 2 3 4 5 6 
#
# 1 0.015468 -0.006023 -0.004666 0.000000 0.000000 0.000000
# 2 -0.006023 0.019229 -0.006911 0.000000 0.000000 0.000000
# 3 -0.004666 -0.006911 0.014523 0.000000 0.000000 0.000000
# 4 0.000000 0.000000 0.000000 0.022143 0.000000 0.000000
# 5 0.000000 0.000000 0.000000 0.000000 0.160860 0.000000
# 6 0.000000 0.000000 0.000000 0.000000 0.000000 0.055246
#
#
# Mechanical properties :
#
#
# Convention : Reuss Voigt Hill
#
# Bulk Modulus (GPa) = 71.32512 72.57481 71.94996
# Shear Modulus (GPa) = 15.27451 23.07731 19.17591
#
# Velocity S-wave (km/s) = 3.05676 3.75725 3.42496
# Velocity P-wave (km/s) = 7.48931 7.95100 7.72360
#
# Compressibility (1/GPa) = 0.01402031
#
# Stress axis : x y z
#
# Youngs Moduli (GPa) = 64.64831 52.00500 68.85575
#
# Poissons Ratio (x) = 0.31323 0.32128
# Poissons Ratio (y) = 0.38939 0.47585
# Poissons Ratio (z) = 0.30165 0.35940
#
# Static dielectric constant tensor:
#      x y z
#    x 1.583610 0.000000 0.000000 
#    y 0.000000 1.572820 0.000000 
#    z 0.000000 0.000000 1.547930 
# 
# From -- ./inp_files/46199.got.cif
#   From: 2010.05.17/outbox.cif.g08.bks.cpg/sg68_24_cif.got.tgz:46199.got - 2010.06.03 18:57:09.
