data_PCOD9506880
_publ_section_title
;
Structure prediction by ZEFSAII (Michael W. Deem and Ramdas Pophale) SiO2 
 PCOD9506880
Probable space group: C C C A
;
_chemical_formula_sum "Si O2"
_cell_formula_units_Z 104
_cell_length_a 10.699884
_cell_length_b 31.781910
_cell_length_c 14.388825
_cell_angle_alpha 90.000000
_cell_angle_beta 90.000000
_cell_angle_gamma 90.000000
_cell_volume 4893.103403
_symmetry_space_group_name_H-M "C C C A"
_symmetry_group_IT_number 68
_space_group.IT_coordinate_system_code '2'
_symmetry_cell_setting 'orthorhombic'
loop_
_space_group_symop_operation_xyz
x,y,z
-x,1/2-y,z
x,1/2-y,1/2-z
-x,y,1/2-z
-x,-y,-z
x,1/2+y,-z
-x,1/2+y,1/2+z
x,-y,1/2+z
1/2+x,1/2+y,z
1/2-x,-y,z
1/2+x,-y,1/2-z
1/2-x,1/2+y,1/2-z
1/2-x,1/2-y,-z
1/2+x,y,-z
1/2-x,y,1/2+z
1/2+x,1/2-y,1/2+z
loop_
_atom_site_type_symbol
_atom_site_label
_atom_site_fract_x
_atom_site_fract_y
_atom_site_fract_z
Si Si1 0.230161 0.667684 0.854128
Si Si2 0.500000 0.866163 0.250000
Si Si3 0.649648 0.750571 0.585408
Si Si4 0.000000 0.961252 0.250000
Si Si5 0.151189 0.841425 0.429704
Si Si6 0.158420 0.085515 0.396958
Si Si7 0.422556 0.603256 0.898654
Si Si8 0.750000 0.500000 0.805799
O O1 0.310106 0.710836 0.852063
O O2 0.311909 0.625287 0.840973
O O3 0.111159 0.663106 0.788340
O O4 0.184686 0.664630 0.961845
O O5 0.452787 0.896681 0.332674
O O6 0.500000 0.750000 0.559596
O O7 0.750000 0.750000 0.500000
O O8 0.667663 0.797691 0.623935
O O9 0.005980 0.930942 0.161347
O O10 0.126463 0.987916 0.248822
O O11 0.238154 0.877995 0.391409
O O12 0.011054 0.857756 0.423850
O O13 0.121020 0.083502 0.504788
O O14 0.210540 0.040989 0.363987
#
# Coordination Sequence:
#
# PCOD9506880 Si02
#       8
#    16   8  16   8  16  16  16   8
#     4  10  22  37  68 102 141 190 233 291 344 417
#     4  12  23  44  67 103 144 185 236 300 358 430
#     4  10  20  36  66 104 140 183 233 284 340 417
#     4  12  27  46  72 102 138 181 233 294 365 436
#     4  10  20  42  66  98 136 181 232 279 347 420
#     4  11  25  44  72  98 137 181 232 292 361 430
#     4  11  22  44  71  99 135 187 233 283 356 429
#     4  12  26  46  68 104 140 180 230 298 366 432
#
# _framework density 21.254404999999998
#
# number of rings (size 3 to 8) (size 9 to 14) (size 15 to 20)
#    0.000    1.231    4.615    1.385    0.000    1.231 
#    0.000    1.538    0.000    1.846    0.000    0.000 
#    0.000    0.000    0.000    0.000    0.000    0.000 
#
# Total GULP energy -290383.984881 kJ/mol
# GULP energy per Si atom -5584.307402 kJ/mol
# Density = 2.120603 g / cm^3
# Si number density = 21.254405 Si / 1000 Ang^3
#
#
#
# Elastic Constant Matrix: (Units=GPa)
#
#
# Indices 1 2 3 4 5 6 
#
# 1 115.1609 38.1131 15.5105 0.0000 0.0000 0.0000
# 2 38.1131 128.7384 23.9053 0.0000 0.0000 0.0000
# 3 15.5105 23.9053 49.8327 0.0000 0.0000 0.0000
# 4 0.0000 0.0000 0.0000 1.1937 0.0000 0.0000
# 5 0.0000 0.0000 0.0000 0.0000 33.3563 0.0000
# 6 0.0000 0.0000 0.0000 0.0000 0.0000 39.3358
#
#
#
# Elastic Compliance Matrix: (Units=1/GPa)
#
#
# Indices 1 2 3 4 5 6 
#
# 1 0.009774 -0.002556 -0.001816 0.000000 0.000000 0.000000
# 2 -0.002556 0.009196 -0.003616 0.000000 0.000000 0.000000
# 3 -0.001816 -0.003616 0.022367 0.000000 0.000000 0.000000
# 4 0.000000 0.000000 0.000000 0.837707 0.000000 0.000000
# 5 0.000000 0.000000 0.000000 0.000000 0.029979 0.000000
# 6 0.000000 0.000000 0.000000 0.000000 0.000000 0.025422
#
#
# Mechanical properties :
#
#
# Convention : Reuss Voigt Hill
#
# Bulk Modulus (GPa) = 39.43082 49.86556 44.64819
# Shear Modulus (GPa) = 5.21444 29.19071 17.20257
#
# Velocity S-wave (km/s) = 1.56802 3.70996 2.84802
# Velocity P-wave (km/s) = 4.67657 6.47023 5.64510
#
# Compressibility (1/GPa) = 0.02536087
#
# Stress axis : x y z
#
# Youngs Moduli (GPa) = 102.31072 108.74382 44.70911
#
# Poissons Ratio (x) = 0.27800 0.08119
# Poissons Ratio (y) = 0.26155 0.16165
# Poissons Ratio (z) = 0.18578 0.39318
#
# Static dielectric constant tensor:
#      x y z
#    x 4.853000 0.000000 0.000000 
#    y 0.000000 1.761540 0.000000 
#    z 0.000000 0.000000 1.757190 
# 
# From -- ./inp_files/30002.got.cif
#   From: 2010.05.17/outbox.cif.g08.bks.cpg/sg68_16_cif.got.tgz:30002.got - 2010.06.03 18:57:09.
