data_PCOD9506132
_publ_section_title
;
Structure prediction by ZEFSAII (Michael W. Deem and Ramdas Pophale) SiO2 
 PCOD9506132
Probable space group: C C C A
;
_chemical_formula_sum "Si O2"
_cell_formula_units_Z 112
_cell_length_a 23.671899
_cell_length_b 14.820775
_cell_length_c 13.601893
_cell_angle_alpha 90.000000
_cell_angle_beta 90.000000
_cell_angle_gamma 90.000000
_cell_volume 4772.032221
_symmetry_space_group_name_H-M "C C C A"
_symmetry_group_IT_number 68
_space_group.IT_coordinate_system_code '2'
_symmetry_cell_setting 'orthorhombic'
loop_
_space_group_symop_operation_xyz
x,y,z
-x,1/2-y,z
x,1/2-y,1/2-z
-x,y,1/2-z
-x,-y,-z
x,1/2+y,-z
-x,1/2+y,1/2+z
x,-y,1/2+z
1/2+x,1/2+y,z
1/2-x,-y,z
1/2+x,-y,1/2-z
1/2-x,1/2+y,1/2-z
1/2-x,1/2-y,-z
1/2+x,y,-z
1/2-x,y,1/2+z
1/2+x,1/2-y,1/2+z
loop_
_atom_site_type_symbol
_atom_site_label
_atom_site_fract_x
_atom_site_fract_y
_atom_site_fract_z
Si Si1 0.230659 0.099172 0.691419
Si Si2 0.176683 0.764728 0.045403
Si Si3 0.978559 0.941336 0.141854
Si Si4 0.671706 0.628172 0.346894
Si Si5 0.546825 0.852293 0.170540
Si Si6 0.050690 0.309686 0.953251
Si Si7 0.347564 0.077900 0.372841
O O1 0.218009 0.174011 0.610522
O O2 0.279227 0.128992 0.767412
O O3 0.175402 0.088552 0.761339
O O4 0.250000 0.000000 0.653739
O O5 0.113226 0.790270 0.081720
O O6 0.181298 0.657345 0.063326
O O7 0.179930 0.800016 0.933820
O O8 0.914981 0.908077 0.119861
O O9 0.000000 0.914129 0.250000
O O10 0.028063 0.908668 0.070752
O O11 0.971366 0.047736 0.140287
O O12 0.611410 0.643118 0.293291
O O13 0.667576 0.526963 0.395499
O O14 0.500000 0.830864 0.250000
O O15 0.551120 0.795707 0.070607
O O16 0.000000 0.250000 0.909659
#
# Coordination Sequence:
#
# PCOD9506132 Si02
#       7
#    16  16  16  16  16  16  16
#     4  10  22  40  63  92 129 171 221 274 335 393
#     4  11  22  41  68  95 132 176 221 273 340 400
#     4  10  19  34  58  95 130 167 210 265 329 395
#     4   9  22  42  64  95 132 170 221 279 327 401
#     4   9  20  39  64  87 124 172 216 264 326 393
#     4  11  21  36  61  97 131 164 213 267 328 398
#     4  10  20  39  63  93 134 170 217 278 329 397
#
# _framework density 23.470084
#
# number of rings (size 3 to 8) (size 9 to 14) (size 15 to 20)
#    0.000    2.000    1.429    1.714    0.000    4.000 
#    0.000    4.286   12.571    0.000    0.000    0.000 
#    0.000    0.000    0.000    0.000    0.000    0.000 
#
# Total GULP energy -312880.077336 kJ/mol
# GULP energy per Si atom -5587.144238 kJ/mol
# Density = 2.341666 g / cm^3
# Si number density = 23.470084 Si / 1000 Ang^3
#
#
#
# Elastic Constant Matrix: (Units=GPa)
#
#
# Indices 1 2 3 4 5 6 
#
# 1 124.0343 51.7521 29.0511 0.0000 0.0000 0.0000
# 2 51.7521 121.5041 34.1883 0.0000 0.0000 0.0000
# 3 29.0511 34.1883 73.7394 0.0000 0.0000 0.0000
# 4 0.0000 0.0000 0.0000 14.3029 0.0000 0.0000
# 5 0.0000 0.0000 0.0000 0.0000 33.4664 0.0000
# 6 0.0000 0.0000 0.0000 0.0000 0.0000 52.4350
#
#
#
# Elastic Compliance Matrix: (Units=1/GPa)
#
#
# Indices 1 2 3 4 5 6 
#
# 1 0.010130 -0.003671 -0.002289 0.000000 0.000000 0.000000
# 2 -0.003671 0.010795 -0.003559 0.000000 0.000000 0.000000
# 3 -0.002289 -0.003559 0.016113 0.000000 0.000000 0.000000
# 4 0.000000 0.000000 0.000000 0.069916 0.000000 0.000000
# 5 0.000000 0.000000 0.000000 0.000000 0.029881 0.000000
# 6 0.000000 0.000000 0.000000 0.000000 0.000000 0.019071
#
#
# Mechanical properties :
#
#
# Convention : Reuss Voigt Hill
#
# Bulk Modulus (GPa) = 55.55238 61.02898 58.29068
# Shear Modulus (GPa) = 27.63300 33.65995 30.64647
#
# Velocity S-wave (km/s) = 3.43501 3.79114 3.61746
# Velocity P-wave (km/s) = 6.28118 6.72481 6.50677
#
# Compressibility (1/GPa) = 0.01800103
#
# Stress axis : x y z
#
# Youngs Moduli (GPa) = 98.71733 92.63604 62.06122
#
# Poissons Ratio (x) = 0.34002 0.14206
# Poissons Ratio (y) = 0.36235 0.22087
# Poissons Ratio (z) = 0.22597 0.32968
#
# Static dielectric constant tensor:
#      x y z
#    x 1.908820 0.000000 0.000000 
#    y 0.000000 1.977670 0.000000 
#    z 0.000000 0.000000 1.877020 
# 
# From -- ./inp_files/25470.got.cif
#   From: 2010.05.17/outbox.cif.g08.bks.cpg/sg68_13_cif.got.tgz:25470.got - 2010.06.03 18:57:09.
