data_PCOD9506546
_publ_section_title
;
Structure prediction by ZEFSAII (Michael W. Deem and Ramdas Pophale) SiO2 
 PCOD9506546
Probable space group: C C C A
;
_chemical_formula_sum "Si O2"
_cell_formula_units_Z 68
_cell_length_a 11.642456
_cell_length_b 10.803045
_cell_length_c 25.449334
_cell_angle_alpha 90.000000
_cell_angle_beta 90.000000
_cell_angle_gamma 90.000000
_cell_volume 3200.863926
_symmetry_space_group_name_H-M "C C C A"
_symmetry_group_IT_number 68
_space_group.IT_coordinate_system_code '2'
_symmetry_cell_setting 'orthorhombic'
loop_
_space_group_symop_operation_xyz
x,y,z
-x,1/2-y,z
x,1/2-y,1/2-z
-x,y,1/2-z
-x,-y,-z
x,1/2+y,-z
-x,1/2+y,1/2+z
x,-y,1/2+z
1/2+x,1/2+y,z
1/2-x,-y,z
1/2+x,-y,1/2-z
1/2-x,1/2+y,1/2-z
1/2-x,1/2-y,-z
1/2+x,y,-z
1/2-x,y,1/2+z
1/2+x,1/2-y,1/2+z
loop_
_atom_site_type_symbol
_atom_site_label
_atom_site_fract_x
_atom_site_fract_y
_atom_site_fract_z
Si Si1 0.000000 0.250000 0.250000
Si Si2 0.472754 0.097840 0.578791
Si Si3 0.090259 0.351262 0.535855
Si Si4 0.219689 0.857710 0.880352
Si Si5 0.181031 0.381936 0.323826
O O1 0.082559 0.336002 0.284669
O O2 0.410445 0.153736 0.527247
O O3 0.584002 0.158685 0.607489
O O4 0.379253 0.070191 0.622683
O O5 0.535861 0.978958 0.554756
O O6 0.210282 0.339432 0.565534
O O7 0.000000 0.250000 0.554596
O O8 0.248178 0.744871 0.840661
O O9 0.250000 0.000000 0.862951
O O10 0.250000 0.500000 0.302502
#
# Coordination Sequence:
#
# PCOD9506546 Si02
#       5
#     4  16  16  16  16
#     4  12  28  52  72 104 140 176 244 314 356 416
#     4  10  21  38  60  95 140 181 223 273 340 409
#     4  10  20  33  58 100 143 181 222 269 330 423
#     4  10  21  39  65  96 143 185 220 284 342 411
#     4  12  25  46  76  97 127 182 229 289 355 415
#
# _framework density 21.244264000000001
#
# number of rings (size 3 to 8) (size 9 to 14) (size 15 to 20)
#    0.000    1.412    2.353    2.824    0.000    9.412 
#    0.000    0.000    0.000    0.000    0.000    0.000 
#    0.000    0.000    0.000    0.000    0.000    0.000 
#
# Total GULP energy -189680.802419 kJ/mol
# GULP energy per Si atom -5578.847130 kJ/mol
# Density = 2.119591 g / cm^3
# Si number density = 21.244264 Si / 1000 Ang^3
#
#
#
# Elastic Constant Matrix: (Units=GPa)
#
#
# Indices 1 2 3 4 5 6 
#
# 1 103.2275 50.7141 29.9538 0.0000 0.0000 0.0000
# 2 50.7141 122.6920 39.4978 0.0000 0.0000 0.0000
# 3 29.9538 39.4978 74.5165 0.0000 0.0000 0.0000
# 4 0.0000 0.0000 0.0000 3.4362 0.0000 0.0000
# 5 0.0000 0.0000 0.0000 0.0000 55.0478 0.0000
# 6 0.0000 0.0000 0.0000 0.0000 0.0000 46.0055
#
#
#
# Elastic Compliance Matrix: (Units=1/GPa)
#
#
# Indices 1 2 3 4 5 6 
#
# 1 0.012617 -0.004319 -0.002782 0.000000 0.000000 0.000000
# 2 -0.004319 0.011306 -0.004257 0.000000 0.000000 0.000000
# 3 -0.002782 -0.004257 0.016794 0.000000 0.000000 0.000000
# 4 0.000000 0.000000 0.000000 0.291016 0.000000 0.000000
# 5 0.000000 0.000000 0.000000 0.000000 0.018166 0.000000
# 6 0.000000 0.000000 0.000000 0.000000 0.000000 0.021737
#
#
# Mechanical properties :
#
#
# Convention : Reuss Voigt Hill
#
# Bulk Modulus (GPa) = 55.55215 60.08529 57.81872
# Shear Modulus (GPa) = 12.48899 32.91593 22.70246
#
# Velocity S-wave (km/s) = 2.42725 3.94052 3.27255
# Velocity P-wave (km/s) = 5.83621 7.00343 6.44629
#
# Compressibility (1/GPa) = 0.01800110
#
# Stress axis : x y z
#
# Youngs Moduli (GPa) = 79.26013 88.44688 59.54359
#
# Poissons Ratio (x) = 0.38204 0.16565
# Poissons Ratio (y) = 0.34236 0.25345
# Poissons Ratio (z) = 0.22051 0.37648
#
# Static dielectric constant tensor:
#      x y z
#    x 2.168840 0.000000 0.000000 
#    y 0.000000 2.573160 0.000000 
#    z 0.000000 0.000000 1.746760 
# 
# From -- ./inp_files/50017.got.cif
#   From: 2010.05.17/outbox.cif.g08.bks.cpg/sg68_26_cif.got.tgz:50017.got - 2010.06.03 18:57:09.
