data_PCOD9506020
_publ_section_title
;
Structure prediction by ZEFSAII (Michael W. Deem and Ramdas Pophale) SiO2 
 PCOD9506020
Probable space group: C C C A
;
_chemical_formula_sum "Si O2"
_cell_formula_units_Z 128
_cell_length_a 24.749858
_cell_length_b 24.127281
_cell_length_c 12.615088
_cell_angle_alpha 90.000000
_cell_angle_beta 90.000000
_cell_angle_gamma 90.000000
_cell_volume 7533.059162
_symmetry_space_group_name_H-M "C C C A"
_symmetry_group_IT_number 68
_space_group.IT_coordinate_system_code '2'
_symmetry_cell_setting 'orthorhombic'
loop_
_space_group_symop_operation_xyz
x,y,z
-x,1/2-y,z
x,1/2-y,1/2-z
-x,y,1/2-z
-x,-y,-z
x,1/2+y,-z
-x,1/2+y,1/2+z
x,-y,1/2+z
1/2+x,1/2+y,z
1/2-x,-y,z
1/2+x,-y,1/2-z
1/2-x,1/2+y,1/2-z
1/2-x,1/2-y,-z
1/2+x,y,-z
1/2-x,y,1/2+z
1/2+x,1/2-y,1/2+z
loop_
_atom_site_type_symbol
_atom_site_label
_atom_site_fract_x
_atom_site_fract_y
_atom_site_fract_z
Si Si1 0.887215 0.412534 0.648515
Si Si2 0.880090 0.073351 0.610296
Si Si3 0.777552 0.193374 0.316246
Si Si4 0.783246 0.635424 0.884320
Si Si5 0.306868 0.977892 0.494850
Si Si6 0.838529 0.694088 0.076768
Si Si7 0.999581 0.025325 0.623714
Si Si8 0.668040 0.681641 0.961125
O O1 0.865731 0.417440 0.767511
O O2 0.845819 0.447885 0.577820
O O3 0.883422 0.348134 0.616873
O O4 0.946826 0.437076 0.631027
O O5 0.942005 0.054969 0.616799
O O6 0.873003 0.131340 0.549923
O O7 0.841345 0.026973 0.558868
O O8 0.780687 0.250000 0.250000
O O9 0.795005 0.144935 0.237903
O O10 0.716390 0.185301 0.356050
O O11 0.814515 0.193782 0.418999
O O12 0.723138 0.659437 0.905699
O O13 0.789669 0.571742 0.915786
O O14 0.821719 0.672761 0.959391
O O15 0.250000 0.000000 0.539997
O O16 0.850526 0.759157 0.083382
O O17 0.000000 0.999106 0.750000
O O18 0.000000 0.000000 0.500000
#
# Coordination Sequence:
#
# PCOD9506020 Si02
#       8
#    16  16  16  16  16  16  16  16
#     4  10  23  39  60  83 116 157 193 251 299 357
#     4  11  23  38  59  87 117 154 199 250 299 356
#     4  11  18  31  54  78 114 160 198 229 281 357
#     4  10  19  33  48  75 114 158 188 230 279 349
#     4  11  22  36  53  85 125 151 192 236 299 361
#     4  10  20  32  52  79 113 152 194 233 288 347
#     4  10  21  44  68  86 115 156 213 255 301 361
#     4  11  20  34  52  81 116 152 198 238 287 356
#
# _framework density 16.991769999999999
#
# number of rings (size 3 to 8) (size 9 to 14) (size 15 to 20)
#    0.000    1.500    5.000    1.500    0.000    1.500 
#    0.000    0.625    0.000    2.250    0.000    0.000 
#    0.000    0.000    0.000    0.000    0.000    0.000 
#
# Total GULP energy -356271.879374 kJ/mol
# GULP energy per Si atom -5566.748115 kJ/mol
# Density = 1.695310 g / cm^3
# Si number density = 16.991770 Si / 1000 Ang^3
#
#
#
# Elastic Constant Matrix: (Units=GPa)
#
#
# Indices 1 2 3 4 5 6 
#
# 1 70.1904 32.1655 21.7679 0.0000 0.0000 0.0000
# 2 32.1655 109.3153 34.0007 0.0000 0.0000 0.0000
# 3 21.7679 34.0007 93.2667 0.0000 0.0000 0.0000
# 4 0.0000 0.0000 0.0000 19.6676 0.0000 0.0000
# 5 0.0000 0.0000 0.0000 0.0000 10.3850 0.0000
# 6 0.0000 0.0000 0.0000 0.0000 0.0000 15.5306
#
#
#
# Elastic Compliance Matrix: (Units=1/GPa)
#
#
# Indices 1 2 3 4 5 6 
#
# 1 0.016934 -0.004234 -0.002409 0.000000 0.000000 0.000000
# 2 -0.004234 0.011376 -0.003159 0.000000 0.000000 0.000000
# 3 -0.002409 -0.003159 0.012436 0.000000 0.000000 0.000000
# 4 0.000000 0.000000 0.000000 0.050845 0.000000 0.000000
# 5 0.000000 0.000000 0.000000 0.000000 0.096293 0.000000
# 6 0.000000 0.000000 0.000000 0.000000 0.000000 0.064389
#
#
# Mechanical properties :
#
#
# Convention : Reuss Voigt Hill
#
# Bulk Modulus (GPa) = 47.29731 49.84896 48.57314
# Shear Modulus (GPa) = 17.92606 21.43920 19.68263
#
# Velocity S-wave (km/s) = 3.25158 3.55595 3.40716
# Velocity P-wave (km/s) = 6.48019 6.80151 6.64279
#
# Compressibility (1/GPa) = 0.02114285
#
# Stress axis : x y z
#
# Youngs Moduli (GPa) = 59.05244 87.90329 80.41266
#
# Poissons Ratio (x) = 0.37214 0.19371
# Poissons Ratio (y) = 0.25000 0.25403
# Poissons Ratio (z) = 0.14226 0.27770
#
# Static dielectric constant tensor:
#      x y z
#    x 1.544410 0.000000 0.000000 
#    y 0.000000 1.608060 0.000000 
#    z 0.000000 0.000000 1.640230 
# 
# From -- ./inp_files/16691.got.cif
#   From: 2010.05.17/outbox.cif.g08.bks.cpg/sg68_9_cif.got.tgz:16691.got - 2010.06.03 18:57:09.
