data_PCOD9506365
_publ_section_title
;
Structure prediction by ZEFSAII (Michael W. Deem and Ramdas Pophale) SiO2 
 PCOD9506365
Probable space group: C C C A
;
_chemical_formula_sum "Si O2"
_cell_formula_units_Z 96
_cell_length_a 8.663409
_cell_length_b 27.236203
_cell_length_c 18.578909
_cell_angle_alpha 90.000000
_cell_angle_beta 90.000000
_cell_angle_gamma 90.000000
_cell_volume 4383.849013
_symmetry_space_group_name_H-M "C C C A"
_symmetry_group_IT_number 68
_space_group.IT_coordinate_system_code '2'
_symmetry_cell_setting 'orthorhombic'
loop_
_space_group_symop_operation_xyz
x,y,z
-x,1/2-y,z
x,1/2-y,1/2-z
-x,y,1/2-z
-x,-y,-z
x,1/2+y,-z
-x,1/2+y,1/2+z
x,-y,1/2+z
1/2+x,1/2+y,z
1/2-x,-y,z
1/2+x,-y,1/2-z
1/2-x,1/2+y,1/2-z
1/2-x,1/2-y,-z
1/2+x,y,-z
1/2-x,y,1/2+z
1/2+x,1/2-y,1/2+z
loop_
_atom_site_type_symbol
_atom_site_label
_atom_site_fract_x
_atom_site_fract_y
_atom_site_fract_z
Si Si1 0.942869 0.696509 0.667771
Si Si2 0.378411 0.644809 0.813930
Si Si3 0.998325 0.941649 0.395515
Si Si4 0.581441 0.602359 0.400958
Si Si5 0.711161 0.561583 0.019295
Si Si6 0.773834 0.947396 0.225971
O O1 0.757943 0.683238 0.666194
O O2 0.000000 0.750000 0.642898
O O3 0.000000 0.692489 0.750000
O O4 0.039637 0.656030 0.625391
O O5 0.500000 0.660547 0.750000
O O6 0.470075 0.617732 0.880096
O O7 0.289278 0.598022 0.779364
O O8 0.841334 0.959850 0.429595
O O9 0.119609 0.962809 0.453586
O O10 0.070164 0.955701 0.320104
O O11 0.422236 0.580678 0.429672
O O12 0.695917 0.601046 0.469428
O O13 0.652006 0.570635 0.335090
O O14 0.750000 0.000000 0.261252
#
# Coordination Sequence:
#
# PCOD9506365 Si02
#       6
#    16  16  16  16  16  16
#     4  11  22  39  64  91 120 161 205 252 316 373
#     4  10  20  39  62  87 128 156 199 263 311 365
#     4   9  18  35  56  85 117 157 200 247 299 361
#     4  10  19  38  60  86 122 161 199 254 298 366
#     4   9  18  34  63  82 115 169 199 239 314 353
#     4  10  21  38  60  91 118 158 210 260 315 371
#
# _framework density 21.898562999999999
#
# number of rings (size 3 to 8) (size 9 to 14) (size 15 to 20)
#    0.000    2.167    3.333    0.000    0.000    0.000 
#    9.000   16.667    0.000    1.000    0.000    0.000 
#    0.000    0.000    0.000    0.000    0.000    0.000 
#
# Total GULP energy -267436.219514 kJ/mol
# GULP energy per Si atom -5571.587907 kJ/mol
# Density = 2.184872 g / cm^3
# Si number density = 21.898563 Si / 1000 Ang^3
#
#
#
# Elastic Constant Matrix: (Units=GPa)
#
#
# Indices 1 2 3 4 5 6 
#
# 1 139.7880 45.6785 37.3327 0.0000 0.0000 0.0000
# 2 45.6785 111.3788 23.1912 0.0000 0.0000 0.0000
# 3 37.3327 23.1912 78.1883 0.0000 0.0000 0.0000
# 4 0.0000 0.0000 0.0000 22.3063 0.0000 0.0000
# 5 0.0000 0.0000 0.0000 0.0000 43.3628 0.0000
# 6 0.0000 0.0000 0.0000 0.0000 0.0000 27.9574
#
#
#
# Elastic Compliance Matrix: (Units=1/GPa)
#
#
# Indices 1 2 3 4 5 6 
#
# 1 0.009050 -0.002997 -0.003432 0.000000 0.000000 0.000000
# 2 -0.002997 0.010562 -0.001702 0.000000 0.000000 0.000000
# 3 -0.003432 -0.001702 0.014933 0.000000 0.000000 0.000000
# 4 0.000000 0.000000 0.000000 0.044830 0.000000 0.000000
# 5 0.000000 0.000000 0.000000 0.000000 0.023061 0.000000
# 6 0.000000 0.000000 0.000000 0.000000 0.000000 0.035769
#
#
# Mechanical properties :
#
#
# Convention : Reuss Voigt Hill
#
# Bulk Modulus (GPa) = 54.69518 60.19556 57.44537
# Shear Modulus (GPa) = 31.14094 33.60215 32.37154
#
# Velocity S-wave (km/s) = 3.77510 3.92145 3.84897
# Velocity P-wave (km/s) = 6.63571 6.93193 6.78544
#
# Compressibility (1/GPa) = 0.01828315
#
# Stress axis : x y z
#
# Youngs Moduli (GPa) = 110.50308 94.68124 66.96534
#
# Poissons Ratio (x) = 0.28374 0.22983
# Poissons Ratio (y) = 0.33115 0.11396
# Poissons Ratio (z) = 0.37925 0.16113
#
# Static dielectric constant tensor:
#      x y z
#    x 1.925830 0.000000 0.000000 
#    y 0.000000 1.822090 0.000000 
#    z 0.000000 0.000000 1.823670 
# 
# From -- ./inp_files/36465.got.cif
#   From: 2010.05.17/outbox.cif.g08.bks.cpg/sg68_19_cif.got.tgz:36465.got - 2010.06.03 18:57:09.
