data_PCOD9506393
_publ_section_title
;
Structure prediction by ZEFSAII (Michael W. Deem and Ramdas Pophale) SiO2 
 PCOD9506393
Probable space group: C C C A
;
_chemical_formula_sum "Si O2"
_cell_formula_units_Z 88
_cell_length_a 21.574151
_cell_length_b 12.339416
_cell_length_c 14.834506
_cell_angle_alpha 90.000000
_cell_angle_beta 90.000000
_cell_angle_gamma 90.000000
_cell_volume 3949.129802
_symmetry_space_group_name_H-M "C C C A"
_symmetry_group_IT_number 68
_space_group.IT_coordinate_system_code '2'
_symmetry_cell_setting 'orthorhombic'
loop_
_space_group_symop_operation_xyz
x,y,z
-x,1/2-y,z
x,1/2-y,1/2-z
-x,y,1/2-z
-x,-y,-z
x,1/2+y,-z
-x,1/2+y,1/2+z
x,-y,1/2+z
1/2+x,1/2+y,z
1/2-x,-y,z
1/2+x,-y,1/2-z
1/2-x,1/2+y,1/2-z
1/2-x,1/2-y,-z
1/2+x,y,-z
1/2-x,y,1/2+z
1/2+x,1/2-y,1/2+z
loop_
_atom_site_type_symbol
_atom_site_label
_atom_site_fract_x
_atom_site_fract_y
_atom_site_fract_z
Si Si1 0.323187 0.492966 0.592185
Si Si2 0.615276 0.776362 0.146160
Si Si3 0.362852 0.444325 0.895779
Si Si4 0.493273 0.073664 0.910735
Si Si5 0.500000 0.420237 0.250000
Si Si6 0.135341 0.870308 0.246597
O O1 0.250000 0.500000 0.584421
O O2 0.341947 0.382313 0.640489
O O3 0.351821 0.503959 0.492736
O O4 0.350724 0.586877 0.654053
O O5 0.597734 0.750000 0.250000
O O6 0.660537 0.678547 0.112288
O O7 0.554391 0.825290 0.091472
O O8 0.435063 0.406364 0.885547
O O9 0.343710 0.534196 0.822419
O O10 0.473952 0.995829 0.829094
O O11 0.500000 0.000000 0.000000
O O12 0.561973 0.359460 0.219587
O O13 0.162550 0.750000 0.250000
#
# Coordination Sequence:
#
# PCOD9506393 Si02
#       6
#    16  16  16  16   8  16
#     4  12  28  49  69 100 143 192 247 296 357 430
#     4  12  23  47  74 107 146 187 243 303 360 442
#     4  11  25  43  72 108 138 190 243 297 370 432
#     4  11  20  39  70 107 149 178 226 294 369 429
#     4  10  19  38  69 102 140 179 229 284 360 436
#     4  11  24  45  69 104 142 182 233 303 372 431
#
# _framework density 22.283390000000001
#
# number of rings (size 3 to 8) (size 9 to 14) (size 15 to 20)
#    0.000    0.727    5.455    1.909    2.545    2.909 
#    0.000    3.636    0.000    0.000    0.000    0.000 
#    0.000    0.000    0.000    0.000    0.000    0.000 
#
# Total GULP energy -245072.121069 kJ/mol
# GULP energy per Si atom -5569.820933 kJ/mol
# Density = 2.223267 g / cm^3
# Si number density = 22.283390 Si / 1000 Ang^3
#
#
#
# Elastic Constant Matrix: (Units=GPa)
#
#
# Indices 1 2 3 4 5 6 
#
# 1 74.7245 -0.5585 -2.3263 0.0000 0.0000 0.0000
# 2 -0.5585 145.1948 37.7180 0.0000 0.0000 0.0000
# 3 -2.3263 37.7180 131.1625 0.0000 0.0000 0.0000
# 4 0.0000 0.0000 0.0000 35.9886 0.0000 0.0000
# 5 0.0000 0.0000 0.0000 0.0000 -43.4488 0.0000
# 6 0.0000 0.0000 0.0000 0.0000 0.0000 1.0910
#
#
#
# Elastic Compliance Matrix: (Units=1/GPa)
#
#
# Indices 1 2 3 4 5 6 
#
# 1 0.013390 -0.000011 0.000241 0.000000 0.000000 0.000000
# 2 -0.000011 0.007443 -0.002141 0.000000 0.000000 0.000000
# 3 0.000241 -0.002141 0.008244 0.000000 0.000000 0.000000
# 4 0.000000 0.000000 0.000000 0.027787 0.000000 0.000000
# 5 0.000000 0.000000 0.000000 0.000000 -0.023016 0.000000
# 6 0.000000 0.000000 0.000000 0.000000 0.000000 0.916570
#
#
# Mechanical properties :
#
#
# Convention : Reuss Voigt Hill
#
# Bulk Modulus (GPa) = 39.59582 46.74981 43.17282
# Shear Modulus (GPa) = 5.19395 19.80940 12.50168
#
# Velocity S-wave (km/s) = 1.52837 2.98480 2.37118
# Velocity P-wave (km/s) = 4.57410 5.73620 5.18779
#
# Compressibility (1/GPa) = 0.02525519
#
# Stress axis : x y z
#
# Youngs Moduli (GPa) = 74.68316 134.34816 121.30066
#
# Poissons Ratio (x) = 0.00148 -0.02919
# Poissons Ratio (y) = 0.00082 0.25966
# Poissons Ratio (z) = -0.01797 0.28759
#
# Static dielectric constant tensor:
#      x y z
#    x 1.955470 0.000000 0.000000 
#    y 0.000000 2.064060 0.000000 
#    z 0.000000 0.000000 1.785490 
# 
# From -- ./inp_files/25254.got.cif
#   From: 2010.05.17/outbox.cif.g08.bks.cpg/sg68_13_cif.got.tgz:25254.got - 2010.06.03 18:57:09.
