data_PCOD9506166
_publ_section_title
;
Structure prediction by ZEFSAII (Michael W. Deem and Ramdas Pophale) SiO2 
 PCOD9506166
Probable space group: C C C A
;
_chemical_formula_sum "Si O2"
_cell_formula_units_Z 80
_cell_length_a 27.124262
_cell_length_b 5.262440
_cell_length_c 26.339727
_cell_angle_alpha 90.000000
_cell_angle_beta 90.000000
_cell_angle_gamma 90.000000
_cell_volume 3759.727399
_symmetry_space_group_name_H-M "C C C A"
_symmetry_group_IT_number 68
_space_group.IT_coordinate_system_code '2'
_symmetry_cell_setting 'orthorhombic'
loop_
_space_group_symop_operation_xyz
x,y,z
-x,1/2-y,z
x,1/2-y,1/2-z
-x,y,1/2-z
-x,-y,-z
x,1/2+y,-z
-x,1/2+y,1/2+z
x,-y,1/2+z
1/2+x,1/2+y,z
1/2-x,-y,z
1/2+x,-y,1/2-z
1/2-x,1/2+y,1/2-z
1/2-x,1/2-y,-z
1/2+x,y,-z
1/2-x,y,1/2+z
1/2+x,1/2-y,1/2+z
loop_
_atom_site_type_symbol
_atom_site_label
_atom_site_fract_x
_atom_site_fract_y
_atom_site_fract_z
Si Si1 0.805430 0.964208 0.547356
Si Si2 0.607743 0.741357 0.352660
Si Si3 0.719490 0.749207 0.311499
Si Si4 0.058840 0.764865 0.190496
Si Si5 0.842762 0.975663 0.436416
O O1 0.840192 0.940798 0.497532
O O2 0.827783 0.193105 0.580600
O O3 0.750000 0.000000 0.529435
O O4 0.801954 0.690747 0.573081
O O5 0.662846 0.744996 0.329486
O O6 0.584112 0.464590 0.341844
O O7 0.613003 0.871606 0.409293
O O8 0.575952 0.956115 0.325340
O O9 0.717930 0.750000 0.250000
O O10 0.750000 0.500000 0.328181
O O11 0.750000 0.000000 0.326301
O O12 0.072152 0.750000 0.250000
O O13 0.000000 0.750000 0.185177
#
# Coordination Sequence:
#
# PCOD9506166 Si02
#       5
#    16  16  16  16  16
#     4  10  19  35  54  79 120 164 205 246 284 337
#     4  12  23  38  61  90 118 151 199 253 295 354
#     4  10  21  35  50  74 113 157 189 219 270 340
#     4  11  24  43  66  89 114 149 196 256 323 369
#     4  10  20  32  52  82 112 152 191 236 296 340
#
# _framework density 21.27814
#
# number of rings (size 3 to 8) (size 9 to 14) (size 15 to 20)
#    0.000    1.400    0.000    7.800    0.000    6.400 
#    0.000    0.000    0.000    0.000    0.000   56.000 
#    0.000    0.000    0.000    0.000    0.000    0.000 
#
# Total GULP energy -222729.657463 kJ/mol
# GULP energy per Si atom -5568.241437 kJ/mol
# Density = 2.122971 g / cm^3
# Si number density = 21.278140 Si / 1000 Ang^3
#
#
#
# Elastic Constant Matrix: (Units=GPa)
#
#
# Indices 1 2 3 4 5 6 
#
# 1 55.5015 16.2730 18.0731 0.0000 0.0000 0.0000
# 2 16.2730 147.3887 1.5369 0.0000 0.0000 0.0000
# 3 18.0731 1.5369 72.1150 0.0000 0.0000 0.0000
# 4 0.0000 0.0000 0.0000 28.8270 0.0000 0.0000
# 5 0.0000 0.0000 0.0000 0.0000 -1.1591 0.0000
# 6 0.0000 0.0000 0.0000 0.0000 0.0000 38.8897
#
#
#
# Elastic Compliance Matrix: (Units=1/GPa)
#
#
# Indices 1 2 3 4 5 6 
#
# 1 0.020301 -0.002189 -0.005041 0.000000 0.000000 0.000000
# 2 -0.002189 0.007022 0.000399 0.000000 0.000000 0.000000
# 3 -0.005041 0.000399 0.015122 0.000000 0.000000 0.000000
# 4 0.000000 0.000000 0.000000 0.034690 0.000000 0.000000
# 5 0.000000 0.000000 0.000000 0.000000 -0.862727 0.000000
# 6 0.000000 0.000000 0.000000 0.000000 0.000000 0.025714
#
#
# Mechanical properties :
#
#
# Convention : Reuss Voigt Hill
#
# Bulk Modulus (GPa) = 34.74300 38.53012 36.63656
# Shear Modulus (GPa) = -6.78773 29.25299 11.23263
#
# Velocity S-wave (km/s) = -1.78800 3.71184 2.30009
# Velocity P-wave (km/s) = 3.47864 6.04297 4.93044
#
# Compressibility (1/GPa) = 0.02878277
#
# Stress axis : x y z
#
# Youngs Moduli (GPa) = 49.25914 142.40374 66.13057
#
# Poissons Ratio (x) = 0.31170 0.33337
# Poissons Ratio (y) = 0.10782 -0.02638
# Poissons Ratio (z) = 0.24832 -0.05680
#
# Static dielectric constant tensor:
#      x y z
#    x 1.741300 0.000000 0.000000 
#    y 0.000000 1.870920 0.000000 
#    z 0.000000 0.000000 1.955420 
# 
# From -- ./inp_files/52293.got.cif
#   From: 2010.05.17/outbox.cif.g08.bks.cpg/sg68_27_cif.got.tgz:52293.got - 2010.06.03 18:57:09.
