data_PCOD9506818
_publ_section_title
;
Structure prediction by ZEFSAII (Michael W. Deem and Ramdas Pophale) SiO2 
 PCOD9506818
Probable space group: C C C A
;
_chemical_formula_sum "Si O2"
_cell_formula_units_Z 96
_cell_length_a 19.501942
_cell_length_b 27.449216
_cell_length_c 9.669624
_cell_angle_alpha 90.000000
_cell_angle_beta 90.000000
_cell_angle_gamma 90.000000
_cell_volume 5176.275610
_symmetry_space_group_name_H-M "C C C A"
_symmetry_group_IT_number 68
_space_group.IT_coordinate_system_code '2'
_symmetry_cell_setting 'orthorhombic'
loop_
_space_group_symop_operation_xyz
x,y,z
-x,1/2-y,z
x,1/2-y,1/2-z
-x,y,1/2-z
-x,-y,-z
x,1/2+y,-z
-x,1/2+y,1/2+z
x,-y,1/2+z
1/2+x,1/2+y,z
1/2-x,-y,z
1/2+x,-y,1/2-z
1/2-x,1/2+y,1/2-z
1/2-x,1/2-y,-z
1/2+x,y,-z
1/2-x,y,1/2+z
1/2+x,1/2-y,1/2+z
loop_
_atom_site_type_symbol
_atom_site_label
_atom_site_fract_x
_atom_site_fract_y
_atom_site_fract_z
Si Si1 0.554618 0.107360 0.641672
Si Si2 0.442262 0.779835 0.395028
Si Si3 0.299290 0.953883 0.640426
Si Si4 0.713718 0.894269 0.140258
Si Si5 0.459402 0.963523 0.605394
Si Si6 0.709278 0.219303 0.609034
O O1 0.500000 0.085554 0.750000
O O2 0.538953 0.164506 0.628985
O O3 0.633808 0.101209 0.691279
O O4 0.544849 0.084417 0.490806
O O5 0.500000 0.750000 0.475059
O O6 0.434798 0.750000 0.250000
O O7 0.367040 0.781964 0.453931
O O8 0.289593 0.917901 0.510982
O O9 0.269393 0.924093 0.771315
O O10 0.378618 0.972188 0.642762
O O11 0.250000 0.000000 0.622458
O O12 0.730177 0.836736 0.134561
O O13 0.500000 0.959410 0.750000
O O14 0.500000 0.000000 0.500000
O O15 0.710741 0.250000 0.750000
O O16 0.750000 0.250000 0.500000
#
# Coordination Sequence:
#
# PCOD9506818 Si02
#       6
#    16  16  16  16  16  16
#     4  10  20  37  65  91 124 160 203 257 302 361
#     4   9  16  33  59  92 117 155 209 240 282 365
#     4  11  25  42  65  89 125 162 206 256 309 370
#     4  10  23  39  60  93 123 160 207 251 305 370
#     4  11  27  44  63  91 124 161 209 258 315 376
#     4  10  20  36  60  88 122 158 197 248 304 359
#
# _framework density 18.546151999999999
#
# number of rings (size 3 to 8) (size 9 to 14) (size 15 to 20)
#    0.000    1.833    1.667    2.000    9.333    0.000 
#    3.000    0.000    0.000    0.000    0.000    0.000 
#    0.000    0.000    0.000    0.000    0.000    0.000 
#
# Total GULP energy -267279.300369 kJ/mol
# GULP energy per Si atom -5568.318758 kJ/mol
# Density = 1.850394 g / cm^3
# Si number density = 18.546152 Si / 1000 Ang^3
#
#
#
# Elastic Constant Matrix: (Units=GPa)
#
#
# Indices 1 2 3 4 5 6 
#
# 1 122.8685 49.0732 56.5042 0.0000 0.0000 0.0000
# 2 49.0732 115.1613 28.5781 0.0000 0.0000 0.0000
# 3 56.5042 28.5781 88.5188 0.0000 0.0000 0.0000
# 4 0.0000 0.0000 0.0000 11.2012 0.0000 0.0000
# 5 0.0000 0.0000 0.0000 0.0000 25.6659 0.0000
# 6 0.0000 0.0000 0.0000 0.0000 0.0000 22.8691
#
#
#
# Elastic Compliance Matrix: (Units=1/GPa)
#
#
# Indices 1 2 3 4 5 6 
#
# 1 0.012849 -0.003740 -0.006995 0.000000 0.000000 0.000000
# 2 -0.003740 0.010528 -0.001012 0.000000 0.000000 0.000000
# 3 -0.006995 -0.001012 0.016089 0.000000 0.000000 0.000000
# 4 0.000000 0.000000 0.000000 0.089277 0.000000 0.000000
# 5 0.000000 0.000000 0.000000 0.000000 0.038962 0.000000
# 6 0.000000 0.000000 0.000000 0.000000 0.000000 0.043727
#
#
# Mechanical properties :
#
#
# Convention : Reuss Voigt Hill
#
# Bulk Modulus (GPa) = 62.60336 66.09551 64.34943
# Shear Modulus (GPa) = 20.81182 24.77344 22.79263
#
# Velocity S-wave (km/s) = 3.35351 3.65879 3.50947
# Velocity P-wave (km/s) = 6.98737 7.31879 7.15500
#
# Compressibility (1/GPa) = 0.01597358
#
# Stress axis : x y z
#
# Youngs Moduli (GPa) = 77.82728 94.98398 62.15589
#
# Poissons Ratio (x) = 0.35519 0.43475
# Poissons Ratio (y) = 0.29104 0.06290
# Poissons Ratio (z) = 0.54437 0.09612
#
# Static dielectric constant tensor:
#      x y z
#    x 1.640790 0.000000 0.000000 
#    y 0.000000 0.905590 0.000000 
#    z 0.000000 0.000000 1.620950 
# 
# From -- ./inp_files/7270.got.cif
#   From: 2010.05.17/outbox.cif.g08.bks.cpg/sg68_4_cif.got.tgz:7270.got - 2010.06.03 18:57:09.
