data_PCOD9506615
_publ_section_title
;
Structure prediction by ZEFSAII (Michael W. Deem and Ramdas Pophale) SiO2 
 PCOD9506615
Probable space group: C C C A
;
_chemical_formula_sum "Si O2"
_cell_formula_units_Z 72
_cell_length_a 10.832846
_cell_length_b 28.840279
_cell_length_c 9.132336
_cell_angle_alpha 90.000000
_cell_angle_beta 90.000000
_cell_angle_gamma 90.000000
_cell_volume 2853.145427
_symmetry_space_group_name_H-M "C C C A"
_symmetry_group_IT_number 68
_space_group.IT_coordinate_system_code '2'
_symmetry_cell_setting 'orthorhombic'
loop_
_space_group_symop_operation_xyz
x,y,z
-x,1/2-y,z
x,1/2-y,1/2-z
-x,y,1/2-z
-x,-y,-z
x,1/2+y,-z
-x,1/2+y,1/2+z
x,-y,1/2+z
1/2+x,1/2+y,z
1/2-x,-y,z
1/2+x,-y,1/2-z
1/2-x,1/2+y,1/2-z
1/2-x,1/2-y,-z
1/2+x,y,-z
1/2-x,y,1/2+z
1/2+x,1/2-y,1/2+z
loop_
_atom_site_type_symbol
_atom_site_label
_atom_site_fract_x
_atom_site_fract_y
_atom_site_fract_z
Si Si1 0.039237 0.838047 0.091921
Si Si2 0.668529 0.561534 0.599802
Si Si3 0.617121 0.877308 0.350070
Si Si4 0.750000 0.500000 0.351021
Si Si5 0.140990 0.796006 0.818763
O O1 0.094076 0.890478 0.099107
O O2 0.000000 0.820841 0.250000
O O3 0.122321 0.803704 0.991416
O O4 0.920023 0.847204 0.990233
O O5 0.810717 0.578419 0.600252
O O6 0.661740 0.530701 0.455175
O O7 0.663846 0.531537 0.746798
O O8 0.500000 0.889925 0.250000
O O9 0.697281 0.843224 0.246138
O O10 0.197967 0.750000 0.750000
O O11 0.000000 0.796486 0.750000
#
# Coordination Sequence:
#
# PCOD9506615 Si02
#       5
#    16  16  16   8  16
#     4  10  20  34  58  86 110 145 190 232 281 330
#     4  11  21  39  55  80 116 146 188 241 277 335
#     4   9  19  36  58  78 107 155 188 217 284 344
#     4  10  22  36  56  78 112 152 184 236 296 320
#     4   8  16  34  56  79 110 149 183 219 274 338
#
# _framework density 25.235309999999998
#
# number of rings (size 3 to 8) (size 9 to 14) (size 15 to 20)
#    0.000    2.889    0.000    4.000    0.000    0.000 
#    0.000   32.222    0.000    5.333    0.000    9.333 
#    0.000    0.000    0.000    0.000    0.000    0.000 
#
# Total GULP energy -201081.430511 kJ/mol
# GULP energy per Si atom -5585.595292 kJ/mol
# Density = 2.517787 g / cm^3
# Si number density = 25.235310 Si / 1000 Ang^3
#
#
#
# Elastic Constant Matrix: (Units=GPa)
#
#
# Indices 1 2 3 4 5 6 
#
# 1 27.1472 7.7202 20.9962 0.0000 0.0000 0.0000
# 2 7.7202 112.8670 64.0467 0.0000 0.0000 0.0000
# 3 20.9962 64.0467 229.2132 0.0000 0.0000 0.0000
# 4 0.0000 0.0000 0.0000 151.8559 0.0000 0.0000
# 5 0.0000 0.0000 0.0000 0.0000 17.2735 0.0000
# 6 0.0000 0.0000 0.0000 0.0000 0.0000 19.0629
#
#
#
# Elastic Compliance Matrix: (Units=1/GPa)
#
#
# Indices 1 2 3 4 5 6 
#
# 1 0.039702 -0.000775 -0.003420 0.000000 0.000000 0.000000
# 2 -0.000775 0.010545 -0.002875 0.000000 0.000000 0.000000
# 3 -0.003420 -0.002875 0.005479 0.000000 0.000000 0.000000
# 4 0.000000 0.000000 0.000000 0.006585 0.000000 0.000000
# 5 0.000000 0.000000 0.000000 0.000000 0.057892 0.000000
# 6 0.000000 0.000000 0.000000 0.000000 0.000000 0.052458
#
#
# Mechanical properties :
#
#
# Convention : Reuss Voigt Hill
#
# Bulk Modulus (GPa) = 24.04707 61.63929 42.84318
# Shear Modulus (GPa) = 24.91728 56.06942 40.49335
#
# Velocity S-wave (km/s) = 3.14570 4.71878 4.01013
# Velocity P-wave (km/s) = 4.76904 7.35989 6.20128
#
# Compressibility (1/GPa) = 0.04158511
#
# Stress axis : x y z
#
# Youngs Moduli (GPa) = 25.18772 94.83494 182.49859
#
# Poissons Ratio (x) = 0.07348 0.62419
# Poissons Ratio (y) = 0.01952 0.52476
# Poissons Ratio (z) = 0.08615 0.27269
#
# Static dielectric constant tensor:
#      x y z
#    x 2.090740 0.000000 0.000000 
#    y 0.000000 2.056420 0.000000 
#    z 0.000000 0.000000 2.079470 
# 
# From -- ./inp_files/5299.got.cif
#   From: 2010.05.17/outbox.cif.g08.bks.cpg/sg68_3_cif.got.tgz:5299.got - 2010.06.03 18:57:09.
