data_PCOD9506234
_publ_section_title
;
Structure prediction by ZEFSAII (Michael W. Deem and Ramdas Pophale) SiO2 
 PCOD9506234
Probable space group: C C C A
;
_chemical_formula_sum "Si O2"
_cell_formula_units_Z 72
_cell_length_a 7.452783
_cell_length_b 22.141833
_cell_length_c 17.348313
_cell_angle_alpha 90.000000
_cell_angle_beta 90.000000
_cell_angle_gamma 90.000000
_cell_volume 2862.788713
_symmetry_space_group_name_H-M "C C C A"
_symmetry_group_IT_number 68
_space_group.IT_coordinate_system_code '2'
_symmetry_cell_setting 'orthorhombic'
loop_
_space_group_symop_operation_xyz
x,y,z
-x,1/2-y,z
x,1/2-y,1/2-z
-x,y,1/2-z
-x,-y,-z
x,1/2+y,-z
-x,1/2+y,1/2+z
x,-y,1/2+z
1/2+x,1/2+y,z
1/2-x,-y,z
1/2+x,-y,1/2-z
1/2-x,1/2+y,1/2-z
1/2-x,1/2-y,-z
1/2+x,y,-z
1/2-x,y,1/2+z
1/2+x,1/2-y,1/2+z
loop_
_atom_site_type_symbol
_atom_site_label
_atom_site_fract_x
_atom_site_fract_y
_atom_site_fract_z
Si Si1 0.940146 0.389677 0.044326
Si Si2 0.203524 0.268811 0.412474
Si Si3 0.750000 0.500000 0.607602
Si Si4 0.218102 0.563694 0.744273
Si Si5 0.822022 0.352858 0.882315
O O1 0.809158 0.340881 0.086708
O O2 0.879894 0.458538 0.057185
O O3 0.131403 0.376269 0.081907
O O4 0.945842 0.372196 0.954088
O O5 0.250000 0.250000 0.500000
O O6 0.321545 0.219187 0.368998
O O7 0.000000 0.250000 0.394194
O O8 0.692316 0.549073 0.672835
O O9 0.250000 0.500000 0.700202
O O10 0.318422 0.615263 0.699244
O O11 0.000000 0.573458 0.750000
#
# Coordination Sequence:
#
# PCOD9506234 Si02
#       5
#    16  16   8  16  16
#     4  10  20  34  55  84 107 137 181 226 271 316
#     4   8  16  31  53  77 107 134 169 221 271 311
#     4  10  22  34  54  72 114 140 180 228 260 326
#     4  10  21  38  54  73 111 147 177 214 274 324
#     4  10  19  36  57  81 108 140 183 223 270 329
#
# _framework density 25.150300999999999
#
# number of rings (size 3 to 8) (size 9 to 14) (size 15 to 20)
#    0.667    1.778    2.222    0.000    1.556    2.667 
#    0.000    1.111    0.000    0.000    0.000    1.556 
#    0.000    0.000    0.000    0.000    0.000    0.000 
#
# Total GULP energy -200527.448216 kJ/mol
# GULP energy per Si atom -5570.206895 kJ/mol
# Density = 2.509306 g / cm^3
# Si number density = 25.150301 Si / 1000 Ang^3
#
#
#
# Elastic Constant Matrix: (Units=GPa)
#
#
# Indices 1 2 3 4 5 6 
#
# 1 112.4174 58.9320 26.9117 0.0000 0.0000 0.0000
# 2 58.9320 126.5987 39.3643 0.0000 0.0000 0.0000
# 3 26.9117 39.3643 55.3988 0.0000 0.0000 0.0000
# 4 0.0000 0.0000 0.0000 25.5315 0.0000 0.0000
# 5 0.0000 0.0000 0.0000 0.0000 11.3405 0.0000
# 6 0.0000 0.0000 0.0000 0.0000 0.0000 19.6704
#
#
#
# Elastic Compliance Matrix: (Units=1/GPa)
#
#
# Indices 1 2 3 4 5 6 
#
# 1 0.012008 -0.004847 -0.002389 0.000000 0.000000 0.000000
# 2 -0.004847 0.012096 -0.006240 0.000000 0.000000 0.000000
# 3 -0.002389 -0.006240 0.023646 0.000000 0.000000 0.000000
# 4 0.000000 0.000000 0.000000 0.039167 0.000000 0.000000
# 5 0.000000 0.000000 0.000000 0.000000 0.088180 0.000000
# 6 0.000000 0.000000 0.000000 0.000000 0.000000 0.050838
#
#
# Mechanical properties :
#
#
# Convention : Reuss Voigt Hill
#
# Bulk Modulus (GPa) = 48.08457 60.53675 54.31066
# Shear Modulus (GPa) = 19.24416 22.58893 20.91654
#
# Velocity S-wave (km/s) = 2.76916 3.00018 2.88698
# Velocity P-wave (km/s) = 5.42077 6.01030 5.72313
#
# Compressibility (1/GPa) = 0.02079669
#
# Stress axis : x y z
#
# Youngs Moduli (GPa) = 83.27568 82.67527 42.29121
#
# Poissons Ratio (x) = 0.40072 0.10105
# Poissons Ratio (y) = 0.40363 0.26390
# Poissons Ratio (z) = 0.19897 0.51590
#
# Static dielectric constant tensor:
#      x y z
#    x 2.157970 0.000000 0.000000 
#    y 0.000000 2.103080 0.000000 
#    z 0.000000 0.000000 2.025970 
# 
# From -- ./inp_files/36051.got.cif
#   From: 2010.05.17/outbox.cif.g08.bks.cpg/sg68_19_cif.got.tgz:36051.got - 2010.06.03 18:57:09.
