data_PCOD9506357
_publ_section_title
;
Structure prediction by ZEFSAII (Michael W. Deem and Ramdas Pophale) SiO2 
 PCOD9506357
Probable space group: C C C A
;
_chemical_formula_sum "Si O2"
_cell_formula_units_Z 88
_cell_length_a 11.259374
_cell_length_b 14.403295
_cell_length_c 24.877039
_cell_angle_alpha 90.000000
_cell_angle_beta 90.000000
_cell_angle_gamma 90.000000
_cell_volume 4034.361289
_symmetry_space_group_name_H-M "C C C A"
_symmetry_group_IT_number 68
_space_group.IT_coordinate_system_code '2'
_symmetry_cell_setting 'orthorhombic'
loop_
_space_group_symop_operation_xyz
x,y,z
-x,1/2-y,z
x,1/2-y,1/2-z
-x,y,1/2-z
-x,-y,-z
x,1/2+y,-z
-x,1/2+y,1/2+z
x,-y,1/2+z
1/2+x,1/2+y,z
1/2-x,-y,z
1/2+x,-y,1/2-z
1/2-x,1/2+y,1/2-z
1/2-x,1/2-y,-z
1/2+x,y,-z
1/2-x,y,1/2+z
1/2+x,1/2-y,1/2+z
loop_
_atom_site_type_symbol
_atom_site_label
_atom_site_fract_x
_atom_site_fract_y
_atom_site_fract_z
Si Si1 0.025930 0.559448 0.068229
Si Si2 0.500000 0.102137 0.750000
Si Si3 0.780490 0.393152 0.606229
Si Si4 0.445337 0.146168 0.539686
Si Si5 0.729173 0.654312 0.726756
Si Si6 0.624233 0.035522 0.178549
O O1 0.070144 0.586379 0.127518
O O2 0.892385 0.600082 0.066900
O O3 0.020086 0.446249 0.060701
O O4 0.092247 0.609206 0.019432
O O5 0.372671 0.148138 0.735671
O O6 0.467376 0.043069 0.802927
O O7 0.750000 0.500000 0.618344
O O8 0.668374 0.347660 0.577983
O O9 0.802130 0.351342 0.664645
O O10 0.500000 0.250000 0.537656
O O11 0.686760 0.750000 0.750000
O O12 0.661713 0.581490 0.764835
O O13 0.750000 0.000000 0.156989
#
# Coordination Sequence:
#
# PCOD9506357 Si02
#       6
#    16   8  16  16  16  16
#     4  10  22  41  63  88 124 167 207 258 322 380
#     4  10  19  38  59  82 120 168 210 246 299 370
#     4  10  21  41  63  85 122 167 207 255 319 378
#     4  10  23  40  63  92 120 160 216 267 309 369
#     4  11  23  37  60  95 126 158 206 260 312 372
#     4  10  21  37  62  89 122 166 208 252 311 380
#
# _framework density 21.812622999999999
#
# number of rings (size 3 to 8) (size 9 to 14) (size 15 to 20)
#    0.000    1.818    0.000    5.182    0.000   10.182 
#    0.000    3.182    0.000    0.000    0.000    0.000 
#    0.000    0.000    0.000    0.000    0.000    0.000 
#
# Total GULP energy -245304.464289 kJ/mol
# GULP energy per Si atom -5575.101461 kJ/mol
# Density = 2.176298 g / cm^3
# Si number density = 21.812623 Si / 1000 Ang^3
#
#
#
# Elastic Constant Matrix: (Units=GPa)
#
#
# Indices 1 2 3 4 5 6 
#
# 1 42.2212 29.3562 19.9137 0.0000 0.0000 0.0000
# 2 29.3562 80.4851 30.1866 0.0000 0.0000 0.0000
# 3 19.9137 30.1866 138.4292 0.0000 0.0000 0.0000
# 4 0.0000 0.0000 0.0000 -39.5227 0.0000 0.0000
# 5 0.0000 0.0000 0.0000 0.0000 -28.9889 0.0000
# 6 0.0000 0.0000 0.0000 0.0000 0.0000 -10.0094
#
#
#
# Elastic Compliance Matrix: (Units=1/GPa)
#
#
# Indices 1 2 3 4 5 6 
#
# 1 0.032373 -0.010957 -0.002268 0.000000 0.000000 0.000000
# 2 -0.010957 0.017240 -0.002183 0.000000 0.000000 0.000000
# 3 -0.002268 -0.002183 0.008026 0.000000 0.000000 0.000000
# 4 0.000000 0.000000 0.000000 -0.025302 0.000000 0.000000
# 5 0.000000 0.000000 0.000000 0.000000 -0.034496 0.000000
# 6 0.000000 0.000000 0.000000 0.000000 0.000000 -0.099907
#
#
# Mechanical properties :
#
#
# Convention : Reuss Voigt Hill
#
# Bulk Modulus (GPa) = 37.28144 46.67207 41.97675
# Shear Modulus (GPa) = -80.24575 -3.59225 -41.91900
#
# Velocity S-wave (km/s) = -6.07195 -1.28470 -4.38856
# Velocity P-wave (km/s) = 5.65944 4.38665 2.52850
#
# Compressibility (1/GPa) = 0.02682300
#
# Stress axis : x y z
#
# Youngs Moduli (GPa) = 30.89021 58.00462 124.59207
#
# Poissons Ratio (x) = 0.63557 0.28252
# Poissons Ratio (y) = 0.33847 0.27201
# Poissons Ratio (z) = 0.07005 0.12664
#
# Static dielectric constant tensor:
#      x y z
#    x 1.888910 0.000000 0.000000 
#    y 0.000000 1.515080 0.000000 
#    z 0.000000 0.000000 1.984060 
# 
# From -- ./inp_files/44256.got.cif
#   From: 2010.05.17/outbox.cif.g08.bks.cpg/sg68_23_cif.got.tgz:44256.got - 2010.06.03 18:57:09.
