data_PCOD9506566
_publ_section_title
;
Structure prediction by ZEFSAII (Michael W. Deem and Ramdas Pophale) SiO2 
 PCOD9506566
Probable space group: C C C A
;
_chemical_formula_sum "Si O2"
_cell_formula_units_Z 104
_cell_length_a 26.419490
_cell_length_b 15.960494
_cell_length_c 9.216770
_cell_angle_alpha 90.000000
_cell_angle_beta 90.000000
_cell_angle_gamma 90.000000
_cell_volume 3886.418001
_symmetry_space_group_name_H-M "C C C A"
_symmetry_group_IT_number 68
_space_group.IT_coordinate_system_code '2'
_symmetry_cell_setting 'orthorhombic'
loop_
_space_group_symop_operation_xyz
x,y,z
-x,1/2-y,z
x,1/2-y,1/2-z
-x,y,1/2-z
-x,-y,-z
x,1/2+y,-z
-x,1/2+y,1/2+z
x,-y,1/2+z
1/2+x,1/2+y,z
1/2-x,-y,z
1/2+x,-y,1/2-z
1/2-x,1/2+y,1/2-z
1/2-x,1/2-y,-z
1/2+x,y,-z
1/2-x,y,1/2+z
1/2+x,1/2-y,1/2+z
loop_
_atom_site_type_symbol
_atom_site_label
_atom_site_fract_x
_atom_site_fract_y
_atom_site_fract_z
Si Si1 0.818660 0.402238 0.772147
Si Si2 0.500000 0.030142 0.750000
Si Si3 0.361635 0.656017 0.247984
Si Si4 0.615859 0.200132 0.440884
Si Si5 0.518359 0.109321 0.460124
Si Si6 0.898789 0.393044 0.971949
Si Si7 0.237553 0.154124 0.057686
O O1 0.853476 0.332308 0.694796
O O2 0.865335 0.447801 0.861117
O O3 0.778716 0.406091 0.637820
O O4 0.782986 0.386907 0.910780
O O5 0.526597 0.087076 0.629055
O O6 0.468574 0.967799 0.645187
O O7 0.386405 0.750000 0.250000
O O8 0.388906 0.592079 0.357433
O O9 0.305635 0.662005 0.317453
O O10 0.363667 0.644891 0.076005
O O11 0.556107 0.183123 0.422419
O O12 0.622958 0.297935 0.465652
O O13 0.458064 0.115472 0.440838
O O14 0.250000 0.250000 0.000000
#
# Coordination Sequence:
#
# PCOD9506566 Si02
#       7
#    16   8  16  16  16  16  16
#     4  11  21  30  47  75 111 152 189 214 260 325
#     4  10  24  40  58  78 102 148 192 230 270 324
#     4   9  18  29  46  74 112 152 190 215 255 322
#     4  11  20  33  54  83 114 148 181 222 274 332
#     4  11  22  40  59  79 113 142 183 231 276 324
#     4  10  20  34  53  83 114 147 181 221 273 332
#     4  11  18  29  45  67 110 160 189 216 253 313
#
# _framework density 26.759861000000001
#
# number of rings (size 3 to 8) (size 9 to 14) (size 15 to 20)
#    0.000    1.538    0.000    8.769    0.000    0.000 
#    0.000    5.385    0.000    0.000    0.000    0.000 
#    0.000  283.077    0.000    0.000    0.000    0.000 
#
# Total GULP energy -289610.096837 kJ/mol
# GULP energy per Si atom -5569.424939 kJ/mol
# Density = 2.669895 g / cm^3
# Si number density = 26.759861 Si / 1000 Ang^3
#
#
#
# Elastic Constant Matrix: (Units=GPa)
#
#
# Indices 1 2 3 4 5 6 
#
# 1 147.0630 9.4922 61.8874 0.0000 0.0000 0.0000
# 2 9.4922 48.5789 24.9344 0.0000 0.0000 0.0000
# 3 61.8874 24.9344 210.5937 0.0000 0.0000 0.0000
# 4 0.0000 0.0000 0.0000 16.8654 0.0000 0.0000
# 5 0.0000 0.0000 0.0000 0.0000 30.8804 0.0000
# 6 0.0000 0.0000 0.0000 0.0000 0.0000 13.7864
#
#
#
# Elastic Compliance Matrix: (Units=1/GPa)
#
#
# Indices 1 2 3 4 5 6 
#
# 1 0.007766 -0.000368 -0.002238 0.000000 0.000000 0.000000
# 2 -0.000368 0.021934 -0.002489 0.000000 0.000000 0.000000
# 3 -0.002238 -0.002489 0.005701 0.000000 0.000000 0.000000
# 4 0.000000 0.000000 0.000000 0.059293 0.000000 0.000000
# 5 0.000000 0.000000 0.000000 0.000000 0.032383 0.000000
# 6 0.000000 0.000000 0.000000 0.000000 0.000000 0.072535
#
#
# Mechanical properties :
#
#
# Convention : Reuss Voigt Hill
#
# Bulk Modulus (GPa) = 39.66729 66.54041 53.10385
# Shear Modulus (GPa) = 22.91403 32.96786 27.94095
#
# Velocity S-wave (km/s) = 2.92941 3.51378 3.23482
# Velocity P-wave (km/s) = 5.12811 6.43288 5.81719
#
# Compressibility (1/GPa) = 0.02520968
#
# Stress axis : x y z
#
# Youngs Moduli (GPa) = 128.77338 45.59031 175.40871
#
# Poissons Ratio (x) = 0.01680 0.39264
# Poissons Ratio (y) = 0.04744 0.43655
# Poissons Ratio (z) = 0.28825 0.11346
#
# Static dielectric constant tensor:
#      x y z
#    x 2.211810 0.000000 0.000000 
#    y 0.000000 2.119930 0.000000 
#    z 0.000000 0.000000 2.338390 
# 
# From -- ./inp_files/9115.got.cif
#   From: 2010.05.17/outbox.cif.g08.bks.cpg/sg68_5_cif.got.tgz:9115.got - 2010.06.03 18:57:09.
