data_PCOD9506012
_publ_section_title
;
Structure prediction by ZEFSAII (Michael W. Deem and Ramdas Pophale) SiO2 
 PCOD9506012
Probable space group: C C C A
;
_chemical_formula_sum "Si O2"
_cell_formula_units_Z 72
_cell_length_a 20.232448
_cell_length_b 18.606800
_cell_length_c 9.673867
_cell_angle_alpha 90.000000
_cell_angle_beta 90.000000
_cell_angle_gamma 90.000000
_cell_volume 3641.834742
_symmetry_space_group_name_H-M "C C C A"
_symmetry_group_IT_number 68
_space_group.IT_coordinate_system_code '2'
_symmetry_cell_setting 'orthorhombic'
loop_
_space_group_symop_operation_xyz
x,y,z
-x,1/2-y,z
x,1/2-y,1/2-z
-x,y,1/2-z
-x,-y,-z
x,1/2+y,-z
-x,1/2+y,1/2+z
x,-y,1/2+z
1/2+x,1/2+y,z
1/2-x,-y,z
1/2+x,-y,1/2-z
1/2-x,1/2+y,1/2-z
1/2-x,1/2-y,-z
1/2+x,y,-z
1/2-x,y,1/2+z
1/2+x,1/2-y,1/2+z
loop_
_atom_site_type_symbol
_atom_site_label
_atom_site_fract_x
_atom_site_fract_y
_atom_site_fract_z
Si Si1 0.251889 0.664308 0.414419
Si Si2 0.427857 0.873231 0.784855
Si Si3 0.387415 0.767208 0.545409
Si Si4 0.361806 0.250000 0.750000
Si Si5 0.706270 0.930246 0.670711
O O1 0.192475 0.722269 0.433010
O O2 0.313055 0.693284 0.324080
O O3 0.273187 0.628972 0.557742
O O4 0.223279 0.600334 0.321063
O O5 0.500000 0.902690 0.750000
O O6 0.413208 0.829998 0.643158
O O7 0.417320 0.807829 0.897008
O O8 0.373475 0.932347 0.826641
O O9 0.401193 0.778015 0.383174
O O10 0.750000 0.000000 0.644322
#
# Coordination Sequence:
#
# PCOD9506012 Si02
#       5
#    16  16  16   8  16
#     4  11  20  34  55  91 123 148 198 261 316 349
#     4  10  21  39  59  87 120 164 206 240 304 381
#     4  10  19  32  58  88 125 154 189 252 315 369
#     4  12  18  30  55  92 125 146 184 264 320 348
#     4  11  22  37  60  86 121 163 210 259 295 353
#
# _framework density 19.770254999999999
#
# number of rings (size 3 to 8) (size 9 to 14) (size 15 to 20)
#    0.000    1.333    4.444    5.333    0.000    0.000 
#    0.000    2.222    0.000   12.000    0.000    0.000 
#    0.000    0.000    0.000    0.000    0.000    0.000 
#
# Total GULP energy -200547.534376 kJ/mol
# GULP energy per Si atom -5570.764844 kJ/mol
# Density = 1.972526 g / cm^3
# Si number density = 19.770255 Si / 1000 Ang^3
#
#
#
# Elastic Constant Matrix: (Units=GPa)
#
#
# Indices 1 2 3 4 5 6 
#
# 1 106.7397 37.4762 13.2739 0.0000 0.0000 0.0000
# 2 37.4762 80.1911 11.5133 0.0000 0.0000 0.0000
# 3 13.2739 11.5133 134.2430 0.0000 0.0000 0.0000
# 4 0.0000 0.0000 0.0000 15.3407 0.0000 0.0000
# 5 0.0000 0.0000 0.0000 0.0000 14.6499 0.0000
# 6 0.0000 0.0000 0.0000 0.0000 0.0000 19.5012
#
#
#
# Elastic Compliance Matrix: (Units=1/GPa)
#
#
# Indices 1 2 3 4 5 6 
#
# 1 0.011267 -0.005169 -0.000671 0.000000 0.000000 0.000000
# 2 -0.005169 0.014997 -0.000775 0.000000 0.000000 0.000000
# 3 -0.000671 -0.000775 0.007582 0.000000 0.000000 0.000000
# 4 0.000000 0.000000 0.000000 0.065186 0.000000 0.000000
# 5 0.000000 0.000000 0.000000 0.000000 0.068260 0.000000
# 6 0.000000 0.000000 0.000000 0.000000 0.000000 0.051279
#
#
# Mechanical properties :
#
#
# Convention : Reuss Voigt Hill
#
# Bulk Modulus (GPa) = 48.50572 49.52230 49.01401
# Shear Modulus (GPa) = 20.94918 27.15905 24.05411
#
# Velocity S-wave (km/s) = 3.25873 3.71041 3.49188
# Velocity P-wave (km/s) = 6.22471 6.59238 6.41118
#
# Compressibility (1/GPa) = 0.02061613
#
# Stress axis : x y z
#
# Youngs Moduli (GPa) = 88.75577 66.67908 131.89170
#
# Poissons Ratio (x) = 0.34467 0.08846
# Poissons Ratio (y) = 0.45879 0.10223
# Poissons Ratio (z) = 0.05953 0.05168
#
# Static dielectric constant tensor:
#      x y z
#    x 1.804680 0.000000 0.000000 
#    y 0.000000 1.722020 0.000000 
#    z 0.000000 0.000000 1.733350 
# 
# From -- ./inp_files/6953.got.cif
#   From: 2010.05.17/outbox.cif.g08.bks.cpg/sg68_4_cif.got.tgz:6953.got - 2010.06.03 18:57:09.
