data_PCOD9506774
_publ_section_title
;
Structure prediction by ZEFSAII (Michael W. Deem and Ramdas Pophale) SiO2 
 PCOD9506774
Probable space group: C C C A
;
_chemical_formula_sum "Si O2"
_cell_formula_units_Z 92
_cell_length_a 21.027479
_cell_length_b 20.231512
_cell_length_c 8.907246
_cell_angle_alpha 90.000000
_cell_angle_beta 90.000000
_cell_angle_gamma 90.000000
_cell_volume 3789.300051
_symmetry_space_group_name_H-M "C C C A"
_symmetry_group_IT_number 68
_space_group.IT_coordinate_system_code '2'
_symmetry_cell_setting 'orthorhombic'
loop_
_space_group_symop_operation_xyz
x,y,z
-x,1/2-y,z
x,1/2-y,1/2-z
-x,y,1/2-z
-x,-y,-z
x,1/2+y,-z
-x,1/2+y,1/2+z
x,-y,1/2+z
1/2+x,1/2+y,z
1/2-x,-y,z
1/2+x,-y,1/2-z
1/2-x,1/2+y,1/2-z
1/2-x,1/2-y,-z
1/2+x,y,-z
1/2-x,y,1/2+z
1/2+x,1/2-y,1/2+z
loop_
_atom_site_type_symbol
_atom_site_label
_atom_site_fract_x
_atom_site_fract_y
_atom_site_fract_z
Si Si1 0.288591 0.564878 0.027744
Si Si2 0.385155 0.591877 0.258006
Si Si3 0.159619 0.865879 0.433318
Si Si4 0.602428 0.750000 0.750000
Si Si5 0.536792 0.659078 0.499664
Si Si6 0.589807 0.448295 0.188854
Si Si7 0.500000 0.750000 0.250000
O O1 0.250000 0.500000 0.989992
O O2 0.322024 0.559294 0.188217
O O3 0.234400 0.619597 0.050154
O O4 0.346395 0.567731 0.910096
O O5 0.365410 0.633810 0.399148
O O6 0.412488 0.638374 0.128145
O O7 0.424824 0.526229 0.301124
O O8 0.145343 0.800560 0.341456
O O9 0.114893 0.920131 0.347921
O O10 0.561519 0.709599 0.627165
O O11 0.533935 0.591976 0.600836
O O12 0.486788 0.694276 0.385938
#
# Coordination Sequence:
#
# PCOD9506774 Si02
#       7
#    16  16  16   8  16  16   4
#     4  11  19  31  54  91 129 174 222 257 306 363
#     4  11  20  36  61  93 129 165 216 272 324 373
#     4  11  20  32  56  85 128 177 217 261 301 372
#     4  10  24  45  59  90 132 168 217 261 326 388
#     4  10  24  43  69  94 123 170 210 272 336 395
#     4  10  20  36  57  94 130 164 211 267 326 370
#     4  12  24  50  74  96 120 158 230 258 332 434
#
# _framework density 24.278891999999999
#
# number of rings (size 3 to 8) (size 9 to 14) (size 15 to 20)
#    0.000    1.391    3.478    3.130    0.000    0.348 
#    0.000   18.261    0.000    0.000    0.000    0.000 
#    0.000    0.000    0.000    0.000    0.000    0.000 
#
# Total GULP energy -256222.912881 kJ/mol
# GULP energy per Si atom -5570.063324 kJ/mol
# Density = 2.422363 g / cm^3
# Si number density = 24.278892 Si / 1000 Ang^3
#
#
#
# Elastic Constant Matrix: (Units=GPa)
#
#
# Indices 1 2 3 4 5 6 
#
# 1 82.5612 24.4640 32.0230 0.0000 0.0000 0.0000
# 2 24.4640 92.1831 32.4571 0.0000 0.0000 0.0000
# 3 32.0230 32.4571 175.2881 0.0000 0.0000 0.0000
# 4 0.0000 0.0000 0.0000 26.4357 0.0000 0.0000
# 5 0.0000 0.0000 0.0000 0.0000 46.4691 0.0000
# 6 0.0000 0.0000 0.0000 0.0000 0.0000 10.0562
#
#
#
# Elastic Compliance Matrix: (Units=1/GPa)
#
#
# Indices 1 2 3 4 5 6 
#
# 1 0.013751 -0.002958 -0.001964 0.000000 0.000000 0.000000
# 2 -0.002958 0.012241 -0.001726 0.000000 0.000000 0.000000
# 3 -0.001964 -0.001726 0.006383 0.000000 0.000000 0.000000
# 4 0.000000 0.000000 0.000000 0.037828 0.000000 0.000000
# 5 0.000000 0.000000 0.000000 0.000000 0.021520 0.000000
# 6 0.000000 0.000000 0.000000 0.000000 0.000000 0.099441
#
#
# Mechanical properties :
#
#
# Convention : Reuss Voigt Hill
#
# Bulk Modulus (GPa) = 52.41574 58.65783 55.53679
# Shear Modulus (GPa) = 23.71703 33.99809 28.85756
#
# Velocity S-wave (km/s) = 3.12886 3.74614 3.45133
# Velocity P-wave (km/s) = 5.88973 6.55163 6.22948
#
# Compressibility (1/GPa) = 0.01907824
#
# Stress axis : x y z
#
# Youngs Moduli (GPa) = 72.72453 81.69504 156.65623
#
# Poissons Ratio (x) = 0.24161 0.30774
# Poissons Ratio (y) = 0.21508 0.27042
# Poissons Ratio (z) = 0.14286 0.14102
#
# Static dielectric constant tensor:
#      x y z
#    x 2.012260 0.000000 0.000000 
#    y 0.000000 2.059730 0.000000 
#    z 0.000000 0.000000 1.976600 
# 
# From -- ./inp_files/7166.got.cif
#   From: 2010.05.17/outbox.cif.g08.bks.cpg/sg68_4_cif.got.tgz:7166.got - 2010.06.03 18:57:09.
