data_PCOD9506149
_publ_section_title
;
Structure prediction by ZEFSAII (Michael W. Deem and Ramdas Pophale) SiO2 
 PCOD9506149
Probable space group: C C C A
;
_chemical_formula_sum "Si O2"
_cell_formula_units_Z 104
_cell_length_a 13.705925
_cell_length_b 19.808687
_cell_length_c 21.664998
_cell_angle_alpha 90.000000
_cell_angle_beta 90.000000
_cell_angle_gamma 90.000000
_cell_volume 5881.968494
_symmetry_space_group_name_H-M "C C C A"
_symmetry_group_IT_number 68
_space_group.IT_coordinate_system_code '2'
_symmetry_cell_setting 'orthorhombic'
loop_
_space_group_symop_operation_xyz
x,y,z
-x,1/2-y,z
x,1/2-y,1/2-z
-x,y,1/2-z
-x,-y,-z
x,1/2+y,-z
-x,1/2+y,1/2+z
x,-y,1/2+z
1/2+x,1/2+y,z
1/2-x,-y,z
1/2+x,-y,1/2-z
1/2-x,1/2+y,1/2-z
1/2-x,1/2-y,-z
1/2+x,y,-z
1/2-x,y,1/2+z
1/2+x,1/2-y,1/2+z
loop_
_atom_site_type_symbol
_atom_site_label
_atom_site_fract_x
_atom_site_fract_y
_atom_site_fract_z
Si Si1 0.400066 0.914070 0.224513
Si Si2 0.382096 0.601429 0.614051
Si Si3 0.750000 0.000000 0.191508
Si Si4 0.169671 0.057684 0.021332
Si Si5 0.617108 0.744222 0.823511
Si Si6 0.244593 0.367476 0.866775
Si Si7 0.421024 0.473177 0.372563
O O1 0.500000 0.881757 0.250000
O O2 0.333058 0.866660 0.181738
O O3 0.323889 0.951659 0.270096
O O4 0.440882 0.973223 0.180394
O O5 0.316846 0.547101 0.649435
O O6 0.365522 0.591802 0.541215
O O7 0.358043 0.673197 0.644486
O O8 0.494419 0.581437 0.624593
O O9 0.213331 0.115851 0.065692
O O10 0.250000 0.000000 0.006579
O O11 0.093388 0.015660 0.064175
O O12 0.500000 0.750000 0.829217
O O13 0.639501 0.750000 0.750000
O O14 0.676121 0.803316 0.857744
O O15 0.178291 0.434124 0.855552
#
# Coordination Sequence:
#
# PCOD9506149 Si02
#       7
#    16  16   8  16  16  16  16
#     4  11  20  33  58  88 118 159 195 248 310 364
#     4  12  22  36  59  88 121 155 197 255 300 353
#     4  12  22  32  54  90 120 142 202 248 300 350
#     4   9  20  37  58  87 121 157 200 247 296 359
#     4  11  24  38  60  88 119 158 202 249 299 360
#     4  10  20  40  58  85 122 163 200 241 306 367
#     4  10  19  34  61  87 119 158 194 252 307 353
#
# _framework density 17.681156000000001
#
# number of rings (size 3 to 8) (size 9 to 14) (size 15 to 20)
#    0.000    1.385    5.385    2.308    0.000    0.615 
#    0.000    0.000    0.000    4.154    0.000    0.000 
#    0.000    0.000    0.000    0.000    0.000    0.000 
#
# Total GULP energy -289910.715531 kJ/mol
# GULP energy per Si atom -5575.206068 kJ/mol
# Density = 1.764091 g / cm^3
# Si number density = 17.681156 Si / 1000 Ang^3
#
#
#
# Elastic Constant Matrix: (Units=GPa)
#
#
# Indices 1 2 3 4 5 6 
#
# 1 91.6971 22.8202 37.8569 0.0000 0.0000 0.0000
# 2 22.8202 88.0058 35.3898 0.0000 0.0000 0.0000
# 3 37.8569 35.3898 80.3334 0.0000 0.0000 0.0000
# 4 0.0000 0.0000 0.0000 28.7300 0.0000 0.0000
# 5 0.0000 0.0000 0.0000 0.0000 17.5029 0.0000
# 6 0.0000 0.0000 0.0000 0.0000 0.0000 33.0482
#
#
#
# Elastic Compliance Matrix: (Units=1/GPa)
#
#
# Indices 1 2 3 4 5 6 
#
# 1 0.013636 -0.001157 -0.005916 0.000000 0.000000 0.000000
# 2 -0.001157 0.013907 -0.005582 0.000000 0.000000 0.000000
# 3 -0.005916 -0.005582 0.017695 0.000000 0.000000 0.000000
# 4 0.000000 0.000000 0.000000 0.034807 0.000000 0.000000
# 5 0.000000 0.000000 0.000000 0.000000 0.057133 0.000000
# 6 0.000000 0.000000 0.000000 0.000000 0.000000 0.030259
#
#
# Mechanical properties :
#
#
# Convention : Reuss Voigt Hill
#
# Bulk Modulus (GPa) = 50.17795 50.24112 50.20954
# Shear Modulus (GPa) = 25.07655 26.78751 25.93203
#
# Velocity S-wave (km/s) = 3.77007 3.89656 3.83384
# Velocity P-wave (km/s) = 6.88420 6.98005 6.93229
#
# Compressibility (1/GPa) = 0.01992907
#
# Stress axis : x y z
#
# Youngs Moduli (GPa) = 73.33606 71.90439 56.51295
#
# Poissons Ratio (x) = 0.08317 0.33435
# Poissons Ratio (y) = 0.08483 0.31543
# Poissons Ratio (z) = 0.43388 0.40134
#
# Static dielectric constant tensor:
#      x y z
#    x 1.640710 0.000000 0.000000 
#    y 0.000000 1.574180 0.000000 
#    z 0.000000 0.000000 1.614240 
# 
# From -- ./inp_files/31129.got.cif
#   From: 2010.05.17/outbox.cif.g08.bks.cpg/sg68_16_cif.got.tgz:31129.got - 2010.06.03 18:57:09.
