data_PCOD9506421
_publ_section_title
;
Structure prediction by ZEFSAII (Michael W. Deem and Ramdas Pophale) SiO2 
 PCOD9506421
Probable space group: C C C A
;
_chemical_formula_sum "Si O2"
_cell_formula_units_Z 68
_cell_length_a 19.959993
_cell_length_b 17.390387
_cell_length_c 10.368298
_cell_angle_alpha 90.000000
_cell_angle_beta 90.000000
_cell_angle_gamma 90.000000
_cell_volume 3598.960684
_symmetry_space_group_name_H-M "C C C A"
_symmetry_group_IT_number 68
_space_group.IT_coordinate_system_code '2'
_symmetry_cell_setting 'orthorhombic'
loop_
_space_group_symop_operation_xyz
x,y,z
-x,1/2-y,z
x,1/2-y,1/2-z
-x,y,1/2-z
-x,-y,-z
x,1/2+y,-z
-x,1/2+y,1/2+z
x,-y,1/2+z
1/2+x,1/2+y,z
1/2-x,-y,z
1/2+x,-y,1/2-z
1/2-x,1/2+y,1/2-z
1/2-x,1/2-y,-z
1/2+x,y,-z
1/2-x,y,1/2+z
1/2+x,1/2-y,1/2+z
loop_
_atom_site_type_symbol
_atom_site_label
_atom_site_fract_x
_atom_site_fract_y
_atom_site_fract_z
Si Si1 0.997347 0.065969 0.394255
Si Si2 0.000000 0.250000 0.750000
Si Si3 0.614362 0.689636 0.365992
Si Si4 0.737168 0.696833 0.874295
Si Si5 0.597478 0.672395 0.948521
O O1 0.059910 0.124332 0.386038
O O2 0.000000 0.032007 0.250000
O O3 0.934564 0.117753 0.442450
O O4 0.000000 0.000000 0.500000
O O5 0.954507 0.307241 0.835996
O O6 0.599984 0.750000 0.250000
O O7 0.690168 0.658921 0.349012
O O8 0.609795 0.744073 0.489640
O O9 0.723261 0.750000 0.750000
O O10 0.670935 0.646675 0.900140
O O11 0.750000 0.750000 0.000000
#
# Coordination Sequence:
#
# PCOD9506421 Si02
#       5
#    16   4  16  16  16
#     4  12  26  41  61  90 129 171 215 264 325 387
#     4  12  20  28  58  96 124 152 198 272 324 364
#     4  10  19  39  67  89 117 162 214 261 314 385
#     4   9  19  34  59  95 124 152 205 270 320 369
#     4  11  21  36  62  92 125 161 210 265 317 378
#
# _framework density 18.894344
#
# number of rings (size 3 to 8) (size 9 to 14) (size 15 to 20)
#    0.000    1.412    5.882    0.000    1.647    0.000 
#    0.000    1.176    0.000    2.824    0.000    0.000 
#    0.000    0.000    0.000    0.000    0.000    0.000 
#
# Total GULP energy -189351.342384 kJ/mol
# GULP energy per Si atom -5569.157129 kJ/mol
# Density = 1.885134 g / cm^3
# Si number density = 18.894344 Si / 1000 Ang^3
#
#
#
# Elastic Constant Matrix: (Units=GPa)
#
#
# Indices 1 2 3 4 5 6 
#
# 1 155.1825 45.1228 48.9489 0.0000 0.0000 0.0000
# 2 45.1228 50.4682 29.6823 0.0000 0.0000 0.0000
# 3 48.9489 29.6823 129.8933 0.0000 0.0000 0.0000
# 4 0.0000 0.0000 0.0000 32.7499 0.0000 0.0000
# 5 0.0000 0.0000 0.0000 0.0000 26.1059 0.0000
# 6 0.0000 0.0000 0.0000 0.0000 0.0000 -2.9806
#
#
#
# Elastic Compliance Matrix: (Units=1/GPa)
#
#
# Indices 1 2 3 4 5 6 
#
# 1 0.009060 -0.007039 -0.001806 0.000000 0.000000 0.000000
# 2 -0.007039 0.028359 -0.003828 0.000000 0.000000 0.000000
# 3 -0.001806 -0.003828 0.009254 0.000000 0.000000 0.000000
# 4 0.000000 0.000000 0.000000 0.030534 0.000000 0.000000
# 5 0.000000 0.000000 0.000000 0.000000 0.038306 0.000000
# 6 0.000000 0.000000 0.000000 0.000000 0.000000 -0.335497
#
#
# Mechanical properties :
#
#
# Convention : Reuss Voigt Hill
#
# Bulk Modulus (GPa) = 46.88608 64.78354 55.83481
# Shear Modulus (GPa) = -26.66236 25.29437 -0.68400
#
# Velocity S-wave (km/s) = -3.76058 3.66283 -0.60233
# Velocity P-wave (km/s) = 2.45211 7.22843 5.39736
#
# Compressibility (1/GPa) = 0.02132829
#
# Stress axis : x y z
#
# Youngs Moduli (GPa) = 110.37213 35.26232 108.06273
#
# Poissons Ratio (x) = 0.24820 0.19515
# Poissons Ratio (y) = 0.77686 0.41366
# Poissons Ratio (z) = 0.19932 0.13498
#
# Static dielectric constant tensor:
#      x y z
#    x 1.768290 0.000000 0.000000 
#    y 0.000000 1.608560 0.000000 
#    z 0.000000 0.000000 1.711650 
# 
# From -- ./inp_files/5930.got.cif
#   From: 2010.05.17/outbox.cif.g08.bks.cpg/sg68_3_cif.got.tgz:5930.got - 2010.06.03 18:57:09.
