data_PCOD9506453
_publ_section_title
;
Structure prediction by ZEFSAII (Michael W. Deem and Ramdas Pophale) SiO2 
 PCOD9506453
Probable space group: C C C A
;
_chemical_formula_sum "Si O2"
_cell_formula_units_Z 64
_cell_length_a 11.322698
_cell_length_b 18.905030
_cell_length_c 12.803318
_cell_angle_alpha 90.000000
_cell_angle_beta 90.000000
_cell_angle_gamma 90.000000
_cell_volume 2740.626338
_symmetry_space_group_name_H-M "C C C A"
_symmetry_group_IT_number 68
_space_group.IT_coordinate_system_code '2'
_symmetry_cell_setting 'orthorhombic'
loop_
_space_group_symop_operation_xyz
x,y,z
-x,1/2-y,z
x,1/2-y,1/2-z
-x,y,1/2-z
-x,-y,-z
x,1/2+y,-z
-x,1/2+y,1/2+z
x,-y,1/2+z
1/2+x,1/2+y,z
1/2-x,-y,z
1/2+x,-y,1/2-z
1/2-x,1/2+y,1/2-z
1/2-x,1/2-y,-z
1/2+x,y,-z
1/2-x,y,1/2+z
1/2+x,1/2-y,1/2+z
loop_
_atom_site_type_symbol
_atom_site_label
_atom_site_fract_x
_atom_site_fract_y
_atom_site_fract_z
Si Si1 0.410084 0.850247 0.152857
Si Si2 0.750000 0.500000 0.390692
Si Si3 0.249483 0.750000 0.250000
Si Si4 0.560466 0.575893 0.513800
Si Si5 0.671201 0.398906 0.229053
O O1 0.500000 0.851564 0.250000
O O2 0.337448 0.776587 0.157952
O O3 0.481204 0.869044 0.050035
O O4 0.304824 0.905384 0.180155
O O5 0.685711 0.560552 0.457104
O O6 0.660046 0.458626 0.315328
O O7 0.175323 0.819593 0.275384
O O8 0.500000 0.500000 0.500000
O O9 0.584098 0.596172 0.632455
#
# Coordination Sequence:
#
# PCOD9506453 Si02
#       5
#    16   8   8  16  16
#     4  10  19  41  67  94 134 186 238 287 371 434
#     4  12  22  40  64 100 146 186 236 308 366 438
#     4   8  21  42  72  91 138 190 241 292 366 435
#     4  12  24  38  69 106 138 186 249 301 366 450
#     4  10  23  41  68 103 137 189 243 295 369 443
#
# _framework density 23.352325
#
# number of rings (size 3 to 8) (size 9 to 14) (size 15 to 20)
#    1.500    0.000    2.500    4.125    0.000    0.000 
#    0.000    5.000   11.000    1.500    0.000    1.750 
#    0.000    0.000    0.000    0.000    0.000    0.000 
#
# Total GULP energy -178679.902075 kJ/mol
# GULP energy per Si atom -5583.746940 kJ/mol
# Density = 2.329917 g / cm^3
# Si number density = 23.352325 Si / 1000 Ang^3
#
#
#
# Elastic Constant Matrix: (Units=GPa)
#
#
# Indices 1 2 3 4 5 6 
#
# 1 75.0364 16.6724 25.3275 0.0000 0.0000 0.0000
# 2 16.6724 117.5235 50.1207 0.0000 0.0000 0.0000
# 3 25.3275 50.1207 87.2587 0.0000 0.0000 0.0000
# 4 0.0000 0.0000 0.0000 24.8852 0.0000 0.0000
# 5 0.0000 0.0000 0.0000 0.0000 45.1028 0.0000
# 6 0.0000 0.0000 0.0000 0.0000 0.0000 45.0073
#
#
#
# Elastic Compliance Matrix: (Units=1/GPa)
#
#
# Indices 1 2 3 4 5 6 
#
# 1 0.014785 -0.000354 -0.004088 0.000000 0.000000 0.000000
# 2 -0.000354 0.011278 -0.006375 0.000000 0.000000 0.000000
# 3 -0.004088 -0.006375 0.016309 0.000000 0.000000 0.000000
# 4 0.000000 0.000000 0.000000 0.040185 0.000000 0.000000
# 5 0.000000 0.000000 0.000000 0.000000 0.022172 0.000000
# 6 0.000000 0.000000 0.000000 0.000000 0.000000 0.022219
#
#
# Mechanical properties :
#
#
# Convention : Reuss Voigt Hill
#
# Bulk Modulus (GPa) = 48.22255 51.56219 49.89237
# Shear Modulus (GPa) = 32.15549 35.51224 33.83386
#
# Velocity S-wave (km/s) = 3.71478 3.90387 3.81050
# Velocity P-wave (km/s) = 6.25254 6.51523 6.38524
#
# Compressibility (1/GPa) = 0.02073718
#
# Stress axis : x y z
#
# Youngs Moduli (GPa) = 67.63399 88.66791 61.31687
#
# Poissons Ratio (x) = 0.03139 0.25068
# Poissons Ratio (y) = 0.02394 0.39091
# Poissons Ratio (z) = 0.27651 0.56528
#
# Static dielectric constant tensor:
#      x y z
#    x 2.026160 0.000000 0.000000 
#    y 0.000000 1.912510 0.000000 
#    z 0.000000 0.000000 1.852180 
# 
# From -- ./inp_files/11719.got.cif
#   From: 2010.05.17/outbox.cif.g08.bks.cpg/sg68_6_cif.got.tgz:11719.got - 2010.06.03 18:57:09.
