data_PCOD9506525
_publ_section_title
;
Structure prediction by ZEFSAII (Michael W. Deem and Ramdas Pophale) SiO2 
 PCOD9506525
Probable space group: C C C A
;
_chemical_formula_sum "Si O2"
_cell_formula_units_Z 52
_cell_length_a 28.473017
_cell_length_b 14.025896
_cell_length_c 5.501870
_cell_angle_alpha 90.000000
_cell_angle_beta 90.000000
_cell_angle_gamma 90.000000
_cell_volume 2197.224466
_symmetry_space_group_name_H-M "C C C A"
_symmetry_group_IT_number 68
_space_group.IT_coordinate_system_code '2'
_symmetry_cell_setting 'orthorhombic'
loop_
_space_group_symop_operation_xyz
x,y,z
-x,1/2-y,z
x,1/2-y,1/2-z
-x,y,1/2-z
-x,-y,-z
x,1/2+y,-z
-x,1/2+y,1/2+z
x,-y,1/2+z
1/2+x,1/2+y,z
1/2-x,-y,z
1/2+x,-y,1/2-z
1/2-x,1/2+y,1/2-z
1/2-x,1/2-y,-z
1/2+x,y,-z
1/2-x,y,1/2+z
1/2+x,1/2-y,1/2+z
loop_
_atom_site_type_symbol
_atom_site_label
_atom_site_fract_x
_atom_site_fract_y
_atom_site_fract_z
Si Si1 0.376878 0.365437 0.517757
Si Si2 0.268439 0.391099 0.625854
Si Si3 0.000000 0.750000 0.250000
Si Si4 0.413699 0.152019 0.483768
O O1 0.323473 0.390458 0.571275
O O2 0.384101 0.250855 0.500360
O O3 0.392959 0.400627 0.252178
O O4 0.408247 0.392843 0.751448
O O5 0.250000 0.500000 0.647037
O O6 0.257747 0.348311 0.890751
O O7 0.966008 0.685491 0.414779
#
# Coordination Sequence:
#
# PCOD9506525 Si02
#       4
#    16  16   4  16
#     4   9  17  31  44  68  98 128 156 198 245 276
#     4  10  20  33  49  66  91 126 173 209 235 280
#     4   8  16  30  48  74 100 134 156 182 240 304
#     4   9  18  29  48  70 103 125 153 194 242 297
#
# _framework density 23.666219000000002
#
# number of rings (size 3 to 8) (size 9 to 14) (size 15 to 20)
#    0.000    3.077    0.000    1.846    0.000    9.846 
#    0.000   18.462    0.000    0.000    0.000    0.000 
#    0.000  521.846    0.000    0.000    0.000    0.000 
#
# Total GULP energy -145180.930786 kJ/mol
# GULP energy per Si atom -5583.881953 kJ/mol
# Density = 2.361235 g / cm^3
# Si number density = 23.666219 Si / 1000 Ang^3
#
#
#
# Elastic Constant Matrix: (Units=GPa)
#
#
# Indices 1 2 3 4 5 6 
#
# 1 171.1603 14.9219 46.9761 0.0000 0.0000 0.0000
# 2 14.9219 98.5429 9.7647 0.0000 0.0000 0.0000
# 3 46.9761 9.7647 260.3362 0.0000 0.0000 0.0000
# 4 0.0000 0.0000 0.0000 -22.8775 0.0000 0.0000
# 5 0.0000 0.0000 0.0000 0.0000 -21.7962 0.0000
# 6 0.0000 0.0000 0.0000 0.0000 0.0000 -1.0883
#
#
#
# Elastic Compliance Matrix: (Units=1/GPa)
#
#
# Indices 1 2 3 4 5 6 
#
# 1 0.006214 -0.000833 -0.001090 0.000000 0.000000 0.000000
# 2 -0.000833 0.010297 -0.000236 0.000000 0.000000 0.000000
# 3 -0.001090 -0.000236 0.004047 0.000000 0.000000 0.000000
# 4 0.000000 0.000000 0.000000 -0.043711 0.000000 0.000000
# 5 0.000000 0.000000 0.000000 0.000000 -0.045880 0.000000
# 6 0.000000 0.000000 0.000000 0.000000 0.000000 -0.918836
#
#
# Mechanical properties :
#
#
# Convention : Reuss Voigt Hill
#
# Bulk Modulus (GPa) = 61.57485 74.81832 68.19658
# Shear Modulus (GPa) = -5.11176 21.40605 8.14715
#
# Velocity S-wave (km/s) = -1.47127 3.01075 1.85742
# Velocity P-wave (km/s) = 4.81543 6.61580 5.78607
#
# Compressibility (1/GPa) = 0.01624040
#
# Stress axis : x y z
#
# Youngs Moduli (GPa) = 160.91973 97.11212 247.11271
#
# Poissons Ratio (x) = 0.08089 0.26937
# Poissons Ratio (y) = 0.13404 0.05830
# Poissons Ratio (z) = 0.17542 0.02291
#
# Static dielectric constant tensor:
#      x y z
#    x 1.807600 0.000000 0.000000 
#    y 0.000000 1.877680 0.000000 
#    z 0.000000 0.000000 2.060780 
# 
# From -- ./inp_files/939.got.cif
#   From: 2010.05.17/outbox.cif.g08.bks.cpg/sg68_1_cif.got.tgz:939.got - 2010.06.03 18:57:09.
