data_PCOD9506019
_publ_section_title
;
Structure prediction by ZEFSAII (Michael W. Deem and Ramdas Pophale) SiO2 
 PCOD9506019
Probable space group: C C C A
;
_chemical_formula_sum "Si O2"
_cell_formula_units_Z 72
_cell_length_a 5.046323
_cell_length_b 31.050615
_cell_length_c 28.659572
_cell_angle_alpha 90.000000
_cell_angle_beta 90.000000
_cell_angle_gamma 90.000000
_cell_volume 4490.709395
_symmetry_space_group_name_H-M "C C C A"
_symmetry_group_IT_number 68
_space_group.IT_coordinate_system_code '2'
_symmetry_cell_setting 'orthorhombic'
loop_
_space_group_symop_operation_xyz
x,y,z
-x,1/2-y,z
x,1/2-y,1/2-z
-x,y,1/2-z
-x,-y,-z
x,1/2+y,-z
-x,1/2+y,1/2+z
x,-y,1/2+z
1/2+x,1/2+y,z
1/2-x,-y,z
1/2+x,-y,1/2-z
1/2-x,1/2+y,1/2-z
1/2-x,1/2-y,-z
1/2+x,y,-z
1/2-x,y,1/2+z
1/2+x,1/2-y,1/2+z
loop_
_atom_site_type_symbol
_atom_site_label
_atom_site_fract_x
_atom_site_fract_y
_atom_site_fract_z
Si Si1 0.261737 0.448268 0.154074
Si Si2 0.233720 0.080347 0.102445
Si Si3 0.500000 0.250000 0.533950
Si Si4 0.500000 0.971055 0.750000
Si Si5 0.750000 0.000000 0.466655
Si Si6 0.051580 0.344786 0.465578
O O1 0.250000 0.500000 0.142928
O O2 0.468559 0.422255 0.122002
O O3 0.372484 0.446095 0.206641
O O4 0.971144 0.430264 0.143993
O O5 0.131955 0.121747 0.074345
O O6 0.224862 0.041351 0.065832
O O7 0.750000 0.250000 0.500000
O O8 0.472103 0.203206 0.557048
O O9 0.250000 0.000000 0.732416
O O10 0.500000 0.000000 0.500000
O O11 0.777404 0.349913 0.494213
#
# Coordination Sequence:
#
# PCOD9506019 Si02
#       6
#    16  16   8   8   8  16
#     4  11  20  35  48  69  93 123 158 200 244 281
#     4  12  21  32  48  67  97 126 163 198 232 278
#     4   8  16  30  50  66  88 119 158 205 242 276
#     4  10  20  34  54  70  88 121 162 201 250 296
#     4  12  22  32  42  60  92 136 164 186 218 268
#     4  10  19  33  48  69  94 127 164 198 239 276
#
# _framework density 16.033100999999998
#
# number of rings (size 3 to 8) (size 9 to 14) (size 15 to 20)
#    0.000    1.333    2.222    6.667    0.000    0.000 
#    0.000    0.000    0.000    0.000    0.000    0.000 
#    0.000    5.333    0.000    0.000    0.000    0.000 
#
# Total GULP energy -200614.474768 kJ/mol
# GULP energy per Si atom -5572.624299 kJ/mol
# Density = 1.599661 g / cm^3
# Si number density = 16.033101 Si / 1000 Ang^3
#
#
#
# Elastic Constant Matrix: (Units=GPa)
#
#
# Indices 1 2 3 4 5 6 
#
# 1 97.3100 0.4854 9.6522 0.0000 0.0000 0.0000
# 2 0.4854 107.7766 24.8083 0.0000 0.0000 0.0000
# 3 9.6522 24.8083 62.3157 0.0000 0.0000 0.0000
# 4 0.0000 0.0000 0.0000 549.2957 0.0000 0.0000
# 5 0.0000 0.0000 0.0000 0.0000 32.7990 0.0000
# 6 0.0000 0.0000 0.0000 0.0000 0.0000 20.9426
#
#
#
# Elastic Compliance Matrix: (Units=1/GPa)
#
#
# Indices 1 2 3 4 5 6 
#
# 1 0.010449 0.000358 -0.001761 0.000000 0.000000 0.000000
# 2 0.000358 0.010227 -0.004127 0.000000 0.000000 0.000000
# 3 -0.001761 -0.004127 0.017963 0.000000 0.000000 0.000000
# 4 0.000000 0.000000 0.000000 0.001821 0.000000 0.000000
# 5 0.000000 0.000000 0.000000 0.000000 0.030489 0.000000
# 6 0.000000 0.000000 0.000000 0.000000 0.000000 0.047750
#
#
# Mechanical properties :
#
#
# Convention : Reuss Voigt Hill
#
# Bulk Modulus (GPa) = 36.25847 37.47712 36.86779
# Shear Modulus (GPa) = 35.98399 136.10454 86.04426
#
# Velocity S-wave (km/s) = 4.74260 9.22356 7.33370
# Velocity P-wave (km/s) = 7.25628 11.69861 9.73425
#
# Compressibility (1/GPa) = 0.02757977
#
# Stress axis : x y z
#
# Youngs Moduli (GPa) = 95.69978 97.78261 55.66992
#
# Poissons Ratio (x) = -0.03504 0.09804
# Poissons Ratio (y) = -0.03429 0.22974
# Poissons Ratio (z) = 0.16854 0.40353
#
# Static dielectric constant tensor:
#      x y z
#    x 1.564330 0.000000 0.000000 
#    y 0.000000 1.573000 0.000000 
#    z 0.000000 0.000000 1.526540 
# 
# From -- ./inp_files/42320.got.cif
#   From: 2010.05.17/outbox.cif.g08.bks.cpg/sg68_22_cif.got.tgz:42320.got - 2010.06.03 18:57:09.
