data_PCOD9506515
_publ_section_title
;
Structure prediction by ZEFSAII (Michael W. Deem and Ramdas Pophale) SiO2 
 PCOD9506515
Probable space group: C C C A
;
_chemical_formula_sum "Si O2"
_cell_formula_units_Z 68
_cell_length_a 16.508454
_cell_length_b 14.383772
_cell_length_c 12.855801
_cell_angle_alpha 90.000000
_cell_angle_beta 90.000000
_cell_angle_gamma 90.000000
_cell_volume 3052.659293
_symmetry_space_group_name_H-M "C C C A"
_symmetry_group_IT_number 68
_space_group.IT_coordinate_system_code '2'
_symmetry_cell_setting 'orthorhombic'
loop_
_space_group_symop_operation_xyz
x,y,z
-x,1/2-y,z
x,1/2-y,1/2-z
-x,y,1/2-z
-x,-y,-z
x,1/2+y,-z
-x,1/2+y,1/2+z
x,-y,1/2+z
1/2+x,1/2+y,z
1/2-x,-y,z
1/2+x,-y,1/2-z
1/2-x,1/2+y,1/2-z
1/2-x,1/2-y,-z
1/2+x,y,-z
1/2-x,y,1/2+z
1/2+x,1/2-y,1/2+z
loop_
_atom_site_type_symbol
_atom_site_label
_atom_site_fract_x
_atom_site_fract_y
_atom_site_fract_z
Si Si1 0.172741 0.368183 0.467929
Si Si2 0.144949 0.937165 0.090180
Si Si3 0.200474 0.146290 0.796894
Si Si4 0.000000 0.250000 0.250000
Si Si5 0.630717 0.663956 0.390182
O O1 0.124486 0.454624 0.421481
O O2 0.264185 0.403909 0.446326
O O3 0.158956 0.358382 0.590750
O O4 0.162849 0.267317 0.419491
O O5 0.150429 0.910161 0.210699
O O6 0.100122 0.883819 0.996715
O O7 0.203961 0.250000 0.750000
O O8 0.293866 0.117511 0.826054
O O9 0.056282 0.183452 0.317052
#
# Coordination Sequence:
#
# PCOD9506515 Si02
#       5
#    16  16  16   4  16
#     4  10  20  32  58  90 116 141 182 236 294 339
#     4  10  20  33  57  90 116 142 182 233 293 341
#     4  11  17  35  60  82 117 145 173 242 293 323
#     4  12  24  36  60  70 112 170 184 214 284 326
#     4  11  21  38  53  85 115 149 193 228 268 345
#
# _framework density 22.275660999999999
#
# number of rings (size 3 to 8) (size 9 to 14) (size 15 to 20)
#    0.000    1.412    5.882    1.412    0.000    9.412 
#    0.000    1.176    0.000    2.824    0.000    0.000 
#    0.000    0.000    0.000    0.000    0.000    0.000 
#
# Total GULP energy -189600.555373 kJ/mol
# GULP energy per Si atom -5576.486923 kJ/mol
# Density = 2.222496 g / cm^3
# Si number density = 22.275661 Si / 1000 Ang^3
#
#
#
# Elastic Constant Matrix: (Units=GPa)
#
#
# Indices 1 2 3 4 5 6 
#
# 1 27.0769 -6.4582 22.5170 0.0000 0.0000 0.0000
# 2 -6.4582 58.7222 19.5589 0.0000 0.0000 0.0000
# 3 22.5170 19.5589 152.0633 0.0000 0.0000 0.0000
# 4 0.0000 0.0000 0.0000 30.1593 0.0000 0.0000
# 5 0.0000 0.0000 0.0000 0.0000 280.4464 0.0000
# 6 0.0000 0.0000 0.0000 0.0000 0.0000 2.5414
#
#
#
# Elastic Compliance Matrix: (Units=1/GPa)
#
#
# Indices 1 2 3 4 5 6 
#
# 1 0.045074 0.007502 -0.007639 0.000000 0.000000 0.000000
# 2 0.007502 0.019040 -0.003560 0.000000 0.000000 0.000000
# 3 -0.007639 -0.003560 0.008165 0.000000 0.000000 0.000000
# 4 0.000000 0.000000 0.000000 0.033157 0.000000 0.000000
# 5 0.000000 0.000000 0.000000 0.000000 0.003566 0.000000
# 6 0.000000 0.000000 0.000000 0.000000 0.000000 0.393487
#
#
# Mechanical properties :
#
#
# Convention : Reuss Voigt Hill
#
# Bulk Modulus (GPa) = 15.41204 34.34420 24.87812
# Shear Modulus (GPa) = 9.40712 76.11238 42.75975
#
# Velocity S-wave (km/s) = 2.05723 5.85172 4.38605
# Velocity P-wave (km/s) = 3.54637 7.81716 6.06979
#
# Compressibility (1/GPa) = 0.06488433
#
# Stress axis : x y z
#
# Youngs Moduli (GPa) = 22.18581 52.52083 122.46970
#
# Poissons Ratio (x) = -0.39399 0.93558
# Poissons Ratio (y) = -0.16643 0.43597
# Poissons Ratio (z) = 0.16948 0.18696
#
# Static dielectric constant tensor:
#      x y z
#    x 1.895810 0.000000 0.000000 
#    y 0.000000 1.887590 0.000000 
#    z 0.000000 0.000000 1.917740 
# 
# From -- ./inp_files/13008.got.cif
#   From: 2010.05.17/outbox.cif.g08.bks.cpg/sg68_7_cif.got.tgz:13008.got - 2010.06.03 18:57:09.
