data_PCOD9506297
_publ_section_title
;
Structure prediction by ZEFSAII (Michael W. Deem and Ramdas Pophale) SiO2 
 PCOD9506297
Probable space group: C C C A
;
_chemical_formula_sum "Si O2"
_cell_formula_units_Z 72
_cell_length_a 24.940403
_cell_length_b 14.765027
_cell_length_c 7.877948
_cell_angle_alpha 90.000000
_cell_angle_beta 90.000000
_cell_angle_gamma 90.000000
_cell_volume 2901.020662
_symmetry_space_group_name_H-M "C C C A"
_symmetry_group_IT_number 68
_space_group.IT_coordinate_system_code '2'
_symmetry_cell_setting 'orthorhombic'
loop_
_space_group_symop_operation_xyz
x,y,z
-x,1/2-y,z
x,1/2-y,1/2-z
-x,y,1/2-z
-x,-y,-z
x,1/2+y,-z
-x,1/2+y,1/2+z
x,-y,1/2+z
1/2+x,1/2+y,z
1/2-x,-y,z
1/2+x,-y,1/2-z
1/2-x,1/2+y,1/2-z
1/2-x,1/2-y,-z
1/2+x,y,-z
1/2-x,y,1/2+z
1/2+x,1/2-y,1/2+z
loop_
_atom_site_type_symbol
_atom_site_label
_atom_site_fract_x
_atom_site_fract_y
_atom_site_fract_z
Si Si1 0.443705 0.082546 0.840157
Si Si2 0.332001 0.860134 0.228111
Si Si3 0.851618 0.750000 0.250000
Si Si4 0.440220 0.123485 0.241533
Si Si5 0.732455 0.147307 0.457389
O O1 0.500000 0.111601 0.750000
O O2 0.393009 0.112777 0.729036
O O3 0.442822 0.973852 0.831365
O O4 0.431952 0.112823 0.035681
O O5 0.330971 0.750000 0.250000
O O6 0.301103 0.896495 0.394256
O O7 0.289951 0.893527 0.087324
O O8 0.896473 0.685683 0.337169
O O9 0.811800 0.828023 0.316724
O O10 0.500000 0.159410 0.250000
O O11 0.750000 0.250000 0.500000
#
# Coordination Sequence:
#
# PCOD9506297 Si02
#       5
#    16  16   8  16  16
#     4  11  24  45  66  94 135 172 216 273 330 381
#     4  10  21  39  65  94 132 170 216 263 324 388
#     4  12  21  40  70  92 125 172 218 264 322 388
#     4  11  25  44  66  95 131 172 220 271 330 385
#     4  10  19  36  65  92 129 167 208 267 320 378
#
# _framework density 24.818852
#
# number of rings (size 3 to 8) (size 9 to 14) (size 15 to 20)
#    0.000    1.333    5.556    3.000    0.000    7.556 
#    4.000    1.111    4.889    0.000    0.000    0.000 
#    0.000    0.000    0.000    0.000    0.000    0.000 
#
# Total GULP energy -200502.705391 kJ/mol
# GULP energy per Si atom -5569.519594 kJ/mol
# Density = 2.476236 g / cm^3
# Si number density = 24.818852 Si / 1000 Ang^3
#
#
#
# Elastic Constant Matrix: (Units=GPa)
#
#
# Indices 1 2 3 4 5 6 
#
# 1 225.5842 23.9183 20.5090 0.0000 0.0000 0.0000
# 2 23.9183 59.7861 5.1921 0.0000 0.0000 0.0000
# 3 20.5090 5.1921 74.6490 0.0000 0.0000 0.0000
# 4 0.0000 0.0000 0.0000 2.8038 0.0000 0.0000
# 5 0.0000 0.0000 0.0000 0.0000 18.5686 0.0000
# 6 0.0000 0.0000 0.0000 0.0000 0.0000 82.8740
#
#
#
# Elastic Compliance Matrix: (Units=1/GPa)
#
#
# Indices 1 2 3 4 5 6 
#
# 1 0.004730 -0.001790 -0.001175 0.000000 0.000000 0.000000
# 2 -0.001790 0.017505 -0.000726 0.000000 0.000000 0.000000
# 3 -0.001175 -0.000726 0.013769 0.000000 0.000000 0.000000
# 4 0.000000 0.000000 0.000000 0.356656 0.000000 0.000000
# 5 0.000000 0.000000 0.000000 0.000000 0.053854 0.000000
# 6 0.000000 0.000000 0.000000 0.000000 0.000000 0.012067
#
#
# Mechanical properties :
#
#
# Convention : Reuss Voigt Hill
#
# Bulk Modulus (GPa) = 34.93713 51.02869 42.98291
# Shear Modulus (GPa) = 10.51518 41.54263 26.02890
#
# Velocity S-wave (km/s) = 2.06057 4.09569 3.24196
# Velocity P-wave (km/s) = 4.44620 6.55525 5.60089
#
# Compressibility (1/GPa) = 0.02862285
#
# Stress axis : x y z
#
# Youngs Moduli (GPa) = 211.43661 57.12502 72.62532
#
# Poissons Ratio (x) = 0.10226 0.08533
# Poissons Ratio (y) = 0.37849 0.05271
# Poissons Ratio (z) = 0.24841 0.04146
#
# Static dielectric constant tensor:
#      x y z
#    x 2.047010 0.000000 0.000000 
#    y 0.000000 0.111500 0.000000 
#    z 0.000000 0.000000 2.173780 
# 
# From -- ./inp_files/6931.got.cif
#   From: 2010.05.17/outbox.cif.g08.bks.cpg/sg68_4_cif.got.tgz:6931.got - 2010.06.03 18:57:09.
