data_PCOD9506195
_publ_section_title
;
Structure prediction by ZEFSAII (Michael W. Deem and Ramdas Pophale) SiO2 
 PCOD9506195
Probable space group: C C C A
;
_chemical_formula_sum "Si O2"
_cell_formula_units_Z 88
_cell_length_a 17.410176
_cell_length_b 12.067424
_cell_length_c 20.452606
_cell_angle_alpha 90.000000
_cell_angle_beta 90.000000
_cell_angle_gamma 90.000000
_cell_volume 4297.010213
_symmetry_space_group_name_H-M "C C C A"
_symmetry_group_IT_number 68
_space_group.IT_coordinate_system_code '2'
_symmetry_cell_setting 'orthorhombic'
loop_
_space_group_symop_operation_xyz
x,y,z
-x,1/2-y,z
x,1/2-y,1/2-z
-x,y,1/2-z
-x,-y,-z
x,1/2+y,-z
-x,1/2+y,1/2+z
x,-y,1/2+z
1/2+x,1/2+y,z
1/2-x,-y,z
1/2+x,-y,1/2-z
1/2-x,1/2+y,1/2-z
1/2-x,1/2-y,-z
1/2+x,y,-z
1/2-x,y,1/2+z
1/2+x,1/2-y,1/2+z
loop_
_atom_site_type_symbol
_atom_site_label
_atom_site_fract_x
_atom_site_fract_y
_atom_site_fract_z
Si Si1 0.666808 0.443014 0.301272
Si Si2 0.000000 0.750000 0.847630
Si Si3 0.833118 0.053892 0.942978
Si Si4 0.374415 0.918423 0.181068
Si Si5 0.260954 0.240077 0.141961
Si Si6 0.372825 0.397041 0.586697
O O1 0.750000 0.500000 0.296757
O O2 0.625757 0.487463 0.236311
O O3 0.684393 0.315237 0.313610
O O4 0.629013 0.497260 0.365458
O O5 0.056094 0.666411 0.809608
O O6 0.056312 0.822515 0.891899
O O7 0.812101 0.168379 0.907125
O O8 0.750000 0.000000 0.957571
O O9 0.874989 0.975637 0.890166
O O10 0.874419 0.070657 0.011346
O O11 0.295522 0.845067 0.180513
O O12 0.203483 0.323370 0.103129
#
# Coordination Sequence:
#
# PCOD9506195 Si02
#       6
#    16   8  16  16  16  16
#     4  10  20  34  56  88 115 143 183 236 292 340
#     4  10  24  41  56  80 114 159 202 232 282 343
#     4  10  19  35  59  88 118 151 192 243 296 337
#     4  10  22  37  58  85 118 154 192 238 284 348
#     4   9  19  35  57  87 119 143 185 244 301 339
#     4  10  21  35  57  84 118 155 193 235 279 345
#
# _framework density 20.479355000000002
#
# number of rings (size 3 to 8) (size 9 to 14) (size 15 to 20)
#    0.000    2.182    0.000    3.818    0.000   15.273 
#    0.000    0.000    0.000    0.000    0.000   10.182 
#    0.000    0.000    0.000    0.000    0.000    0.000 
#
# Total GULP energy -245865.859006 kJ/mol
# GULP energy per Si atom -5587.860432 kJ/mol
# Density = 2.043274 g / cm^3
# Si number density = 20.479355 Si / 1000 Ang^3
#
#
#
# Elastic Constant Matrix: (Units=GPa)
#
#
# Indices 1 2 3 4 5 6 
#
# 1 57.7638 24.1844 47.9930 0.0000 0.0000 0.0000
# 2 24.1844 103.1049 76.3077 0.0000 0.0000 0.0000
# 3 47.9930 76.3077 143.5401 0.0000 0.0000 0.0000
# 4 0.0000 0.0000 0.0000 31.5212 0.0000 0.0000
# 5 0.0000 0.0000 0.0000 0.0000 5.3175 0.0000
# 6 0.0000 0.0000 0.0000 0.0000 0.0000 27.0659
#
#
#
# Elastic Compliance Matrix: (Units=1/GPa)
#
#
# Indices 1 2 3 4 5 6 
#
# 1 0.023987 0.000510 -0.008291 0.000000 0.000000 0.000000
# 2 0.000510 0.016001 -0.008677 0.000000 0.000000 0.000000
# 3 -0.008291 -0.008677 0.014352 0.000000 0.000000 0.000000
# 4 0.000000 0.000000 0.000000 0.031725 0.000000 0.000000
# 5 0.000000 0.000000 0.000000 0.000000 0.188058 0.000000
# 6 0.000000 0.000000 0.000000 0.000000 0.000000 0.036947
#
#
# Mechanical properties :
#
#
# Convention : Reuss Voigt Hill
#
# Bulk Modulus (GPa) = 46.67793 66.81989 56.74891
# Shear Modulus (GPa) = 14.23988 23.17583 18.70786
#
# Velocity S-wave (km/s) = 2.63977 3.36768 3.02569
# Velocity P-wave (km/s) = 5.66863 6.91523 6.32273
#
# Compressibility (1/GPa) = 0.02142340
#
# Stress axis : x y z
#
# Youngs Moduli (GPa) = 41.68894 62.49648 69.67892
#
# Poissons Ratio (x) = -0.03186 0.57772
# Poissons Ratio (y) = -0.02126 0.60459
# Poissons Ratio (z) = 0.34565 0.54227
#
# Static dielectric constant tensor:
#      x y z
#    x 1.712700 0.000000 0.000000 
#    y 0.000000 1.762280 0.000000 
#    z 0.000000 0.000000 1.744550 
# 
# From -- ./inp_files/39441.got.cif
#   From: 2010.05.17/outbox.cif.g08.bks.cpg/sg68_20_cif.got.tgz:39441.got - 2010.06.03 18:57:09.
