data_PCOD9506903
_publ_section_title
;
Structure prediction by ZEFSAII (Michael W. Deem and Ramdas Pophale) SiO2 
 PCOD9506903
Probable space group: C C C A
;
_chemical_formula_sum "Si O2"
_cell_formula_units_Z 104
_cell_length_a 9.583080
_cell_length_b 27.407475
_cell_length_c 18.830293
_cell_angle_alpha 90.000000
_cell_angle_beta 90.000000
_cell_angle_gamma 90.000000
_cell_volume 4945.739276
_symmetry_space_group_name_H-M "C C C A"
_symmetry_group_IT_number 68
_space_group.IT_coordinate_system_code '2'
_symmetry_cell_setting 'orthorhombic'
loop_
_space_group_symop_operation_xyz
x,y,z
-x,1/2-y,z
x,1/2-y,1/2-z
-x,y,1/2-z
-x,-y,-z
x,1/2+y,-z
-x,1/2+y,1/2+z
x,-y,1/2+z
1/2+x,1/2+y,z
1/2-x,-y,z
1/2+x,-y,1/2-z
1/2-x,1/2+y,1/2-z
1/2-x,1/2-y,-z
1/2+x,y,-z
1/2-x,y,1/2+z
1/2+x,1/2-y,1/2+z
loop_
_atom_site_type_symbol
_atom_site_label
_atom_site_fract_x
_atom_site_fract_y
_atom_site_fract_z
Si Si1 0.400514 0.352998 0.159012
Si Si2 0.474184 0.695497 0.967256
Si Si3 0.756713 0.423989 0.428389
Si Si4 0.195621 0.637323 0.945840
Si Si5 0.022252 0.503657 0.583893
Si Si6 0.750000 0.500000 0.681292
Si Si7 0.691460 0.107877 0.301419
O O1 0.460705 0.308780 0.112688
O O2 0.280932 0.374508 0.109735
O O3 0.332533 0.354419 0.236709
O O4 0.535808 0.389113 0.164025
O O5 0.500000 0.750000 0.993328
O O6 0.315484 0.677640 0.961191
O O7 0.554918 0.657541 0.018798
O O8 0.741215 0.411926 0.511824
O O9 0.904265 0.444433 0.406168
O O10 0.640056 0.462706 0.404009
O O11 0.203475 0.625445 0.862564
O O12 0.000000 0.500000 0.500000
O O13 0.886385 0.500570 0.631451
O O14 0.732827 0.552470 0.721082
#
# Coordination Sequence:
#
# PCOD9506903 Si02
#       7
#    16  16  16  16  16   8  16
#     4   9  20  40  57  79 121 154 198 243 297 369
#     4  10  21  39  66  94 116 150 197 257 318 368
#     4  10  21  36  53  79 116 157 196 240 298 340
#     4  10  21  36  62  89 120 152 193 254 305 369
#     4  11  21  32  51  82 116 154 201 248 283 345
#     4  12  22  32  56  82 120 156 216 242 280 344
#     4  10  20  37  56  85 117 162 198 244 294 340
#
# _framework density 21.028200999999999
#
# number of rings (size 3 to 8) (size 9 to 14) (size 15 to 20)
#    0.000    1.846    1.538    3.231    6.462    1.231 
#    0.000    6.154    0.000    0.000    0.000    4.308 
#    0.000    0.000    0.000    0.000    0.000    0.000 
#
# Total GULP energy -289911.154364 kJ/mol
# GULP energy per Si atom -5575.214507 kJ/mol
# Density = 2.098034 g / cm^3
# Si number density = 21.028201 Si / 1000 Ang^3
#
#
#
# Elastic Constant Matrix: (Units=GPa)
#
#
# Indices 1 2 3 4 5 6 
#
# 1 52.6480 2.8311 5.2979 0.0000 0.0000 0.0000
# 2 2.8311 55.8303 -7.9501 0.0000 0.0000 0.0000
# 3 5.2979 -7.9501 74.0540 0.0000 0.0000 0.0000
# 4 0.0000 0.0000 0.0000 12.0721 0.0000 0.0000
# 5 0.0000 0.0000 0.0000 0.0000 23.0772 0.0000
# 6 0.0000 0.0000 0.0000 0.0000 0.0000 18.2295
#
#
#
# Elastic Compliance Matrix: (Units=1/GPa)
#
#
# Indices 1 2 3 4 5 6 
#
# 1 0.019209 -0.001188 -0.001502 0.000000 0.000000 0.000000
# 2 -0.001188 0.018263 0.002046 0.000000 0.000000 0.000000
# 3 -0.001502 0.002046 0.013831 0.000000 0.000000 0.000000
# 4 0.000000 0.000000 0.000000 0.082836 0.000000 0.000000
# 5 0.000000 0.000000 0.000000 0.000000 0.043333 0.000000
# 6 0.000000 0.000000 0.000000 0.000000 0.000000 0.054856
#
#
# Mechanical properties :
#
#
# Convention : Reuss Voigt Hill
#
# Bulk Modulus (GPa) = 19.99418 20.32113 20.15766
# Shear Modulus (GPa) = 19.97706 22.83265 21.40485
#
# Velocity S-wave (km/s) = 3.08557 3.29874 3.19393
# Velocity P-wave (km/s) = 4.71415 4.91870 4.81751
#
# Compressibility (1/GPa) = 0.05001454
#
# Stress axis : x y z
#
# Youngs Moduli (GPa) = 52.05873 54.75570 72.30284
#
# Poissons Ratio (x) = 0.06505 0.10858
# Poissons Ratio (y) = 0.06184 -0.14790
# Poissons Ratio (z) = 0.07818 -0.11201
#
# Static dielectric constant tensor:
#      x y z
#    x 1.769800 0.000000 0.000000 
#    y 0.000000 1.781980 0.000000 
#    z 0.000000 0.000000 1.892000 
# 
# From -- ./inp_files/36701.got.cif
#   From: 2010.05.17/outbox.cif.g08.bks.cpg/sg68_19_cif.got.tgz:36701.got - 2010.06.03 18:57:09.
