data_PCOD9506241
_publ_section_title
;
Structure prediction by ZEFSAII (Michael W. Deem and Ramdas Pophale) SiO2 
 PCOD9506241
Probable space group: C C C A
;
_chemical_formula_sum "Si O2"
_cell_formula_units_Z 96
_cell_length_a 16.517327
_cell_length_b 11.334418
_cell_length_c 29.328116
_cell_angle_alpha 90.000000
_cell_angle_beta 90.000000
_cell_angle_gamma 90.000000
_cell_volume 5490.642369
_symmetry_space_group_name_H-M "C C C A"
_symmetry_group_IT_number 68
_space_group.IT_coordinate_system_code '2'
_symmetry_cell_setting 'orthorhombic'
loop_
_space_group_symop_operation_xyz
x,y,z
-x,1/2-y,z
x,1/2-y,1/2-z
-x,y,1/2-z
-x,-y,-z
x,1/2+y,-z
-x,1/2+y,1/2+z
x,-y,1/2+z
1/2+x,1/2+y,z
1/2-x,-y,z
1/2+x,-y,1/2-z
1/2-x,1/2+y,1/2-z
1/2-x,1/2-y,-z
1/2+x,y,-z
1/2-x,y,1/2+z
1/2+x,1/2-y,1/2+z
loop_
_atom_site_type_symbol
_atom_site_label
_atom_site_fract_x
_atom_site_fract_y
_atom_site_fract_z
Si Si1 0.236119 0.134557 0.869610
Si Si2 0.456299 0.635038 0.630066
Si Si3 0.531103 0.879596 0.524160
Si Si4 0.641711 0.744926 0.198338
Si Si5 0.995769 0.935329 0.801175
Si Si6 0.275804 0.629274 0.524304
O O1 0.140036 0.155787 0.867969
O O2 0.291760 0.219768 0.839087
O O3 0.256872 0.137494 0.923556
O O4 0.250000 0.000000 0.853475
O O5 0.500000 0.750000 0.648299
O O6 0.486566 0.614583 0.578270
O O7 0.482018 0.526166 0.660280
O O8 0.500000 0.750000 0.507251
O O9 0.627652 0.875038 0.522215
O O10 0.500000 0.000000 0.500000
O O11 0.675762 0.750000 0.250000
O O12 0.592353 0.623424 0.191274
O O13 0.567534 0.838329 0.197643
O O14 0.000000 0.985989 0.750000
O O15 0.250000 0.500000 0.505778
O O16 0.250000 0.750000 0.500000
#
# Coordination Sequence:
#
# PCOD9506241 Si02
#       6
#    16  16  16  16  16  16
#     4  10  19  36  58  79 109 149 186 223 278 339
#     4  10  21  37  54  80 116 147 178 228 283 332
#     4  10  21  38  57  81 114 148 188 233 279 332
#     4   9  18  35  57  82 107 137 186 235 268 316
#     4   9  18  35  57  80 108 141 181 229 273 325
#     4  10  21  36  57  83 112 147 188 232 282 334
#
# _framework density 17.484293000000001
#
# number of rings (size 3 to 8) (size 9 to 14) (size 15 to 20)
#    0.000    2.333    1.667    2.000    0.000    1.667 
#    6.000    0.833    0.000    0.000    0.000    0.000 
#    0.000    0.000    0.000    0.000    0.000    0.000 
#
# Total GULP energy -267298.137698 kJ/mol
# GULP energy per Si atom -5568.711202 kJ/mol
# Density = 1.744450 g / cm^3
# Si number density = 17.484293 Si / 1000 Ang^3
#
#
#
# Elastic Constant Matrix: (Units=GPa)
#
#
# Indices 1 2 3 4 5 6 
#
# 1 47.6029 21.5280 22.6928 0.0000 0.0000 0.0000
# 2 21.5280 100.2817 47.7883 0.0000 0.0000 0.0000
# 3 22.6928 47.7883 72.4236 0.0000 0.0000 0.0000
# 4 0.0000 0.0000 0.0000 5.1559 0.0000 0.0000
# 5 0.0000 0.0000 0.0000 0.0000 -9.5603 0.0000
# 6 0.0000 0.0000 0.0000 0.0000 0.0000 26.2690
#
#
#
# Elastic Compliance Matrix: (Units=1/GPa)
#
#
# Indices 1 2 3 4 5 6 
#
# 1 0.025083 -0.002391 -0.006281 0.000000 0.000000 0.000000
# 2 -0.002391 0.014774 -0.008999 0.000000 0.000000 0.000000
# 3 -0.006281 -0.008999 0.021714 0.000000 0.000000 0.000000
# 4 0.000000 0.000000 0.000000 0.193951 0.000000 0.000000
# 5 0.000000 0.000000 0.000000 0.000000 -0.104599 0.000000
# 6 0.000000 0.000000 0.000000 0.000000 0.000000 0.038068
#
#
# Mechanical properties :
#
#
# Convention : Reuss Voigt Hill
#
# Bulk Modulus (GPa) = 38.12888 44.92514 41.52701
# Shear Modulus (GPa) = 21.45218 12.92619 17.18918
#
# Velocity S-wave (km/s) = 3.50657 2.72196 3.13888
# Velocity P-wave (km/s) = 6.18462 5.96901 6.07777
#
# Compressibility (1/GPa) = 0.02622684
#
# Stress axis : x y z
#
# Youngs Moduli (GPa) = 39.86762 67.68797 46.05359
#
# Poissons Ratio (x) = 0.16186 0.28928
# Poissons Ratio (y) = 0.09534 0.41444
# Poissons Ratio (z) = 0.25043 0.60913
#
# Static dielectric constant tensor:
#      x y z
#    x 1.575800 0.000000 0.000000 
#    y 0.000000 1.559330 0.000000 
#    z 0.000000 0.000000 1.610300 
# 
# From -- ./inp_files/51385.got.cif
#   From: 2010.05.17/outbox.cif.g08.bks.cpg/sg68_26_cif.got.tgz:51385.got - 2010.06.03 18:57:09.
