data_PCOD9506551
_publ_section_title
;
Structure prediction by ZEFSAII (Michael W. Deem and Ramdas Pophale) SiO2 
 PCOD9506551
Probable space group: C C C A
;
_chemical_formula_sum "Si O2"
_cell_formula_units_Z 60
_cell_length_a 5.063791
_cell_length_b 32.148617
_cell_length_c 21.579924
_cell_angle_alpha 90.000000
_cell_angle_beta 90.000000
_cell_angle_gamma 90.000000
_cell_volume 3513.079503
_symmetry_space_group_name_H-M "C C C A"
_symmetry_group_IT_number 68
_space_group.IT_coordinate_system_code '2'
_symmetry_cell_setting 'orthorhombic'
loop_
_space_group_symop_operation_xyz
x,y,z
-x,1/2-y,z
x,1/2-y,1/2-z
-x,y,1/2-z
-x,-y,-z
x,1/2+y,-z
-x,1/2+y,1/2+z
x,-y,1/2+z
1/2+x,1/2+y,z
1/2-x,-y,z
1/2+x,-y,1/2-z
1/2-x,1/2+y,1/2-z
1/2-x,1/2-y,-z
1/2+x,y,-z
1/2-x,y,1/2+z
1/2+x,1/2-y,1/2+z
loop_
_atom_site_type_symbol
_atom_site_label
_atom_site_fract_x
_atom_site_fract_y
_atom_site_fract_z
Si Si1 0.247348 0.545144 0.795502
Si Si2 0.000000 0.250000 0.544441
Si Si3 0.113348 0.366153 0.320168
Si Si4 0.000000 0.250000 0.750000
Si Si5 0.372088 0.813672 0.849011
O O1 0.500000 0.552109 0.750000
O O2 0.250000 0.500000 0.828231
O O3 0.188300 0.586132 0.835483
O O4 0.000000 0.540934 0.750000
O O5 0.250000 0.250000 0.500000
O O6 0.036062 0.289348 0.589948
O O7 0.382484 0.340702 0.325159
O O8 0.000000 0.366647 0.250000
O O9 0.883893 0.342498 0.357657
O O10 0.172792 0.221171 0.795685
#
# Coordination Sequence:
#
# PCOD9506551 Si02
#       5
#    16   8  16   4  16
#     4   9  17  28  44  67 104 149 173 191 237 307
#     4  11  24  43  54  69  98 137 180 222 258 301
#     4  11  18  31  48  78 108 133 166 209 251 306
#     4  10  20  34  44  78 100 128 160 204 272 296
#     4  11  22  33  54  74 102 134 172 214 256 312
#
# _framework density 17.079032000000002
#
# number of rings (size 3 to 8) (size 9 to 14) (size 15 to 20)
#    0.000    1.600    2.667    4.800    0.000    4.267 
#    0.000    0.000    0.000    0.000    0.000    0.000 
#    0.000   21.333    0.000    0.000    0.000    0.000 
#
# Total GULP energy -167209.057459 kJ/mol
# GULP energy per Si atom -5573.635249 kJ/mol
# Density = 1.704016 g / cm^3
# Si number density = 17.079032 Si / 1000 Ang^3
#
#
#
# Elastic Constant Matrix: (Units=GPa)
#
#
# Indices 1 2 3 4 5 6 
#
# 1 122.5601 51.3926 14.9737 0.0000 0.0000 0.0000
# 2 51.3926 163.3175 38.9591 0.0000 0.0000 0.0000
# 3 14.9737 38.9591 56.5221 0.0000 0.0000 0.0000
# 4 0.0000 0.0000 0.0000 10.2313 0.0000 0.0000
# 5 0.0000 0.0000 0.0000 0.0000 23.0184 0.0000
# 6 0.0000 0.0000 0.0000 0.0000 0.0000 30.9828
#
#
#
# Elastic Compliance Matrix: (Units=1/GPa)
#
#
# Indices 1 2 3 4 5 6 
#
# 1 0.009413 -0.002833 -0.000541 0.000000 0.000000 0.000000
# 2 -0.002833 0.008181 -0.004888 0.000000 0.000000 0.000000
# 3 -0.000541 -0.004888 0.021205 0.000000 0.000000 0.000000
# 4 0.000000 0.000000 0.000000 0.097739 0.000000 0.000000
# 5 0.000000 0.000000 0.000000 0.000000 0.043443 0.000000
# 6 0.000000 0.000000 0.000000 0.000000 0.000000 0.032276
#
#
# Mechanical properties :
#
#
# Convention : Reuss Voigt Hill
#
# Bulk Modulus (GPa) = 44.89481 61.45005 53.17243
# Shear Modulus (GPa) = 21.16792 28.65148 24.90970
#
# Velocity S-wave (km/s) = 3.52434 4.10027 3.82317
# Velocity P-wave (km/s) = 6.55018 7.64685 7.11966
#
# Compressibility (1/GPa) = 0.02227429
#
# Stress axis : x y z
#
# Youngs Moduli (GPa) = 106.23199 122.24006 47.15927
#
# Poissons Ratio (x) = 0.34632 0.02551
# Poissons Ratio (y) = 0.30097 0.23052
# Poissons Ratio (z) = 0.05747 0.59752
#
# Static dielectric constant tensor:
#      x y z
#    x 1.581830 0.000000 0.000000 
#    y 0.000000 1.680730 0.000000 
#    z 0.000000 0.000000 1.711670 
# 
# From -- ./inp_files/27106.got.cif
#   From: 2010.05.17/outbox.cif.g08.bks.cpg/sg68_14_cif.got.tgz:27106.got - 2010.06.03 18:57:09.
