data_PCOD9506467
_publ_section_title
;
Structure prediction by ZEFSAII (Michael W. Deem and Ramdas Pophale) SiO2 
 PCOD9506467
Probable space group: C C C A
;
_chemical_formula_sum "Si O2"
_cell_formula_units_Z 116
_cell_length_a 24.616396
_cell_length_b 28.300750
_cell_length_c 9.690707
_cell_angle_alpha 90.000000
_cell_angle_beta 90.000000
_cell_angle_gamma 90.000000
_cell_volume 6751.151866
_symmetry_space_group_name_H-M "C C C A"
_symmetry_group_IT_number 68
_space_group.IT_coordinate_system_code '2'
_symmetry_cell_setting 'orthorhombic'
loop_
_space_group_symop_operation_xyz
x,y,z
-x,1/2-y,z
x,1/2-y,1/2-z
-x,y,1/2-z
-x,-y,-z
x,1/2+y,-z
-x,1/2+y,1/2+z
x,-y,1/2+z
1/2+x,1/2+y,z
1/2-x,-y,z
1/2+x,-y,1/2-z
1/2-x,1/2+y,1/2-z
1/2-x,1/2-y,-z
1/2+x,y,-z
1/2-x,y,1/2+z
1/2+x,1/2-y,1/2+z
loop_
_atom_site_type_symbol
_atom_site_label
_atom_site_fract_x
_atom_site_fract_y
_atom_site_fract_z
Si Si1 0.935574 0.531772 0.797176
Si Si2 0.500000 0.750000 0.250000
Si Si3 0.690500 0.210316 0.564443
Si Si4 0.455180 0.091425 0.050471
Si Si5 0.423650 0.576950 0.662544
Si Si6 0.282832 0.314061 0.866741
Si Si7 0.377412 0.887466 0.117337
Si Si8 0.425092 0.172783 0.851108
O O1 0.915879 0.477949 0.798566
O O2 0.896696 0.565829 0.704960
O O3 0.000000 0.534850 0.750000
O O4 0.933855 0.548767 0.956139
O O5 0.538109 0.782107 0.158705
O O6 0.722033 0.197276 0.705281
O O7 0.687120 0.267676 0.565857
O O8 0.724770 0.188457 0.440265
O O9 0.632207 0.186839 0.583388
O O10 0.421903 0.102223 0.189100
O O11 0.515449 0.079854 0.101002
O O12 0.453988 0.134114 0.944083
O O13 0.388354 0.599308 0.541097
O O14 0.318143 0.362137 0.877541
O O15 0.414050 0.848190 0.197699
#
# Coordination Sequence:
#
# PCOD9506467 Si02
#       8
#    16   4  16  16  16  16  16  16
#     4  11  18  31  50  73 106 145 180 220 264 322
#     4  12  20  32  56  74 108 148 180 214 264 338
#     4   9  18  35  56  79 106 131 178 227 278 322
#     4  10  20  29  45  72 103 138 177 218 258 317
#     4  11  19  30  47  73 109 139 174 219 271 316
#     4   9  18  34  56  80 100 131 173 232 274 320
#     4  10  20  32  51  78 106 138 183 218 266 328
#     4  10  21  34  51  77 105 145 182 218 268 335
#
# _framework density 17.182252999999999
#
# number of rings (size 3 to 8) (size 9 to 14) (size 15 to 20)
#    0.000    1.931    2.759    3.724    1.931    1.103 
#    0.000    0.000    0.000   11.586    0.000   32.828 
#    0.000    0.000    0.000    0.000    0.000    0.000 
#
# Total GULP energy -322880.528139 kJ/mol
# GULP energy per Si atom -5566.905658 kJ/mol
# Density = 1.714315 g / cm^3
# Si number density = 17.182253 Si / 1000 Ang^3
#
#
#
# Elastic Constant Matrix: (Units=GPa)
#
#
# Indices 1 2 3 4 5 6 
#
# 1 53.4975 29.9883 19.6675 0.0000 0.0000 0.0000
# 2 29.9883 71.9597 8.1621 0.0000 0.0000 0.0000
# 3 19.6675 8.1621 67.7440 0.0000 0.0000 0.0000
# 4 0.0000 0.0000 0.0000 17.0753 0.0000 0.0000
# 5 0.0000 0.0000 0.0000 0.0000 22.0895 0.0000
# 6 0.0000 0.0000 0.0000 0.0000 0.0000 19.3427
#
#
#
# Elastic Compliance Matrix: (Units=1/GPa)
#
#
# Indices 1 2 3 4 5 6 
#
# 1 0.026997 -0.010505 -0.006572 0.000000 0.000000 0.000000
# 2 -0.010505 0.018177 0.000860 0.000000 0.000000 0.000000
# 3 -0.006572 0.000860 0.016566 0.000000 0.000000 0.000000
# 4 0.000000 0.000000 0.000000 0.058564 0.000000 0.000000
# 5 0.000000 0.000000 0.000000 0.000000 0.045270 0.000000
# 6 0.000000 0.000000 0.000000 0.000000 0.000000 0.051699
#
#
# Mechanical properties :
#
#
# Convention : Reuss Voigt Hill
#
# Bulk Modulus (GPa) = 34.12379 34.31522 34.21950
# Shear Modulus (GPa) = 19.26947 20.72706 19.99826
#
# Velocity S-wave (km/s) = 3.35248 3.47696 3.41529
# Velocity P-wave (km/s) = 5.90665 6.01113 5.95912
#
# Compressibility (1/GPa) = 0.02930507
#
# Stress axis : x y z
#
# Youngs Moduli (GPa) = 37.04048 55.01418 60.36494
#
# Poissons Ratio (x) = 0.57795 0.39673
# Poissons Ratio (y) = 0.38913 -0.05191
# Poissons Ratio (z) = 0.24344 -0.04731
#
# Static dielectric constant tensor:
#      x y z
#    x 1.589860 0.000000 0.000000 
#    y 0.000000 1.512950 0.000000 
#    z 0.000000 0.000000 1.604130 
# 
# From -- ./inp_files/9245.got.cif
#   From: 2010.05.17/outbox.cif.g08.bks.cpg/sg68_5_cif.got.tgz:9245.got - 2010.06.03 18:57:09.
