data_PCOD9506609
_publ_section_title
;
Structure prediction by ZEFSAII (Michael W. Deem and Ramdas Pophale) SiO2 
 PCOD9506609
Probable space group: C C C A
;
_chemical_formula_sum "Si O2"
_cell_formula_units_Z 120
_cell_length_a 10.518892
_cell_length_b 24.494140
_cell_length_c 22.062255
_cell_angle_alpha 90.000000
_cell_angle_beta 90.000000
_cell_angle_gamma 90.000000
_cell_volume 5684.366769
_symmetry_space_group_name_H-M "C C C A"
_symmetry_group_IT_number 68
_space_group.IT_coordinate_system_code '2'
_symmetry_cell_setting 'orthorhombic'
loop_
_space_group_symop_operation_xyz
x,y,z
-x,1/2-y,z
x,1/2-y,1/2-z
-x,y,1/2-z
-x,-y,-z
x,1/2+y,-z
-x,1/2+y,1/2+z
x,-y,1/2+z
1/2+x,1/2+y,z
1/2-x,-y,z
1/2+x,-y,1/2-z
1/2-x,1/2+y,1/2-z
1/2-x,1/2-y,-z
1/2+x,y,-z
1/2-x,y,1/2+z
1/2+x,1/2-y,1/2+z
loop_
_atom_site_type_symbol
_atom_site_label
_atom_site_fract_x
_atom_site_fract_y
_atom_site_fract_z
Si Si1 0.500000 0.473849 0.250000
Si Si2 0.856596 0.953370 0.832450
Si Si3 0.347967 0.738620 0.556112
Si Si4 0.994441 0.421140 0.060700
Si Si5 0.867311 0.967105 0.048855
Si Si6 0.139955 0.777381 0.189311
Si Si7 0.708921 0.616866 0.754917
Si Si8 0.755374 0.870966 0.609247
O O1 0.525870 0.512514 0.193294
O O2 0.384081 0.434128 0.236497
O O3 0.824011 0.910056 0.780769
O O4 0.880728 0.918639 0.892136
O O5 0.750000 0.000000 0.841580
O O6 0.500000 0.750000 0.543042
O O7 0.250000 0.750000 0.500000
O O8 0.312554 0.769997 0.619957
O O9 0.322808 0.675856 0.575223
O O10 0.043460 0.483678 0.067782
O O11 0.105664 0.379631 0.078846
O O12 0.940447 0.424117 0.993465
O O13 0.807190 0.930441 0.100644
O O14 0.750000 0.000000 0.016991
O O15 0.203252 0.750000 0.250000
O O16 0.139991 0.840031 0.210509
O O17 0.000000 0.750000 0.186463
O O18 0.751141 0.640976 0.819303
#
# Coordination Sequence:
#
# PCOD9506609 Si02
#       8
#     8  16  16  16  16  16  16  16
#     4  10  20  34  57  90 133 160 212 268 322 400
#     4  10  21  35  55  92 133 173 207 266 334 409
#     4  11  27  48  73 100 136 173 227 295 350 411
#     4  10  20  38  58  88 134 169 219 269 323 414
#     4   9  20  37  61  91 122 174 223 271 322 402
#     4  10  20  42  69  97 125 161 229 291 328 390
#     4  11  22  36  64  95 123 172 215 269 342 395
#     4  11  23  38  64  91 125 173 217 273 349 399
#
# _framework density 21.110531999999999
#
# number of rings (size 3 to 8) (size 9 to 14) (size 15 to 20)
#    0.000    1.733    1.333    2.800    3.733    4.800 
#    0.000    0.000    0.000    0.400    0.000    0.000 
#    0.000    0.000    0.000    0.000    0.000    0.000 
#
# Total GULP energy -334153.963983 kJ/mol
# GULP energy per Si atom -5569.232733 kJ/mol
# Density = 2.106248 g / cm^3
# Si number density = 21.110532 Si / 1000 Ang^3
#
#
#
# Elastic Constant Matrix: (Units=GPa)
#
#
# Indices 1 2 3 4 5 6 
#
# 1 52.1907 24.5733 49.9628 0.0000 0.0000 0.0000
# 2 24.5733 84.7909 27.2035 0.0000 0.0000 0.0000
# 3 49.9628 27.2035 127.2016 0.0000 0.0000 0.0000
# 4 0.0000 0.0000 0.0000 11.8543 0.0000 0.0000
# 5 0.0000 0.0000 0.0000 0.0000 15.7006 0.0000
# 6 0.0000 0.0000 0.0000 0.0000 0.0000 23.5864
#
#
#
# Elastic Compliance Matrix: (Units=1/GPa)
#
#
# Indices 1 2 3 4 5 6 
#
# 1 0.033196 -0.005838 -0.011791 0.000000 0.000000 0.000000
# 2 -0.005838 0.013689 -0.000635 0.000000 0.000000 0.000000
# 3 -0.011791 -0.000635 0.012628 0.000000 0.000000 0.000000
# 4 0.000000 0.000000 0.000000 0.084358 0.000000 0.000000
# 5 0.000000 0.000000 0.000000 0.000000 0.063692 0.000000
# 6 0.000000 0.000000 0.000000 0.000000 0.000000 0.042397
#
#
# Mechanical properties :
#
#
# Convention : Reuss Voigt Hill
#
# Bulk Modulus (GPa) = 43.50094 51.96246 47.73170
# Shear Modulus (GPa) = 16.99816 21.05782 19.02799
#
# Velocity S-wave (km/s) = 2.84068 3.16175 3.00551
# Velocity P-wave (km/s) = 5.60449 6.16416 5.89097
#
# Compressibility (1/GPa) = 0.02298801
#
# Stress axis : x y z
#
# Youngs Moduli (GPa) = 30.12380 73.05035 79.18679
#
# Poissons Ratio (x) = 0.42646 0.93365
# Poissons Ratio (y) = 0.17586 0.05025
# Poissons Ratio (z) = 0.35517 0.04635
#
# Static dielectric constant tensor:
#      x y z
#    x 1.803830 0.000000 0.000000 
#    y 0.000000 1.751400 0.000000 
#    z 0.000000 0.000000 1.855690 
# 
# From -- ./inp_files/37872.got.cif
#   From: 2010.05.17/outbox.cif.g08.bks.cpg/sg68_19_cif.got.tgz:37872.got - 2010.06.03 18:57:09.
