data_PCOD9506111
_publ_section_title
;
Structure prediction by ZEFSAII (Michael W. Deem and Ramdas Pophale) SiO2 
 PCOD9506111
Probable space group: C C C A
;
_chemical_formula_sum "Si O2"
_cell_formula_units_Z 56
_cell_length_a 5.051798
_cell_length_b 21.929474
_cell_length_c 25.480837
_cell_angle_alpha 90.000000
_cell_angle_beta 90.000000
_cell_angle_gamma 90.000000
_cell_volume 2822.850519
_symmetry_space_group_name_H-M "C C C A"
_symmetry_group_IT_number 68
_space_group.IT_coordinate_system_code '2'
_symmetry_cell_setting 'orthorhombic'
loop_
_space_group_symop_operation_xyz
x,y,z
-x,1/2-y,z
x,1/2-y,1/2-z
-x,y,1/2-z
-x,-y,-z
x,1/2+y,-z
-x,1/2+y,1/2+z
x,-y,1/2+z
1/2+x,1/2+y,z
1/2-x,-y,z
1/2+x,-y,1/2-z
1/2-x,1/2+y,1/2-z
1/2-x,1/2-y,-z
1/2+x,y,-z
1/2-x,y,1/2+z
1/2+x,1/2-y,1/2+z
loop_
_atom_site_type_symbol
_atom_site_label
_atom_site_fract_x
_atom_site_fract_y
_atom_site_fract_z
Si Si1 0.466120 0.880412 0.312295
Si Si2 0.042614 0.319414 0.858889
Si Si3 0.327046 0.818496 0.520777
Si Si4 0.250000 0.500000 0.286009
O O1 0.500000 0.869539 0.250000
O O2 0.663878 0.836512 0.342201
O O3 0.173871 0.864609 0.333167
O O4 0.596109 0.947852 0.318134
O O5 0.044782 0.320291 0.922089
O O6 0.000000 0.250000 0.841416
O O7 0.250000 0.750000 0.500000
O O8 0.537997 0.847955 0.481453
O O9 0.500000 0.475506 0.250000
#
# Coordination Sequence:
#
# PCOD9506111 Si02
#       4
#    16  16  16   8
#     4  11  24  39  58  86 119 162 199 244 299 353
#     4  12  23  35  58  90 125 154 196 238 310 376
#     4  10  19  34  56  79 114 150 203 243 281 349
#     4  10  20  42  66  80 110 160 224 262 282 346
#
# _framework density 19.838103
#
# number of rings (size 3 to 8) (size 9 to 14) (size 15 to 20)
#    0.000    1.143    2.857    6.857    4.000    3.429 
#    0.000    0.000    0.000    0.000    0.000   20.000 
#    0.000    0.000    0.000    0.000    0.000    0.000 
#
# Total GULP energy -155878.680811 kJ/mol
# GULP energy per Si atom -5567.095743 kJ/mol
# Density = 1.979295 g / cm^3
# Si number density = 19.838103 Si / 1000 Ang^3
#
#
#
# Elastic Constant Matrix: (Units=GPa)
#
#
# Indices 1 2 3 4 5 6 
#
# 1 118.2945 -8.9184 11.1620 0.0000 0.0000 0.0000
# 2 -8.9184 50.5394 5.8705 0.0000 0.0000 0.0000
# 3 11.1620 5.8705 81.7649 0.0000 0.0000 0.0000
# 4 0.0000 0.0000 0.0000 39.9774 0.0000 0.0000
# 5 0.0000 0.0000 0.0000 0.0000 23.1737 0.0000
# 6 0.0000 0.0000 0.0000 0.0000 0.0000 36.1034
#
#
#
# Elastic Compliance Matrix: (Units=1/GPa)
#
#
# Indices 1 2 3 4 5 6 
#
# 1 0.008704 0.001688 -0.001309 0.000000 0.000000 0.000000
# 2 0.001688 0.020280 -0.001687 0.000000 0.000000 0.000000
# 3 -0.001309 -0.001687 0.012530 0.000000 0.000000 0.000000
# 4 0.000000 0.000000 0.000000 0.025014 0.000000 0.000000
# 5 0.000000 0.000000 0.000000 0.000000 0.043152 0.000000
# 6 0.000000 0.000000 0.000000 0.000000 0.000000 0.027698
#
#
# Mechanical properties :
#
#
# Convention : Reuss Voigt Hill
#
# Bulk Modulus (GPa) = 25.70765 29.64744 27.67754
# Shear Modulus (GPa) = 32.68796 36.01654 34.35225
#
# Velocity S-wave (km/s) = 4.06364 4.26552 4.16580
# Velocity P-wave (km/s) = 5.91645 6.26392 6.09266
#
# Compressibility (1/GPa) = 0.03889893
#
# Stress axis : x y z
#
# Youngs Moduli (GPa) = 114.88573 49.30888 79.80832
#
# Poissons Ratio (x) = -0.08324 0.10450
# Poissons Ratio (y) = -0.19394 0.13460
# Poissons Ratio (z) = 0.15044 0.08316
#
# Static dielectric constant tensor:
#      x y z
#    x 1.870740 0.000000 0.000000 
#    y 0.000000 1.802200 0.000000 
#    z 0.000000 0.000000 1.749200 
# 
# From -- ./inp_files/42131.got.cif
#   From: 2010.05.17/outbox.cif.g08.bks.cpg/sg68_22_cif.got.tgz:42131.got - 2010.06.03 18:57:09.
