data_PCOD9506179
_publ_section_title
;
Structure prediction by ZEFSAII (Michael W. Deem and Ramdas Pophale) SiO2 
 PCOD9506179
Probable space group: C C C A
;
_chemical_formula_sum "Si O2"
_cell_formula_units_Z 80
_cell_length_a 27.603203
_cell_length_b 7.971307
_cell_length_c 17.216468
_cell_angle_alpha 90.000000
_cell_angle_beta 90.000000
_cell_angle_gamma 90.000000
_cell_volume 3788.201525
_symmetry_space_group_name_H-M "C C C A"
_symmetry_group_IT_number 68
_space_group.IT_coordinate_system_code '2'
_symmetry_cell_setting 'orthorhombic'
loop_
_space_group_symop_operation_xyz
x,y,z
-x,1/2-y,z
x,1/2-y,1/2-z
-x,y,1/2-z
-x,-y,-z
x,1/2+y,-z
-x,1/2+y,1/2+z
x,-y,1/2+z
1/2+x,1/2+y,z
1/2-x,-y,z
1/2+x,-y,1/2-z
1/2-x,1/2+y,1/2-z
1/2-x,1/2-y,-z
1/2+x,y,-z
1/2-x,y,1/2+z
1/2+x,1/2-y,1/2+z
loop_
_atom_site_type_symbol
_atom_site_label
_atom_site_fract_x
_atom_site_fract_y
_atom_site_fract_z
Si Si1 0.943256 0.271676 0.421282
Si Si2 0.382553 0.460478 0.456698
Si Si3 0.362424 0.144563 0.826113
Si Si4 0.734119 0.694369 0.158288
Si Si5 0.825852 0.848845 0.096814
O O1 0.924585 0.351269 0.501208
O O2 0.915965 0.386436 0.359333
O O3 0.000000 0.250000 0.415841
O O4 0.912998 0.100632 0.412615
O O5 0.352584 0.329543 0.406374
O O6 0.347534 0.544386 0.523370
O O7 0.369395 0.250000 0.750000
O O8 0.320563 0.258659 0.868341
O O9 0.338137 0.962214 0.828124
O O10 0.737322 0.750000 0.250000
O O11 0.750000 0.500000 0.152770
O O12 0.769716 0.803764 0.104426
#
# Coordination Sequence:
#
# PCOD9506179 Si02
#       5
#    16  16  16  16  16
#     4  10  19  35  57  80 109 146 186 232 280 331
#     4   9  20  36  56  84 114 148 189 231 280 339
#     4  10  21  37  55  81 111 144 189 236 282 338
#     4  11  21  36  58  82 111 150 190 233 286 349
#     4  10  20  38  58  83 118 152 187 233 287 346
#
# _framework density 21.118200999999999
#
# number of rings (size 3 to 8) (size 9 to 14) (size 15 to 20)
#    0.000    2.000    0.000    4.800    0.000    0.400 
#    0.000   25.000    0.000    0.000    0.000   19.600 
#    0.000    0.000    0.000    0.000    0.000    0.000 
#
# Total GULP energy -222827.777500 kJ/mol
# GULP energy per Si atom -5570.694437 kJ/mol
# Density = 2.107014 g / cm^3
# Si number density = 21.118201 Si / 1000 Ang^3
#
#
#
# Elastic Constant Matrix: (Units=GPa)
#
#
# Indices 1 2 3 4 5 6 
#
# 1 186.8538 16.1889 25.3778 0.0000 0.0000 0.0000
# 2 16.1889 91.0952 7.6763 0.0000 0.0000 0.0000
# 3 25.3778 7.6763 26.1404 0.0000 0.0000 0.0000
# 4 0.0000 0.0000 0.0000 28.6019 0.0000 0.0000
# 5 0.0000 0.0000 0.0000 0.0000 12.9954 0.0000
# 6 0.0000 0.0000 0.0000 0.0000 0.0000 24.9049
#
#
#
# Elastic Compliance Matrix: (Units=1/GPa)
#
#
# Indices 1 2 3 4 5 6 
#
# 1 0.006197 -0.000609 -0.005838 0.000000 0.000000 0.000000
# 2 -0.000609 0.011316 -0.002731 0.000000 0.000000 0.000000
# 3 -0.005838 -0.002731 0.044724 0.000000 0.000000 0.000000
# 4 0.000000 0.000000 0.000000 0.034963 0.000000 0.000000
# 5 0.000000 0.000000 0.000000 0.000000 0.076950 0.000000
# 6 0.000000 0.000000 0.000000 0.000000 0.000000 0.040153
#
#
# Mechanical properties :
#
#
# Convention : Reuss Voigt Hill
#
# Bulk Modulus (GPa) = 22.78897 44.73062 33.75979
# Shear Modulus (GPa) = 20.21938 30.29021 25.25479
#
# Velocity S-wave (km/s) = 3.09761 3.79135 3.46190
# Velocity P-wave (km/s) = 4.85882 6.35553 5.65690
#
# Compressibility (1/GPa) = 0.04388088
#
# Stress axis : x y z
#
# Youngs Moduli (GPa) = 161.35720 88.37050 22.35917
#
# Poissons Ratio (x) = 0.05386 0.13053
# Poissons Ratio (y) = 0.09834 0.06107
# Poissons Ratio (z) = 0.94195 0.24137
#
# Static dielectric constant tensor:
#      x y z
#    x 1.716420 0.000000 0.000000 
#    y 0.000000 1.810750 0.000000 
#    z 0.000000 0.000000 1.892910 
# 
# From -- ./inp_files/33960.got.cif
#   From: 2010.05.17/outbox.cif.g08.bks.cpg/sg68_17_cif.got.tgz:33960.got - 2010.06.03 18:57:09.
