data_PCOD9506150
_publ_section_title
;
Structure prediction by ZEFSAII (Michael W. Deem and Ramdas Pophale) SiO2 
 PCOD9506150
Probable space group: C C C A
;
_chemical_formula_sum "Si O2"
_cell_formula_units_Z 72
_cell_length_a 24.968347
_cell_length_b 15.372356
_cell_length_c 9.230566
_cell_angle_alpha 90.000000
_cell_angle_beta 90.000000
_cell_angle_gamma 90.000000
_cell_volume 3542.897246
_symmetry_space_group_name_H-M "C C C A"
_symmetry_group_IT_number 68
_space_group.IT_coordinate_system_code '2'
_symmetry_cell_setting 'orthorhombic'
loop_
_space_group_symop_operation_xyz
x,y,z
-x,1/2-y,z
x,1/2-y,1/2-z
-x,y,1/2-z
-x,-y,-z
x,1/2+y,-z
-x,1/2+y,1/2+z
x,-y,1/2+z
1/2+x,1/2+y,z
1/2-x,-y,z
1/2+x,-y,1/2-z
1/2-x,1/2+y,1/2-z
1/2-x,1/2-y,-z
1/2+x,y,-z
1/2-x,y,1/2+z
1/2+x,1/2-y,1/2+z
loop_
_atom_site_type_symbol
_atom_site_label
_atom_site_fract_x
_atom_site_fract_y
_atom_site_fract_z
Si Si1 0.275978 0.094708 0.271572
Si Si2 0.558296 0.928521 0.320024
Si Si3 0.181341 0.345104 0.025292
Si Si4 0.884841 0.250000 0.250000
Si Si5 0.879317 0.522036 0.410790
O O1 0.229665 0.137604 0.364598
O O2 0.326573 0.078087 0.377220
O O3 0.250000 0.000000 0.223631
O O4 0.294602 0.152747 0.135763
O O5 0.500000 0.939020 0.250000
O O6 0.579434 0.834229 0.274795
O O7 0.573876 0.940219 0.487840
O O8 0.595251 0.999623 0.242739
O O9 0.149510 0.267135 0.103422
O O10 0.142984 0.430148 0.029417
#
# Coordination Sequence:
#
# PCOD9506150 Si02
#       5
#    16  16  16   8  16
#     4  10  19  34  61  91 127 164 205 253 306 367
#     4  11  22  41  65  89 116 161 209 263 314 363
#     4  10  21  36  58  89 128 166 197 243 307 381
#     4  10  25  40  58  88 134 160 205 252 322 372
#     4  10  20  37  63  93 118 153 213 258 304 370
#
# _framework density 20.32235
#
# number of rings (size 3 to 8) (size 9 to 14) (size 15 to 20)
#    0.000    1.778    2.222    3.000    6.222    0.889 
#    0.000    0.000    0.000    0.000    5.778    0.000 
#    0.000    0.000    0.000    0.000    0.000    0.000 
#
# Total GULP energy -200794.618963 kJ/mol
# GULP energy per Si atom -5577.628305 kJ/mol
# Density = 2.027610 g / cm^3
# Si number density = 20.322350 Si / 1000 Ang^3
#
#
#
# Elastic Constant Matrix: (Units=GPa)
#
#
# Indices 1 2 3 4 5 6 
#
# 1 89.8403 16.1172 4.3597 0.0000 0.0000 0.0000
# 2 16.1172 15.0284 7.3627 0.0000 0.0000 0.0000
# 3 4.3597 7.3627 81.1868 0.0000 0.0000 0.0000
# 4 0.0000 0.0000 0.0000 13.6831 0.0000 0.0000
# 5 0.0000 0.0000 0.0000 0.0000 10.0860 0.0000
# 6 0.0000 0.0000 0.0000 0.0000 0.0000 14.1861
#
#
#
# Elastic Compliance Matrix: (Units=1/GPa)
#
#
# Indices 1 2 3 4 5 6 
#
# 1 0.013813 -0.015122 0.000630 0.000000 0.000000 0.000000
# 2 -0.015122 0.086190 -0.007004 0.000000 0.000000 0.000000
# 3 0.000630 -0.007004 0.012919 0.000000 0.000000 0.000000
# 4 0.000000 0.000000 0.000000 0.073083 0.000000 0.000000
# 5 0.000000 0.000000 0.000000 0.000000 0.099148 0.000000
# 6 0.000000 0.000000 0.000000 0.000000 0.000000 0.070492
#
#
# Mechanical properties :
#
#
# Convention : Reuss Voigt Hill
#
# Bulk Modulus (GPa) = 14.30045 26.85938 20.57992
# Shear Modulus (GPa) = 11.84981 18.13876 14.99428
#
# Velocity S-wave (km/s) = 2.41735 2.99080 2.71924
# Velocity P-wave (km/s) = 3.85273 5.01716 4.47300
#
# Compressibility (1/GPa) = 0.06992787
#
# Stress axis : x y z
#
# Youngs Moduli (GPa) = 72.39431 11.60224 77.40731
#
# Poissons Ratio (x) = 0.17545 -0.04874
# Poissons Ratio (y) = 1.09478 0.54219
# Poissons Ratio (z) = -0.04558 0.08127
#
# Static dielectric constant tensor:
#      x y z
#    x 1.719950 0.000000 0.000000 
#    y 0.000000 1.755110 0.000000 
#    z 0.000000 0.000000 1.755150 
# 
# From -- ./inp_files/6077.got.cif
#   From: 2010.05.17/outbox.cif.g08.bks.cpg/sg68_4_cif.got.tgz:6077.got - 2010.06.03 18:57:09.
