data_PCOD9506852
_publ_section_title
;
Structure prediction by ZEFSAII (Michael W. Deem and Ramdas Pophale) SiO2 
 PCOD9506852
Probable space group: C C C A
;
_chemical_formula_sum "Si O2"
_cell_formula_units_Z 72
_cell_length_a 19.748417
_cell_length_b 10.238202
_cell_length_c 13.491846
_cell_angle_alpha 90.000000
_cell_angle_beta 90.000000
_cell_angle_gamma 90.000000
_cell_volume 2727.893169
_symmetry_space_group_name_H-M "C C C A"
_symmetry_group_IT_number 68
_space_group.IT_coordinate_system_code '2'
_symmetry_cell_setting 'orthorhombic'
loop_
_space_group_symop_operation_xyz
x,y,z
-x,1/2-y,z
x,1/2-y,1/2-z
-x,y,1/2-z
-x,-y,-z
x,1/2+y,-z
-x,1/2+y,1/2+z
x,-y,1/2+z
1/2+x,1/2+y,z
1/2-x,-y,z
1/2+x,-y,1/2-z
1/2-x,1/2+y,1/2-z
1/2-x,1/2-y,-z
1/2+x,y,-z
1/2-x,y,1/2+z
1/2+x,1/2-y,1/2+z
loop_
_atom_site_type_symbol
_atom_site_label
_atom_site_fract_x
_atom_site_fract_y
_atom_site_fract_z
Si Si1 0.856435 0.642619 0.360104
Si Si2 0.791587 0.132290 0.445286
Si Si3 0.733517 0.750000 0.250000
Si Si4 0.940460 0.646375 0.056781
Si Si5 0.967990 0.062242 0.150937
O O1 0.847573 0.597221 0.473993
O O2 0.785846 0.648251 0.302113
O O3 0.880238 0.792657 0.377968
O O4 0.913012 0.547696 0.317446
O O5 0.750000 0.250000 0.500000
O O6 0.809032 0.184984 0.337058
O O7 0.750000 0.000000 0.432635
O O8 0.000000 0.750000 0.075773
O O9 0.969574 0.510952 0.096200
O O10 0.933057 0.644752 0.937284
O O11 0.000000 0.118673 0.250000
#
# Coordination Sequence:
#
# PCOD9506852 Si02
#       5
#    16  16   8  16  16
#     4  10  21  39  66  88 127 177 214 279 348 405
#     4  10  24  44  67  95 139 180 233 292 347 407
#     4  10  22  40  63  94 127 168 238 276 326 412
#     4   9  20  38  58  88 125 160 202 264 337 405
#     4  10  20  36  63  92 124 162 214 271 331 423
#
# _framework density 26.393996000000001
#
# number of rings (size 3 to 8) (size 9 to 14) (size 15 to 20)
#    0.000    2.222    0.000    1.333    6.222    7.111 
#    4.000    0.000    0.000    0.000    0.000    0.000 
#    0.000    0.000    0.000    0.000    0.000    0.000 
#
# Total GULP energy -201308.458945 kJ/mol
# GULP energy per Si atom -5591.901637 kJ/mol
# Density = 2.633392 g / cm^3
# Si number density = 26.393996 Si / 1000 Ang^3
#
#
#
# Elastic Constant Matrix: (Units=GPa)
#
#
# Indices 1 2 3 4 5 6 
#
# 1 52.3851 15.0036 23.8562 0.0000 0.0000 0.0000
# 2 15.0036 86.4560 34.3445 0.0000 0.0000 0.0000
# 3 23.8562 34.3445 155.7529 0.0000 0.0000 0.0000
# 4 0.0000 0.0000 0.0000 22.7512 0.0000 0.0000
# 5 0.0000 0.0000 0.0000 0.0000 47.7361 0.0000
# 6 0.0000 0.0000 0.0000 0.0000 0.0000 16.6177
#
#
#
# Elastic Compliance Matrix: (Units=1/GPa)
#
#
# Indices 1 2 3 4 5 6 
#
# 1 0.021040 -0.002599 -0.002650 0.000000 0.000000 0.000000
# 2 -0.002599 0.012998 -0.002468 0.000000 0.000000 0.000000
# 3 -0.002650 -0.002468 0.007370 0.000000 0.000000 0.000000
# 4 0.000000 0.000000 0.000000 0.043954 0.000000 0.000000
# 5 0.000000 0.000000 0.000000 0.000000 0.020949 0.000000
# 6 0.000000 0.000000 0.000000 0.000000 0.000000 0.060177
#
#
# Mechanical properties :
#
#
# Convention : Reuss Voigt Hill
#
# Bulk Modulus (GPa) = 38.49735 49.00031 43.74883
# Shear Modulus (GPa) = 26.23578 32.18032 29.20805
#
# Velocity S-wave (km/s) = 3.15621 3.49553 3.33019
# Velocity P-wave (km/s) = 5.28200 5.90736 5.60341
#
# Compressibility (1/GPa) = 0.02597581
#
# Stress axis : x y z
#
# Youngs Moduli (GPa) = 47.52769 76.93483 135.67612
#
# Poissons Ratio (x) = 0.19994 0.35949
# Poissons Ratio (y) = 0.12351 0.33486
# Poissons Ratio (z) = 0.12593 0.18988
#
# Static dielectric constant tensor:
#      x y z
#    x 2.078760 0.000000 0.000000 
#    y 0.000000 2.095690 0.000000 
#    z 0.000000 0.000000 2.120820 
# 
# From -- ./inp_files/11840.got.cif
#   From: 2010.05.17/outbox.cif.g08.bks.cpg/sg68_6_cif.got.tgz:11840.got - 2010.06.03 18:57:09.
