data_PCOD9506651
_publ_section_title
;
Structure prediction by ZEFSAII (Michael W. Deem and Ramdas Pophale) SiO2 
 PCOD9506651
Probable space group: C C C A
;
_chemical_formula_sum "Si O2"
_cell_formula_units_Z 80
_cell_length_a 23.781291
_cell_length_b 8.420219
_cell_length_c 20.286241
_cell_angle_alpha 90.000000
_cell_angle_beta 90.000000
_cell_angle_gamma 90.000000
_cell_volume 4062.191517
_symmetry_space_group_name_H-M "C C C A"
_symmetry_group_IT_number 68
_space_group.IT_coordinate_system_code '2'
_symmetry_cell_setting 'orthorhombic'
loop_
_space_group_symop_operation_xyz
x,y,z
-x,1/2-y,z
x,1/2-y,1/2-z
-x,y,1/2-z
-x,-y,-z
x,1/2+y,-z
-x,1/2+y,1/2+z
x,-y,1/2+z
1/2+x,1/2+y,z
1/2-x,-y,z
1/2+x,-y,1/2-z
1/2-x,1/2+y,1/2-z
1/2-x,1/2-y,-z
1/2+x,y,-z
1/2-x,y,1/2+z
1/2+x,1/2-y,1/2+z
loop_
_atom_site_type_symbol
_atom_site_label
_atom_site_fract_x
_atom_site_fract_y
_atom_site_fract_z
Si Si1 0.676942 0.689094 0.681249
Si Si2 0.691369 0.312059 0.680510
Si Si3 0.708518 0.141371 0.957970
Si Si4 0.114174 0.152862 0.941407
Si Si5 0.040752 0.378064 0.037949
O O1 0.652150 0.750000 0.750000
O O2 0.679567 0.499516 0.682939
O O3 0.742687 0.739160 0.680088
O O4 0.644293 0.758579 0.618830
O O5 0.667497 0.250000 0.750000
O O6 0.677939 0.274521 0.603992
O O7 0.750000 0.000000 0.934419
O O8 0.750000 0.250000 0.000000
O O9 0.660875 0.086201 0.008000
O O10 0.078388 0.999152 0.920018
O O11 0.077188 0.278515 0.984133
O O12 0.000000 0.250000 0.072613
O O13 0.000000 0.500000 0.000000
#
# Coordination Sequence:
#
# PCOD9506651 Si02
#       5
#    16  16  16  16  16
#     4  10  20  35  52  78 113 156 200 228 281 349
#     4  10  20  36  49  72 119 165 197 229 268 338
#     4  12  21  34  51  84 120 150 189 231 279 345
#     4  11  20  36  59  85 117 152 194 246 298 354
#     4   9  20  37  59  84 108 141 189 252 311 351
#
# _framework density 19.693802000000002
#
# number of rings (size 3 to 8) (size 9 to 14) (size 15 to 20)
#    0.000    1.600    4.000    2.400    0.000    3.200 
#    0.000    0.000    0.000    5.400    0.000    9.800 
#    0.000    0.000    0.000    0.000    0.000    0.000 
#
# Total GULP energy -222757.821204 kJ/mol
# GULP energy per Si atom -5568.945530 kJ/mol
# Density = 1.964898 g / cm^3
# Si number density = 19.693802 Si / 1000 Ang^3
#
#
#
# Elastic Constant Matrix: (Units=GPa)
#
#
# Indices 1 2 3 4 5 6 
#
# 1 59.9910 36.0893 19.6865 0.0000 0.0000 0.0000
# 2 36.0893 83.1039 32.3375 0.0000 0.0000 0.0000
# 3 19.6865 32.3375 130.3864 0.0000 0.0000 0.0000
# 4 0.0000 0.0000 0.0000 31.6740 0.0000 0.0000
# 5 0.0000 0.0000 0.0000 0.0000 6.5594 0.0000
# 6 0.0000 0.0000 0.0000 0.0000 0.0000 39.3356
#
#
#
# Elastic Compliance Matrix: (Units=1/GPa)
#
#
# Indices 1 2 3 4 5 6 
#
# 1 0.022702 -0.009436 -0.001088 0.000000 0.000000 0.000000
# 2 -0.009436 0.017240 -0.002851 0.000000 0.000000 0.000000
# 3 -0.001088 -0.002851 0.008541 0.000000 0.000000 0.000000
# 4 0.000000 0.000000 0.000000 0.031572 0.000000 0.000000
# 5 0.000000 0.000000 0.000000 0.000000 0.152453 0.000000
# 6 0.000000 0.000000 0.000000 0.000000 0.000000 0.025422
#
#
# Mechanical properties :
#
#
# Convention : Reuss Voigt Hill
#
# Bulk Modulus (GPa) = 46.00958 49.96754 47.98856
# Shear Modulus (GPa) = 17.12775 27.87167 22.49971
#
# Velocity S-wave (km/s) = 2.95227 3.76606 3.38372
# Velocity P-wave (km/s) = 5.91899 6.65870 6.29971
#
# Compressibility (1/GPa) = 0.02173460
#
# Stress axis : x y z
#
# Youngs Moduli (GPa) = 44.04826 58.00402 117.08462
#
# Poissons Ratio (x) = 0.54731 0.12734
# Poissons Ratio (y) = 0.41563 0.33382
# Poissons Ratio (z) = 0.04791 0.16538
#
# Static dielectric constant tensor:
#      x y z
#    x 1.735540 0.000000 0.000000 
#    y 0.000000 1.716570 0.000000 
#    z 0.000000 0.000000 1.785790 
# 
# From -- ./inp_files/33942.got.cif
#   From: 2010.05.17/outbox.cif.g08.bks.cpg/sg68_17_cif.got.tgz:33942.got - 2010.06.03 18:57:09.
