data_PCOD9506130
_publ_section_title
;
Structure prediction by ZEFSAII (Michael W. Deem and Ramdas Pophale) SiO2 
 PCOD9506130
Probable space group: C C C A
;
_chemical_formula_sum "Si O2"
_cell_formula_units_Z 112
_cell_length_a 14.509706
_cell_length_b 15.188904
_cell_length_c 22.975517
_cell_angle_alpha 90.000000
_cell_angle_beta 90.000000
_cell_angle_gamma 90.000000
_cell_volume 5063.494501
_symmetry_space_group_name_H-M "C C C A"
_symmetry_group_IT_number 68
_space_group.IT_coordinate_system_code '2'
_symmetry_cell_setting 'orthorhombic'
loop_
_space_group_symop_operation_xyz
x,y,z
-x,1/2-y,z
x,1/2-y,1/2-z
-x,y,1/2-z
-x,-y,-z
x,1/2+y,-z
-x,1/2+y,1/2+z
x,-y,1/2+z
1/2+x,1/2+y,z
1/2-x,-y,z
1/2+x,-y,1/2-z
1/2-x,1/2+y,1/2-z
1/2-x,1/2-y,-z
1/2+x,y,-z
1/2-x,y,1/2+z
1/2+x,1/2-y,1/2+z
loop_
_atom_site_type_symbol
_atom_site_label
_atom_site_fract_x
_atom_site_fract_y
_atom_site_fract_z
Si Si1 0.895659 0.783719 0.904649
Si Si2 0.236892 0.604455 0.205677
Si Si3 0.285983 0.820808 0.919252
Si Si4 0.915350 0.431272 0.706240
Si Si5 0.565758 0.820061 0.905532
Si Si6 0.934505 0.412393 0.994553
Si Si7 0.597270 0.139302 0.779333
O O1 0.820477 0.711124 0.926611
O O2 0.877188 0.810525 0.838078
O O3 0.000000 0.750000 0.906563
O O4 0.901379 0.871033 0.944672
O O5 0.250000 0.500000 0.194018
O O6 0.202840 0.648620 0.147204
O O7 0.170106 0.611488 0.260564
O O8 0.330654 0.646660 0.227357
O O9 0.343338 0.730261 0.925826
O O10 0.339132 0.897397 0.956341
O O11 0.920920 0.396325 0.640981
O O12 0.904141 0.536002 0.704404
O O13 0.000000 0.413298 0.750000
O O14 0.500000 0.750000 0.873293
O O15 0.506095 0.850054 0.960367
O O16 0.000000 0.500000 0.000000
O O17 0.500000 0.159685 0.750000
#
# Coordination Sequence:
#
# PCOD9506130 Si02
#       7
#    16  16  16  16  16  16  16
#     4  12  25  42  66  94 131 174 222 280 338 399
#     4  10  22  39  61  92 129 169 216 265 323 400
#     4  11  24  42  66  96 132 168 216 278 338 400
#     4  10  19  34  58  88 125 168 213 265 328 399
#     4  10  21  38  61  91 127 163 211 273 333 394
#     4  11  25  46  69  94 127 170 221 273 336 414
#     4  10  22  39  60  90 129 174 223 271 325 396
#
# _framework density 22.119111
#
# number of rings (size 3 to 8) (size 9 to 14) (size 15 to 20)
#    0.000    1.429    0.000    6.000    0.000    8.571 
#    0.000    3.571    0.000    0.000    0.000    0.000 
#    0.000    0.000    0.000    0.000    0.000    0.000 
#
# Total GULP energy -312506.673881 kJ/mol
# GULP energy per Si atom -5580.476319 kJ/mol
# Density = 2.206877 g / cm^3
# Si number density = 22.119111 Si / 1000 Ang^3
#
#
#
# Elastic Constant Matrix: (Units=GPa)
#
#
# Indices 1 2 3 4 5 6 
#
# 1 126.8040 35.0422 20.6459 0.0000 0.0000 0.0000
# 2 35.0422 87.1670 49.7624 0.0000 0.0000 0.0000
# 3 20.6459 49.7624 114.4148 0.0000 0.0000 0.0000
# 4 0.0000 0.0000 0.0000 28.7736 0.0000 0.0000
# 5 0.0000 0.0000 0.0000 0.0000 41.5433 0.0000
# 6 0.0000 0.0000 0.0000 0.0000 0.0000 -147.9839
#
#
#
# Elastic Compliance Matrix: (Units=1/GPa)
#
#
# Indices 1 2 3 4 5 6 
#
# 1 0.008872 -0.003529 -0.000066 0.000000 0.000000 0.000000
# 2 -0.003529 0.016665 -0.006611 0.000000 0.000000 0.000000
# 3 -0.000066 -0.006611 0.011628 0.000000 0.000000 0.000000
# 4 0.000000 0.000000 0.000000 0.034754 0.000000 0.000000
# 5 0.000000 0.000000 0.000000 0.000000 0.024071 0.000000
# 6 0.000000 0.000000 0.000000 0.000000 0.000000 -0.006757
#
#
# Mechanical properties :
#
#
# Convention : Reuss Voigt Hill
#
# Bulk Modulus (GPa) = 59.69439 59.92076 59.80758
# Shear Modulus (GPa) = 43.39151 -0.67103 21.36024
#
# Velocity S-wave (km/s) = 4.43394 -0.55139 3.11093
# Velocity P-wave (km/s) = 7.29790 5.17141 6.32467
#
# Compressibility (1/GPa) = 0.01675199
#
# Stress axis : x y z
#
# Youngs Moduli (GPa) = 112.71182 60.00494 86.00252
#
# Poissons Ratio (x) = 0.21176 0.00568
# Poissons Ratio (y) = 0.39776 0.56860
# Poissons Ratio (z) = 0.00745 0.39672
#
# Static dielectric constant tensor:
#      x y z
#    x 1.798720 0.000000 0.000000 
#    y 0.000000 1.846170 0.000000 
#    z 0.000000 0.000000 1.743410 
# 
# From -- ./inp_files/45554.got.cif
#   From: 2010.05.17/outbox.cif.g08.bks.cpg/sg68_23_cif.got.tgz:45554.got - 2010.06.03 18:57:09.
