data_PCOD9506047
_publ_section_title
;
Structure prediction by ZEFSAII (Michael W. Deem and Ramdas Pophale) SiO2 
 PCOD9506047
Probable space group: C C C A
;
_chemical_formula_sum "Si O2"
_cell_formula_units_Z 64
_cell_length_a 5.323521
_cell_length_b 33.600509
_cell_length_c 17.922848
_cell_angle_alpha 90.000000
_cell_angle_beta 90.000000
_cell_angle_gamma 90.000000
_cell_volume 3205.913864
_symmetry_space_group_name_H-M "C C C A"
_symmetry_group_IT_number 68
_space_group.IT_coordinate_system_code '2'
_symmetry_cell_setting 'orthorhombic'
loop_
_space_group_symop_operation_xyz
x,y,z
-x,1/2-y,z
x,1/2-y,1/2-z
-x,y,1/2-z
-x,-y,-z
x,1/2+y,-z
-x,1/2+y,1/2+z
x,-y,1/2+z
1/2+x,1/2+y,z
1/2-x,-y,z
1/2+x,-y,1/2-z
1/2-x,1/2+y,1/2-z
1/2-x,1/2-y,-z
1/2+x,y,-z
1/2-x,y,1/2+z
1/2+x,1/2-y,1/2+z
loop_
_atom_site_type_symbol
_atom_site_label
_atom_site_fract_x
_atom_site_fract_y
_atom_site_fract_z
Si Si1 0.500819 0.337040 0.661449
Si Si2 0.812104 0.794471 0.970686
Si Si3 0.001235 0.976528 0.341254
Si Si4 0.498135 0.114336 0.159751
O O1 0.500000 0.328717 0.750000
O O2 0.574717 0.298846 0.611894
O O3 0.238592 0.358231 0.641517
O O4 0.728376 0.366898 0.642180
O O5 0.750000 0.750000 0.000000
O O6 0.536240 0.813143 0.980226
O O7 0.000000 0.975707 0.250000
O O8 0.013533 0.930935 0.367815
O O9 0.750000 0.000000 0.363983
O O10 0.250000 0.000000 0.364351
O O11 0.500000 0.112227 0.250000
#
# Coordination Sequence:
#
# PCOD9506047 Si02
#       4
#    16  16  16  16
#     4  10  19  33  54  78 108 142 180 224 271 323
#     4  10  21  38  58  80 108 141 174 221 275 325
#     4   9  15  23  37  61 100 144 176 208 262 322
#     4   9  17  28  45  73 106 141 180 223 267 316
#
# _framework density 19.963104999999999
#
# number of rings (size 3 to 8) (size 9 to 14) (size 15 to 20)
#    0.000    2.500    0.000    3.000    0.000    6.000 
#    0.000    2.500    0.000    6.000    0.000    0.000 
#    0.000   70.000    0.000    0.000    0.000    0.000 
#
# Total GULP energy -178135.935804 kJ/mol
# GULP energy per Si atom -5566.747994 kJ/mol
# Density = 1.991767 g / cm^3
# Si number density = 19.963105 Si / 1000 Ang^3
#
#
#
# Elastic Constant Matrix: (Units=GPa)
#
#
# Indices 1 2 3 4 5 6 
#
# 1 203.9743 57.4518 50.4220 0.0000 0.0000 0.0000
# 2 57.4518 99.5189 55.7006 0.0000 0.0000 0.0000
# 3 50.4220 55.7006 58.4599 0.0000 0.0000 0.0000
# 4 0.0000 0.0000 0.0000 6.1521 0.0000 0.0000
# 5 0.0000 0.0000 0.0000 0.0000 23.3210 0.0000
# 6 0.0000 0.0000 0.0000 0.0000 0.0000 29.6913
#
#
#
# Elastic Compliance Matrix: (Units=1/GPa)
#
#
# Indices 1 2 3 4 5 6 
#
# 1 0.006306 -0.001278 -0.004222 0.000000 0.000000 0.000000
# 2 -0.001278 0.021789 -0.019658 0.000000 0.000000 0.000000
# 3 -0.004222 -0.019658 0.039477 0.000000 0.000000 0.000000
# 4 0.000000 0.000000 0.000000 0.162547 0.000000 0.000000
# 5 0.000000 0.000000 0.000000 0.000000 0.042880 0.000000
# 6 0.000000 0.000000 0.000000 0.000000 0.000000 0.033680
#
#
# Mechanical properties :
#
#
# Convention : Reuss Voigt Hill
#
# Bulk Modulus (GPa) = 57.94779 76.56687 67.25733
# Shear Modulus (GPa) = 13.78376 25.05812 19.42094
#
# Velocity S-wave (km/s) = 2.63051 3.54675 3.12242
# Velocity P-wave (km/s) = 6.19004 7.43035 6.83837
#
# Compressibility (1/GPa) = 0.01725691
#
# Stress axis : x y z
#
# Youngs Moduli (GPa) = 158.57870 45.89562 25.33093
#
# Poissons Ratio (x) = 0.05863 0.10694
# Poissons Ratio (y) = 0.20259 0.49796
# Poissons Ratio (z) = 0.66948 0.90223
#
# Static dielectric constant tensor:
#      x y z
#    x 1.799240 0.000000 0.000000 
#    y 0.000000 1.793500 0.000000 
#    z 0.000000 0.000000 1.739900 
# 
# From -- ./inp_files/35044.got.cif
#   From: 2010.05.17/outbox.cif.g08.bks.cpg/sg68_18_cif.got.tgz:35044.got - 2010.06.03 18:57:09.
