data_PCOD9506541
_publ_section_title
;
Structure prediction by ZEFSAII (Michael W. Deem and Ramdas Pophale) SiO2 
 PCOD9506541
Probable space group: C C C A
;
_chemical_formula_sum "Si O2"
_cell_formula_units_Z 88
_cell_length_a 9.545280
_cell_length_b 23.558393
_cell_length_c 21.408423
_cell_angle_alpha 90.000000
_cell_angle_beta 90.000000
_cell_angle_gamma 90.000000
_cell_volume 4814.143284
_symmetry_space_group_name_H-M "C C C A"
_symmetry_group_IT_number 68
_space_group.IT_coordinate_system_code '2'
_symmetry_cell_setting 'orthorhombic'
loop_
_space_group_symop_operation_xyz
x,y,z
-x,1/2-y,z
x,1/2-y,1/2-z
-x,y,1/2-z
-x,-y,-z
x,1/2+y,-z
-x,1/2+y,1/2+z
x,-y,1/2+z
1/2+x,1/2+y,z
1/2-x,-y,z
1/2+x,-y,1/2-z
1/2-x,1/2+y,1/2-z
1/2-x,1/2-y,-z
1/2+x,y,-z
1/2-x,y,1/2+z
1/2+x,1/2-y,1/2+z
loop_
_atom_site_type_symbol
_atom_site_label
_atom_site_fract_x
_atom_site_fract_y
_atom_site_fract_z
Si Si1 0.647187 0.422574 0.739654
Si Si2 0.000000 0.750000 0.750000
Si Si3 0.250000 0.000000 0.839609
Si Si4 0.250000 0.000000 0.630019
Si Si5 0.932186 0.441071 0.524816
Si Si6 0.254021 0.179020 0.308669
Si Si7 0.703363 0.396905 0.426477
Si Si8 0.500000 0.250000 0.250000
O O1 0.500000 0.392675 0.750000
O O2 0.642351 0.470933 0.792813
O O3 0.675748 0.454155 0.675354
O O4 0.757063 0.375213 0.761150
O O5 0.887162 0.784978 0.707002
O O6 0.186152 0.048071 0.882194
O O7 0.349055 0.962557 0.585684
O O8 0.824769 0.414144 0.475008
O O9 0.000000 0.500000 0.500000
O O10 0.054512 0.395769 0.538844
O O11 0.258057 0.153616 0.378931
O O12 0.393285 0.214278 0.293153
#
# Coordination Sequence:
#
# PCOD9506541 Si02
#       8
#    16   4   8   8  16  16  16   4
#     4  10  20  33  55  91 120 157 193 233 297 353
#     4  10  20  46  68  94 104 142 204 258 338 340
#     4   9  17  32  50  82 129 153 184 232 274 347
#     4  11  23  32  56  88 135 169 190 228 276 363
#     4  12  21  36  54  85 128 174 197 225 268 344
#     4  10  23  40  67  89 114 149 194 264 307 364
#     4  11  22  37  58  86 124 164 200 231 285 350
#     4  10  24  46  60  90 112 142 196 262 342 340
#
# _framework density 18.279472999999999
#
# number of rings (size 3 to 8) (size 9 to 14) (size 15 to 20)
#    0.000    1.455    4.545    1.091    5.091    0.000 
#    3.273    0.000    0.000    3.273    0.000    0.000 
#    0.000    0.000    0.000    0.000    0.000    0.000 
#
# Total GULP energy -245033.910221 kJ/mol
# GULP energy per Si atom -5568.952505 kJ/mol
# Density = 1.823787 g / cm^3
# Si number density = 18.279473 Si / 1000 Ang^3
#
#
#
# Elastic Constant Matrix: (Units=GPa)
#
#
# Indices 1 2 3 4 5 6 
#
# 1 143.5353 60.1487 76.5503 0.0000 0.0000 0.0000
# 2 60.1487 77.5443 56.5955 0.0000 0.0000 0.0000
# 3 76.5503 56.5955 129.2144 0.0000 0.0000 0.0000
# 4 0.0000 0.0000 0.0000 136.3139 0.0000 0.0000
# 5 0.0000 0.0000 0.0000 0.0000 8.3738 0.0000
# 6 0.0000 0.0000 0.0000 0.0000 0.0000 28.4904
#
#
#
# Elastic Compliance Matrix: (Units=1/GPa)
#
#
# Indices 1 2 3 4 5 6 
#
# 1 0.011799 -0.005954 -0.004382 0.000000 0.000000 0.000000
# 2 -0.005954 0.021959 -0.006091 0.000000 0.000000 0.000000
# 3 -0.004382 -0.006091 0.013003 0.000000 0.000000 0.000000
# 4 0.000000 0.000000 0.000000 0.007336 0.000000 0.000000
# 5 0.000000 0.000000 0.000000 0.000000 0.119421 0.000000
# 6 0.000000 0.000000 0.000000 0.000000 0.000000 0.035100
#
#
# Mechanical properties :
#
#
# Convention : Reuss Voigt Hill
#
# Bulk Modulus (GPa) = 71.90384 81.87589 76.88987
# Shear Modulus (GPa) = 20.31627 45.10225 32.70926
#
# Velocity S-wave (km/s) = 3.33742 4.97265 4.23472
# Velocity P-wave (km/s) = 7.36698 8.82372 8.12805
#
# Compressibility (1/GPa) = 0.01390746
#
# Stress axis : x y z
#
# Youngs Moduli (GPa) = 84.75264 45.53843 76.90413
#
# Poissons Ratio (x) = 0.27112 0.33703
# Poissons Ratio (y) = 0.50459 0.46843
# Poissons Ratio (z) = 0.37142 0.27738
#
# Static dielectric constant tensor:
#      x y z
#    x 1.294790 0.000000 0.000000 
#    y 0.000000 1.500330 0.000000 
#    z 0.000000 0.000000 1.637210 
# 
# From -- ./inp_files/36356.got.cif
#   From: 2010.05.17/outbox.cif.g08.bks.cpg/sg68_19_cif.got.tgz:36356.got - 2010.06.03 18:57:09.
