data_PCOD9506914
_publ_section_title
;
Structure prediction by ZEFSAII (Michael W. Deem and Ramdas Pophale) SiO2 
 PCOD9506914
Probable space group: C C C A
;
_chemical_formula_sum "Si O2"
_cell_formula_units_Z 88
_cell_length_a 22.131989
_cell_length_b 10.089292
_cell_length_c 20.436734
_cell_angle_alpha 90.000000
_cell_angle_beta 90.000000
_cell_angle_gamma 90.000000
_cell_volume 4563.442990
_symmetry_space_group_name_H-M "C C C A"
_symmetry_group_IT_number 68
_space_group.IT_coordinate_system_code '2'
_symmetry_cell_setting 'orthorhombic'
loop_
_space_group_symop_operation_xyz
x,y,z
-x,1/2-y,z
x,1/2-y,1/2-z
-x,y,1/2-z
-x,-y,-z
x,1/2+y,-z
-x,1/2+y,1/2+z
x,-y,1/2+z
1/2+x,1/2+y,z
1/2-x,-y,z
1/2+x,-y,1/2-z
1/2-x,1/2+y,1/2-z
1/2-x,1/2-y,-z
1/2+x,y,-z
1/2-x,y,1/2+z
1/2+x,1/2-y,1/2+z
loop_
_atom_site_type_symbol
_atom_site_label
_atom_site_fract_x
_atom_site_fract_y
_atom_site_fract_z
Si Si1 0.696581 0.386323 0.895749
Si Si2 0.480635 0.401298 0.444515
Si Si3 0.769382 0.853278 0.346518
Si Si4 0.906143 0.581616 0.367969
Si Si5 0.148284 0.807570 0.038409
Si Si6 0.130612 0.250000 0.750000
O O1 0.750000 0.500000 0.905947
O O2 0.723290 0.270539 0.849294
O O3 0.639144 0.459041 0.863759
O O4 0.669542 0.321916 0.963239
O O5 0.500000 0.250000 0.459991
O O6 0.500000 0.500000 0.500000
O O7 0.523962 0.441608 0.384994
O O8 0.408455 0.401285 0.443380
O O9 0.794523 0.851419 0.420121
O O10 0.824606 0.825545 0.298533
O O11 0.750000 0.000000 0.330027
O O12 0.875254 0.668906 0.428167
O O13 0.905758 0.660197 0.300158
#
# Coordination Sequence:
#
# PCOD9506914 Si02
#       6
#    16  16  16  16  16   8
#     4  12  21  36  60  86 124 158 196 255 322 376
#     4  10  20  37  59  87 122 158 202 258 320 379
#     4  11  25  36  58  87 120 162 202 255 307 377
#     4  10  22  39  60  89 121 166 207 257 314 375
#     4  10  21  36  58  88 122 151 201 253 316 375
#     4  10  22  42  59  86 122 161 216 244 294 388
#
# _framework density 19.283685999999999
#
# number of rings (size 3 to 8) (size 9 to 14) (size 15 to 20)
#    0.000    1.455    5.455    1.091    5.091    0.000 
#    0.000   11.364    0.000    0.000    0.000    0.000 
#    0.000    0.000    0.000    0.000    0.000    0.000 
#
# Total GULP energy -244938.792339 kJ/mol
# GULP energy per Si atom -5566.790735 kJ/mol
# Density = 1.923980 g / cm^3
# Si number density = 19.283686 Si / 1000 Ang^3
#
#
#
# Elastic Constant Matrix: (Units=GPa)
#
#
# Indices 1 2 3 4 5 6 
#
# 1 82.3598 32.0551 8.7381 0.0000 0.0000 0.0000
# 2 32.0551 59.3777 8.6661 0.0000 0.0000 0.0000
# 3 8.7381 8.6661 60.4410 0.0000 0.0000 0.0000
# 4 0.0000 0.0000 0.0000 14.5820 0.0000 0.0000
# 5 0.0000 0.0000 0.0000 0.0000 29.7816 0.0000
# 6 0.0000 0.0000 0.0000 0.0000 0.0000 20.3854
#
#
#
# Elastic Compliance Matrix: (Units=1/GPa)
#
#
# Indices 1 2 3 4 5 6 
#
# 1 0.015438 -0.008179 -0.001059 0.000000 0.000000 0.000000
# 2 -0.008179 0.021535 -0.001905 0.000000 0.000000 0.000000
# 3 -0.001059 -0.001905 0.016971 0.000000 0.000000 0.000000
# 4 0.000000 0.000000 0.000000 0.068578 0.000000 0.000000
# 5 0.000000 0.000000 0.000000 0.000000 0.033578 0.000000
# 6 0.000000 0.000000 0.000000 0.000000 0.000000 0.049055
#
#
# Mechanical properties :
#
#
# Convention : Reuss Voigt Hill
#
# Bulk Modulus (GPa) = 31.58898 33.45525 32.52211
# Shear Modulus (GPa) = 21.00890 23.13106 22.06998
#
# Velocity S-wave (km/s) = 3.30429 3.46716 3.38670
# Velocity P-wave (km/s) = 5.56547 5.78056 5.67404
#
# Compressibility (1/GPa) = 0.03165661
#
# Stress axis : x y z
#
# Youngs Moduli (GPa) = 64.77637 46.43584 58.92282
#
# Poissons Ratio (x) = 0.37982 0.06240
# Poissons Ratio (y) = 0.52984 0.11226
# Poissons Ratio (z) = 0.06860 0.08847
#
# Static dielectric constant tensor:
#      x y z
#    x 1.697190 0.000000 0.000000 
#    y 0.000000 1.566200 0.000000 
#    z 0.000000 0.000000 1.761400 
# 
# From -- ./inp_files/36275.got.cif
#   From: 2010.05.17/outbox.cif.g08.bks.cpg/sg68_19_cif.got.tgz:36275.got - 2010.06.03 18:57:09.
