data_PCOD9506966
_publ_section_title
;
Structure prediction by ZEFSAII (Michael W. Deem and Ramdas Pophale) SiO2 
 PCOD9506966
Probable space group: C C C A
;
_chemical_formula_sum "Si O2"
_cell_formula_units_Z 104
_cell_length_a 8.458216
_cell_length_b 21.757030
_cell_length_c 29.793366
_cell_angle_alpha 90.000000
_cell_angle_beta 90.000000
_cell_angle_gamma 90.000000
_cell_volume 5482.743820
_symmetry_space_group_name_H-M "C C C A"
_symmetry_group_IT_number 68
_space_group.IT_coordinate_system_code '2'
_symmetry_cell_setting 'orthorhombic'
loop_
_space_group_symop_operation_xyz
x,y,z
-x,1/2-y,z
x,1/2-y,1/2-z
-x,y,1/2-z
-x,-y,-z
x,1/2+y,-z
-x,1/2+y,1/2+z
x,-y,1/2+z
1/2+x,1/2+y,z
1/2-x,-y,z
1/2+x,-y,1/2-z
1/2-x,1/2+y,1/2-z
1/2-x,1/2-y,-z
1/2+x,y,-z
1/2-x,y,1/2+z
1/2+x,1/2-y,1/2+z
loop_
_atom_site_type_symbol
_atom_site_label
_atom_site_fract_x
_atom_site_fract_y
_atom_site_fract_z
Si Si1 0.138463 0.441768 0.214131
Si Si2 0.500000 0.750000 0.022004
Si Si3 0.432416 0.636685 0.700206
Si Si4 0.697691 0.807318 0.941673
Si Si5 0.750000 0.000000 0.020212
Si Si6 0.955464 0.939780 0.443238
Si Si7 0.426110 0.985388 0.654075
Si Si8 0.000000 0.750000 0.365224
O O1 0.250000 0.500000 0.227164
O O2 0.251218 0.384183 0.206623
O O3 0.000000 0.432596 0.250000
O O4 0.049331 0.463004 0.169263
O O5 0.616323 0.704963 0.049841
O O6 0.611688 0.787879 0.988079
O O7 0.500000 0.648303 0.750000
O O8 0.517847 0.577591 0.677710
O O9 0.457354 0.693245 0.666878
O O10 0.622234 0.874002 0.932489
O O11 0.641438 0.766203 0.899709
O O12 0.641970 0.048997 0.047157
O O13 0.865437 0.037350 0.987407
O O14 0.925261 0.979736 0.399204
O O15 0.250000 0.000000 0.669493
#
# Coordination Sequence:
#
# PCOD9506966 Si02
#       8
#    16   8  16  16   8  16  16   8
#     4  10  20  37  63  94 119 150 200 254 312 373
#     4   9  20  38  63  86 106 160 209 262 284 347
#     4  11  23  41  64  86 121 159 200 253 312 370
#     4  10  20  39  61  84 121 155 214 249 301 356
#     4  10  24  36  56  88 124 162 200 244 320 374
#     4  11  21  38  56  85 123 160 196 250 307 370
#     4  11  21  37  62  91 119 155 199 252 306 367
#     4  11  23  40  59  90 122 166 205 244 301 373
#
# _framework density 18.968605
#
# number of rings (size 3 to 8) (size 9 to 14) (size 15 to 20)
#    0.000    1.538    2.308    4.385    3.231    0.000 
#    2.769    0.000    0.000    2.769    0.000    0.000 
#    0.000    0.000    0.000    0.000    0.000    0.000 
#
# Total GULP energy -289993.457144 kJ/mol
# GULP energy per Si atom -5576.797253 kJ/mol
# Density = 1.892543 g / cm^3
# Si number density = 18.968605 Si / 1000 Ang^3
#
#
#
# Elastic Constant Matrix: (Units=GPa)
#
#
# Indices 1 2 3 4 5 6 
#
# 1 150.1749 50.1227 55.5036 0.0000 0.0000 0.0000
# 2 50.1227 66.8957 31.0761 0.0000 0.0000 0.0000
# 3 55.5036 31.0761 99.7947 0.0000 0.0000 0.0000
# 4 0.0000 0.0000 0.0000********** 0.0000 0.0000
# 5 0.0000 0.0000 0.0000 0.0000 -32.6144 0.0000
# 6 0.0000 0.0000 0.0000 0.0000 0.0000 20.5732
#
#
#
# Elastic Compliance Matrix: (Units=1/GPa)
#
#
# Indices 1 2 3 4 5 6 
#
# 1 0.009954 -0.005713 -0.003757 0.000000 0.000000 0.000000
# 2 -0.005713 0.020756 -0.003286 0.000000 0.000000 0.000000
# 3 -0.003757 -0.003286 0.013134 0.000000 0.000000 0.000000
# 4 0.000000 0.000000 0.000000 -0.000097 0.000000 0.000000
# 5 0.000000 0.000000 0.000000 0.000000 -0.030661 0.000000
# 6 0.000000 0.000000 0.000000 0.000000 0.000000 0.048607
#
#
# Mechanical properties :
#
#
# Convention : Reuss Voigt Hill
#
# Bulk Modulus (GPa) = 54.55216 65.58559 60.06888
# Shear Modulus (GPa) = 53.58192 -2049.49647 -997.95728
#
# Velocity S-wave (km/s) = 5.32062 -32.90613 -22.96197
# Velocity P-wave (km/s) = 8.15886 37.53798 25.90881
#
# Compressibility (1/GPa) = 0.01833108
#
# Stress axis : x y z
#
# Youngs Moduli (GPa) = 100.45808 48.17966 76.14080
#
# Poissons Ratio (x) = 0.27525 0.28609
# Poissons Ratio (y) = 0.57392 0.25019
# Poissons Ratio (z) = 0.37746 0.15831
#
# Static dielectric constant tensor:
#      x y z
#    x 1.703290 0.000000 0.000000 
#    y 0.000000 1.666790 0.000000 
#    z 0.000000 0.000000 1.643320 
# 
# From -- ./inp_files/49468.got.cif
#   From: 2010.05.17/outbox.cif.g08.bks.cpg/sg68_25_cif.got.tgz:49468.got - 2010.06.03 18:57:09.
