data_PCOD9506610
_publ_section_title
;
Structure prediction by ZEFSAII (Michael W. Deem and Ramdas Pophale) SiO2 
 PCOD9506610
Probable space group: C C C A
;
_chemical_formula_sum "Si O2"
_cell_formula_units_Z 88
_cell_length_a 15.346296
_cell_length_b 23.999945
_cell_length_c 13.599040
_cell_angle_alpha 90.000000
_cell_angle_beta 90.000000
_cell_angle_gamma 90.000000
_cell_volume 5008.665958
_symmetry_space_group_name_H-M "C C C A"
_symmetry_group_IT_number 68
_space_group.IT_coordinate_system_code '2'
_symmetry_cell_setting 'orthorhombic'
loop_
_space_group_symop_operation_xyz
x,y,z
-x,1/2-y,z
x,1/2-y,1/2-z
-x,y,1/2-z
-x,-y,-z
x,1/2+y,-z
-x,1/2+y,1/2+z
x,-y,1/2+z
1/2+x,1/2+y,z
1/2-x,-y,z
1/2+x,-y,1/2-z
1/2-x,1/2+y,1/2-z
1/2-x,1/2-y,-z
1/2+x,y,-z
1/2-x,y,1/2+z
1/2+x,1/2-y,1/2+z
loop_
_atom_site_type_symbol
_atom_site_label
_atom_site_fract_x
_atom_site_fract_y
_atom_site_fract_z
Si Si1 0.602829 0.251410 0.942156
Si Si2 0.104516 0.872362 0.029561
Si Si3 0.277930 0.750000 0.250000
Si Si4 0.829067 0.136214 0.754302
Si Si5 0.252947 0.566097 0.093776
Si Si6 0.594582 0.136306 0.052400
O O1 0.500000 0.250000 0.916250
O O2 0.661808 0.254218 0.846065
O O3 0.619504 0.307037 0.004960
O O4 0.619569 0.195164 0.003557
O O5 0.135735 0.882230 0.140812
O O6 0.001104 0.881513 0.019603
O O7 0.160445 0.909236 0.954841
O O8 0.219590 0.804933 0.239392
O O9 0.763812 0.092152 0.702062
O O10 0.903602 0.142853 0.670891
O O11 0.250000 0.500000 0.094791
O O12 0.170994 0.591923 0.033108
#
# Coordination Sequence:
#
# PCOD9506610 Si02
#       6
#    16  16   8  16  16  16
#     4  10  20  34  57  91 123 154 191 236 295 360
#     4  11  20  39  63  84 121 155 193 244 296 340
#     4  12  19  34  57  84 128 154 184 242 302 344
#     4  10  22  34  59  85 113 151 198 240 288 342
#     4  10  23  40  57  89 118 155 202 240 287 349
#     4   9  21  38  59  88 117 153 197 239 290 345
#
# _framework density 17.569548999999999
#
# number of rings (size 3 to 8) (size 9 to 14) (size 15 to 20)
#    1.091    0.727    1.818    3.000    0.000    3.636 
#    0.000    3.636    0.000    2.182    0.000    0.000 
#    0.000    0.000    0.000    0.000    0.000    0.000 
#
# Total GULP energy -245296.976691 kJ/mol
# GULP energy per Si atom -5574.931288 kJ/mol
# Density = 1.752956 g / cm^3
# Si number density = 17.569549 Si / 1000 Ang^3
#
#
#
# Elastic Constant Matrix: (Units=GPa)
#
#
# Indices 1 2 3 4 5 6 
#
# 1 65.4388 27.1212 13.6858 0.0000 0.0000 0.0000
# 2 27.1212 83.1353 -21.5548 0.0000 0.0000 0.0000
# 3 13.6858 -21.5548 35.0967 0.0000 0.0000 0.0000
# 4 0.0000 0.0000 0.0000 12.8551 0.0000 0.0000
# 5 0.0000 0.0000 0.0000 0.0000 30.4104 0.0000
# 6 0.0000 0.0000 0.0000 0.0000 0.0000 7.9537
#
#
#
# Elastic Compliance Matrix: (Units=1/GPa)
#
#
# Indices 1 2 3 4 5 6 
#
# 1 0.023784 -0.012088 -0.016699 0.000000 0.000000 0.000000
# 2 -0.012088 0.020451 0.017274 0.000000 0.000000 0.000000
# 3 -0.016699 0.017274 0.045613 0.000000 0.000000 0.000000
# 4 0.000000 0.000000 0.000000 0.077790 0.000000 0.000000
# 5 0.000000 0.000000 0.000000 0.000000 0.032884 0.000000
# 6 0.000000 0.000000 0.000000 0.000000 0.000000 0.125728
#
#
# Mechanical properties :
#
#
# Convention : Reuss Voigt Hill
#
# Bulk Modulus (GPa) = 14.96530 24.68613 19.82572
# Shear Modulus (GPa) = 13.45714 21.20507 17.33110
#
# Velocity S-wave (km/s) = 2.77056 3.47785 3.14415
# Velocity P-wave (km/s) = 4.33254 5.49620 4.94869
#
# Compressibility (1/GPa) = 0.06682123
#
# Stress axis : x y z
#
# Youngs Moduli (GPa) = 42.04532 48.89771 21.92354
#
# Poissons Ratio (x) = 0.59110 0.36609
# Poissons Ratio (y) = 0.50826 -0.37870
# Poissons Ratio (z) = 0.70210 -0.84465
#
# Static dielectric constant tensor:
#      x y z
#    x 1.604420 0.000000 0.000000 
#    y 0.000000 1.564340 0.000000 
#    z 0.000000 0.000000 1.588900 
# 
# From -- ./inp_files/22478.got.cif
#   From: 2010.05.17/outbox.cif.g08.bks.cpg/sg68_12_cif.got.tgz:22478.got - 2010.06.03 18:57:09.
