data_PCOD9506508
_publ_section_title
;
Structure prediction by ZEFSAII (Michael W. Deem and Ramdas Pophale) SiO2 
 PCOD9506508
Probable space group: C C C A
;
_chemical_formula_sum "Si O2"
_cell_formula_units_Z 88
_cell_length_a 9.879933
_cell_length_b 22.913292
_cell_length_c 20.947613
_cell_angle_alpha 90.000000
_cell_angle_beta 90.000000
_cell_angle_gamma 90.000000
_cell_volume 4742.158122
_symmetry_space_group_name_H-M "C C C A"
_symmetry_group_IT_number 68
_space_group.IT_coordinate_system_code '2'
_symmetry_cell_setting 'orthorhombic'
loop_
_space_group_symop_operation_xyz
x,y,z
-x,1/2-y,z
x,1/2-y,1/2-z
-x,y,1/2-z
-x,-y,-z
x,1/2+y,-z
-x,1/2+y,1/2+z
x,-y,1/2+z
1/2+x,1/2+y,z
1/2-x,-y,z
1/2+x,-y,1/2-z
1/2-x,1/2+y,1/2-z
1/2-x,1/2-y,-z
1/2+x,y,-z
1/2-x,y,1/2+z
1/2+x,1/2-y,1/2+z
loop_
_atom_site_type_symbol
_atom_site_label
_atom_site_fract_x
_atom_site_fract_y
_atom_site_fract_z
Si Si1 0.955286 0.182298 0.093990
Si Si2 0.775106 0.154297 0.347072
Si Si3 0.316727 0.750000 0.750000
Si Si4 0.451295 0.682744 0.945989
Si Si5 0.333206 0.844754 0.847607
Si Si6 0.159969 0.557495 0.254835
O O1 0.810332 0.175907 0.126203
O O2 0.000000 0.250000 0.096361
O O3 0.071122 0.146304 0.130753
O O4 0.944535 0.165202 0.019650
O O5 0.767523 0.205548 0.294148
O O6 0.689270 0.175192 0.408524
O O7 0.702621 0.098657 0.314700
O O8 0.389271 0.794372 0.799412
O O9 0.500000 0.750000 0.944038
O O10 0.562407 0.648247 0.905018
O O11 0.312297 0.902548 0.806873
O O12 0.250000 0.500000 0.255772
O O13 0.000000 0.544698 0.250000
#
# Coordination Sequence:
#
# PCOD9506508 Si02
#       6
#    16  16   8  16  16  16
#     4  11  22  36  56  95 131 167 197 237 292 359
#     4  11  22  37  60  88 125 157 200 251 298 365
#     4  10  20  32  56  86 124 154 196 234 308 348
#     4  11  20  36  60  89 129 165 201 237 292 365
#     4  11  22  37  60  88 125 157 200 251 298 365
#     4  11  26  44  66  89 114 157 204 258 312 356
#
# _framework density 18.556951999999999
#
# number of rings (size 3 to 8) (size 9 to 14) (size 15 to 20)
#    0.000    1.091    5.455    1.091    2.545    6.545 
#    0.000    0.000    0.000    6.545    0.000    0.000 
#    0.000    0.000    0.000    0.000    0.000    0.000 
#
# Total GULP energy -245816.465003 kJ/mol
# GULP energy per Si atom -5586.737841 kJ/mol
# Density = 1.851472 g / cm^3
# Si number density = 18.556952 Si / 1000 Ang^3
#
#
#
# Elastic Constant Matrix: (Units=GPa)
#
#
# Indices 1 2 3 4 5 6 
#
# 1 117.0508 25.0694 48.2941 0.0000 0.0000 0.0000
# 2 25.0694 90.8211 42.8913 0.0000 0.0000 0.0000
# 3 48.2941 42.8913 102.6351 0.0000 0.0000 0.0000
# 4 0.0000 0.0000 0.0000 8.9494 0.0000 0.0000
# 5 0.0000 0.0000 0.0000 0.0000 7.9224 0.0000
# 6 0.0000 0.0000 0.0000 0.0000 0.0000 29.0977
#
#
#
# Elastic Compliance Matrix: (Units=1/GPa)
#
#
# Indices 1 2 3 4 5 6 
#
# 1 0.010638 -0.000713 -0.004708 0.000000 0.000000 0.000000
# 2 -0.000713 0.013766 -0.005417 0.000000 0.000000 0.000000
# 3 -0.004708 -0.005417 0.014222 0.000000 0.000000 0.000000
# 4 0.000000 0.000000 0.000000 0.111740 0.000000 0.000000
# 5 0.000000 0.000000 0.000000 0.000000 0.126224 0.000000
# 6 0.000000 0.000000 0.000000 0.000000 0.000000 0.034367
#
#
# Mechanical properties :
#
#
# Convention : Reuss Voigt Hill
#
# Bulk Modulus (GPa) = 58.99614 60.33518 59.66566
# Shear Modulus (GPa) = 14.78050 22.14404 18.46227
#
# Velocity S-wave (km/s) = 2.82528 3.45817 3.15762
# Velocity P-wave (km/s) = 6.51950 6.96630 6.74660
#
# Compressibility (1/GPa) = 0.01695026
#
# Stress axis : x y z
#
# Youngs Moduli (GPa) = 93.99871 72.64358 70.31221
#
# Poissons Ratio (x) = 0.05181 0.33101
# Poissons Ratio (y) = 0.06704 0.38089
# Poissons Ratio (z) = 0.44252 0.39352
#
# Static dielectric constant tensor:
#      x y z
#    x 1.673080 0.000000 0.000000 
#    y 0.000000 1.627240 0.000000 
#    z 0.000000 0.000000 1.646400 
# 
# From -- ./inp_files/36269.got.cif
#   From: 2010.05.17/outbox.cif.g08.bks.cpg/sg68_19_cif.got.tgz:36269.got - 2010.06.03 18:57:09.
