data_PCOD9506153
_publ_section_title
;
Structure prediction by ZEFSAII (Michael W. Deem and Ramdas Pophale) SiO2 
 PCOD9506153
Probable space group: C C C A
;
_chemical_formula_sum "Si O2"
_cell_formula_units_Z 40
_cell_length_a 13.605226
_cell_length_b 5.305262
_cell_length_c 23.320119
_cell_angle_alpha 90.000000
_cell_angle_beta 90.000000
_cell_angle_gamma 90.000000
_cell_volume 1683.229597
_symmetry_space_group_name_H-M "C C C A"
_symmetry_group_IT_number 68
_space_group.IT_coordinate_system_code '2'
_symmetry_cell_setting 'orthorhombic'
loop_
_space_group_symop_operation_xyz
x,y,z
-x,1/2-y,z
x,1/2-y,1/2-z
-x,y,1/2-z
-x,-y,-z
x,1/2+y,-z
-x,1/2+y,1/2+z
x,-y,1/2+z
1/2+x,1/2+y,z
1/2-x,-y,z
1/2+x,-y,1/2-z
1/2-x,1/2+y,1/2-z
1/2-x,1/2-y,-z
1/2+x,y,-z
1/2-x,y,1/2+z
1/2+x,1/2-y,1/2+z
loop_
_atom_site_type_symbol
_atom_site_label
_atom_site_fract_x
_atom_site_fract_y
_atom_site_fract_z
Si Si1 0.109975 0.046174 0.523816
Si Si2 0.861570 0.001546 0.211158
Si Si3 0.000000 0.750000 0.127375
O O1 0.153828 0.770408 0.514775
O O2 0.000000 0.000000 0.500000
O O3 0.087492 0.135166 0.588070
O O4 0.873054 0.250000 0.250000
O O5 0.868045 0.750000 0.250000
O O6 0.750000 0.000000 0.186766
O O7 0.946750 0.962873 0.164818
#
# Coordination Sequence:
#
# PCOD9506153 Si02
#       3
#    16  16   8
#     4   8  16  29  48  78 108 131 174 236 273 322
#     4  10  23  39  53  80 117 146 190 247 280 328
#     4  10  19  34  62  78 102 156 191 214 292 356
#
# _framework density 23.763839999999998
#
# number of rings (size 3 to 8) (size 9 to 14) (size 15 to 20)
#    0.000    3.200    0.000    0.600    0.000   16.000 
#    0.000    0.000    0.000   21.600    0.000    0.000 
#    0.000    0.000    0.000    0.000    0.000    0.000 
#
# Total GULP energy -111574.389013 kJ/mol
# GULP energy per Si atom -5578.719451 kJ/mol
# Density = 2.370975 g / cm^3
# Si number density = 23.763840 Si / 1000 Ang^3
#
#
#
# Elastic Constant Matrix: (Units=GPa)
#
#
# Indices 1 2 3 4 5 6 
#
# 1 94.1393 27.2225 37.5377 0.0000 0.0000 0.0000
# 2 27.2225 216.2209 52.4268 0.0000 0.0000 0.0000
# 3 37.5377 52.4268 84.6953 0.0000 0.0000 0.0000
# 4 0.0000 0.0000 0.0000 45.9298 0.0000 0.0000
# 5 0.0000 0.0000 0.0000 0.0000 -19.8994 0.0000
# 6 0.0000 0.0000 0.0000 0.0000 0.0000 0.3622
#
#
#
# Elastic Compliance Matrix: (Units=1/GPa)
#
#
# Indices 1 2 3 4 5 6 
#
# 1 0.012917 -0.000280 -0.005552 0.000000 0.000000 0.000000
# 2 -0.000280 0.005448 -0.003248 0.000000 0.000000 0.000000
# 3 -0.005552 -0.003248 0.016278 0.000000 0.000000 0.000000
# 4 0.000000 0.000000 0.000000 0.021772 0.000000 0.000000
# 5 0.000000 0.000000 0.000000 0.000000 -0.050253 0.000000
# 6 0.000000 0.000000 0.000000 0.000000 0.000000 2.761149
#
#
# Mechanical properties :
#
#
# Convention : Reuss Voigt Hill
#
# Bulk Modulus (GPa) = 60.66679 69.93661 65.30170
# Shear Modulus (GPa) = 1.79149 23.80307 12.79728
#
# Velocity S-wave (km/s) = 0.86920 3.16832 2.32312
# Velocity P-wave (km/s) = 5.15672 6.54814 5.89364
#
# Compressibility (1/GPa) = 0.01648348
#
# Stress axis : x y z
#
# Youngs Moduli (GPa) = 77.41573 183.56342 61.43237
#
# Poissons Ratio (x) = 0.05144 0.34105
# Poissons Ratio (y) = 0.02169 0.19953
# Poissons Ratio (z) = 0.42978 0.59621
#
# Static dielectric constant tensor:
#      x y z
#    x 1.748970 0.000000 0.000000 
#    y 0.000000 1.799920 0.000000 
#    z 0.000000 0.000000 1.991520 
# 
# From -- ./inp_files/34652.got.cif
#   From: 2010.05.17/outbox.cif.g08.bks.cpg/sg68_18_cif.got.tgz:34652.got - 2010.06.03 18:57:09.
