data_PCOD9506892
_publ_section_title
;
Structure prediction by ZEFSAII (Michael W. Deem and Ramdas Pophale) SiO2 
 PCOD9506892
Probable space group: C C C A
;
_chemical_formula_sum "Si O2"
_cell_formula_units_Z 84
_cell_length_a 9.049668
_cell_length_b 21.597434
_cell_length_c 20.909029
_cell_angle_alpha 90.000000
_cell_angle_beta 90.000000
_cell_angle_gamma 90.000000
_cell_volume 4086.661508
_symmetry_space_group_name_H-M "C C C A"
_symmetry_group_IT_number 68
_space_group.IT_coordinate_system_code '2'
_symmetry_cell_setting 'orthorhombic'
loop_
_space_group_symop_operation_xyz
x,y,z
-x,1/2-y,z
x,1/2-y,1/2-z
-x,y,1/2-z
-x,-y,-z
x,1/2+y,-z
-x,1/2+y,1/2+z
x,-y,1/2+z
1/2+x,1/2+y,z
1/2-x,-y,z
1/2+x,-y,1/2-z
1/2-x,1/2+y,1/2-z
1/2-x,1/2-y,-z
1/2+x,y,-z
1/2-x,y,1/2+z
1/2+x,1/2-y,1/2+z
loop_
_atom_site_type_symbol
_atom_site_label
_atom_site_fract_x
_atom_site_fract_y
_atom_site_fract_z
Si Si1 0.008288 0.676054 0.530215
Si Si2 0.500000 0.047684 0.750000
Si Si3 0.009600 0.823555 0.179345
Si Si4 0.750000 0.500000 0.845617
Si Si5 0.157984 0.650452 0.837164
Si Si6 0.187399 0.876393 0.423116
Si Si7 0.000000 0.750000 0.750000
O O1 0.175089 0.657256 0.544681
O O2 0.000000 0.750000 0.515628
O O3 0.919485 0.659684 0.594725
O O4 0.943754 0.633451 0.473845
O O5 0.389955 0.011092 0.798014
O O6 0.599519 0.091205 0.797092
O O7 0.166434 0.846552 0.152957
O O8 0.000000 0.750000 0.182053
O O9 0.000000 0.850329 0.250000
O O10 0.867816 0.841652 0.139546
O O11 0.773311 0.442862 0.894215
O O12 0.104622 0.707869 0.793691
#
# Coordination Sequence:
#
# PCOD9506892 Si02
#       7
#    16   8  16   8  16  16   4
#     4  12  24  46  75 105 150 190 241 301 373 448
#     4  11  26  47  72 102 139 194 247 310 368 422
#     4  11  23  38  67 105 143 181 234 303 370 436
#     4  12  28  50  72 104 144 192 254 310 360 440
#     4  11  22  41  69 107 142 192 235 298 374 432
#     4  12  27  47  68 107 141 197 246 296 362 441
#     4  10  20  36  70 104 152 172 238 296 366 444
#
# _framework density 20.554673999999999
#
# number of rings (size 3 to 8) (size 9 to 14) (size 15 to 20)
#    0.000    0.571    2.857    5.714    6.667    0.762 
#    0.000    0.000    0.000    0.000    0.000    0.000 
#    0.000    0.000    0.000    0.000    0.000    0.000 
#
# Total GULP energy -234772.401606 kJ/mol
# GULP energy per Si atom -5589.819086 kJ/mol
# Density = 2.050789 g / cm^3
# Si number density = 20.554674 Si / 1000 Ang^3
#
#
#
# Elastic Constant Matrix: (Units=GPa)
#
#
# Indices 1 2 3 4 5 6 
#
# 1 121.9571 38.8966 20.9230 0.0000 0.0000 0.0000
# 2 38.8966 98.6035 33.7127 0.0000 0.0000 0.0000
# 3 20.9230 33.7127 104.6886 0.0000 0.0000 0.0000
# 4 0.0000 0.0000 0.0000 83.4399 0.0000 0.0000
# 5 0.0000 0.0000 0.0000 0.0000 20.4301 0.0000
# 6 0.0000 0.0000 0.0000 0.0000 0.0000 -31.9221
#
#
#
# Elastic Compliance Matrix: (Units=1/GPa)
#
#
# Indices 1 2 3 4 5 6 
#
# 1 0.009435 -0.003458 -0.000772 0.000000 0.000000 0.000000
# 2 -0.003458 0.012664 -0.003387 0.000000 0.000000 0.000000
# 3 -0.000772 -0.003387 0.010797 0.000000 0.000000 0.000000
# 4 0.000000 0.000000 0.000000 0.011985 0.000000 0.000000
# 5 0.000000 0.000000 0.000000 0.000000 0.048947 0.000000
# 6 0.000000 0.000000 0.000000 0.000000 0.000000 -0.031326
#
#
# Mechanical properties :
#
#
# Convention : Reuss Voigt Hill
#
# Bulk Modulus (GPa) = 56.61926 56.92375 56.77151
# Shear Modulus (GPa) = 59.79235 29.83738 44.81487
#
# Velocity S-wave (km/s) = 5.39931 3.81413 4.67441
# Velocity P-wave (km/s) = 8.15326 6.86664 7.53745
#
# Compressibility (1/GPa) = 0.01766183
#
# Stress axis : x y z
#
# Youngs Moduli (GPa) = 105.98939 78.96607 92.61700
#
# Poissons Ratio (x) = 0.27305 0.07151
# Poissons Ratio (y) = 0.36649 0.31369
# Poissons Ratio (z) = 0.08184 0.26746
#
# Static dielectric constant tensor:
#      x y z
#    x 1.430330 0.000000 0.000000 
#    y 0.000000 1.659680 0.000000 
#    z 0.000000 0.000000 1.739040 
# 
# From -- ./inp_files/43091.got.cif
#   From: 2010.05.17/outbox.cif.g08.bks.cpg/sg68_22_cif.got.tgz:43091.got - 2010.06.03 18:57:09.
