data_PCOD9506126
_publ_section_title
;
Structure prediction by ZEFSAII (Michael W. Deem and Ramdas Pophale) SiO2 
 PCOD9506126
Probable space group: C C C A
;
_chemical_formula_sum "Si O2"
_cell_formula_units_Z 128
_cell_length_a 12.130267
_cell_length_b 24.552710
_cell_length_c 21.899472
_cell_angle_alpha 90.000000
_cell_angle_beta 90.000000
_cell_angle_gamma 90.000000
_cell_volume 6522.340066
_symmetry_space_group_name_H-M "C C C A"
_symmetry_group_IT_number 68
_space_group.IT_coordinate_system_code '2'
_symmetry_cell_setting 'orthorhombic'
loop_
_space_group_symop_operation_xyz
x,y,z
-x,1/2-y,z
x,1/2-y,1/2-z
-x,y,1/2-z
-x,-y,-z
x,1/2+y,-z
-x,1/2+y,1/2+z
x,-y,1/2+z
1/2+x,1/2+y,z
1/2-x,-y,z
1/2+x,-y,1/2-z
1/2-x,1/2+y,1/2-z
1/2-x,1/2-y,-z
1/2+x,y,-z
1/2-x,y,1/2+z
1/2+x,1/2-y,1/2+z
loop_
_atom_site_type_symbol
_atom_site_label
_atom_site_fract_x
_atom_site_fract_y
_atom_site_fract_z
Si Si1 0.385552 0.407189 0.491429
Si Si2 0.494300 0.946959 0.872357
Si Si3 0.121396 0.774112 0.416159
Si Si4 0.743649 0.667618 0.594728
Si Si5 0.461438 0.187474 0.541955
Si Si6 0.848444 0.958828 0.614470
Si Si7 0.710240 0.130271 0.161368
Si Si8 0.888709 0.368496 0.712893
O O1 0.460818 0.434946 0.439783
O O2 0.289385 0.380471 0.451198
O O3 0.446406 0.357793 0.527605
O O4 0.348994 0.449892 0.541935
O O5 0.389253 0.907125 0.864641
O O6 0.574716 0.924906 0.819317
O O7 0.457772 0.009178 0.866120
O O8 0.197869 0.723672 0.432785
O O9 0.101200 0.809468 0.476507
O O10 0.182275 0.810658 0.365793
O O11 0.000000 0.750000 0.398041
O O12 0.875360 0.670862 0.594539
O O13 0.670697 0.662368 0.656693
O O14 0.500000 0.250000 0.552100
O O15 0.821117 0.899947 0.641827
O O16 0.750000 0.000000 0.631986
O O17 0.698996 0.128139 0.233659
O O18 0.000000 0.347857 0.750000
#
# Coordination Sequence:
#
# PCOD9506126 Si02
#       8
#    16  16  16  16  16  16  16  16
#     4  11  20  36  60  85 121 153 188 250 300 364
#     4   9  18  36  55  82 112 147 186 248 302 343
#     4  11  18  33  56  91 120 156 194 239 300 361
#     4  11  22  35  57  89 125 156 199 242 298 360
#     4  11  22  34  56  88 127 161 190 231 301 374
#     4  10  22  35  59  84 111 152 200 241 305 360
#     4  10  19  34  58  82 114 151 197 240 297 352
#     4   9  19  37  62  80 114 152 193 258 301 336
#
# _framework density 19.624859000000001
#
# number of rings (size 3 to 8) (size 9 to 14) (size 15 to 20)
#    0.000    1.750    3.750    3.000    3.500    0.500 
#    0.000    2.500   19.250    0.000    0.000    0.000 
#    0.000    0.000    0.000    0.000    0.000    0.000 
#
# Total GULP energy -356474.299008 kJ/mol
# GULP energy per Si atom -5569.910922 kJ/mol
# Density = 1.958019 g / cm^3
# Si number density = 19.624859 Si / 1000 Ang^3
#
#
#
# Elastic Constant Matrix: (Units=GPa)
#
#
# Indices 1 2 3 4 5 6 
#
# 1 45.1109 20.6226 23.3127 0.0000 0.0000 0.0000
# 2 20.6226 54.5792 16.1656 0.0000 0.0000 0.0000
# 3 23.3127 16.1656 71.5409 0.0000 0.0000 0.0000
# 4 0.0000 0.0000 0.0000 6.6341 0.0000 0.0000
# 5 0.0000 0.0000 0.0000 0.0000 17.2004 0.0000
# 6 0.0000 0.0000 0.0000 0.0000 0.0000 19.4057
#
#
#
# Elastic Compliance Matrix: (Units=1/GPa)
#
#
# Indices 1 2 3 4 5 6 
#
# 1 0.030409 -0.009169 -0.007838 0.000000 0.000000 0.000000
# 2 -0.009169 0.022401 -0.002074 0.000000 0.000000 0.000000
# 3 -0.007838 -0.002074 0.017001 0.000000 0.000000 0.000000
# 4 0.000000 0.000000 0.000000 0.150737 0.000000 0.000000
# 5 0.000000 0.000000 0.000000 0.000000 0.058138 0.000000
# 6 0.000000 0.000000 0.000000 0.000000 0.000000 0.051531
#
#
# Mechanical properties :
#
#
# Convention : Reuss Voigt Hill
#
# Bulk Modulus (GPa) = 31.59536 32.38143 31.98839
# Shear Modulus (GPa) = 13.19514 16.05672 14.62593
#
# Velocity S-wave (km/s) = 2.59582 2.86349 2.73294
# Velocity P-wave (km/s) = 5.01189 5.24107 5.12776
#
# Compressibility (1/GPa) = 0.03165021
#
# Stress axis : x y z
#
# Youngs Moduli (GPa) = 32.88451 44.64154 58.82125
#
# Poissons Ratio (x) = 0.40931 0.46102
# Poissons Ratio (y) = 0.30151 0.12199
# Poissons Ratio (z) = 0.25774 0.09258
#
# Static dielectric constant tensor:
#      x y z
#    x 1.773870 0.000000 0.000000 
#    y 0.000000 1.716300 0.000000 
#    z 0.000000 0.000000 1.692060 
# 
# From -- ./inp_files/44732.got.cif
#   From: 2010.05.17/outbox.cif.g08.bks.cpg/sg68_23_cif.got.tgz:44732.got - 2010.06.03 18:57:09.
