data_PCOD9506896
_publ_section_title
;
Structure prediction by ZEFSAII (Michael W. Deem and Ramdas Pophale) SiO2 
 PCOD9506896
Probable space group: C C C A
;
_chemical_formula_sum "Si O2"
_cell_formula_units_Z 60
_cell_length_a 7.637270
_cell_length_b 17.561226
_cell_length_c 24.809607
_cell_angle_alpha 90.000000
_cell_angle_beta 90.000000
_cell_angle_gamma 90.000000
_cell_volume 3327.460137
_symmetry_space_group_name_H-M "C C C A"
_symmetry_group_IT_number 68
_space_group.IT_coordinate_system_code '2'
_symmetry_cell_setting 'orthorhombic'
loop_
_space_group_symop_operation_xyz
x,y,z
-x,1/2-y,z
x,1/2-y,1/2-z
-x,y,1/2-z
-x,-y,-z
x,1/2+y,-z
-x,1/2+y,1/2+z
x,-y,1/2+z
1/2+x,1/2+y,z
1/2-x,-y,z
1/2+x,-y,1/2-z
1/2-x,1/2+y,1/2-z
1/2-x,1/2-y,-z
1/2+x,y,-z
1/2-x,y,1/2+z
1/2+x,1/2-y,1/2+z
loop_
_atom_site_type_symbol
_atom_site_label
_atom_site_fract_x
_atom_site_fract_y
_atom_site_fract_z
Si Si1 0.646940 0.690848 0.645350
Si Si2 0.500000 0.750000 0.750000
Si Si3 0.621289 0.904905 0.046820
Si Si4 0.979197 0.059168 0.926624
Si Si5 0.000000 0.750000 0.905769
O O1 0.500000 0.750000 0.622144
O O2 0.613586 0.698418 0.709326
O O3 0.608655 0.608250 0.620293
O O4 0.835784 0.722121 0.629348
O O5 0.819268 0.913963 0.067056
O O6 0.556115 0.820917 0.057997
O O7 0.499682 0.967884 0.076600
O O8 0.614116 0.923028 0.983396
#
# Coordination Sequence:
#
# PCOD9506896 Si02
#       5
#    16   4  16  16   8
#     4  10  21  38  58  85 109 149 184 246 274 338
#     4   8  20  40  60  84 110 144 188 250 284 314
#     4  10  21  33  55  86 116 157 185 228 279 353
#     4  10  20  37  53  81 124 150 190 231 284 331
#     4  12  22  34  62  84 110 150 192 226 294 340
#
# _framework density 18.031770999999999
#
# number of rings (size 3 to 8) (size 9 to 14) (size 15 to 20)
#    0.800    1.067    2.667    1.600    1.867    5.867 
#    0.000    0.000    0.000   12.800    0.000    0.000 
#    0.000    0.000    0.000    0.000    0.000    0.000 
#
# Total GULP energy -167329.176083 kJ/mol
# GULP energy per Si atom -5577.639203 kJ/mol
# Density = 1.799073 g / cm^3
# Si number density = 18.031771 Si / 1000 Ang^3
#
#
#
# Elastic Constant Matrix: (Units=GPa)
#
#
# Indices 1 2 3 4 5 6 
#
# 1 101.9524 39.0965 30.8425 0.0000 0.0000 0.0000
# 2 39.0965 139.5692 45.0092 0.0000 0.0000 0.0000
# 3 30.8425 45.0092 79.8861 0.0000 0.0000 0.0000
# 4 0.0000 0.0000 0.0000 -30.6843 0.0000 0.0000
# 5 0.0000 0.0000 0.0000 0.0000 125.5525 0.0000
# 6 0.0000 0.0000 0.0000 0.0000 0.0000 28.8351
#
#
#
# Elastic Compliance Matrix: (Units=1/GPa)
#
#
# Indices 1 2 3 4 5 6 
#
# 1 0.011639 -0.002213 -0.003247 0.000000 0.000000 0.000000
# 2 -0.002213 0.009177 -0.004316 0.000000 0.000000 0.000000
# 3 -0.003247 -0.004316 0.016203 0.000000 0.000000 0.000000
# 4 0.000000 0.000000 0.000000 -0.032590 0.000000 0.000000
# 5 0.000000 0.000000 0.000000 0.000000 0.007965 0.000000
# 6 0.000000 0.000000 0.000000 0.000000 0.000000 0.034680
#
#
# Mechanical properties :
#
#
# Convention : Reuss Voigt Hill
#
# Bulk Modulus (GPa) = 57.24986 61.25601 59.25293
# Shear Modulus (GPa) = 69.01491 38.50463 53.75977
#
# Velocity S-wave (km/s) = 6.19332 4.62603 5.46614
# Velocity P-wave (km/s) = 9.10831 7.91065 8.53052
#
# Compressibility (1/GPa) = 0.01746729
#
# Stress axis : x y z
#
# Youngs Moduli (GPa) = 85.91435 108.97148 61.71752
#
# Poissons Ratio (x) = 0.24121 0.20038
# Poissons Ratio (y) = 0.19017 0.26636
# Poissons Ratio (z) = 0.27894 0.47029
#
# Static dielectric constant tensor:
#      x y z
#    x 1.658650 0.000000 0.000000 
#    y 0.000000 1.634930 0.000000 
#    z 0.000000 0.000000 1.580120 
# 
# From -- ./inp_files/42697.got.cif
#   From: 2010.05.17/outbox.cif.g08.bks.cpg/sg68_22_cif.got.tgz:42697.got - 2010.06.03 18:57:09.
