data_PCOD9506025
_publ_section_title
;
Structure prediction by ZEFSAII (Michael W. Deem and Ramdas Pophale) SiO2 
 PCOD9506025
Probable space group: C C C A
;
_chemical_formula_sum "Si O2"
_cell_formula_units_Z 120
_cell_length_a 9.424909
_cell_length_b 21.696875
_cell_length_c 30.778440
_cell_angle_alpha 90.000000
_cell_angle_beta 90.000000
_cell_angle_gamma 90.000000
_cell_volume 6293.916204
_symmetry_space_group_name_H-M "C C C A"
_symmetry_group_IT_number 68
_space_group.IT_coordinate_system_code '2'
_symmetry_cell_setting 'orthorhombic'
loop_
_space_group_symop_operation_xyz
x,y,z
-x,1/2-y,z
x,1/2-y,1/2-z
-x,y,1/2-z
-x,-y,-z
x,1/2+y,-z
-x,1/2+y,1/2+z
x,-y,1/2+z
1/2+x,1/2+y,z
1/2-x,-y,z
1/2+x,-y,1/2-z
1/2-x,1/2+y,1/2-z
1/2-x,1/2-y,-z
1/2+x,y,-z
1/2-x,y,1/2+z
1/2+x,1/2-y,1/2+z
loop_
_atom_site_type_symbol
_atom_site_label
_atom_site_fract_x
_atom_site_fract_y
_atom_site_fract_z
Si Si1 0.287281 0.572592 0.338141
Si Si2 0.750000 0.500000 0.410455
Si Si3 0.586518 0.813242 0.985978
Si Si4 0.327572 0.434701 0.744103
Si Si5 0.212388 0.619062 0.930545
Si Si6 0.093841 0.060182 0.989081
Si Si7 0.879743 0.600498 0.848600
Si Si8 0.079622 0.186304 0.418586
O O1 0.250000 0.500000 0.338500
O O2 0.258107 0.593045 0.288241
O O3 0.227233 0.597944 0.384050
O O4 0.452880 0.590340 0.341224
O O5 0.833731 0.544228 0.443478
O O6 0.838359 0.457085 0.378536
O O7 0.500000 0.750000 0.981818
O O8 0.703037 0.822828 0.949221
O O9 0.491268 0.875472 0.983919
O O10 0.653864 0.812187 0.034554
O O11 0.500000 0.442912 0.750000
O O12 0.250000 0.500000 0.738011
O O13 0.309962 0.399188 0.698823
O O14 0.049023 0.637799 0.924679
O O15 0.203504 0.571188 0.970828
O O16 0.000000 0.000000 0.000000
O O17 0.841543 0.660780 0.876738
O O18 0.000000 0.250000 0.410260
#
# Coordination Sequence:
#
# PCOD9506025 Si02
#       8
#    16   8  16  16  16  16  16  16
#     4   9  19  31  53  74 101 139 170 213 268 330
#     4  12  22  30  50  78 116 132 168 220 282 324
#     4  10  22  36  52  74 105 149 193 222 263 328
#     4   9  17  33  52  74 107 135 170 215 274 340
#     4  10  20  33  51  72 102 140 178 225 264 321
#     4  11  22  34  50  77 109 141 181 224 279 326
#     4  10  19  33  50  79 102 135 169 216 275 326
#     4   9  19  34  51  71 100 137 180 215 264 314
#
# _framework density 19.066030999999999
#
# number of rings (size 3 to 8) (size 9 to 14) (size 15 to 20)
#    0.000    2.133    0.667    4.000    4.667    5.867 
#    0.000    0.000    0.000   10.000    0.000    0.000 
#    0.000    1.067    0.000    0.000    0.000    0.000 
#
# Total GULP energy -334050.961760 kJ/mol
# GULP energy per Si atom -5567.516029 kJ/mol
# Density = 1.902264 g / cm^3
# Si number density = 19.066031 Si / 1000 Ang^3
#
#
#
# Elastic Constant Matrix: (Units=GPa)
#
#
# Indices 1 2 3 4 5 6 
#
# 1 15.5899 3.2529 14.5811 0.0000 0.0000 0.0000
# 2 3.2529 66.7986 36.9040 0.0000 0.0000 0.0000
# 3 14.5811 36.9040 193.1875 0.0000 0.0000 0.0000
# 4 0.0000 0.0000 0.0000 16.5544 0.0000 0.0000
# 5 0.0000 0.0000 0.0000 0.0000 24.2006 0.0000
# 6 0.0000 0.0000 0.0000 0.0000 0.0000 21.3941
#
#
#
# Elastic Compliance Matrix: (Units=1/GPa)
#
#
# Indices 1 2 3 4 5 6 
#
# 1 0.069034 -0.000540 -0.005107 0.000000 0.000000 0.000000
# 2 -0.000540 0.016741 -0.003157 0.000000 0.000000 0.000000
# 3 -0.005107 -0.003157 0.006165 0.000000 0.000000 0.000000
# 4 0.000000 0.000000 0.000000 0.060407 0.000000 0.000000
# 5 0.000000 0.000000 0.000000 0.000000 0.041321 0.000000
# 6 0.000000 0.000000 0.000000 0.000000 0.000000 0.046742
#
#
# Mechanical properties :
#
#
# Convention : Reuss Voigt Hill
#
# Bulk Modulus (GPa) = 13.45347 42.78354 28.11850
# Shear Modulus (GPa) = 17.68063 27.15235 22.41649
#
# Velocity S-wave (km/s) = 3.04852 3.77785 3.43261
# Velocity P-wave (km/s) = 4.41168 6.44344 5.52181
#
# Compressibility (1/GPa) = 0.07433028
#
# Stress axis : x y z
#
# Youngs Moduli (GPa) = 14.48571 59.73390 162.20857
#
# Poissons Ratio (x) = 0.03226 0.82844
# Poissons Ratio (y) = 0.00782 0.51212
# Poissons Ratio (z) = 0.07398 0.18859
#
# Static dielectric constant tensor:
#      x y z
#    x 1.441670 0.000000 0.000000 
#    y 0.000000 1.686910 0.000000 
#    z 0.000000 0.000000 1.761790 
# 
# From -- ./inp_files/50448.got.cif
#   From: 2010.05.17/outbox.cif.g08.bks.cpg/sg68_26_cif.got.tgz:50448.got - 2010.06.03 18:57:09.
