data_PCOD9506417
_publ_section_title
;
Structure prediction by ZEFSAII (Michael W. Deem and Ramdas Pophale) SiO2 
 PCOD9506417
Probable space group: C C C A
;
_chemical_formula_sum "Si O2"
_cell_formula_units_Z 80
_cell_length_a 12.340566
_cell_length_b 21.278125
_cell_length_c 15.118311
_cell_angle_alpha 90.000000
_cell_angle_beta 90.000000
_cell_angle_gamma 90.000000
_cell_volume 3969.828177
_symmetry_space_group_name_H-M "C C C A"
_symmetry_group_IT_number 68
_space_group.IT_coordinate_system_code '2'
_symmetry_cell_setting 'orthorhombic'
loop_
_space_group_symop_operation_xyz
x,y,z
-x,1/2-y,z
x,1/2-y,1/2-z
-x,y,1/2-z
-x,-y,-z
x,1/2+y,-z
-x,1/2+y,1/2+z
x,-y,1/2+z
1/2+x,1/2+y,z
1/2-x,-y,z
1/2+x,-y,1/2-z
1/2-x,1/2+y,1/2-z
1/2-x,1/2-y,-z
1/2+x,y,-z
1/2-x,y,1/2+z
1/2+x,1/2-y,1/2+z
loop_
_atom_site_type_symbol
_atom_site_label
_atom_site_fract_x
_atom_site_fract_y
_atom_site_fract_z
Si Si1 0.876673 0.761408 0.923859
Si Si2 0.500000 0.989044 0.750000
Si Si3 0.223108 0.354143 0.987133
Si Si4 0.331141 0.441699 0.652242
Si Si5 0.776200 0.250000 0.750000
Si Si6 0.181619 0.113635 0.709586
O O1 0.844880 0.827310 0.970776
O O2 0.799728 0.752749 0.837749
O O3 0.000000 0.750000 0.897927
O O4 0.846222 0.708488 0.995154
O O5 0.403085 0.941248 0.728881
O O6 0.548486 0.032581 0.671649
O O7 0.192783 0.384643 0.894995
O O8 0.194247 0.397709 0.069312
O O9 0.250000 0.500000 0.640942
O O10 0.292317 0.405295 0.740471
O O11 0.842208 0.315611 0.745224
#
# Coordination Sequence:
#
# PCOD9506417 Si02
#       6
#    16   8  16  16   8  16
#     4  10  21  37  62  97 129 163 212 257 329 394
#     4  10  24  41  62  93 122 182 220 258 320 388
#     4  10  22  40  60  94 129 166 208 269 321 373
#     4  10  22  41  64  87 130 165 214 265 311 383
#     4  10  19  39  66  90 132 168 203 281 320 374
#     4  10  22  41  62  93 128 167 220 265 328 381
#
# _framework density 20.152006
#
# number of rings (size 3 to 8) (size 9 to 14) (size 15 to 20)
#    0.000    2.000    2.000    0.300    0.000   10.000 
#    0.000    0.000    0.000    0.000    0.000    0.000 
#    0.000    0.000    0.000    0.000    0.000    0.000 
#
# Total GULP energy -222885.051502 kJ/mol
# GULP energy per Si atom -5572.126288 kJ/mol
# Density = 2.010614 g / cm^3
# Si number density = 20.152006 Si / 1000 Ang^3
#
#
#
# Elastic Constant Matrix: (Units=GPa)
#
#
# Indices 1 2 3 4 5 6 
#
# 1 60.9767 32.0683 38.7284 0.0000 0.0000 0.0000
# 2 32.0683 102.1023 48.2765 0.0000 0.0000 0.0000
# 3 38.7284 48.2765 140.2931 0.0000 0.0000 0.0000
# 4 0.0000 0.0000 0.0000 36.7724 0.0000 0.0000
# 5 0.0000 0.0000 0.0000 0.0000 4.7040 0.0000
# 6 0.0000 0.0000 0.0000 0.0000 0.0000 33.8808
#
#
#
# Elastic Compliance Matrix: (Units=1/GPa)
#
#
# Indices 1 2 3 4 5 6 
#
# 1 0.021656 -0.004747 -0.004345 0.000000 0.000000 0.000000
# 2 -0.004747 0.012738 -0.003073 0.000000 0.000000 0.000000
# 3 -0.004345 -0.003073 0.009385 0.000000 0.000000 0.000000
# 4 0.000000 0.000000 0.000000 0.027194 0.000000 0.000000
# 5 0.000000 0.000000 0.000000 0.000000 0.212585 0.000000
# 6 0.000000 0.000000 0.000000 0.000000 0.000000 0.029515
#
#
# Mechanical properties :
#
#
# Convention : Reuss Voigt Hill
#
# Bulk Modulus (GPa) = 51.41644 60.16871 55.79257
# Shear Modulus (GPa) = 14.53971 27.35802 20.94887
#
# Velocity S-wave (km/s) = 2.68899 3.68854 3.22769
# Velocity P-wave (km/s) = 5.93385 6.93272 6.45264
#
# Compressibility (1/GPa) = 0.01944903
#
# Stress axis : x y z
#
# Youngs Moduli (GPa) = 46.17700 78.50493 106.55729
#
# Poissons Ratio (x) = 0.37270 0.46294
# Poissons Ratio (y) = 0.21922 0.32742
# Poissons Ratio (z) = 0.20062 0.24123
#
# Static dielectric constant tensor:
#      x y z
#    x 1.754860 0.000000 0.000000 
#    y 0.000000 1.776870 0.000000 
#    z 0.000000 0.000000 3.393040 
# 
# From -- ./inp_files/20891.got.cif
#   From: 2010.05.17/outbox.cif.g08.bks.cpg/sg68_11_cif.got.tgz:20891.got - 2010.06.03 18:57:09.
