data_PCOD9506814
_publ_section_title
;
Structure prediction by ZEFSAII (Michael W. Deem and Ramdas Pophale) SiO2 
 PCOD9506814
Probable space group: C C C A
;
_chemical_formula_sum "Si O2"
_cell_formula_units_Z 96
_cell_length_a 24.636430
_cell_length_b 9.299531
_cell_length_c 22.925465
_cell_angle_alpha 90.000000
_cell_angle_beta 90.000000
_cell_angle_gamma 90.000000
_cell_volume 5252.390115
_symmetry_space_group_name_H-M "C C C A"
_symmetry_group_IT_number 68
_space_group.IT_coordinate_system_code '2'
_symmetry_cell_setting 'orthorhombic'
loop_
_space_group_symop_operation_xyz
x,y,z
-x,1/2-y,z
x,1/2-y,1/2-z
-x,y,1/2-z
-x,-y,-z
x,1/2+y,-z
-x,1/2+y,1/2+z
x,-y,1/2+z
1/2+x,1/2+y,z
1/2-x,-y,z
1/2+x,-y,1/2-z
1/2-x,1/2+y,1/2-z
1/2-x,1/2-y,-z
1/2+x,y,-z
1/2-x,y,1/2+z
1/2+x,1/2-y,1/2+z
loop_
_atom_site_type_symbol
_atom_site_label
_atom_site_fract_x
_atom_site_fract_y
_atom_site_fract_z
Si Si1 0.197967 0.104923 0.101673
Si Si2 0.608878 0.495341 0.510459
Si Si3 0.810638 0.452630 0.715408
Si Si4 0.656093 0.150572 0.167211
Si Si5 0.562302 0.763049 0.577721
Si Si6 0.799971 0.072945 0.074579
O O1 0.214689 0.269740 0.096089
O O2 0.250000 0.000000 0.095135
O O3 0.174200 0.066283 0.165503
O O4 0.151976 0.078370 0.053696
O O5 0.577098 0.610860 0.548561
O O6 0.573639 0.383333 0.472548
O O7 0.646780 0.579617 0.464638
O O8 0.750000 0.500000 0.734978
O O9 0.849371 0.431540 0.770950
O O10 0.811614 0.296457 0.683764
O O11 0.602779 0.198939 0.131239
O O12 0.687360 0.039842 0.125735
O O13 0.500000 0.750000 0.595982
O O14 0.750000 0.000000 0.040604
#
# Coordination Sequence:
#
# PCOD9506814 Si02
#       6
#    16  16  16  16  16  16
#     4  11  22  34  57  87 124 167 193 239 299 372
#     4  11  22  38  59  88 119 155 202 251 309 364
#     4  10  20  36  60  84 120 158 193 237 290 365
#     4  10  22  39  58  87 121 155 204 246 295 360
#     4  11  23  42  64  87 116 157 211 263 307 351
#     4  11  22  34  56  88 125 160 192 236 299 372
#
# _framework density 18.277394000000001
#
# number of rings (size 3 to 8) (size 9 to 14) (size 15 to 20)
#    0.000    1.333    3.333    3.500    2.333    4.667 
#    0.000    1.667    0.000    0.000    0.000    0.000 
#   10.000    0.000    0.000    0.000    0.000    0.000 
#
# Total GULP energy -267746.316586 kJ/mol
# GULP energy per Si atom -5578.048262 kJ/mol
# Density = 1.823579 g / cm^3
# Si number density = 18.277394 Si / 1000 Ang^3
#
#
#
# Elastic Constant Matrix: (Units=GPa)
#
#
# Indices 1 2 3 4 5 6 
#
# 1 97.0844 55.4141 40.1495 0.0000 0.0000 0.0000
# 2 55.4141 110.1757 31.1709 0.0000 0.0000 0.0000
# 3 40.1495 31.1709 103.4576 0.0000 0.0000 0.0000
# 4 0.0000 0.0000 0.0000 6.9985 0.0000 0.0000
# 5 0.0000 0.0000 0.0000 0.0000 14.4266 0.0000
# 6 0.0000 0.0000 0.0000 0.0000 0.0000 20.9053
#
#
#
# Elastic Compliance Matrix: (Units=1/GPa)
#
#
# Indices 1 2 3 4 5 6 
#
# 1 0.015902 -0.006835 -0.004112 0.000000 0.000000 0.000000
# 2 -0.006835 0.012860 -0.001222 0.000000 0.000000 0.000000
# 3 -0.004112 -0.001222 0.011630 0.000000 0.000000 0.000000
# 4 0.000000 0.000000 0.000000 0.142888 0.000000 0.000000
# 5 0.000000 0.000000 0.000000 0.000000 0.069317 0.000000
# 6 0.000000 0.000000 0.000000 0.000000 0.000000 0.047835
#
#
# Mechanical properties :
#
#
# Convention : Reuss Voigt Hill
#
# Bulk Modulus (GPa) = 62.29016 62.68739 62.48877
# Shear Modulus (GPa) = 15.14605 20.73163 17.93884
#
# Velocity S-wave (km/s) = 2.88180 3.37156 3.13625
# Velocity P-wave (km/s) = 6.72513 7.03767 6.88317
#
# Compressibility (1/GPa) = 0.01605390
#
# Stress axis : x y z
#
# Youngs Moduli (GPa) = 62.88538 77.76184 85.98623
#
# Poissons Ratio (x) = 0.53148 0.35357
# Poissons Ratio (y) = 0.42980 0.10509
# Poissons Ratio (z) = 0.25858 0.09504
#
# Static dielectric constant tensor:
#      x y z
#    x 1.625560 0.000000 0.000000 
#    y 0.000000 1.632740 0.000000 
#    z 0.000000 0.000000 1.666890 
# 
# From -- ./inp_files/43408.got.cif
#   From: 2010.05.17/outbox.cif.g08.bks.cpg/sg68_22_cif.got.tgz:43408.got - 2010.06.03 18:57:09.
