data_PCOD9506097
_publ_section_title
;
Structure prediction by ZEFSAII (Michael W. Deem and Ramdas Pophale) SiO2 
 PCOD9506097
Probable space group: C C C A
;
_chemical_formula_sum "Si O2"
_cell_formula_units_Z 92
_cell_length_a 26.386211
_cell_length_b 19.289841
_cell_length_c 8.783038
_cell_angle_alpha 90.000000
_cell_angle_beta 90.000000
_cell_angle_gamma 90.000000
_cell_volume 4470.441753
_symmetry_space_group_name_H-M "C C C A"
_symmetry_group_IT_number 68
_space_group.IT_coordinate_system_code '2'
_symmetry_cell_setting 'orthorhombic'
loop_
_space_group_symop_operation_xyz
x,y,z
-x,1/2-y,z
x,1/2-y,1/2-z
-x,y,1/2-z
-x,-y,-z
x,1/2+y,-z
-x,1/2+y,1/2+z
x,-y,1/2+z
1/2+x,1/2+y,z
1/2-x,-y,z
1/2+x,-y,1/2-z
1/2-x,1/2+y,1/2-z
1/2-x,1/2-y,-z
1/2+x,y,-z
1/2-x,y,1/2+z
1/2+x,1/2-y,1/2+z
loop_
_atom_site_type_symbol
_atom_site_label
_atom_site_fract_x
_atom_site_fract_y
_atom_site_fract_z
Si Si1 0.819692 0.640026 0.989772
Si Si2 0.417294 0.339562 0.918870
Si Si3 0.720574 0.066727 0.003145
Si Si4 0.133327 0.040356 0.238647
Si Si5 0.867490 0.380491 0.789952
Si Si6 0.832834 0.250000 0.250000
Si Si7 0.000000 0.250000 0.250000
O O1 0.766824 0.612616 0.054989
O O2 0.849119 0.580773 0.891329
O O3 0.806363 0.700579 0.871160
O O4 0.855809 0.657339 0.131488
O O5 0.410374 0.415467 0.844104
O O6 0.369076 0.298912 0.849802
O O7 0.465338 0.298582 0.856568
O O8 0.408031 0.345909 0.098372
O O9 0.685326 0.109358 0.117706
O O10 0.750000 0.000000 0.071669
O O11 0.682507 0.042328 0.871530
O O12 0.118213 0.961100 0.262215
#
# Coordination Sequence:
#
# PCOD9506097 Si02
#       7
#    16  16  16  16  16   8   4
#     4  11  20  32  55  81 126 175 214 256 295 358
#     4   9  21  40  66  89 112 162 205 251 332 381
#     4  11  19  31  52  87 126 173 218 243 299 353
#     4  10  19  34  54  90 128 159 202 260 314 368
#     4  11  20  33  57  92 124 158 209 268 307 364
#     4   9  22  41  54  80 124 170 220 261 302 363
#     4  10  20  48  76  86 116 162 212 254 316 432
#
# _framework density 20.579622000000001
#
# number of rings (size 3 to 8) (size 9 to 14) (size 15 to 20)
#    0.000    1.739    3.478    2.087    0.000    0.696 
#    0.000   14.783    0.000   18.783    0.000    0.000 
#    0.000    0.000    0.000    1.217    0.000    0.000 
#
# Total GULP energy -256778.355338 kJ/mol
# GULP energy per Si atom -5582.138160 kJ/mol
# Density = 2.053278 g / cm^3
# Si number density = 20.579622 Si / 1000 Ang^3
#
#
#
# Elastic Constant Matrix: (Units=GPa)
#
#
# Indices 1 2 3 4 5 6 
#
# 1 74.2009 30.8674 34.1606 0.0000 0.0000 0.0000
# 2 30.8674 70.3008 33.5289 0.0000 0.0000 0.0000
# 3 34.1606 33.5289 130.5221 0.0000 0.0000 0.0000
# 4 0.0000 0.0000 0.0000 20.7939 0.0000 0.0000
# 5 0.0000 0.0000 0.0000 0.0000 2.2147 0.0000
# 6 0.0000 0.0000 0.0000 0.0000 0.0000 11.5600
#
#
#
# Elastic Compliance Matrix: (Units=1/GPa)
#
#
# Indices 1 2 3 4 5 6 
#
# 1 0.017437 -0.006245 -0.002960 0.000000 0.000000 0.000000
# 2 -0.006245 0.018447 -0.003104 0.000000 0.000000 0.000000
# 3 -0.002960 -0.003104 0.009234 0.000000 0.000000 0.000000
# 4 0.000000 0.000000 0.000000 0.048091 0.000000 0.000000
# 5 0.000000 0.000000 0.000000 0.000000 0.451522 0.000000
# 6 0.000000 0.000000 0.000000 0.000000 0.000000 0.086506
#
#
# Mechanical properties :
#
#
# Convention : Reuss Voigt Hill
#
# Bulk Modulus (GPa) = 48.77907 52.45972 50.61940
# Shear Modulus (GPa) = 7.54504 18.67818 13.11161
#
# Velocity S-wave (km/s) = 1.91683 3.01592 2.52685
# Velocity P-wave (km/s) = 5.35285 6.13792 5.75878
#
# Compressibility (1/GPa) = 0.02050059
#
# Stress axis : x y z
#
# Youngs Moduli (GPa) = 57.34844 54.20908 108.30040
#
# Poissons Ratio (x) = 0.33852 0.32052
# Poissons Ratio (y) = 0.35813 0.33620
# Poissons Ratio (z) = 0.16973 0.16828
#
# Static dielectric constant tensor:
#      x y z
#    x 1.695230 0.000000 0.000000 
#    y 0.000000 1.850940 0.000000 
#    z 0.000000 0.000000 1.804460 
# 
# From -- ./inp_files/8031.got.cif
#   From: 2010.05.17/outbox.cif.g08.bks.cpg/sg68_5_cif.got.tgz:8031.got - 2010.06.03 18:57:09.
