data_PCOD9506008
_publ_section_title
;
Structure prediction by ZEFSAII (Michael W. Deem and Ramdas Pophale) SiO2 
 PCOD9506008
Probable space group: C C C A
;
_chemical_formula_sum "Si O2"
_cell_formula_units_Z 96
_cell_length_a 8.430255
_cell_length_b 23.535115
_cell_length_c 22.178160
_cell_angle_alpha 90.000000
_cell_angle_beta 90.000000
_cell_angle_gamma 90.000000
_cell_volume 4400.302655
_symmetry_space_group_name_H-M "C C C A"
_symmetry_group_IT_number 68
_space_group.IT_coordinate_system_code '2'
_symmetry_cell_setting 'orthorhombic'
loop_
_space_group_symop_operation_xyz
x,y,z
-x,1/2-y,z
x,1/2-y,1/2-z
-x,y,1/2-z
-x,-y,-z
x,1/2+y,-z
-x,1/2+y,1/2+z
x,-y,1/2+z
1/2+x,1/2+y,z
1/2-x,-y,z
1/2+x,-y,1/2-z
1/2-x,1/2+y,1/2-z
1/2-x,1/2-y,-z
1/2+x,y,-z
1/2-x,y,1/2+z
1/2+x,1/2-y,1/2+z
loop_
_atom_site_type_symbol
_atom_site_label
_atom_site_fract_x
_atom_site_fract_y
_atom_site_fract_z
Si Si1 0.731328 0.647473 0.832537
Si Si2 0.406427 0.516890 0.339422
Si Si3 0.500000 0.619090 0.250000
Si Si4 0.589434 0.433576 0.925571
Si Si5 0.756172 0.885155 0.967273
Si Si6 0.954409 0.187424 0.562831
Si Si7 0.000000 0.923890 0.250000
O O1 0.637818 0.692442 0.873377
O O2 0.604511 0.613749 0.793387
O O3 0.872452 0.657630 0.784957
O O4 0.808197 0.606829 0.882968
O O5 0.250000 0.500000 0.375864
O O6 0.428863 0.575036 0.300502
O O7 0.554976 0.511356 0.385114
O O8 0.401304 0.466797 0.290787
O O9 0.409507 0.408523 0.931999
O O10 0.671444 0.432475 0.990251
O O11 0.611997 0.852803 0.933248
O O12 0.837917 0.840364 0.013414
O O13 0.000000 0.250000 0.542084
#
# Coordination Sequence:
#
# PCOD9506008 Si02
#       7
#    16  16   8  16  16  16   8
#     4  10  21  35  58  83 111 148 189 234 286 336
#     4  10  19  32  56  83 110 147 199 228 264 327
#     4   9  18  34  50  80 115 148 189 228 278 329
#     4   9  20  36  58  83 115 152 188 227 278 338
#     4   9  19  38  60  82 118 149 180 231 289 337
#     4  10  20  36  62  89 110 142 188 234 285 347
#     4  11  22  36  59  82 110 152 189 240 276 321
#
# _framework density 21.816680000000002
#
# number of rings (size 3 to 8) (size 9 to 14) (size 15 to 20)
#    0.000    2.333    1.667    0.500    2.333    0.000 
#    0.000    1.250    0.000    2.000    0.000    0.000 
#    0.000    0.000    0.000    0.000    0.000    0.000 
#
# Total GULP energy -267349.232152 kJ/mol
# GULP energy per Si atom -5569.775670 kJ/mol
# Density = 2.176702 g / cm^3
# Si number density = 21.816680 Si / 1000 Ang^3
#
#
#
# Elastic Constant Matrix: (Units=GPa)
#
#
# Indices 1 2 3 4 5 6 
#
# 1 106.9483 7.3027 33.9458 0.0000 0.0000 0.0000
# 2 7.3027 22.1298 11.7176 0.0000 0.0000 0.0000
# 3 33.9458 11.7176 90.2343 0.0000 0.0000 0.0000
# 4 0.0000 0.0000 0.0000 16.7220 0.0000 0.0000
# 5 0.0000 0.0000 0.0000 0.0000 63.1350 0.0000
# 6 0.0000 0.0000 0.0000 0.0000 0.0000 13.8869
#
#
#
# Elastic Compliance Matrix: (Units=1/GPa)
#
#
# Indices 1 2 3 4 5 6 
#
# 1 0.010664 -0.001498 -0.003817 0.000000 0.000000 0.000000
# 2 -0.001498 0.048735 -0.005765 0.000000 0.000000 0.000000
# 3 -0.003817 -0.005765 0.013267 0.000000 0.000000 0.000000
# 4 0.000000 0.000000 0.000000 0.059801 0.000000 0.000000
# 5 0.000000 0.000000 0.000000 0.000000 0.015839 0.000000
# 6 0.000000 0.000000 0.000000 0.000000 0.000000 0.072010
#
#
# Mechanical properties :
#
#
# Convention : Reuss Voigt Hill
#
# Bulk Modulus (GPa) = 19.79982 36.13826 27.96904
# Shear Modulus (GPa) = 19.28174 29.83853 24.56013
#
# Velocity S-wave (km/s) = 2.97611 3.70225 3.35886
# Velocity P-wave (km/s) = 4.57219 5.90559 5.28114
#
# Compressibility (1/GPa) = 0.05050551
#
# Stress axis : x y z
#
# Youngs Moduli (GPa) = 93.77147 20.51918 75.37518
#
# Poissons Ratio (x) = 0.03073 0.28773
# Poissons Ratio (y) = 0.14046 0.43454
# Poissons Ratio (z) = 0.35796 0.11829
#
# Static dielectric constant tensor:
#      x y z
#    x -1.742400 0.000000 0.000000 
#    y 0.000000 0.118550 0.000000 
#    z 0.000000 0.000000 1.840440 
# 
# From -- ./inp_files/43330.got.cif
#   From: 2010.05.17/outbox.cif.g08.bks.cpg/sg68_22_cif.got.tgz:43330.got - 2010.06.03 18:57:09.
