data_PCOD9506382
_publ_section_title
;
Structure prediction by ZEFSAII (Michael W. Deem and Ramdas Pophale) SiO2 
 PCOD9506382
Probable space group: C C C A
;
_chemical_formula_sum "Si O2"
_cell_formula_units_Z 88
_cell_length_a 18.889370
_cell_length_b 11.472907
_cell_length_c 21.295635
_cell_angle_alpha 90.000000
_cell_angle_beta 90.000000
_cell_angle_gamma 90.000000
_cell_volume 4615.104522
_symmetry_space_group_name_H-M "C C C A"
_symmetry_group_IT_number 68
_space_group.IT_coordinate_system_code '2'
_symmetry_cell_setting 'orthorhombic'
loop_
_space_group_symop_operation_xyz
x,y,z
-x,1/2-y,z
x,1/2-y,1/2-z
-x,y,1/2-z
-x,-y,-z
x,1/2+y,-z
-x,1/2+y,1/2+z
x,-y,1/2+z
1/2+x,1/2+y,z
1/2-x,-y,z
1/2+x,-y,1/2-z
1/2-x,1/2+y,1/2-z
1/2-x,1/2-y,-z
1/2+x,y,-z
1/2-x,y,1/2+z
1/2+x,1/2-y,1/2+z
loop_
_atom_site_type_symbol
_atom_site_label
_atom_site_fract_x
_atom_site_fract_y
_atom_site_fract_z
Si Si1 0.233668 0.132400 0.925630
Si Si2 0.441676 0.152892 0.092184
Si Si3 0.629576 0.255835 0.983282
Si Si4 0.529170 0.982323 0.178926
Si Si5 0.500000 0.250000 0.605949
Si Si6 0.854037 0.314829 0.815302
O O1 0.302412 0.205727 0.943890
O O2 0.215806 0.152396 0.853097
O O3 0.250000 0.000000 0.938772
O O4 0.164250 0.167395 0.966316
O O5 0.500000 0.250000 0.075085
O O6 0.393560 0.216994 0.143417
O O7 0.478346 0.048190 0.128737
O O8 0.399268 0.137705 0.027305
O O9 0.565565 0.213308 0.939435
O O10 0.500000 0.975916 0.250000
O O11 0.532326 0.853422 0.149086
O O12 0.597179 0.068560 0.184842
O O13 0.842681 0.250000 0.750000
#
# Coordination Sequence:
#
# PCOD9506382 Si02
#       6
#    16  16  16  16   8  16
#     4  10  22  40  62  89 129 167 210 267 314 376
#     4   9  18  34  62  92 116 154 207 263 312 363
#     4  10  22  40  59  92 129 167 209 258 321 394
#     4  11  22  37  61  94 131 162 208 268 322 381
#     4  12  25  38  60  96 137 170 202 260 344 388
#     4  10  19  38  66  90 116 163 223 265 305 370
#
# _framework density 19.067824999999999
#
# number of rings (size 3 to 8) (size 9 to 14) (size 15 to 20)
#    0.000    1.818    2.727    1.364    2.545    0.727 
#    0.000    3.636    0.000    0.000    0.000    0.000 
#    0.000    0.000    0.000    0.000    0.000    0.000 
#
# Total GULP energy -245078.966752 kJ/mol
# GULP energy per Si atom -5569.976517 kJ/mol
# Density = 1.902443 g / cm^3
# Si number density = 19.067825 Si / 1000 Ang^3
#
#
#
# Elastic Constant Matrix: (Units=GPa)
#
#
# Indices 1 2 3 4 5 6 
#
# 1 75.3239 13.3379 52.7707 0.0000 0.0000 0.0000
# 2 13.3379 75.8616 35.7692 0.0000 0.0000 0.0000
# 3 52.7707 35.7692 131.7570 0.0000 0.0000 0.0000
# 4 0.0000 0.0000 0.0000 26.5416 0.0000 0.0000
# 5 0.0000 0.0000 0.0000 0.0000 31.3923 0.0000
# 6 0.0000 0.0000 0.0000 0.0000 0.0000 14.7703
#
#
#
# Elastic Compliance Matrix: (Units=1/GPa)
#
#
# Indices 1 2 3 4 5 6 
#
# 1 0.018459 0.000276 -0.007468 0.000000 0.000000 0.000000
# 2 0.000276 0.015121 -0.004215 0.000000 0.000000 0.000000
# 3 -0.007468 -0.004215 0.011725 0.000000 0.000000 0.000000
# 4 0.000000 0.000000 0.000000 0.037677 0.000000 0.000000
# 5 0.000000 0.000000 0.000000 0.000000 0.031855 0.000000
# 6 0.000000 0.000000 0.000000 0.000000 0.000000 0.067704
#
#
# Mechanical properties :
#
#
# Convention : Reuss Voigt Hill
#
# Bulk Modulus (GPa) = 44.46447 54.07757 49.27102
# Shear Modulus (GPa) = 23.49042 26.61182 25.05112
#
# Velocity S-wave (km/s) = 3.51371 3.73988 3.62856
# Velocity P-wave (km/s) = 6.31120 6.86084 6.59175
#
# Compressibility (1/GPa) = 0.02248987
#
# Stress axis : x y z
#
# Youngs Moduli (GPa) = 54.17366 66.13306 85.28633
#
# Poissons Ratio (x) = -0.01824 0.63692
# Poissons Ratio (y) = -0.01494 0.35952
# Poissons Ratio (z) = 0.40457 0.27878
#
# Static dielectric constant tensor:
#      x y z
#    x 1.715580 0.000000 0.000000 
#    y 0.000000 1.680610 0.000000 
#    z 0.000000 0.000000 1.680460 
# 
# From -- ./inp_files/32807.got.cif
#   From: 2010.05.17/outbox.cif.g08.bks.cpg/sg68_17_cif.got.tgz:32807.got - 2010.06.03 18:57:09.
