data_PCOD9506120
_publ_section_title
;
Structure prediction by ZEFSAII (Michael W. Deem and Ramdas Pophale) SiO2 
 PCOD9506120
Probable space group: C C C A
;
_chemical_formula_sum "Si O2"
_cell_formula_units_Z 88
_cell_length_a 21.549771
_cell_length_b 22.635913
_cell_length_c 10.477100
_cell_angle_alpha 90.000000
_cell_angle_beta 90.000000
_cell_angle_gamma 90.000000
_cell_volume 5110.716195
_symmetry_space_group_name_H-M "C C C A"
_symmetry_group_IT_number 68
_space_group.IT_coordinate_system_code '2'
_symmetry_cell_setting 'orthorhombic'
loop_
_space_group_symop_operation_xyz
x,y,z
-x,1/2-y,z
x,1/2-y,1/2-z
-x,y,1/2-z
-x,-y,-z
x,1/2+y,-z
-x,1/2+y,1/2+z
x,-y,1/2+z
1/2+x,1/2+y,z
1/2-x,-y,z
1/2+x,-y,1/2-z
1/2-x,1/2+y,1/2-z
1/2-x,1/2-y,-z
1/2+x,y,-z
1/2-x,y,1/2+z
1/2+x,1/2-y,1/2+z
loop_
_atom_site_type_symbol
_atom_site_label
_atom_site_fract_x
_atom_site_fract_y
_atom_site_fract_z
Si Si1 0.323652 0.289476 0.868996
Si Si2 0.851760 0.588889 0.025378
Si Si3 0.673885 0.719732 0.619435
Si Si4 0.541238 0.506480 0.626946
Si Si5 0.641912 0.417862 0.723669
Si Si6 0.250000 0.500000 0.377142
O O1 0.345696 0.250000 0.750000
O O2 0.248832 0.284506 0.872099
O O3 0.342904 0.356667 0.846426
O O4 0.344876 0.261319 0.001642
O O5 0.845536 0.653065 0.088224
O O6 0.907489 0.555270 0.094649
O O7 0.790178 0.548306 0.044602
O O8 0.864466 0.593436 0.874473
O O9 0.651818 0.750000 0.750000
O O10 0.500000 0.521625 0.750000
O O11 0.500000 0.500000 0.500000
O O12 0.580907 0.448319 0.664729
O O13 0.699510 0.462830 0.702638
#
# Coordination Sequence:
#
# PCOD9506120 Si02
#       6
#    16  16  16  16  16   8
#     4  10  19  34  57  85 124 161 192 236 295 372
#     4  11  21  38  61  86 126 158 197 258 297 372
#     4  10  21  34  55  89 125 160 194 236 301 365
#     4  11  24  43  63  89 115 160 212 255 307 349
#     4  11  21  37  62  86 124 159 198 255 297 373
#     4  10  22  32  54  96 124 152 200 240 316 356
#
# _framework density 17.218722
#
# number of rings (size 3 to 8) (size 9 to 14) (size 15 to 20)
#    0.000    1.455    5.455    0.545    0.000    1.455 
#    3.273    0.000    0.000    6.545    0.000    0.000 
#    0.000    0.000    0.000    0.000    0.000    0.000 
#
# Total GULP energy -245454.047029 kJ/mol
# GULP energy per Si atom -5578.501069 kJ/mol
# Density = 1.717953 g / cm^3
# Si number density = 17.218722 Si / 1000 Ang^3
#
#
#
# Elastic Constant Matrix: (Units=GPa)
#
#
# Indices 1 2 3 4 5 6 
#
# 1 69.4020 35.1800 50.5729 0.0000 0.0000 0.0000
# 2 35.1800 151.6142 84.3888 0.0000 0.0000 0.0000
# 3 50.5729 84.3888 170.3395 0.0000 0.0000 0.0000
# 4 0.0000 0.0000 0.0000 32.0259 0.0000 0.0000
# 5 0.0000 0.0000 0.0000 0.0000 18.3545 0.0000
# 6 0.0000 0.0000 0.0000 0.0000 0.0000 21.8447
#
#
#
# Elastic Compliance Matrix: (Units=1/GPa)
#
#
# Indices 1 2 3 4 5 6 
#
# 1 0.018708 -0.001725 -0.004700 0.000000 0.000000 0.000000
# 2 -0.001725 0.009266 -0.004078 0.000000 0.000000 0.000000
# 3 -0.004700 -0.004078 0.009286 0.000000 0.000000 0.000000
# 4 0.000000 0.000000 0.000000 0.031225 0.000000 0.000000
# 5 0.000000 0.000000 0.000000 0.000000 0.054483 0.000000
# 6 0.000000 0.000000 0.000000 0.000000 0.000000 0.045778
#
#
# Mechanical properties :
#
#
# Convention : Reuss Voigt Hill
#
# Bulk Modulus (GPa) = 61.52282 81.29324 71.40803
# Shear Modulus (GPa) = 25.61877 29.19262 27.40569
#
# Velocity S-wave (km/s) = 3.86144 4.12199 3.99384
# Velocity P-wave (km/s) = 7.46249 8.36475 7.92647
#
# Compressibility (1/GPa) = 0.01625413
#
# Stress axis : x y z
#
# Youngs Moduli (GPa) = 53.45346 107.92162 107.68434
#
# Poissons Ratio (x) = 0.18617 0.50608
# Poissons Ratio (y) = 0.09221 0.43917
# Poissons Ratio (z) = 0.25121 0.44014
#
# Static dielectric constant tensor:
#      x y z
#    x 1.570840 0.000000 0.000000 
#    y 0.000000 1.569400 0.000000 
#    z 0.000000 0.000000 1.583130 
# 
# From -- ./inp_files/7131.got.cif
#   From: 2010.05.17/outbox.cif.g08.bks.cpg/sg68_4_cif.got.tgz:7131.got - 2010.06.03 18:57:09.
