data_PCOD9506787
_publ_section_title
;
Structure prediction by ZEFSAII (Michael W. Deem and Ramdas Pophale) SiO2 
 PCOD9506787
Probable space group: C C C A
;
_chemical_formula_sum "Si O2"
_cell_formula_units_Z 88
_cell_length_a 7.577055
_cell_length_b 19.441217
_cell_length_c 24.753385
_cell_angle_alpha 90.000000
_cell_angle_beta 90.000000
_cell_angle_gamma 90.000000
_cell_volume 3646.351104
_symmetry_space_group_name_H-M "C C C A"
_symmetry_group_IT_number 68
_space_group.IT_coordinate_system_code '2'
_symmetry_cell_setting 'orthorhombic'
loop_
_space_group_symop_operation_xyz
x,y,z
-x,1/2-y,z
x,1/2-y,1/2-z
-x,y,1/2-z
-x,-y,-z
x,1/2+y,-z
-x,1/2+y,1/2+z
x,-y,1/2+z
1/2+x,1/2+y,z
1/2-x,-y,z
1/2+x,-y,1/2-z
1/2-x,1/2+y,1/2-z
1/2-x,1/2-y,-z
1/2+x,y,-z
1/2-x,y,1/2+z
1/2+x,1/2-y,1/2+z
loop_
_atom_site_type_symbol
_atom_site_label
_atom_site_fract_x
_atom_site_fract_y
_atom_site_fract_z
Si Si1 0.680686 0.713318 0.946971
Si Si2 0.230765 0.401845 0.804096
Si Si3 0.801647 0.753052 0.667258
Si Si4 0.873306 0.442208 0.929516
Si Si5 0.678179 0.400447 0.310289
Si Si6 0.750000 0.500000 0.105116
O O1 0.500000 0.750000 0.929941
O O2 0.805480 0.728970 0.896374
O O3 0.641291 0.632831 0.956379
O O4 0.750000 0.750000 0.000000
O O5 0.230408 0.321572 0.818533
O O6 0.288085 0.420012 0.743071
O O7 0.320627 0.441306 0.853446
O O8 0.024896 0.421441 0.805053
O O9 0.695156 0.817528 0.690465
O O10 0.000000 0.750000 0.688111
O O11 0.750000 0.500000 0.955810
O O12 0.783422 0.427263 0.870272
O O13 0.076659 0.468291 0.924290
#
# Coordination Sequence:
#
# PCOD9506787 Si02
#       6
#    16  16  16  16  16   8
#     4  11  24  48  75  99 128 169 230 293 358 426
#     4  10  20  36  58  87 132 180 228 270 331 400
#     4  11  22  36  60  92 127 170 220 282 339 400
#     4  10  23  44  70 100 141 184 226 283 353 416
#     4   9  20  37  56  91 128 180 228 277 324 394
#     4  10  22  38  64  96 138 188 218 270 340 424
#
# _framework density 24.133716
#
# number of rings (size 3 to 8) (size 9 to 14) (size 15 to 20)
#    0.000    1.818    0.000    4.909    6.364    2.909 
#    3.273    0.909    2.000    0.000    0.000    0.000 
#    0.000    0.000    0.000    0.000    0.000    0.000 
#
# Total GULP energy -245711.716027 kJ/mol
# GULP energy per Si atom -5584.357182 kJ/mol
# Density = 2.407879 g / cm^3
# Si number density = 24.133716 Si / 1000 Ang^3
#
#
#
# Elastic Constant Matrix: (Units=GPa)
#
#
# Indices 1 2 3 4 5 6 
#
# 1 102.7202 41.1310 18.4571 0.0000 0.0000 0.0000
# 2 41.1310 189.4337 33.8525 0.0000 0.0000 0.0000
# 3 18.4571 33.8525 91.4474 0.0000 0.0000 0.0000
# 4 0.0000 0.0000 0.0000 -40.9956 0.0000 0.0000
# 5 0.0000 0.0000 0.0000 0.0000 -4.5271 0.0000
# 6 0.0000 0.0000 0.0000 0.0000 0.0000 25.2383
#
#
#
# Elastic Compliance Matrix: (Units=1/GPa)
#
#
# Indices 1 2 3 4 5 6 
#
# 1 0.010829 -0.002100 -0.001408 0.000000 0.000000 0.000000
# 2 -0.002100 0.006060 -0.001820 0.000000 0.000000 0.000000
# 3 -0.001408 -0.001820 0.011893 0.000000 0.000000 0.000000
# 4 0.000000 0.000000 0.000000 -0.024393 0.000000 0.000000
# 5 0.000000 0.000000 0.000000 0.000000 -0.220891 0.000000
# 6 0.000000 0.000000 0.000000 0.000000 0.000000 0.039622
#
#
# Mechanical properties :
#
#
# Convention : Reuss Voigt Hill
#
# Bulk Modulus (GPa) = 55.16651 63.38693 59.27672
# Shear Modulus (GPa) = -31.21440 15.28716 -7.96362
#
# Velocity S-wave (km/s) = -3.60028 2.51955 -1.81850
# Velocity P-wave (km/s) = 2.37184 5.89797 4.49509
#
# Compressibility (1/GPa) = 0.01812694
#
# Stress axis : x y z
#
# Youngs Moduli (GPa) = 92.34504 165.01869 84.08256
#
# Poissons Ratio (x) = 0.34647 0.11842
# Poissons Ratio (y) = 0.19388 0.15299
# Poissons Ratio (z) = 0.13006 0.30026
#
# Static dielectric constant tensor:
#      x y z
#    x 1.973180 0.000000 0.000000 
#    y 0.000000 1.947670 0.000000 
#    z 0.000000 0.000000 2.282330 
# 
# From -- ./inp_files/54031.got.cif
#   From: 2010.05.17/outbox.cif.g08.bks.cpg/sg68_28_cif.got.tgz:54031.got - 2010.06.03 18:57:09.
