data_PCOD9506641
_publ_section_title
;
Structure prediction by ZEFSAII (Michael W. Deem and Ramdas Pophale) SiO2 
 PCOD9506641
Probable space group: C C C A
;
_chemical_formula_sum "Si O2"
_cell_formula_units_Z 88
_cell_length_a 13.610602
_cell_length_b 14.566491
_cell_length_c 23.225732
_cell_angle_alpha 90.000000
_cell_angle_beta 90.000000
_cell_angle_gamma 90.000000
_cell_volume 4604.703701
_symmetry_space_group_name_H-M "C C C A"
_symmetry_group_IT_number 68
_space_group.IT_coordinate_system_code '2'
_symmetry_cell_setting 'orthorhombic'
loop_
_space_group_symop_operation_xyz
x,y,z
-x,1/2-y,z
x,1/2-y,1/2-z
-x,y,1/2-z
-x,-y,-z
x,1/2+y,-z
-x,1/2+y,1/2+z
x,-y,1/2+z
1/2+x,1/2+y,z
1/2-x,-y,z
1/2+x,-y,1/2-z
1/2-x,1/2+y,1/2-z
1/2-x,1/2-y,-z
1/2+x,y,-z
1/2-x,y,1/2+z
1/2+x,1/2-y,1/2+z
loop_
_atom_site_type_symbol
_atom_site_label
_atom_site_fract_x
_atom_site_fract_y
_atom_site_fract_z
Si Si1 0.082440 0.962584 0.639053
Si Si2 0.086884 0.822462 0.144885
Si Si3 0.302482 0.289949 0.811947
Si Si4 0.423905 0.174327 0.891897
Si Si5 0.250000 0.000000 0.546061
Si Si6 0.839002 0.318282 0.512807
O O1 0.138903 0.886717 0.678629
O O2 0.159784 0.966294 0.585865
O O3 0.976519 0.920616 0.622905
O O4 0.066139 0.068929 0.655736
O O5 0.186703 0.805749 0.180108
O O6 0.114751 0.810363 0.076546
O O7 0.000000 0.750000 0.158181
O O8 0.327589 0.250000 0.750000
O O9 0.328225 0.210914 0.859218
O O10 0.500000 0.250000 0.869921
O O11 0.412848 0.186370 0.959897
O O12 0.290593 0.917932 0.509336
O O13 0.750000 0.250000 0.500000
#
# Coordination Sequence:
#
# PCOD9506641 Si02
#       6
#    16  16  16  16   8  16
#     4  10  20  42  63  90 125 165 205 252 312 381
#     4  11  23  40  65  93 126 167 202 250 325 382
#     4  11  22  43  66  87 119 167 218 263 307 366
#     4  10  21  36  61  94 122 158 215 261 309 369
#     4  10  20  34  64  84 128 174 196 234 322 394
#     4  11  19  36  61  91 128 163 200 256 311 374
#
# _framework density 19.110893000000001
#
# number of rings (size 3 to 8) (size 9 to 14) (size 15 to 20)
#    0.000    1.455    5.455    1.636    0.000    8.000 
#    0.000    5.455    0.000    0.000    0.000    0.000 
#    0.000    0.000    0.000    0.000    0.000    0.000 
#
# Total GULP energy -245024.536278 kJ/mol
# GULP energy per Si atom -5568.739461 kJ/mol
# Density = 1.906740 g / cm^3
# Si number density = 19.110893 Si / 1000 Ang^3
#
#
#
# Elastic Constant Matrix: (Units=GPa)
#
#
# Indices 1 2 3 4 5 6 
#
# 1 70.4682 75.4364 -4.0783 0.0000 0.0000 0.0000
# 2 75.4364 143.4349 41.9069 0.0000 0.0000 0.0000
# 3 -4.0783 41.9069 57.3842 0.0000 0.0000 0.0000
# 4 0.0000 0.0000 0.0000 25.1788 0.0000 0.0000
# 5 0.0000 0.0000 0.0000 0.0000 7.8594 0.0000
# 6 0.0000 0.0000 0.0000 0.0000 0.0000 35.7604
#
#
#
# Elastic Compliance Matrix: (Units=1/GPa)
#
#
# Indices 1 2 3 4 5 6 
#
# 1 0.063768 -0.044317 0.036896 0.000000 0.000000 0.000000
# 2 -0.044317 0.039662 -0.032114 0.000000 0.000000 0.000000
# 3 0.036896 -0.032114 0.043501 0.000000 0.000000 0.000000
# 4 0.000000 0.000000 0.000000 0.039716 0.000000 0.000000
# 5 0.000000 0.000000 0.000000 0.000000 0.127237 0.000000
# 6 0.000000 0.000000 0.000000 0.000000 0.000000 0.027964
#
#
# Mechanical properties :
#
#
# Convention : Reuss Voigt Hill
#
# Bulk Modulus (GPa) = 14.73609 55.31303 35.02456
# Shear Modulus (GPa) = 11.27299 24.29453 17.78376
#
# Velocity S-wave (km/s) = 2.43136 3.56931 3.05381
# Velocity P-wave (km/s) = 3.95090 6.78179 5.54988
#
# Compressibility (1/GPa) = 0.06786059
#
# Stress axis : x y z
#
# Youngs Moduli (GPa) = 15.68193 25.21299 22.98782
#
# Poissons Ratio (x) = 1.11736 -0.84816
# Poissons Ratio (y) = 0.69498 0.73824
# Poissons Ratio (z) = -0.57860 0.80970
#
# Static dielectric constant tensor:
#      x y z
#    x 1.689680 0.000000 0.000000 
#    y 0.000000 1.711370 0.000000 
#    z 0.000000 0.000000 1.652220 
# 
# From -- ./inp_files/44250.got.cif
#   From: 2010.05.17/outbox.cif.g08.bks.cpg/sg68_23_cif.got.tgz:44250.got - 2010.06.03 18:57:09.
