data_PCOD9506791
_publ_section_title
;
Structure prediction by ZEFSAII (Michael W. Deem and Ramdas Pophale) SiO2 
 PCOD9506791
Probable space group: C C C A
;
_chemical_formula_sum "Si O2"
_cell_formula_units_Z 88
_cell_length_a 22.521980
_cell_length_b 9.739995
_cell_length_c 21.580065
_cell_angle_alpha 90.000000
_cell_angle_beta 90.000000
_cell_angle_gamma 90.000000
_cell_volume 4733.888787
_symmetry_space_group_name_H-M "C C C A"
_symmetry_group_IT_number 68
_space_group.IT_coordinate_system_code '2'
_symmetry_cell_setting 'orthorhombic'
loop_
_space_group_symop_operation_xyz
x,y,z
-x,1/2-y,z
x,1/2-y,1/2-z
-x,y,1/2-z
-x,-y,-z
x,1/2+y,-z
-x,1/2+y,1/2+z
x,-y,1/2+z
1/2+x,1/2+y,z
1/2-x,-y,z
1/2+x,-y,1/2-z
1/2-x,1/2+y,1/2-z
1/2-x,1/2-y,-z
1/2+x,y,-z
1/2-x,y,1/2+z
1/2+x,1/2-y,1/2+z
loop_
_atom_site_type_symbol
_atom_site_label
_atom_site_fract_x
_atom_site_fract_y
_atom_site_fract_z
Si Si1 0.472063 0.014148 0.184501
Si Si2 0.302653 0.613181 0.547609
Si Si3 0.722561 0.645338 0.092050
Si Si4 0.116606 0.768471 0.676553
Si Si5 0.401535 0.045789 0.357196
Si Si6 0.101466 0.250000 0.750000
O O1 0.500000 0.963407 0.250000
O O2 0.431080 0.889047 0.161670
O O3 0.527210 0.065620 0.143333
O O4 0.434588 0.146977 0.205101
O O5 0.250000 0.500000 0.554831
O O6 0.310920 0.633086 0.474202
O O7 0.275326 0.749129 0.578051
O O8 0.362912 0.577099 0.582542
O O9 0.750000 0.500000 0.108342
O O10 0.678341 0.691985 0.144960
O O11 0.121654 0.750000 0.750000
O O12 0.101737 0.617101 0.653089
O O13 0.373851 0.137894 0.300185
#
# Coordination Sequence:
#
# PCOD9506791 Si02
#       6
#    16  16  16  16  16   8
#     4  10  20  36  58  90 125 162 193 240 309 372
#     4  10  21  44  64  82 115 163 209 249 297 363
#     4  10  24  43  63  85 118 163 204 246 309 360
#     4  12  22  38  61  94 125 159 199 246 309 370
#     4  11  21  36  63  89 120 160 204 246 297 364
#     4  10  21  36  58  92 124 162 192 245 316 361
#
# _framework density 18.589368
#
# number of rings (size 3 to 8) (size 9 to 14) (size 15 to 20)
#    0.000    1.455    5.455    3.000    2.545    0.000 
#    4.909    0.909    0.000    2.182    0.000    0.000 
#    0.000    0.000    0.000    0.000    0.000    0.000 
#
# Total GULP energy -245129.386740 kJ/mol
# GULP energy per Si atom -5571.122426 kJ/mol
# Density = 1.854706 g / cm^3
# Si number density = 18.589368 Si / 1000 Ang^3
#
#
#
# Elastic Constant Matrix: (Units=GPa)
#
#
# Indices 1 2 3 4 5 6 
#
# 1 51.6506 10.9506 41.0581 0.0000 0.0000 0.0000
# 2 10.9506 117.8679 9.9458 0.0000 0.0000 0.0000
# 3 41.0581 9.9458 47.3228 0.0000 0.0000 0.0000
# 4 0.0000 0.0000 0.0000 24.8548 0.0000 0.0000
# 5 0.0000 0.0000 0.0000 0.0000 11.4553 0.0000
# 6 0.0000 0.0000 0.0000 0.0000 0.0000 13.4139
#
#
#
# Elastic Compliance Matrix: (Units=1/GPa)
#
#
# Indices 1 2 3 4 5 6 
#
# 1 0.062573 -0.001255 -0.054026 0.000000 0.000000 0.000000
# 2 -0.001255 0.008662 -0.000732 0.000000 0.000000 0.000000
# 3 -0.054026 -0.000732 0.068159 0.000000 0.000000 0.000000
# 4 0.000000 0.000000 0.000000 0.040234 0.000000 0.000000
# 5 0.000000 0.000000 0.000000 0.000000 0.087296 0.000000
# 6 0.000000 0.000000 0.000000 0.000000 0.000000 0.074550
#
#
# Mechanical properties :
#
#
# Convention : Reuss Voigt Hill
#
# Bulk Modulus (GPa) = 36.53691 37.86114 37.19902
# Shear Modulus (GPa) = 10.80795 20.27059 15.53927
#
# Velocity S-wave (km/s) = 2.41385 3.30576 2.89437
# Velocity P-wave (km/s) = 5.24083 5.91456 5.58786
#
# Compressibility (1/GPa) = 0.02736958
#
# Stress axis : x y z
#
# Youngs Moduli (GPa) = 15.98128 115.44138 14.67153
#
# Poissons Ratio (x) = 0.14484 0.79264
# Poissons Ratio (y) = 0.02005 0.01074
# Poissons Ratio (z) = 0.86340 0.08451
#
# Static dielectric constant tensor:
#      x y z
#    x 2.469690 0.000000 0.000000 
#    y 0.000000 1.663260 0.000000 
#    z 0.000000 0.000000 1.639050 
# 
# From -- ./inp_files/36295.got.cif
#   From: 2010.05.17/outbox.cif.g08.bks.cpg/sg68_19_cif.got.tgz:36295.got - 2010.06.03 18:57:09.
