data_PCOD9506938
_publ_section_title
;
Structure prediction by ZEFSAII (Michael W. Deem and Ramdas Pophale) SiO2 
 PCOD9506938
Probable space group: C C C A
;
_chemical_formula_sum "Si O2"
_cell_formula_units_Z 64
_cell_length_a 22.699968
_cell_length_b 8.982845
_cell_length_c 13.888601
_cell_angle_alpha 90.000000
_cell_angle_beta 90.000000
_cell_angle_gamma 90.000000
_cell_volume 2832.028714
_symmetry_space_group_name_H-M "C C C A"
_symmetry_group_IT_number 68
_space_group.IT_coordinate_system_code '2'
_symmetry_cell_setting 'orthorhombic'
loop_
_space_group_symop_operation_xyz
x,y,z
-x,1/2-y,z
x,1/2-y,1/2-z
-x,y,1/2-z
-x,-y,-z
x,1/2+y,-z
-x,1/2+y,1/2+z
x,-y,1/2+z
1/2+x,1/2+y,z
1/2-x,-y,z
1/2+x,-y,1/2-z
1/2-x,1/2+y,1/2-z
1/2-x,1/2-y,-z
1/2+x,y,-z
1/2-x,y,1/2+z
1/2+x,1/2-y,1/2+z
loop_
_atom_site_type_symbol
_atom_site_label
_atom_site_fract_x
_atom_site_fract_y
_atom_site_fract_z
Si Si1 0.037262 0.104179 0.071402
Si Si2 0.910254 0.418075 0.737905
Si Si3 0.853364 0.577009 0.437866
Si Si4 0.801726 0.618306 0.093526
O O1 0.000000 0.250000 0.088673
O O2 0.049469 0.019885 0.171290
O O3 0.098164 0.138685 0.014285
O O4 0.000000 0.000000 0.000000
O O5 0.933668 0.250000 0.750000
O O6 0.889535 0.467951 0.843004
O O7 0.851054 0.404999 0.674517
O O8 0.803245 0.701571 0.415121
O O9 0.824869 0.438558 0.490832
O O10 0.750000 0.500000 0.116851
#
# Coordination Sequence:
#
# PCOD9506938 Si02
#       4
#    16  16  16  16
#     4  11  22  40  66  96 129 172 220 266 329 399
#     4   9  20  39  61  89 126 165 210 264 319 383
#     4  10  21  40  60  87 126 159 203 266 317 376
#     4  10  20  37  61  88 118 160 204 250 317 384
#
# _framework density 22.59864
#
# number of rings (size 3 to 8) (size 9 to 14) (size 15 to 20)
#    0.000    2.000    0.000    5.250    0.000    2.000 
#    0.000   22.500    0.000    0.000    0.000    0.000 
#    0.000    0.000    0.000    0.000    0.000    0.000 
#
# Total GULP energy -178748.767752 kJ/mol
# GULP energy per Si atom -5585.898992 kJ/mol
# Density = 2.254720 g / cm^3
# Si number density = 22.598640 Si / 1000 Ang^3
#
#
#
# Elastic Constant Matrix: (Units=GPa)
#
#
# Indices 1 2 3 4 5 6 
#
# 1 87.4105 54.2382 35.2859 0.0000 0.0000 0.0000
# 2 54.2382 126.5062 64.1064 0.0000 0.0000 0.0000
# 3 35.2859 64.1064 160.9721 0.0000 0.0000 0.0000
# 4 0.0000 0.0000 0.0000 28.9707 0.0000 0.0000
# 5 0.0000 0.0000 0.0000 0.0000 12.9216 0.0000
# 6 0.0000 0.0000 0.0000 0.0000 0.0000 42.0845
#
#
#
# Elastic Compliance Matrix: (Units=1/GPa)
#
#
# Indices 1 2 3 4 5 6 
#
# 1 0.015703 -0.006249 -0.000953 0.000000 0.000000 0.000000
# 2 -0.006249 0.012390 -0.003565 0.000000 0.000000 0.000000
# 3 -0.000953 -0.003565 0.007841 0.000000 0.000000 0.000000
# 4 0.000000 0.000000 0.000000 0.034518 0.000000 0.000000
# 5 0.000000 0.000000 0.000000 0.000000 0.077390 0.000000
# 6 0.000000 0.000000 0.000000 0.000000 0.000000 0.023762
#
#
# Mechanical properties :
#
#
# Convention : Reuss Voigt Hill
#
# Bulk Modulus (GPa) = 69.44649 75.79442 72.62045
# Shear Modulus (GPa) = 25.26051 31.54593 28.40322
#
# Velocity S-wave (km/s) = 3.34696 3.74026 3.54906
# Velocity P-wave (km/s) = 6.76264 7.22945 6.99994
#
# Compressibility (1/GPa) = 0.01439958
#
# Stress axis : x y z
#
# Youngs Moduli (GPa) = 63.68286 80.70779 127.53795
#
# Poissons Ratio (x) = 0.50437 0.12159
# Poissons Ratio (y) = 0.39797 0.45461
# Poissons Ratio (z) = 0.06071 0.28769
#
# Static dielectric constant tensor:
#      x y z
#    x 1.880740 0.000000 0.000000 
#    y 0.000000 2.090210 0.000000 
#    z 0.000000 0.000000 1.829710 
# 
# From -- ./inp_files/19208.got.cif
#   From: 2010.05.17/outbox.cif.g08.bks.cpg/sg68_10_cif.got.tgz:19208.got - 2010.06.03 18:57:09.
