data_PCOD9506430
_publ_section_title
;
Structure prediction by ZEFSAII (Michael W. Deem and Ramdas Pophale) SiO2 
 PCOD9506430
Probable space group: C C C A
;
_chemical_formula_sum "Si O2"
_cell_formula_units_Z 88
_cell_length_a 23.146878
_cell_length_b 10.394739
_cell_length_c 15.552101
_cell_angle_alpha 90.000000
_cell_angle_beta 90.000000
_cell_angle_gamma 90.000000
_cell_volume 3741.925010
_symmetry_space_group_name_H-M "C C C A"
_symmetry_group_IT_number 68
_space_group.IT_coordinate_system_code '2'
_symmetry_cell_setting 'orthorhombic'
loop_
_space_group_symop_operation_xyz
x,y,z
-x,1/2-y,z
x,1/2-y,1/2-z
-x,y,1/2-z
-x,-y,-z
x,1/2+y,-z
-x,1/2+y,1/2+z
x,-y,1/2+z
1/2+x,1/2+y,z
1/2-x,-y,z
1/2+x,-y,1/2-z
1/2-x,1/2+y,1/2-z
1/2-x,1/2-y,-z
1/2+x,y,-z
1/2-x,y,1/2+z
1/2+x,1/2-y,1/2+z
loop_
_atom_site_type_symbol
_atom_site_label
_atom_site_fract_x
_atom_site_fract_y
_atom_site_fract_z
Si Si1 0.453066 0.027474 0.828755
Si Si2 0.166770 0.316538 0.425154
Si Si3 0.056517 0.678737 0.499816
Si Si4 0.628107 0.250000 0.750000
Si Si5 0.383086 0.265925 0.149613
Si Si6 0.230258 0.624473 0.073441
O O1 0.500000 0.008441 0.750000
O O2 0.466590 0.085762 0.924219
O O3 0.411072 0.138434 0.791275
O O4 0.420039 0.897843 0.855542
O O5 0.103413 0.276010 0.457359
O O6 0.164268 0.322910 0.323271
O O7 0.195458 0.421587 0.487225
O O8 0.211153 0.200259 0.443360
O O9 0.089616 0.651365 0.409206
O O10 0.000000 0.750000 0.469617
O O11 0.383281 0.250000 0.250000
O O12 0.317817 0.291577 0.120038
O O13 0.250000 0.500000 0.125331
#
# Coordination Sequence:
#
# PCOD9506430 Si02
#       6
#    16  16  16   8  16  16
#     4  11  23  43  71 100 140 182 233 291 347 429
#     4   9  20  37  63  95 126 171 225 283 339 419
#     4  10  22  43  70  99 140 184 229 287 356 422
#     4  10  19  40  62 100 130 168 235 284 346 416
#     4  11  27  46  66 105 146 186 240 292 355 427
#     4  10  20  42  65  89 133 177 229 287 348 408
#
# _framework density 23.517306999999999
#
# number of rings (size 3 to 8) (size 9 to 14) (size 15 to 20)
#    0.000    1.818    0.000    4.636    3.818    0.727 
#   19.636    0.909    0.000    0.000    0.000    0.000 
#    0.000    0.000    0.000    0.000    0.000    0.000 
#
# Total GULP energy -244988.194067 kJ/mol
# GULP energy per Si atom -5567.913502 kJ/mol
# Density = 2.346378 g / cm^3
# Si number density = 23.517307 Si / 1000 Ang^3
#
#
#
# Elastic Constant Matrix: (Units=GPa)
#
#
# Indices 1 2 3 4 5 6 
#
# 1 105.8276 13.7361 14.8326 0.0000 0.0000 0.0000
# 2 13.7361 32.6265 -1.3398 0.0000 0.0000 0.0000
# 3 14.8326 -1.3398 144.0708 0.0000 0.0000 0.0000
# 4 0.0000 0.0000 0.0000 24.6012 0.0000 0.0000
# 5 0.0000 0.0000 0.0000 0.0000 -19.7498 0.0000
# 6 0.0000 0.0000 0.0000 0.0000 0.0000 -13.4920
#
#
#
# Elastic Compliance Matrix: (Units=1/GPa)
#
#
# Indices 1 2 3 4 5 6 
#
# 1 0.010163 -0.004323 -0.001086 0.000000 0.000000 0.000000
# 2 -0.004323 0.032501 0.000747 0.000000 0.000000 0.000000
# 3 -0.001086 0.000747 0.007060 0.000000 0.000000 0.000000
# 4 0.000000 0.000000 0.000000 0.040648 0.000000 0.000000
# 5 0.000000 0.000000 0.000000 0.000000 -0.050633 0.000000
# 6 0.000000 0.000000 0.000000 0.000000 0.000000 -0.074118
#
#
# Mechanical properties :
#
#
# Convention : Reuss Voigt Hill
#
# Bulk Modulus (GPa) = 24.75337 37.44252 31.09795
# Shear Modulus (GPa) = -431.46326 15.29161 -208.08583
#
# Velocity S-wave (km/s) = -13.55967 2.55272 -9.41669
# Velocity P-wave (km/s) = 15.31680 4.96431 10.24597
#
# Compressibility (1/GPa) = 0.04039853
#
# Stress axis : x y z
#
# Youngs Moduli (GPa) = 98.39858 30.76855 141.64625
#
# Poissons Ratio (x) = 0.13302 0.15390
# Poissons Ratio (y) = 0.42540 -0.10586
# Poissons Ratio (z) = 0.10691 -0.02299
#
# Static dielectric constant tensor:
#      x y z
#    x 1.794380 0.000000 0.000000 
#    y 0.000000 2.044160 0.000000 
#    z 0.000000 0.000000 2.106790 
# 
# From -- ./inp_files/25275.got.cif
#   From: 2010.05.17/outbox.cif.g08.bks.cpg/sg68_13_cif.got.tgz:25275.got - 2010.06.03 18:57:09.
