data_PCOD9506931
_publ_section_title
;
Structure prediction by ZEFSAII (Michael W. Deem and Ramdas Pophale) SiO2 
 PCOD9506931
Probable space group: C C C A
;
_chemical_formula_sum "Si O2"
_cell_formula_units_Z 88
_cell_length_a 18.438588
_cell_length_b 9.527747
_cell_length_c 22.732196
_cell_angle_alpha 90.000000
_cell_angle_beta 90.000000
_cell_angle_gamma 90.000000
_cell_volume 3993.551309
_symmetry_space_group_name_H-M "C C C A"
_symmetry_group_IT_number 68
_space_group.IT_coordinate_system_code '2'
_symmetry_cell_setting 'orthorhombic'
loop_
_space_group_symop_operation_xyz
x,y,z
-x,1/2-y,z
x,1/2-y,1/2-z
-x,y,1/2-z
-x,-y,-z
x,1/2+y,-z
-x,1/2+y,1/2+z
x,-y,1/2+z
1/2+x,1/2+y,z
1/2-x,-y,z
1/2+x,-y,1/2-z
1/2-x,1/2+y,1/2-z
1/2-x,1/2-y,-z
1/2+x,y,-z
1/2-x,y,1/2+z
1/2+x,1/2-y,1/2+z
loop_
_atom_site_type_symbol
_atom_site_label
_atom_site_fract_x
_atom_site_fract_y
_atom_site_fract_z
Si Si1 0.162651 0.018173 0.278687
Si Si2 0.250000 0.000000 0.958770
Si Si3 0.832126 0.681740 0.667473
Si Si4 0.885711 0.616052 0.035525
Si Si5 0.320137 0.283761 0.136297
Si Si6 0.566595 0.331404 0.561255
O O1 0.143145 0.163209 0.311565
O O2 0.143673 0.058950 0.211841
O O3 0.360619 0.118090 0.315845
O O4 0.250000 0.000000 0.281034
O O5 0.283341 0.884350 0.913947
O O6 0.185925 0.941195 0.000667
O O7 0.745222 0.697602 0.666484
O O8 0.863853 0.663328 0.603356
O O9 0.867466 0.677984 0.098923
O O10 0.942639 0.491523 0.043732
O O11 0.915720 0.739300 0.995264
O O12 0.500000 0.250000 0.591290
#
# Coordination Sequence:
#
# PCOD9506931 Si02
#       6
#    16   8  16  16  16  16
#     4   9  19  35  59  89 131 162 200 263 336 396
#     4  12  18  38  62  98 136 168 198 284 344 410
#     4  10  20  37  60  92 127 168 211 262 332 396
#     4  12  24  39  63  94 132 171 218 268 343 399
#     4  11  19  36  62  96 134 168 206 282 345 404
#     4  12  26  43  61  88 130 177 228 264 314 394
#
# _framework density 22.035526000000001
#
# number of rings (size 3 to 8) (size 9 to 14) (size 15 to 20)
#    0.000    1.091    6.364    2.182    2.545    0.000 
#    0.000    1.818    0.000    0.000    0.000    0.000 
#   10.909    0.000    0.000    0.000    0.000    0.000 
#
# Total GULP energy -245769.123277 kJ/mol
# GULP energy per Si atom -5585.661893 kJ/mol
# Density = 2.198537 g / cm^3
# Si number density = 22.035526 Si / 1000 Ang^3
#
#
#
# Elastic Constant Matrix: (Units=GPa)
#
#
# Indices 1 2 3 4 5 6 
#
# 1 26.5275 30.4901 10.6445 0.0000 0.0000 0.0000
# 2 30.4901 136.0087 69.3422 0.0000 0.0000 0.0000
# 3 10.6445 69.3422 111.7132 0.0000 0.0000 0.0000
# 4 0.0000 0.0000 0.0000 61.6027 0.0000 0.0000
# 5 0.0000 0.0000 0.0000 0.0000 3.3118 0.0000
# 6 0.0000 0.0000 0.0000 0.0000 0.0000 19.6552
#
#
#
# Elastic Compliance Matrix: (Units=1/GPa)
#
#
# Indices 1 2 3 4 5 6 
#
# 1 0.051605 -0.013257 0.003312 0.000000 0.000000 0.000000
# 2 -0.013257 0.014162 -0.007528 0.000000 0.000000 0.000000
# 3 0.003312 -0.007528 0.013308 0.000000 0.000000 0.000000
# 4 0.000000 0.000000 0.000000 0.016233 0.000000 0.000000
# 5 0.000000 0.000000 0.000000 0.000000 0.301952 0.000000
# 6 0.000000 0.000000 0.000000 0.000000 0.000000 0.050877
#
#
# Mechanical properties :
#
#
# Convention : Reuss Voigt Hill
#
# Bulk Modulus (GPa) = 22.66028 55.02255 38.84142
# Shear Modulus (GPa) = 10.04431 27.83211 18.93821
#
# Velocity S-wave (km/s) = 2.13732 3.55781 2.93480
# Velocity P-wave (km/s) = 4.04928 6.47313 5.39899
#
# Compressibility (1/GPa) = 0.04413008
#
# Stress axis : x y z
#
# Youngs Moduli (GPa) = 19.37784 70.61027 75.14055
#
# Poissons Ratio (x) = 0.93610 -0.24885
# Poissons Ratio (y) = 0.25690 0.56562
# Poissons Ratio (z) = -0.06418 0.53152
#
# Static dielectric constant tensor:
#      x y z
#    x 1.827470 0.000000 0.000000 
#    y 0.000000 1.855790 0.000000 
#    z 0.000000 0.000000 1.820740 
# 
# From -- ./inp_files/46488.got.cif
#   From: 2010.05.17/outbox.cif.g08.bks.cpg/sg68_24_cif.got.tgz:46488.got - 2010.06.03 18:57:09.
