data_PCOD9506103
_publ_section_title
;
Structure prediction by ZEFSAII (Michael W. Deem and Ramdas Pophale) SiO2 
 PCOD9506103
Probable space group: C C C A
;
_chemical_formula_sum "Si O2"
_cell_formula_units_Z 80
_cell_length_a 27.027635
_cell_length_b 12.906320
_cell_length_c 10.264216
_cell_angle_alpha 90.000000
_cell_angle_beta 90.000000
_cell_angle_gamma 90.000000
_cell_volume 3580.438817
_symmetry_space_group_name_H-M "C C C A"
_symmetry_group_IT_number 68
_space_group.IT_coordinate_system_code '2'
_symmetry_cell_setting 'orthorhombic'
loop_
_space_group_symop_operation_xyz
x,y,z
-x,1/2-y,z
x,1/2-y,1/2-z
-x,y,1/2-z
-x,-y,-z
x,1/2+y,-z
-x,1/2+y,1/2+z
x,-y,1/2+z
1/2+x,1/2+y,z
1/2-x,-y,z
1/2+x,-y,1/2-z
1/2-x,1/2+y,1/2-z
1/2-x,1/2-y,-z
1/2+x,y,-z
1/2-x,y,1/2+z
1/2+x,1/2-y,1/2+z
loop_
_atom_site_type_symbol
_atom_site_label
_atom_site_fract_x
_atom_site_fract_y
_atom_site_fract_z
Si Si1 0.368761 0.116099 0.033958
Si Si2 0.351159 0.034583 0.305808
Si Si3 0.958637 0.571519 0.344474
Si Si4 0.476707 0.358374 0.570652
Si Si5 0.211743 0.282288 0.609891
O O1 0.354776 0.031677 0.147776
O O2 0.426929 0.145933 0.019498
O O3 0.336633 0.213930 0.076499
O O4 0.353910 0.068421 0.893438
O O5 0.306087 0.100761 0.364439
O O6 0.402009 0.099167 0.330680
O O7 0.960137 0.446353 0.327743
O O8 0.000000 0.617909 0.250000
O O9 0.977979 0.595445 0.487388
O O10 0.500000 0.250000 0.613249
O O11 0.232620 0.250000 0.750000
O O12 0.250000 0.250000 0.500000
#
# Coordination Sequence:
#
# PCOD9506103 Si02
#       5
#    16  16  16  16  16
#     4  10  21  39  61  90 118 161 201 253 306 365
#     4  10  21  39  61  89 125 157 201 251 305 367
#     4  10  19  34  55  82 122 157 197 246 296 359
#     4  10  20  33  55  84 118 161 204 241 296 361
#     4  10  23  42  64  88 120 156 206 259 313 371
#
# _framework density 22.343630000000001
#
# number of rings (size 3 to 8) (size 9 to 14) (size 15 to 20)
#    0.000    2.000    2.000    1.200    0.000    3.200 
#    0.000    4.000    0.000    0.000    0.000    0.000 
#    0.000    0.000    0.000    0.000    0.000    0.000 
#
# Total GULP energy -222692.329126 kJ/mol
# GULP energy per Si atom -5567.308228 kJ/mol
# Density = 2.229277 g / cm^3
# Si number density = 22.343630 Si / 1000 Ang^3
#
#
#
# Elastic Constant Matrix: (Units=GPa)
#
#
# Indices 1 2 3 4 5 6 
#
# 1 67.4101 2.4760 27.8990 0.0000 0.0000 0.0000
# 2 2.4760 65.8108 18.0356 0.0000 0.0000 0.0000
# 3 27.8990 18.0356 80.8318 0.0000 0.0000 0.0000
# 4 0.0000 0.0000 0.0000 12.3094 0.0000 0.0000
# 5 0.0000 0.0000 0.0000 0.0000 35.0229 0.0000
# 6 0.0000 0.0000 0.0000 0.0000 0.0000 16.9993
#
#
#
# Elastic Compliance Matrix: (Units=1/GPa)
#
#
# Indices 1 2 3 4 5 6 
#
# 1 0.017375 0.001054 -0.006232 0.000000 0.000000 0.000000
# 2 0.001054 0.016249 -0.003989 0.000000 0.000000 0.000000
# 3 -0.006232 -0.003989 0.015413 0.000000 0.000000 0.000000
# 4 0.000000 0.000000 0.000000 0.081239 0.000000 0.000000
# 5 0.000000 0.000000 0.000000 0.000000 0.028553 0.000000
# 6 0.000000 0.000000 0.000000 0.000000 0.000000 0.058826
#
#
# Mechanical properties :
#
#
# Convention : Reuss Voigt Hill
#
# Bulk Modulus (GPa) = 32.57146 34.54152 33.55649
# Shear Modulus (GPa) = 20.30684 23.90912 22.10798
#
# Velocity S-wave (km/s) = 3.01797 3.27473 3.14897
# Velocity P-wave (km/s) = 5.17237 5.45814 5.31717
#
# Compressibility (1/GPa) = 0.03070173
#
# Stress axis : x y z
#
# Youngs Moduli (GPa) = 57.55329 61.54335 64.88214
#
# Poissons Ratio (x) = -0.06488 0.40436
# Poissons Ratio (y) = -0.06068 0.25884
# Poissons Ratio (z) = 0.35869 0.24552
#
# Static dielectric constant tensor:
#      x y z
#    x 1.860210 0.000000 0.000000 
#    y 0.000000 1.908290 0.000000 
#    z 0.000000 0.000000 1.884120 
# 
# From -- ./inp_files/16237.got.cif
#   From: 2010.05.17/outbox.cif.g08.bks.cpg/sg68_9_cif.got.tgz:16237.got - 2010.06.03 18:57:09.
