data_PCOD9506057
_publ_section_title
;
Structure prediction by ZEFSAII (Michael W. Deem and Ramdas Pophale) SiO2 
 PCOD9506057
Probable space group: C C C A
;
_chemical_formula_sum "Si O2"
_cell_formula_units_Z 112
_cell_length_a 29.403608
_cell_length_b 18.341524
_cell_length_c 10.682977
_cell_angle_alpha 90.000000
_cell_angle_beta 90.000000
_cell_angle_gamma 90.000000
_cell_volume 5761.404083
_symmetry_space_group_name_H-M "C C C A"
_symmetry_group_IT_number 68
_space_group.IT_coordinate_system_code '2'
_symmetry_cell_setting 'orthorhombic'
loop_
_space_group_symop_operation_xyz
x,y,z
-x,1/2-y,z
x,1/2-y,1/2-z
-x,y,1/2-z
-x,-y,-z
x,1/2+y,-z
-x,1/2+y,1/2+z
x,-y,1/2+z
1/2+x,1/2+y,z
1/2-x,-y,z
1/2+x,-y,1/2-z
1/2-x,1/2+y,1/2-z
1/2-x,1/2-y,-z
1/2+x,y,-z
1/2-x,y,1/2+z
1/2+x,1/2-y,1/2+z
loop_
_atom_site_type_symbol
_atom_site_label
_atom_site_fract_x
_atom_site_fract_y
_atom_site_fract_z
Si Si1 0.551941 0.443395 0.887831
Si Si2 0.448059 0.943395 0.112169
Si Si3 0.887144 0.163061 0.512374
Si Si4 0.112856 0.163061 0.512374
Si Si5 0.713623 0.161211 0.395134
Si Si6 0.786377 0.661211 0.395134
Si Si7 0.449277 0.162052 0.250000
O O1 0.500000 0.413782 0.899070
O O2 0.555484 0.477723 0.750000
O O3 0.558154 0.500000 1.000000
O O4 0.590173 0.381754 0.901198
O O5 0.409827 0.881754 0.098802
O O6 0.887239 0.250000 0.489753
O O7 0.836545 0.141677 0.554814
O O8 0.920566 0.145513 0.627596
O O9 0.163455 0.141677 0.554814
O O10 0.079434 0.145513 0.627596
O O11 0.750000 0.137093 0.500000
O O12 0.715346 0.250000 0.391422
O O13 0.720644 0.137127 0.250000
O O14 0.453111 0.250000 0.250000
O O15 0.500000 0.131070 0.250000
#
# Coordination Sequence:
#
# PCOD9506057 Si02
#       7
#    16  16  16  16  16  16  16
#     4  10  23  40  57  80 112 151 189 227 278 341
#     4  10  23  40  57  80 112 151 189 227 278 341
#     4  10  19  33  55  83 113 145 187 234 280 331
#     4  10  19  33  55  83 113 145 187 234 280 331
#     4   9  17  30  49  76 111 148 186 230 280 334
#     4   9  17  30  49  76 111 148 186 230 280 334
#     4   9  16  26  46  78 110 139 173 219 274 325
#
# _framework density 19.439705
#
# number of rings (size 3 to 8) (size 9 to 14) (size 15 to 20)
#    0.000    2.429    1.429    0.857    2.000    3.429 
#    0.000    4.286    0.000    0.857    0.000    4.000 
#    0.000    0.000    0.000    0.000    0.000    0.000 
#
# Total GULP energy -312250.035393 kJ/mol
# GULP energy per Si atom -5575.893489 kJ/mol
# Density = 1.939546 g / cm^3
# Si number density = 19.439705 Si / 1000 Ang^3
#
#
#
# Elastic Constant Matrix: (Units=GPa)
#
#
# Indices 1 2 3 4 5 6 
#
# 1 164.1405 36.0417 81.0557 0.0000 0.0000 0.0000
# 2 36.0417 34.0591 36.0624 0.0000 0.0000 0.0000
# 3 81.0557 36.0624 149.5539 0.0000 0.0000 0.0000
# 4 0.0000 0.0000 0.0000 18.0196 0.0000 0.0000
# 5 0.0000 0.0000 0.0000 0.0000 10.1786 0.0000
# 6 0.0000 0.0000 0.0000 0.0000 0.0000 12.2614
#
#
#
# Elastic Compliance Matrix: (Units=1/GPa)
#
#
# Indices 1 2 3 4 5 6 
#
# 1 0.009134 -0.005941 -0.003518 0.000000 0.000000 0.000000
# 2 -0.005941 0.043291 -0.007219 0.000000 0.000000 0.000000
# 3 -0.003518 -0.007219 0.010334 0.000000 0.000000 0.000000
# 4 0.000000 0.000000 0.000000 0.055495 0.000000 0.000000
# 5 0.000000 0.000000 0.000000 0.000000 0.098245 0.000000
# 6 0.000000 0.000000 0.000000 0.000000 0.000000 0.081556
#
#
# Mechanical properties :
#
#
# Convention : Reuss Voigt Hill
#
# Bulk Modulus (GPa) = 34.00978 72.67479 53.34228
# Shear Modulus (GPa) = 14.65362 21.06485 17.85924
#
# Velocity S-wave (km/s) = 2.74852 3.29538 3.03429
# Velocity P-wave (km/s) = 5.25409 7.20730 6.30677
#
# Compressibility (1/GPa) = 0.02940331
#
# Stress axis : x y z
#
# Youngs Moduli (GPa) = 109.48019 23.09947 96.76805
#
# Poissons Ratio (x) = 0.13723 0.34043
# Poissons Ratio (y) = 0.65041 0.69857
# Poissons Ratio (z) = 0.38515 0.16676
#
# Static dielectric constant tensor:
#      x y z
#    x 1.662940 0.000000 0.000000 
#    y 0.000000 1.683350 0.000000 
#    z 0.000000 0.000000 1.694720 
# 
# From -- ./inp_files/16572.got.cif
#   From: 2010.05.17/outbox.cif.g08.bks.cpg/sg68_9_cif.got.tgz:16572.got - 2010.06.03 18:57:09.
