data_PCOD9506839
_publ_section_title
;
Structure prediction by ZEFSAII (Michael W. Deem and Ramdas Pophale) SiO2 
 PCOD9506839
Probable space group: C C C A
;
_chemical_formula_sum "Si O2"
_cell_formula_units_Z 120
_cell_length_a 15.718583
_cell_length_b 20.973883
_cell_length_c 15.549789
_cell_angle_alpha 90.000000
_cell_angle_beta 90.000000
_cell_angle_gamma 90.000000
_cell_volume 5126.450096
_symmetry_space_group_name_H-M "C C C A"
_symmetry_group_IT_number 68
_space_group.IT_coordinate_system_code '2'
_symmetry_cell_setting 'orthorhombic'
loop_
_space_group_symop_operation_xyz
x,y,z
-x,1/2-y,z
x,1/2-y,1/2-z
-x,y,1/2-z
-x,-y,-z
x,1/2+y,-z
-x,1/2+y,1/2+z
x,-y,1/2+z
1/2+x,1/2+y,z
1/2-x,-y,z
1/2+x,-y,1/2-z
1/2-x,1/2+y,1/2-z
1/2-x,1/2-y,-z
1/2+x,y,-z
1/2-x,y,1/2+z
1/2+x,1/2-y,1/2+z
loop_
_atom_site_type_symbol
_atom_site_label
_atom_site_fract_x
_atom_site_fract_y
_atom_site_fract_z
Si Si1 0.581343 0.284208 0.953393
Si Si2 0.197131 0.383479 0.149991
Si Si3 0.500000 0.550089 0.750000
Si Si4 0.698156 0.558627 0.518451
Si Si5 0.181384 0.166432 0.087576
Si Si6 0.583287 0.576579 0.201365
Si Si7 0.685437 0.682052 0.733425
Si Si8 0.054035 0.619767 0.394528
O O1 0.500000 0.250000 0.911173
O O2 0.630170 0.333894 0.892290
O O3 0.646006 0.225232 0.967090
O O4 0.548492 0.321281 0.038863
O O5 0.162791 0.411216 0.238287
O O6 0.282611 0.348165 0.177848
O O7 0.201355 0.440740 0.083504
O O8 0.434181 0.499026 0.792250
O O9 0.478683 0.592647 0.665373
O O10 0.750000 0.500000 0.556913
O O11 0.748448 0.623670 0.540619
O O12 0.601763 0.566008 0.548951
O O13 0.106632 0.116713 0.116420
O O14 0.231077 0.193091 0.172001
O O15 0.500000 0.604082 0.250000
O O16 0.643939 0.750000 0.750000
O O17 0.621912 0.638924 0.679220
#
# Coordination Sequence:
#
# PCOD9506839 Si02
#       8
#    16  16   8  16  16  16  16  16
#     4  11  23  39  61  92 132 160 205 258 317 392
#     4  10  21  38  60  99 117 154 211 262 325 360
#     4  10  22  44  61  85 126 166 220 246 308 386
#     4  10  22  39  61  90 126 161 212 261 312 375
#     4  10  20  38  62  90 122 161 202 260 328 356
#     4   9  20  37  65  86 119 161 205 257 310 374
#     4  10  20  36  62  89 121 155 199 262 307 371
#     4  10  24  40  61  87 124 172 207 254 310 378
#
# _framework density 23.408011999999999
#
# number of rings (size 3 to 8) (size 9 to 14) (size 15 to 20)
#    0.400    1.600    1.333    1.600    1.867    3.733 
#    2.400    4.667    0.000    0.000    0.000    0.000 
#    0.000    0.000    0.000    0.000    0.000    0.000 
#
# Total GULP energy -334338.197443 kJ/mol
# GULP energy per Si atom -5572.303291 kJ/mol
# Density = 2.335473 g / cm^3
# Si number density = 23.408012 Si / 1000 Ang^3
#
#
#
# Elastic Constant Matrix: (Units=GPa)
#
#
# Indices 1 2 3 4 5 6 
#
# 1 34.9291 9.3006 -7.9729 0.0000 0.0000 0.0000
# 2 9.3006 97.8353 25.1519 0.0000 0.0000 0.0000
# 3 -7.9729 25.1519 66.3054 0.0000 0.0000 0.0000
# 4 0.0000 0.0000 0.0000 16.6391 0.0000 0.0000
# 5 0.0000 0.0000 0.0000 0.0000 24.1731 0.0000
# 6 0.0000 0.0000 0.0000 0.0000 0.0000 23.9453
#
#
#
# Elastic Compliance Matrix: (Units=1/GPa)
#
#
# Indices 1 2 3 4 5 6 
#
# 1 0.031008 -0.004328 0.005370 0.000000 0.000000 0.000000
# 2 -0.004328 0.011930 -0.005046 0.000000 0.000000 0.000000
# 3 0.005370 -0.005046 0.017642 0.000000 0.000000 0.000000
# 4 0.000000 0.000000 0.000000 0.060099 0.000000 0.000000
# 5 0.000000 0.000000 0.000000 0.000000 0.041368 0.000000
# 6 0.000000 0.000000 0.000000 0.000000 0.000000 0.041762
#
#
# Mechanical properties :
#
#
# Convention : Reuss Voigt Hill
#
# Bulk Modulus (GPa) = 19.02167 28.00323 23.51245
# Shear Modulus (GPa) = 21.80166 24.45752 23.12959
#
# Velocity S-wave (km/s) = 3.05516 3.23590 3.14683
# Velocity P-wave (km/s) = 4.53752 5.09416 4.82387
#
# Compressibility (1/GPa) = 0.05257163
#
# Stress axis : x y z
#
# Youngs Moduli (GPa) = 32.24995 83.82257 56.68425
#
# Poissons Ratio (x) = 0.36282 -0.30442
# Poissons Ratio (y) = 0.13959 0.28602
# Poissons Ratio (z) = -0.17320 0.42296
#
# Static dielectric constant tensor:
#      x y z
#    x 1.916750 0.000000 0.000000 
#    y 0.000000 1.927000 0.000000 
#    z 0.000000 0.000000 1.933140 
# 
# From -- ./inp_files/32318.got.cif
#   From: 2010.05.17/outbox.cif.g08.bks.cpg/sg68_17_cif.got.tgz:32318.got - 2010.06.03 18:57:09.
