data_PCOD9506951
_publ_section_title
;
Structure prediction by ZEFSAII (Michael W. Deem and Ramdas Pophale) SiO2 
 PCOD9506951
Probable space group: C C C A
;
_chemical_formula_sum "Si O2"
_cell_formula_units_Z 96
_cell_length_a 11.484052
_cell_length_b 27.132982
_cell_length_c 14.717218
_cell_angle_alpha 90.000000
_cell_angle_beta 90.000000
_cell_angle_gamma 90.000000
_cell_volume 4585.834740
_symmetry_space_group_name_H-M "C C C A"
_symmetry_group_IT_number 68
_space_group.IT_coordinate_system_code '2'
_symmetry_cell_setting 'orthorhombic'
loop_
_space_group_symop_operation_xyz
x,y,z
-x,1/2-y,z
x,1/2-y,1/2-z
-x,y,1/2-z
-x,-y,-z
x,1/2+y,-z
-x,1/2+y,1/2+z
x,-y,1/2+z
1/2+x,1/2+y,z
1/2-x,-y,z
1/2+x,-y,1/2-z
1/2-x,1/2+y,1/2-z
1/2-x,1/2-y,-z
1/2+x,y,-z
1/2-x,y,1/2+z
1/2+x,1/2-y,1/2+z
loop_
_atom_site_type_symbol
_atom_site_label
_atom_site_fract_x
_atom_site_fract_y
_atom_site_fract_z
Si Si1 0.116550 0.491315 0.602777
Si Si2 0.207617 0.250000 0.250000
Si Si3 0.909817 0.364686 0.608352
Si Si4 0.026398 0.920674 0.548715
Si Si5 0.837879 0.820056 0.906528
Si Si6 0.500000 0.076371 0.250000
Si Si7 0.603680 0.711295 0.892208
O O1 0.250000 0.500000 0.620726
O O2 0.103823 0.460419 0.507973
O O3 0.057547 0.455724 0.673473
O O4 0.047973 0.542912 0.610568
O O5 0.138154 0.212298 0.183953
O O6 0.291902 0.278709 0.177809
O O7 0.801068 0.329472 0.594292
O O8 0.930892 0.397650 0.520303
O O9 0.896025 0.394674 0.700078
O O10 0.035295 0.339390 0.624248
O O11 0.097300 0.873516 0.587613
O O12 0.864311 0.791160 0.000689
O O13 0.500000 0.750000 0.876586
#
# Coordination Sequence:
#
# PCOD9506951 Si02
#       7
#    16   8  16  16  16   8  16
#     4  10  20  39  65  89 128 167 216 262 343 401
#     4  12  23  38  65  98 128 180 227 285 328 392
#     4  10  20  37  62  87 123 162 222 265 326 383
#     4   9  21  39  61  93 121 171 213 270 323 415
#     4  11  23  39  65  93 132 170 222 272 340 382
#     4  10  22  36  59  94 120 155 214 278 314 404
#     4  11  23  40  66  90 127 177 232 268 316 390
#
# _framework density 20.93403
#
# number of rings (size 3 to 8) (size 9 to 14) (size 15 to 20)
#    0.000    1.667    1.667    2.750    0.000    1.333 
#    0.000    3.750    3.667    0.000    0.000    0.000 
#    0.000    0.000    0.000    0.000    0.000    0.000 
#
# Total GULP energy -267603.551145 kJ/mol
# GULP energy per Si atom -5575.073982 kJ/mol
# Density = 2.088638 g / cm^3
# Si number density = 20.934030 Si / 1000 Ang^3
#
#
#
# Elastic Constant Matrix: (Units=GPa)
#
#
# Indices 1 2 3 4 5 6 
#
# 1 43.8357 -2.2916 20.1661 0.0000 0.0000 0.0000
# 2 -2.2916 66.9802 36.2832 0.0000 0.0000 0.0000
# 3 20.1661 36.2832 98.3099 0.0000 0.0000 0.0000
# 4 0.0000 0.0000 0.0000 36.6357 0.0000 0.0000
# 5 0.0000 0.0000 0.0000 0.0000 14.3334 0.0000
# 6 0.0000 0.0000 0.0000 0.0000 0.0000 34.3731
#
#
#
# Elastic Compliance Matrix: (Units=1/GPa)
#
#
# Indices 1 2 3 4 5 6 
#
# 1 0.026364 0.004789 -0.007175 0.000000 0.000000 0.000000
# 2 0.004789 0.019530 -0.008190 0.000000 0.000000 0.000000
# 3 -0.007175 -0.008190 0.014667 0.000000 0.000000 0.000000
# 4 0.000000 0.000000 0.000000 0.027296 0.000000 0.000000
# 5 0.000000 0.000000 0.000000 0.000000 0.069767 0.000000
# 6 0.000000 0.000000 0.000000 0.000000 0.000000 0.029093
#
#
# Mechanical properties :
#
#
# Convention : Reuss Voigt Hill
#
# Bulk Modulus (GPa) = 25.37624 35.27126 30.32375
# Shear Modulus (GPa) = 22.62385 27.39963 25.01174
#
# Velocity S-wave (km/s) = 3.29100 3.62174 3.46032
# Velocity P-wave (km/s) = 5.15647 5.86299 5.52104
#
# Compressibility (1/GPa) = 0.03940694
#
# Stress axis : x y z
#
# Youngs Moduli (GPa) = 37.93084 51.20232 68.18201
#
# Poissons Ratio (x) = -0.24520 0.48923
# Poissons Ratio (y) = -0.18165 0.55844
# Poissons Ratio (z) = 0.27217 0.41937
#
# Static dielectric constant tensor:
#      x y z
#    x 1.759380 0.000000 0.000000 
#    y 0.000000 1.840930 0.000000 
#    z 0.000000 0.000000 1.779860 
# 
# From -- ./inp_files/21207.got.cif
#   From: 2010.05.17/outbox.cif.g08.bks.cpg/sg68_11_cif.got.tgz:21207.got - 2010.06.03 18:57:09.
