data_PCOD9506228
_publ_section_title
;
Structure prediction by ZEFSAII (Michael W. Deem and Ramdas Pophale) SiO2 
 PCOD9506228
Probable space group: C C C A
;
_chemical_formula_sum "Si O2"
_cell_formula_units_Z 88
_cell_length_a 24.106287
_cell_length_b 9.264024
_cell_length_c 19.617409
_cell_angle_alpha 90.000000
_cell_angle_beta 90.000000
_cell_angle_gamma 90.000000
_cell_volume 4380.983737
_symmetry_space_group_name_H-M "C C C A"
_symmetry_group_IT_number 68
_space_group.IT_coordinate_system_code '2'
_symmetry_cell_setting 'orthorhombic'
loop_
_space_group_symop_operation_xyz
x,y,z
-x,1/2-y,z
x,1/2-y,1/2-z
-x,y,1/2-z
-x,-y,-z
x,1/2+y,-z
-x,1/2+y,1/2+z
x,-y,1/2+z
1/2+x,1/2+y,z
1/2-x,-y,z
1/2+x,-y,1/2-z
1/2-x,1/2+y,1/2-z
1/2-x,1/2-y,-z
1/2+x,y,-z
1/2-x,y,1/2+z
1/2+x,1/2-y,1/2+z
loop_
_atom_site_type_symbol
_atom_site_label
_atom_site_fract_x
_atom_site_fract_y
_atom_site_fract_z
Si Si1 0.629334 0.750000 0.250000
Si Si2 0.627222 0.591372 0.026935
Si Si3 0.276659 0.842974 0.938702
Si Si4 0.969351 0.594092 0.814165
Si Si5 0.212351 0.877384 0.643592
Si Si6 0.448825 0.145198 0.962103
O O1 0.591038 0.869274 0.213906
O O2 0.666547 0.822752 0.306014
O O3 0.677950 0.557121 0.078507
O O4 0.597367 0.734090 0.055569
O O5 0.658707 0.634913 0.956679
O O6 0.582139 0.465915 0.013119
O O7 0.254309 0.751328 0.875819
O O8 0.250000 0.000000 0.936491
O O9 0.250000 0.750000 0.000000
O O10 0.966269 0.554489 0.894145
O O11 0.000000 0.750000 0.819689
O O12 0.000000 0.516169 0.750000
O O13 0.250000 0.000000 0.674734
O O14 0.500000 0.250000 0.985484
#
# Coordination Sequence:
#
# PCOD9506228 Si02
#       6
#     8  16  16  16  16  16
#     4  10  19  36  56  80 114 156 193 238 286 344
#     4  11  20  36  58  84 121 148 186 242 304 350
#     4  10  20  35  56  83 117 161 194 233 295 362
#     4   8  17  35  58  80 108 146 198 230 279 351
#     4  11  22  37  56  85 121 156 201 246 298 357
#     4  11  21  35  57  90 114 145 190 246 298 351
#
# _framework density 20.086814
#
# number of rings (size 3 to 8) (size 9 to 14) (size 15 to 20)
#    0.000    2.000    1.818    6.000    0.000    0.727 
#    0.000    0.000    0.000    0.000    0.000    1.273 
#    0.000    0.000    0.000    0.000    0.000    0.000 
#
# Total GULP energy -244943.339882 kJ/mol
# GULP energy per Si atom -5566.894088 kJ/mol
# Density = 2.004110 g / cm^3
# Si number density = 20.086814 Si / 1000 Ang^3
#
#
#
# Elastic Constant Matrix: (Units=GPa)
#
#
# Indices 1 2 3 4 5 6 
#
# 1 112.3164 28.7151 34.9167 0.0000 0.0000 0.0000
# 2 28.7151 76.9947 18.9085 0.0000 0.0000 0.0000
# 3 34.9167 18.9085 57.4589 0.0000 0.0000 0.0000
# 4 0.0000 0.0000 0.0000 5.2548 0.0000 0.0000
# 5 0.0000 0.0000 0.0000 0.0000 51.6923 0.0000
# 6 0.0000 0.0000 0.0000 0.0000 0.0000 26.7544
#
#
#
# Elastic Compliance Matrix: (Units=1/GPa)
#
#
# Indices 1 2 3 4 5 6 
#
# 1 0.011507 -0.002801 -0.006071 0.000000 0.000000 0.000000
# 2 -0.002801 0.014811 -0.003172 0.000000 0.000000 0.000000
# 3 -0.006071 -0.003172 0.022137 0.000000 0.000000 0.000000
# 4 0.000000 0.000000 0.000000 0.190303 0.000000 0.000000
# 5 0.000000 0.000000 0.000000 0.000000 0.019345 0.000000
# 6 0.000000 0.000000 0.000000 0.000000 0.000000 0.037377
#
#
# Mechanical properties :
#
#
# Convention : Reuss Voigt Hill
#
# Bulk Modulus (GPa) = 41.03803 45.76119 43.39961
# Shear Modulus (GPa) = 15.25831 27.68895 21.47363
#
# Velocity S-wave (km/s) = 2.75911 3.71680 3.27317
# Velocity P-wave (km/s) = 5.53398 6.42266 5.99481
#
# Compressibility (1/GPa) = 0.02436764
#
# Stress axis : x y z
#
# Youngs Moduli (GPa) = 86.90601 67.51548 45.17368
#
# Poissons Ratio (x) = 0.18908 0.27424
# Poissons Ratio (y) = 0.24338 0.14330
# Poissons Ratio (z) = 0.52759 0.21418
#
# Static dielectric constant tensor:
#      x y z
#    x 1.797080 0.000000 0.000000 
#    y 0.000000 1.707780 0.000000 
#    z 0.000000 0.000000 1.815690 
# 
# From -- ./inp_files/40761.got.cif
#   From: 2010.05.17/outbox.cif.g08.bks.cpg/sg68_21_cif.got.tgz:40761.got - 2010.06.03 18:57:09.
