data_PCOD9506685
_publ_section_title
;
Structure prediction by ZEFSAII (Michael W. Deem and Ramdas Pophale) SiO2 
 PCOD9506685
Probable space group: C C C A
;
_chemical_formula_sum "Si O2"
_cell_formula_units_Z 56
_cell_length_a 13.954655
_cell_length_b 15.696440
_cell_length_c 12.450001
_cell_angle_alpha 90.000000
_cell_angle_beta 90.000000
_cell_angle_gamma 90.000000
_cell_volume 2727.028360
_symmetry_space_group_name_H-M "C C C A"
_symmetry_group_IT_number 68
_space_group.IT_coordinate_system_code '2'
_symmetry_cell_setting 'orthorhombic'
loop_
_space_group_symop_operation_xyz
x,y,z
-x,1/2-y,z
x,1/2-y,1/2-z
-x,y,1/2-z
-x,-y,-z
x,1/2+y,-z
-x,1/2+y,1/2+z
x,-y,1/2+z
1/2+x,1/2+y,z
1/2-x,-y,z
1/2+x,-y,1/2-z
1/2-x,1/2+y,1/2-z
1/2-x,1/2-y,-z
1/2+x,y,-z
1/2-x,y,1/2+z
1/2+x,1/2-y,1/2+z
loop_
_atom_site_type_symbol
_atom_site_label
_atom_site_fract_x
_atom_site_fract_y
_atom_site_fract_z
Si Si1 0.000000 0.496322 0.750000
Si Si2 0.840012 0.750000 0.750000
Si Si3 0.184245 0.920243 0.848649
Si Si4 0.000000 0.250000 0.430785
Si Si5 0.436677 0.580210 0.959148
O O1 0.078672 0.558031 0.697023
O O2 0.057935 0.437047 0.833080
O O3 0.783862 0.666496 0.790533
O O4 0.909922 0.733461 0.648179
O O5 0.250000 0.000000 0.825092
O O6 0.164410 0.916526 0.977160
O O7 0.984927 0.332167 0.504300
O O8 0.500000 0.500000 0.000000
#
# Coordination Sequence:
#
# PCOD9506685 Si02
#       5
#     8   8  16   8  16
#     4  10  20  36  58  82 116 152 186 238 298 342
#     4   9  16  32  56  81 110 152 196 231 280 337
#     4  10  20  35  58  85 115 152 197 241 282 340
#     4   9  16  31  58  82 106 147 196 237 278 342
#     4   9  18  33  53  79 108 142 186 235 286 336
#
# _framework density 20.535173
#
# number of rings (size 3 to 8) (size 9 to 14) (size 15 to 20)
#    0.000    2.571    0.000    5.143    0.000    1.714 
#    0.000    5.714    0.000   18.857    0.000    0.000 
#    0.000    0.000    0.000    0.000    0.000    0.000 
#
# Total GULP energy -155979.959655 kJ/mol
# GULP energy per Si atom -5570.712845 kJ/mol
# Density = 2.048843 g / cm^3
# Si number density = 20.535173 Si / 1000 Ang^3
#
#
#
# Elastic Constant Matrix: (Units=GPa)
#
#
# Indices 1 2 3 4 5 6 
#
# 1 26.1588 13.9780 -9.6475 0.0000 0.0000 0.0000
# 2 13.9780 165.3989 35.8740 0.0000 0.0000 0.0000
# 3 -9.6475 35.8740 87.4321 0.0000 0.0000 0.0000
# 4 0.0000 0.0000 0.0000 24.5529 0.0000 0.0000
# 5 0.0000 0.0000 0.0000 0.0000 7.4786 0.0000
# 6 0.0000 0.0000 0.0000 0.0000 0.0000 33.9028
#
#
#
# Elastic Compliance Matrix: (Units=1/GPa)
#
#
# Indices 1 2 3 4 5 6 
#
# 1 0.043555 -0.005185 0.006933 0.000000 0.000000 0.000000
# 2 -0.005185 0.007254 -0.003548 0.000000 0.000000 0.000000
# 3 0.006933 -0.003548 0.013658 0.000000 0.000000 0.000000
# 4 0.000000 0.000000 0.000000 0.040728 0.000000 0.000000
# 5 0.000000 0.000000 0.000000 0.000000 0.133714 0.000000
# 6 0.000000 0.000000 0.000000 0.000000 0.000000 0.029496
#
#
# Mechanical properties :
#
#
# Convention : Reuss Voigt Hill
#
# Bulk Modulus (GPa) = 16.42894 39.93323 28.18109
# Shear Modulus (GPa) = 17.10599 29.10589 23.10594
#
# Velocity S-wave (km/s) = 2.88932 3.76888 3.35802
# Velocity P-wave (km/s) = 4.37592 6.19901 5.36546
#
# Compressibility (1/GPa) = 0.06086819
#
# Stress axis : x y z
#
# Youngs Moduli (GPa) = 22.95922 137.85923 73.21492
#
# Poissons Ratio (x) = 0.71476 -0.50762
# Poissons Ratio (y) = 0.11904 0.25979
# Poissons Ratio (z) = -0.15918 0.48918
#
# Static dielectric constant tensor:
#      x y z
#    x 1.740540 0.000000 0.000000 
#    y 0.000000 1.738680 0.000000 
#    z 0.000000 0.000000 1.837230 
# 
# From -- ./inp_files/12550.got.cif
#   From: 2010.05.17/outbox.cif.g08.bks.cpg/sg68_7_cif.got.tgz:12550.got - 2010.06.03 18:57:09.
