data_PCOD9506477
_publ_section_title
;
Structure prediction by ZEFSAII (Michael W. Deem and Ramdas Pophale) SiO2 
 PCOD9506477
Probable space group: C C C A
;
_chemical_formula_sum "Si O2"
_cell_formula_units_Z 56
_cell_length_a 5.307035
_cell_length_b 18.555219
_cell_length_c 27.428750
_cell_angle_alpha 90.000000
_cell_angle_beta 90.000000
_cell_angle_gamma 90.000000
_cell_volume 2700.996693
_symmetry_space_group_name_H-M "C C C A"
_symmetry_group_IT_number 68
_space_group.IT_coordinate_system_code '2'
_symmetry_cell_setting 'orthorhombic'
loop_
_space_group_symop_operation_xyz
x,y,z
-x,1/2-y,z
x,1/2-y,1/2-z
-x,y,1/2-z
-x,-y,-z
x,1/2+y,-z
-x,1/2+y,1/2+z
x,-y,1/2+z
1/2+x,1/2+y,z
1/2-x,-y,z
1/2+x,-y,1/2-z
1/2-x,1/2+y,1/2-z
1/2-x,1/2-y,-z
1/2+x,y,-z
1/2-x,y,1/2+z
1/2+x,1/2-y,1/2+z
loop_
_atom_site_type_symbol
_atom_site_label
_atom_site_fract_x
_atom_site_fract_y
_atom_site_fract_z
Si Si1 0.999104 0.638841 0.136390
Si Si2 0.482883 0.857247 0.305281
Si Si3 0.750000 0.000000 0.666086
Si Si4 0.491584 0.165664 0.022946
O O1 0.242863 0.672771 0.164171
O O2 0.068414 0.553428 0.136380
O O3 0.744049 0.651351 0.166287
O O4 0.974931 0.662842 0.081031
O O5 0.500000 0.831301 0.250000
O O6 0.414092 0.942750 0.303984
O O7 0.500000 0.250000 0.008164
O O8 0.248434 0.132413 0.997249
#
# Coordination Sequence:
#
# PCOD9506477 Si02
#       4
#    16  16   8  16
#     4  10  20  33  52  80 109 132 178 217 258 304
#     4  10  20  31  53  79 110 144 175 204 249 311
#     4   8  22  28  54  76 112 140 172 212 250 312
#     4  10  21  39  61  78  96 133 182 224 265 312
#
# _framework density 20.733084999999999
#
# number of rings (size 3 to 8) (size 9 to 14) (size 15 to 20)
#    1.714    0.571    0.000    3.429    4.000    0.000 
#    0.000    1.429    0.000    5.143    0.000    0.000 
#    0.000    0.000    0.000    0.000    0.000    0.000 
#
# Total GULP energy -155955.109655 kJ/mol
# GULP energy per Si atom -5569.825345 kJ/mol
# Density = 2.068590 g / cm^3
# Si number density = 20.733085 Si / 1000 Ang^3
#
#
#
# Elastic Constant Matrix: (Units=GPa)
#
#
# Indices 1 2 3 4 5 6 
#
# 1 230.3826 1.2742 99.1934 0.0000 0.0000 0.0000
# 2 1.2742 55.9423 -32.1274 0.0000 0.0000 0.0000
# 3 99.1934 -32.1274 107.6504 0.0000 0.0000 0.0000
# 4 0.0000 0.0000 0.0000 23.9032 0.0000 0.0000
# 5 0.0000 0.0000 0.0000 0.0000 27.9777 0.0000
# 6 0.0000 0.0000 0.0000 0.0000 0.0000 -18.2611
#
#
#
# Elastic Compliance Matrix: (Units=1/GPa)
#
#
# Indices 1 2 3 4 5 6 
#
# 1 0.008445 -0.005625 -0.009460 0.000000 0.000000 0.000000
# 2 -0.005625 0.025320 0.012740 0.000000 0.000000 0.000000
# 3 -0.009460 0.012740 0.021809 0.000000 0.000000 0.000000
# 4 0.000000 0.000000 0.000000 0.041835 0.000000 0.000000
# 5 0.000000 0.000000 0.000000 0.000000 0.035743 0.000000
# 6 0.000000 0.000000 0.000000 0.000000 0.000000 -0.054761
#
#
# Mechanical properties :
#
#
# Convention : Reuss Voigt Hill
#
# Bulk Modulus (GPa) = 19.65305 58.96174 39.30739
# Shear Modulus (GPa) = 49.97835 28.43296 39.20566
#
# Velocity S-wave (km/s) = 4.91507 3.70723 4.35325
# Velocity P-wave (km/s) = 6.45835 6.84288 6.65339
#
# Compressibility (1/GPa) = 0.05088269
#
# Stress axis : x y z
#
# Youngs Moduli (GPa) = 118.41328 39.49394 45.85312
#
# Poissons Ratio (x) = 0.22217 0.43379
# Poissons Ratio (y) = 0.66613 -0.58418
# Poissons Ratio (z) = 1.12024 -0.50316
#
# Static dielectric constant tensor:
#      x y z
#    x 1.709660 0.000000 0.000000 
#    y 0.000000 1.759260 0.000000 
#    z 0.000000 0.000000 1.668430 
# 
# From -- ./inp_files/35021.got.cif
#   From: 2010.05.17/outbox.cif.g08.bks.cpg/sg68_18_cif.got.tgz:35021.got - 2010.06.03 18:57:09.
