data_PCOD9506599
_publ_section_title
;
Structure prediction by ZEFSAII (Michael W. Deem and Ramdas Pophale) SiO2 
 PCOD9506599
Probable space group: C C C A
;
_chemical_formula_sum "Si O2"
_cell_formula_units_Z 104
_cell_length_a 28.836803
_cell_length_b 9.118407
_cell_length_c 18.462234
_cell_angle_alpha 90.000000
_cell_angle_beta 90.000000
_cell_angle_gamma 90.000000
_cell_volume 4854.565160
_symmetry_space_group_name_H-M "C C C A"
_symmetry_group_IT_number 68
_space_group.IT_coordinate_system_code '2'
_symmetry_cell_setting 'orthorhombic'
loop_
_space_group_symop_operation_xyz
x,y,z
-x,1/2-y,z
x,1/2-y,1/2-z
-x,y,1/2-z
-x,-y,-z
x,1/2+y,-z
-x,1/2+y,1/2+z
x,-y,1/2+z
1/2+x,1/2+y,z
1/2-x,-y,z
1/2+x,-y,1/2-z
1/2-x,1/2+y,1/2-z
1/2-x,1/2-y,-z
1/2+x,y,-z
1/2-x,y,1/2+z
1/2+x,1/2-y,1/2+z
loop_
_atom_site_type_symbol
_atom_site_label
_atom_site_fract_x
_atom_site_fract_y
_atom_site_fract_z
Si Si1 0.050352 0.184479 0.362522
Si Si2 0.895357 0.414862 0.908302
Si Si3 0.704421 0.416695 0.066082
Si Si4 0.204900 0.435066 0.591876
Si Si5 0.500000 0.492910 0.750000
Si Si6 0.958257 0.335035 0.615475
Si Si7 0.609295 0.427176 0.573176
O O1 0.090044 0.305797 0.371926
O O2 0.000000 0.250000 0.384741
O O3 0.039257 0.109219 0.285504
O O4 0.069592 0.049797 0.409034
O O5 0.845886 0.455520 0.874580
O O6 0.920047 0.285614 0.865660
O O7 0.885659 0.364674 0.991470
O O8 0.750000 0.500000 0.095767
O O9 0.708649 0.240624 0.075629
O O10 0.656447 0.488220 0.094448
O O11 0.703156 0.464126 0.981126
O O12 0.250000 0.500000 0.631681
O O13 0.520524 0.589821 0.686052
O O14 0.932125 0.456183 0.570281
O O15 0.000000 0.250000 0.576452
#
# Coordination Sequence:
#
# PCOD9506599 Si02
#       7
#    16  16  16  16   8  16  16
#     4  12  25  41  61  84 122 164 208 261 301 364
#     4  11  24  38  60  94 128 163 203 245 317 376
#     4  10  20  34  56  85 127 168 199 236 292 366
#     4  10  20  34  56  87 126 168 199 236 290 368
#     4  12  26  46  60  84 118 160 226 260 304 368
#     4  12  23  42  62  83 123 164 208 261 302 362
#     4  11  24  38  59  93 130 161 204 245 317 378
#
# _framework density 21.423134000000001
#
# number of rings (size 3 to 8) (size 9 to 14) (size 15 to 20)
#    0.000    0.923    4.615    3.231    8.615    3.692 
#    0.000    0.000    0.000    0.000    0.000    1.077 
#    9.231    0.000    0.000    0.000    0.000    0.000 
#
# Total GULP energy -290117.286151 kJ/mol
# GULP energy per Si atom -5579.178580 kJ/mol
# Density = 2.137437 g / cm^3
# Si number density = 21.423134 Si / 1000 Ang^3
#
#
#
# Elastic Constant Matrix: (Units=GPa)
#
#
# Indices 1 2 3 4 5 6 
#
# 1 123.9106 39.1284 18.9670 0.0000 0.0000 0.0000
# 2 39.1284 130.3145 19.1485 0.0000 0.0000 0.0000
# 3 18.9670 19.1485 31.8304 0.0000 0.0000 0.0000
# 4 0.0000 0.0000 0.0000 33.5224 0.0000 0.0000
# 5 0.0000 0.0000 0.0000 0.0000 166.3860 0.0000
# 6 0.0000 0.0000 0.0000 0.0000 0.0000 48.4870
#
#
#
# Elastic Compliance Matrix: (Units=1/GPa)
#
#
# Indices 1 2 3 4 5 6 
#
# 1 0.009421 -0.002198 -0.004292 0.000000 0.000000 0.000000
# 2 -0.002198 0.008931 -0.004063 0.000000 0.000000 0.000000
# 3 -0.004292 -0.004063 0.036418 0.000000 0.000000 0.000000
# 4 0.000000 0.000000 0.000000 0.029831 0.000000 0.000000
# 5 0.000000 0.000000 0.000000 0.000000 0.006010 0.000000
# 6 0.000000 0.000000 0.000000 0.000000 0.000000 0.020624
#
#
# Mechanical properties :
#
#
# Convention : Reuss Voigt Hill
#
# Bulk Modulus (GPa) = 29.70452 48.94926 39.32689
# Shear Modulus (GPa) = 34.82827 63.59984 49.21405
#
# Velocity S-wave (km/s) = 4.03641 5.45453 4.79815
# Velocity P-wave (km/s) = 5.96818 7.90997 7.00667
#
# Compressibility (1/GPa) = 0.03366491
#
# Stress axis : x y z
#
# Youngs Moduli (GPa) = 106.14111 111.97249 27.45916
#
# Poissons Ratio (x) = 0.24615 0.11784
# Poissons Ratio (y) = 0.23333 0.11156
# Poissons Ratio (z) = 0.45551 0.45490
#
# Static dielectric constant tensor:
#      x y z
#    x 1.851800 0.000000 0.000000 
#    y 0.000000 1.837200 0.000000 
#    z 0.000000 0.000000 1.742040 
# 
# From -- ./inp_files/47267.got.cif
#   From: 2010.05.17/outbox.cif.g08.bks.cpg/sg68_24_cif.got.tgz:47267.got - 2010.06.03 18:57:09.
