data_PCOD9506351
_publ_section_title
;
Structure prediction by ZEFSAII (Michael W. Deem and Ramdas Pophale) SiO2 
 PCOD9506351
Probable space group: C C C A
;
_chemical_formula_sum "Si O2"
_cell_formula_units_Z 112
_cell_length_a 14.613921
_cell_length_b 11.079252
_cell_length_c 28.233254
_cell_angle_alpha 90.000000
_cell_angle_beta 90.000000
_cell_angle_gamma 90.000000
_cell_volume 4571.283239
_symmetry_space_group_name_H-M "C C C A"
_symmetry_group_IT_number 68
_space_group.IT_coordinate_system_code '2'
_symmetry_cell_setting 'orthorhombic'
loop_
_space_group_symop_operation_xyz
x,y,z
-x,1/2-y,z
x,1/2-y,1/2-z
-x,y,1/2-z
-x,-y,-z
x,1/2+y,-z
-x,1/2+y,1/2+z
x,-y,1/2+z
1/2+x,1/2+y,z
1/2-x,-y,z
1/2+x,-y,1/2-z
1/2-x,1/2+y,1/2-z
1/2-x,1/2-y,-z
1/2+x,y,-z
1/2-x,y,1/2+z
1/2+x,1/2-y,1/2+z
loop_
_atom_site_type_symbol
_atom_site_label
_atom_site_fract_x
_atom_site_fract_y
_atom_site_fract_z
Si Si1 0.967762 0.047027 0.166053
Si Si2 0.346886 0.058269 0.159401
Si Si3 0.344159 0.038820 0.556791
Si Si4 0.721300 0.796876 0.051481
Si Si5 0.198443 0.125885 0.279931
Si Si6 0.335948 0.171772 0.359567
Si Si7 0.469416 0.618893 0.057740
O O1 0.914047 0.923904 0.151999
O O2 0.070237 0.015448 0.181722
O O3 0.907505 0.107166 0.206859
O O4 0.974830 0.114051 0.115337
O O5 0.360552 0.200202 0.164053
O O6 0.250000 0.000000 0.171473
O O7 0.350347 0.043513 0.102715
O O8 0.325157 0.176168 0.573789
O O9 0.447452 0.036355 0.538413
O O10 0.250000 0.000000 0.531139
O O11 0.806139 0.828160 0.085329
O O12 0.638613 0.892673 0.047740
O O13 0.750000 0.750000 0.000000
O O14 0.213105 0.250000 0.250000
O O15 0.243112 0.141249 0.331929
O O16 0.250000 0.000000 0.264242
O O17 0.500000 0.750000 0.039227
#
# Coordination Sequence:
#
# PCOD9506351 Si02
#       7
#    16  16  16  16  16  16  16
#     4  10  21  38  68 104 135 175 236 291 353 419
#     4  10  19  37  68  97 129 188 231 282 350 423
#     4   9  17  36  58  85 122 170 238 276 341 412
#     4  11  21  37  59  92 136 187 237 291 353 431
#     4  10  23  44  72 108 147 182 231 292 365 439
#     4  11  21  40  65  99 141 183 229 284 364 424
#     4   9  19  36  61  86 123 178 227 282 347 407
#
# _framework density 24.500778
#
# number of rings (size 3 to 8) (size 9 to 14) (size 15 to 20)
#    0.000    2.000    4.286    0.429    0.000    0.571 
#    2.571    5.000    0.000   21.000    0.000    0.000 
#    0.000    0.000    0.000    0.000    0.000    0.000 
#
# Total GULP energy -312391.030690 kJ/mol
# GULP energy per Si atom -5578.411262 kJ/mol
# Density = 2.444501 g / cm^3
# Si number density = 24.500778 Si / 1000 Ang^3
#
#
#
# Elastic Constant Matrix: (Units=GPa)
#
#
# Indices 1 2 3 4 5 6 
#
# 1 171.4873 26.9977 38.7963 0.0000 0.0000 0.0000
# 2 26.9977 93.5933 20.0298 0.0000 0.0000 0.0000
# 3 38.7963 20.0298 88.8135 0.0000 0.0000 0.0000
# 4 0.0000 0.0000 0.0000 15.8592 0.0000 0.0000
# 5 0.0000 0.0000 0.0000 0.0000 129.6640 0.0000
# 6 0.0000 0.0000 0.0000 0.0000 0.0000 43.5568
#
#
#
# Elastic Compliance Matrix: (Units=1/GPa)
#
#
# Indices 1 2 3 4 5 6 
#
# 1 0.006631 -0.001358 -0.002590 0.000000 0.000000 0.000000
# 2 -0.001358 0.011505 -0.002001 0.000000 0.000000 0.000000
# 3 -0.002590 -0.002001 0.012842 0.000000 0.000000 0.000000
# 4 0.000000 0.000000 0.000000 0.063055 0.000000 0.000000
# 5 0.000000 0.000000 0.000000 0.000000 0.007712 0.000000
# 6 0.000000 0.000000 0.000000 0.000000 0.000000 0.022959
#
#
# Mechanical properties :
#
#
# Convention : Reuss Voigt Hill
#
# Bulk Modulus (GPa) = 52.41561 58.39355 55.40458
# Shear Modulus (GPa) = 34.97404 55.68737 45.33071
#
# Velocity S-wave (km/s) = 3.78228 4.77265 4.30603
# Velocity P-wave (km/s) = 6.36507 7.36586 6.88368
#
# Compressibility (1/GPa) = 0.01907829
#
# Stress axis : x y z
#
# Youngs Moduli (GPa) = 150.80168 86.92127 77.86708
#
# Poissons Ratio (x) = 0.11808 0.20170
# Poissons Ratio (y) = 0.20486 0.15583
# Poissons Ratio (z) = 0.39063 0.17395
#
# Static dielectric constant tensor:
#      x y z
#    x 2.006500 0.000000 0.000000 
#    y 0.000000 2.034330 0.000000 
#    z 0.000000 0.000000 1.951960 
# 
# From -- ./inp_files/55283.got.cif
#   From: 2010.05.17/outbox.cif.g08.bks.cpg/sg68_28_cif.got.tgz:55283.got - 2010.06.03 18:57:09.
