data_PCOD9506071
_publ_section_title
;
Structure prediction by ZEFSAII (Michael W. Deem and Ramdas Pophale) SiO2 
 PCOD9506071
Probable space group: C C C A
;
_chemical_formula_sum "Si O2"
_cell_formula_units_Z 64
_cell_length_a 5.586003
_cell_length_b 27.149371
_cell_length_c 18.367965
_cell_angle_alpha 90.000000
_cell_angle_beta 90.000000
_cell_angle_gamma 90.000000
_cell_volume 2785.620694
_symmetry_space_group_name_H-M "C C C A"
_symmetry_group_IT_number 68
_space_group.IT_coordinate_system_code '2'
_symmetry_cell_setting 'orthorhombic'
loop_
_space_group_symop_operation_xyz
x,y,z
-x,1/2-y,z
x,1/2-y,1/2-z
-x,y,1/2-z
-x,-y,-z
x,1/2+y,-z
-x,1/2+y,1/2+z
x,-y,1/2+z
1/2+x,1/2+y,z
1/2-x,-y,z
1/2+x,-y,1/2-z
1/2-x,1/2+y,1/2-z
1/2-x,1/2-y,-z
1/2+x,y,-z
1/2-x,y,1/2+z
1/2+x,1/2-y,1/2+z
loop_
_atom_site_type_symbol
_atom_site_label
_atom_site_fract_x
_atom_site_fract_y
_atom_site_fract_z
Si Si1 0.586061 0.120427 0.649966
Si Si2 0.384943 0.424036 0.494745
Si Si3 0.500000 0.750000 0.545162
Si Si4 0.414734 0.651914 0.863334
Si Si5 0.500000 0.529673 0.250000
O O1 0.611687 0.114917 0.562323
O O2 0.354717 0.153526 0.667996
O O3 0.535508 0.066363 0.681940
O O4 0.842816 0.138379 0.679487
O O5 0.635123 0.451300 0.499489
O O6 0.387521 0.393281 0.420457
O O7 0.750000 0.750000 0.500000
O O8 0.479059 0.798408 0.594588
O O9 0.750000 0.500000 0.241845
#
# Coordination Sequence:
#
# PCOD9506071 Si02
#       5
#    16  16   8  16   8
#     4  10  20  37  58  80 114 153 191 237 303 355
#     4   8  14  27  49  76 104 141 175 208 268 340
#     4  12  20  30  54  97 136 159 200 238 264 326
#     4  10  19  33  57  87 122 160 189 228 281 344
#     4  12  26  44  66  87 104 139 206 270 304 352
#
# _framework density 22.97513
#
# number of rings (size 3 to 8) (size 9 to 14) (size 15 to 20)
#    0.000    2.000    0.000    7.500    0.000    0.000 
#    0.000    0.000    0.000   45.000    0.000    0.000 
#    0.000    0.000    0.000    0.000    0.000    0.000 
#
# Total GULP energy -178454.392518 kJ/mol
# GULP energy per Si atom -5576.699766 kJ/mol
# Density = 2.292284 g / cm^3
# Si number density = 22.975130 Si / 1000 Ang^3
#
#
#
# Elastic Constant Matrix: (Units=GPa)
#
#
# Indices 1 2 3 4 5 6 
#
# 1 318.2286 68.6184 19.0335 0.0000 0.0000 0.0000
# 2 68.6184 98.1848 -5.4231 0.0000 0.0000 0.0000
# 3 19.0335 -5.4231 47.6522 0.0000 0.0000 0.0000
# 4 0.0000 0.0000 0.0000 -9.5078 0.0000 0.0000
# 5 0.0000 0.0000 0.0000 0.0000 34.2497 0.0000
# 6 0.0000 0.0000 0.0000 0.0000 0.0000 40.3989
#
#
#
# Elastic Compliance Matrix: (Units=1/GPa)
#
#
# Indices 1 2 3 4 5 6 
#
# 1 0.003857 -0.002798 -0.001859 0.000000 0.000000 0.000000
# 2 -0.002798 0.012279 0.002515 0.000000 0.000000 0.000000
# 3 -0.001859 0.002515 0.022014 0.000000 0.000000 0.000000
# 4 0.000000 0.000000 0.000000 -0.105177 0.000000 0.000000
# 5 0.000000 0.000000 0.000000 0.000000 0.029197 0.000000
# 6 0.000000 0.000000 0.000000 0.000000 0.000000 0.024753
#
#
# Mechanical properties :
#
#
# Convention : Reuss Voigt Hill
#
# Bulk Modulus (GPa) = 29.52782 69.83589 49.68186
# Shear Modulus (GPa) = 2002.54771 38.48396 1020.51583
#
# Velocity S-wave (km/s) = 29.55516 4.09715 21.09851
# Velocity P-wave (km/s) = 34.31555 7.26942 24.80324
#
# Compressibility (1/GPa) = 0.03386637
#
# Stress axis : x y z
#
# Youngs Moduli (GPa) = 259.27253 81.43748 45.42527
#
# Poissons Ratio (x) = 0.22788 0.08445
# Poissons Ratio (y) = 0.72549 -0.11425
# Poissons Ratio (z) = 0.48199 -0.20483
#
# Static dielectric constant tensor:
#      x y z
#    x 1.994770 0.000000 0.000000 
#    y 0.000000 1.740460 0.000000 
#    z 0.000000 0.000000 1.883370 
# 
# From -- ./inp_files/1499.got.cif
#   From: 2010.05.17/outbox.cif.g08.bks.cpg/sg68_1_cif.got.tgz:1499.got - 2010.06.03 18:57:09.
