data_PCOD9506585
_publ_section_title
;
Structure prediction by ZEFSAII (Michael W. Deem and Ramdas Pophale) SiO2 
 PCOD9506585
Probable space group: C C C A
;
_chemical_formula_sum "Si O2"
_cell_formula_units_Z 96
_cell_length_a 18.504124
_cell_length_b 17.002111
_cell_length_c 14.885972
_cell_angle_alpha 90.000000
_cell_angle_beta 90.000000
_cell_angle_gamma 90.000000
_cell_volume 4683.263299
_symmetry_space_group_name_H-M "C C C A"
_symmetry_group_IT_number 68
_space_group.IT_coordinate_system_code '2'
_symmetry_cell_setting 'orthorhombic'
loop_
_space_group_symop_operation_xyz
x,y,z
-x,1/2-y,z
x,1/2-y,1/2-z
-x,y,1/2-z
-x,-y,-z
x,1/2+y,-z
-x,1/2+y,1/2+z
x,-y,1/2+z
1/2+x,1/2+y,z
1/2-x,-y,z
1/2+x,-y,1/2-z
1/2-x,1/2+y,1/2-z
1/2-x,1/2-y,-z
1/2+x,y,-z
1/2-x,y,1/2+z
1/2+x,1/2-y,1/2+z
loop_
_atom_site_type_symbol
_atom_site_label
_atom_site_fract_x
_atom_site_fract_y
_atom_site_fract_z
Si Si1 0.921000 0.048422 0.756331
Si Si2 0.229683 0.907771 0.210588
Si Si3 0.605155 0.474246 0.934182
Si Si4 0.048099 0.081110 0.096661
Si Si5 0.827362 0.812612 0.929138
Si Si6 0.768545 0.360045 0.412796
O O1 0.856796 0.097185 0.801405
O O2 0.000000 0.087375 0.750000
O O3 0.893638 0.024161 0.657770
O O4 0.934667 0.969171 0.814034
O O5 0.274182 0.857133 0.139949
O O6 0.250080 0.878667 0.310085
O O7 0.250000 0.000000 0.202109
O O8 0.537502 0.415078 0.918567
O O9 0.680484 0.430351 0.947750
O O10 0.581812 0.528009 0.016939
O O11 0.091891 0.161380 0.094169
O O12 0.813441 0.720535 0.921319
O O13 0.801660 0.844466 0.026333
#
# Coordination Sequence:
#
# PCOD9506585 Si02
#       6
#    16  16  16  16  16  16
#     4  10  20  34  54  86 113 139 190 238 277 325
#     4  12  21  36  63  86 109 153 194 235 281 339
#     4  10  20  35  57  84 113 148 191 235 281 342
#     4  10  20  35  57  84 113 148 191 235 281 342
#     4  11  24  38  56  85 119 151 188 238 291 347
#     4  11  24  38  56  85 119 151 188 238 291 347
#
# _framework density 20.498525999999998
#
# number of rings (size 3 to 8) (size 9 to 14) (size 15 to 20)
#    0.000    1.333    3.333    2.500    0.000    0.667 
#    0.000    0.000    0.000    9.000    0.000    0.000 
#    0.000    0.000    0.000    0.000    0.000    0.000 
#
# Total GULP energy -268308.118899 kJ/mol
# GULP energy per Si atom -5589.752477 kJ/mol
# Density = 2.045187 g / cm^3
# Si number density = 20.498526 Si / 1000 Ang^3
#
#
#
# Elastic Constant Matrix: (Units=GPa)
#
#
# Indices 1 2 3 4 5 6 
#
# 1 64.2199 10.0009 -32.1400 0.0000 0.0000 0.0000
# 2 10.0009 25.6503 4.9787 0.0000 0.0000 0.0000
# 3 -32.1400 4.9787 77.7610 0.0000 0.0000 0.0000
# 4 0.0000 0.0000 0.0000 23.1576 0.0000 0.0000
# 5 0.0000 0.0000 0.0000 0.0000 19.9571 0.0000
# 6 0.0000 0.0000 0.0000 0.0000 0.0000 28.3366
#
#
#
# Elastic Compliance Matrix: (Units=1/GPa)
#
#
# Indices 1 2 3 4 5 6 
#
# 1 0.022126 -0.010533 0.009819 0.000000 0.000000 0.000000
# 2 -0.010533 0.044490 -0.007202 0.000000 0.000000 0.000000
# 3 0.009819 -0.007202 0.017380 0.000000 0.000000 0.000000
# 4 0.000000 0.000000 0.000000 0.043182 0.000000 0.000000
# 5 0.000000 0.000000 0.000000 0.000000 0.050107 0.000000
# 6 0.000000 0.000000 0.000000 0.000000 0.000000 0.035290
#
#
# Mechanical properties :
#
#
# Convention : Reuss Voigt Hill
#
# Bulk Modulus (GPa) = 14.67016 14.81229 14.74122
# Shear Modulus (GPa) = 19.91015 26.60971 23.25993
#
# Velocity S-wave (km/s) = 3.11994 3.60686 3.37220
# Velocity P-wave (km/s) = 4.48898 4.95859 4.72962
#
# Compressibility (1/GPa) = 0.06816559
#
# Stress axis : x y z
#
# Youngs Moduli (GPa) = 45.19556 22.47674 57.53882
#
# Poissons Ratio (x) = 0.23674 -0.56500
# Poissons Ratio (y) = 0.47603 0.41439
# Poissons Ratio (z) = -0.44380 0.16188
#
# Static dielectric constant tensor:
#      x y z
#    x 1.766670 0.000000 0.000000 
#    y 0.000000 1.688480 0.000000 
#    z 0.000000 0.000000 1.736580 
# 
# From -- ./inp_files/24463.got.cif
#   From: 2010.05.17/outbox.cif.g08.bks.cpg/sg68_13_cif.got.tgz:24463.got - 2010.06.03 18:57:09.
