data_PCOD9506695
_publ_section_title
;
Structure prediction by ZEFSAII (Michael W. Deem and Ramdas Pophale) SiO2 
 PCOD9506695
Probable space group: C C C A
;
_chemical_formula_sum "Si O2"
_cell_formula_units_Z 128
_cell_length_a 12.248940
_cell_length_b 23.807720
_cell_length_c 21.071193
_cell_angle_alpha 90.000000
_cell_angle_beta 90.000000
_cell_angle_gamma 90.000000
_cell_volume 6144.767265
_symmetry_space_group_name_H-M "C C C A"
_symmetry_group_IT_number 68
_space_group.IT_coordinate_system_code '2'
_symmetry_cell_setting 'orthorhombic'
loop_
_space_group_symop_operation_xyz
x,y,z
-x,1/2-y,z
x,1/2-y,1/2-z
-x,y,1/2-z
-x,-y,-z
x,1/2+y,-z
-x,1/2+y,1/2+z
x,-y,1/2+z
1/2+x,1/2+y,z
1/2-x,-y,z
1/2+x,-y,1/2-z
1/2-x,1/2+y,1/2-z
1/2-x,1/2-y,-z
1/2+x,y,-z
1/2-x,y,1/2+z
1/2+x,1/2-y,1/2+z
loop_
_atom_site_type_symbol
_atom_site_label
_atom_site_fract_x
_atom_site_fract_y
_atom_site_fract_z
Si Si1 0.170575 0.157273 0.153826
Si Si2 0.965751 0.355765 0.421839
Si Si3 0.842679 0.683782 0.239190
Si Si4 0.996740 0.620717 0.335103
Si Si5 0.616445 0.644722 0.957558
Si Si6 0.771710 0.266483 0.427217
Si Si7 0.178856 0.448009 0.874324
Si Si8 0.690929 0.556748 0.478473
O O1 0.217947 0.167717 0.224239
O O2 0.206365 0.212980 0.115540
O O3 0.239439 0.104833 0.128226
O O4 0.044371 0.145707 0.139086
O O5 0.873685 0.308158 0.419153
O O6 0.906872 0.415068 0.438066
O O7 0.044711 0.341053 0.481379
O O8 0.851628 0.750000 0.250000
O O9 0.898155 0.640433 0.289340
O O10 0.916953 0.670834 0.177157
O O11 0.957253 0.614460 0.406301
O O12 0.075043 0.566090 0.329881
O O13 0.663676 0.696704 0.916621
O O14 0.716289 0.605321 0.978852
O O15 0.750000 0.250000 0.500000
O O16 0.250000 0.500000 0.851719
O O17 0.347149 0.544012 0.949321
O O18 0.750000 0.500000 0.454162
#
# Coordination Sequence:
#
# PCOD9506695 Si02
#       8
#    16  16  16  16  16  16  16  16
#     4  11  21  38  59  87 131 166 211 268 316 393
#     4  11  21  36  54  90 130 173 212 249 329 386
#     4  10  22  40  61  93 122 162 220 272 325 373
#     4  10  20  36  60  87 122 163 214 267 313 371
#     4  11  21  34  56  88 129 172 207 260 317 386
#     4  11  22  33  51  86 129 166 205 254 309 389
#     4  10  20  35  58  92 129 165 213 259 322 385
#     4  10  21  36  55  88 137 175 210 257 313 398
#
# _framework density 20.830732000000001
#
# number of rings (size 3 to 8) (size 9 to 14) (size 15 to 20)
#    0.000    1.500    3.750    2.625    1.750    2.500 
#    0.000    0.000    0.000   17.250    0.000   28.000 
#    0.000    0.000    0.000    0.000    0.000    0.000 
#
# Total GULP energy -356530.144754 kJ/mol
# GULP energy per Si atom -5570.783512 kJ/mol
# Density = 2.078332 g / cm^3
# Si number density = 20.830732 Si / 1000 Ang^3
#
#
#
# Elastic Constant Matrix: (Units=GPa)
#
#
# Indices 1 2 3 4 5 6 
#
# 1 99.2594 40.2348 36.9619 0.0000 0.0000 0.0000
# 2 40.2348 110.2746 18.6379 0.0000 0.0000 0.0000
# 3 36.9619 18.6379 44.5800 0.0000 0.0000 0.0000
# 4 0.0000 0.0000 0.0000 16.2219 0.0000 0.0000
# 5 0.0000 0.0000 0.0000 0.0000 29.7344 0.0000
# 6 0.0000 0.0000 0.0000 0.0000 0.0000 29.6008
#
#
#
# Elastic Compliance Matrix: (Units=1/GPa)
#
#
# Indices 1 2 3 4 5 6 
#
# 1 0.015969 -0.003862 -0.011626 0.000000 0.000000 0.000000
# 2 -0.003862 0.010692 -0.001268 0.000000 0.000000 0.000000
# 3 -0.011626 -0.001268 0.032601 0.000000 0.000000 0.000000
# 4 0.000000 0.000000 0.000000 0.061645 0.000000 0.000000
# 5 0.000000 0.000000 0.000000 0.000000 0.033631 0.000000
# 6 0.000000 0.000000 0.000000 0.000000 0.000000 0.033783
#
#
# Mechanical properties :
#
#
# Convention : Reuss Voigt Hill
#
# Bulk Modulus (GPa) = 38.83435 49.53148 44.18291
# Shear Modulus (GPa) = 21.70001 25.66340 23.68171
#
# Velocity S-wave (km/s) = 3.23109 3.51379 3.37540
# Velocity P-wave (km/s) = 5.70992 6.34760 6.03718
#
# Compressibility (1/GPa) = 0.02575040
#
# Stress axis : x y z
#
# Youngs Moduli (GPa) = 62.62127 93.53188 30.67411
#
# Poissons Ratio (x) = 0.36118 0.35661
# Poissons Ratio (y) = 0.24182 0.03890
# Poissons Ratio (z) = 0.72801 0.11862
#
# Static dielectric constant tensor:
#      x y z
#    x 5.379880 0.000000 0.000000 
#    y 0.000000 1.774350 0.000000 
#    z 0.000000 0.000000 1.822700 
# 
# From -- ./inp_files/44718.got.cif
#   From: 2010.05.17/outbox.cif.g08.bks.cpg/sg68_23_cif.got.tgz:44718.got - 2010.06.03 18:57:09.
