data_PCOD9506363
_publ_section_title
;
Structure prediction by ZEFSAII (Michael W. Deem and Ramdas Pophale) SiO2 
 PCOD9506363
Probable space group: C C C A
;
_chemical_formula_sum "Si O2"
_cell_formula_units_Z 88
_cell_length_a 12.750253
_cell_length_b 17.953255
_cell_length_c 18.510993
_cell_angle_alpha 90.000000
_cell_angle_beta 90.000000
_cell_angle_gamma 90.000000
_cell_volume 4237.324445
_symmetry_space_group_name_H-M "C C C A"
_symmetry_group_IT_number 68
_space_group.IT_coordinate_system_code '2'
_symmetry_cell_setting 'orthorhombic'
loop_
_space_group_symop_operation_xyz
x,y,z
-x,1/2-y,z
x,1/2-y,1/2-z
-x,y,1/2-z
-x,-y,-z
x,1/2+y,-z
-x,1/2+y,1/2+z
x,-y,1/2+z
1/2+x,1/2+y,z
1/2-x,-y,z
1/2+x,-y,1/2-z
1/2-x,1/2+y,1/2-z
1/2-x,1/2-y,-z
1/2+x,y,-z
1/2-x,y,1/2+z
1/2+x,1/2-y,1/2+z
loop_
_atom_site_type_symbol
_atom_site_label
_atom_site_fract_x
_atom_site_fract_y
_atom_site_fract_z
Si Si1 0.484402 0.043931 0.101006
Si Si2 0.500000 0.250000 0.918568
Si Si3 0.787862 0.776862 0.832686
Si Si4 0.311152 0.629041 0.622752
Si Si5 0.596426 0.404490 0.956722
Si Si6 0.816124 0.925733 0.288237
O O1 0.581867 0.099767 0.088713
O O2 0.428952 0.060387 0.176405
O O3 0.527857 0.960370 0.092903
O O4 0.404264 0.059290 0.035733
O O5 0.400346 0.274949 0.870710
O O6 0.544373 0.322608 0.959340
O O7 0.801613 0.750000 0.750000
O O8 0.709163 0.717360 0.869701
O O9 0.737706 0.857729 0.830370
O O10 0.210761 0.600310 0.578703
O O11 0.314512 0.596149 0.704007
O O12 0.750000 0.000000 0.297693
#
# Coordination Sequence:
#
# PCOD9506363 Si02
#       6
#    16   8  16  16  16  16
#     4  11  23  39  61  88 119 156 191 239 298 349
#     4  10  19  38  60  82 115 160 200 238 288 346
#     4   9  20  36  57  87 119 152 195 247 294 341
#     4  10  22  41  61  85 119 155 196 243 288 345
#     4  10  23  39  60  87 119 154 197 243 289 344
#     4  11  22  37  61  90 118 152 196 241 290 350
#
# _framework density 20.767823
#
# number of rings (size 3 to 8) (size 9 to 14) (size 15 to 20)
#    0.000    1.818    0.000    3.545    0.000    6.545 
#    0.000   11.818    0.000    0.000    0.000    0.000 
#    0.000    0.000    0.000    0.000    0.000    0.000 
#
# Total GULP energy -245877.783201 kJ/mol
# GULP energy per Si atom -5588.131436 kJ/mol
# Density = 2.072055 g / cm^3
# Si number density = 20.767823 Si / 1000 Ang^3
#
#
#
# Elastic Constant Matrix: (Units=GPa)
#
#
# Indices 1 2 3 4 5 6 
#
# 1 87.7089 37.7581 45.2333 0.0000 0.0000 0.0000
# 2 37.7581 103.1423 28.2889 0.0000 0.0000 0.0000
# 3 45.2333 28.2889 54.7962 0.0000 0.0000 0.0000
# 4 0.0000 0.0000 0.0000 17.3764 0.0000 0.0000
# 5 0.0000 0.0000 0.0000 0.0000 23.9452 0.0000
# 6 0.0000 0.0000 0.0000 0.0000 0.0000 23.7686
#
#
#
# Elastic Compliance Matrix: (Units=1/GPa)
#
#
# Indices 1 2 3 4 5 6 
#
# 1 0.020822 -0.003388 -0.015439 0.000000 0.000000 0.000000
# 2 -0.003388 0.011846 -0.003319 0.000000 0.000000 0.000000
# 3 -0.015439 -0.003319 0.032708 0.000000 0.000000 0.000000
# 4 0.000000 0.000000 0.000000 0.057549 0.000000 0.000000
# 5 0.000000 0.000000 0.000000 0.000000 0.041762 0.000000
# 6 0.000000 0.000000 0.000000 0.000000 0.000000 0.042072
#
#
# Mechanical properties :
#
#
# Convention : Reuss Voigt Hill
#
# Bulk Modulus (GPa) = 47.43027 52.02312 49.72669
# Shear Modulus (GPa) = 19.37387 21.97584 20.67486
#
# Velocity S-wave (km/s) = 3.05762 3.25648 3.15861
# Velocity P-wave (km/s) = 5.94587 6.26449 6.10725
#
# Compressibility (1/GPa) = 0.02108358
#
# Stress axis : x y z
#
# Youngs Moduli (GPa) = 48.02554 84.41773 30.57384
#
# Poissons Ratio (x) = 0.28601 0.47204
# Poissons Ratio (y) = 0.16271 0.10147
# Poissons Ratio (z) = 0.74148 0.28016
#
# Static dielectric constant tensor:
#      x y z
#    x 1.715650 0.000000 0.000000 
#    y 0.000000 1.728680 0.000000 
#    z 0.000000 0.000000 1.743770 
# 
# From -- ./inp_files/37450.got.cif
#   From: 2010.05.17/outbox.cif.g08.bks.cpg/sg68_19_cif.got.tgz:37450.got - 2010.06.03 18:57:09.
