data_PCOD9506537
_publ_section_title
;
Structure prediction by ZEFSAII (Michael W. Deem and Ramdas Pophale) SiO2 
 PCOD9506537
Probable space group: C C C A
;
_chemical_formula_sum "Si O2"
_cell_formula_units_Z 64
_cell_length_a 24.988921
_cell_length_b 21.625554
_cell_length_c 5.163881
_cell_angle_alpha 90.000000
_cell_angle_beta 90.000000
_cell_angle_gamma 90.000000
_cell_volume 2790.557474
_symmetry_space_group_name_H-M "C C C A"
_symmetry_group_IT_number 68
_space_group.IT_coordinate_system_code '2'
_symmetry_cell_setting 'orthorhombic'
loop_
_space_group_symop_operation_xyz
x,y,z
-x,1/2-y,z
x,1/2-y,1/2-z
-x,y,1/2-z
-x,-y,-z
x,1/2+y,-z
-x,1/2+y,1/2+z
x,-y,1/2+z
1/2+x,1/2+y,z
1/2-x,-y,z
1/2+x,-y,1/2-z
1/2-x,1/2+y,1/2-z
1/2-x,1/2-y,-z
1/2+x,y,-z
1/2-x,y,1/2+z
1/2+x,1/2-y,1/2+z
loop_
_atom_site_type_symbol
_atom_site_label
_atom_site_fract_x
_atom_site_fract_y
_atom_site_fract_z
Si Si1 0.562745 0.180671 0.819342
Si Si2 0.768947 0.166460 0.078745
Si Si3 0.118071 0.360505 0.835119
Si Si4 0.695610 0.956365 0.640787
O O1 0.581480 0.250000 0.750000
O O2 0.500000 0.178563 0.750000
O O3 0.588514 0.133920 0.609813
O O4 0.580640 0.170638 0.116995
O O5 0.728112 0.192761 0.867017
O O6 0.825653 0.169183 0.934618
O O7 0.741541 0.097765 0.129272
O O8 0.140384 0.420450 0.687722
O O9 0.696852 0.003664 0.881189
#
# Coordination Sequence:
#
# PCOD9506537 Si02
#       4
#    16  16  16  16
#     4  11  24  44  70  93 114 156 221 283 334 382
#     4  10  20  33  54  86 128 161 196 240 290 356
#     4  11  22  39  64  95 130 161 206 269 324 371
#     4  11  22  36  60  94 129 168 208 241 286 366
#
# _framework density 22.934486
#
# number of rings (size 3 to 8) (size 9 to 14) (size 15 to 20)
#    0.000    1.250    0.000    9.000    0.000   14.000 
#    0.000    0.000    0.000   75.000    0.000    0.000 
#    0.000    0.000    0.000    0.000    0.000    0.000 
#
# Total GULP energy -178214.611882 kJ/mol
# GULP energy per Si atom -5569.206621 kJ/mol
# Density = 2.288229 g / cm^3
# Si number density = 22.934486 Si / 1000 Ang^3
#
#
#
# Elastic Constant Matrix: (Units=GPa)
#
#
# Indices 1 2 3 4 5 6 
#
# 1 86.8601 6.5192 33.1785 0.0000 0.0000 0.0000
# 2 6.5192 54.5184 7.5377 0.0000 0.0000 0.0000
# 3 33.1785 7.5377 212.6240 0.0000 0.0000 0.0000
# 4 0.0000 0.0000 0.0000 34.2794 0.0000 0.0000
# 5 0.0000 0.0000 0.0000 0.0000 42.7649 0.0000
# 6 0.0000 0.0000 0.0000 0.0000 0.0000 19.8961
#
#
#
# Elastic Compliance Matrix: (Units=1/GPa)
#
#
# Indices 1 2 3 4 5 6 
#
# 1 0.012322 -0.001214 -0.001880 0.000000 0.000000 0.000000
# 2 -0.001214 0.018552 -0.000468 0.000000 0.000000 0.000000
# 3 -0.001880 -0.000468 0.005013 0.000000 0.000000 0.000000
# 4 0.000000 0.000000 0.000000 0.029172 0.000000 0.000000
# 5 0.000000 0.000000 0.000000 0.000000 0.023384 0.000000
# 6 0.000000 0.000000 0.000000 0.000000 0.000000 0.050261
#
#
# Mechanical properties :
#
#
# Convention : Reuss Voigt Hill
#
# Bulk Modulus (GPa) = 34.76561 49.83035 42.29798
# Shear Modulus (GPa) = 32.17188 39.83923 36.00555
#
# Velocity S-wave (km/s) = 3.74942 4.17236 3.96653
# Velocity P-wave (km/s) = 5.82545 6.70715 6.28179
#
# Compressibility (1/GPa) = 0.02876405
#
# Stress axis : x y z
#
# Youngs Moduli (GPa) = 81.15661 53.90172 199.47909
#
# Poissons Ratio (x) = 0.06541 0.37496
# Poissons Ratio (y) = 0.09849 0.09342
# Poissons Ratio (z) = 0.15255 0.02524
#
# Static dielectric constant tensor:
#      x y z
#    x 1.924430 0.000000 0.000000 
#    y 0.000000 2.102880 0.000000 
#    z 0.000000 0.000000 1.980440 
# 
# From -- ./inp_files/1796.got.cif
#   From: 2010.05.17/outbox.cif.g08.bks.cpg/sg68_1_cif.got.tgz:1796.got - 2010.06.03 18:57:09.
