data_PCOD9506972
_publ_section_title
;
Structure prediction by ZEFSAII (Michael W. Deem and Ramdas Pophale) SiO2 
 PCOD9506972
Probable space group: C C C A
;
_chemical_formula_sum "Si O2"
_cell_formula_units_Z 80
_cell_length_a 11.935189
_cell_length_b 24.712847
_cell_length_c 11.990331
_cell_angle_alpha 90.000000
_cell_angle_beta 90.000000
_cell_angle_gamma 90.000000
_cell_volume 3536.578100
_symmetry_space_group_name_H-M "C C C A"
_symmetry_group_IT_number 68
_space_group.IT_coordinate_system_code '2'
_symmetry_cell_setting 'orthorhombic'
loop_
_space_group_symop_operation_xyz
x,y,z
-x,1/2-y,z
x,1/2-y,1/2-z
-x,y,1/2-z
-x,-y,-z
x,1/2+y,-z
-x,1/2+y,1/2+z
x,-y,1/2+z
1/2+x,1/2+y,z
1/2-x,-y,z
1/2+x,-y,1/2-z
1/2-x,1/2+y,1/2-z
1/2-x,1/2-y,-z
1/2+x,y,-z
1/2-x,y,1/2+z
1/2+x,1/2-y,1/2+z
loop_
_atom_site_type_symbol
_atom_site_label
_atom_site_fract_x
_atom_site_fract_y
_atom_site_fract_z
Si Si1 0.397470 0.351052 0.123338
Si Si2 0.336820 0.596427 0.192758
Si Si3 0.316045 0.173236 0.611182
Si Si4 0.184709 0.750000 0.250000
Si Si5 0.113152 0.907639 0.051890
Si Si6 0.250000 0.500000 0.834476
O O1 0.288013 0.386819 0.150571
O O2 0.386086 0.300483 0.206290
O O3 0.505265 0.389067 0.120598
O O4 0.390532 0.326314 0.998491
O O5 0.368524 0.642714 0.281896
O O6 0.322200 0.540599 0.258403
O O7 0.408546 0.591654 0.080681
O O8 0.266239 0.229962 0.651214
O O9 0.208549 0.136714 0.578053
O O10 0.333119 0.036125 0.091135
#
# Coordination Sequence:
#
# PCOD9506972 Si02
#       6
#    16  16  16   8  16   8
#     4  10  21  38  62  91 122 163 205 252 305 367
#     4   9  20  39  58  83 124 163 199 253 311 363
#     4   9  20  37  58  88 125 164 200 245 306 365
#     4  10  20  37  64  91 126 164 204 255 306 359
#     4  10  21  38  59  88 122 155 207 257 300 369
#     4  10  20  38  60  82 116 160 200 254 312 360
#
# _framework density 22.620735
#
# number of rings (size 3 to 8) (size 9 to 14) (size 15 to 20)
#    0.000    2.400    0.000    1.200    0.000    9.600 
#    0.000   22.000    0.000   10.800    0.000    0.000 
#    0.000    0.000    0.000    0.000    0.000    0.000 
#
# Total GULP energy -223655.414181 kJ/mol
# GULP energy per Si atom -5591.385355 kJ/mol
# Density = 2.256925 g / cm^3
# Si number density = 22.620735 Si / 1000 Ang^3
#
#
#
# Elastic Constant Matrix: (Units=GPa)
#
#
# Indices 1 2 3 4 5 6 
#
# 1 69.8708 22.0000 12.8082 0.0000 0.0000 0.0000
# 2 22.0000 72.3456 1.0743 0.0000 0.0000 0.0000
# 3 12.8082 1.0743 112.2659 0.0000 0.0000 0.0000
# 4 0.0000 0.0000 0.0000 6.4372 0.0000 0.0000
# 5 0.0000 0.0000 0.0000 0.0000 20.8212 0.0000
# 6 0.0000 0.0000 0.0000 0.0000 0.0000 23.3896
#
#
#
# Elastic Compliance Matrix: (Units=1/GPa)
#
#
# Indices 1 2 3 4 5 6 
#
# 1 0.016183 -0.004894 -0.001799 0.000000 0.000000 0.000000
# 2 -0.004894 0.015305 0.000412 0.000000 0.000000 0.000000
# 3 -0.001799 0.000412 0.009109 0.000000 0.000000 0.000000
# 4 0.000000 0.000000 0.000000 0.155348 0.000000 0.000000
# 5 0.000000 0.000000 0.000000 0.000000 0.048028 0.000000
# 6 0.000000 0.000000 0.000000 0.000000 0.000000 0.042754
#
#
# Mechanical properties :
#
#
# Convention : Reuss Voigt Hill
#
# Bulk Modulus (GPa) = 35.67266 36.24971 35.96118
# Shear Modulus (GPa) = 16.20036 24.70290 20.45163
#
# Velocity S-wave (km/s) = 2.67904 3.30820 3.01010
# Velocity P-wave (km/s) = 5.03724 5.53643 5.29272
#
# Compressibility (1/GPa) = 0.02803268
#
# Stress axis : x y z
#
# Youngs Moduli (GPa) = 61.79286 65.33890 109.78417
#
# Poissons Ratio (x) = 0.31980 0.19755
# Poissons Ratio (y) = 0.30244 -0.04522
# Poissons Ratio (z) = 0.11119 -0.02692
#
# Static dielectric constant tensor:
#      x y z
#    x 1.859570 0.000000 0.000000 
#    y 0.000000 1.788590 0.000000 
#    z 0.000000 0.000000 1.905320 
# 
# From -- ./inp_files/11984.got.cif
#   From: 2010.05.17/outbox.cif.g08.bks.cpg/sg68_6_cif.got.tgz:11984.got - 2010.06.03 18:57:09.
