data_PCOD9506705
_publ_section_title
;
Structure prediction by ZEFSAII (Michael W. Deem and Ramdas Pophale) SiO2 
 PCOD9506705
Probable space group: C C C A
;
_chemical_formula_sum "Si O2"
_cell_formula_units_Z 120
_cell_length_a 14.149528
_cell_length_b 22.477207
_cell_length_c 19.570142
_cell_angle_alpha 90.000000
_cell_angle_beta 90.000000
_cell_angle_gamma 90.000000
_cell_volume 6224.124554
_symmetry_space_group_name_H-M "C C C A"
_symmetry_group_IT_number 68
_space_group.IT_coordinate_system_code '2'
_symmetry_cell_setting 'orthorhombic'
loop_
_space_group_symop_operation_xyz
x,y,z
-x,1/2-y,z
x,1/2-y,1/2-z
-x,y,1/2-z
-x,-y,-z
x,1/2+y,-z
-x,1/2+y,1/2+z
x,-y,1/2+z
1/2+x,1/2+y,z
1/2-x,-y,z
1/2+x,-y,1/2-z
1/2-x,1/2+y,1/2-z
1/2-x,1/2-y,-z
1/2+x,y,-z
1/2-x,y,1/2+z
1/2+x,1/2-y,1/2+z
loop_
_atom_site_type_symbol
_atom_site_label
_atom_site_fract_x
_atom_site_fract_y
_atom_site_fract_z
Si Si1 0.814545 0.117285 0.005969
Si Si2 0.279285 0.800468 0.692619
Si Si3 0.250000 0.000000 0.230979
Si Si4 0.112497 0.262121 0.942009
Si Si5 0.631156 0.865647 0.574938
Si Si6 0.184620 0.096758 0.122945
Si Si7 0.107486 0.901372 0.272756
Si Si8 0.490898 0.066641 0.526184
O O1 0.852830 0.184083 0.989309
O O2 0.770497 0.094684 0.933235
O O3 0.903648 0.086290 0.040278
O O4 0.729647 0.104205 0.057820
O O5 0.257106 0.750000 0.750000
O O6 0.341488 0.772455 0.632132
O O7 0.192998 0.837440 0.657365
O O8 0.343430 0.853184 0.723581
O O9 0.199724 0.047638 0.181080
O O10 0.327966 0.039027 0.271535
O O11 0.148397 0.197272 0.962541
O O12 0.000000 0.250000 0.937696
O O13 0.610143 0.869017 0.654183
O O14 0.543592 0.895759 0.538672
O O15 0.087716 0.081304 0.083226
O O16 0.000000 0.913665 0.250000
O O17 0.500000 0.000000 0.500000
#
# Coordination Sequence:
#
# PCOD9506705 Si02
#       8
#    16  16   8  16  16  16  16  16
#     4  10  22  38  60  91 123 159 194 253 310 365
#     4  10  20  35  59  90 123 160 200 256 311 361
#     4  10  22  42  60  82 120 166 208 254 302 368
#     4  11  19  35  62  89 125 154 200 247 309 371
#     4  11  23  39  58  94 123 152 199 252 310 361
#     4   9  21  38  60  87 120 163 207 249 312 371
#     4  11  24  38  62  92 122 159 204 256 309 358
#     4  11  23  38  63  88 121 164 205 250 308 370
#
# _framework density 19.279820000000001
#
# number of rings (size 3 to 8) (size 9 to 14) (size 15 to 20)
#    0.000    1.600    2.667    2.000    5.600    2.667 
#    0.000    0.000    0.000    0.000    3.467    0.000 
#    0.000    0.000    0.000    0.000    0.000    0.000 
#
# Total GULP energy -334238.636230 kJ/mol
# GULP energy per Si atom -5570.643937 kJ/mol
# Density = 1.923594 g / cm^3
# Si number density = 19.279820 Si / 1000 Ang^3
#
#
#
# Elastic Constant Matrix: (Units=GPa)
#
#
# Indices 1 2 3 4 5 6 
#
# 1 49.6379 -17.1823 -6.0552 0.0000 0.0000 0.0000
# 2 -17.1823 55.3411 -11.0049 0.0000 0.0000 0.0000
# 3 -6.0552 -11.0049 22.6615 0.0000 0.0000 0.0000
# 4 0.0000 0.0000 0.0000 11.5213 0.0000 0.0000
# 5 0.0000 0.0000 0.0000 0.0000 8.3345 0.0000
# 6 0.0000 0.0000 0.0000 0.0000 0.0000 21.0718
#
#
#
# Elastic Compliance Matrix: (Units=1/GPa)
#
#
# Indices 1 2 3 4 5 6 
#
# 1 0.025050 0.010082 0.011589 0.000000 0.000000 0.000000
# 2 0.010082 0.024059 0.014378 0.000000 0.000000 0.000000
# 3 0.011589 0.014378 0.054207 0.000000 0.000000 0.000000
# 4 0.000000 0.000000 0.000000 0.086796 0.000000 0.000000
# 5 0.000000 0.000000 0.000000 0.000000 0.119984 0.000000
# 6 0.000000 0.000000 0.000000 0.000000 0.000000 0.047457
#
#
# Mechanical properties :
#
#
# Convention : Reuss Voigt Hill
#
# Bulk Modulus (GPa) = 5.70082 6.57284 6.13683
# Shear Modulus (GPa) = 14.53807 18.97771 16.75789
#
# Velocity S-wave (km/s) = 2.74899 3.14081 2.95141
# Velocity P-wave (km/s) = 3.61099 4.07056 3.84764
#
# Compressibility (1/GPa) = 0.17541321
#
# Stress axis : x y z
#
# Youngs Moduli (GPa) = 39.92082 41.56438 18.44794
#
# Poissons Ratio (x) = -0.41905 -0.21380
# Poissons Ratio (y) = -0.40248 -0.26524
# Poissons Ratio (z) = -0.46266 -0.59759
#
# Static dielectric constant tensor:
#      x y z
#    x 1.766410 0.000000 0.000000 
#    y 0.000000 1.791110 0.000000 
#    z 0.000000 0.000000 1.678800 
# 
# From -- ./inp_files/37901.got.cif
#   From: 2010.05.17/outbox.cif.g08.bks.cpg/sg68_19_cif.got.tgz:37901.got - 2010.06.03 18:57:09.
