data_PCOD9506836
_publ_section_title
;
Structure prediction by ZEFSAII (Michael W. Deem and Ramdas Pophale) SiO2 
 PCOD9506836
Probable space group: C C C A
;
_chemical_formula_sum "Si O2"
_cell_formula_units_Z 68
_cell_length_a 8.610982
_cell_length_b 25.661657
_cell_length_c 14.532804
_cell_angle_alpha 90.000000
_cell_angle_beta 90.000000
_cell_angle_gamma 90.000000
_cell_volume 3211.343732
_symmetry_space_group_name_H-M "C C C A"
_symmetry_group_IT_number 68
_space_group.IT_coordinate_system_code '2'
_symmetry_cell_setting 'orthorhombic'
loop_
_space_group_symop_operation_xyz
x,y,z
-x,1/2-y,z
x,1/2-y,1/2-z
-x,y,1/2-z
-x,-y,-z
x,1/2+y,-z
-x,1/2+y,1/2+z
x,-y,1/2+z
1/2+x,1/2+y,z
1/2-x,-y,z
1/2+x,-y,1/2-z
1/2-x,1/2+y,1/2-z
1/2-x,1/2-y,-z
1/2+x,y,-z
1/2-x,y,1/2+z
1/2+x,1/2-y,1/2+z
loop_
_atom_site_type_symbol
_atom_site_label
_atom_site_fract_x
_atom_site_fract_y
_atom_site_fract_z
Si Si1 0.500000 0.572750 0.750000
Si Si2 0.500000 0.250000 0.250000
Si Si3 0.543190 0.451855 0.931682
Si Si4 0.229726 0.876604 0.546935
Si Si5 0.750000 0.500000 0.771607
Si Si6 0.960354 0.337702 0.883188
O O1 0.641194 0.538035 0.713870
O O2 0.571954 0.608926 0.828231
O O3 0.585546 0.210423 0.180841
O O4 0.396247 0.415233 0.907652
O O5 0.630526 0.471995 0.841306
O O6 0.500000 0.500000 0.000000
O O7 0.660596 0.414719 0.987372
O O8 0.352344 0.842006 0.604124
O O9 0.130325 0.840242 0.478269
#
# Coordination Sequence:
#
# PCOD9506836 Si02
#       6
#     8   4  16  16   8  16
#     4  11  24  37  52  90 130 169 202 251 312 358
#     4  10  24  44  72  86 120 150 196 276 348 370
#     4  11  18  33  55  90 122 167 205 245 281 358
#     4  10  20  36  62  88 121 156 208 255 294 362
#     4  12  22  34  52  86 130 176 206 236 306 366
#     4  10  22  43  63  90 118 158 206 263 313 368
#
# _framework density 21.174935999999999
#
# number of rings (size 3 to 8) (size 9 to 14) (size 15 to 20)
#    0.000    1.412    4.706    1.412    3.294    0.941 
#    0.000    0.000    0.000    5.647    0.000    0.000 
#    0.000    0.000    0.000    0.000    0.000    0.000 
#
# Total GULP energy -189827.714428 kJ/mol
# GULP energy per Si atom -5583.168071 kJ/mol
# Density = 2.112674 g / cm^3
# Si number density = 21.174936 Si / 1000 Ang^3
#
#
#
# Elastic Constant Matrix: (Units=GPa)
#
#
# Indices 1 2 3 4 5 6 
#
# 1 112.3820 35.5597 19.9588 0.0000 0.0000 0.0000
# 2 35.5597 90.0288 23.7174 0.0000 0.0000 0.0000
# 3 19.9588 23.7174 44.3723 0.0000 0.0000 0.0000
# 4 0.0000 0.0000 0.0000 0.8339 0.0000 0.0000
# 5 0.0000 0.0000 0.0000 0.0000 37.3141 0.0000
# 6 0.0000 0.0000 0.0000 0.0000 0.0000 4.5983
#
#
#
# Elastic Compliance Matrix: (Units=1/GPa)
#
#
# Indices 1 2 3 4 5 6 
#
# 1 0.010483 -0.003373 -0.002912 0.000000 0.000000 0.000000
# 2 -0.003373 0.014014 -0.005973 0.000000 0.000000 0.000000
# 3 -0.002912 -0.005973 0.027039 0.000000 0.000000 0.000000
# 4 0.000000 0.000000 0.000000 1.199228 0.000000 0.000000
# 5 0.000000 0.000000 0.000000 0.000000 0.026800 0.000000
# 6 0.000000 0.000000 0.000000 0.000000 0.000000 0.217470
#
#
# Mechanical properties :
#
#
# Convention : Reuss Voigt Hill
#
# Bulk Modulus (GPa) = 37.01171 45.02832 41.02001
# Shear Modulus (GPa) = 3.27106 19.71906 11.49506
#
# Velocity S-wave (km/s) = 1.24424 3.05494 2.33247
# Velocity P-wave (km/s) = 4.42506 5.80987 5.16410
#
# Compressibility (1/GPa) = 0.02701848
#
# Stress axis : x y z
#
# Youngs Moduli (GPa) = 95.39440 71.35971 36.98343
#
# Poissons Ratio (x) = 0.24072 0.10770
# Poissons Ratio (y) = 0.32180 0.22090
# Poissons Ratio (z) = 0.27780 0.42623
#
# Static dielectric constant tensor:
#      x y z
#    x 1.799270 0.000000 0.000000 
#    y 0.000000 1.799070 0.000000 
#    z 0.000000 0.000000 1.776090 
# 
# From -- ./inp_files/19403.got.cif
#   From: 2010.05.17/outbox.cif.g08.bks.cpg/sg68_10_cif.got.tgz:19403.got - 2010.06.03 18:57:09.
