data_PCOD9506503
_publ_section_title
;
Structure prediction by ZEFSAII (Michael W. Deem and Ramdas Pophale) SiO2 
 PCOD9506503
Probable space group: C C C A
;
_chemical_formula_sum "Si O2"
_cell_formula_units_Z 96
_cell_length_a 20.406698
_cell_length_b 11.815921
_cell_length_c 20.723872
_cell_angle_alpha 90.000000
_cell_angle_beta 90.000000
_cell_angle_gamma 90.000000
_cell_volume 4997.021491
_symmetry_space_group_name_H-M "C C C A"
_symmetry_group_IT_number 68
_space_group.IT_coordinate_system_code '2'
_symmetry_cell_setting 'orthorhombic'
loop_
_space_group_symop_operation_xyz
x,y,z
-x,1/2-y,z
x,1/2-y,1/2-z
-x,y,1/2-z
-x,-y,-z
x,1/2+y,-z
-x,1/2+y,1/2+z
x,-y,1/2+z
1/2+x,1/2+y,z
1/2-x,-y,z
1/2+x,-y,1/2-z
1/2-x,1/2+y,1/2-z
1/2-x,1/2-y,-z
1/2+x,y,-z
1/2-x,y,1/2+z
1/2+x,1/2-y,1/2+z
loop_
_atom_site_type_symbol
_atom_site_label
_atom_site_fract_x
_atom_site_fract_y
_atom_site_fract_z
Si Si1 0.231760 0.314891 0.564495
Si Si2 0.246684 0.615357 0.337447
Si Si3 0.000000 0.516942 0.250000
Si Si4 0.845298 0.993066 0.599051
Si Si5 0.358759 0.383105 0.236332
Si Si6 0.544480 0.645962 0.353370
Si Si7 0.852342 0.250000 0.250000
O O1 0.250000 0.250000 0.500000
O O2 0.222140 0.218976 0.618540
O O3 0.171343 0.401010 0.553328
O O4 0.290505 0.396895 0.588799
O O5 0.250000 0.500000 0.380098
O O6 0.191590 0.570707 0.288289
O O7 0.305441 0.670256 0.294091
O O8 0.934198 0.588058 0.252432
O O9 0.001646 0.436823 0.312423
O O10 0.841397 0.056897 0.668593
O O11 0.914452 0.928560 0.596125
O O12 0.350683 0.250000 0.250000
O O13 0.500000 0.750000 0.376407
O O14 0.599419 0.687480 0.300901
#
# Coordination Sequence:
#
# PCOD9506503 Si02
#       7
#    16  16   8  16  16  16   8
#     4  11  24  42  62  86 122 171 219 263 327 373
#     4  12  24  33  58  93 127 159 201 268 318 385
#     4  10  20  32  54  88 140 172 196 232 304 420
#     4  10  22  40  64  88 124 163 205 270 316 386
#     4  11  21  36  57  95 133 163 197 246 335 391
#     4  11  20  34  60  93 126 167 206 247 314 396
#     4  12  19  36  56  91 132 160 200 250 320 393
#
# _framework density 19.211445000000001
#
# number of rings (size 3 to 8) (size 9 to 14) (size 15 to 20)
#    0.000    1.000    5.833    2.250    7.000    0.000 
#    0.000    0.000    0.000    1.000    4.333    0.000 
#    0.000    0.000    0.000    0.000    0.000    0.000 
#
# Total GULP energy -267364.921464 kJ/mol
# GULP energy per Si atom -5570.102530 kJ/mol
# Density = 1.916772 g / cm^3
# Si number density = 19.211445 Si / 1000 Ang^3
#
#
#
# Elastic Constant Matrix: (Units=GPa)
#
#
# Indices 1 2 3 4 5 6 
#
# 1 53.7828 20.8798 33.5219 0.0000 0.0000 0.0000
# 2 20.8798 140.0887 33.6554 0.0000 0.0000 0.0000
# 3 33.5219 33.6554 50.4800 0.0000 0.0000 0.0000
# 4 0.0000 0.0000 0.0000 20.7223 0.0000 0.0000
# 5 0.0000 0.0000 0.0000 0.0000 6.9247 0.0000
# 6 0.0000 0.0000 0.0000 0.0000 0.0000 39.5743
#
#
#
# Elastic Compliance Matrix: (Units=1/GPa)
#
#
# Indices 1 2 3 4 5 6 
#
# 1 0.031742 0.000396 -0.021343 0.000000 0.000000 0.000000
# 2 0.000396 0.008505 -0.005933 0.000000 0.000000 0.000000
# 3 -0.021343 -0.005933 0.037939 0.000000 0.000000 0.000000
# 4 0.000000 0.000000 0.000000 0.048257 0.000000 0.000000
# 5 0.000000 0.000000 0.000000 0.000000 0.144410 0.000000
# 6 0.000000 0.000000 0.000000 0.000000 0.000000 0.025269
#
#
# Mechanical properties :
#
#
# Convention : Reuss Voigt Hill
#
# Bulk Modulus (GPa) = 40.94070 46.71841 43.82956
# Shear Modulus (GPa) = 13.96555 23.86389 18.91472
#
# Velocity S-wave (km/s) = 2.69911 3.52827 3.14117
# Velocity P-wave (km/s) = 5.57408 6.40071 6.00164
#
# Compressibility (1/GPa) = 0.02442557
#
# Stress axis : x y z
#
# Youngs Moduli (GPa) = 31.50381 117.58194 26.35818
#
# Poissons Ratio (x) = -0.04662 0.56257
# Poissons Ratio (y) = -0.01249 0.15639
# Poissons Ratio (z) = 0.67239 0.69766
#
# Static dielectric constant tensor:
#      x y z
#    x 1.691330 0.000000 0.000000 
#    y 0.000000 1.791460 0.000000 
#    z 0.000000 0.000000 1.672020 
# 
# From -- ./inp_files/40272.got.cif
#   From: 2010.05.17/outbox.cif.g08.bks.cpg/sg68_21_cif.got.tgz:40272.got - 2010.06.03 18:57:09.
