data_PCOD9506024
_publ_section_title
;
Structure prediction by ZEFSAII (Michael W. Deem and Ramdas Pophale) SiO2 
 PCOD9506024
Probable space group: C C C A
;
_chemical_formula_sum "Si O2"
_cell_formula_units_Z 72
_cell_length_a 19.813596
_cell_length_b 7.247138
_cell_length_c 21.900420
_cell_angle_alpha 90.000000
_cell_angle_beta 90.000000
_cell_angle_gamma 90.000000
_cell_volume 3144.722141
_symmetry_space_group_name_H-M "C C C A"
_symmetry_group_IT_number 68
_space_group.IT_coordinate_system_code '2'
_symmetry_cell_setting 'orthorhombic'
loop_
_space_group_symop_operation_xyz
x,y,z
-x,1/2-y,z
x,1/2-y,1/2-z
-x,y,1/2-z
-x,-y,-z
x,1/2+y,-z
-x,1/2+y,1/2+z
x,-y,1/2+z
1/2+x,1/2+y,z
1/2-x,-y,z
1/2+x,-y,1/2-z
1/2-x,1/2+y,1/2-z
1/2-x,1/2-y,-z
1/2+x,y,-z
1/2-x,y,1/2+z
1/2+x,1/2-y,1/2+z
loop_
_atom_site_type_symbol
_atom_site_label
_atom_site_fract_x
_atom_site_fract_y
_atom_site_fract_z
Si Si1 0.178764 0.906735 0.449316
Si Si2 0.117539 0.564891 0.176737
Si Si3 0.625906 0.470867 0.072137
Si Si4 0.169766 0.514771 0.302074
Si Si5 0.500000 0.250000 0.378919
O O1 0.147702 0.996291 0.388121
O O2 0.182573 0.689556 0.435176
O O3 0.250000 0.000000 0.459771
O O4 0.131779 0.921052 0.509161
O O5 0.137164 0.457588 0.237563
O O6 0.148578 0.770619 0.187987
O O7 0.039297 0.604846 0.163834
O O8 0.642130 0.574807 0.135375
O O9 0.555635 0.360699 0.082023
O O10 0.250000 0.500000 0.297508
#
# Coordination Sequence:
#
# PCOD9506024 Si02
#       5
#    16  16  16  16   8
#     4  10  19  33  50  76 103 137 173 212 264 304
#     4   9  19  31  53  73 100 134 167 217 252 308
#     4  10  21  32  53  73 104 138 169 218 252 307
#     4   9  17  31  47  73  99 126 164 207 255 295
#     4   8  18  35  50  76 100 133 180 208 260 299
#
# _framework density 22.895505
#
# number of rings (size 3 to 8) (size 9 to 14) (size 15 to 20)
#    0.000    3.111    0.000    2.000    0.000   12.444 
#    0.000    0.000    0.000    0.000    0.000    0.000 
#    0.000   64.000    0.000    0.000    0.000    0.000 
#
# Total GULP energy -200767.606903 kJ/mol
# GULP energy per Si atom -5576.877970 kJ/mol
# Density = 2.284339 g / cm^3
# Si number density = 22.895505 Si / 1000 Ang^3
#
#
#
# Elastic Constant Matrix: (Units=GPa)
#
#
# Indices 1 2 3 4 5 6 
#
# 1 116.7361 -5.5138 57.7722 0.0000 0.0000 0.0000
# 2 -5.5138 35.8212 13.4478 0.0000 0.0000 0.0000
# 3 57.7722 13.4478 266.9751 0.0000 0.0000 0.0000
# 4 0.0000 0.0000 0.0000 57.6513 0.0000 0.0000
# 5 0.0000 0.0000 0.0000 0.0000 18.0716 0.0000
# 6 0.0000 0.0000 0.0000 0.0000 0.0000 -5.1800
#
#
#
# Elastic Compliance Matrix: (Units=1/GPa)
#
#
# Indices 1 2 3 4 5 6 
#
# 1 0.009783 0.002345 -0.002235 0.000000 0.000000 0.000000
# 2 0.002345 0.029017 -0.001969 0.000000 0.000000 0.000000
# 3 -0.002235 -0.001969 0.004329 0.000000 0.000000 0.000000
# 4 0.000000 0.000000 0.000000 0.017346 0.000000 0.000000
# 5 0.000000 0.000000 0.000000 0.000000 0.055336 0.000000
# 6 0.000000 0.000000 0.000000 0.000000 0.000000 -0.193050
#
#
# Mechanical properties :
#
#
# Convention : Reuss Voigt Hill
#
# Bulk Modulus (GPa) = 25.37429 61.21608 43.29518
# Shear Modulus (GPa) = -82.80111 37.69699 -22.55206
#
# Velocity S-wave (km/s) = -6.02024 4.06209 -3.14187
# Velocity P-wave (km/s) = 6.10063 6.98541 2.40606
#
# Compressibility (1/GPa) = 0.03940998
#
# Stress axis : x y z
#
# Youngs Moduli (GPa) = 102.21527 34.46304 231.02524
#
# Poissons Ratio (x) = -0.08082 0.51638
# Poissons Ratio (y) = -0.23970 0.45490
# Poissons Ratio (z) = 0.22847 0.06786
#
# Static dielectric constant tensor:
#      x y z
#    x 1.844400 0.000000 0.000000 
#    y 0.000000 1.977410 0.000000 
#    z 0.000000 0.000000 1.984020 
# 
# From -- ./inp_files/40090.got.cif
#   From: 2010.05.17/outbox.cif.g08.bks.cpg/sg68_21_cif.got.tgz:40090.got - 2010.06.03 18:57:09.
