data_PCOD9506273
_publ_section_title
;
Structure prediction by ZEFSAII (Michael W. Deem and Ramdas Pophale) SiO2 
 PCOD9506273
Probable space group: C C C A
;
_chemical_formula_sum "Si O2"
_cell_formula_units_Z 120
_cell_length_a 28.233302
_cell_length_b 13.629128
_cell_length_c 14.203661
_cell_angle_alpha 90.000000
_cell_angle_beta 90.000000
_cell_angle_gamma 90.000000
_cell_volume 5465.501808
_symmetry_space_group_name_H-M "C C C A"
_symmetry_group_IT_number 68
_space_group.IT_coordinate_system_code '2'
_symmetry_cell_setting 'orthorhombic'
loop_
_space_group_symop_operation_xyz
x,y,z
-x,1/2-y,z
x,1/2-y,1/2-z
-x,y,1/2-z
-x,-y,-z
x,1/2+y,-z
-x,1/2+y,1/2+z
x,-y,1/2+z
1/2+x,1/2+y,z
1/2-x,-y,z
1/2+x,-y,1/2-z
1/2-x,1/2+y,1/2-z
1/2-x,1/2-y,-z
1/2+x,y,-z
1/2-x,y,1/2+z
1/2+x,1/2-y,1/2+z
loop_
_atom_site_type_symbol
_atom_site_label
_atom_site_fract_x
_atom_site_fract_y
_atom_site_fract_z
Si Si1 0.215093 0.907362 0.928573
Si Si2 0.305846 0.022021 0.736146
Si Si3 0.000000 0.250000 0.569783
Si Si4 0.654933 0.629052 0.604964
Si Si5 0.002994 0.973981 0.359037
Si Si6 0.079600 0.498053 0.499721
Si Si7 0.680216 0.223454 0.855562
Si Si8 0.106129 0.282716 0.517909
O O1 0.180769 0.944938 0.842568
O O2 0.223518 0.796336 0.886345
O O3 0.250000 0.000000 0.937039
O O4 0.198591 0.884822 0.034128
O O5 0.310681 0.107752 0.657478
O O6 0.250000 0.000000 0.741091
O O7 0.334402 0.928425 0.699614
O O8 0.998417 0.145143 0.624536
O O9 0.949274 0.248309 0.516312
O O10 0.613657 0.577095 0.544350
O O11 0.634158 0.738000 0.607310
O O12 0.049853 0.018529 0.406659
O O13 0.000000 0.994568 0.250000
O O14 0.959956 0.018551 0.418958
O O15 0.107292 0.399214 0.519570
O O16 0.666251 0.250000 0.750000
O O17 0.638060 0.244751 0.927995
#
# Coordination Sequence:
#
# PCOD9506273 Si02
#       8
#    16  16   8  16  16  16  16  16
#     4   9  20  37  58  86 116 150 194 242 295 358
#     4  10  20  37  60  85 115 153 196 245 296 357
#     4  10  19  36  61  82 116 154 195 238 296 354
#     4  11  20  37  60  85 115 157 190 241 300 346
#     4  10  21  38  59  85 114 155 196 242 298 355
#     4  10  21  38  58  83 119 153 194 244 291 347
#     4   9  18  36  59  83 114 156 195 242 302 347
#     4  10  20  37  57  82 117 154 193 246 286 349
#
# _framework density 21.955898000000001
#
# number of rings (size 3 to 8) (size 9 to 14) (size 15 to 20)
#    0.000    2.133    2.667    0.600    0.000    1.067 
#    4.800    2.333    0.000    0.800    0.000    0.000 
#    0.000    0.000    0.000    0.000    0.000    0.000 
#
# Total GULP energy -334117.998219 kJ/mol
# GULP energy per Si atom -5568.633304 kJ/mol
# Density = 2.190593 g / cm^3
# Si number density = 21.955898 Si / 1000 Ang^3
#
#
#
# Elastic Constant Matrix: (Units=GPa)
#
#
# Indices 1 2 3 4 5 6 
#
# 1 47.0511 10.0723 6.1313 0.0000 0.0000 0.0000
# 2 10.0723 64.2031 2.2669 0.0000 0.0000 0.0000
# 3 6.1313 2.2669 62.9129 0.0000 0.0000 0.0000
# 4 0.0000 0.0000 0.0000 29.5680 0.0000 0.0000
# 5 0.0000 0.0000 0.0000 0.0000 -7.2761 0.0000
# 6 0.0000 0.0000 0.0000 0.0000 0.0000 37.4265
#
#
#
# Elastic Compliance Matrix: (Units=1/GPa)
#
#
# Indices 1 2 3 4 5 6 
#
# 1 0.022252 -0.003419 -0.002045 0.000000 0.000000 0.000000
# 2 -0.003419 0.016121 -0.000248 0.000000 0.000000 0.000000
# 3 -0.002045 -0.000248 0.016103 0.000000 0.000000 0.000000
# 4 0.000000 0.000000 0.000000 0.033820 0.000000 0.000000
# 5 0.000000 0.000000 0.000000 0.000000 -0.137437 0.000000
# 6 0.000000 0.000000 0.000000 0.000000 0.000000 0.026719
#
#
# Mechanical properties :
#
#
# Convention : Reuss Voigt Hill
#
# Bulk Modulus (GPa) = 23.22765 23.45647 23.34206
# Shear Modulus (GPa) = 1491.43180 22.32346 756.87763
#
# Velocity S-wave (km/s) = 26.09138 3.19210 18.58695
# Velocity P-wave (km/s) = 30.30317 4.92875 21.70915
#
# Compressibility (1/GPa) = 0.04305215
#
# Stress axis : x y z
#
# Youngs Moduli (GPa) = 44.94005 62.03225 62.09925
#
# Poissons Ratio (x) = 0.21207 0.12702
# Poissons Ratio (y) = 0.15364 0.01538
# Poissons Ratio (z) = 0.09192 0.01537
#
# Static dielectric constant tensor:
#      x y z
#    x 1.863070 0.000000 0.000000 
#    y 0.000000 1.924900 0.000000 
#    z 0.000000 0.000000 1.765280 
# 
# From -- ./inp_files/26530.got.cif
#   From: 2010.05.17/outbox.cif.g08.bks.cpg/sg68_14_cif.got.tgz:26530.got - 2010.06.03 18:57:09.
