data_PCOD9506329
_publ_section_title
;
Structure prediction by ZEFSAII (Michael W. Deem and Ramdas Pophale) SiO2 
 PCOD9506329
Probable space group: C C C A
;
_chemical_formula_sum "Si O2"
_cell_formula_units_Z 64
_cell_length_a 28.046998
_cell_length_b 5.472232
_cell_length_c 21.723481
_cell_angle_alpha 90.000000
_cell_angle_beta 90.000000
_cell_angle_gamma 90.000000
_cell_volume 3334.112911
_symmetry_space_group_name_H-M "C C C A"
_symmetry_group_IT_number 68
_space_group.IT_coordinate_system_code '2'
_symmetry_cell_setting 'orthorhombic'
loop_
_space_group_symop_operation_xyz
x,y,z
-x,1/2-y,z
x,1/2-y,1/2-z
-x,y,1/2-z
-x,-y,-z
x,1/2+y,-z
-x,1/2+y,1/2+z
x,-y,1/2+z
1/2+x,1/2+y,z
1/2-x,-y,z
1/2+x,-y,1/2-z
1/2-x,1/2+y,1/2-z
1/2-x,1/2-y,-z
1/2+x,y,-z
1/2-x,y,1/2+z
1/2+x,1/2-y,1/2+z
loop_
_atom_site_type_symbol
_atom_site_label
_atom_site_fract_x
_atom_site_fract_y
_atom_site_fract_z
Si Si1 0.806583 0.983230 0.537388
Si Si2 0.779970 0.250000 0.750000
Si Si3 0.548878 0.356772 0.179962
Si Si4 0.908859 0.250000 0.250000
Si Si5 0.143468 0.387501 0.659660
O O1 0.816580 0.235095 0.500389
O O2 0.836442 0.982001 0.599977
O O3 0.750000 0.000000 0.551512
O O4 0.750000 0.500000 0.755222
O O5 0.814027 0.266988 0.690174
O O6 0.500000 0.250000 0.153360
O O7 0.550691 0.250000 0.250000
O O8 0.557068 0.638608 0.196906
O O9 0.596234 0.269179 0.145616
O O10 0.874214 0.432341 0.286279
#
# Coordination Sequence:
#
# PCOD9506329 Si02
#       5
#    16   8  16   8  16
#     4  10  24  42  61  84 115 165 217 256 296 354
#     4  12  25  36  56  92 129 163 196 251 322 376
#     4   9  19  34  57  90 122 157 198 242 311 380
#     4  10  19  37  61  92 128 161 196 253 319 382
#     4  11  22  37  59  90 123 159 204 251 316 368
#
# _framework density 19.195509999999999
#
# number of rings (size 3 to 8) (size 9 to 14) (size 15 to 20)
#    0.000    1.750    3.750    1.500    3.500   11.000 
#    0.000    0.000    0.000    1.500    0.000    0.000 
#    0.000    0.000    0.000    0.000    0.000    0.000 
#
# Total GULP energy -178322.542931 kJ/mol
# GULP energy per Si atom -5572.579467 kJ/mol
# Density = 1.915182 g / cm^3
# Si number density = 19.195510 Si / 1000 Ang^3
#
#
#
# Elastic Constant Matrix: (Units=GPa)
#
#
# Indices 1 2 3 4 5 6 
#
# 1 123.9157 51.0918 43.9796 0.0000 0.0000 0.0000
# 2 51.0918 93.7527 22.3771 0.0000 0.0000 0.0000
# 3 43.9796 22.3771 56.7372 0.0000 0.0000 0.0000
# 4 0.0000 0.0000 0.0000 16.0787 0.0000 0.0000
# 5 0.0000 0.0000 0.0000 0.0000 14.0822 0.0000
# 6 0.0000 0.0000 0.0000 0.0000 0.0000 18.6180
#
#
#
# Elastic Compliance Matrix: (Units=1/GPa)
#
#
# Indices 1 2 3 4 5 6 
#
# 1 0.013086 -0.005200 -0.008093 0.000000 0.000000 0.000000
# 2 -0.005200 0.013841 -0.001428 0.000000 0.000000 0.000000
# 3 -0.008093 -0.001428 0.024462 0.000000 0.000000 0.000000
# 4 0.000000 0.000000 0.000000 0.062194 0.000000 0.000000
# 5 0.000000 0.000000 0.000000 0.000000 0.071012 0.000000
# 6 0.000000 0.000000 0.000000 0.000000 0.000000 0.053711
#
#
# Mechanical properties :
#
#
# Convention : Reuss Voigt Hill
#
# Bulk Modulus (GPa) = 45.56467 56.58916 51.07691
# Shear Modulus (GPa) = 18.17760 20.21958 19.19859
#
# Velocity S-wave (km/s) = 3.08063 3.24906 3.16596
# Velocity P-wave (km/s) = 6.03675 6.60451 6.32700
#
# Compressibility (1/GPa) = 0.02194683
#
# Stress axis : x y z
#
# Youngs Moduli (GPa) = 76.41577 72.24904 40.88035
#
# Poissons Ratio (x) = 0.37569 0.33084
# Poissons Ratio (y) = 0.39736 0.05838
# Poissons Ratio (z) = 0.61843 0.10319
#
# Static dielectric constant tensor:
#      x y z
#    x 1.717810 0.000000 0.000000 
#    y 0.000000 1.861590 0.000000 
#    z 0.000000 0.000000 1.644000 
# 
# From -- ./inp_files/27160.got.cif
#   From: 2010.05.17/outbox.cif.g08.bks.cpg/sg68_14_cif.got.tgz:27160.got - 2010.06.03 18:57:09.
