data_PCOD9506619
_publ_section_title
;
Structure prediction by ZEFSAII (Michael W. Deem and Ramdas Pophale) SiO2 
 PCOD9506619
Probable space group: C C C A
;
_chemical_formula_sum "Si O2"
_cell_formula_units_Z 120
_cell_length_a 25.163677
_cell_length_b 12.262032
_cell_length_c 22.390728
_cell_angle_alpha 90.000000
_cell_angle_beta 90.000000
_cell_angle_gamma 90.000000
_cell_volume 6908.834054
_symmetry_space_group_name_H-M "C C C A"
_symmetry_group_IT_number 68
_space_group.IT_coordinate_system_code '2'
_symmetry_cell_setting 'orthorhombic'
loop_
_space_group_symop_operation_xyz
x,y,z
-x,1/2-y,z
x,1/2-y,1/2-z
-x,y,1/2-z
-x,-y,-z
x,1/2+y,-z
-x,1/2+y,1/2+z
x,-y,1/2+z
1/2+x,1/2+y,z
1/2-x,-y,z
1/2+x,-y,1/2-z
1/2-x,1/2+y,1/2-z
1/2-x,1/2-y,-z
1/2+x,y,-z
1/2-x,y,1/2+z
1/2+x,1/2-y,1/2+z
loop_
_atom_site_type_symbol
_atom_site_label
_atom_site_fract_x
_atom_site_fract_y
_atom_site_fract_z
Si Si1 0.858901 0.080332 0.568025
Si Si2 0.940100 0.778097 0.439674
Si Si3 0.853463 0.633158 0.863728
Si Si4 0.747785 0.782113 0.569373
Si Si5 0.056391 0.726424 0.923033
Si Si6 0.671971 0.750000 0.250000
Si Si7 0.285017 0.096270 0.647026
Si Si8 0.116502 0.509019 0.933701
O O1 0.902747 0.174672 0.572431
O O2 0.802615 0.140098 0.576549
O O3 0.862380 0.023934 0.502093
O O4 0.867583 0.988588 0.617540
O O5 0.944849 0.781737 0.511714
O O6 0.000000 0.750000 0.417174
O O7 0.909500 0.890151 0.422159
O O8 0.798949 0.659530 0.900514
O O9 0.895833 0.717538 0.889186
O O10 0.853498 0.658642 0.793348
O O11 0.750000 0.750000 0.500000
O O12 0.747970 0.665506 0.602147
O O13 0.069880 0.599286 0.928636
O O14 0.000000 0.750000 0.893669
O O15 0.700729 0.821681 0.300129
O O16 0.336043 0.048171 0.610868
O O17 0.250000 0.000000 0.672379
#
# Coordination Sequence:
#
# PCOD9506619 Si02
#       8
#    16  16  16  16  16   8  16  16
#     4  11  22  33  58  89 123 158 198 244 304 366
#     4  10  22  35  55  90 127 156 191 242 317 381
#     4  11  22  40  58  86 120 157 201 256 289 357
#     4  11  20  34  55  90 124 151 194 243 307 360
#     4  10  20  34  59  87 115 159 200 247 305 361
#     4  10  24  44  57  82 122 160 217 242 292 346
#     4  11  23  37  62  83 123 163 199 252 298 363
#     4  11  20  37  57  89 126 157 196 246 307 366
#
# _framework density 17.369067000000001
#
# number of rings (size 3 to 8) (size 9 to 14) (size 15 to 20)
#    0.000    1.333    5.333    2.000    3.733    3.733 
#    0.000    0.333    0.000    0.000    0.000    0.933 
#    0.000    0.000    0.000    0.000    0.000    0.000 
#
# Total GULP energy -334192.219360 kJ/mol
# GULP energy per Si atom -5569.870323 kJ/mol
# Density = 1.732953 g / cm^3
# Si number density = 17.369067 Si / 1000 Ang^3
#
#
#
# Elastic Constant Matrix: (Units=GPa)
#
#
# Indices 1 2 3 4 5 6 
#
# 1 96.0313 35.0649 25.6344 0.0000 0.0000 0.0000
# 2 35.0649 113.2316 35.9246 0.0000 0.0000 0.0000
# 3 25.6344 35.9246 89.0383 0.0000 0.0000 0.0000
# 4 0.0000 0.0000 0.0000 29.8865 0.0000 0.0000
# 5 0.0000 0.0000 0.0000 0.0000 121.3644 0.0000
# 6 0.0000 0.0000 0.0000 0.0000 0.0000 18.2988
#
#
#
# Elastic Compliance Matrix: (Units=1/GPa)
#
#
# Indices 1 2 3 4 5 6 
#
# 1 0.012127 -0.003036 -0.002266 0.000000 0.000000 0.000000
# 2 -0.003036 0.010888 -0.003519 0.000000 0.000000 0.000000
# 3 -0.002266 -0.003519 0.013303 0.000000 0.000000 0.000000
# 4 0.000000 0.000000 0.000000 0.033460 0.000000 0.000000
# 5 0.000000 0.000000 0.000000 0.000000 0.008240 0.000000
# 6 0.000000 0.000000 0.000000 0.000000 0.000000 0.054648
#
#
# Mechanical properties :
#
#
# Convention : Reuss Voigt Hill
#
# Bulk Modulus (GPa) = 53.54653 54.61655 54.08154
# Shear Modulus (GPa) = 31.94177 47.35507 39.64842
#
# Velocity S-wave (km/s) = 4.29301 5.22716 4.78295
# Velocity P-wave (km/s) = 7.44774 8.24281 7.85534
#
# Compressibility (1/GPa) = 0.01867535
#
# Stress axis : x y z
#
# Youngs Moduli (GPa) = 82.46105 91.84270 75.16889
#
# Poissons Ratio (x) = 0.27887 0.17035
# Poissons Ratio (y) = 0.25038 0.26451
# Poissons Ratio (z) = 0.18688 0.32319
#
# Static dielectric constant tensor:
#      x y z
#    x 1.632270 0.000000 0.000000 
#    y 0.000000 1.677950 0.000000 
#    z 0.000000 0.000000 1.597740 
# 
# From -- ./inp_files/40939.got.cif
#   From: 2010.05.17/outbox.cif.g08.bks.cpg/sg68_21_cif.got.tgz:40939.got - 2010.06.03 18:57:09.
