data_PCOD9506026
_publ_section_title
;
Structure prediction by ZEFSAII (Michael W. Deem and Ramdas Pophale) SiO2 
 PCOD9506026
Probable space group: C C C A
;
_chemical_formula_sum "Si O2"
_cell_formula_units_Z 88
_cell_length_a 14.333143
_cell_length_b 13.978082
_cell_length_c 21.047282
_cell_angle_alpha 90.000000
_cell_angle_beta 90.000000
_cell_angle_gamma 90.000000
_cell_volume 4216.819753
_symmetry_space_group_name_H-M "C C C A"
_symmetry_group_IT_number 68
_space_group.IT_coordinate_system_code '2'
_symmetry_cell_setting 'orthorhombic'
loop_
_space_group_symop_operation_xyz
x,y,z
-x,1/2-y,z
x,1/2-y,1/2-z
-x,y,1/2-z
-x,-y,-z
x,1/2+y,-z
-x,1/2+y,1/2+z
x,-y,1/2+z
1/2+x,1/2+y,z
1/2-x,-y,z
1/2+x,-y,1/2-z
1/2-x,1/2+y,1/2-z
1/2-x,1/2-y,-z
1/2+x,y,-z
1/2-x,y,1/2+z
1/2+x,1/2-y,1/2+z
loop_
_atom_site_type_symbol
_atom_site_label
_atom_site_fract_x
_atom_site_fract_y
_atom_site_fract_z
Si Si1 0.252167 0.220165 0.385187
Si Si2 0.374355 0.402008 0.897391
Si Si3 0.746398 0.750000 0.250000
Si Si4 0.655523 0.550202 0.235772
Si Si5 0.573800 0.418194 0.864175
Si Si6 0.654625 0.060677 0.039853
O O1 0.208015 0.322967 0.401986
O O2 0.299231 0.226830 0.315189
O O3 0.161769 0.151732 0.374912
O O4 0.318473 0.166965 0.435243
O O5 0.359067 0.475504 0.838223
O O6 0.477232 0.365085 0.878445
O O7 0.380050 0.442929 0.967935
O O8 0.679830 0.662252 0.232419
O O9 0.750000 0.500000 0.258993
O O10 0.581702 0.542588 0.292221
O O11 0.586066 0.507303 0.911657
O O12 0.750000 0.000000 0.042007
#
# Coordination Sequence:
#
# PCOD9506026 Si02
#       6
#    16  16   8  16  16  16
#     4   9  18  32  51  73 102 134 169 215 272 327
#     4  11  20  31  50  79 104 130 175 230 270 315
#     4   8  16  30  51  76  95 126 172 214 250 310
#     4  10  19  33  52  76 105 138 175 220 273 330
#     4  10  19  33  51  73 102 136 173 218 273 326
#     4  10  20  34  50  71 103 142 176 210 267 338
#
# _framework density 20.868805999999999
#
# number of rings (size 3 to 8) (size 9 to 14) (size 15 to 20)
#    0.000    2.182    0.000    5.455    0.000    0.000 
#    0.000    5.455    0.000    0.000    0.000   16.545 
#    0.000    0.000    0.000    0.000    0.000    0.000 
#
# Total GULP energy -245036.935610 kJ/mol
# GULP energy per Si atom -5569.021264 kJ/mol
# Density = 2.082131 g / cm^3
# Si number density = 20.868806 Si / 1000 Ang^3
#
#
#
# Elastic Constant Matrix: (Units=GPa)
#
#
# Indices 1 2 3 4 5 6 
#
# 1 38.4625 7.0753 9.0193 0.0000 0.0000 0.0000
# 2 7.0753 41.4547 19.3269 0.0000 0.0000 0.0000
# 3 9.0193 19.3269 159.9249 0.0000 0.0000 0.0000
# 4 0.0000 0.0000 0.0000 20.1623 0.0000 0.0000
# 5 0.0000 0.0000 0.0000 0.0000 29.6233 0.0000
# 6 0.0000 0.0000 0.0000 0.0000 0.0000 14.4501
#
#
#
# Elastic Compliance Matrix: (Units=1/GPa)
#
#
# Indices 1 2 3 4 5 6 
#
# 1 0.026999 -0.004131 -0.001023 0.000000 0.000000 0.000000
# 2 -0.004131 0.026195 -0.002933 0.000000 0.000000 0.000000
# 3 -0.001023 -0.002933 0.006665 0.000000 0.000000 0.000000
# 4 0.000000 0.000000 0.000000 0.049598 0.000000 0.000000
# 5 0.000000 0.000000 0.000000 0.000000 0.033757 0.000000
# 6 0.000000 0.000000 0.000000 0.000000 0.000000 0.069204
#
#
# Mechanical properties :
#
#
# Convention : Reuss Voigt Hill
#
# Bulk Modulus (GPa) = 22.89107 34.52055 28.70581
# Shear Modulus (GPa) = 20.56311 26.47516 23.51913
#
# Velocity S-wave (km/s) = 3.14244 3.56567 3.36072
# Velocity P-wave (km/s) = 4.91522 5.79048 5.37071
#
# Compressibility (1/GPa) = 0.04368516
#
# Stress axis : x y z
#
# Youngs Moduli (GPa) = 37.03809 38.17512 150.03590
#
# Poissons Ratio (x) = 0.15770 0.15355
# Poissons Ratio (y) = 0.15300 0.44001
# Poissons Ratio (z) = 0.03791 0.11196
#
# Static dielectric constant tensor:
#      x y z
#    x 1.751560 0.000000 0.000000 
#    y 0.000000 1.798150 0.000000 
#    z 0.000000 0.000000 1.835770 
# 
# From -- ./inp_files/38467.got.cif
#   From: 2010.05.17/outbox.cif.g08.bks.cpg/sg68_20_cif.got.tgz:38467.got - 2010.06.03 18:57:09.
