data_PCOD9506757
_publ_section_title
;
Structure prediction by ZEFSAII (Michael W. Deem and Ramdas Pophale) SiO2 
 PCOD9506757
Probable space group: C C C A
;
_chemical_formula_sum "Si O2"
_cell_formula_units_Z 96
_cell_length_a 25.130107
_cell_length_b 8.626113
_cell_length_c 22.249338
_cell_angle_alpha 90.000000
_cell_angle_beta 90.000000
_cell_angle_gamma 90.000000
_cell_volume 4823.103420
_symmetry_space_group_name_H-M "C C C A"
_symmetry_group_IT_number 68
_space_group.IT_coordinate_system_code '2'
_symmetry_cell_setting 'orthorhombic'
loop_
_space_group_symop_operation_xyz
x,y,z
-x,1/2-y,z
x,1/2-y,1/2-z
-x,y,1/2-z
-x,-y,-z
x,1/2+y,-z
-x,1/2+y,1/2+z
x,-y,1/2+z
1/2+x,1/2+y,z
1/2-x,-y,z
1/2+x,-y,1/2-z
1/2-x,1/2+y,1/2-z
1/2-x,1/2-y,-z
1/2+x,y,-z
1/2-x,y,1/2+z
1/2+x,1/2-y,1/2+z
loop_
_atom_site_type_symbol
_atom_site_label
_atom_site_fract_x
_atom_site_fract_y
_atom_site_fract_z
Si Si1 0.652171 0.590290 0.103539
Si Si2 0.940478 0.206572 0.044050
Si Si3 0.140121 0.779571 0.179319
Si Si4 0.404316 0.359164 0.070903
Si Si5 0.239584 0.813989 0.685731
Si Si6 0.210348 0.612781 0.016321
O O1 0.601989 0.682036 0.077129
O O2 0.636546 0.451852 0.149026
O O3 0.692449 0.704100 0.138447
O O4 0.686967 0.536297 0.045575
O O5 0.000000 0.250000 0.062160
O O6 0.926059 0.029545 0.057462
O O7 0.934160 0.239385 0.972714
O O8 0.130795 0.750000 0.250000
O O9 0.098676 0.680336 0.140646
O O10 0.203119 0.740712 0.170789
O O11 0.342683 0.345926 0.050945
O O12 0.222618 0.750000 0.750000
O O13 0.250000 0.000000 0.689370
O O14 0.250000 0.500000 0.050779
O O15 0.250000 0.750000 0.000000
#
# Coordination Sequence:
#
# PCOD9506757 Si02
#       6
#    16  16  16  16  16  16
#     4  10  20  36  56  83 118 155 196 243 296 354
#     4  11  24  41  64  88 113 150 198 260 315 357
#     4  10  21  38  60  87 123 163 198 235 289 365
#     4  11  22  38  60  88 117 154 197 242 302 364
#     4   9  18  32  53  82 120 160 195 232 281 350
#     4  11  19  31  53  84 121 152 183 234 295 358
#
# _framework density 19.904195999999999
#
# number of rings (size 3 to 8) (size 9 to 14) (size 15 to 20)
#    0.000    1.667    0.000    8.000    0.000    4.000 
#    0.000    3.333    0.000    8.000    0.000    0.000 
#    0.000    0.000    0.000    0.000    0.000    0.000 
#
# Total GULP energy -267833.022170 kJ/mol
# GULP energy per Si atom -5579.854629 kJ/mol
# Density = 1.985889 g / cm^3
# Si number density = 19.904196 Si / 1000 Ang^3
#
#
#
# Elastic Constant Matrix: (Units=GPa)
#
#
# Indices 1 2 3 4 5 6 
#
# 1 96.3991 33.0742 42.4181 0.0000 0.0000 0.0000
# 2 33.0742 79.0673 35.4866 0.0000 0.0000 0.0000
# 3 42.4181 35.4866 136.7670 0.0000 0.0000 0.0000
# 4 0.0000 0.0000 0.0000 22.9926 0.0000 0.0000
# 5 0.0000 0.0000 0.0000 0.0000 4.5543 0.0000
# 6 0.0000 0.0000 0.0000 0.0000 0.0000 21.0331
#
#
#
# Elastic Compliance Matrix: (Units=1/GPa)
#
#
# Indices 1 2 3 4 5 6 
#
# 1 0.013111 -0.004142 -0.002992 0.000000 0.000000 0.000000
# 2 -0.004142 0.015623 -0.002769 0.000000 0.000000 0.000000
# 3 -0.002992 -0.002769 0.008958 0.000000 0.000000 0.000000
# 4 0.000000 0.000000 0.000000 0.043492 0.000000 0.000000
# 5 0.000000 0.000000 0.000000 0.000000 0.219571 0.000000
# 6 0.000000 0.000000 0.000000 0.000000 0.000000 0.047544
#
#
# Mechanical properties :
#
#
# Convention : Reuss Voigt Hill
#
# Bulk Modulus (GPa) = 55.90686 59.35456 57.63071
# Shear Modulus (GPa) = 13.36663 23.13298 18.24980
#
# Velocity S-wave (km/s) = 2.59424 3.41283 3.03129
# Velocity P-wave (km/s) = 6.09281 6.73904 6.42406
#
# Compressibility (1/GPa) = 0.01788689
#
# Stress axis : x y z
#
# Youngs Moduli (GPa) = 76.27211 64.00934 111.63128
#
# Poissons Ratio (x) = 0.26510 0.33397
# Poissons Ratio (y) = 0.31589 0.30911
# Poissons Ratio (z) = 0.22819 0.17725
#
# Static dielectric constant tensor:
#      x y z
#    x 1.702300 0.000000 0.000000 
#    y 0.000000 1.786730 0.000000 
#    z 0.000000 0.000000 1.743660 
# 
# From -- ./inp_files/41236.got.cif
#   From: 2010.05.17/outbox.cif.g08.bks.cpg/sg68_21_cif.got.tgz:41236.got - 2010.06.03 18:57:09.
