data_PCOD9506471
_publ_section_title
;
Structure prediction by ZEFSAII (Michael W. Deem and Ramdas Pophale) SiO2 
 PCOD9506471
Probable space group: C C C A
;
_chemical_formula_sum "Si O2"
_cell_formula_units_Z 88
_cell_length_a 22.911610
_cell_length_b 9.890588
_cell_length_c 21.344262
_cell_angle_alpha 90.000000
_cell_angle_beta 90.000000
_cell_angle_gamma 90.000000
_cell_volume 4836.808163
_symmetry_space_group_name_H-M "C C C A"
_symmetry_group_IT_number 68
_space_group.IT_coordinate_system_code '2'
_symmetry_cell_setting 'orthorhombic'
loop_
_space_group_symop_operation_xyz
x,y,z
-x,1/2-y,z
x,1/2-y,1/2-z
-x,y,1/2-z
-x,-y,-z
x,1/2+y,-z
-x,1/2+y,1/2+z
x,-y,1/2+z
1/2+x,1/2+y,z
1/2-x,-y,z
1/2+x,-y,1/2-z
1/2-x,1/2+y,1/2-z
1/2-x,1/2-y,-z
1/2+x,y,-z
1/2-x,y,1/2+z
1/2+x,1/2-y,1/2+z
loop_
_atom_site_type_symbol
_atom_site_label
_atom_site_fract_x
_atom_site_fract_y
_atom_site_fract_z
Si Si1 0.182008 0.700832 0.575312
Si Si2 0.185192 0.309708 0.930222
Si Si3 0.840699 0.067073 0.651292
Si Si4 0.846410 0.440993 0.154069
Si Si5 0.568961 0.412830 0.248706
Si Si6 0.250000 0.500000 0.249598
O O1 0.166086 0.688896 0.502371
O O2 0.247524 0.761845 0.574691
O O3 0.179978 0.555391 0.607772
O O4 0.143572 0.802527 0.617122
O O5 0.150734 0.198699 0.890289
O O6 0.176803 0.452639 0.897179
O O7 0.898700 0.032233 0.689524
O O8 0.790731 0.089460 0.704256
O O9 0.899697 0.511849 0.190715
O O10 0.795159 0.421626 0.205809
O O11 0.580087 0.250000 0.250000
O O12 0.500000 0.434096 0.250000
#
# Coordination Sequence:
#
# PCOD9506471 Si02
#       6
#    16  16  16  16  16   8
#     4  11  22  34  54  85 123 153 181 229 282 335
#     4  11  20  36  54  83 121 159 187 215 274 353
#     4  11  21  35  57  84 114 147 191 234 279 343
#     4  11  21  35  57  84 114 147 191 234 279 343
#     4  10  22  40  63  83 107 149 193 241 291 342
#     4  10  20  30  52  80 116 136 186 226 286 328
#
# _framework density 18.193816000000002
#
# number of rings (size 3 to 8) (size 9 to 14) (size 15 to 20)
#    0.000    1.273    5.455    1.091    0.000    7.273 
#    0.000    1.818    0.000    6.545    0.000    0.000 
#    0.000    0.000    0.000    0.000    0.000    0.000 
#
# Total GULP energy -245675.137066 kJ/mol
# GULP energy per Si atom -5583.525842 kJ/mol
# Density = 1.815241 g / cm^3
# Si number density = 18.193816 Si / 1000 Ang^3
#
#
#
# Elastic Constant Matrix: (Units=GPa)
#
#
# Indices 1 2 3 4 5 6 
#
# 1 79.2128 3.8214 34.1488 0.0000 0.0000 0.0000
# 2 3.8214 71.3165 34.2988 0.0000 0.0000 0.0000
# 3 34.1488 34.2988 136.1233 0.0000 0.0000 0.0000
# 4 0.0000 0.0000 0.0000 19.6480 0.0000 0.0000
# 5 0.0000 0.0000 0.0000 0.0000 4.9107 0.0000
# 6 0.0000 0.0000 0.0000 0.0000 0.0000 18.5039
#
#
#
# Elastic Compliance Matrix: (Units=1/GPa)
#
#
# Indices 1 2 3 4 5 6 
#
# 1 0.014229 0.001086 -0.003843 0.000000 0.000000 0.000000
# 2 0.001086 0.016038 -0.004314 0.000000 0.000000 0.000000
# 3 -0.003843 -0.004314 0.009397 0.000000 0.000000 0.000000
# 4 0.000000 0.000000 0.000000 0.050896 0.000000 0.000000
# 5 0.000000 0.000000 0.000000 0.000000 0.203636 0.000000
# 6 0.000000 0.000000 0.000000 0.000000 0.000000 0.054043
#
#
# Mechanical properties :
#
#
# Convention : Reuss Voigt Hill
#
# Bulk Modulus (GPa) = 39.18087 47.91008 43.54547
# Shear Modulus (GPa) = 13.48117 22.90476 18.19297
#
# Velocity S-wave (km/s) = 2.72504 3.55199 3.16563
# Velocity P-wave (km/s) = 5.61098 6.57362 6.11129
#
# Compressibility (1/GPa) = 0.02552266
#
# Stress axis : x y z
#
# Youngs Moduli (GPa) = 70.28091 62.35044 106.41382
#
# Poissons Ratio (x) = -0.06770 0.40896
# Poissons Ratio (y) = -0.07632 0.45902
# Poissons Ratio (z) = 0.27010 0.26895
#
# Static dielectric constant tensor:
#      x y z
#    x 1.620160 0.000000 0.000000 
#    y 0.000000 1.643800 0.000000 
#    z 0.000000 0.000000 1.635450 
# 
# From -- ./inp_files/36265.got.cif
#   From: 2010.05.17/outbox.cif.g08.bks.cpg/sg68_19_cif.got.tgz:36265.got - 2010.06.03 18:57:09.
