data_PCOD9506403
_publ_section_title
;
Structure prediction by ZEFSAII (Michael W. Deem and Ramdas Pophale) SiO2 
 PCOD9506403
Probable space group: C C C A
;
_chemical_formula_sum "Si O2"
_cell_formula_units_Z 104
_cell_length_a 10.038526
_cell_length_b 22.459355
_cell_length_c 27.174134
_cell_angle_alpha 90.000000
_cell_angle_beta 90.000000
_cell_angle_gamma 90.000000
_cell_volume 6126.648162
_symmetry_space_group_name_H-M "C C C A"
_symmetry_group_IT_number 68
_space_group.IT_coordinate_system_code '2'
_symmetry_cell_setting 'orthorhombic'
loop_
_space_group_symop_operation_xyz
x,y,z
-x,1/2-y,z
x,1/2-y,1/2-z
-x,y,1/2-z
-x,-y,-z
x,1/2+y,-z
-x,1/2+y,1/2+z
x,-y,1/2+z
1/2+x,1/2+y,z
1/2-x,-y,z
1/2+x,-y,1/2-z
1/2-x,1/2+y,1/2-z
1/2-x,1/2-y,-z
1/2+x,y,-z
1/2-x,y,1/2+z
1/2+x,1/2-y,1/2+z
loop_
_atom_site_type_symbol
_atom_site_label
_atom_site_fract_x
_atom_site_fract_y
_atom_site_fract_z
Si Si1 0.488324 0.661224 0.308096
Si Si2 0.709745 0.263990 0.851115
Si Si3 0.603728 0.802096 0.045357
Si Si4 0.579331 0.397765 0.601089
Si Si5 0.600453 0.014630 0.457514
Si Si6 0.643428 0.649456 0.559993
Si Si7 0.500000 0.750000 0.876756
O O1 0.500000 0.656627 0.250000
O O2 0.378720 0.710247 0.327483
O O3 0.633905 0.681077 0.326610
O O4 0.448338 0.605546 0.341039
O O5 0.688930 0.272887 0.910219
O O6 0.867383 0.261523 0.844665
O O7 0.500000 0.750000 0.031802
O O8 0.527642 0.858125 0.070519
O O9 0.670141 0.824520 0.994905
O O10 0.579801 0.465792 0.584679
O O11 0.718678 0.365219 0.587799
O O12 0.582274 0.083478 0.444434
O O13 0.500000 0.000000 0.500000
O O14 0.750000 0.000000 0.475208
O O15 0.546714 0.694413 0.589131
#
# Coordination Sequence:
#
# PCOD9506403 Si02
#       7
#    16  16  16  16  16  16   8
#     4  10  19  39  62  79 104 145 196 239 281 335
#     4  10  20  33  51  84 112 145 180 233 275 337
#     4  11  18  29  50  75 115 152 188 217 266 334
#     4  10  20  37  53  82 113 145 200 236 271 335
#     4  10  21  36  54  80 112 155 193 227 272 338
#     4  11  22  31  52  80 118 157 182 222 287 340
#     4  12  22  32  51  82 120 142 177 226 296 336
#
# _framework density 16.975024000000001
#
# number of rings (size 3 to 8) (size 9 to 14) (size 15 to 20)
#    0.000    1.538    6.923    0.923    2.154    1.231 
#    0.000    1.538    0.000    0.000   12.000    0.000 
#    0.000    0.000    0.000    0.000    0.000    0.000 
#
# Total GULP energy -289607.147655 kJ/mol
# GULP energy per Si atom -5569.368224 kJ/mol
# Density = 1.693639 g / cm^3
# Si number density = 16.975024 Si / 1000 Ang^3
#
#
#
# Elastic Constant Matrix: (Units=GPa)
#
#
# Indices 1 2 3 4 5 6 
#
# 1 99.5607 29.1601 48.8502 0.0000 0.0000 0.0000
# 2 29.1601 93.7041 42.4961 0.0000 0.0000 0.0000
# 3 48.8502 42.4961 135.0343 0.0000 0.0000 0.0000
# 4 0.0000 0.0000 0.0000 13.2808 0.0000 0.0000
# 5 0.0000 0.0000 0.0000 0.0000 14.9498 0.0000
# 6 0.0000 0.0000 0.0000 0.0000 0.0000 20.2334
#
#
#
# Elastic Compliance Matrix: (Units=1/GPa)
#
#
# Indices 1 2 3 4 5 6 
#
# 1 0.012575 -0.002158 -0.003870 0.000000 0.000000 0.000000
# 2 -0.002158 0.012819 -0.003253 0.000000 0.000000 0.000000
# 3 -0.003870 -0.003253 0.009829 0.000000 0.000000 0.000000
# 4 0.000000 0.000000 0.000000 0.075297 0.000000 0.000000
# 5 0.000000 0.000000 0.000000 0.000000 0.066891 0.000000
# 6 0.000000 0.000000 0.000000 0.000000 0.000000 0.049423
#
#
# Mechanical properties :
#
#
# Convention : Reuss Voigt Hill
#
# Bulk Modulus (GPa) = 60.02323 63.25687 61.64005
# Shear Modulus (GPa) = 19.92425 23.54565 21.73495
#
# Velocity S-wave (km/s) = 3.42970 3.72839 3.58216
# Velocity P-wave (km/s) = 7.14985 7.47530 7.31438
#
# Compressibility (1/GPa) = 0.01666022
#
# Stress axis : x y z
#
# Youngs Moduli (GPa) = 79.52242 78.00920 101.73542
#
# Poissons Ratio (x) = 0.16836 0.39371
# Poissons Ratio (y) = 0.17162 0.33099
# Poissons Ratio (z) = 0.30775 0.25380
#
# Static dielectric constant tensor:
#      x y z
#    x 1.593530 0.000000 0.000000 
#    y 0.000000 1.634860 0.000000 
#    z 0.000000 0.000000 1.492330 
# 
# From -- ./inp_files/49600.got.cif
#   From: 2010.05.17/outbox.cif.g08.bks.cpg/sg68_25_cif.got.tgz:49600.got - 2010.06.03 18:57:09.
