data_PCOD9506991
_publ_section_title
;
Structure prediction by ZEFSAII (Michael W. Deem and Ramdas Pophale) SiO2 
 PCOD9506991
Probable space group: C C C A
;
_chemical_formula_sum "Si O2"
_cell_formula_units_Z 64
_cell_length_a 11.739469
_cell_length_b 12.297983
_cell_length_c 18.087698
_cell_angle_alpha 90.000000
_cell_angle_beta 90.000000
_cell_angle_gamma 90.000000
_cell_volume 2611.353341
_symmetry_space_group_name_H-M "C C C A"
_symmetry_group_IT_number 68
_space_group.IT_coordinate_system_code '2'
_symmetry_cell_setting 'orthorhombic'
loop_
_space_group_symop_operation_xyz
x,y,z
-x,1/2-y,z
x,1/2-y,1/2-z
-x,y,1/2-z
-x,-y,-z
x,1/2+y,-z
-x,1/2+y,1/2+z
x,-y,1/2+z
1/2+x,1/2+y,z
1/2-x,-y,z
1/2+x,-y,1/2-z
1/2-x,1/2+y,1/2-z
1/2-x,1/2-y,-z
1/2+x,y,-z
1/2-x,y,1/2+z
1/2+x,1/2-y,1/2+z
loop_
_atom_site_type_symbol
_atom_site_label
_atom_site_fract_x
_atom_site_fract_y
_atom_site_fract_z
Si Si1 0.250000 0.500000 0.282384
Si Si2 0.500000 0.750000 0.537590
Si Si3 0.762491 0.311900 0.599236
Si Si4 0.000000 0.442087 0.250000
Si Si5 0.250000 0.000000 0.977280
Si Si6 0.573767 0.623316 0.404063
O O1 0.243312 0.609195 0.331071
O O2 0.125019 0.497591 0.245008
O O3 0.387462 0.761709 0.586198
O O4 0.503569 0.651831 0.477804
O O5 0.745679 0.394518 0.530018
O O6 0.670287 0.216406 0.604137
O O7 0.001204 0.382396 0.170409
O O8 0.358507 0.014700 0.924712
#
# Coordination Sequence:
#
# PCOD9506991 Si02
#       6
#     8   8  16   8   8  16
#     4  11  27  48  70  98 141 185 234 286 338 415
#     4  10  20  37  68 101 130 168 220 282 344 396
#     4  10  23  42  67 104 138 176 229 291 351 404
#     4  12  28  47  68  99 138 190 234 275 340 413
#     4   9  19  40  70 102 135 175 228 286 350 407
#     4  11  23  42  68  98 137 181 226 284 341 415
#
# _framework density 24.508362999999999
#
# number of rings (size 3 to 8) (size 9 to 14) (size 15 to 20)
#    0.000    1.500    0.000    5.250    0.000   12.500 
#    0.000   15.000    0.000    1.500    0.000    0.000 
#    0.000    0.000    0.000    0.000    0.000    0.000 
#
# Total GULP energy -178861.981309 kJ/mol
# GULP energy per Si atom -5589.436916 kJ/mol
# Density = 2.445258 g / cm^3
# Si number density = 24.508363 Si / 1000 Ang^3
#
#
#
# Elastic Constant Matrix: (Units=GPa)
#
#
# Indices 1 2 3 4 5 6 
#
# 1 226.9714 57.9221 47.5837 0.0000 0.0000 0.0000
# 2 57.9221 83.6141 18.4849 0.0000 0.0000 0.0000
# 3 47.5837 18.4849 71.3179 0.0000 0.0000 0.0000
# 4 0.0000 0.0000 0.0000 10.3050 0.0000 0.0000
# 5 0.0000 0.0000 0.0000 0.0000 40.0591 0.0000
# 6 0.0000 0.0000 0.0000 0.0000 0.0000 53.2350
#
#
#
# Elastic Compliance Matrix: (Units=1/GPa)
#
#
# Indices 1 2 3 4 5 6 
#
# 1 0.005922 -0.003425 -0.003064 0.000000 0.000000 0.000000
# 2 -0.003425 0.014668 -0.001516 0.000000 0.000000 0.000000
# 3 -0.003064 -0.001516 0.016459 0.000000 0.000000 0.000000
# 4 0.000000 0.000000 0.000000 0.097040 0.000000 0.000000
# 5 0.000000 0.000000 0.000000 0.000000 0.024963 0.000000
# 6 0.000000 0.000000 0.000000 0.000000 0.000000 0.018785
#
#
# Mechanical properties :
#
#
# Convention : Reuss Voigt Hill
#
# Bulk Modulus (GPa) = 47.53224 69.98720 58.75972
# Shear Modulus (GPa) = 24.89303 37.91403 31.40353
#
# Velocity S-wave (km/s) = 3.19045 3.93744 3.58346
# Velocity P-wave (km/s) = 5.74529 7.02066 6.41475
#
# Compressibility (1/GPa) = 0.02103835
#
# Stress axis : x y z
#
# Youngs Moduli (GPa) = 168.85608 68.17707 60.75784
#
# Poissons Ratio (x) = 0.23352 0.18613
# Poissons Ratio (y) = 0.57837 0.09213
# Poissons Ratio (z) = 0.51730 0.10338
#
# Static dielectric constant tensor:
#      x y z
#    x 2.087840 0.000000 0.000000 
#    y 0.000000 2.006570 0.000000 
#    z 0.000000 0.000000 1.960510 
# 
# From -- ./inp_files/29232.got.cif
#   From: 2010.05.17/outbox.cif.g08.bks.cpg/sg68_15_cif.got.tgz:29232.got - 2010.06.03 18:57:09.
