data_PCOD9506933
_publ_section_title
;
Structure prediction by ZEFSAII (Michael W. Deem and Ramdas Pophale) SiO2 
 PCOD9506933
Probable space group: C C C A
;
_chemical_formula_sum "Si O2"
_cell_formula_units_Z 88
_cell_length_a 25.111064
_cell_length_b 8.995697
_cell_length_c 20.137344
_cell_angle_alpha 90.000000
_cell_angle_beta 90.000000
_cell_angle_gamma 90.000000
_cell_volume 4548.855307
_symmetry_space_group_name_H-M "C C C A"
_symmetry_group_IT_number 68
_space_group.IT_coordinate_system_code '2'
_symmetry_cell_setting 'orthorhombic'
loop_
_space_group_symop_operation_xyz
x,y,z
-x,1/2-y,z
x,1/2-y,1/2-z
-x,y,1/2-z
-x,-y,-z
x,1/2+y,-z
-x,1/2+y,1/2+z
x,-y,1/2+z
1/2+x,1/2+y,z
1/2-x,-y,z
1/2+x,-y,1/2-z
1/2-x,1/2+y,1/2-z
1/2-x,1/2-y,-z
1/2+x,y,-z
1/2-x,y,1/2+z
1/2+x,1/2-y,1/2+z
loop_
_atom_site_type_symbol
_atom_site_label
_atom_site_fract_x
_atom_site_fract_y
_atom_site_fract_z
Si Si1 0.811524 0.960297 0.643012
Si Si2 0.025641 0.480671 0.072602
Si Si3 0.865174 0.750000 0.750000
Si Si4 0.084256 0.545002 0.859072
Si Si5 0.873959 0.271773 0.456393
Si Si6 0.610161 0.280847 0.390499
O O1 0.829681 0.854065 0.702933
O O2 0.827337 0.867633 0.576830
O O3 0.750000 0.000000 0.645429
O O4 0.847853 0.108174 0.642881
O O5 0.071699 0.358617 0.063699
O O6 0.055608 0.627953 0.097546
O O7 0.977598 0.442447 0.121444
O O8 0.000000 0.500000 0.000000
O O9 0.900622 0.856131 0.796236
O O10 0.118487 0.613558 0.920444
O O11 0.099324 0.372367 0.852911
O O12 0.870147 0.255463 0.534778
#
# Coordination Sequence:
#
# PCOD9506933 Si02
#       6
#    16  16   8  16  16  16
#     4  10  24  45  66  88 119 168 219 269 325 369
#     4  11  19  33  62  97 130 165 198 244 315 386
#     4  10  26  46  61  84 124 172 221 272 302 376
#     4  11  21  36  61  92 128 165 207 252 315 368
#     4  10  20  37  60  99 131 155 198 260 319 385
#     4  11  21  36  63 100 124 156 210 261 313 390
#
# _framework density 19.345524999999999
#
# number of rings (size 3 to 8) (size 9 to 14) (size 15 to 20)
#    0.000    1.455    3.636    2.182    0.000    2.909 
#    0.000   19.091    0.000    8.727    0.000    0.000 
#    0.000    0.000    0.000    0.000    0.000    0.000 
#
# Total GULP energy -245948.996269 kJ/mol
# GULP energy per Si atom -5589.749915 kJ/mol
# Density = 1.930149 g / cm^3
# Si number density = 19.345525 Si / 1000 Ang^3
#
#
#
# Elastic Constant Matrix: (Units=GPa)
#
#
# Indices 1 2 3 4 5 6 
#
# 1 146.2956 73.8864 67.2235 0.0000 0.0000 0.0000
# 2 73.8864 158.4278 50.5361 0.0000 0.0000 0.0000
# 3 67.2235 50.5361 92.4883 0.0000 0.0000 0.0000
# 4 0.0000 0.0000 0.0000 15.4499 0.0000 0.0000
# 5 0.0000 0.0000 0.0000 0.0000 13.8221 0.0000
# 6 0.0000 0.0000 0.0000 0.0000 0.0000 21.2182
#
#
#
# Elastic Compliance Matrix: (Units=1/GPa)
#
#
# Indices 1 2 3 4 5 6 
#
# 1 0.011510 -0.003269 -0.006579 0.000000 0.000000 0.000000
# 2 -0.003269 0.008573 -0.002308 0.000000 0.000000 0.000000
# 3 -0.006579 -0.002308 0.016856 0.000000 0.000000 0.000000
# 4 0.000000 0.000000 0.000000 0.064725 0.000000 0.000000
# 5 0.000000 0.000000 0.000000 0.000000 0.072348 0.000000
# 6 0.000000 0.000000 0.000000 0.000000 0.000000 0.047129
#
#
# Mechanical properties :
#
#
# Convention : Reuss Voigt Hill
#
# Bulk Modulus (GPa) = 79.20935 86.72266 82.96600
# Shear Modulus (GPa) = 20.02704 23.80243 21.91474
#
# Velocity S-wave (km/s) = 3.22099 3.51149 3.36937
# Velocity P-wave (km/s) = 7.40719 7.83367 7.62341
#
# Compressibility (1/GPa) = 0.01262477
#
# Stress axis : x y z
#
# Youngs Moduli (GPa) = 86.88225 116.64623 59.32768
#
# Poissons Ratio (x) = 0.38133 0.39034
# Poissons Ratio (y) = 0.28403 0.13694
# Poissons Ratio (z) = 0.57164 0.26924
#
# Static dielectric constant tensor:
#      x y z
#    x 1.647220 0.000000 0.000000 
#    y 0.000000 1.728010 0.000000 
#    z 0.000000 0.000000 1.674370 
# 
# From -- ./inp_files/40762.got.cif
#   From: 2010.05.17/outbox.cif.g08.bks.cpg/sg68_21_cif.got.tgz:40762.got - 2010.06.03 18:57:09.
