data_PCOD9506997
_publ_section_title
;
Structure prediction by ZEFSAII (Michael W. Deem and Ramdas Pophale) SiO2 
 PCOD9506997
Probable space group: C C C A
;
_chemical_formula_sum "Si O2"
_cell_formula_units_Z 88
_cell_length_a 12.317884
_cell_length_b 21.561797
_cell_length_c 17.371628
_cell_angle_alpha 90.000000
_cell_angle_beta 90.000000
_cell_angle_gamma 90.000000
_cell_volume 4613.829947
_symmetry_space_group_name_H-M "C C C A"
_symmetry_group_IT_number 68
_space_group.IT_coordinate_system_code '2'
_symmetry_cell_setting 'orthorhombic'
loop_
_space_group_symop_operation_xyz
x,y,z
-x,1/2-y,z
x,1/2-y,1/2-z
-x,y,1/2-z
-x,-y,-z
x,1/2+y,-z
-x,1/2+y,1/2+z
x,-y,1/2+z
1/2+x,1/2+y,z
1/2-x,-y,z
1/2+x,-y,1/2-z
1/2-x,1/2+y,1/2-z
1/2-x,1/2-y,-z
1/2+x,y,-z
1/2-x,y,1/2+z
1/2+x,1/2-y,1/2+z
loop_
_atom_site_type_symbol
_atom_site_label
_atom_site_fract_x
_atom_site_fract_y
_atom_site_fract_z
Si Si1 0.879238 0.313645 0.285645
Si Si2 0.216784 0.191738 0.448801
Si Si3 0.629281 0.909555 0.932159
Si Si4 0.616041 0.103609 0.120556
Si Si5 0.773346 0.425919 0.733392
Si Si6 0.750000 0.500000 0.968325
O O1 0.829390 0.250000 0.250000
O O2 0.868102 0.303560 0.377683
O O3 0.819521 0.378063 0.262998
O O4 0.000000 0.317510 0.250000
O O5 0.250000 0.250000 0.500000
O O6 0.168743 0.143227 0.509768
O O7 0.325939 0.166436 0.407178
O O8 0.504419 0.902491 0.910393
O O9 0.699218 0.910372 0.854346
O O10 0.656633 0.972417 0.977469
O O11 0.626462 0.092007 0.211252
O O12 0.694454 0.051528 0.083912
O O13 0.750000 0.500000 0.739790
#
# Coordination Sequence:
#
# PCOD9506997 Si02
#       6
#    16  16  16  16  16   8
#     4  10  23  42  67  94 128 172 219 269 328 399
#     4  10  23  42  63  92 128 164 210 275 321 385
#     4  11  22  37  61  89 118 163 209 254 318 384
#     4  10  22  38  59  84 123 161 201 258 318 381
#     4  11  22  41  60  90 129 169 215 264 323 390
#     4  10  20  38  54  86 120 154 200 258 306 372
#
# _framework density 19.073091999999999
#
# number of rings (size 3 to 8) (size 9 to 14) (size 15 to 20)
#    0.000    1.636    1.818    2.182    0.000    8.000 
#    0.000    0.000    0.000    3.273    0.000    0.000 
#    0.000    0.000    0.000    0.000    0.000    0.000 
#
# Total GULP energy -245330.784824 kJ/mol
# GULP energy per Si atom -5575.699655 kJ/mol
# Density = 1.902968 g / cm^3
# Si number density = 19.073092 Si / 1000 Ang^3
#
#
#
# Elastic Constant Matrix: (Units=GPa)
#
#
# Indices 1 2 3 4 5 6 
#
# 1 73.6458 26.6234 16.4242 0.0000 0.0000 0.0000
# 2 26.6234 110.6155 50.7979 0.0000 0.0000 0.0000
# 3 16.4242 50.7979 152.3085 0.0000 0.0000 0.0000
# 4 0.0000 0.0000 0.0000 27.5386 0.0000 0.0000
# 5 0.0000 0.0000 0.0000 0.0000 15.9256 0.0000
# 6 0.0000 0.0000 0.0000 0.0000 0.0000 17.1592
#
#
#
# Elastic Compliance Matrix: (Units=1/GPa)
#
#
# Indices 1 2 3 4 5 6 
#
# 1 0.014903 -0.003364 -0.000485 0.000000 0.000000 0.000000
# 2 -0.003364 0.011435 -0.003451 0.000000 0.000000 0.000000
# 3 -0.000485 -0.003451 0.007769 0.000000 0.000000 0.000000
# 4 0.000000 0.000000 0.000000 0.036313 0.000000 0.000000
# 5 0.000000 0.000000 0.000000 0.000000 0.062792 0.000000
# 6 0.000000 0.000000 0.000000 0.000000 0.000000 0.058278
#
#
# Mechanical properties :
#
#
# Convention : Reuss Voigt Hill
#
# Bulk Modulus (GPa) = 51.26563 58.25121 54.75842
# Shear Modulus (GPa) = 23.51932 28.30631 25.91281
#
# Velocity S-wave (km/s) = 3.51538 3.85658 3.68993
# Velocity P-wave (km/s) = 6.58894 7.10199 6.85027
#
# Compressibility (1/GPa) = 0.01950625
#
# Stress axis : x y z
#
# Youngs Moduli (GPa) = 67.10136 87.45233 128.71848
#
# Poissons Ratio (x) = 0.29420 0.06243
# Poissons Ratio (y) = 0.22574 0.44420
# Poissons Ratio (z) = 0.03255 0.30179
#
# Static dielectric constant tensor:
#      x y z
#    x 1.649560 0.000000 0.000000 
#    y 0.000000 1.711980 0.000000 
#    z 0.000000 0.000000 1.666550 
# 
# From -- ./inp_files/20954.got.cif
#   From: 2010.05.17/outbox.cif.g08.bks.cpg/sg68_11_cif.got.tgz:20954.got - 2010.06.03 18:57:09.
