data_PCOD9506549
_publ_section_title
;
Structure prediction by ZEFSAII (Michael W. Deem and Ramdas Pophale) SiO2 
 PCOD9506549
Probable space group: C C C A
;
_chemical_formula_sum "Si O2"
_cell_formula_units_Z 112
_cell_length_a 16.156233
_cell_length_b 14.016118
_cell_length_c 23.812383
_cell_angle_alpha 90.000000
_cell_angle_beta 90.000000
_cell_angle_gamma 90.000000
_cell_volume 5392.258604
_symmetry_space_group_name_H-M "C C C A"
_symmetry_group_IT_number 68
_space_group.IT_coordinate_system_code '2'
_symmetry_cell_setting 'orthorhombic'
loop_
_space_group_symop_operation_xyz
x,y,z
-x,1/2-y,z
x,1/2-y,1/2-z
-x,y,1/2-z
-x,-y,-z
x,1/2+y,-z
-x,1/2+y,1/2+z
x,-y,1/2+z
1/2+x,1/2+y,z
1/2-x,-y,z
1/2+x,-y,1/2-z
1/2-x,1/2+y,1/2-z
1/2-x,1/2-y,-z
1/2+x,y,-z
1/2-x,y,1/2+z
1/2+x,1/2-y,1/2+z
loop_
_atom_site_type_symbol
_atom_site_label
_atom_site_fract_x
_atom_site_fract_y
_atom_site_fract_z
Si Si1 0.937413 0.476229 0.583367
Si Si2 0.251245 0.886194 0.389105
Si Si3 0.963149 0.088032 0.306742
Si Si4 0.710165 0.895298 0.982714
Si Si5 0.930737 0.678841 0.420224
Si Si6 0.111178 0.727611 0.660894
Si Si7 0.883834 0.677915 0.543024
O O1 0.867965 0.405225 0.558243
O O2 0.925194 0.573517 0.548855
O O3 0.930553 0.512534 0.647826
O O4 0.024096 0.423599 0.576947
O O5 0.297316 0.876788 0.450500
O O6 0.159074 0.842679 0.394297
O O7 0.302072 0.826130 0.343605
O O8 0.250000 0.000000 0.377265
O O9 0.042517 0.148107 0.327760
O O10 0.000000 0.043606 0.250000
O O11 0.898101 0.176873 0.300819
O O12 0.784266 0.831857 0.958478
O O13 0.750000 0.000000 0.981649
O O14 0.911603 0.716140 0.483139
O O15 0.000000 0.750000 0.394279
O O16 0.093308 0.767205 0.598562
#
# Coordination Sequence:
#
# PCOD9506549 Si02
#       7
#    16  16  16  16  16  16  16
#     4  10  20  35  58  78 115 159 201 244 300 361
#     4  10  21  37  52  83 131 175 200 234 286 367
#     4  10  22  40  62  90 109 137 197 272 323 350
#     4   8  17  32  50  78 118 160 194 231 277 347
#     4  11  24  33  53  91 128 168 205 235 288 366
#     4  10  20  33  60  85 117 154 189 243 310 351
#     4   9  20  33  52  84 124 164 195 236 285 355
#
# _framework density 20.770517000000002
#
# number of rings (size 3 to 8) (size 9 to 14) (size 15 to 20)
#    0.000    2.286    0.000    3.000    8.000    1.143 
#    0.000    0.000    0.000   16.714    0.000    0.000 
#    0.000    0.000    0.000    0.000    0.000    0.000 
#
# Total GULP energy -312318.893075 kJ/mol
# GULP energy per Si atom -5577.123091 kJ/mol
# Density = 2.072324 g / cm^3
# Si number density = 20.770517 Si / 1000 Ang^3
#
#
#
# Elastic Constant Matrix: (Units=GPa)
#
#
# Indices 1 2 3 4 5 6 
#
# 1 104.8670 27.7045 19.8168 0.0000 0.0000 0.0000
# 2 27.7045 89.8032 25.2437 0.0000 0.0000 0.0000
# 3 19.8168 25.2437 50.8566 0.0000 0.0000 0.0000
# 4 0.0000 0.0000 0.0000 19.9190 0.0000 0.0000
# 5 0.0000 0.0000 0.0000 0.0000 21.3503 0.0000
# 6 0.0000 0.0000 0.0000 0.0000 0.0000 28.5862
#
#
#
# Elastic Compliance Matrix: (Units=1/GPa)
#
#
# Indices 1 2 3 4 5 6 
#
# 1 0.010751 -0.002486 -0.002955 0.000000 0.000000 0.000000
# 2 -0.002486 0.013516 -0.005740 0.000000 0.000000 0.000000
# 3 -0.002955 -0.005740 0.023664 0.000000 0.000000 0.000000
# 4 0.000000 0.000000 0.000000 0.050203 0.000000 0.000000
# 5 0.000000 0.000000 0.000000 0.000000 0.046838 0.000000
# 6 0.000000 0.000000 0.000000 0.000000 0.000000 0.034982
#
#
# Mechanical properties :
#
#
# Convention : Reuss Voigt Hill
#
# Bulk Modulus (GPa) = 39.11141 43.45076 41.28108
# Shear Modulus (GPa) = 23.71467 25.48854 24.60161
#
# Velocity S-wave (km/s) = 3.38264 3.50687 3.44532
# Velocity P-wave (km/s) = 5.84187 6.11248 5.97871
#
# Compressibility (1/GPa) = 0.02556799
#
# Stress axis : x y z
#
# Youngs Moduli (GPa) = 93.01350 73.98657 42.25833
#
# Poissons Ratio (x) = 0.18393 0.12489
# Poissons Ratio (y) = 0.23123 0.24257
# Poissons Ratio (z) = 0.27488 0.42470
#
# Static dielectric constant tensor:
#      x y z
#    x 1.794070 0.000000 0.000000 
#    y 0.000000 1.814470 0.000000 
#    z 0.000000 0.000000 1.755780 
# 
# From -- ./inp_files/45558.got.cif
#   From: 2010.05.17/outbox.cif.g08.bks.cpg/sg68_23_cif.got.tgz:45558.got - 2010.06.03 18:57:09.
