data_PCOD9506009
_publ_section_title
;
Structure prediction by ZEFSAII (Michael W. Deem and Ramdas Pophale) SiO2 
 PCOD9506009
Probable space group: C C C A
;
_chemical_formula_sum "Si O2"
_cell_formula_units_Z 72
_cell_length_a 22.197586
_cell_length_b 19.843033
_cell_length_c 8.030787
_cell_angle_alpha 90.000000
_cell_angle_beta 90.000000
_cell_angle_gamma 90.000000
_cell_volume 3537.300123
_symmetry_space_group_name_H-M "C C C A"
_symmetry_group_IT_number 68
_space_group.IT_coordinate_system_code '2'
_symmetry_cell_setting 'orthorhombic'
loop_
_space_group_symop_operation_xyz
x,y,z
-x,1/2-y,z
x,1/2-y,1/2-z
-x,y,1/2-z
-x,-y,-z
x,1/2+y,-z
-x,1/2+y,1/2+z
x,-y,1/2+z
1/2+x,1/2+y,z
1/2-x,-y,z
1/2+x,-y,1/2-z
1/2-x,1/2+y,1/2-z
1/2-x,1/2-y,-z
1/2+x,y,-z
1/2-x,y,1/2+z
1/2+x,1/2-y,1/2+z
loop_
_atom_site_type_symbol
_atom_site_label
_atom_site_fract_x
_atom_site_fract_y
_atom_site_fract_z
Si Si1 0.831892 0.672759 0.966055
Si Si2 0.930622 0.734533 0.448730
Si Si3 0.081612 0.440565 0.919972
Si Si4 0.944072 0.584074 0.469299
Si Si5 0.256793 0.250000 0.250000
O O1 0.891688 0.716078 0.942065
O O2 0.860368 0.600031 0.011540
O O3 0.798413 0.711513 0.117758
O O4 0.785375 0.689693 0.820276
O O5 0.919858 0.750000 0.250000
O O6 0.919323 0.658060 0.502192
O O7 0.000000 0.750000 0.471867
O O8 0.069737 0.424846 0.726870
O O9 0.016562 0.420071 0.001436
O O10 0.086054 0.520877 0.940603
#
# Coordination Sequence:
#
# PCOD9506009 Si02
#       5
#    16  16  16  16   8
#     4  11  20  40  59  85 115 159 202 256 285 359
#     4  11  17  32  63  90 115 148 199 241 306 366
#     4  10  19  34  56  83 125 151 187 236 310 356
#     4  10  19  32  56  93 117 155 180 239 309 385
#     4  10  24  36  62  84 114 166 222 240 286 330
#
# _framework density 20.354507999999999
#
# number of rings (size 3 to 8) (size 9 to 14) (size 15 to 20)
#    0.000    1.556    5.556    1.333    0.000    1.778 
#    0.000    0.556    0.000   22.667    0.000    0.000 
#    0.000    0.000    0.000    0.000    0.000    0.000 
#
# Total GULP energy -200674.999672 kJ/mol
# GULP energy per Si atom -5574.305546 kJ/mol
# Density = 2.030818 g / cm^3
# Si number density = 20.354508 Si / 1000 Ang^3
#
#
#
# Elastic Constant Matrix: (Units=GPa)
#
#
# Indices 1 2 3 4 5 6 
#
# 1 85.7240 12.6729 15.6073 0.0000 0.0000 0.0000
# 2 12.6729 131.1207 -3.8154 0.0000 0.0000 0.0000
# 3 15.6073 -3.8154 10.1658 0.0000 0.0000 0.0000
# 4 0.0000 0.0000 0.0000 26.6055 0.0000 0.0000
# 5 0.0000 0.0000 0.0000 0.0000 -3.3714 0.0000
# 6 0.0000 0.0000 0.0000 0.0000 0.0000 35.6255
#
#
#
# Elastic Compliance Matrix: (Units=1/GPa)
#
#
# Indices 1 2 3 4 5 6 
#
# 1 0.016916 -0.002417 -0.026878 0.000000 0.000000 0.000000
# 2 -0.002417 0.008056 0.006734 0.000000 0.000000 0.000000
# 3 -0.026878 0.006734 0.142162 0.000000 0.000000 0.000000
# 4 0.000000 0.000000 0.000000 0.037586 0.000000 0.000000
# 5 0.000000 0.000000 0.000000 0.000000 -0.296610 0.000000
# 6 0.000000 0.000000 0.000000 0.000000 0.000000 0.028070
#
#
# Mechanical properties :
#
#
# Convention : Reuss Voigt Hill
#
# Bulk Modulus (GPa) = 8.19588 30.66001 19.42795
# Shear Modulus (GPa) = 227.55166 25.27494 126.41330
#
# Velocity S-wave (km/s) = 10.58475 3.52765 7.88927
# Velocity P-wave (km/s) = 12.38620 5.62922 9.62045
#
# Compressibility (1/GPa) = 0.12201252
#
# Stress axis : x y z
#
# Youngs Moduli (GPa) = 59.11480 124.12898 7.03424
#
# Poissons Ratio (x) = 0.30003 0.18907
# Poissons Ratio (y) = 0.14289 -0.04737
# Poissons Ratio (z) = 1.58890 -0.83594
#
# Static dielectric constant tensor:
#      x y z
#    x 1.773270 0.000000 0.000000 
#    y 0.000000 1.779280 0.000000 
#    z 0.000000 0.000000 1.830930 
# 
# From -- ./inp_files/6936.got.cif
#   From: 2010.05.17/outbox.cif.g08.bks.cpg/sg68_4_cif.got.tgz:6936.got - 2010.06.03 18:57:09.
