data_PCOD9506717
_publ_section_title
;
Structure prediction by ZEFSAII (Michael W. Deem and Ramdas Pophale) SiO2 
 PCOD9506717
Probable space group: C C C A
;
_chemical_formula_sum "Si O2"
_cell_formula_units_Z 104
_cell_length_a 14.567363
_cell_length_b 22.609338
_cell_length_c 14.909066
_cell_angle_alpha 90.000000
_cell_angle_beta 90.000000
_cell_angle_gamma 90.000000
_cell_volume 4910.426628
_symmetry_space_group_name_H-M "C C C A"
_symmetry_group_IT_number 68
_space_group.IT_coordinate_system_code '2'
_symmetry_cell_setting 'orthorhombic'
loop_
_space_group_symop_operation_xyz
x,y,z
-x,1/2-y,z
x,1/2-y,1/2-z
-x,y,1/2-z
-x,-y,-z
x,1/2+y,-z
-x,1/2+y,1/2+z
x,-y,1/2+z
1/2+x,1/2+y,z
1/2-x,-y,z
1/2+x,-y,1/2-z
1/2-x,1/2+y,1/2-z
1/2-x,1/2-y,-z
1/2+x,y,-z
1/2-x,y,1/2+z
1/2+x,1/2-y,1/2+z
loop_
_atom_site_type_symbol
_atom_site_label
_atom_site_fract_x
_atom_site_fract_y
_atom_site_fract_z
Si Si1 0.145934 0.435716 0.570990
Si Si2 0.500000 0.750000 1.000000
Si Si3 0.854066 0.435716 0.429010
Si Si4 0.607231 0.933013 0.774399
Si Si5 0.107231 0.933013 0.725601
Si Si6 0.141514 0.159414 0.068018
Si Si7 0.358486 0.840586 0.568018
O O1 0.100025 0.500000 0.558278
O O2 0.250000 0.440474 0.536876
O O3 0.150553 0.424584 0.676671
O O4 0.108922 0.381272 0.515780
O O5 0.570129 0.713075 0.063317
O O6 0.429871 0.713075 0.936683
O O7 0.849447 0.424584 0.323329
O O8 0.891078 0.381272 0.484220
O O9 0.500000 0.931147 0.750000
O O10 0.632389 0.883208 0.845669
O O11 0.629647 0.000000 0.806899
O O12 0.132389 0.883208 0.654331
O O13 0.000000 0.931147 0.750000
O O14 0.250000 0.176499 0.058967
#
# Coordination Sequence:
#
# PCOD9506717 Si02
#       7
#    16   8  16  16  16  16  16
#     4   9  18  34  59  91 120 145 183 238 300 368
#     4  12  26  44  60  82 120 162 218 270 290 338
#     4   9  18  34  59  91 120 145 183 238 300 368
#     4  10  20  35  60  94 126 154 189 241 307 373
#     4  10  20  35  60  94 126 154 189 241 307 373
#     4  11  23  41  64  87 119 165 207 250 307 361
#     4  11  23  41  64  87 119 165 207 250 307 361
#
# _framework density 21.179421999999999
#
# number of rings (size 3 to 8) (size 9 to 14) (size 15 to 20)
#    0.000    1.846    0.000    4.154    0.000    3.077 
#    0.000   13.077    0.000   11.077    0.000    0.000 
#    0.000    0.000    0.000    0.000    0.000    0.000 
#
# Total GULP energy -290085.004502 kJ/mol
# GULP energy per Si atom -5578.557779 kJ/mol
# Density = 2.113122 g / cm^3
# Si number density = 21.179422 Si / 1000 Ang^3
#
#
#
# Elastic Constant Matrix: (Units=GPa)
#
#
# Indices 1 2 3 4 5 6 
#
# 1 137.3638 57.7426 26.9204 0.0000 0.0000 0.0000
# 2 57.7426 113.7440 54.0870 0.0000 0.0000 0.0000
# 3 26.9204 54.0870 65.2614 0.0000 0.0000 0.0000
# 4 0.0000 0.0000 0.0000 14.4059 0.0000 0.0000
# 5 0.0000 0.0000 0.0000 0.0000 23.1380 0.0000
# 6 0.0000 0.0000 0.0000 0.0000 0.0000 43.2185
#
#
#
# Elastic Compliance Matrix: (Units=1/GPa)
#
#
# Indices 1 2 3 4 5 6 
#
# 1 0.009256 -0.004758 0.000126 0.000000 0.000000 0.000000
# 2 -0.004758 0.016956 -0.012090 0.000000 0.000000 0.000000
# 3 0.000126 -0.012090 0.025291 0.000000 0.000000 0.000000
# 4 0.000000 0.000000 0.000000 0.069416 0.000000 0.000000
# 5 0.000000 0.000000 0.000000 0.000000 0.043219 0.000000
# 6 0.000000 0.000000 0.000000 0.000000 0.000000 0.023138
#
#
# Mechanical properties :
#
#
# Convention : Reuss Voigt Hill
#
# Bulk Modulus (GPa) = 55.37901 65.98546 60.68223
# Shear Modulus (GPa) = 22.05158 27.99375 25.02266
#
# Velocity S-wave (km/s) = 3.23023 3.63952 3.44097
# Velocity P-wave (km/s) = 6.33379 6.99175 6.67089
#
# Compressibility (1/GPa) = 0.01805738
#
# Stress axis : x y z
#
# Youngs Moduli (GPa) = 108.04317 58.97502 39.53958
#
# Poissons Ratio (x) = 0.28063 -0.00497
# Poissons Ratio (y) = 0.51411 0.47804
# Poissons Ratio (z) = -0.01358 0.71302
#
# Static dielectric constant tensor:
#      x y z
#    x 1.727560 0.000000 0.000000 
#    y 0.000000 1.904050 0.000000 
#    z 0.000000 0.000000 1.736330 
# 
# From -- ./inp_files/23785.got.cif
#   From: 2010.05.17/outbox.cif.g08.bks.cpg/sg68_12_cif.got.tgz:23785.got - 2010.06.03 18:57:09.
