data_PCOD9506494
_publ_section_title
;
Structure prediction by ZEFSAII (Michael W. Deem and Ramdas Pophale) SiO2 
 PCOD9506494
Probable space group: C C C A
;
_chemical_formula_sum "Si O2"
_cell_formula_units_Z 104
_cell_length_a 26.475868
_cell_length_b 22.871801
_cell_length_c 9.849660
_cell_angle_alpha 90.000000
_cell_angle_beta 90.000000
_cell_angle_gamma 90.000000
_cell_volume 5964.469337
_symmetry_space_group_name_H-M "C C C A"
_symmetry_group_IT_number 68
_space_group.IT_coordinate_system_code '2'
_symmetry_cell_setting 'orthorhombic'
loop_
_space_group_symop_operation_xyz
x,y,z
-x,1/2-y,z
x,1/2-y,1/2-z
-x,y,1/2-z
-x,-y,-z
x,1/2+y,-z
-x,1/2+y,1/2+z
x,-y,1/2+z
1/2+x,1/2+y,z
1/2-x,-y,z
1/2+x,-y,1/2-z
1/2-x,1/2+y,1/2-z
1/2-x,1/2-y,-z
1/2+x,y,-z
1/2-x,y,1/2+z
1/2+x,1/2-y,1/2+z
loop_
_atom_site_type_symbol
_atom_site_label
_atom_site_fract_x
_atom_site_fract_y
_atom_site_fract_z
Si Si1 0.630666 0.816416 0.194993
Si Si2 0.758990 0.205647 0.126511
Si Si3 0.651861 0.683832 0.806422
Si Si4 0.577378 0.157395 0.418334
Si Si5 0.500000 0.250000 0.459259
Si Si6 0.497539 0.558623 0.587085
Si Si7 0.924144 0.654064 0.541341
O O1 0.630037 0.750000 0.250000
O O2 0.687900 0.828067 0.140609
O O3 0.604872 0.853921 0.315835
O O4 0.597324 0.821723 0.062155
O O5 0.761390 0.250000 0.250000
O O6 0.708748 0.167553 0.151052
O O7 0.750000 0.250000 0.000000
O O8 0.653647 0.750000 0.750000
O O9 0.622661 0.649987 0.687873
O O10 0.617464 0.679243 0.938396
O O11 0.538032 0.208402 0.374484
O O12 0.546395 0.098656 0.437437
O O13 0.467640 0.203798 0.547684
O O14 0.500000 0.548216 0.750000
O O15 0.500000 0.500000 0.500000
O O16 0.450634 0.598134 0.530740
#
# Coordination Sequence:
#
# PCOD9506494 Si02
#       7
#    16  16  16  16   8  16  16
#     4  11  20  35  50  88 123 158 193 226 277 343
#     4  10  20  32  51  79 123 167 194 226 273 343
#     4  11  18  33  54  84 115 158 189 230 281 340
#     4  11  22  34  56  81 115 150 191 232 286 342
#     4  10  20  32  50  80 114 150 176 228 276 342
#     4  11  26  44  60  83 109 146 198 245 299 357
#     4  11  22  34  57  82 118 148 192 239 286 343
#
# _framework density 17.436589000000001
#
# number of rings (size 3 to 8) (size 9 to 14) (size 15 to 20)
#    0.000    1.231    4.615    3.692    2.154    3.077 
#    0.000    0.000    0.000    0.000    0.000    6.462 
#    0.000    0.000    0.000    0.000    0.000    0.000 
#
# Total GULP energy -289780.967943 kJ/mol
# GULP energy per Si atom -5572.710922 kJ/mol
# Density = 1.739690 g / cm^3
# Si number density = 17.436589 Si / 1000 Ang^3
#
#
#
# Elastic Constant Matrix: (Units=GPa)
#
#
# Indices 1 2 3 4 5 6 
#
# 1 128.1066 49.5186 59.7416 0.0000 0.0000 0.0000
# 2 49.5186 76.6264 27.6248 0.0000 0.0000 0.0000
# 3 59.7416 27.6248 133.4000 0.0000 0.0000 0.0000
# 4 0.0000 0.0000 0.0000 22.9370 0.0000 0.0000
# 5 0.0000 0.0000 0.0000 0.0000 24.7075 0.0000
# 6 0.0000 0.0000 0.0000 0.0000 0.0000 11.2988
#
#
#
# Elastic Compliance Matrix: (Units=1/GPa)
#
#
# Indices 1 2 3 4 5 6 
#
# 1 0.012211 -0.006397 -0.004144 0.000000 0.000000 0.000000
# 2 -0.006397 0.017455 -0.000750 0.000000 0.000000 0.000000
# 3 -0.004144 -0.000750 0.009507 0.000000 0.000000 0.000000
# 4 0.000000 0.000000 0.000000 0.043598 0.000000 0.000000
# 5 0.000000 0.000000 0.000000 0.000000 0.040474 0.000000
# 6 0.000000 0.000000 0.000000 0.000000 0.000000 0.088505
#
#
# Mechanical properties :
#
#
# Convention : Reuss Voigt Hill
#
# Bulk Modulus (GPa) = 60.27149 67.98921 64.13035
# Shear Modulus (GPa) = 20.84532 25.20520 23.02526
#
# Velocity S-wave (km/s) = 3.46134 3.80614 3.63783
# Velocity P-wave (km/s) = 7.11447 7.64150 7.38269
#
# Compressibility (1/GPa) = 0.01659159
#
# Stress axis : x y z
#
# Youngs Moduli (GPa) = 81.89088 57.29075 105.18267
#
# Poissons Ratio (x) = 0.36652 0.43587
# Poissons Ratio (y) = 0.52389 0.07884
# Poissons Ratio (z) = 0.33935 0.04294
#
# Static dielectric constant tensor:
#      x y z
#    x 1.705120 0.000000 0.000000 
#    y 0.000000 1.564300 0.000000 
#    z 0.000000 0.000000 1.634280 
# 
# From -- ./inp_files/9133.got.cif
#   From: 2010.05.17/outbox.cif.g08.bks.cpg/sg68_5_cif.got.tgz:9133.got - 2010.06.03 18:57:09.
