data_PCOD9506833
_publ_section_title
;
Structure prediction by ZEFSAII (Michael W. Deem and Ramdas Pophale) SiO2 
 PCOD9506833
Probable space group: C C C A
;
_chemical_formula_sum "Si O2"
_cell_formula_units_Z 104
_cell_length_a 27.625430
_cell_length_b 16.344585
_cell_length_c 11.109305
_cell_angle_alpha 90.000000
_cell_angle_beta 90.000000
_cell_angle_gamma 90.000000
_cell_volume 5016.142147
_symmetry_space_group_name_H-M "C C C A"
_symmetry_group_IT_number 68
_space_group.IT_coordinate_system_code '2'
_symmetry_cell_setting 'orthorhombic'
loop_
_space_group_symop_operation_xyz
x,y,z
-x,1/2-y,z
x,1/2-y,1/2-z
-x,y,1/2-z
-x,-y,-z
x,1/2+y,-z
-x,1/2+y,1/2+z
x,-y,1/2+z
1/2+x,1/2+y,z
1/2-x,-y,z
1/2+x,-y,1/2-z
1/2-x,1/2+y,1/2-z
1/2-x,1/2-y,-z
1/2+x,y,-z
1/2-x,y,1/2+z
1/2+x,1/2-y,1/2+z
loop_
_atom_site_type_symbol
_atom_site_label
_atom_site_fract_x
_atom_site_fract_y
_atom_site_fract_z
Si Si1 0.065190 0.581780 0.469449
Si Si2 0.621830 0.691962 0.143200
Si Si3 0.800069 0.299196 0.502982
Si Si4 0.651261 0.573174 0.344423
Si Si5 0.959325 0.101946 0.504021
Si Si6 0.334341 0.750000 0.750000
Si Si7 0.610657 0.401692 0.286330
O O1 0.101492 0.588895 0.581153
O O2 0.048000 0.488171 0.446973
O O3 0.095510 0.604615 0.352248
O O4 0.014987 0.628067 0.492645
O O5 0.603835 0.750000 0.250000
O O6 0.648291 0.618287 0.215647
O O7 0.577191 0.660069 0.066286
O O8 0.660294 0.742812 0.065270
O O9 0.750000 0.250000 0.500000
O O10 0.807259 0.384987 0.429012
O O11 0.808338 0.302885 0.646815
O O12 0.646979 0.476057 0.318884
O O13 0.938395 0.089750 0.637821
O O14 0.365607 0.683771 0.679472
#
# Coordination Sequence:
#
# PCOD9506833 Si02
#       7
#    16  16  16  16  16   8  16
#     4  10  20  36  62  95 128 179 225 267 322 404
#     4  10  21  40  62  92 125 170 218 277 342 402
#     4  11  25  45  71  95 127 170 221 279 353 409
#     4  10  22  41  67  92 133 174 219 275 332 407
#     4  10  20  36  61  93 131 174 225 265 324 401
#     4  12  24  42  71  96 126 176 211 284 344 398
#     4  11  21  40  65  93 137 170 222 265 336 394
#
# _framework density 20.733063999999999
#
# number of rings (size 3 to 8) (size 9 to 14) (size 15 to 20)
#    0.000    1.538    4.615    0.462    3.231    0.615 
#    0.000   10.769    0.000    0.000    0.000    0.000 
#    0.000    0.000    0.000    0.000    0.000    0.000 
#
# Total GULP energy -289847.889567 kJ/mol
# GULP energy per Si atom -5573.997876 kJ/mol
# Density = 2.068587 g / cm^3
# Si number density = 20.733064 Si / 1000 Ang^3
#
#
#
# Elastic Constant Matrix: (Units=GPa)
#
#
# Indices 1 2 3 4 5 6 
#
# 1 77.3678 22.1593 12.6950 0.0000 0.0000 0.0000
# 2 22.1593 79.2466 5.5530 0.0000 0.0000 0.0000
# 3 12.6950 5.5530 83.7328 0.0000 0.0000 0.0000
# 4 0.0000 0.0000 0.0000 31.6795 0.0000 0.0000
# 5 0.0000 0.0000 0.0000 0.0000 7.2686 0.0000
# 6 0.0000 0.0000 0.0000 0.0000 0.0000 25.4668
#
#
#
# Elastic Compliance Matrix: (Units=1/GPa)
#
#
# Indices 1 2 3 4 5 6 
#
# 1 0.014351 -0.003878 -0.001919 0.000000 0.000000 0.000000
# 2 -0.003878 0.013726 -0.000322 0.000000 0.000000 0.000000
# 3 -0.001919 -0.000322 0.012255 0.000000 0.000000 0.000000
# 4 0.000000 0.000000 0.000000 0.031566 0.000000 0.000000
# 5 0.000000 0.000000 0.000000 0.000000 0.137577 0.000000
# 6 0.000000 0.000000 0.000000 0.000000 0.000000 0.039267
#
#
# Mechanical properties :
#
#
# Convention : Reuss Voigt Hill
#
# Bulk Modulus (GPa) = 35.59564 35.68464 35.64014
# Shear Modulus (GPa) = 18.49487 26.21233 22.35360
#
# Velocity S-wave (km/s) = 2.98996 3.55952 3.28710
# Velocity P-wave (km/s) = 5.39681 5.84315 5.62441
#
# Compressibility (1/GPa) = 0.02809332
#
# Stress axis : x y z
#
# Youngs Moduli (GPa) = 69.68189 72.85488 81.59936
#
# Poissons Ratio (x) = 0.28256 0.15655
# Poissons Ratio (y) = 0.27026 0.02630
# Poissons Ratio (z) = 0.13369 0.02348
#
# Static dielectric constant tensor:
#      x y z
#    x 1.756210 0.000000 0.000000 
#    y 0.000000 1.861330 0.000000 
#    z 0.000000 0.000000 1.773460 
# 
# From -- ./inp_files/17201.got.cif
#   From: 2010.05.17/outbox.cif.g08.bks.cpg/sg68_9_cif.got.tgz:17201.got - 2010.06.03 18:57:09.
