data_PCOD9506901
_publ_section_title
;
Structure prediction by ZEFSAII (Michael W. Deem and Ramdas Pophale) SiO2 
 PCOD9506901
Probable space group: C C C A
;
_chemical_formula_sum "Si O2"
_cell_formula_units_Z 80
_cell_length_a 23.070780
_cell_length_b 18.103757
_cell_length_c 8.732265
_cell_angle_alpha 90.000000
_cell_angle_beta 90.000000
_cell_angle_gamma 90.000000
_cell_volume 3647.185867
_symmetry_space_group_name_H-M "C C C A"
_symmetry_group_IT_number 68
_space_group.IT_coordinate_system_code '2'
_symmetry_cell_setting 'orthorhombic'
loop_
_space_group_symop_operation_xyz
x,y,z
-x,1/2-y,z
x,1/2-y,1/2-z
-x,y,1/2-z
-x,-y,-z
x,1/2+y,-z
-x,1/2+y,1/2+z
x,-y,1/2+z
1/2+x,1/2+y,z
1/2-x,-y,z
1/2+x,-y,1/2-z
1/2-x,1/2+y,1/2-z
1/2-x,1/2-y,-z
1/2+x,y,-z
1/2-x,y,1/2+z
1/2+x,1/2-y,1/2+z
loop_
_atom_site_type_symbol
_atom_site_label
_atom_site_fract_x
_atom_site_fract_y
_atom_site_fract_z
Si Si1 0.219010 0.802371 0.623476
Si Si2 0.561006 0.334455 0.303269
Si Si3 0.390940 0.600923 0.421790
Si Si4 0.679162 0.904735 0.823746
Si Si5 0.857528 0.533386 0.874532
O O1 0.189566 0.750000 0.750000
O O2 0.250000 0.750000 0.500000
O O3 0.171835 0.859577 0.560136
O O4 0.269127 0.849117 0.706803
O O5 0.562498 0.250000 0.250000
O O6 0.500000 0.367577 0.250000
O O7 0.566516 0.345640 0.485873
O O8 0.617097 0.371897 0.226376
O O9 0.391741 0.523930 0.516361
O O10 0.395828 0.580939 0.243357
O O11 0.682176 0.982251 0.734535
O O12 0.678094 0.918220 0.005908
#
# Coordination Sequence:
#
# PCOD9506901 Si02
#       5
#    16  16  16  16  16
#     4  12  23  34  55  84 118 157 192 242 293 343
#     4  10  21  40  63  84 114 154 192 238 292 351
#     4  10  21  37  56  84 114 147 196 237 291 352
#     4  10  20  37  56  84 117 150 199 240 291 352
#     4   9  20  36  57  82 113 154 190 241 295 340
#
# _framework density 21.934721
#
# number of rings (size 3 to 8) (size 9 to 14) (size 15 to 20)
#    0.000    1.800    0.000    5.400    0.000    4.800 
#    0.000   17.000    0.000    2.400    0.000    0.000 
#    0.000    0.000    0.000    0.000    0.000    0.000 
#
# Total GULP energy -223371.290138 kJ/mol
# GULP energy per Si atom -5584.282253 kJ/mol
# Density = 2.188480 g / cm^3
# Si number density = 21.934721 Si / 1000 Ang^3
#
#
#
# Elastic Constant Matrix: (Units=GPa)
#
#
# Indices 1 2 3 4 5 6 
#
# 1 91.6783 10.1784 6.5461 0.0000 0.0000 0.0000
# 2 10.1784 66.5888 26.5154 0.0000 0.0000 0.0000
# 3 6.5461 26.5154 125.0328 0.0000 0.0000 0.0000
# 4 0.0000 0.0000 0.0000 42.3766 0.0000 0.0000
# 5 0.0000 0.0000 0.0000 0.0000 16.9445 0.0000
# 6 0.0000 0.0000 0.0000 0.0000 0.0000 -6.0587
#
#
#
# Elastic Compliance Matrix: (Units=1/GPa)
#
#
# Indices 1 2 3 4 5 6 
#
# 1 0.011103 -0.001601 -0.000242 0.000000 0.000000 0.000000
# 2 -0.001601 0.016633 -0.003444 0.000000 0.000000 0.000000
# 3 -0.000242 -0.003444 0.008741 0.000000 0.000000 0.000000
# 4 0.000000 0.000000 0.000000 0.023598 0.000000 0.000000
# 5 0.000000 0.000000 0.000000 0.000000 0.059016 0.000000
# 6 0.000000 0.000000 0.000000 0.000000 0.000000 -0.165052
#
#
# Mechanical properties :
#
#
# Convention : Reuss Voigt Hill
#
# Bulk Modulus (GPa) = 38.60328 41.08666 39.84497
# Shear Modulus (GPa) = -186.88973 26.65647 -80.11663
#
# Velocity S-wave (km/s) = -9.24054 3.48985 -6.05015
# Velocity P-wave (km/s) = 9.80881 5.91698 5.53182
#
# Compressibility (1/GPa) = 0.02590454
#
# Stress axis : x y z
#
# Youngs Moduli (GPa) = 90.06822 60.11975 114.40542
#
# Poissons Ratio (x) = 0.09624 0.02766
# Poissons Ratio (y) = 0.14418 0.39397
# Poissons Ratio (z) = 0.02178 0.20703
#
# Static dielectric constant tensor:
#      x y z
#    x 1.786650 0.000000 0.000000 
#    y 0.000000 1.866000 0.000000 
#    z 0.000000 0.000000 1.872060 
# 
# From -- ./inp_files/8763.got.cif
#   From: 2010.05.17/outbox.cif.g08.bks.cpg/sg68_5_cif.got.tgz:8763.got - 2010.06.03 18:57:09.
