data_PCOD9506142
_publ_section_title
;
Structure prediction by ZEFSAII (Michael W. Deem and Ramdas Pophale) SiO2 
 PCOD9506142
Probable space group: C C C A
;
_chemical_formula_sum "Si O2"
_cell_formula_units_Z 72
_cell_length_a 14.196212
_cell_length_b 8.082466
_cell_length_c 28.069853
_cell_angle_alpha 90.000000
_cell_angle_beta 90.000000
_cell_angle_gamma 90.000000
_cell_volume 3220.746184
_symmetry_space_group_name_H-M "C C C A"
_symmetry_group_IT_number 68
_space_group.IT_coordinate_system_code '2'
_symmetry_cell_setting 'orthorhombic'
loop_
_space_group_symop_operation_xyz
x,y,z
-x,1/2-y,z
x,1/2-y,1/2-z
-x,y,1/2-z
-x,-y,-z
x,1/2+y,-z
-x,1/2+y,1/2+z
x,-y,1/2+z
1/2+x,1/2+y,z
1/2-x,-y,z
1/2+x,-y,1/2-z
1/2-x,1/2+y,1/2-z
1/2-x,1/2-y,-z
1/2+x,y,-z
1/2-x,y,1/2+z
1/2+x,1/2-y,1/2+z
loop_
_atom_site_type_symbol
_atom_site_label
_atom_site_fract_x
_atom_site_fract_y
_atom_site_fract_z
Si Si1 0.750000 0.500000 0.140737
Si Si2 0.403027 0.398049 0.927471
Si Si3 0.614765 0.748254 0.804549
Si Si4 0.931197 0.587453 0.392723
Si Si5 0.145770 0.258266 0.980651
O O1 0.686857 0.620798 0.107364
O O2 0.672031 0.397994 0.170377
O O3 0.497803 0.435388 0.898016
O O4 0.380216 0.570052 0.955748
O O5 0.408264 0.271257 0.970364
O O6 0.500000 0.750000 0.800155
O O7 0.649256 0.750000 0.750000
O O8 0.626113 0.599655 0.843400
O O9 0.872478 0.618561 0.440576
O O10 0.000000 0.750000 0.392088
O O11 0.250000 0.250000 0.000000
#
# Coordination Sequence:
#
# PCOD9506142 Si02
#       5
#     8  16  16  16  16
#     4  12  18  36  60  82 120 152 206 268 318 378
#     4  11  20  32  53  83 119 160 199 256 304 384
#     4  10  19  34  60  88 110 149 214 269 324 388
#     4   9  17  33  50  80 113 147 204 248 304 373
#     4  11  18  30  49  79 115 157 200 242 305 367
#
# _framework density 22.355067999999999
#
# number of rings (size 3 to 8) (size 9 to 14) (size 15 to 20)
#    0.000    1.556    8.889    0.667    0.000    0.000 
#    0.000    0.000    9.778    0.000    0.000    3.111 
#    0.000    0.000    0.000    0.000    0.000    0.000 
#
# Total GULP energy -200644.240438 kJ/mol
# GULP energy per Si atom -5573.451123 kJ/mol
# Density = 2.230419 g / cm^3
# Si number density = 22.355068 Si / 1000 Ang^3
#
#
#
# Elastic Constant Matrix: (Units=GPa)
#
#
# Indices 1 2 3 4 5 6 
#
# 1 116.9747 17.8480 55.0830 0.0000 0.0000 0.0000
# 2 17.8480 52.8050 16.2191 0.0000 0.0000 0.0000
# 3 55.0830 16.2191 185.1308 0.0000 0.0000 0.0000
# 4 0.0000 0.0000 0.0000 17.0047 0.0000 0.0000
# 5 0.0000 0.0000 0.0000 0.0000 27.0799 0.0000
# 6 0.0000 0.0000 0.0000 0.0000 0.0000 22.4626
#
#
#
# Elastic Compliance Matrix: (Units=1/GPa)
#
#
# Indices 1 2 3 4 5 6 
#
# 1 0.010279 -0.002605 -0.002830 0.000000 0.000000 0.000000
# 2 -0.002605 0.020121 -0.000988 0.000000 0.000000 0.000000
# 3 -0.002830 -0.000988 0.006330 0.000000 0.000000 0.000000
# 4 0.000000 0.000000 0.000000 0.058807 0.000000 0.000000
# 5 0.000000 0.000000 0.000000 0.000000 0.036928 0.000000
# 6 0.000000 0.000000 0.000000 0.000000 0.000000 0.044518
#
#
# Mechanical properties :
#
#
# Convention : Reuss Voigt Hill
#
# Bulk Modulus (GPa) = 41.86744 59.24561 50.55653
# Shear Modulus (GPa) = 25.27912 31.02680 28.15296
#
# Velocity S-wave (km/s) = 3.36639 3.72951 3.55259
# Velocity P-wave (km/s) = 5.82058 6.71604 6.28428
#
# Compressibility (1/GPa) = 0.02388491
#
# Stress axis : x y z
#
# Youngs Moduli (GPa) = 97.28534 49.69814 157.97306
#
# Poissons Ratio (x) = 0.12946 0.44709
# Poissons Ratio (y) = 0.25343 0.15604
# Poissons Ratio (z) = 0.27533 0.04909
#
# Static dielectric constant tensor:
#      x y z
#    x 1.581190 0.000000 0.000000 
#    y 0.000000 1.750510 0.000000 
#    z 0.000000 0.000000 1.900370 
# 
# From -- ./inp_files/50741.got.cif
#   From: 2010.05.17/outbox.cif.g08.bks.cpg/sg68_26_cif.got.tgz:50741.got - 2010.06.03 18:57:09.
