data_PCOD9506579
_publ_section_title
;
Structure prediction by ZEFSAII (Michael W. Deem and Ramdas Pophale) SiO2 
 PCOD9506579
Probable space group: C C C A
;
_chemical_formula_sum "Si O2"
_cell_formula_units_Z 88
_cell_length_a 4.982635
_cell_length_b 22.409606
_cell_length_c 39.945916
_cell_angle_alpha 90.000000
_cell_angle_beta 90.000000
_cell_angle_gamma 90.000000
_cell_volume 4460.316528
_symmetry_space_group_name_H-M "C C C A"
_symmetry_group_IT_number 68
_space_group.IT_coordinate_system_code '2'
_symmetry_cell_setting 'orthorhombic'
loop_
_space_group_symop_operation_xyz
x,y,z
-x,1/2-y,z
x,1/2-y,1/2-z
-x,y,1/2-z
-x,-y,-z
x,1/2+y,-z
-x,1/2+y,1/2+z
x,-y,1/2+z
1/2+x,1/2+y,z
1/2-x,-y,z
1/2+x,-y,1/2-z
1/2-x,1/2+y,1/2-z
1/2-x,1/2-y,-z
1/2+x,y,-z
1/2-x,y,1/2+z
1/2+x,1/2-y,1/2+z
loop_
_atom_site_type_symbol
_atom_site_label
_atom_site_fract_x
_atom_site_fract_y
_atom_site_fract_z
Si Si1 0.137400 0.313588 0.163063
Si Si2 0.595933 0.870238 0.093304
Si Si3 0.500000 0.458139 0.250000
Si Si4 0.873682 0.615054 0.183990
Si Si5 0.491820 0.821837 0.479575
Si Si6 0.587988 0.939707 0.886091
O O1 0.172466 0.324585 0.123141
O O2 0.421798 0.329279 0.179691
O O3 0.000000 0.250000 0.168961
O O4 0.926748 0.362293 0.177169
O O5 0.603273 0.845099 0.056161
O O6 0.291205 0.888846 0.101045
O O7 0.799985 0.925823 0.097853
O O8 0.750000 0.500000 0.259722
O O9 0.588351 0.417266 0.218992
O O10 0.944624 0.569712 0.153742
O O11 0.500000 0.750000 0.477863
O O12 0.285397 0.841020 0.508531
O O13 0.750000 0.000000 0.892947
#
# Coordination Sequence:
#
# PCOD9506579 Si02
#       6
#    16  16   8  16  16  16
#     4  10  20  37  58  82 114 145 180 225 272 326
#     4  10  20  34  56  81 107 141 181 224 269 324
#     4  12  24  40  61  82 113 148 184 232 280 322
#     4  10  22  37  56  85 110 142 186 225 273 329
#     4  10  20  34  54  80 109 139 173 217 271 327
#     4  10  20  35  56  79 106 139 182 230 272 313
#
# _framework density 19.729541999999999
#
# number of rings (size 3 to 8) (size 9 to 14) (size 15 to 20)
#    0.000    1.818    0.000    4.364    0.000    2.909 
#    0.000    8.182    0.000   10.909    0.000    0.000 
#    0.000    0.000    0.000    0.000    0.000    0.000 
#
# Total GULP energy -245633.200283 kJ/mol
# GULP energy per Si atom -5582.572734 kJ/mol
# Density = 1.968464 g / cm^3
# Si number density = 19.729542 Si / 1000 Ang^3
#
#
#
# Elastic Constant Matrix: (Units=GPa)
#
#
# Indices 1 2 3 4 5 6 
#
# 1 90.6828 2.4832 18.3839 0.0000 0.0000 0.0000
# 2 2.4832 39.8188 21.5105 0.0000 0.0000 0.0000
# 3 18.3839 21.5105 118.5450 0.0000 0.0000 0.0000
# 4 0.0000 0.0000 0.0000 7.9798 0.0000 0.0000
# 5 0.0000 0.0000 0.0000 0.0000 22.1769 0.0000
# 6 0.0000 0.0000 0.0000 0.0000 0.0000 26.8192
#
#
#
# Elastic Compliance Matrix: (Units=1/GPa)
#
#
# Indices 1 2 3 4 5 6 
#
# 1 0.011388 0.000270 -0.001815 0.000000 0.000000 0.000000
# 2 0.000270 0.027849 -0.005095 0.000000 0.000000 0.000000
# 3 -0.001815 -0.005095 0.009642 0.000000 0.000000 0.000000
# 4 0.000000 0.000000 0.000000 0.125316 0.000000 0.000000
# 5 0.000000 0.000000 0.000000 0.000000 0.045092 0.000000
# 6 0.000000 0.000000 0.000000 0.000000 0.000000 0.037287
#
#
# Mechanical properties :
#
#
# Convention : Reuss Voigt Hill
#
# Bulk Modulus (GPa) = 28.09071 37.08909 32.58990
# Shear Modulus (GPa) = 17.74808 25.17311 21.46059
#
# Velocity S-wave (km/s) = 3.00253 3.57586 3.30167
# Velocity P-wave (km/s) = 5.12729 5.99071 5.57574
#
# Compressibility (1/GPa) = 0.03559896
#
# Stress axis : x y z
#
# Youngs Moduli (GPa) = 87.81159 35.90735 103.71645
#
# Poissons Ratio (x) = -0.00971 0.18826
# Poissons Ratio (y) = -0.02374 0.52847
# Poissons Ratio (z) = 0.15939 0.18296
#
# Static dielectric constant tensor:
#      x y z
#    x 1.686610 0.000000 0.000000 
#    y 0.000000 1.711350 0.000000 
#    z 0.000000 0.000000 1.659220 
# 
# From -- ./inp_files/53238.got.cif
#   From: 2010.05.17/outbox.cif.g08.bks.cpg/sg68_27_cif.got.tgz:53238.got - 2010.06.03 18:57:09.
