data_PCOD9506348
_publ_section_title
;
Structure prediction by ZEFSAII (Michael W. Deem and Ramdas Pophale) SiO2 
 PCOD9506348
Probable space group: C C C A
;
_chemical_formula_sum "Si O2"
_cell_formula_units_Z 84
_cell_length_a 20.015417
_cell_length_b 18.704504
_cell_length_c 10.805257
_cell_angle_alpha 90.000000
_cell_angle_beta 90.000000
_cell_angle_gamma 90.000000
_cell_volume 4045.255339
_symmetry_space_group_name_H-M "C C C A"
_symmetry_group_IT_number 68
_space_group.IT_coordinate_system_code '2'
_symmetry_cell_setting 'orthorhombic'
loop_
_space_group_symop_operation_xyz
x,y,z
-x,1/2-y,z
x,1/2-y,1/2-z
-x,y,1/2-z
-x,-y,-z
x,1/2+y,-z
-x,1/2+y,1/2+z
x,-y,1/2+z
1/2+x,1/2+y,z
1/2-x,-y,z
1/2+x,-y,1/2-z
1/2-x,1/2+y,1/2-z
1/2-x,1/2-y,-z
1/2+x,y,-z
1/2-x,y,1/2+z
1/2+x,1/2-y,1/2+z
loop_
_atom_site_type_symbol
_atom_site_label
_atom_site_fract_x
_atom_site_fract_y
_atom_site_fract_z
Si Si1 0.741064 0.296790 0.874425
Si Si2 0.097550 0.324444 0.059999
Si Si3 0.389352 0.199318 0.366975
Si Si4 0.500000 0.750000 0.250000
Si Si5 0.078002 0.032215 0.596379
Si Si6 0.426125 0.953237 0.867282
O O1 0.733562 0.250000 0.750000
O O2 0.672326 0.339341 0.889074
O O3 0.813866 0.332205 0.861410
O O4 0.750000 0.250000 0.000000
O O5 0.045776 0.303279 0.167230
O O6 0.101777 0.250810 0.982788
O O7 0.080965 0.389821 0.968379
O O8 0.399568 0.250000 0.250000
O O9 0.436486 0.131669 0.368601
O O10 0.107074 0.029633 0.735149
O O11 0.000192 0.013433 0.622121
O O12 0.108042 0.979298 0.493589
#
# Coordination Sequence:
#
# PCOD9506348 Si02
#       6
#    16  16  16   4  16  16
#     4   9  19  36  59  85 119 155 197 249 310 361
#     4  11  21  37  57  91 120 157 195 253 308 362
#     4  10  19  37  66  86 112 153 210 253 293 359
#     4  12  24  32  54  92 132 148 194 252 304 364
#     4  10  22  38  60  82 122 159 195 245 304 370
#     4  10  21  39  58  88 116 160 202 244 304 364
#
# _framework density 20.765066999999998
#
# number of rings (size 3 to 8) (size 9 to 14) (size 15 to 20)
#    0.000    1.905    2.857    1.143    0.000    4.571 
#    0.000    0.952    0.000    2.286    0.000    0.000 
#    0.000    0.000    0.000    0.000    0.000    0.000 
#
# Total GULP energy -233946.384199 kJ/mol
# GULP energy per Si atom -5570.152005 kJ/mol
# Density = 2.071781 g / cm^3
# Si number density = 20.765067 Si / 1000 Ang^3
#
#
#
# Elastic Constant Matrix: (Units=GPa)
#
#
# Indices 1 2 3 4 5 6 
#
# 1 59.3580 3.7029 35.7224 0.0000 0.0000 0.0000
# 2 3.7029 56.7541 50.2494 0.0000 0.0000 0.0000
# 3 35.7224 50.2494 177.0650 0.0000 0.0000 0.0000
# 4 0.0000 0.0000 0.0000 30.2944 0.0000 0.0000
# 5 0.0000 0.0000 0.0000 0.0000 19.7879 0.0000
# 6 0.0000 0.0000 0.0000 0.0000 0.0000 3.3947
#
#
#
# Elastic Compliance Matrix: (Units=1/GPa)
#
#
# Indices 1 2 3 4 5 6 
#
# 1 0.019540 0.002959 -0.004782 0.000000 0.000000 0.000000
# 2 0.002959 0.023981 -0.007403 0.000000 0.000000 0.000000
# 3 -0.004782 -0.007403 0.008713 0.000000 0.000000 0.000000
# 4 0.000000 0.000000 0.000000 0.033009 0.000000 0.000000
# 5 0.000000 0.000000 0.000000 0.000000 0.050536 0.000000
# 6 0.000000 0.000000 0.000000 0.000000 0.000000 0.294573
#
#
# Mechanical properties :
#
#
# Convention : Reuss Voigt Hill
#
# Bulk Modulus (GPa) = 29.60049 52.50294 41.05171
# Shear Modulus (GPa) = 10.86803 24.26222 17.56513
#
# Velocity S-wave (km/s) = 2.29023 3.42192 2.91159
# Velocity P-wave (km/s) = 4.61297 6.39936 5.57814
#
# Compressibility (1/GPa) = 0.03378323
#
# Stress axis : x y z
#
# Youngs Moduli (GPa) = 51.17671 41.69985 114.76921
#
# Poissons Ratio (x) = -0.12339 0.54881
# Poissons Ratio (y) = -0.15143 0.84958
# Poissons Ratio (z) = 0.24472 0.30868
#
# Static dielectric constant tensor:
#      x y z
#    x 1.823990 0.000000 0.000000 
#    y 0.000000 1.724350 0.000000 
#    z 0.000000 0.000000 1.802660 
# 
# From -- ./inp_files/7961.got.cif
#   From: 2010.05.17/outbox.cif.g08.bks.cpg/sg68_4_cif.got.tgz:7961.got - 2010.06.03 18:57:09.
