data_PCOD9506368
_publ_section_title
;
Structure prediction by ZEFSAII (Michael W. Deem and Ramdas Pophale) SiO2 
 PCOD9506368
Probable space group: C C C A
;
_chemical_formula_sum "Si O2"
_cell_formula_units_Z 88
_cell_length_a 12.763538
_cell_length_b 28.768561
_cell_length_c 12.046033
_cell_angle_alpha 90.000000
_cell_angle_beta 90.000000
_cell_angle_gamma 90.000000
_cell_volume 4423.166252
_symmetry_space_group_name_H-M "C C C A"
_symmetry_group_IT_number 68
_space_group.IT_coordinate_system_code '2'
_symmetry_cell_setting 'orthorhombic'
loop_
_space_group_symop_operation_xyz
x,y,z
-x,1/2-y,z
x,1/2-y,1/2-z
-x,y,1/2-z
-x,-y,-z
x,1/2+y,-z
-x,1/2+y,1/2+z
x,-y,1/2+z
1/2+x,1/2+y,z
1/2-x,-y,z
1/2+x,-y,1/2-z
1/2-x,1/2+y,1/2-z
1/2-x,1/2-y,-z
1/2+x,y,-z
1/2-x,y,1/2+z
1/2+x,1/2-y,1/2+z
loop_
_atom_site_type_symbol
_atom_site_label
_atom_site_fract_x
_atom_site_fract_y
_atom_site_fract_z
Si Si1 0.873289 0.923771 0.055329
Si Si2 0.750000 0.500000 0.325797
Si Si3 0.459606 0.148481 0.097658
Si Si4 0.141454 0.801109 0.297701
Si Si5 0.181111 0.355298 0.119014
Si Si6 0.110098 0.073336 0.207418
O O1 0.889452 0.922789 0.923829
O O2 0.774148 0.890427 0.081358
O O3 0.978218 0.900531 0.106607
O O4 0.837947 0.974057 0.099936
O O5 0.800428 0.461178 0.248398
O O6 0.381534 0.161552 0.198471
O O7 0.552313 0.186446 0.112228
O O8 0.398888 0.150304 0.982011
O O9 0.128652 0.750000 0.250000
O O10 0.255883 0.809411 0.346956
O O11 0.127784 0.378666 0.226006
O O12 0.000000 0.054031 0.250000
#
# Coordination Sequence:
#
# PCOD9506368 Si02
#       6
#    16   8  16  16  16  16
#     4  10  21  39  59  86 122 160 207 251 308 365
#     4  10  24  40  56  92 120 160 206 260 310 364
#     4  10  19  38  62  87 119 164 199 246 304 368
#     4  10  22  40  63  95 125 158 206 255 303 374
#     4  10  21  38  63  88 119 165 204 246 308 366
#     4  11  21  40  60  87 120 159 205 259 300 364
#
# _framework density 19.895250000000001
#
# number of rings (size 3 to 8) (size 9 to 14) (size 15 to 20)
#    0.000    1.818    1.818    2.727    0.000    2.909 
#   13.091    1.818    0.000    0.000    0.000    0.000 
#    0.000    0.000    0.000    0.000    0.000    0.000 
#
# Total GULP energy -245545.545836 kJ/mol
# GULP energy per Si atom -5580.580587 kJ/mol
# Density = 1.984997 g / cm^3
# Si number density = 19.895250 Si / 1000 Ang^3
#
#
#
# Elastic Constant Matrix: (Units=GPa)
#
#
# Indices 1 2 3 4 5 6 
#
# 1 69.2732 24.2937 20.0998 0.0000 0.0000 0.0000
# 2 24.2937 67.2973 27.6002 0.0000 0.0000 0.0000
# 3 20.0998 27.6002 94.6576 0.0000 0.0000 0.0000
# 4 0.0000 0.0000 0.0000 19.8426 0.0000 0.0000
# 5 0.0000 0.0000 0.0000 0.0000 38.9772 0.0000
# 6 0.0000 0.0000 0.0000 0.0000 0.0000 18.2605
#
#
#
# Elastic Compliance Matrix: (Units=1/GPa)
#
#
# Indices 1 2 3 4 5 6 
#
# 1 0.016872 -0.005249 -0.002052 0.000000 0.000000 0.000000
# 2 -0.005249 0.018511 -0.004283 0.000000 0.000000 0.000000
# 3 -0.002052 -0.004283 0.012249 0.000000 0.000000 0.000000
# 4 0.000000 0.000000 0.000000 0.050397 0.000000 0.000000
# 5 0.000000 0.000000 0.000000 0.000000 0.025656 0.000000
# 6 0.000000 0.000000 0.000000 0.000000 0.000000 0.054763
#
#
# Mechanical properties :
#
#
# Convention : Reuss Voigt Hill
#
# Bulk Modulus (GPa) = 40.87675 41.69060 41.28368
# Shear Modulus (GPa) = 23.83573 26.03170 24.93371
#
# Velocity S-wave (km/s) = 3.46506 3.62116 3.54397
# Velocity P-wave (km/s) = 6.04975 6.20357 6.12714
#
# Compressibility (1/GPa) = 0.02446378
#
# Stress axis : x y z
#
# Youngs Moduli (GPa) = 59.27054 54.02279 81.63996
#
# Poissons Ratio (x) = 0.28356 0.16753
# Poissons Ratio (y) = 0.31111 0.34964
# Poissons Ratio (z) = 0.12163 0.23137
#
# Static dielectric constant tensor:
#      x y z
#    x 1.733280 0.000000 0.000000 
#    y 0.000000 1.720530 0.000000 
#    z 0.000000 0.000000 1.682940 
# 
# From -- ./inp_files/12055.got.cif
#   From: 2010.05.17/outbox.cif.g08.bks.cpg/sg68_7_cif.got.tgz:12055.got - 2010.06.03 18:57:09.
