data_PCOD9506760
_publ_section_title
;
Structure prediction by ZEFSAII (Michael W. Deem and Ramdas Pophale) SiO2 
 PCOD9506760
Probable space group: C C C A
;
_chemical_formula_sum "Si O2"
_cell_formula_units_Z 104
_cell_length_a 29.219916
_cell_length_b 19.352885
_cell_length_c 8.291907
_cell_angle_alpha 90.000000
_cell_angle_beta 90.000000
_cell_angle_gamma 90.000000
_cell_volume 4688.987787
_symmetry_space_group_name_H-M "C C C A"
_symmetry_group_IT_number 68
_space_group.IT_coordinate_system_code '2'
_symmetry_cell_setting 'orthorhombic'
loop_
_space_group_symop_operation_xyz
x,y,z
-x,1/2-y,z
x,1/2-y,1/2-z
-x,y,1/2-z
-x,-y,-z
x,1/2+y,-z
-x,1/2+y,1/2+z
x,-y,1/2+z
1/2+x,1/2+y,z
1/2-x,-y,z
1/2+x,-y,1/2-z
1/2-x,1/2+y,1/2-z
1/2-x,1/2-y,-z
1/2+x,y,-z
1/2-x,y,1/2+z
1/2+x,1/2-y,1/2+z
loop_
_atom_site_type_symbol
_atom_site_label
_atom_site_fract_x
_atom_site_fract_y
_atom_site_fract_z
Si Si1 0.468960 0.593241 0.004418
Si Si2 0.120368 0.661487 0.490417
Si Si3 0.649911 0.956242 0.235986
Si Si4 0.326650 0.250000 0.750000
Si Si5 0.680925 0.390939 0.252581
Si Si6 0.725853 0.623237 0.095996
Si Si7 0.443429 0.553869 0.370504
O O1 0.434368 0.655632 0.970613
O O2 0.457032 0.572716 0.188537
O O3 0.524183 0.597559 0.008938
O O4 0.455180 0.526342 0.900642
O O5 0.136264 0.588591 0.578526
O O6 0.140581 0.718097 0.611916
O O7 0.144545 0.662854 0.317763
O O8 0.698596 0.935073 0.306345
O O9 0.610934 0.936835 0.367782
O O10 0.653762 0.037914 0.216654
O O11 0.293160 0.307274 0.823086
O O12 0.708754 0.374622 0.413465
O O13 0.720797 0.391052 0.116626
#
# Coordination Sequence:
#
# PCOD9506760 Si02
#       7
#    16  16  16   8  16  16  16
#     4   9  17  31  52  87 116 157 177 235 285 356
#     4  10  21  37  61  81 122 155 200 244 293 358
#     4  10  20  36  56  88 125 151 188 245 304 366
#     4  10  24  46  58  83 112 164 208 255 290 352
#     4  12  23  38  59  88 112 156 195 255 311 364
#     4  11  25  38  60  81 118 157 203 249 301 362
#     4   9  17  29  53  82 126 145 186 222 295 357
#
# _framework density 22.179627
#
# number of rings (size 3 to 8) (size 9 to 14) (size 15 to 20)
#    0.000    1.846    1.538    3.231    2.154    4.308 
#    0.000    0.000    0.000   16.615    0.000    0.000 
#    0.000   12.308    0.000    0.000    0.000    0.000 
#
# Total GULP energy -290207.226178 kJ/mol
# GULP energy per Si atom -5580.908196 kJ/mol
# Density = 2.212915 g / cm^3
# Si number density = 22.179627 Si / 1000 Ang^3
#
#
#
# Elastic Constant Matrix: (Units=GPa)
#
#
# Indices 1 2 3 4 5 6 
#
# 1 104.9515 -9.8002 -11.7956 0.0000 0.0000 0.0000
# 2 -9.8002 32.5747 -9.9987 0.0000 0.0000 0.0000
# 3 -11.7956 -9.9987 49.3067 0.0000 0.0000 0.0000
# 4 0.0000 0.0000 0.0000 11.1249 0.0000 0.0000
# 5 0.0000 0.0000 0.0000 0.0000 25.7993 0.0000
# 6 0.0000 0.0000 0.0000 0.0000 0.0000 11.5509
#
#
#
# Elastic Compliance Matrix: (Units=1/GPa)
#
#
# Indices 1 2 3 4 5 6 
#
# 1 0.010281 0.004104 0.003292 0.000000 0.000000 0.000000
# 2 0.004104 0.034374 0.007952 0.000000 0.000000 0.000000
# 3 0.003292 0.007952 0.022681 0.000000 0.000000 0.000000
# 4 0.000000 0.000000 0.000000 0.089888 0.000000 0.000000
# 5 0.000000 0.000000 0.000000 0.000000 0.038761 0.000000
# 6 0.000000 0.000000 0.000000 0.000000 0.000000 0.086573
#
#
# Mechanical properties :
#
#
# Convention : Reuss Voigt Hill
#
# Bulk Modulus (GPa) = 10.20075 13.73822 11.96948
# Shear Modulus (GPa) = 17.57213 24.25685 20.91449
#
# Velocity S-wave (km/s) = 2.81777 3.31063 3.07410
# Velocity P-wave (km/s) = 3.89815 4.56303 4.24363
#
# Compressibility (1/GPa) = 0.09803200
#
# Stress axis : x y z
#
# Youngs Moduli (GPa) = 97.26345 29.09160 44.08920
#
# Poissons Ratio (x) = -0.11938 -0.14513
# Poissons Ratio (y) = -0.39913 -0.35061
# Poissons Ratio (z) = -0.32017 -0.23134
#
# Static dielectric constant tensor:
#      x y z
#    x 1.868910 0.000000 0.000000 
#    y 0.000000 1.813220 0.000000 
#    z 0.000000 0.000000 1.850010 
# 
# From -- ./inp_files/9610.got.cif
#   From: 2010.05.17/outbox.cif.g08.bks.cpg/sg68_5_cif.got.tgz:9610.got - 2010.06.03 18:57:09.
