data_PCOD9506344
_publ_section_title
;
Structure prediction by ZEFSAII (Michael W. Deem and Ramdas Pophale) SiO2 
 PCOD9506344
Probable space group: C C C A
;
_chemical_formula_sum "Si O2"
_cell_formula_units_Z 96
_cell_length_a 16.862749
_cell_length_b 16.393616
_cell_length_c 14.623442
_cell_angle_alpha 90.000000
_cell_angle_beta 90.000000
_cell_angle_gamma 90.000000
_cell_volume 4042.525244
_symmetry_space_group_name_H-M "C C C A"
_symmetry_group_IT_number 68
_space_group.IT_coordinate_system_code '2'
_symmetry_cell_setting 'orthorhombic'
loop_
_space_group_symop_operation_xyz
x,y,z
-x,1/2-y,z
x,1/2-y,1/2-z
-x,y,1/2-z
-x,-y,-z
x,1/2+y,-z
-x,1/2+y,1/2+z
x,-y,1/2+z
1/2+x,1/2+y,z
1/2-x,-y,z
1/2+x,-y,1/2-z
1/2-x,1/2+y,1/2-z
1/2-x,1/2-y,-z
1/2+x,y,-z
1/2-x,y,1/2+z
1/2+x,1/2-y,1/2+z
loop_
_atom_site_type_symbol
_atom_site_label
_atom_site_fract_x
_atom_site_fract_y
_atom_site_fract_z
Si Si1 0.500000 0.750000 0.074023
Si Si2 0.342559 0.510216 0.466610
Si Si3 0.181363 0.276069 0.624966
Si Si4 0.943289 0.645318 0.087841
Si Si5 0.500000 0.447581 0.250000
Si Si6 0.665225 0.041596 0.181563
Si Si7 0.160645 0.313700 0.407515
O O1 0.514895 0.824413 0.003801
O O2 0.582399 0.734706 0.123790
O O3 0.250000 0.500000 0.452826
O O4 0.385105 0.427847 0.438030
O O5 0.353934 0.520321 0.575627
O O6 0.361166 0.591139 0.408884
O O7 0.105309 0.218274 0.634460
O O8 0.179038 0.360214 0.680713
O O9 0.176874 0.297854 0.516305
O O10 0.260760 0.222330 0.639106
O O11 0.001854 0.608246 0.160612
O O12 0.411672 0.485967 0.240986
O O13 0.750000 0.000000 0.205930
#
# Coordination Sequence:
#
# PCOD9506344 Si02
#       7
#     8  16  16  16   8  16  16
#     4  10  22  31  54  92 124 163 208 260 320 373
#     4  10  19  37  65  95 122 159 212 268 319 373
#     4   9  18  35  61  89 125 155 205 261 321 373
#     4  11  22  38  62  92 125 159 212 269 317 376
#     4  12  26  43  62  90 133 172 208 264 313 394
#     4  10  24  41  63  94 130 170 210 260 328 381
#     4   9  17  32  53  91 124 155 193 260 316 374
#
# _framework density 23.747532
#
# number of rings (size 3 to 8) (size 9 to 14) (size 15 to 20)
#    0.000    2.000    1.667    3.000    7.000    6.333 
#    0.000    0.000    0.000    0.000    0.000    1.167 
#    0.000    0.000    0.000    0.000    0.000    0.000 
#
# Total GULP energy -268213.003472 kJ/mol
# GULP energy per Si atom -5587.770906 kJ/mol
# Density = 2.369348 g / cm^3
# Si number density = 23.747532 Si / 1000 Ang^3
#
#
#
# Elastic Constant Matrix: (Units=GPa)
#
#
# Indices 1 2 3 4 5 6 
#
# 1 162.6629 42.3696 15.7993 0.0000 0.0000 0.0000
# 2 42.3696 98.9253 17.2723 0.0000 0.0000 0.0000
# 3 15.7993 17.2723 45.8194 0.0000 0.0000 0.0000
# 4 0.0000 0.0000 0.0000 6.1912 0.0000 0.0000
# 5 0.0000 0.0000 0.0000 0.0000 92.5624 0.0000
# 6 0.0000 0.0000 0.0000 0.0000 0.0000 45.7133
#
#
#
# Elastic Compliance Matrix: (Units=1/GPa)
#
#
# Indices 1 2 3 4 5 6 
#
# 1 0.007000 -0.002758 -0.001374 0.000000 0.000000 0.000000
# 2 -0.002758 0.011908 -0.003538 0.000000 0.000000 0.000000
# 3 -0.001374 -0.003538 0.023632 0.000000 0.000000 0.000000
# 4 0.000000 0.000000 0.000000 0.161518 0.000000 0.000000
# 5 0.000000 0.000000 0.000000 0.000000 0.010804 0.000000
# 6 0.000000 0.000000 0.000000 0.000000 0.000000 0.021875
#
#
# Mechanical properties :
#
#
# Convention : Reuss Voigt Hill
#
# Bulk Modulus (GPa) = 36.76467 50.92110 43.84289
# Shear Modulus (GPa) = 19.14663 44.35782 31.75223
#
# Velocity S-wave (km/s) = 2.84255 4.32660 3.66057
# Velocity P-wave (km/s) = 5.12723 6.81532 6.03063
#
# Compressibility (1/GPa) = 0.02720002
#
# Stress axis : x y z
#
# Youngs Moduli (GPa) = 142.86698 83.98017 42.31520
#
# Poissons Ratio (x) = 0.23162 0.05814
# Poissons Ratio (y) = 0.39403 0.14970
# Poissons Ratio (z) = 0.19628 0.29710
#
# Static dielectric constant tensor:
#      x y z
#    x 1.950550 0.000000 0.000000 
#    y 0.000000 1.899030 0.000000 
#    z 0.000000 0.000000 1.933810 
# 
# From -- ./inp_files/32065.got.cif
#   From: 2010.05.17/outbox.cif.g08.bks.cpg/sg68_17_cif.got.tgz:32065.got - 2010.06.03 18:57:09.
