data_PCOD9506355
_publ_section_title
;
Structure prediction by ZEFSAII (Michael W. Deem and Ramdas Pophale) SiO2 
 PCOD9506355
Probable space group: C C C A
;
_chemical_formula_sum "Si O2"
_cell_formula_units_Z 96
_cell_length_a 19.158975
_cell_length_b 12.503112
_cell_length_c 18.309207
_cell_angle_alpha 90.000000
_cell_angle_beta 90.000000
_cell_angle_gamma 90.000000
_cell_volume 4385.912135
_symmetry_space_group_name_H-M "C C C A"
_symmetry_group_IT_number 68
_space_group.IT_coordinate_system_code '2'
_symmetry_cell_setting 'orthorhombic'
loop_
_space_group_symop_operation_xyz
x,y,z
-x,1/2-y,z
x,1/2-y,1/2-z
-x,y,1/2-z
-x,-y,-z
x,1/2+y,-z
-x,1/2+y,1/2+z
x,-y,1/2+z
1/2+x,1/2+y,z
1/2-x,-y,z
1/2+x,-y,1/2-z
1/2-x,1/2+y,1/2-z
1/2-x,1/2-y,-z
1/2+x,y,-z
1/2-x,y,1/2+z
1/2+x,1/2-y,1/2+z
loop_
_atom_site_type_symbol
_atom_site_label
_atom_site_fract_x
_atom_site_fract_y
_atom_site_fract_z
Si Si1 0.750000 0.000000 0.714383
Si Si2 0.887394 0.375733 0.239924
Si Si3 0.250000 0.500000 0.470708
Si Si4 0.560793 0.432277 0.892213
Si Si5 0.029248 0.853856 0.470260
Si Si6 0.643395 0.630703 0.085758
Si Si7 0.781759 0.348819 0.404874
O O1 0.819270 0.954439 0.754181
O O2 0.735758 0.899236 0.660022
O O3 0.867824 0.250000 0.250000
O O4 0.940587 0.402710 0.305837
O O5 0.908299 0.378864 0.154843
O O6 0.318654 0.517656 0.423988
O O7 0.248770 0.605504 0.520516
O O8 0.522908 0.372775 0.960239
O O9 0.643180 0.408754 0.903226
O O10 0.537888 0.551633 0.912559
O O11 0.102064 0.841622 0.512635
O O12 0.000000 0.750000 0.432009
O O13 0.699004 0.724996 0.102045
#
# Coordination Sequence:
#
# PCOD9506355 Si02
#       7
#     8  16   8  16  16  16  16
#     4   9  19  34  58  78 122 164 192 258 316 370
#     4  11  20  38  60  86 126 164 214 258 322 382
#     4  11  23  36  56  92 130 164 212 268 312 380
#     4  10  21  38  60  89 125 160 207 271 316 381
#     4  11  21  38  64  92 124 161 212 265 330 375
#     4  12  22  36  62  93 122 165 217 263 319 391
#     4  10  19  38  57  87 123 162 207 259 319 371
#
# _framework density 21.888263999999999
#
# number of rings (size 3 to 8) (size 9 to 14) (size 15 to 20)
#    0.000    1.333    6.667    1.000    0.000    0.667 
#    0.000    1.667    0.000    0.000    0.000    9.333 
#    0.000    0.000    0.000    0.000    0.000    0.000 
#
# Total GULP energy -267223.754505 kJ/mol
# GULP energy per Si atom -5567.161552 kJ/mol
# Density = 2.183844 g / cm^3
# Si number density = 21.888264 Si / 1000 Ang^3
#
#
#
# Elastic Constant Matrix: (Units=GPa)
#
#
# Indices 1 2 3 4 5 6 
#
# 1 59.7709 19.8328 6.5907 0.0000 0.0000 0.0000
# 2 19.8328 102.7689 32.8537 0.0000 0.0000 0.0000
# 3 6.5907 32.8537 99.2139 0.0000 0.0000 0.0000
# 4 0.0000 0.0000 0.0000 15.0206 0.0000 0.0000
# 5 0.0000 0.0000 0.0000 0.0000 24.1594 0.0000
# 6 0.0000 0.0000 0.0000 0.0000 0.0000 30.9140
#
#
#
# Elastic Compliance Matrix: (Units=1/GPa)
#
#
# Indices 1 2 3 4 5 6 
#
# 1 0.017875 -0.003434 -0.000050 0.000000 0.000000 0.000000
# 2 -0.003434 0.011542 -0.003594 0.000000 0.000000 0.000000
# 3 -0.000050 -0.003594 0.011273 0.000000 0.000000 0.000000
# 4 0.000000 0.000000 0.000000 0.066575 0.000000 0.000000
# 5 0.000000 0.000000 0.000000 0.000000 0.041392 0.000000
# 6 0.000000 0.000000 0.000000 0.000000 0.000000 0.032348
#
#
# Mechanical properties :
#
#
# Convention : Reuss Voigt Hill
#
# Bulk Modulus (GPa) = 37.68714 42.25648 39.97181
# Shear Modulus (GPa) = 24.50911 27.51724 26.01317
#
# Velocity S-wave (km/s) = 3.34988 3.54950 3.45113
# Velocity P-wave (km/s) = 5.67605 6.01216 5.84652
#
# Compressibility (1/GPa) = 0.02653425
#
# Stress axis : x y z
#
# Youngs Moduli (GPa) = 55.94279 86.63911 88.70992
#
# Poissons Ratio (x) = 0.29748 0.00448
# Poissons Ratio (y) = 0.19208 0.31882
# Poissons Ratio (z) = 0.00282 0.31138
#
# Static dielectric constant tensor:
#      x y z
#    x 1.932690 0.000000 0.000000 
#    y 0.000000 1.802340 0.000000 
#    z 0.000000 0.000000 1.903200 
# 
# From -- ./inp_files/40858.got.cif
#   From: 2010.05.17/outbox.cif.g08.bks.cpg/sg68_21_cif.got.tgz:40858.got - 2010.06.03 18:57:09.
