data_PCOD9506280
_publ_section_title
;
Structure prediction by ZEFSAII (Michael W. Deem and Ramdas Pophale) SiO2 
 PCOD9506280
Probable space group: C C C A
;
_chemical_formula_sum "Si O2"
_cell_formula_units_Z 88
_cell_length_a 26.789972
_cell_length_b 10.205848
_cell_length_c 15.489564
_cell_angle_alpha 90.000000
_cell_angle_beta 90.000000
_cell_angle_gamma 90.000000
_cell_volume 4235.069571
_symmetry_space_group_name_H-M "C C C A"
_symmetry_group_IT_number 68
_space_group.IT_coordinate_system_code '2'
_symmetry_cell_setting 'orthorhombic'
loop_
_space_group_symop_operation_xyz
x,y,z
-x,1/2-y,z
x,1/2-y,1/2-z
-x,y,1/2-z
-x,-y,-z
x,1/2+y,-z
-x,1/2+y,1/2+z
x,-y,1/2+z
1/2+x,1/2+y,z
1/2-x,-y,z
1/2+x,-y,1/2-z
1/2-x,1/2+y,1/2-z
1/2-x,1/2-y,-z
1/2+x,y,-z
1/2-x,y,1/2+z
1/2+x,1/2-y,1/2+z
loop_
_atom_site_type_symbol
_atom_site_label
_atom_site_fract_x
_atom_site_fract_y
_atom_site_fract_z
Si Si1 0.243595 0.250000 0.750000
Si Si2 0.000264 0.593531 0.581457
Si Si3 0.206303 0.895307 0.588292
Si Si4 0.799682 0.087947 0.599419
Si Si5 0.110104 0.594697 0.646006
Si Si6 0.608183 0.398398 0.650977
O O1 0.278950 0.186684 0.674833
O O2 0.207438 0.336672 0.689647
O O3 0.052147 0.563359 0.628995
O O4 0.000000 0.750000 0.561961
O O5 0.000000 0.500000 0.500000
O O6 0.948745 0.566580 0.631620
O O7 0.201530 0.833594 0.491833
O O8 0.153741 0.969127 0.604359
O O9 0.250000 0.000000 0.583473
O O10 0.750000 0.000000 0.598187
O O11 0.849328 0.999332 0.603022
O O12 0.116060 0.747239 0.620948
O O13 0.117226 0.590026 0.748147
#
# Coordination Sequence:
#
# PCOD9506280 Si02
#       6
#     8  16  16  16  16  16
#     4  12  22  38  58  84 122 160 198 244 306 374
#     4  10  21  38  61  89 120 157 204 256 312 372
#     4  11  23  38  59  87 118 156 201 250 306 369
#     4  11  23  38  57  85 120 157 200 250 305 367
#     4  10  20  37  60  86 116 153 201 249 298 363
#     4  10  19  36  62  86 114 155 201 249 299 362
#
# _framework density 20.778880000000001
#
# number of rings (size 3 to 8) (size 9 to 14) (size 15 to 20)
#    0.000    1.455    0.000    7.091    0.000    3.636 
#    0.000    7.273    0.000    1.091    0.000    0.000 
#    0.000    0.000    0.000    0.000    0.000    0.000 
#
# Total GULP energy -245298.481368 kJ/mol
# GULP energy per Si atom -5574.965486 kJ/mol
# Density = 2.073159 g / cm^3
# Si number density = 20.778880 Si / 1000 Ang^3
#
#
#
# Elastic Constant Matrix: (Units=GPa)
#
#
# Indices 1 2 3 4 5 6 
#
# 1 187.1957 38.3418 46.4019 0.0000 0.0000 0.0000
# 2 38.3418 25.0848 41.1666 0.0000 0.0000 0.0000
# 3 46.4019 41.1666 145.5920 0.0000 0.0000 0.0000
# 4 0.0000 0.0000 0.0000 37.0722 0.0000 0.0000
# 5 0.0000 0.0000 0.0000 0.0000 35.0889 0.0000
# 6 0.0000 0.0000 0.0000 0.0000 0.0000 35.0967
#
#
#
# Elastic Compliance Matrix: (Units=1/GPa)
#
#
# Indices 1 2 3 4 5 6 
#
# 1 0.007994 -0.014996 0.001692 0.000000 0.000000 0.000000
# 2 -0.014996 0.102510 -0.024206 0.000000 0.000000 0.000000
# 3 0.001692 -0.024206 0.013173 0.000000 0.000000 0.000000
# 4 0.000000 0.000000 0.000000 0.026974 0.000000 0.000000
# 5 0.000000 0.000000 0.000000 0.000000 0.028499 0.000000
# 6 0.000000 0.000000 0.000000 0.000000 0.000000 0.028493
#
#
# Mechanical properties :
#
#
# Convention : Reuss Voigt Hill
#
# Bulk Modulus (GPa) = 20.55135 67.74370 44.14752
# Shear Modulus (GPa) = 16.72903 36.91570 26.82237
#
# Velocity S-wave (km/s) = 2.84050 4.21954 3.59673
# Velocity P-wave (km/s) = 4.54642 7.51082 6.20815
#
# Compressibility (1/GPa) = 0.04865861
#
# Stress axis : x y z
#
# Youngs Moduli (GPa) = 125.09312 9.75515 75.91121
#
# Poissons Ratio (x) = 0.14629 -0.12847
# Poissons Ratio (y) = 1.87593 1.83747
# Poissons Ratio (z) = -0.21171 0.23613
#
# Static dielectric constant tensor:
#      x y z
#    x 1.869340 0.000000 0.000000 
#    y 0.000000 1.809030 0.000000 
#    z 0.000000 0.000000 1.773750 
# 
# From -- ./inp_files/25262.got.cif
#   From: 2010.05.17/outbox.cif.g08.bks.cpg/sg68_13_cif.got.tgz:25262.got - 2010.06.03 18:57:09.
