data_PCOD9506427
_publ_section_title
;
Structure prediction by ZEFSAII (Michael W. Deem and Ramdas Pophale) SiO2 
 PCOD9506427
Probable space group: C C C A
;
_chemical_formula_sum "Si O2"
_cell_formula_units_Z 96
_cell_length_a 25.719919
_cell_length_b 13.863902
_cell_length_c 12.639852
_cell_angle_alpha 90.000000
_cell_angle_beta 90.000000
_cell_angle_gamma 90.000000
_cell_volume 4507.098663
_symmetry_space_group_name_H-M "C C C A"
_symmetry_group_IT_number 68
_space_group.IT_coordinate_system_code '2'
_symmetry_cell_setting 'orthorhombic'
loop_
_space_group_symop_operation_xyz
x,y,z
-x,1/2-y,z
x,1/2-y,1/2-z
-x,y,1/2-z
-x,-y,-z
x,1/2+y,-z
-x,1/2+y,1/2+z
x,-y,1/2+z
1/2+x,1/2+y,z
1/2-x,-y,z
1/2+x,-y,1/2-z
1/2-x,1/2+y,1/2-z
1/2-x,1/2-y,-z
1/2+x,y,-z
1/2-x,y,1/2+z
1/2+x,1/2-y,1/2+z
loop_
_atom_site_type_symbol
_atom_site_label
_atom_site_fract_x
_atom_site_fract_y
_atom_site_fract_z
Si Si1 0.656139 0.609122 0.776970
Si Si2 0.107662 0.430129 0.504322
Si Si3 0.500000 0.999895 0.750000
Si Si4 0.757584 0.250000 0.750000
Si Si5 0.578997 0.381583 0.105363
Si Si6 0.503346 0.350818 0.925407
Si Si7 0.297371 0.568293 0.354708
O O1 0.703505 0.677443 0.811802
O O2 0.625245 0.657599 0.677928
O O3 0.677202 0.505441 0.732608
O O4 0.618543 0.592734 0.874995
O O5 0.104153 0.542475 0.475344
O O6 0.157764 0.401487 0.435886
O O7 0.052929 0.386771 0.465379
O O8 0.477542 0.067949 0.843265
O O9 0.542535 0.936160 0.809583
O O10 0.724661 0.330309 0.688039
O O11 0.540094 0.328637 0.026320
O O12 0.500000 0.250000 0.867178
O O13 0.250000 0.500000 0.397995
#
# Coordination Sequence:
#
# PCOD9506427 Si02
#       7
#    16  16   8   8  16  16  16
#     4  10  21  38  63  87 122 162 205 254 315 375
#     4  10  21  39  61  89 117 166 207 244 316 382
#     4  10  19  40  59  80 124 178 202 248 303 369
#     4  10  22  40  60  87 125 156 206 268 316 366
#     4  10  20  38  61  86 122 167 207 243 307 387
#     4  11  23  37  60  96 131 156 210 262 310 373
#     4   9  21  42  61  89 119 158 210 263 315 377
#
# _framework density 21.299734000000001
#
# number of rings (size 3 to 8) (size 9 to 14) (size 15 to 20)
#    0.000    2.000    0.000    4.250    2.333    2.667 
#   12.000    0.833    0.000    0.000    0.000    0.000 
#    0.000    0.000    0.000    0.000    0.000    0.000 
#
# Total GULP energy -267447.911529 kJ/mol
# GULP energy per Si atom -5571.831490 kJ/mol
# Density = 2.125125 g / cm^3
# Si number density = 21.299734 Si / 1000 Ang^3
#
#
#
# Elastic Constant Matrix: (Units=GPa)
#
#
# Indices 1 2 3 4 5 6 
#
# 1 63.2266 19.1905 31.8571 0.0000 0.0000 0.0000
# 2 19.1905 76.7119 28.0051 0.0000 0.0000 0.0000
# 3 31.8571 28.0051 99.2550 0.0000 0.0000 0.0000
# 4 0.0000 0.0000 0.0000 -5.1787 0.0000 0.0000
# 5 0.0000 0.0000 0.0000 0.0000 24.4542 0.0000
# 6 0.0000 0.0000 0.0000 0.0000 0.0000 14.8429
#
#
#
# Elastic Compliance Matrix: (Units=1/GPa)
#
#
# Indices 1 2 3 4 5 6 
#
# 1 0.019422 -0.002879 -0.005421 0.000000 0.000000 0.000000
# 2 -0.002879 0.014960 -0.003297 0.000000 0.000000 0.000000
# 3 -0.005421 -0.003297 0.012745 0.000000 0.000000 0.000000
# 4 0.000000 0.000000 0.000000 -0.193098 0.000000 0.000000
# 5 0.000000 0.000000 0.000000 0.000000 0.040893 0.000000
# 6 0.000000 0.000000 0.000000 0.000000 0.000000 0.067372
#
#
# Mechanical properties :
#
#
# Convention : Reuss Voigt Hill
#
# Bulk Modulus (GPa) = 41.78541 44.14432 42.96487
# Shear Modulus (GPa) = -765.15946 17.49974 -373.82986
#
# Velocity S-wave (km/s) = -18.97404 2.86946 -13.26236
# Velocity P-wave (km/s) = 21.45597 5.63459 14.63916
#
# Compressibility (1/GPa) = 0.02393180
#
# Stress axis : x y z
#
# Youngs Moduli (GPa) = 51.48918 66.84647 78.46087
#
# Poissons Ratio (x) = 0.19248 0.42535
# Poissons Ratio (y) = 0.14826 0.25866
# Poissons Ratio (z) = 0.27913 0.22037
#
# Static dielectric constant tensor:
#      x y z
#    x 1.886030 0.000000 0.000000 
#    y 0.000000 1.791910 0.000000 
#    z 0.000000 0.000000 1.769360 
# 
# From -- ./inp_files/17736.got.cif
#   From: 2010.05.17/outbox.cif.g08.bks.cpg/sg68_9_cif.got.tgz:17736.got - 2010.06.03 18:57:09.
