data_PCOD9506053
_publ_section_title
;
Structure prediction by ZEFSAII (Michael W. Deem and Ramdas Pophale) SiO2 
 PCOD9506053
Probable space group: C C C A
;
_chemical_formula_sum "Si O2"
_cell_formula_units_Z 96
_cell_length_a 28.178644
_cell_length_b 14.402592
_cell_length_c 10.213720
_cell_angle_alpha 90.000000
_cell_angle_beta 90.000000
_cell_angle_gamma 90.000000
_cell_volume 4145.192429
_symmetry_space_group_name_H-M "C C C A"
_symmetry_group_IT_number 68
_space_group.IT_coordinate_system_code '2'
_symmetry_cell_setting 'orthorhombic'
loop_
_space_group_symop_operation_xyz
x,y,z
-x,1/2-y,z
x,1/2-y,1/2-z
-x,y,1/2-z
-x,-y,-z
x,1/2+y,-z
-x,1/2+y,1/2+z
x,-y,1/2+z
1/2+x,1/2+y,z
1/2-x,-y,z
1/2+x,-y,1/2-z
1/2-x,1/2+y,1/2-z
1/2-x,1/2-y,-z
1/2+x,y,-z
1/2-x,y,1/2+z
1/2+x,1/2-y,1/2+z
loop_
_atom_site_type_symbol
_atom_site_label
_atom_site_fract_x
_atom_site_fract_y
_atom_site_fract_z
Si Si1 0.606508 0.613765 0.461754
Si Si2 0.053274 0.615585 0.791396
Si Si3 0.948402 0.388700 0.705680
Si Si4 0.708211 0.358422 0.096212
Si Si5 0.286583 0.360079 0.105055
Si Si6 0.892358 0.390622 0.953962
O O1 0.591577 0.645268 0.317894
O O2 0.566164 0.644136 0.563307
O O3 0.656696 0.636990 0.527657
O O4 0.604338 0.502060 0.455544
O O5 0.051965 0.502063 0.795363
O O6 0.000000 0.643583 0.750000
O O7 0.073334 0.645032 0.931894
O O8 0.910369 0.357733 0.813087
O O9 0.000000 0.359526 0.750000
O O10 0.720932 0.250391 0.115032
O O11 0.709896 0.398699 0.245147
O O12 0.745453 0.397114 0.989993
O O13 0.337088 0.370143 0.033445
#
# Coordination Sequence:
#
# PCOD9506053 Si02
#       6
#    16  16  16  16  16  16
#     4  10  19  33  54  83 111 139 178 221 265 309
#     4   9  18  30  50  81 112 144 177 213 260 313
#     4   9  16  30  52  77 110 144 177 217 260 313
#     4  10  22  40  59  78 103 140 182 221 269 325
#     4  10  22  40  59  78 103 140 182 221 269 325
#     4  10  19  33  54  83 111 139 178 221 265 309
#
# _framework density 23.15936
#
# number of rings (size 3 to 8) (size 9 to 14) (size 15 to 20)
#    0.000    2.333    1.667    1.000    2.333    4.667 
#    0.000    1.667    0.000    6.000    0.000    0.000 
#    0.000    0.000    0.000    0.000    0.000    0.000 
#
# Total GULP energy -268127.488110 kJ/mol
# GULP energy per Si atom -5585.989336 kJ/mol
# Density = 2.310665 g / cm^3
# Si number density = 23.159360 Si / 1000 Ang^3
#
#
#
# Elastic Constant Matrix: (Units=GPa)
#
#
# Indices 1 2 3 4 5 6 
#
# 1 116.2175 -16.1111 33.3615 0.0000 0.0000 0.0000
# 2 -16.1111 67.6849 11.1263 0.0000 0.0000 0.0000
# 3 33.3615 11.1263 127.8619 0.0000 0.0000 0.0000
# 4 0.0000 0.0000 0.0000 2.3671 0.0000 0.0000
# 5 0.0000 0.0000 0.0000 0.0000 35.9537 0.0000
# 6 0.0000 0.0000 0.0000 0.0000 0.0000 24.7662
#
#
#
# Elastic Compliance Matrix: (Units=1/GPa)
#
#
# Indices 1 2 3 4 5 6 
#
# 1 0.009795 0.002792 -0.002799 0.000000 0.000000 0.000000
# 2 0.002792 0.015784 -0.002102 0.000000 0.000000 0.000000
# 3 -0.002799 -0.002102 0.008734 0.000000 0.000000 0.000000
# 4 0.000000 0.000000 0.000000 0.422459 0.000000 0.000000
# 5 0.000000 0.000000 0.000000 0.000000 0.027814 0.000000
# 6 0.000000 0.000000 0.000000 0.000000 0.000000 0.040378
#
#
# Mechanical properties :
#
#
# Convention : Reuss Voigt Hill
#
# Bulk Modulus (GPa) = 33.22765 40.94640 37.08703
# Shear Modulus (GPa) = 9.27277 31.50989 20.39133
#
# Velocity S-wave (km/s) = 2.00314 3.69259 2.97051
# Velocity P-wave (km/s) = 4.44170 5.99157 5.27388
#
# Compressibility (1/GPa) = 0.03009542
#
# Stress axis : x y z
#
# Youngs Moduli (GPa) = 102.09389 63.35396 114.49455
#
# Poissons Ratio (x) = -0.17685 0.32042
# Poissons Ratio (y) = -0.28500 0.24065
# Poissons Ratio (z) = 0.28572 0.13316
#
# Static dielectric constant tensor:
#      x y z
#    x 1.833270 0.000000 0.000000 
#    y 0.000000 1.934860 0.000000 
#    z 0.000000 0.000000 1.854980 
# 
# From -- ./inp_files/8906.got.cif
#   From: 2010.05.17/outbox.cif.g08.bks.cpg/sg68_5_cif.got.tgz:8906.got - 2010.06.03 18:57:09.
