data_PCOD9506079
_publ_section_title
;
Structure prediction by ZEFSAII (Michael W. Deem and Ramdas Pophale) SiO2 
 PCOD9506079
Probable space group: C C C A
;
_chemical_formula_sum "Si O2"
_cell_formula_units_Z 80
_cell_length_a 12.855611
_cell_length_b 20.036834
_cell_length_c 16.754280
_cell_angle_alpha 90.000000
_cell_angle_beta 90.000000
_cell_angle_gamma 90.000000
_cell_volume 4315.663672
_symmetry_space_group_name_H-M "C C C A"
_symmetry_group_IT_number 68
_space_group.IT_coordinate_system_code '2'
_symmetry_cell_setting 'orthorhombic'
loop_
_space_group_symop_operation_xyz
x,y,z
-x,1/2-y,z
x,1/2-y,1/2-z
-x,y,1/2-z
-x,-y,-z
x,1/2+y,-z
-x,1/2+y,1/2+z
x,-y,1/2+z
1/2+x,1/2+y,z
1/2-x,-y,z
1/2+x,-y,1/2-z
1/2-x,1/2+y,1/2-z
1/2-x,1/2-y,-z
1/2+x,y,-z
1/2-x,y,1/2+z
1/2+x,1/2-y,1/2+z
loop_
_atom_site_type_symbol
_atom_site_label
_atom_site_fract_x
_atom_site_fract_y
_atom_site_fract_z
Si Si1 0.870561 0.477767 0.337966
Si Si2 0.336774 0.827407 0.735897
Si Si3 0.180809 0.065788 0.166071
Si Si4 0.968463 0.881343 0.134379
Si Si5 0.005147 0.925529 0.536852
O O1 0.750000 0.500000 0.351064
O O2 0.877318 0.452956 0.247812
O O3 0.949566 0.540412 0.345984
O O4 0.906473 0.424028 0.403757
O O5 0.315747 0.750000 0.750000
O O6 0.249504 0.871303 0.693034
O O7 0.364914 0.852129 0.825199
O O8 0.437465 0.845395 0.680956
O O9 0.105528 0.080807 0.092985
O O10 0.250000 0.000000 0.146413
O O11 0.987283 0.877826 0.039858
O O12 0.000000 0.000000 0.500000
#
# Coordination Sequence:
#
# PCOD9506079 Si02
#       5
#    16  16  16  16  16
#     4  10  19  33  59  91 124 159 201 252 313 372
#     4  11  23  41  66  85 118 170 215 249 303 382
#     4  11  20  38  61  90 124 160 206 257 314 373
#     4  10  20  37  57  89 119 156 205 253 311 361
#     4  10  22  31  57  94 127 154 198 261 319 365
#
# _framework density 18.537125
#
# number of rings (size 3 to 8) (size 9 to 14) (size 15 to 20)
#    0.000    1.600    4.000    4.200    5.600    6.400 
#    0.000    1.000    4.400    1.200    0.000    0.000 
#    0.000    0.000    0.000    0.000    0.000    0.000 
#
# Total GULP energy -222777.760547 kJ/mol
# GULP energy per Si atom -5569.444014 kJ/mol
# Density = 1.849493 g / cm^3
# Si number density = 18.537125 Si / 1000 Ang^3
#
#
#
# Elastic Constant Matrix: (Units=GPa)
#
#
# Indices 1 2 3 4 5 6 
#
# 1 93.7713 39.7995 47.5838 0.0000 0.0000 0.0000
# 2 39.7995 96.3226 38.4765 0.0000 0.0000 0.0000
# 3 47.5838 38.4765 121.9669 0.0000 0.0000 0.0000
# 4 0.0000 0.0000 0.0000 11.5755 0.0000 0.0000
# 5 0.0000 0.0000 0.0000 0.0000 10.9714 0.0000
# 6 0.0000 0.0000 0.0000 0.0000 0.0000 15.1422
#
#
#
# Elastic Compliance Matrix: (Units=1/GPa)
#
#
# Indices 1 2 3 4 5 6 
#
# 1 0.014726 -0.004336 -0.004377 0.000000 0.000000 0.000000
# 2 -0.004336 0.013155 -0.002458 0.000000 0.000000 0.000000
# 3 -0.004377 -0.002458 0.010682 0.000000 0.000000 0.000000
# 4 0.000000 0.000000 0.000000 0.086389 0.000000 0.000000
# 5 0.000000 0.000000 0.000000 0.000000 0.091146 0.000000
# 6 0.000000 0.000000 0.000000 0.000000 0.000000 0.066041
#
#
# Mechanical properties :
#
#
# Convention : Reuss Voigt Hill
#
# Bulk Modulus (GPa) = 61.65213 62.64227 62.14720
# Shear Modulus (GPa) = 16.13480 19.95123 18.04301
#
# Velocity S-wave (km/s) = 2.95346 3.28424 3.12323
# Velocity P-wave (km/s) = 6.70534 6.94607 6.82676
#
# Compressibility (1/GPa) = 0.01622004
#
# Stress axis : x y z
#
# Youngs Moduli (GPa) = 67.90811 76.01426 93.61363
#
# Poissons Ratio (x) = 0.32960 0.40976
# Poissons Ratio (y) = 0.29445 0.23014
# Poissons Ratio (z) = 0.29725 0.18688
#
# Static dielectric constant tensor:
#      x y z
#    x 1.728630 0.000000 0.000000 
#    y 0.000000 1.682710 0.000000 
#    z 0.000000 0.000000 1.680380 
# 
# From -- ./inp_files/31007.got.cif
#   From: 2010.05.17/outbox.cif.g08.bks.cpg/sg68_16_cif.got.tgz:31007.got - 2010.06.03 18:57:09.
