data_PCOD9506543
_publ_section_title
;
Structure prediction by ZEFSAII (Michael W. Deem and Ramdas Pophale) SiO2 
 PCOD9506543
Probable space group: C C C A
;
_chemical_formula_sum "Si O2"
_cell_formula_units_Z 88
_cell_length_a 9.392391
_cell_length_b 21.412643
_cell_length_c 21.992472
_cell_angle_alpha 90.000000
_cell_angle_beta 90.000000
_cell_angle_gamma 90.000000
_cell_volume 4423.036138
_symmetry_space_group_name_H-M "C C C A"
_symmetry_group_IT_number 68
_space_group.IT_coordinate_system_code '2'
_symmetry_cell_setting 'orthorhombic'
loop_
_space_group_symop_operation_xyz
x,y,z
-x,1/2-y,z
x,1/2-y,1/2-z
-x,y,1/2-z
-x,-y,-z
x,1/2+y,-z
-x,1/2+y,1/2+z
x,-y,1/2+z
1/2+x,1/2+y,z
1/2-x,-y,z
1/2+x,-y,1/2-z
1/2-x,1/2+y,1/2-z
1/2-x,1/2-y,-z
1/2+x,y,-z
1/2-x,y,1/2+z
1/2+x,1/2-y,1/2+z
loop_
_atom_site_type_symbol
_atom_site_label
_atom_site_fract_x
_atom_site_fract_y
_atom_site_fract_z
Si Si1 0.376333 0.203126 0.518534
Si Si2 0.444029 0.467829 0.376501
Si Si3 0.000000 0.408162 0.250000
Si Si4 0.998575 0.616622 0.617224
Si Si5 0.750000 0.500000 0.018587
Si Si6 0.178315 0.105404 0.924513
Si Si7 0.250000 0.000000 0.728375
O O1 0.500000 0.250000 0.534251
O O2 0.250000 0.250000 0.500000
O O3 0.386872 0.153502 0.574497
O O4 0.398515 0.162224 0.457983
O O5 0.476087 0.541686 0.382719
O O6 0.353112 0.459534 0.438080
O O7 0.582002 0.424837 0.372365
O O8 0.345866 0.459158 0.317919
O O9 0.982814 0.368524 0.188652
O O10 0.137056 0.454220 0.239767
O O11 0.161200 0.624031 0.593431
O O12 0.820918 0.450518 0.973846
#
# Coordination Sequence:
#
# PCOD9506543 Si02
#       7
#    16  16   8  16   8  16   8
#     4  12  26  42  62  91 127 167 220 271 320 381
#     4  10  20  33  56  94 131 163 199 260 331 403
#     4  10  24  40  61  92 134 172 219 254 316 406
#     4  11  22  40  61  93 127 171 213 259 325 389
#     4  11  18  29  54  94 126 159 197 260 326 400
#     4  12  21  34  63  92 129 164 206 264 338 387
#     4   9  22  35  58  90 132 169 207 250 322 394
#
# _framework density 19.895834000000001
#
# number of rings (size 3 to 8) (size 9 to 14) (size 15 to 20)
#    0.000    1.091    5.455    1.636    5.091    0.000 
#    0.000    0.455    0.000    0.000    0.000    0.000 
#    0.000    0.000    0.000    0.000    0.000    0.000 
#
# Total GULP energy -245227.496834 kJ/mol
# GULP energy per Si atom -5573.352201 kJ/mol
# Density = 1.985055 g / cm^3
# Si number density = 19.895834 Si / 1000 Ang^3
#
#
#
# Elastic Constant Matrix: (Units=GPa)
#
#
# Indices 1 2 3 4 5 6 
#
# 1 71.7356 17.2999 29.4400 0.0000 0.0000 0.0000
# 2 17.2999 76.3524 21.0919 0.0000 0.0000 0.0000
# 3 29.4400 21.0919 80.3116 0.0000 0.0000 0.0000
# 4 0.0000 0.0000 0.0000 12.6405 0.0000 0.0000
# 5 0.0000 0.0000 0.0000 0.0000 28.8892 0.0000
# 6 0.0000 0.0000 0.0000 0.0000 0.0000 35.4401
#
#
#
# Elastic Compliance Matrix: (Units=1/GPa)
#
#
# Indices 1 2 3 4 5 6 
#
# 1 0.016764 -0.002265 -0.005550 0.000000 0.000000 0.000000
# 2 -0.002265 0.014428 -0.002959 0.000000 0.000000 0.000000
# 3 -0.005550 -0.002959 0.015263 0.000000 0.000000 0.000000
# 4 0.000000 0.000000 0.000000 0.079111 0.000000 0.000000
# 5 0.000000 0.000000 0.000000 0.000000 0.034615 0.000000
# 6 0.000000 0.000000 0.000000 0.000000 0.000000 0.028217
#
#
# Mechanical properties :
#
#
# Convention : Reuss Voigt Hill
#
# Bulk Modulus (GPa) = 40.15019 40.45148 40.30083
# Shear Modulus (GPa) = 22.90970 26.09849 24.50409
#
# Velocity S-wave (km/s) = 3.39703 3.62575 3.51325
# Velocity P-wave (km/s) = 5.96745 6.15661 6.06277
#
# Compressibility (1/GPa) = 0.02490648
#
# Stress axis : x y z
#
# Youngs Moduli (GPa) = 59.65082 69.31096 65.51715
#
# Poissons Ratio (x) = 0.15700 0.36365
# Poissons Ratio (y) = 0.13512 0.19385
# Poissons Ratio (z) = 0.33109 0.20507
#
# Static dielectric constant tensor:
#      x y z
#    x 1.776240 0.000000 0.000000 
#    y 0.000000 1.677440 0.000000 
#    z 0.000000 0.000000 1.763470 
# 
# From -- ./inp_files/43204.got.cif
#   From: 2010.05.17/outbox.cif.g08.bks.cpg/sg68_22_cif.got.tgz:43204.got - 2010.06.03 18:57:09.
