data_PCOD9506824
_publ_section_title
;
Structure prediction by ZEFSAII (Michael W. Deem and Ramdas Pophale) SiO2 
 PCOD9506824
Probable space group: C C C A
;
_chemical_formula_sum "Si O2"
_cell_formula_units_Z 80
_cell_length_a 14.756156
_cell_length_b 18.055554
_cell_length_c 14.299723
_cell_angle_alpha 90.000000
_cell_angle_beta 90.000000
_cell_angle_gamma 90.000000
_cell_volume 3809.883371
_symmetry_space_group_name_H-M "C C C A"
_symmetry_group_IT_number 68
_space_group.IT_coordinate_system_code '2'
_symmetry_cell_setting 'orthorhombic'
loop_
_space_group_symop_operation_xyz
x,y,z
-x,1/2-y,z
x,1/2-y,1/2-z
-x,y,1/2-z
-x,-y,-z
x,1/2+y,-z
-x,1/2+y,1/2+z
x,-y,1/2+z
1/2+x,1/2+y,z
1/2-x,-y,z
1/2+x,-y,1/2-z
1/2-x,1/2+y,1/2-z
1/2-x,1/2-y,-z
1/2+x,y,-z
1/2-x,y,1/2+z
1/2+x,1/2-y,1/2+z
loop_
_atom_site_type_symbol
_atom_site_label
_atom_site_fract_x
_atom_site_fract_y
_atom_site_fract_z
Si Si1 0.079259 0.945561 0.889032
Si Si2 0.231119 0.711531 0.340377
Si Si3 0.326237 0.057917 0.704123
Si Si4 0.721902 0.342174 0.967672
Si Si5 0.594907 0.918293 0.485620
O O1 0.093863 0.944611 0.778800
O O2 0.173060 0.913665 0.928881
O O3 0.998291 0.896298 0.933249
O O4 0.069110 0.028110 0.929458
O O5 0.186138 0.750000 0.250000
O O6 0.287808 0.641375 0.303232
O O7 0.287734 0.776310 0.392773
O O8 0.180047 0.679172 0.431339
O O9 0.356901 0.037232 0.599463
O O10 0.250000 0.000000 0.734609
O O11 0.829110 0.359682 0.982580
#
# Coordination Sequence:
#
# PCOD9506824 Si02
#       5
#    16  16  16  16  16
#     4  11  21  37  61  90 123 163 207 255 299 368
#     4  10  20  36  60  90 115 157 204 248 307 384
#     4  11  21  37  63  91 120 161 201 254 316 368
#     4  10  20  38  61  83 125 161 198 255 314 360
#     4  10  22  37  58  92 124 160 210 249 305 369
#
# _framework density 20.998018999999999
#
# number of rings (size 3 to 8) (size 9 to 14) (size 15 to 20)
#    0.000    1.600    2.000    4.800    0.000    0.000 
#    0.000    9.000    0.000    1.200    0.000    0.000 
#    0.000    0.000    0.000    0.000    0.000    0.000 
#
# Total GULP energy -222756.806857 kJ/mol
# GULP energy per Si atom -5568.920171 kJ/mol
# Density = 2.095023 g / cm^3
# Si number density = 20.998019 Si / 1000 Ang^3
#
#
#
# Elastic Constant Matrix: (Units=GPa)
#
#
# Indices 1 2 3 4 5 6 
#
# 1 81.1000 30.5279 17.6144 0.0000 0.0000 0.0000
# 2 30.5279 69.8795 38.7169 0.0000 0.0000 0.0000
# 3 17.6144 38.7169 96.8771 0.0000 0.0000 0.0000
# 4 0.0000 0.0000 0.0000 29.0805 0.0000 0.0000
# 5 0.0000 0.0000 0.0000 0.0000 25.7174 0.0000
# 6 0.0000 0.0000 0.0000 0.0000 0.0000 6.2232
#
#
#
# Elastic Compliance Matrix: (Units=1/GPa)
#
#
# Indices 1 2 3 4 5 6 
#
# 1 0.014759 -0.006372 -0.000137 0.000000 0.000000 0.000000
# 2 -0.006372 0.021131 -0.007286 0.000000 0.000000 0.000000
# 3 -0.000137 -0.007286 0.013259 0.000000 0.000000 0.000000
# 4 0.000000 0.000000 0.000000 0.034387 0.000000 0.000000
# 5 0.000000 0.000000 0.000000 0.000000 0.038884 0.000000
# 6 0.000000 0.000000 0.000000 0.000000 0.000000 0.160689
#
#
# Mechanical properties :
#
#
# Convention : Reuss Voigt Hill
#
# Bulk Modulus (GPa) = 46.38506 46.84167 46.61337
# Shear Modulus (GPa) = 15.72893 22.93738 19.33316
#
# Velocity S-wave (km/s) = 2.73988 3.30867 3.03762
# Velocity P-wave (km/s) = 5.66987 6.07886 5.87792
#
# Compressibility (1/GPa) = 0.02155866
#
# Stress axis : x y z
#
# Youngs Moduli (GPa) = 67.75686 47.32388 75.41873
#
# Poissons Ratio (x) = 0.30153 0.01034
# Poissons Ratio (y) = 0.43172 0.54954
# Poissons Ratio (z) = 0.00929 0.34482
#
# Static dielectric constant tensor:
#      x y z
#    x 1.795070 0.000000 0.000000 
#    y 0.000000 1.756360 0.000000 
#    z 0.000000 0.000000 1.787930 
# 
# From -- ./inp_files/22148.got.cif
#   From: 2010.05.17/outbox.cif.g08.bks.cpg/sg68_12_cif.got.tgz:22148.got - 2010.06.03 18:57:09.
