data_PCOD9506672
_publ_section_title
;
Structure prediction by ZEFSAII (Michael W. Deem and Ramdas Pophale) SiO2 
 PCOD9506672
Probable space group: C C C A
;
_chemical_formula_sum "Si O2"
_cell_formula_units_Z 112
_cell_length_a 30.896093
_cell_length_b 11.178865
_cell_length_c 15.266698
_cell_angle_alpha 90.000000
_cell_angle_beta 90.000000
_cell_angle_gamma 90.000000
_cell_volume 5272.861813
_symmetry_space_group_name_H-M "C C C A"
_symmetry_group_IT_number 68
_space_group.IT_coordinate_system_code '2'
_symmetry_cell_setting 'orthorhombic'
loop_
_space_group_symop_operation_xyz
x,y,z
-x,1/2-y,z
x,1/2-y,1/2-z
-x,y,1/2-z
-x,-y,-z
x,1/2+y,-z
-x,1/2+y,1/2+z
x,-y,1/2+z
1/2+x,1/2+y,z
1/2-x,-y,z
1/2+x,-y,1/2-z
1/2-x,1/2+y,1/2-z
1/2-x,1/2-y,-z
1/2+x,y,-z
1/2-x,y,1/2+z
1/2+x,1/2-y,1/2+z
loop_
_atom_site_type_symbol
_atom_site_label
_atom_site_fract_x
_atom_site_fract_y
_atom_site_fract_z
Si Si1 0.245698 0.250000 0.250000
Si Si2 0.134883 0.974367 0.675620
Si Si3 0.141231 0.773358 0.077604
Si Si4 0.250000 0.500000 0.026218
Si Si5 0.952673 0.263665 0.895556
Si Si6 0.311322 0.938772 0.823898
Si Si7 0.696112 0.807481 0.424862
Si Si8 0.047265 0.452640 0.753275
O O1 0.276112 0.365259 0.232882
O O2 0.217808 0.259547 0.337423
O O3 0.141430 0.106394 0.634406
O O4 0.164629 0.970570 0.761219
O O5 0.086057 0.966487 0.710995
O O6 0.154485 0.884800 0.605374
O O7 0.091167 0.754667 0.050022
O O8 0.156303 0.662334 0.138205
O O9 0.175893 0.776305 0.999660
O O10 0.210309 0.495348 0.094506
O O11 0.266242 0.390458 0.967182
O O12 0.954446 0.157962 0.822502
O O13 0.946579 0.386715 0.840475
O O14 0.000000 0.250000 0.939542
O O15 0.000000 0.510740 0.750000
#
# Coordination Sequence:
#
# PCOD9506672 Si02
#       8
#     8  16  16   8  16  16  16  16
#     4  12  24  40  56  78 112 154 200 242 282 336
#     4  11  19  37  58  84 117 150 189 229 285 345
#     4  10  20  35  56  85 114 147 185 237 286 333
#     4  10  24  38  56  88 110 148 194 236 284 338
#     4   8  13  26  51  83 110 135 174 229 289 332
#     4  11  20  35  60  81 113 148 186 238 288 339
#     4  11  26  38  56  80 113 157 194 239 282 337
#     4   8  14  25  52  86 112 136 175 232 281 335
#
# _framework density 21.240838
#
# number of rings (size 3 to 8) (size 9 to 14) (size 15 to 20)
#    0.000    2.000    2.857    2.571    2.000    1.143 
#    0.000    0.000    0.000    9.429    0.000    0.000 
#    0.000    0.000    0.000    0.000    0.000    0.000 
#
# Total GULP energy -312590.626700 kJ/mol
# GULP energy per Si atom -5581.975477 kJ/mol
# Density = 2.119249 g / cm^3
# Si number density = 21.240838 Si / 1000 Ang^3
#
#
#
# Elastic Constant Matrix: (Units=GPa)
#
#
# Indices 1 2 3 4 5 6 
#
# 1 166.0676 33.3927 47.0272 0.0000 0.0000 0.0000
# 2 33.3927 27.3831 11.9074 0.0000 0.0000 0.0000
# 3 47.0272 11.9074 85.3854 0.0000 0.0000 0.0000
# 4 0.0000 0.0000 0.0000 20.6411 0.0000 0.0000
# 5 0.0000 0.0000 0.0000 0.0000 -9.5938 0.0000
# 6 0.0000 0.0000 0.0000 0.0000 0.0000 12.1349
#
#
#
# Elastic Compliance Matrix: (Units=1/GPa)
#
#
# Indices 1 2 3 4 5 6 
#
# 1 0.008915 -0.009300 -0.003613 0.000000 0.000000 0.000000
# 2 -0.009300 0.048579 -0.001652 0.000000 0.000000 0.000000
# 3 -0.003613 -0.001652 0.013932 0.000000 0.000000 0.000000
# 4 0.000000 0.000000 0.000000 0.048447 0.000000 0.000000
# 5 0.000000 0.000000 0.000000 0.000000 -0.104234 0.000000
# 6 0.000000 0.000000 0.000000 0.000000 0.000000 0.082407
#
#
# Mechanical properties :
#
#
# Convention : Reuss Voigt Hill
#
# Bulk Modulus (GPa) = 23.64383 51.49899 37.57141
# Shear Modulus (GPa) = 35.39188 17.07034 26.23111
#
# Velocity S-wave (km/s) = 4.08636 2.83796 3.51798
# Velocity P-wave (km/s) = 5.78100 5.91917 5.85049
#
# Compressibility (1/GPa) = 0.04229434
#
# Stress axis : x y z
#
# Youngs Moduli (GPa) = 112.17213 20.58517 71.77741
#
# Poissons Ratio (x) = 0.19145 0.25933
# Poissons Ratio (y) = 1.04323 0.11860
# Poissons Ratio (z) = 0.40528 0.03401
#
# Static dielectric constant tensor:
#      x y z
#    x 1.817120 0.000000 0.000000 
#    y 0.000000 1.799910 0.000000 
#    z 0.000000 0.000000 1.746310 
# 
# From -- ./inp_files/26107.got.cif
#   From: 2010.05.17/outbox.cif.g08.bks.cpg/sg68_14_cif.got.tgz:26107.got - 2010.06.03 18:57:09.
