data_PCOD9507786
_publ_section_title
;
Structure prediction by ZEFSAII (Michael W. Deem and Ramdas Pophale) SiO2 
 PCOD9507786
Probable space group: C C C A
;
_chemical_formula_sum "Si O2"
_cell_formula_units_Z 84
_cell_length_a 20.122271
_cell_length_b 12.267234
_cell_length_c 13.797506
_cell_angle_alpha 90.000000
_cell_angle_beta 90.000000
_cell_angle_gamma 90.000000
_cell_volume 3405.839946
_symmetry_space_group_name_H-M "C C C A"
_symmetry_group_IT_number 68
_space_group.IT_coordinate_system_code '2'
_symmetry_cell_setting 'orthorhombic'
loop_
_space_group_symop_operation_xyz
x,y,z
-x,1/2-y,z
x,1/2-y,1/2-z
-x,y,1/2-z
-x,-y,-z
x,1/2+y,-z
-x,1/2+y,1/2+z
x,-y,1/2+z
1/2+x,1/2+y,z
1/2-x,-y,z
1/2+x,-y,1/2-z
1/2-x,1/2+y,1/2-z
1/2-x,1/2-y,-z
1/2+x,y,-z
1/2-x,y,1/2+z
1/2+x,1/2-y,1/2+z
loop_
_atom_site_type_symbol
_atom_site_label
_atom_site_fract_x
_atom_site_fract_y
_atom_site_fract_z
Si Si1 0.428809 0.209551 0.393941
Si Si2 0.594755 0.860421 0.397387
Si Si3 0.734827 0.772397 0.364606
Si Si4 0.688642 0.564238 0.873192
Si Si5 0.657233 0.575926 0.564131
Si Si6 0.000000 0.750000 0.750000
O O1 0.500000 0.250000 0.355742
O O2 0.438179 0.147596 0.496810
O O3 0.378594 0.126889 0.335251
O O4 0.390085 0.319889 0.423123
O O5 0.658379 0.780941 0.391965
O O6 0.544132 0.824747 0.317376
O O7 0.624106 0.978516 0.376408
O O8 0.740610 0.750000 0.250000
O O9 0.772572 0.670908 0.413498
O O10 0.773868 0.880986 0.392651
O O11 0.750000 0.500000 0.820045
O O12 0.666521 0.480853 0.958261
#
# Coordination Sequence:
#
# PCOD9507786 Si02
#       6
#    16  16  16  16  16   4
#     4  10  21  40  62  93 125 161 215 266 311 385
#     4  11  22  40  64  86 129 165 210 254 316 385
#     4  11  23  41  62  95 131 161 209 271 317 378
#     4  10  21  38  63  92 121 162 210 261 313 371
#     4  10  22  41  65  92 122 167 213 259 321 378
#     4  12  24  44  52  96 130 172 196 268 312 388
#
# _framework density 24.663519000000001
#
# number of rings (size 3 to 8) (size 9 to 14) (size 15 to 20)
#    0.000    1.524    1.905    4.000    0.000    9.905 
#    6.857    1.905    0.000    5.143    0.000    0.000 
#    0.000    0.000    0.000    0.000    0.000    0.000 
#
# Total GULP energy -234655.221646 kJ/mol
# GULP energy per Si atom -5587.029087 kJ/mol
# Density = 2.460738 g / cm^3
# Si number density = 24.663519 Si / 1000 Ang^3
#
#
#
# Elastic Constant Matrix: (Units=GPa)
#
#
# Indices 1 2 3 4 5 6 
#
# 1 175.7137 50.5479 33.3938 0.0000 0.0000 0.0000
# 2 50.5479 134.3055 14.7818 0.0000 0.0000 0.0000
# 3 33.3938 14.7818 82.8687 0.0000 0.0000 0.0000
# 4 0.0000 0.0000 0.0000 14.2599 0.0000 0.0000
# 5 0.0000 0.0000 0.0000 0.0000 9.2002 0.0000
# 6 0.0000 0.0000 0.0000 0.0000 0.0000 38.7721
#
#
#
# Elastic Compliance Matrix: (Units=1/GPa)
#
#
# Indices 1 2 3 4 5 6 
#
# 1 0.006796 -0.002301 -0.002328 0.000000 0.000000 0.000000
# 2 -0.002301 0.008374 -0.000566 0.000000 0.000000 0.000000
# 3 -0.002328 -0.000566 0.013106 0.000000 0.000000 0.000000
# 4 0.000000 0.000000 0.000000 0.070127 0.000000 0.000000
# 5 0.000000 0.000000 0.000000 0.000000 0.108693 0.000000
# 6 0.000000 0.000000 0.000000 0.000000 0.000000 0.025792
#
#
# Mechanical properties :
#
#
# Convention : Reuss Voigt Hill
#
# Bulk Modulus (GPa) = 55.91333 65.59277 60.75305
# Shear Modulus (GPa) = 20.06097 32.05742 26.05919
#
# Velocity S-wave (km/s) = 2.85509 3.60917 3.25405
# Velocity P-wave (km/s) = 5.79555 6.63483 6.22934
#
# Compressibility (1/GPa) = 0.01788482
#
# Stress axis : x y z
#
# Youngs Moduli (GPa) = 147.15546 119.41421 76.29871
#
# Poissons Ratio (x) = 0.27482 0.17762
# Poissons Ratio (y) = 0.33866 0.04321
# Poissons Ratio (z) = 0.34256 0.06763
#
# Static dielectric constant tensor:
#      x y z
#    x 1.991440 0.000000 0.000000 
#    y 0.000000 1.968210 0.000000 
#    z 0.000000 0.000000 1.997340 
# 
# From -- ./inp_files/32719.got.cif
#   From: 2010.05.17/outbox.cif.g08.bks.cpg/sg68_17_cif.got.tgz:32719.got - 2010.06.03 18:57:09.
