data_PCOD9507507
_publ_section_title
;
Structure prediction by ZEFSAII (Michael W. Deem and Ramdas Pophale) SiO2 
 PCOD9507507
Probable space group: C C C A
;
_chemical_formula_sum "Si O2"
_cell_formula_units_Z 104
_cell_length_a 10.093596
_cell_length_b 25.444027
_cell_length_c 19.634102
_cell_angle_alpha 90.000000
_cell_angle_beta 90.000000
_cell_angle_gamma 90.000000
_cell_volume 5042.464026
_symmetry_space_group_name_H-M "C C C A"
_symmetry_group_IT_number 68
_space_group.IT_coordinate_system_code '2'
_symmetry_cell_setting 'orthorhombic'
loop_
_space_group_symop_operation_xyz
x,y,z
-x,1/2-y,z
x,1/2-y,1/2-z
-x,y,1/2-z
-x,-y,-z
x,1/2+y,-z
-x,1/2+y,1/2+z
x,-y,1/2+z
1/2+x,1/2+y,z
1/2-x,-y,z
1/2+x,-y,1/2-z
1/2-x,1/2+y,1/2-z
1/2-x,1/2-y,-z
1/2+x,y,-z
1/2-x,y,1/2+z
1/2+x,1/2-y,1/2+z
loop_
_atom_site_type_symbol
_atom_site_label
_atom_site_fract_x
_atom_site_fract_y
_atom_site_fract_z
Si Si1 0.256688 0.437242 0.230195
Si Si2 0.593776 0.996047 0.435764
Si Si3 0.649896 0.384510 0.557911
Si Si4 0.500000 0.873023 0.250000
Si Si5 0.312111 0.626869 0.599147
Si Si6 0.408900 0.102731 0.143988
Si Si7 0.947853 0.190763 0.113502
O O1 0.250000 0.500000 0.237250
O O2 0.123947 0.410840 0.256843
O O3 0.267594 0.418469 0.152074
O O4 0.366351 0.409534 0.278614
O O5 0.581669 0.936548 0.410514
O O6 0.500000 0.000000 0.500000
O O7 0.750000 0.000000 0.452616
O O8 0.563823 0.044083 0.386044
O O9 0.685068 0.392722 0.478660
O O10 0.782373 0.375327 0.601831
O O11 0.540551 0.339514 0.559868
O O12 0.517005 0.835768 0.185349
O O13 0.461877 0.636987 0.626121
O O14 0.206457 0.674940 0.602200
O O15 0.000000 0.250000 0.113619
#
# Coordination Sequence:
#
# PCOD9507507 Si02
#       7
#    16  16  16   8  16  16  16
#     4  11  24  40  64  99 141 182 218 269 337 416
#     4  10  21  34  60  92 135 181 212 256 323 410
#     4  11  22  42  65  97 138 176 222 276 344 400
#     4  10  23  46  70  94 130 178 229 274 338 424
#     4  11  25  39  65  97 131 175 227 279 332 414
#     4  11  22  40  63  96 141 177 216 273 337 404
#     4  11  25  46  71  95 126 175 237 291 345 398
#
# _framework density 20.624839000000001
#
# number of rings (size 3 to 8) (size 9 to 14) (size 15 to 20)
#    0.000    1.231    3.077    3.000    4.308    3.692 
#    0.000    0.769    0.000    0.000    0.000    0.000 
#    0.000    0.000    0.000    0.000    0.000    0.000 
#
# Total GULP energy -290287.695538 kJ/mol
# GULP energy per Si atom -5582.455683 kJ/mol
# Density = 2.057790 g / cm^3
# Si number density = 20.624839 Si / 1000 Ang^3
#
#
#
# Elastic Constant Matrix: (Units=GPa)
#
#
# Indices 1 2 3 4 5 6 
#
# 1 140.2381 69.6074 27.0022 0.0000 0.0000 0.0000
# 2 69.6074 111.5391 20.2790 0.0000 0.0000 0.0000
# 3 27.0022 20.2790 119.3593 0.0000 0.0000 0.0000
# 4 0.0000 0.0000 0.0000 -15.1260 0.0000 0.0000
# 5 0.0000 0.0000 0.0000 0.0000 32.9090 0.0000
# 6 0.0000 0.0000 0.0000 0.0000 0.0000 21.9087
#
#
#
# Elastic Compliance Matrix: (Units=1/GPa)
#
#
# Indices 1 2 3 4 5 6 
#
# 1 0.010524 -0.006330 -0.001305 0.000000 0.000000 0.000000
# 2 -0.006330 0.013059 -0.000787 0.000000 0.000000 0.000000
# 3 -0.001305 -0.000787 0.008807 0.000000 0.000000 0.000000
# 4 0.000000 0.000000 0.000000 -0.066111 0.000000 0.000000
# 5 0.000000 0.000000 0.000000 0.000000 0.030387 0.000000
# 6 0.000000 0.000000 0.000000 0.000000 0.000000 0.045644
#
#
# Mechanical properties :
#
#
# Convention : Reuss Voigt Hill
#
# Bulk Modulus (GPa) = 64.32709 67.21262 65.76986
# Shear Modulus (GPa) = 77.71674 24.88820 51.30247
#
# Velocity S-wave (km/s) = 6.14516 3.47754 4.99281
# Velocity P-wave (km/s) = 9.03368 6.98451 8.07437
#
# Compressibility (1/GPa) = 0.01554555
#
# Stress axis : x y z
#
# Youngs Moduli (GPa) = 95.01934 76.57522 113.54594
#
# Poissons Ratio (x) = 0.48475 0.14821
# Poissons Ratio (y) = 0.60151 0.08932
# Poissons Ratio (z) = 0.12403 0.06023
#
# Static dielectric constant tensor:
#      x y z
#    x 1.779260 0.000000 0.000000 
#    y 0.000000 1.733310 0.000000 
#    z 0.000000 0.000000 1.774740 
# 
# From -- ./inp_files/36588.got.cif
#   From: 2010.05.17/outbox.cif.g08.bks.cpg/sg68_19_cif.got.tgz:36588.got - 2010.06.03 18:57:09.
