data_PCOD9507577
_publ_section_title
;
Structure prediction by ZEFSAII (Michael W. Deem and Ramdas Pophale) SiO2 
 PCOD9507577
Probable space group: C C C A
;
_chemical_formula_sum "Si O2"
_cell_formula_units_Z 64
_cell_length_a 13.930307
_cell_length_b 22.911608
_cell_length_c 8.320711
_cell_angle_alpha 90.000000
_cell_angle_beta 90.000000
_cell_angle_gamma 90.000000
_cell_volume 2655.685828
_symmetry_space_group_name_H-M "C C C A"
_symmetry_group_IT_number 68
_space_group.IT_coordinate_system_code '2'
_symmetry_cell_setting 'orthorhombic'
loop_
_space_group_symop_operation_xyz
x,y,z
-x,1/2-y,z
x,1/2-y,1/2-z
-x,y,1/2-z
-x,-y,-z
x,1/2+y,-z
-x,1/2+y,1/2+z
x,-y,1/2+z
1/2+x,1/2+y,z
1/2-x,-y,z
1/2+x,-y,1/2-z
1/2-x,1/2+y,1/2-z
1/2-x,1/2-y,-z
1/2+x,y,-z
1/2-x,y,1/2+z
1/2+x,1/2-y,1/2+z
loop_
_atom_site_type_symbol
_atom_site_label
_atom_site_fract_x
_atom_site_fract_y
_atom_site_fract_z
Si Si1 0.562201 0.378163 0.582109
Si Si2 0.131903 0.368598 0.930342
Si Si3 0.616062 0.244745 0.932398
Si Si4 0.779213 0.066228 0.234331
O O1 0.500000 0.365312 0.750000
O O2 0.480990 0.383245 0.447482
O O3 0.627651 0.323094 0.530862
O O4 0.636084 0.428495 0.630795
O O5 0.147335 0.298996 0.958590
O O6 0.176368 0.403654 0.079645
O O7 0.187567 0.395400 0.782551
O O8 0.500000 0.250000 0.931093
O O9 0.652389 0.250000 0.750000
O O10 0.750000 0.000000 0.210501
#
# Coordination Sequence:
#
# PCOD9507577 Si02
#       4
#    16  16  16  16
#     4   9  17  34  58  79 105 144 182 218 265 330
#     4  10  21  36  58  82 108 140 184 229 270 316
#     4   9  12  29  57  83  98 131 186 220 251 326
#     4  11  22  36  53  80 111 145 186 220 261 326
#
# _framework density 24.099238
#
# number of rings (size 3 to 8) (size 9 to 14) (size 15 to 20)
#    0.000    2.250    7.500    0.750    0.000    2.000 
#    0.000    3.750    0.000    0.000    0.000   21.000 
#    0.000    0.000    0.000    0.000    0.000    0.000 
#
# Total GULP energy -178755.762171 kJ/mol
# GULP energy per Si atom -5586.117568 kJ/mol
# Density = 2.404439 g / cm^3
# Si number density = 24.099238 Si / 1000 Ang^3
#
#
#
# Elastic Constant Matrix: (Units=GPa)
#
#
# Indices 1 2 3 4 5 6 
#
# 1 113.4337 45.7071 26.7367 0.0000 0.0000 0.0000
# 2 45.7071 144.3109 30.6414 0.0000 0.0000 0.0000
# 3 26.7367 30.6414 43.3184 0.0000 0.0000 0.0000
# 4 0.0000 0.0000 0.0000 7.5010 0.0000 0.0000
# 5 0.0000 0.0000 0.0000 0.0000 35.3979 0.0000
# 6 0.0000 0.0000 0.0000 0.0000 0.0000 18.6105
#
#
#
# Elastic Compliance Matrix: (Units=1/GPa)
#
#
# Indices 1 2 3 4 5 6 
#
# 1 0.010980 -0.002399 -0.005080 0.000000 0.000000 0.000000
# 2 -0.002399 0.008678 -0.004658 0.000000 0.000000 0.000000
# 3 -0.005080 -0.004658 0.029515 0.000000 0.000000 0.000000
# 4 0.000000 0.000000 0.000000 0.133316 0.000000 0.000000
# 5 0.000000 0.000000 0.000000 0.000000 0.028250 0.000000
# 6 0.000000 0.000000 0.000000 0.000000 0.000000 0.053733
#
#
# Mechanical properties :
#
#
# Convention : Reuss Voigt Hill
#
# Bulk Modulus (GPa) = 40.16153 56.35927 48.26040
# Shear Modulus (GPa) = 16.83240 25.50040 21.16640
#
# Velocity S-wave (km/s) = 2.64571 3.25644 2.96683
# Velocity P-wave (km/s) = 5.10238 6.12995 5.63962
#
# Compressibility (1/GPa) = 0.02489945
#
# Stress axis : x y z
#
# Youngs Moduli (GPa) = 91.07713 115.22965 33.88097
#
# Poissons Ratio (x) = 0.27643 0.17211
# Poissons Ratio (y) = 0.21849 0.15782
# Poissons Ratio (z) = 0.46266 0.53674
#
# Static dielectric constant tensor:
#      x y z
#    x 1.991540 0.000000 0.000000 
#    y 0.000000 1.904560 0.000000 
#    z 0.000000 0.000000 1.984040 
# 
# From -- ./inp_files/4965.got.cif
#   From: 2010.05.17/outbox.cif.g08.bks.cpg/sg68_3_cif.got.tgz:4965.got - 2010.06.03 18:57:09.
