data_PCOD9507873
_publ_section_title
;
Structure prediction by ZEFSAII (Michael W. Deem and Ramdas Pophale) SiO2 
 PCOD9507873
Probable space group: C C C A
;
_chemical_formula_sum "Si O2"
_cell_formula_units_Z 56
_cell_length_a 5.267399
_cell_length_b 14.640987
_cell_length_c 34.458529
_cell_angle_alpha 90.000000
_cell_angle_beta 90.000000
_cell_angle_gamma 90.000000
_cell_volume 2657.439010
_symmetry_space_group_name_H-M "C C C A"
_symmetry_group_IT_number 68
_space_group.IT_coordinate_system_code '2'
_symmetry_cell_setting 'orthorhombic'
loop_
_space_group_symop_operation_xyz
x,y,z
-x,1/2-y,z
x,1/2-y,1/2-z
-x,y,1/2-z
-x,-y,-z
x,1/2+y,-z
-x,1/2+y,1/2+z
x,-y,1/2+z
1/2+x,1/2+y,z
1/2-x,-y,z
1/2+x,-y,1/2-z
1/2-x,1/2+y,1/2-z
1/2-x,1/2-y,-z
1/2+x,y,-z
1/2-x,y,1/2+z
1/2+x,1/2-y,1/2+z
loop_
_atom_site_type_symbol
_atom_site_label
_atom_site_fract_x
_atom_site_fract_y
_atom_site_fract_z
Si Si1 0.241767 0.306696 0.152694
Si Si2 0.229828 0.605247 0.474645
Si Si3 0.500000 0.250000 0.921022
Si Si4 0.251472 0.893614 0.769567
O O1 0.500000 0.250000 0.153199
O O2 0.266435 0.385651 0.183976
O O3 0.000000 0.250000 0.168034
O O4 0.159818 0.317042 0.107764
O O5 0.250000 0.500000 0.459675
O O6 0.445978 0.614425 0.508333
O O7 0.312844 0.685099 0.445309
O O8 0.500000 0.852150 0.750000
O O9 0.000000 0.854673 0.750000
O O10 0.250000 0.000000 0.759291
#
# Coordination Sequence:
#
# PCOD9507873 Si02
#       4
#    16  16   8  16
#     4  10  23  38  55  89 117 155 201 238 313 360
#     4  10  22  40  64  92 118 159 205 248 303 367
#     4  10  24  40  61  90 128 158 200 250 317 362
#     4  10  21  39  60  83 114 157 202 252 301 353
#
# _framework density 21.072921000000001
#
# number of rings (size 3 to 8) (size 9 to 14) (size 15 to 20)
#    0.857    1.143    0.000    2.571    4.000    3.429 
#    5.143    0.000    0.000    0.000    0.000    0.000 
#    0.000    0.000    0.000    0.000    0.000    0.000 
#
# Total GULP energy -155920.857338 kJ/mol
# GULP energy per Si atom -5568.602048 kJ/mol
# Density = 2.102496 g / cm^3
# Si number density = 21.072921 Si / 1000 Ang^3
#
#
#
# Elastic Constant Matrix: (Units=GPa)
#
#
# Indices 1 2 3 4 5 6 
#
# 1 135.5706 21.4807 13.7939 0.0000 0.0000 0.0000
# 2 21.4807 70.8687 31.6139 0.0000 0.0000 0.0000
# 3 13.7939 31.6139 83.0030 0.0000 0.0000 0.0000
# 4 0.0000 0.0000 0.0000 47.2695 0.0000 0.0000
# 5 0.0000 0.0000 0.0000 0.0000 37.0060 0.0000
# 6 0.0000 0.0000 0.0000 0.0000 0.0000 6.3859
#
#
#
# Elastic Compliance Matrix: (Units=1/GPa)
#
#
# Indices 1 2 3 4 5 6 
#
# 1 0.007764 -0.002142 -0.000475 0.000000 0.000000 0.000000
# 2 -0.002142 0.017589 -0.006344 0.000000 0.000000 0.000000
# 3 -0.000475 -0.006344 0.014543 0.000000 0.000000 0.000000
# 4 0.000000 0.000000 0.000000 0.021155 0.000000 0.000000
# 5 0.000000 0.000000 0.000000 0.000000 0.027023 0.000000
# 6 0.000000 0.000000 0.000000 0.000000 0.000000 0.156595
#
#
# Mechanical properties :
#
#
# Convention : Reuss Voigt Hill
#
# Bulk Modulus (GPa) = 45.50263 47.02436 46.26350
# Shear Modulus (GPa) = 18.52442 32.96920 25.74681
#
# Velocity S-wave (km/s) = 2.96812 3.95970 3.49921
# Velocity P-wave (km/s) = 5.77807 6.57793 6.19093
#
# Compressibility (1/GPa) = 0.02197675
#
# Stress axis : x y z
#
# Youngs Moduli (GPa) = 128.80230 56.85211 68.76292
#
# Poissons Ratio (x) = 0.12175 0.03263
# Poissons Ratio (y) = 0.27584 0.43620
# Poissons Ratio (z) = 0.06113 0.36064
#
# Static dielectric constant tensor:
#      x y z
#    x 1.753930 0.000000 0.000000 
#    y 0.000000 1.754980 0.000000 
#    z 0.000000 0.000000 1.779860 
# 
# From -- ./inp_files/52884.got.cif
#   From: 2010.05.17/outbox.cif.g08.bks.cpg/sg68_27_cif.got.tgz:52884.got - 2010.06.03 18:57:09.
