data_PCOD9507761
_publ_section_title
;
Structure prediction by ZEFSAII (Michael W. Deem and Ramdas Pophale) SiO2 
 PCOD9507761
Probable space group: C C C A
;
_chemical_formula_sum "Si O2"
_cell_formula_units_Z 96
_cell_length_a 23.487222
_cell_length_b 14.160877
_cell_length_c 14.968185
_cell_angle_alpha 90.000000
_cell_angle_beta 90.000000
_cell_angle_gamma 90.000000
_cell_volume 4978.413269
_symmetry_space_group_name_H-M "C C C A"
_symmetry_group_IT_number 68
_space_group.IT_coordinate_system_code '2'
_symmetry_cell_setting 'orthorhombic'
loop_
_space_group_symop_operation_xyz
x,y,z
-x,1/2-y,z
x,1/2-y,1/2-z
-x,y,1/2-z
-x,-y,-z
x,1/2+y,-z
-x,1/2+y,1/2+z
x,-y,1/2+z
1/2+x,1/2+y,z
1/2-x,-y,z
1/2+x,-y,1/2-z
1/2-x,1/2+y,1/2-z
1/2-x,1/2-y,-z
1/2+x,y,-z
1/2-x,y,1/2+z
1/2+x,1/2-y,1/2+z
loop_
_atom_site_type_symbol
_atom_site_label
_atom_site_fract_x
_atom_site_fract_y
_atom_site_fract_z
Si Si1 0.082414 0.542003 0.926212
Si Si2 0.339322 0.683094 0.664724
Si Si3 0.128521 0.739127 0.971955
Si Si4 0.382702 0.013396 0.773760
Si Si5 0.293601 0.832068 0.324122
Si Si6 0.951764 0.603832 0.924856
O O1 0.124040 0.629311 0.946071
O O2 0.099368 0.503595 0.829042
O O3 0.018423 0.583789 0.928070
O O4 0.080715 0.462421 0.002515
O O5 0.345586 0.750000 0.750000
O O6 0.357931 0.738583 0.576400
O O7 0.375118 0.588259 0.680912
O O8 0.272973 0.654539 0.657926
O O9 0.174998 0.794245 0.912933
O O10 0.069609 0.791739 0.948016
O O11 0.325332 0.074963 0.787565
O O12 0.429584 0.073150 0.827713
O O13 0.300173 0.750000 0.250000
#
# Coordination Sequence:
#
# PCOD9507761 Si02
#       6
#    16  16  16  16  16  16
#     4  11  21  39  62  88 122 158 202 247 305 362
#     4  11  23  39  61  87 123 158 201 249 308 365
#     4  11  21  40  61  88 120 160 201 249 306 362
#     4  11  21  39  61  88 120 158 200 251 306 359
#     4  10  21  38  61  89 119 157 200 255 299 363
#     4  10  23  37  61  89 122 158 199 250 302 361
#
# _framework density 19.283252000000001
#
# number of rings (size 3 to 8) (size 9 to 14) (size 15 to 20)
#    0.000    1.333    3.333    3.000    0.000    0.000 
#    0.000    1.667    0.000    0.000    0.000    0.000 
#    0.000    0.000    0.000    0.000    0.000    0.000 
#
# Total GULP energy -268104.571968 kJ/mol
# GULP energy per Si atom -5585.511916 kJ/mol
# Density = 1.923936 g / cm^3
# Si number density = 19.283252 Si / 1000 Ang^3
#
#
#
# Elastic Constant Matrix: (Units=GPa)
#
#
# Indices 1 2 3 4 5 6 
#
# 1 24.4855 -1.8234 14.2899 0.0000 0.0000 0.0000
# 2 -1.8234 55.4800 4.1334 0.0000 0.0000 0.0000
# 3 14.2899 4.1334 103.8446 0.0000 0.0000 0.0000
# 4 0.0000 0.0000 0.0000 27.6942 0.0000 0.0000
# 5 0.0000 0.0000 0.0000 0.0000 9.7589 0.0000
# 6 0.0000 0.0000 0.0000 0.0000 0.0000 18.2488
#
#
#
# Elastic Compliance Matrix: (Units=1/GPa)
#
#
# Indices 1 2 3 4 5 6 
#
# 1 0.044612 0.001929 -0.006216 0.000000 0.000000 0.000000
# 2 0.001929 0.018162 -0.000988 0.000000 0.000000 0.000000
# 3 -0.006216 -0.000988 0.010524 0.000000 0.000000 0.000000
# 4 0.000000 0.000000 0.000000 0.036109 0.000000 0.000000
# 5 0.000000 0.000000 0.000000 0.000000 0.102470 0.000000
# 6 0.000000 0.000000 0.000000 0.000000 0.000000 0.054798
#
#
# Mechanical properties :
#
#
# Convention : Reuss Voigt Hill
#
# Bulk Modulus (GPa) = 15.93676 24.11222 20.02449
# Shear Modulus (GPa) = 16.77063 22.28773 19.52918
#
# Velocity S-wave (km/s) = 2.95227 3.40341 3.18583
# Velocity P-wave (km/s) = 4.46135 5.28920 4.89281
#
# Compressibility (1/GPa) = 0.06274799
#
# Stress axis : x y z
#
# Youngs Moduli (GPa) = 22.41567 55.06131 95.01683
#
# Poissons Ratio (x) = -0.10623 0.59060
# Poissons Ratio (y) = -0.04325 0.09391
# Poissons Ratio (z) = 0.13933 0.05442
#
# Static dielectric constant tensor:
#      x y z
#    x 1.659840 0.000000 0.000000 
#    y 0.000000 1.653430 0.000000 
#    z 0.000000 0.000000 1.645980 
# 
# From -- ./inp_files/22357.got.cif
#   From: 2010.05.17/outbox.cif.g08.bks.cpg/sg68_12_cif.got.tgz:22357.got - 2010.06.03 18:57:09.
