data_PCOD9507064
_publ_section_title
;
Structure prediction by ZEFSAII (Michael W. Deem and Ramdas Pophale) SiO2 
 PCOD9507064
Probable space group: C C C A
;
_chemical_formula_sum "Si O2"
_cell_formula_units_Z 88
_cell_length_a 30.265761
_cell_length_b 12.851024
_cell_length_c 9.345282
_cell_angle_alpha 90.000000
_cell_angle_beta 90.000000
_cell_angle_gamma 90.000000
_cell_volume 3634.810249
_symmetry_space_group_name_H-M "C C C A"
_symmetry_group_IT_number 68
_space_group.IT_coordinate_system_code '2'
_symmetry_cell_setting 'orthorhombic'
loop_
_space_group_symop_operation_xyz
x,y,z
-x,1/2-y,z
x,1/2-y,1/2-z
-x,y,1/2-z
-x,-y,-z
x,1/2+y,-z
-x,1/2+y,1/2+z
x,-y,1/2+z
1/2+x,1/2+y,z
1/2-x,-y,z
1/2+x,-y,1/2-z
1/2-x,1/2+y,1/2-z
1/2-x,1/2-y,-z
1/2+x,y,-z
1/2-x,y,1/2+z
1/2+x,1/2-y,1/2+z
loop_
_atom_site_type_symbol
_atom_site_label
_atom_site_fract_x
_atom_site_fract_y
_atom_site_fract_z
Si Si1 0.857130 0.422399 0.164197
Si Si2 0.181058 0.750000 0.250000
Si Si3 0.298931 0.467345 0.115635
Si Si4 0.563554 0.546811 0.580548
Si Si5 0.391079 0.239251 0.011485
Si Si6 0.023092 0.349788 0.577991
O O1 0.822861 0.443790 0.290068
O O2 0.898399 0.501386 0.180855
O O3 0.830204 0.450163 0.019947
O O4 0.877358 0.311073 0.120817
O O5 0.204423 0.642196 0.203662
O O6 0.150405 0.777398 0.114371
O O7 0.250000 0.500000 0.072484
O O8 0.587781 0.627789 0.475336
O O9 0.523927 0.612065 0.651382
O O10 0.539694 0.450017 0.507722
O O11 0.428160 0.301011 0.104975
O O12 0.000000 0.250000 0.497124
#
# Coordination Sequence:
#
# PCOD9507064 Si02
#       6
#    16   8  16  16  16  16
#     4  10  21  38  63  87 125 162 204 265 321 385
#     4  10  20  38  63  82 124 160 206 267 318 384
#     4  11  23  43  63  91 120 159 210 269 328 394
#     4   9  15  31  53  80 125 163 200 253 311 369
#     4   9  17  32  56  85 117 162 206 252 313 372
#     4   8  15  26  51  84 119 162 206 253 295 373
#
# _framework density 24.210343999999999
#
# number of rings (size 3 to 8) (size 9 to 14) (size 15 to 20)
#    0.000    2.545    1.818    0.545    0.000    0.000 
#    3.273    6.818    4.000    3.273    0.000   10.182 
#    0.000    0.000    0.000    0.000    0.000    0.000 
#
# Total GULP energy -245085.358509 kJ/mol
# GULP energy per Si atom -5570.121784 kJ/mol
# Density = 2.415524 g / cm^3
# Si number density = 24.210344 Si / 1000 Ang^3
#
#
#
# Elastic Constant Matrix: (Units=GPa)
#
#
# Indices 1 2 3 4 5 6 
#
# 1 122.3176 41.7887 20.3985 0.0000 0.0000 0.0000
# 2 41.7887 140.8986 34.0944 0.0000 0.0000 0.0000
# 3 20.3985 34.0944 77.2110 0.0000 0.0000 0.0000
# 4 0.0000 0.0000 0.0000 -51.6119 0.0000 0.0000
# 5 0.0000 0.0000 0.0000 0.0000 13.9342 0.0000
# 6 0.0000 0.0000 0.0000 0.0000 0.0000 70.5988
#
#
#
# Elastic Compliance Matrix: (Units=1/GPa)
#
#
# Indices 1 2 3 4 5 6 
#
# 1 0.009226 -0.002403 -0.001376 0.000000 0.000000 0.000000
# 2 -0.002403 0.008572 -0.003150 0.000000 0.000000 0.000000
# 3 -0.001376 -0.003150 0.014706 0.000000 0.000000 0.000000
# 4 0.000000 0.000000 0.000000 -0.019375 0.000000 0.000000
# 5 0.000000 0.000000 0.000000 0.000000 0.071766 0.000000
# 6 0.000000 0.000000 0.000000 0.000000 0.000000 0.014165
#
#
# Mechanical properties :
#
#
# Convention : Reuss Voigt Hill
#
# Bulk Modulus (GPa) = 53.63419 59.22114 56.42766
# Shear Modulus (GPa) = 41.96929 22.86059 32.41494
#
# Velocity S-wave (km/s) = 4.16808 3.07620 3.66305
# Velocity P-wave (km/s) = 6.73538 6.09356 6.42250
#
# Compressibility (1/GPa) = 0.01864482
#
# Stress axis : x y z
#
# Youngs Moduli (GPa) = 108.38919 116.65315 67.99830
#
# Poissons Ratio (x) = 0.28035 0.09358
# Poissons Ratio (y) = 0.26049 0.21422
# Poissons Ratio (z) = 0.14917 0.36751
#
# Static dielectric constant tensor:
#      x y z
#    x 1.881180 0.000000 0.000000 
#    y 0.000000 1.959180 0.000000 
#    z 0.000000 0.000000 1.976550 
# 
# From -- ./inp_files/17098.got.cif
#   From: 2010.05.17/outbox.cif.g08.bks.cpg/sg68_9_cif.got.tgz:17098.got - 2010.06.03 18:57:09.
