data_PCOD9507531
_publ_section_title
;
Structure prediction by ZEFSAII (Michael W. Deem and Ramdas Pophale) SiO2 
 PCOD9507531
Probable space group: C C C A
;
_chemical_formula_sum "Si O2"
_cell_formula_units_Z 52
_cell_length_a 5.155619
_cell_length_b 14.105421
_cell_length_c 28.661123
_cell_angle_alpha 90.000000
_cell_angle_beta 90.000000
_cell_angle_gamma 90.000000
_cell_volume 2084.299246
_symmetry_space_group_name_H-M "C C C A"
_symmetry_group_IT_number 68
_space_group.IT_coordinate_system_code '2'
_symmetry_cell_setting 'orthorhombic'
loop_
_space_group_symop_operation_xyz
x,y,z
-x,1/2-y,z
x,1/2-y,1/2-z
-x,y,1/2-z
-x,-y,-z
x,1/2+y,-z
-x,1/2+y,1/2+z
x,-y,1/2+z
1/2+x,1/2+y,z
1/2-x,-y,z
1/2+x,-y,1/2-z
1/2-x,1/2+y,1/2-z
1/2-x,1/2-y,-z
1/2+x,y,-z
1/2-x,y,1/2+z
1/2+x,1/2-y,1/2+z
loop_
_atom_site_type_symbol
_atom_site_label
_atom_site_fract_x
_atom_site_fract_y
_atom_site_fract_z
Si Si1 0.419337 0.353761 0.518393
Si Si2 0.000000 0.750000 0.250000
Si Si3 0.272022 0.112769 0.380356
Si Si4 0.772165 0.886260 0.822383
O O1 0.500000 0.250000 0.499958
O O2 0.700568 0.400363 0.513554
O O3 0.315808 0.345550 0.570632
O O4 0.178529 0.820110 0.219368
O O5 0.561939 0.133806 0.363424
O O6 0.060421 0.135631 0.340526
O O7 0.250000 0.000000 0.387048
O O8 0.750000 0.000000 0.811628
#
# Coordination Sequence:
#
# PCOD9507531 Si02
#       4
#    16   4  16  16
#     4  10  21  35  57  92 129 171 221 276 324 392
#     4  12  28  46  80 104 128 198 224 286 380 420
#     4  10  22  42  64  91 135 177 216 282 341 397
#     4  10  25  44  66 102 136 171 230 287 340 421
#
# _framework density 24.948435
#
# number of rings (size 3 to 8) (size 9 to 14) (size 15 to 20)
#    0.000    1.846    0.000    1.846    4.308    7.385 
#    0.000    0.000    0.000    0.000    0.000    0.000 
#    0.000    0.000    0.000    0.000    0.000    0.000 
#
# Total GULP energy -145529.960471 kJ/mol
# GULP energy per Si atom -5597.306172 kJ/mol
# Density = 2.489165 g / cm^3
# Si number density = 24.948435 Si / 1000 Ang^3
#
#
#
# Elastic Constant Matrix: (Units=GPa)
#
#
# Indices 1 2 3 4 5 6 
#
# 1 146.8426 22.9134 29.7320 0.0000 0.0000 0.0000
# 2 22.9134 119.1561 46.6493 0.0000 0.0000 0.0000
# 3 29.7320 46.6493 120.4852 0.0000 0.0000 0.0000
# 4 0.0000 0.0000 0.0000 44.6565 0.0000 0.0000
# 5 0.0000 0.0000 0.0000 0.0000 31.5622 0.0000
# 6 0.0000 0.0000 0.0000 0.0000 0.0000 15.9141
#
#
#
# Elastic Compliance Matrix: (Units=1/GPa)
#
#
# Indices 1 2 3 4 5 6 
#
# 1 0.007235 -0.000816 -0.001469 0.000000 0.000000 0.000000
# 2 -0.000816 0.009984 -0.003664 0.000000 0.000000 0.000000
# 3 -0.001469 -0.003664 0.010081 0.000000 0.000000 0.000000
# 4 0.000000 0.000000 0.000000 0.022393 0.000000 0.000000
# 5 0.000000 0.000000 0.000000 0.000000 0.031684 0.000000
# 6 0.000000 0.000000 0.000000 0.000000 0.000000 0.062837
#
#
# Mechanical properties :
#
#
# Convention : Reuss Voigt Hill
#
# Bulk Modulus (GPa) = 64.93245 65.00816 64.97030
# Shear Modulus (GPa) = 31.00847 37.57250 34.29048
#
# Velocity S-wave (km/s) = 3.52931 3.88494 3.71139
# Velocity P-wave (km/s) = 6.53385 6.79980 6.66815
#
# Compressibility (1/GPa) = 0.01540062
#
# Stress axis : x y z
#
# Youngs Moduli (GPa) = 138.21978 100.16263 99.19596
#
# Poissons Ratio (x) = 0.08173 0.14576
# Poissons Ratio (y) = 0.11278 0.36347
# Poissons Ratio (z) = 0.20310 0.36701
#
# Static dielectric constant tensor:
#      x y z
#    x 2.132200 0.000000 0.000000 
#    y 0.000000 2.049700 0.000000 
#    z 0.000000 0.000000 1.923860 
# 
# From -- ./inp_files/47921.got.cif
#   From: 2010.05.17/outbox.cif.g08.bks.cpg/sg68_24_cif.got.tgz:47921.got - 2010.06.03 18:57:09.
