data_PCOD9507716
_publ_section_title
;
Structure prediction by ZEFSAII (Michael W. Deem and Ramdas Pophale) SiO2 
 PCOD9507716
Probable space group: C C C A
;
_chemical_formula_sum "Si O2"
_cell_formula_units_Z 104
_cell_length_a 9.183997
_cell_length_b 24.914466
_cell_length_c 23.069161
_cell_angle_alpha 90.000000
_cell_angle_beta 90.000000
_cell_angle_gamma 90.000000
_cell_volume 5278.555794
_symmetry_space_group_name_H-M "C C C A"
_symmetry_group_IT_number 68
_space_group.IT_coordinate_system_code '2'
_symmetry_cell_setting 'orthorhombic'
loop_
_space_group_symop_operation_xyz
x,y,z
-x,1/2-y,z
x,1/2-y,1/2-z
-x,y,1/2-z
-x,-y,-z
x,1/2+y,-z
-x,1/2+y,1/2+z
x,-y,1/2+z
1/2+x,1/2+y,z
1/2-x,-y,z
1/2+x,-y,1/2-z
1/2-x,1/2+y,1/2-z
1/2-x,1/2-y,-z
1/2+x,y,-z
1/2-x,y,1/2+z
1/2+x,1/2-y,1/2+z
loop_
_atom_site_type_symbol
_atom_site_label
_atom_site_fract_x
_atom_site_fract_y
_atom_site_fract_z
Si Si1 0.000000 0.750000 0.389291
Si Si2 0.003818 0.139422 0.430923
Si Si3 0.582447 0.365723 0.804917
Si Si4 0.923199 0.486439 0.438618
Si Si5 0.793751 0.807739 0.474810
Si Si6 0.423458 0.506778 0.191071
Si Si7 0.350440 0.198246 0.284024
O O1 0.087572 0.706510 0.426181
O O2 0.110673 0.780555 0.347460
O O3 0.845198 0.159257 0.451877
O O4 0.032318 0.158931 0.365550
O O5 0.033857 0.075914 0.431677
O O6 0.124016 0.162349 0.474031
O O7 0.500000 0.342344 0.750000
O O8 0.551204 0.429005 0.808227
O O9 0.749290 0.352652 0.791599
O O10 0.750000 0.500000 0.444069
O O11 0.966752 0.511943 0.374888
O O12 0.000000 0.500000 0.500000
O O13 0.750000 0.750000 0.500000
O O14 0.500000 0.484862 0.250000
O O15 0.250000 0.500000 0.196062
O O16 0.285263 0.250000 0.250000
O O17 0.500000 0.186091 0.250000
#
# Coordination Sequence:
#
# PCOD9507716 Si02
#       7
#     8  16  16  16  16  16  16
#     4  10  21  38  56  80 123 158 202 254 298 360
#     4  11  24  38  63  89 119 164 206 248 316 371
#     4  10  22  39  59  87 119 153 201 248 298 361
#     4  10  21  41  63  88 123 155 202 260 310 367
#     4  12  22  39  57  85 122 160 205 253 304 370
#     4   9  20  39  60  87 119 152 194 247 301 366
#     4   9  21  38  57  81 117 157 201 246 300 355
#
# _framework density 19.702359999999999
#
# number of rings (size 3 to 8) (size 9 to 14) (size 15 to 20)
#    0.000    2.000    1.538    1.846    4.308    1.538 
#    0.000    1.538    0.000    0.000    0.000    0.000 
#    0.000    0.000    0.000    0.000    0.000    0.000 
#
# Total GULP energy -289673.867838 kJ/mol
# GULP energy per Si atom -5570.651305 kJ/mol
# Density = 1.965752 g / cm^3
# Si number density = 19.702360 Si / 1000 Ang^3
#
#
#
# Elastic Constant Matrix: (Units=GPa)
#
#
# Indices 1 2 3 4 5 6 
#
# 1 81.2115 19.2511 67.1382 0.0000 0.0000 0.0000
# 2 19.2511 31.0429 28.1073 0.0000 0.0000 0.0000
# 3 67.1382 28.1073 203.8880 0.0000 0.0000 0.0000
# 4 0.0000 0.0000 0.0000 49.1177 0.0000 0.0000
# 5 0.0000 0.0000 0.0000 0.0000 16.8007 0.0000
# 6 0.0000 0.0000 0.0000 0.0000 0.0000 43.1650
#
#
#
# Elastic Compliance Matrix: (Units=1/GPa)
#
#
# Indices 1 2 3 4 5 6 
#
# 1 0.018042 -0.006638 -0.005026 0.000000 0.000000 0.000000
# 2 -0.006638 0.039250 -0.003225 0.000000 0.000000 0.000000
# 3 -0.005026 -0.003225 0.007004 0.000000 0.000000 0.000000
# 4 0.000000 0.000000 0.000000 0.020359 0.000000 0.000000
# 5 0.000000 0.000000 0.000000 0.000000 0.059521 0.000000
# 6 0.000000 0.000000 0.000000 0.000000 0.000000 0.023167
#
#
# Mechanical properties :
#
#
# Convention : Reuss Voigt Hill
#
# Bulk Modulus (GPa) = 28.97014 60.57063 44.77038
# Shear Modulus (GPa) = 23.96608 35.25973 29.61291
#
# Velocity S-wave (km/s) = 3.49149 4.23498 3.88108
# Velocity P-wave (km/s) = 5.56685 7.39750 6.54648
#
# Compressibility (1/GPa) = 0.03451831
#
# Stress axis : x y z
#
# Youngs Moduli (GPa) = 55.42596 25.47765 142.77051
#
# Poissons Ratio (x) = 0.16912 0.71756
# Poissons Ratio (y) = 0.36792 0.46044
# Poissons Ratio (z) = 0.27857 0.08217
#
# Static dielectric constant tensor:
#      x y z
#    x 1.690250 0.000000 0.000000 
#    y 0.000000 1.778950 0.000000 
#    z 0.000000 0.000000 1.754980 
# 
# From -- ./inp_files/36573.got.cif
#   From: 2010.05.17/outbox.cif.g08.bks.cpg/sg68_19_cif.got.tgz:36573.got - 2010.06.03 18:57:09.
