data_PCOD9507171
_publ_section_title
;
Structure prediction by ZEFSAII (Michael W. Deem and Ramdas Pophale) SiO2 
 PCOD9507171
Probable space group: C C C A
;
_chemical_formula_sum "Si O2"
_cell_formula_units_Z 44
_cell_length_a 5.200694
_cell_length_b 28.504744
_cell_length_c 15.646872
_cell_angle_alpha 90.000000
_cell_angle_beta 90.000000
_cell_angle_gamma 90.000000
_cell_volume 2319.561951
_symmetry_space_group_name_H-M "C C C A"
_symmetry_group_IT_number 68
_space_group.IT_coordinate_system_code '2'
_symmetry_cell_setting 'orthorhombic'
loop_
_space_group_symop_operation_xyz
x,y,z
-x,1/2-y,z
x,1/2-y,1/2-z
-x,y,1/2-z
-x,-y,-z
x,1/2+y,-z
-x,1/2+y,1/2+z
x,-y,1/2+z
1/2+x,1/2+y,z
1/2-x,-y,z
1/2+x,-y,1/2-z
1/2-x,1/2+y,1/2-z
1/2-x,1/2-y,-z
1/2+x,y,-z
1/2-x,y,1/2+z
1/2+x,1/2-y,1/2+z
loop_
_atom_site_type_symbol
_atom_site_label
_atom_site_fract_x
_atom_site_fract_y
_atom_site_fract_z
Si Si1 0.741457 0.341000 0.303729
Si Si2 0.500000 0.750000 0.750000
Si Si3 0.750000 0.500000 0.809372
Si Si4 0.199407 0.084639 0.442689
O O1 0.500000 0.361766 0.250000
O O2 0.671658 0.285694 0.305569
O O3 0.770085 0.366005 0.393806
O O4 0.000000 0.347831 0.250000
O O5 0.500000 0.503032 0.750000
O O6 0.771386 0.544987 0.870678
O O7 0.425365 0.079901 0.511755
#
# Coordination Sequence:
#
# PCOD9507171 Si02
#       4
#    16   4   8  16
#     4  10  20  39  63  88 116 165 208 250 297 362
#     4   8  22  36  70  84 118 156 224 256 286 354
#     4  12  24  42  66  92 120 168 214 242 292 374
#     4  12  24  40  61  94 131 160 195 259 316 358
#
# _framework density 18.969100999999998
#
# number of rings (size 3 to 8) (size 9 to 14) (size 15 to 20)
#    1.091    0.000    0.000    8.182    0.000    0.000 
#    0.000    1.818    0.000    0.000    0.000    0.000 
#    0.000    0.000    0.000    0.000    0.000    0.000 
#
# Total GULP energy -122840.386933 kJ/mol
# GULP energy per Si atom -5583.653952 kJ/mol
# Density = 1.892593 g / cm^3
# Si number density = 18.969101 Si / 1000 Ang^3
#
#
#
# Elastic Constant Matrix: (Units=GPa)
#
#
# Indices 1 2 3 4 5 6 
#
# 1 94.7451 -4.3417 3.6320 0.0000 0.0000 0.0000
# 2 -4.3417 103.5123 34.1574 0.0000 0.0000 0.0000
# 3 3.6320 34.1574 62.3884 0.0000 0.0000 0.0000
# 4 0.0000 0.0000 0.0000 17.6469 0.0000 0.0000
# 5 0.0000 0.0000 0.0000 0.0000 90.7774 0.0000
# 6 0.0000 0.0000 0.0000 0.0000 0.0000 -0.0915
#
#
#
# Elastic Compliance Matrix: (Units=1/GPa)
#
#
# Indices 1 2 3 4 5 6 
#
# 1 0.010631 0.000794 -0.001053 0.000000 0.000000 0.000000
# 2 0.000794 0.011850 -0.006534 0.000000 0.000000 0.000000
# 3 -0.001053 -0.006534 0.019667 0.000000 0.000000 0.000000
# 4 0.000000 0.000000 0.000000 0.056667 0.000000 0.000000
# 5 0.000000 0.000000 0.000000 0.000000 0.011016 0.000000
# 6 0.000000 0.000000 0.000000 0.000000 0.000000-10.923337
#
#
# Mechanical properties :
#
#
# Convention : Reuss Voigt Hill
#
# Bulk Modulus (GPa) = 35.01285 36.39348 35.70317
# Shear Modulus (GPa) = -0.46337 36.81308 18.17485
#
# Velocity S-wave (km/s) = -0.49478 4.41010 3.09872
# Velocity P-wave (km/s) = 4.26280 6.72007 5.62720
#
# Compressibility (1/GPa) = 0.02856094
#
# Stress axis : x y z
#
# Youngs Moduli (GPa) = 94.06122 84.38741 50.84572
#
# Poissons Ratio (x) = -0.06696 0.05356
# Poissons Ratio (y) = -0.07464 0.33223
# Poissons Ratio (z) = 0.09908 0.55139
#
# Static dielectric constant tensor:
#      x y z
#    x 1.647030 0.000000 0.000000 
#    y 0.000000 1.690050 0.000000 
#    z 0.000000 0.000000 1.611410 
# 
# From -- ./inp_files/18160.got.cif
#   From: 2010.05.17/outbox.cif.g08.bks.cpg/sg68_10_cif.got.tgz:18160.got - 2010.06.03 18:57:09.
