data_PCOD9507367
_publ_section_title
;
Structure prediction by ZEFSAII (Michael W. Deem and Ramdas Pophale) SiO2 
 PCOD9507367
Probable space group: C C C A
;
_chemical_formula_sum "Si O2"
_cell_formula_units_Z 80
_cell_length_a 28.315275
_cell_length_b 15.036957
_cell_length_c 8.630461
_cell_angle_alpha 90.000000
_cell_angle_beta 90.000000
_cell_angle_gamma 90.000000
_cell_volume 3674.639474
_symmetry_space_group_name_H-M "C C C A"
_symmetry_group_IT_number 68
_space_group.IT_coordinate_system_code '2'
_symmetry_cell_setting 'orthorhombic'
loop_
_space_group_symop_operation_xyz
x,y,z
-x,1/2-y,z
x,1/2-y,1/2-z
-x,y,1/2-z
-x,-y,-z
x,1/2+y,-z
-x,1/2+y,1/2+z
x,-y,1/2+z
1/2+x,1/2+y,z
1/2-x,-y,z
1/2+x,-y,1/2-z
1/2-x,1/2+y,1/2-z
1/2-x,1/2-y,-z
1/2+x,y,-z
1/2-x,y,1/2+z
1/2+x,1/2-y,1/2+z
loop_
_atom_site_type_symbol
_atom_site_label
_atom_site_fract_x
_atom_site_fract_y
_atom_site_fract_z
Si Si1 0.557090 0.094083 0.541868
Si Si2 0.275292 0.312950 0.374638
Si Si3 0.099506 0.750000 0.750000
Si Si4 0.176051 0.119215 0.149978
Si Si5 0.500000 0.454040 0.250000
Si Si6 0.840370 0.461053 0.468151
O O1 0.569310 0.182593 0.643212
O O2 0.523964 0.101883 0.389822
O O3 0.606303 0.054788 0.478868
O O4 0.535220 0.021242 0.659162
O O5 0.300570 0.250000 0.250000
O O6 0.250000 0.250000 0.500000
O O7 0.228441 0.354752 0.299022
O O8 0.307581 0.387529 0.450332
O O9 0.137173 0.696448 0.857842
O O10 0.158203 0.056185 0.286288
O O11 0.178332 0.059301 0.999171
#
# Coordination Sequence:
#
# PCOD9507367 Si02
#       6
#    16  16   8  16   8  16
#     4  10  21  43  71 102 129 181 214 290 349 414
#     4  12  23  41  63  93 135 175 218 276 325 386
#     4  10  20  41  70  96 140 174 224 277 336 398
#     4  11  23  42  63  96 133 181 225 270 323 399
#     4  10  22  43  78  99 136 164 232 284 359 429
#     4  11  24  40  66  95 129 178 228 265 335 402
#
# _framework density 21.770842999999999
#
# number of rings (size 3 to 8) (size 9 to 14) (size 15 to 20)
#    0.000    1.200    3.000    4.200    2.800    2.000 
#    0.000    0.000    4.400    4.800    0.000    0.000 
#    0.000    0.000    0.000    0.000    0.000    0.000 
#
# Total GULP energy -223340.453549 kJ/mol
# GULP energy per Si atom -5583.511339 kJ/mol
# Density = 2.172129 g / cm^3
# Si number density = 21.770843 Si / 1000 Ang^3
#
#
#
# Elastic Constant Matrix: (Units=GPa)
#
#
# Indices 1 2 3 4 5 6 
#
# 1 110.0477 40.0785 33.4536 0.0000 0.0000 0.0000
# 2 40.0785 84.8875 22.9888 0.0000 0.0000 0.0000
# 3 33.4536 22.9888 63.8366 0.0000 0.0000 0.0000
# 4 0.0000 0.0000 0.0000 28.6536 0.0000 0.0000
# 5 0.0000 0.0000 0.0000 0.0000 39.8867 0.0000
# 6 0.0000 0.0000 0.0000 0.0000 0.0000 31.2416
#
#
#
# Elastic Compliance Matrix: (Units=1/GPa)
#
#
# Indices 1 2 3 4 5 6 
#
# 1 0.012157 -0.004448 -0.004769 0.000000 0.000000 0.000000
# 2 -0.004448 0.014681 -0.002956 0.000000 0.000000 0.000000
# 3 -0.004769 -0.002956 0.019229 0.000000 0.000000 0.000000
# 4 0.000000 0.000000 0.000000 0.034900 0.000000 0.000000
# 5 0.000000 0.000000 0.000000 0.000000 0.025071 0.000000
# 6 0.000000 0.000000 0.000000 0.000000 0.000000 0.032009
#
#
# Mechanical properties :
#
#
# Convention : Reuss Voigt Hill
#
# Bulk Modulus (GPa) = 46.03944 50.20151 48.12048
# Shear Modulus (GPa) = 29.47572 30.77310 30.12441
#
# Velocity S-wave (km/s) = 3.68354 3.76373 3.72385
# Velocity P-wave (km/s) = 6.26773 6.48049 6.37500
#
# Compressibility (1/GPa) = 0.02172051
#
# Stress axis : x y z
#
# Youngs Moduli (GPa) = 82.25968 68.11568 52.00595
#
# Poissons Ratio (x) = 0.30299 0.24801
# Poissons Ratio (y) = 0.36590 0.15372
# Poissons Ratio (z) = 0.39228 0.20134
#
# Static dielectric constant tensor:
#      x y z
#    x 2.282930 0.000000 0.000000 
#    y 0.000000 2.806570 0.000000 
#    z 0.000000 0.000000 1.852270 
# 
# From -- ./inp_files/8798.got.cif
#   From: 2010.05.17/outbox.cif.g08.bks.cpg/sg68_5_cif.got.tgz:8798.got - 2010.06.03 18:57:09.
