data_PCOD9507242
_publ_section_title
;
Structure prediction by ZEFSAII (Michael W. Deem and Ramdas Pophale) SiO2 
 PCOD9507242
Probable space group: C C C A
;
_chemical_formula_sum "Si O2"
_cell_formula_units_Z 88
_cell_length_a 16.232355
_cell_length_b 8.860007
_cell_length_c 31.245725
_cell_angle_alpha 90.000000
_cell_angle_beta 90.000000
_cell_angle_gamma 90.000000
_cell_volume 4493.722016
_symmetry_space_group_name_H-M "C C C A"
_symmetry_group_IT_number 68
_space_group.IT_coordinate_system_code '2'
_symmetry_cell_setting 'orthorhombic'
loop_
_space_group_symop_operation_xyz
x,y,z
-x,1/2-y,z
x,1/2-y,1/2-z
-x,y,1/2-z
-x,-y,-z
x,1/2+y,-z
-x,1/2+y,1/2+z
x,-y,1/2+z
1/2+x,1/2+y,z
1/2-x,-y,z
1/2+x,-y,1/2-z
1/2-x,1/2+y,1/2-z
1/2-x,1/2-y,-z
1/2+x,y,-z
1/2-x,y,1/2+z
1/2+x,1/2-y,1/2+z
loop_
_atom_site_type_symbol
_atom_site_label
_atom_site_fract_x
_atom_site_fract_y
_atom_site_fract_z
Si Si1 0.750000 0.000000 0.256323
Si Si2 0.334710 0.403937 0.457706
Si Si3 0.902963 0.771661 0.123994
Si Si4 0.095194 0.217608 0.033301
Si Si5 0.770007 0.233727 0.687414
Si Si6 0.673285 0.087722 0.607509
O O1 0.721593 0.867754 0.288546
O O2 0.796513 0.894290 0.221755
O O3 0.250000 0.500000 0.454829
O O4 0.358303 0.312259 0.415388
O O5 0.398828 0.538475 0.464652
O O6 0.346793 0.288138 0.496578
O O7 0.854045 0.711447 0.165422
O O8 0.000000 0.750000 0.123783
O O9 0.885728 0.950820 0.120777
O O10 0.128153 0.294848 0.076891
O O11 0.000000 0.250000 0.024844
O O12 0.714173 0.165495 0.649233
O O13 0.750000 0.000000 0.584819
#
# Coordination Sequence:
#
# PCOD9507242 Si02
#       6
#     8  16  16  16  16  16
#     4  10  20  40  66  96 114 156 202 250 296 374
#     4  12  24  39  61  89 119 169 215 252 297 367
#     4  11  22  39  61  93 128 158 199 255 311 362
#     4  12  24  39  59  87 125 164 203 260 311 353
#     4  10  21  39  68  91 120 159 202 247 301 369
#     4  10  20  40  60  88 119 160 203 245 295 365
#
# _framework density 19.582875000000001
#
# number of rings (size 3 to 8) (size 9 to 14) (size 15 to 20)
#    0.000    1.091    2.727    6.545    3.818    0.000 
#    0.000    1.818    0.000    0.000    0.000    0.000 
#    0.000    0.000    0.000    0.000    0.000    0.000 
#
# Total GULP energy -245201.828358 kJ/mol
# GULP energy per Si atom -5572.768826 kJ/mol
# Density = 1.953830 g / cm^3
# Si number density = 19.582875 Si / 1000 Ang^3
#
#
#
# Elastic Constant Matrix: (Units=GPa)
#
#
# Indices 1 2 3 4 5 6 
#
# 1 96.5514 10.5959 36.6121 0.0000 0.0000 0.0000
# 2 10.5959 93.1703 48.2231 0.0000 0.0000 0.0000
# 3 36.6121 48.2231 117.1246 0.0000 0.0000 0.0000
# 4 0.0000 0.0000 0.0000 47.2620 0.0000 0.0000
# 5 0.0000 0.0000 0.0000 0.0000 -10.0295 0.0000
# 6 0.0000 0.0000 0.0000 0.0000 0.0000 28.2116
#
#
#
# Elastic Compliance Matrix: (Units=1/GPa)
#
#
# Indices 1 2 3 4 5 6 
#
# 1 0.011788 0.000720 -0.003981 0.000000 0.000000 0.000000
# 2 0.000720 0.013684 -0.005859 0.000000 0.000000 0.000000
# 3 -0.003981 -0.005859 0.012195 0.000000 0.000000 0.000000
# 4 0.000000 0.000000 0.000000 0.021159 0.000000 0.000000
# 5 0.000000 0.000000 0.000000 0.000000 -0.099706 0.000000
# 6 0.000000 0.000000 0.000000 0.000000 0.000000 0.035446
#
#
# Mechanical properties :
#
#
# Convention : Reuss Voigt Hill
#
# Bulk Modulus (GPa) = 51.47786 55.30094 53.38940
# Shear Modulus (GPa) = 259.32355 27.18319 143.25337
#
# Velocity S-wave (km/s) = 11.52003 3.72978 8.56219
# Velocity P-wave (km/s) = 14.25806 6.84464 11.18350
#
# Compressibility (1/GPa) = 0.01942583
#
# Stress axis : x y z
#
# Youngs Moduli (GPa) = 84.83332 73.08003 82.00298
#
# Poissons Ratio (x) = -0.05262 0.32647
# Poissons Ratio (y) = -0.06108 0.48045
# Poissons Ratio (z) = 0.33774 0.42817
#
# Static dielectric constant tensor:
#      x y z
#    x 1.705120 0.000000 0.000000 
#    y 0.000000 1.707010 0.000000 
#    z 0.000000 0.000000 1.723760 
# 
# From -- ./inp_files/55576.got.cif
#   From: 2010.05.17/outbox.cif.g08.bks.cpg/sg68_28_cif.got.tgz:55576.got - 2010.06.03 18:57:09.
