data_PCOD9507774
_publ_section_title
;
Structure prediction by ZEFSAII (Michael W. Deem and Ramdas Pophale) SiO2 
 PCOD9507774
Probable space group: C C C A
;
_chemical_formula_sum "Si O2"
_cell_formula_units_Z 104
_cell_length_a 25.112783
_cell_length_b 20.913486
_cell_length_c 8.555049
_cell_angle_alpha 90.000000
_cell_angle_beta 90.000000
_cell_angle_gamma 90.000000
_cell_volume 4493.076109
_symmetry_space_group_name_H-M "C C C A"
_symmetry_group_IT_number 68
_space_group.IT_coordinate_system_code '2'
_symmetry_cell_setting 'orthorhombic'
loop_
_space_group_symop_operation_xyz
x,y,z
-x,1/2-y,z
x,1/2-y,1/2-z
-x,y,1/2-z
-x,-y,-z
x,1/2+y,-z
-x,1/2+y,1/2+z
x,-y,1/2+z
1/2+x,1/2+y,z
1/2-x,-y,z
1/2+x,-y,1/2-z
1/2-x,1/2+y,1/2-z
1/2-x,1/2-y,-z
1/2+x,y,-z
1/2-x,y,1/2+z
1/2+x,1/2-y,1/2+z
loop_
_atom_site_type_symbol
_atom_site_label
_atom_site_fract_x
_atom_site_fract_y
_atom_site_fract_z
Si Si1 0.188081 0.112675 0.411313
Si Si2 0.077135 0.938330 0.842738
Si Si3 0.500000 0.659607 0.250000
Si Si4 0.329601 0.248662 0.069231
Si Si5 0.088417 0.072538 0.966051
Si Si6 0.948513 0.289991 0.960021
Si Si7 0.298404 0.111384 0.540863
O O1 0.130874 0.079825 0.435081
O O2 0.184919 0.185154 0.475065
O O3 0.241013 0.085723 0.491097
O O4 0.196002 0.107236 0.226202
O O5 0.032181 0.885272 0.870984
O O6 0.082833 0.933309 0.654396
O O7 0.064071 0.010284 0.887803
O O8 0.541232 0.698153 0.144816
O O9 0.312098 0.250000 0.250000
O O10 0.393834 0.252995 0.065564
O O11 0.306205 0.313207 0.995578
O O12 0.062845 0.138010 0.901152
O O13 0.152634 0.078250 0.948758
O O14 0.000000 0.250000 0.909829
#
# Coordination Sequence:
#
# PCOD9507774 Si02
#       7
#    16  16   8  16  16  16  16
#     4  11  22  39  63  90 122 167 210 258 322 385
#     4  10  22  39  62  90 124 162 209 254 313 383
#     4  10  21  40  66  94 119 166 214 262 320 370
#     4  11  23  39  59  89 126 162 208 265 325 385
#     4   9  22  41  60  89 121 162 208 257 315 377
#     4  10  21  38  62  88 122 160 208 262 317 379
#     4  10  22  39  60  88 123 162 210 257 315 384
#
# _framework density 23.146726999999998
#
# number of rings (size 3 to 8) (size 9 to 14) (size 15 to 20)
#    0.000    1.846    0.000    3.923    0.000   10.769 
#    0.000    7.692    0.000    0.000    0.000    0.000 
#    0.000    0.000    0.000    0.000    0.000    0.000 
#
# Total GULP energy -290608.561433 kJ/mol
# GULP energy per Si atom -5588.626181 kJ/mol
# Density = 2.309404 g / cm^3
# Si number density = 23.146727 Si / 1000 Ang^3
#
#
#
# Elastic Constant Matrix: (Units=GPa)
#
#
# Indices 1 2 3 4 5 6 
#
# 1 116.2559 6.7613 18.8979 0.0000 0.0000 0.0000
# 2 6.7613 50.0875 21.4817 0.0000 0.0000 0.0000
# 3 18.8979 21.4817 40.5252 0.0000 0.0000 0.0000
# 4 0.0000 0.0000 0.0000 32.2106 0.0000 0.0000
# 5 0.0000 0.0000 0.0000 0.0000 27.2019 0.0000
# 6 0.0000 0.0000 0.0000 0.0000 0.0000 -14.8258
#
#
#
# Elastic Compliance Matrix: (Units=1/GPa)
#
#
# Indices 1 2 3 4 5 6 
#
# 1 0.009331 0.000785 -0.004767 0.000000 0.000000 0.000000
# 2 0.000785 0.025906 -0.014098 0.000000 0.000000 0.000000
# 3 -0.004767 -0.014098 0.034372 0.000000 0.000000 0.000000
# 4 0.000000 0.000000 0.000000 0.031046 0.000000 0.000000
# 5 0.000000 0.000000 0.000000 0.000000 0.036762 0.000000
# 6 0.000000 0.000000 0.000000 0.000000 0.000000 -0.067450
#
#
# Mechanical properties :
#
#
# Convention : Reuss Voigt Hill
#
# Bulk Modulus (GPa) = 29.89725 33.46114 31.67920
# Shear Modulus (GPa) = 42.63408 19.56587 31.09997
#
# Velocity S-wave (km/s) = 4.29640 2.91055 3.66949
# Velocity P-wave (km/s) = 6.12834 5.07766 5.62757
#
# Compressibility (1/GPa) = 0.03344789
#
# Stress axis : x y z
#
# Youngs Moduli (GPa) = 107.16940 38.60173 29.09310
#
# Poissons Ratio (x) = -0.03031 0.13870
# Poissons Ratio (y) = -0.08414 0.41016
# Poissons Ratio (z) = 0.51093 0.54421
#
# Static dielectric constant tensor:
#      x y z
#    x 1.945400 0.000000 0.000000 
#    y 0.000000 1.953510 0.000000 
#    z 0.000000 0.000000 1.843380 
# 
# From -- ./inp_files/9001.got.cif
#   From: 2010.05.17/outbox.cif.g08.bks.cpg/sg68_5_cif.got.tgz:9001.got - 2010.06.03 18:57:09.
