data_PCOD9507539
_publ_section_title
;
Structure prediction by ZEFSAII (Michael W. Deem and Ramdas Pophale) SiO2 
 PCOD9507539
Probable space group: C C C A
;
_chemical_formula_sum "Si O2"
_cell_formula_units_Z 96
_cell_length_a 28.885873
_cell_length_b 8.226630
_cell_length_c 17.734038
_cell_angle_alpha 90.000000
_cell_angle_beta 90.000000
_cell_angle_gamma 90.000000
_cell_volume 4214.199558
_symmetry_space_group_name_H-M "C C C A"
_symmetry_group_IT_number 68
_space_group.IT_coordinate_system_code '2'
_symmetry_cell_setting 'orthorhombic'
loop_
_space_group_symop_operation_xyz
x,y,z
-x,1/2-y,z
x,1/2-y,1/2-z
-x,y,1/2-z
-x,-y,-z
x,1/2+y,-z
-x,1/2+y,1/2+z
x,-y,1/2+z
1/2+x,1/2+y,z
1/2-x,-y,z
1/2+x,-y,1/2-z
1/2-x,1/2+y,1/2-z
1/2-x,1/2-y,-z
1/2+x,y,-z
1/2-x,y,1/2+z
1/2+x,1/2-y,1/2+z
loop_
_atom_site_type_symbol
_atom_site_label
_atom_site_fract_x
_atom_site_fract_y
_atom_site_fract_z
Si Si1 0.852028 0.827286 0.651515
Si Si2 0.548251 0.838311 0.558155
Si Si3 0.628541 0.201470 0.173450
Si Si4 0.048458 0.789080 0.892678
Si Si5 0.197148 0.995975 0.148927
Si Si6 0.785929 0.391564 0.479929
O O1 0.905287 0.774282 0.654275
O O2 0.824984 0.665030 0.677093
O O3 0.830743 0.846289 0.567004
O O4 0.852591 0.016143 0.677653
O O5 0.500000 0.750000 0.579017
O O6 0.593535 0.778438 0.603385
O O7 0.553501 0.817253 0.468544
O O8 0.545213 0.026536 0.578602
O O9 0.602094 0.250000 0.250000
O O10 0.669450 0.333434 0.169489
O O11 0.000000 0.750000 0.853986
O O12 0.250000 0.000000 0.175235
O O13 0.199189 0.980704 0.057006
O O14 0.750000 0.500000 0.431004
O O15 0.750000 0.250000 0.500000
#
# Coordination Sequence:
#
# PCOD9507539 Si02
#       6
#    16  16  16  16  16  16
#     4  11  24  39  67  96 134 171 208 269 328 384
#     4  10  21  38  66  94 130 166 200 266 328 392
#     4  11  27  46  62  91 127 175 234 268 309 380
#     4  10  21  35  61 104 130 160 199 251 336 404
#     4  11  24  41  65  95 129 175 209 268 333 384
#     4  11  19  35  60  99 133 156 206 261 330 401
#
# _framework density 22.780125999999999
#
# number of rings (size 3 to 8) (size 9 to 14) (size 15 to 20)
#    0.000    1.333    3.333    4.000    9.333    1.000 
#    3.000    0.000    0.000    0.000    0.000    0.000 
#    0.000    0.000    0.000    0.000    0.000    0.000 
#
# Total GULP energy -267836.953889 kJ/mol
# GULP energy per Si atom -5579.936539 kJ/mol
# Density = 2.272828 g / cm^3
# Si number density = 22.780126 Si / 1000 Ang^3
#
#
#
# Elastic Constant Matrix: (Units=GPa)
#
#
# Indices 1 2 3 4 5 6 
#
# 1 152.2447 79.3190 18.3631 0.0000 0.0000 0.0000
# 2 79.3190 142.0656 18.1460 0.0000 0.0000 0.0000
# 3 18.3631 18.1460 45.6205 0.0000 0.0000 0.0000
# 4 0.0000 0.0000 0.0000 21.4694 0.0000 0.0000
# 5 0.0000 0.0000 0.0000 0.0000 0.6825 0.0000
# 6 0.0000 0.0000 0.0000 0.0000 0.0000 37.1578
#
#
#
# Elastic Compliance Matrix: (Units=1/GPa)
#
#
# Indices 1 2 3 4 5 6 
#
# 1 0.009399 -0.005020 -0.001787 0.000000 0.000000 0.000000
# 2 -0.005020 0.010096 -0.001995 0.000000 0.000000 0.000000
# 3 -0.001787 -0.001995 0.023433 0.000000 0.000000 0.000000
# 4 0.000000 0.000000 0.000000 0.046578 0.000000 0.000000
# 5 0.000000 0.000000 0.000000 0.000000 1.465298 0.000000
# 6 0.000000 0.000000 0.000000 0.000000 0.000000 0.026912
#
#
# Mechanical properties :
#
#
# Convention : Reuss Voigt Hill
#
# Bulk Modulus (GPa) = 39.48689 63.50967 51.49828
# Shear Modulus (GPa) = 3.10991 26.80210 14.95601
#
# Velocity S-wave (km/s) = 1.16968 3.43382 2.56508
# Velocity P-wave (km/s) = 4.38130 6.60768 5.60612
#
# Compressibility (1/GPa) = 0.02532486
#
# Stress axis : x y z
#
# Youngs Moduli (GPa) = 106.39395 99.04505 42.67507
#
# Poissons Ratio (x) = 0.49716 0.07625
# Poissons Ratio (y) = 0.53405 0.08516
# Poissons Ratio (z) = 0.19010 0.19764
#
# Static dielectric constant tensor:
#      x y z
#    x 1.845930 0.000000 0.000000 
#    y 0.000000 1.881650 0.000000 
#    z 0.000000 0.000000 1.887830 
# 
# From -- ./inp_files/41207.got.cif
#   From: 2010.05.17/outbox.cif.g08.bks.cpg/sg68_21_cif.got.tgz:41207.got - 2010.06.03 18:57:09.
