data_PCOD9507505
_publ_section_title
;
Structure prediction by ZEFSAII (Michael W. Deem and Ramdas Pophale) SiO2 
 PCOD9507505
Probable space group: C C C A
;
_chemical_formula_sum "Si O2"
_cell_formula_units_Z 68
_cell_length_a 17.590563
_cell_length_b 14.589609
_cell_length_c 11.927187
_cell_angle_alpha 90.000000
_cell_angle_beta 90.000000
_cell_angle_gamma 90.000000
_cell_volume 3060.986548
_symmetry_space_group_name_H-M "C C C A"
_symmetry_group_IT_number 68
_space_group.IT_coordinate_system_code '2'
_symmetry_cell_setting 'orthorhombic'
loop_
_space_group_symop_operation_xyz
x,y,z
-x,1/2-y,z
x,1/2-y,1/2-z
-x,y,1/2-z
-x,-y,-z
x,1/2+y,-z
-x,1/2+y,1/2+z
x,-y,1/2+z
1/2+x,1/2+y,z
1/2-x,-y,z
1/2+x,-y,1/2-z
1/2-x,1/2+y,1/2-z
1/2-x,1/2-y,-z
1/2+x,y,-z
1/2-x,y,1/2+z
1/2+x,1/2-y,1/2+z
loop_
_atom_site_type_symbol
_atom_site_label
_atom_site_fract_x
_atom_site_fract_y
_atom_site_fract_z
Si Si1 0.338983 0.021929 0.211705
Si Si2 0.381077 0.157594 0.820594
Si Si3 0.294084 0.318985 0.144123
Si Si4 0.500000 0.250000 0.250000
Si Si5 0.397044 0.829901 0.557051
O O1 0.341158 0.092680 0.316645
O O2 0.360035 0.075758 0.099184
O O3 0.250000 0.000000 0.199996
O O4 0.385740 0.931350 0.241948
O O5 0.390667 0.250000 0.750000
O O6 0.293702 0.153475 0.869539
O O7 0.430641 0.158464 0.933417
O O8 0.291410 0.250000 0.250000
O O9 0.339169 0.257876 0.054887
O O10 0.548338 0.191631 0.338266
#
# Coordination Sequence:
#
# PCOD9507505 Si02
#       5
#    16  16  16   4  16
#     4   9  18  34  57  93 128 156 204 259 320 372
#     4  10  21  34  59  95 123 153 202 270 325 353
#     4   8  15  33  58  89 122 155 206 258 315 367
#     4  12  24  44  66  84 122 176 228 228 296 396
#     4  11  21  39  63  86 125 171 209 253 302 372
#
# _framework density 22.215060000000001
#
# number of rings (size 3 to 8) (size 9 to 14) (size 15 to 20)
#    0.000    2.353    3.529    2.118    0.000    4.706 
#    0.000    1.765    0.000    0.000    0.000    0.000 
#    0.000    0.000    0.000    0.000    0.000    0.000 
#
# Total GULP energy -189525.914568 kJ/mol
# GULP energy per Si atom -5574.291605 kJ/mol
# Density = 2.216450 g / cm^3
# Si number density = 22.215060 Si / 1000 Ang^3
#
#
#
# Elastic Constant Matrix: (Units=GPa)
#
#
# Indices 1 2 3 4 5 6 
#
# 1 21.6818 -1.9970 10.7544 0.0000 0.0000 0.0000
# 2 -1.9970 148.2135 57.3791 0.0000 0.0000 0.0000
# 3 10.7544 57.3791 122.2965 0.0000 0.0000 0.0000
# 4 0.0000 0.0000 0.0000 28.6185 0.0000 0.0000
# 5 0.0000 0.0000 0.0000 0.0000 9.0951 0.0000
# 6 0.0000 0.0000 0.0000 0.0000 0.0000 10.3526
#
#
#
# Elastic Compliance Matrix: (Units=1/GPa)
#
#
# Indices 1 2 3 4 5 6 
#
# 1 0.049195 0.002856 -0.005666 0.000000 0.000000 0.000000
# 2 0.002856 0.008410 -0.004197 0.000000 0.000000 0.000000
# 3 -0.005666 -0.004197 0.010644 0.000000 0.000000 0.000000
# 4 0.000000 0.000000 0.000000 0.034942 0.000000 0.000000
# 5 0.000000 0.000000 0.000000 0.000000 0.109950 0.000000
# 6 0.000000 0.000000 0.000000 0.000000 0.000000 0.096594
#
#
# Mechanical properties :
#
#
# Convention : Reuss Voigt Hill
#
# Bulk Modulus (GPa) = 18.43794 47.16278 32.80036
# Shear Modulus (GPa) = 14.62718 24.68358 19.65538
#
# Velocity S-wave (km/s) = 2.56878 3.33696 2.97775
# Velocity P-wave (km/s) = 4.13714 6.01026 5.15942
#
# Compressibility (1/GPa) = 0.05423600
#
# Stress axis : x y z
#
# Youngs Moduli (GPa) = 20.32716 118.90037 93.94644
#
# Poissons Ratio (x) = -0.33964 0.53233
# Poissons Ratio (y) = -0.05806 0.39431
# Poissons Ratio (z) = 0.11518 0.49905
#
# Static dielectric constant tensor:
#      x y z
#    x 1.956260 0.000000 0.000000 
#    y 0.000000 1.869680 0.000000 
#    z 0.000000 0.000000 1.849410 
# 
# From -- ./inp_files/12995.got.cif
#   From: 2010.05.17/outbox.cif.g08.bks.cpg/sg68_7_cif.got.tgz:12995.got - 2010.06.03 18:57:09.
