data_PCOD9507523
_publ_section_title
;
Structure prediction by ZEFSAII (Michael W. Deem and Ramdas Pophale) SiO2 
 PCOD9507523
Probable space group: C C C A
;
_chemical_formula_sum "Si O2"
_cell_formula_units_Z 96
_cell_length_a 24.332725
_cell_length_b 8.394463
_cell_length_c 25.225397
_cell_angle_alpha 90.000000
_cell_angle_beta 90.000000
_cell_angle_gamma 90.000000
_cell_volume 5152.543620
_symmetry_space_group_name_H-M "C C C A"
_symmetry_group_IT_number 68
_space_group.IT_coordinate_system_code '2'
_symmetry_cell_setting 'orthorhombic'
loop_
_space_group_symop_operation_xyz
x,y,z
-x,1/2-y,z
x,1/2-y,1/2-z
-x,y,1/2-z
-x,-y,-z
x,1/2+y,-z
-x,1/2+y,1/2+z
x,-y,1/2+z
1/2+x,1/2+y,z
1/2-x,-y,z
1/2+x,-y,1/2-z
1/2-x,1/2+y,1/2-z
1/2-x,1/2-y,-z
1/2+x,y,-z
1/2-x,y,1/2+z
1/2+x,1/2-y,1/2+z
loop_
_atom_site_type_symbol
_atom_site_label
_atom_site_fract_x
_atom_site_fract_y
_atom_site_fract_z
Si Si1 0.135620 0.750000 0.250000
Si Si2 0.439301 0.833606 0.019735
Si Si3 0.600319 0.036863 0.578956
Si Si4 0.140081 0.750000 0.750000
Si Si5 0.444484 0.475362 0.783499
Si Si6 0.513553 0.065980 0.395081
Si Si7 0.686431 0.518183 0.827258
O O1 0.093690 0.603909 0.255078
O O2 0.172774 0.688524 0.200982
O O3 0.500000 0.750000 0.013319
O O4 0.400429 0.705974 0.048836
O O5 0.452689 0.983938 0.057684
O O6 0.411188 0.903184 0.966716
O O7 0.543080 0.030816 0.610847
O O8 0.648488 0.005009 0.620666
O O9 0.096218 0.672853 0.790569
O O10 0.173961 0.619418 0.717101
O O11 0.500000 0.445536 0.750000
O O12 0.456750 0.548005 0.839992
O O13 0.500000 0.250000 0.403050
O O14 0.750000 0.500000 0.841535
#
# Coordination Sequence:
#
# PCOD9507523 Si02
#       7
#     8  16  16   8  16  16  16
#     4  10  22  36  56  82 114 150 184 230 288 350
#     4  10  21  35  55  83 115 149 185 228 288 363
#     4  11  21  36  56  80 111 149 190 234 284 338
#     4  10  22  38  56  82 116 150 184 230 290 352
#     4  11  20  32  53  87 122 151 181 225 286 359
#     4  11  19  31  53  83 117 151 183 223 283 360
#     4  11  23  41  61  81 107 149 200 247 288 335
#
# _framework density 18.631574000000001
#
# number of rings (size 3 to 8) (size 9 to 14) (size 15 to 20)
#    0.000    1.333    0.000    9.500    0.000    2.667 
#    0.000    0.833    0.000    0.000    0.000    0.000 
#    0.000    0.000    0.000    0.000    0.000    0.000 
#
# Total GULP energy -267628.729509 kJ/mol
# GULP energy per Si atom -5575.598531 kJ/mol
# Density = 1.858917 g / cm^3
# Si number density = 18.631574 Si / 1000 Ang^3
#
#
#
# Elastic Constant Matrix: (Units=GPa)
#
#
# Indices 1 2 3 4 5 6 
#
# 1 100.4271 9.9357 38.7991 0.0000 0.0000 0.0000
# 2 9.9357 70.4346 19.0854 0.0000 0.0000 0.0000
# 3 38.7991 19.0854 93.6343 0.0000 0.0000 0.0000
# 4 0.0000 0.0000 0.0000 18.3876 0.0000 0.0000
# 5 0.0000 0.0000 0.0000 0.0000 18.9998 0.0000
# 6 0.0000 0.0000 0.0000 0.0000 0.0000 13.1209
#
#
#
# Elastic Compliance Matrix: (Units=1/GPa)
#
#
# Indices 1 2 3 4 5 6 
#
# 1 0.011864 -0.000361 -0.004842 0.000000 0.000000 0.000000
# 2 -0.000361 0.015039 -0.002916 0.000000 0.000000 0.000000
# 3 -0.004842 -0.002916 0.013281 0.000000 0.000000 0.000000
# 4 0.000000 0.000000 0.000000 0.054384 0.000000 0.000000
# 5 0.000000 0.000000 0.000000 0.000000 0.052632 0.000000
# 6 0.000000 0.000000 0.000000 0.000000 0.000000 0.076214
#
#
# Mechanical properties :
#
#
# Convention : Reuss Voigt Hill
#
# Bulk Modulus (GPa) = 41.76325 44.45961 43.11143
# Shear Modulus (GPa) = 20.19105 23.21338 21.70222
#
# Velocity S-wave (km/s) = 3.29553 3.53358 3.41663
# Velocity P-wave (km/s) = 6.07821 6.36888 6.22524
#
# Compressibility (1/GPa) = 0.02394450
#
# Stress axis : x y z
#
# Youngs Moduli (GPa) = 84.28828 66.49571 75.29751
#
# Poissons Ratio (x) = 0.02403 0.36462
# Poissons Ratio (y) = 0.03047 0.21953
# Poissons Ratio (z) = 0.40816 0.19387
#
# Static dielectric constant tensor:
#      x y z
#    x 1.623120 0.000000 0.000000 
#    y 0.000000 1.741160 0.000000 
#    z 0.000000 0.000000 1.684990 
# 
# From -- ./inp_files/52129.got.cif
#   From: 2010.05.17/outbox.cif.g08.bks.cpg/sg68_27_cif.got.tgz:52129.got - 2010.06.03 18:57:09.
