data_PCOD9507916
_publ_section_title
;
Structure prediction by ZEFSAII (Michael W. Deem and Ramdas Pophale) SiO2 
 PCOD9507916
Probable space group: C C C A
;
_chemical_formula_sum "Si O2"
_cell_formula_units_Z 112
_cell_length_a 14.958023
_cell_length_b 12.036078
_cell_length_c 31.305248
_cell_angle_alpha 90.000000
_cell_angle_beta 90.000000
_cell_angle_gamma 90.000000
_cell_volume 5636.069486
_symmetry_space_group_name_H-M "C C C A"
_symmetry_group_IT_number 68
_space_group.IT_coordinate_system_code '2'
_symmetry_cell_setting 'orthorhombic'
loop_
_space_group_symop_operation_xyz
x,y,z
-x,1/2-y,z
x,1/2-y,1/2-z
-x,y,1/2-z
-x,-y,-z
x,1/2+y,-z
-x,1/2+y,1/2+z
x,-y,1/2+z
1/2+x,1/2+y,z
1/2-x,-y,z
1/2+x,-y,1/2-z
1/2-x,1/2+y,1/2-z
1/2-x,1/2-y,-z
1/2+x,y,-z
1/2-x,y,1/2+z
1/2+x,1/2-y,1/2+z
loop_
_atom_site_type_symbol
_atom_site_label
_atom_site_fract_x
_atom_site_fract_y
_atom_site_fract_z
Si Si1 0.079696 0.161431 0.098438
Si Si2 0.842661 0.036899 0.853303
Si Si3 0.605567 0.246928 0.297716
Si Si4 0.280854 0.792585 0.574406
Si Si5 0.456880 0.005416 0.439980
Si Si6 0.168440 0.417161 0.631792
Si Si7 0.070237 0.335736 0.992070
O O1 0.172574 0.205095 0.077810
O O2 0.000000 0.250000 0.108261
O O3 0.041301 0.072722 0.065849
O O4 0.104813 0.077599 0.137556
O O5 0.879892 0.132676 0.823380
O O6 0.816690 0.102201 0.897499
O O7 0.750000 0.000000 0.833053
O O8 0.500000 0.250000 0.293803
O O9 0.645574 0.250000 0.250000
O O10 0.637516 0.351058 0.326309
O O11 0.304793 0.679778 0.598819
O O12 0.338889 0.794956 0.530804
O O13 0.403784 0.937631 0.476357
O O14 0.407292 0.018056 0.395107
O O15 0.500429 0.118233 0.456379
O O16 0.250000 0.500000 0.640268
O O17 0.000000 0.250000 0.013950
#
# Coordination Sequence:
#
# PCOD9507916 Si02
#       7
#    16  16  16  16  16  16  16
#     4  11  21  37  59  90 122 159 209 259 317 381
#     4   9  19  36  61  88 119 161 201 243 314 392
#     4  10  22  39  66  97 122 158 208 259 318 397
#     4  10  21  39  63  84 120 167 215 256 319 384
#     4  11  23  38  60  87 121 165 216 267 323 363
#     4  11  23  41  63  94 126 167 211 264 332 381
#     4  11  22  40  60  87 120 167 223 273 314 368
#
# _framework density 19.872005000000001
#
# number of rings (size 3 to 8) (size 9 to 14) (size 15 to 20)
#    0.000    1.571    2.857    2.143    2.000    0.571 
#    5.143    2.143    0.000    0.000    0.000    4.000 
#    0.000    0.000    0.000    0.000    0.000    0.000 
#
# Total GULP energy -311897.957729 kJ/mol
# GULP energy per Si atom -5569.606388 kJ/mol
# Density = 1.982678 g / cm^3
# Si number density = 19.872005 Si / 1000 Ang^3
#
#
#
# Elastic Constant Matrix: (Units=GPa)
#
#
# Indices 1 2 3 4 5 6 
#
# 1 109.8047 51.7171 47.0031 0.0000 0.0000 0.0000
# 2 51.7171 94.7477 32.1222 0.0000 0.0000 0.0000
# 3 47.0031 32.1222 96.6826 0.0000 0.0000 0.0000
# 4 0.0000 0.0000 0.0000 23.5117 0.0000 0.0000
# 5 0.0000 0.0000 0.0000 0.0000 34.9630 0.0000
# 6 0.0000 0.0000 0.0000 0.0000 0.0000 45.5103
#
#
#
# Elastic Compliance Matrix: (Units=1/GPa)
#
#
# Indices 1 2 3 4 5 6 
#
# 1 0.013995 -0.006009 -0.004807 0.000000 0.000000 0.000000
# 2 -0.006009 0.014474 -0.001888 0.000000 0.000000 0.000000
# 3 -0.004807 -0.001888 0.013307 0.000000 0.000000 0.000000
# 4 0.000000 0.000000 0.000000 0.042532 0.000000 0.000000
# 5 0.000000 0.000000 0.000000 0.000000 0.028602 0.000000
# 6 0.000000 0.000000 0.000000 0.000000 0.000000 0.021973
#
#
# Mechanical properties :
#
#
# Convention : Reuss Voigt Hill
#
# Bulk Modulus (GPa) = 61.09263 62.54665 61.81964
# Shear Modulus (GPa) = 30.16620 32.15651 31.16135
#
# Velocity S-wave (km/s) = 3.90041 4.02703 3.96422
# Velocity P-wave (km/s) = 7.14801 7.29148 7.22010
#
# Compressibility (1/GPa) = 0.01636859
#
# Stress axis : x y z
#
# Youngs Moduli (GPa) = 71.45272 69.08748 75.14620
#
# Poissons Ratio (x) = 0.41517 0.36126
# Poissons Ratio (y) = 0.42938 0.14184
# Poissons Ratio (z) = 0.34350 0.13040
#
# Static dielectric constant tensor:
#      x y z
#    x 1.738970 0.000000 0.000000 
#    y 0.000000 2.169780 0.000000 
#    z 0.000000 0.000000 1.735580 
# 
# From -- ./inp_files/55262.got.cif
#   From: 2010.05.17/outbox.cif.g08.bks.cpg/sg68_28_cif.got.tgz:55262.got - 2010.06.03 18:57:09.
