data_PCOD9507583
_publ_section_title
;
Structure prediction by ZEFSAII (Michael W. Deem and Ramdas Pophale) SiO2 
 PCOD9507583
Probable space group: C C C A
;
_chemical_formula_sum "Si O2"
_cell_formula_units_Z 116
_cell_length_a 22.489380
_cell_length_b 29.174708
_cell_length_c 8.330066
_cell_angle_alpha 90.000000
_cell_angle_beta 90.000000
_cell_angle_gamma 90.000000
_cell_volume 5465.532022
_symmetry_space_group_name_H-M "C C C A"
_symmetry_group_IT_number 68
_space_group.IT_coordinate_system_code '2'
_symmetry_cell_setting 'orthorhombic'
loop_
_space_group_symop_operation_xyz
x,y,z
-x,1/2-y,z
x,1/2-y,1/2-z
-x,y,1/2-z
-x,-y,-z
x,1/2+y,-z
-x,1/2+y,1/2+z
x,-y,1/2+z
1/2+x,1/2+y,z
1/2-x,-y,z
1/2+x,-y,1/2-z
1/2-x,1/2+y,1/2-z
1/2-x,1/2-y,-z
1/2+x,y,-z
1/2-x,y,1/2+z
1/2+x,1/2-y,1/2+z
loop_
_atom_site_type_symbol
_atom_site_label
_atom_site_fract_x
_atom_site_fract_y
_atom_site_fract_z
Si Si1 0.994459 0.317855 0.992018
Si Si2 0.264440 0.053677 0.534675
Si Si3 0.168772 0.604630 0.259471
Si Si4 0.424463 0.453793 0.403041
Si Si5 0.000000 0.250000 0.250000
Si Si6 0.023408 0.919317 0.578833
Si Si7 0.604198 0.802286 0.779165
Si Si8 0.124403 0.451753 0.263597
O O1 0.945447 0.315270 0.853829
O O2 0.060497 0.302620 0.935352
O O3 0.001752 0.369360 0.049520
O O4 0.969008 0.285353 0.130692
O O5 0.209030 0.083993 0.595648
O O6 0.300409 0.081292 0.396415
O O7 0.307040 0.049506 0.691857
O O8 0.250000 0.000000 0.492793
O O9 0.102499 0.584376 0.286809
O O10 0.155958 0.659200 0.270725
O O11 0.494536 0.449650 0.439357
O O12 0.402330 0.500995 0.331019
O O13 0.393694 0.447515 0.578853
O O14 0.092477 0.915649 0.617339
O O15 0.000000 0.937405 0.750000
O O16 0.624653 0.750000 0.750000
#
# Coordination Sequence:
#
# PCOD9507583 Si02
#       8
#    16  16  16  16   4  16  16  16
#     4  11  20  38  65 100 134 169 208 258 325 401
#     4  12  25  43  67  94 124 171 230 279 319 387
#     4  12  25  43  68  95 128 171 225 281 331 380
#     4  11  22  39  60  94 131 177 209 268 322 392
#     4  12  20  34  68 100 136 166 216 256 320 394
#     4  10  21  36  59  95 139 168 208 257 319 399
#     4  11  23  43  66  97 133 170 214 267 332 399
#     4  11  23  39  61  92 133 175 219 258 326 386
#
# _framework density 21.223918000000001
#
# number of rings (size 3 to 8) (size 9 to 14) (size 15 to 20)
#    0.000    0.828    4.828    3.724    0.000    0.000 
#    0.000    0.690    0.000    0.000    0.000    0.000 
#    0.000    0.000    0.000    0.000    0.000    0.000 
#
# Total GULP energy -323539.840916 kJ/mol
# GULP energy per Si atom -5578.273119 kJ/mol
# Density = 2.117561 g / cm^3
# Si number density = 21.223918 Si / 1000 Ang^3
#
#
#
# Elastic Constant Matrix: (Units=GPa)
#
#
# Indices 1 2 3 4 5 6 
#
# 1 87.8251 38.4387 26.1085 0.0000 0.0000 0.0000
# 2 38.4387 148.4529 28.3673 0.0000 0.0000 0.0000
# 3 26.1085 28.3673 82.9590 0.0000 0.0000 0.0000
# 4 0.0000 0.0000 0.0000 29.5354 0.0000 0.0000
# 5 0.0000 0.0000 0.0000 0.0000 30.0101 0.0000
# 6 0.0000 0.0000 0.0000 0.0000 0.0000 20.4821
#
#
#
# Elastic Compliance Matrix: (Units=1/GPa)
#
#
# Indices 1 2 3 4 5 6 
#
# 1 0.013637 -0.002900 -0.003300 0.000000 0.000000 0.000000
# 2 -0.002900 0.007824 -0.001763 0.000000 0.000000 0.000000
# 3 -0.003300 -0.001763 0.013695 0.000000 0.000000 0.000000
# 4 0.000000 0.000000 0.000000 0.033858 0.000000 0.000000
# 5 0.000000 0.000000 0.000000 0.000000 0.033322 0.000000
# 6 0.000000 0.000000 0.000000 0.000000 0.000000 0.048823
#
#
# Mechanical properties :
#
#
# Convention : Reuss Voigt Hill
#
# Bulk Modulus (GPa) = 52.00122 56.11846 54.05984
# Shear Modulus (GPa) = 28.81934 31.09369 29.95651
#
# Velocity S-wave (km/s) = 3.68893 3.83172 3.76100
# Velocity P-wave (km/s) = 6.53442 6.78783 6.66233
#
# Compressibility (1/GPa) = 0.01923032
#
# Stress axis : x y z
#
# Youngs Moduli (GPa) = 73.33165 127.81299 73.01729
#
# Poissons Ratio (x) = 0.37070 0.24095
# Poissons Ratio (y) = 0.21269 0.12870
# Poissons Ratio (z) = 0.24199 0.22528
#
# Static dielectric constant tensor:
#      x y z
#    x 1.923590 0.000000 0.000000 
#    y 0.000000 1.802090 0.000000 
#    z 0.000000 0.000000 1.821880 
# 
# From -- ./inp_files/8350.got.cif
#   From: 2010.05.17/outbox.cif.g08.bks.cpg/sg68_5_cif.got.tgz:8350.got - 2010.06.03 18:57:09.
