data_PCOD9507394
_publ_section_title
;
Structure prediction by ZEFSAII (Michael W. Deem and Ramdas Pophale) SiO2 
 PCOD9507394
Probable space group: C C C A
;
_chemical_formula_sum "Si O2"
_cell_formula_units_Z 72
_cell_length_a 19.920557
_cell_length_b 22.230297
_cell_length_c 8.682253
_cell_angle_alpha 90.000000
_cell_angle_beta 90.000000
_cell_angle_gamma 90.000000
_cell_volume 3844.848037
_symmetry_space_group_name_H-M "C C C A"
_symmetry_group_IT_number 68
_space_group.IT_coordinate_system_code '2'
_symmetry_cell_setting 'orthorhombic'
loop_
_space_group_symop_operation_xyz
x,y,z
-x,1/2-y,z
x,1/2-y,1/2-z
-x,y,1/2-z
-x,-y,-z
x,1/2+y,-z
-x,1/2+y,1/2+z
x,-y,1/2+z
1/2+x,1/2+y,z
1/2-x,-y,z
1/2+x,-y,1/2-z
1/2-x,1/2+y,1/2-z
1/2-x,1/2-y,-z
1/2+x,y,-z
1/2-x,y,1/2+z
1/2+x,1/2-y,1/2+z
loop_
_atom_site_type_symbol
_atom_site_label
_atom_site_fract_x
_atom_site_fract_y
_atom_site_fract_z
Si Si1 0.571766 0.169728 0.495681
Si Si2 0.809151 0.920773 0.533710
Si Si3 0.500000 0.250000 0.250000
Si Si4 0.000000 0.250000 0.250000
Si Si5 0.979694 0.936849 0.928833
Si Si6 0.328558 0.051763 0.605260
O O1 0.644870 0.137870 0.502637
O O2 0.550487 0.211125 0.354424
O O3 0.548341 0.207976 0.645693
O O4 0.521979 0.113501 0.488216
O O5 0.731060 0.916023 0.488089
O O6 0.817101 0.938339 0.713060
O O7 0.829820 0.980418 0.435763
O O8 0.901145 0.924306 0.940006
O O9 0.000000 0.937015 0.750000
O O10 0.000000 0.000000 0.000000
#
# Coordination Sequence:
#
# PCOD9507394 Si02
#       6
#    16  16   4   4  16  16
#     4  11  22  42  63  91 122 173 216 273 312 374
#     4  11  22  37  61  88 136 165 198 250 335 389
#     4  10  28  38  66  92 124 174 234 272 296 366
#     4  10  20  42  66  84 124 174 248 254 304 358
#     4  12  22  37  64  98 129 161 206 266 332 387
#     4  11  21  36  57  99 128 166 193 254 333 410
#
# _framework density 18.726358000000001
#
# number of rings (size 3 to 8) (size 9 to 14) (size 15 to 20)
#    0.000    0.889    5.556    2.667    1.556    3.556 
#    0.000    0.000    0.000   22.667    0.000    0.000 
#    0.000    0.000    0.000    0.000    0.000    0.000 
#
# Total GULP energy -200984.444285 kJ/mol
# GULP energy per Si atom -5582.901230 kJ/mol
# Density = 1.868374 g / cm^3
# Si number density = 18.726358 Si / 1000 Ang^3
#
#
#
# Elastic Constant Matrix: (Units=GPa)
#
#
# Indices 1 2 3 4 5 6 
#
# 1 161.6033 52.5242 32.4888 0.0000 0.0000 0.0000
# 2 52.5242 121.4029 56.1913 0.0000 0.0000 0.0000
# 3 32.4888 56.1913 98.0520 0.0000 0.0000 0.0000
# 4 0.0000 0.0000 0.0000 12.2919 0.0000 0.0000
# 5 0.0000 0.0000 0.0000 0.0000 24.0326 0.0000
# 6 0.0000 0.0000 0.0000 0.0000 0.0000 39.5087
#
#
#
# Elastic Compliance Matrix: (Units=1/GPa)
#
#
# Indices 1 2 3 4 5 6 
#
# 1 0.007249 -0.002755 -0.000823 0.000000 0.000000 0.000000
# 2 -0.002755 0.012258 -0.006112 0.000000 0.000000 0.000000
# 3 -0.000823 -0.006112 0.013974 0.000000 0.000000 0.000000
# 4 0.000000 0.000000 0.000000 0.081354 0.000000 0.000000
# 5 0.000000 0.000000 0.000000 0.000000 0.041610 0.000000
# 6 0.000000 0.000000 0.000000 0.000000 0.000000 0.025311
#
#
# Mechanical properties :
#
#
# Convention : Reuss Voigt Hill
#
# Bulk Modulus (GPa) = 70.91815 73.71853 72.31834
# Shear Modulus (GPa) = 24.29114 31.15690 27.72402
#
# Velocity S-wave (km/s) = 3.60552 4.08339 3.85188
# Velocity P-wave (km/s) = 7.43546 7.85390 7.64754
#
# Compressibility (1/GPa) = 0.01410076
#
# Stress axis : x y z
#
# Youngs Moduli (GPa) = 137.95071 81.57959 71.56231
#
# Poissons Ratio (x) = 0.22478 0.05889
# Poissons Ratio (y) = 0.38010 0.43737
# Poissons Ratio (z) = 0.11351 0.49860
#
# Static dielectric constant tensor:
#      x y z
#    x 1.797380 0.000000 0.000000 
#    y 0.000000 1.655020 0.000000 
#    z 0.000000 0.000000 1.615040 
# 
# From -- ./inp_files/7050.got.cif
#   From: 2010.05.17/outbox.cif.g08.bks.cpg/sg68_4_cif.got.tgz:7050.got - 2010.06.03 18:57:09.
