data_PCOD9507168
_publ_section_title
;
Structure prediction by ZEFSAII (Michael W. Deem and Ramdas Pophale) SiO2 
 PCOD9507168
Probable space group: C C C A
;
_chemical_formula_sum "Si O2"
_cell_formula_units_Z 52
_cell_length_a 5.464532
_cell_length_b 19.245882
_cell_length_c 22.687610
_cell_angle_alpha 90.000000
_cell_angle_beta 90.000000
_cell_angle_gamma 90.000000
_cell_volume 2386.050001
_symmetry_space_group_name_H-M "C C C A"
_symmetry_group_IT_number 68
_space_group.IT_coordinate_system_code '2'
_symmetry_cell_setting 'orthorhombic'
loop_
_space_group_symop_operation_xyz
x,y,z
-x,1/2-y,z
x,1/2-y,1/2-z
-x,y,1/2-z
-x,-y,-z
x,1/2+y,-z
-x,1/2+y,1/2+z
x,-y,1/2+z
1/2+x,1/2+y,z
1/2-x,-y,z
1/2+x,-y,1/2-z
1/2-x,1/2+y,1/2-z
1/2-x,1/2-y,-z
1/2+x,y,-z
1/2-x,y,1/2+z
1/2+x,1/2-y,1/2+z
loop_
_atom_site_type_symbol
_atom_site_label
_atom_site_fract_x
_atom_site_fract_y
_atom_site_fract_z
Si Si1 0.500000 0.750000 0.750000
Si Si2 0.291406 0.329350 0.022899
Si Si3 0.172577 0.815631 0.848886
Si Si4 0.001613 0.464021 0.321153
O O1 0.334662 0.797534 0.792179
O O2 0.332196 0.327461 0.092751
O O3 0.250000 0.250000 0.000000
O O4 0.526013 0.361691 0.991070
O O5 0.012354 0.883395 0.837249
O O6 0.000000 0.750000 0.860686
O O7 0.750000 0.500000 0.342393
O O8 0.000000 0.469501 0.250000
O O9 0.250000 0.500000 0.342645
#
# Coordination Sequence:
#
# PCOD9507168 Si02
#       4
#     4  16  16  16
#     4  12  26  36  64 114 136 168 220 306 354 388
#     4  10  20  39  62  95 124 175 220 273 329 402
#     4  12  25  40  69 100 138 170 230 290 336 405
#     4  10  24  43  63  89 134 185 217 259 337 420
#
# _framework density 21.793341999999999
#
# number of rings (size 3 to 8) (size 9 to 14) (size 15 to 20)
#    0.000    1.231    3.077    4.154   10.769    0.000 
#    0.000    0.000    0.000    5.538    0.000    0.000 
#    0.000    0.000    0.000    0.000    0.000    0.000 
#
# Total GULP energy -145389.513061 kJ/mol
# GULP energy per Si atom -5591.904349 kJ/mol
# Density = 2.174374 g / cm^3
# Si number density = 21.793342 Si / 1000 Ang^3
#
#
#
# Elastic Constant Matrix: (Units=GPa)
#
#
# Indices 1 2 3 4 5 6 
#
# 1 143.1491 58.4122 35.0146 0.0000 0.0000 0.0000
# 2 58.4122 114.9642 2.0875 0.0000 0.0000 0.0000
# 3 35.0146 2.0875 114.9604 0.0000 0.0000 0.0000
# 4 0.0000 0.0000 0.0000 -65.3747 0.0000 0.0000
# 5 0.0000 0.0000 0.0000 0.0000 32.5360 0.0000
# 6 0.0000 0.0000 0.0000 0.0000 0.0000 34.4848
#
#
#
# Elastic Compliance Matrix: (Units=1/GPa)
#
#
# Indices 1 2 3 4 5 6 
#
# 1 0.009668 -0.004860 -0.002856 0.000000 0.000000 0.000000
# 2 -0.004860 0.011145 0.001278 0.000000 0.000000 0.000000
# 3 -0.002856 0.001278 0.009545 0.000000 0.000000 0.000000
# 4 0.000000 0.000000 0.000000 -0.015296 0.000000 0.000000
# 5 0.000000 0.000000 0.000000 0.000000 0.030735 0.000000
# 6 0.000000 0.000000 0.000000 0.000000 0.000000 0.028998
#
#
# Mechanical properties :
#
#
# Convention : Reuss Voigt Hill
#
# Bulk Modulus (GPa) = 57.20650 62.67803 59.94227
# Shear Modulus (GPa) = 53.47690 18.83318 36.15504
#
# Velocity S-wave (km/s) = 4.95898 2.94287 4.07749
# Velocity P-wave (km/s) = 7.68734 6.35373 7.05213
#
# Compressibility (1/GPa) = 0.01748053
#
# Stress axis : x y z
#
# Youngs Moduli (GPa) = 103.43871 89.73006 104.76235
#
# Poissons Ratio (x) = 0.43610 0.29923
# Poissons Ratio (y) = 0.50273 -0.13388
# Poissons Ratio (z) = 0.29545 -0.11467
#
# Static dielectric constant tensor:
#      x y z
#    x 1.760440 0.000000 0.000000 
#    y 0.000000 1.762160 0.000000 
#    z 0.000000 0.000000 1.781020 
# 
# From -- ./inp_files/34812.got.cif
#   From: 2010.05.17/outbox.cif.g08.bks.cpg/sg68_18_cif.got.tgz:34812.got - 2010.06.03 18:57:09.
