data_PCOD9507209
_publ_section_title
;
Structure prediction by ZEFSAII (Michael W. Deem and Ramdas Pophale) SiO2 
 PCOD9507209
Probable space group: C C C A
;
_chemical_formula_sum "Si O2"
_cell_formula_units_Z 80
_cell_length_a 9.227638
_cell_length_b 17.428504
_cell_length_c 26.182610
_cell_angle_alpha 90.000000
_cell_angle_beta 90.000000
_cell_angle_gamma 90.000000
_cell_volume 4210.790128
_symmetry_space_group_name_H-M "C C C A"
_symmetry_group_IT_number 68
_space_group.IT_coordinate_system_code '2'
_symmetry_cell_setting 'orthorhombic'
loop_
_space_group_symop_operation_xyz
x,y,z
-x,1/2-y,z
x,1/2-y,1/2-z
-x,y,1/2-z
-x,-y,-z
x,1/2+y,-z
-x,1/2+y,1/2+z
x,-y,1/2+z
1/2+x,1/2+y,z
1/2-x,-y,z
1/2+x,-y,1/2-z
1/2-x,1/2+y,1/2-z
1/2-x,1/2-y,-z
1/2+x,y,-z
1/2-x,y,1/2+z
1/2+x,1/2-y,1/2+z
loop_
_atom_site_type_symbol
_atom_site_label
_atom_site_fract_x
_atom_site_fract_y
_atom_site_fract_z
Si Si1 0.039594 0.131095 0.348514
Si Si2 0.789078 0.722816 0.691676
Si Si3 0.623668 0.624468 0.941266
Si Si4 0.450684 0.838468 0.463753
Si Si5 0.250000 0.000000 0.868636
Si Si6 0.500000 0.250000 0.364297
O O1 0.894485 0.149738 0.316642
O O2 0.138632 0.206565 0.339488
O O3 0.999209 0.130931 0.408437
O O4 0.142140 0.057546 0.338464
O O5 0.789225 0.750000 0.750000
O O6 0.627818 0.714758 0.670250
O O7 0.777716 0.653675 0.962827
O O8 0.653227 0.550627 0.906854
O O9 0.563248 0.686470 0.901902
O O10 0.517441 0.615991 0.988921
O O11 0.500000 0.750000 0.468804
#
# Coordination Sequence:
#
# PCOD9507209 Si02
#       6
#    16  16  16  16   8   8
#     4  10  20  39  66  89 125 164 202 257 317 374
#     4  11  22  40  70  95 114 161 223 263 310 375
#     4  11  24  34  63  85 133 161 213 247 321 366
#     4  11  19  35  59  93 117 169 211 257 295 382
#     4  10  22  44  58  94 134 168 190 270 318 382
#     4  12  21  40  62  98 120 164 203 278 302 374
#
# _framework density 18.998808
#
# number of rings (size 3 to 8) (size 9 to 14) (size 15 to 20)
#    0.000    1.200    7.000    2.100    2.800    3.200 
#    0.000    1.000    8.800    0.000    0.000    0.000 
#    0.000    0.000    0.000    0.000    0.000    0.000 
#
# Total GULP energy -223215.627779 kJ/mol
# GULP energy per Si atom -5580.390694 kJ/mol
# Density = 1.895557 g / cm^3
# Si number density = 18.998808 Si / 1000 Ang^3
#
#
#
# Elastic Constant Matrix: (Units=GPa)
#
#
# Indices 1 2 3 4 5 6 
#
# 1 145.6718 37.7281 58.5426 0.0000 0.0000 0.0000
# 2 37.7281 83.6086 14.6230 0.0000 0.0000 0.0000
# 3 58.5426 14.6230 112.3099 0.0000 0.0000 0.0000
# 4 0.0000 0.0000 0.0000 8.4226 0.0000 0.0000
# 5 0.0000 0.0000 0.0000 0.0000 16.0108 0.0000
# 6 0.0000 0.0000 0.0000 0.0000 0.0000 36.2307
#
#
#
# Elastic Compliance Matrix: (Units=1/GPa)
#
#
# Indices 1 2 3 4 5 6 
#
# 1 0.009610 -0.003541 -0.004548 0.000000 0.000000 0.000000
# 2 -0.003541 0.013544 0.000082 0.000000 0.000000 0.000000
# 3 -0.004548 0.000082 0.011264 0.000000 0.000000 0.000000
# 4 0.000000 0.000000 0.000000 0.118727 0.000000 0.000000
# 5 0.000000 0.000000 0.000000 0.000000 0.062458 0.000000
# 6 0.000000 0.000000 0.000000 0.000000 0.000000 0.027601
#
#
# Mechanical properties :
#
#
# Convention : Reuss Voigt Hill
#
# Bulk Modulus (GPa) = 54.33563 62.59752 58.46658
# Shear Modulus (GPa) = 18.84293 27.51260 23.17776
#
# Velocity S-wave (km/s) = 3.15269 3.80955 3.49658
# Velocity P-wave (km/s) = 6.47412 7.23670 6.86601
#
# Compressibility (1/GPa) = 0.01840413
#
# Stress axis : x y z
#
# Youngs Moduli (GPa) = 104.06286 73.83393 88.77884
#
# Poissons Ratio (x) = 0.26143 0.40377
# Poissons Ratio (y) = 0.36847 -0.00730
# Poissons Ratio (z) = 0.47328 -0.00607
#
# Static dielectric constant tensor:
#      x y z
#    x 1.682830 0.000000 0.000000 
#    y 0.000000 1.650780 0.000000 
#    z 0.000000 0.000000 1.660760 
# 
# From -- ./inp_files/49200.got.cif
#   From: 2010.05.17/outbox.cif.g08.bks.cpg/sg68_25_cif.got.tgz:49200.got - 2010.06.03 18:57:09.
