data_PCOD9507231
_publ_section_title
;
Structure prediction by ZEFSAII (Michael W. Deem and Ramdas Pophale) SiO2 
 PCOD9507231
Probable space group: C C C A
;
_chemical_formula_sum "Si O2"
_cell_formula_units_Z 72
_cell_length_a 14.786547
_cell_length_b 13.038702
_cell_length_c 18.407957
_cell_angle_alpha 90.000000
_cell_angle_beta 90.000000
_cell_angle_gamma 90.000000
_cell_volume 3549.005880
_symmetry_space_group_name_H-M "C C C A"
_symmetry_group_IT_number 68
_space_group.IT_coordinate_system_code '2'
_symmetry_cell_setting 'orthorhombic'
loop_
_space_group_symop_operation_xyz
x,y,z
-x,1/2-y,z
x,1/2-y,1/2-z
-x,y,1/2-z
-x,-y,-z
x,1/2+y,-z
-x,1/2+y,1/2+z
x,-y,1/2+z
1/2+x,1/2+y,z
1/2-x,-y,z
1/2+x,-y,1/2-z
1/2-x,1/2+y,1/2-z
1/2-x,1/2-y,-z
1/2+x,y,-z
1/2-x,y,1/2+z
1/2+x,1/2-y,1/2+z
loop_
_atom_site_type_symbol
_atom_site_label
_atom_site_fract_x
_atom_site_fract_y
_atom_site_fract_z
Si Si1 0.193483 0.750000 0.250000
Si Si2 0.000000 0.750000 0.886243
Si Si3 0.647326 0.036567 0.193596
Si Si4 0.421588 0.446675 0.547364
Si Si5 0.750000 0.500000 0.543361
Si Si6 0.344515 0.615627 0.326940
O O1 0.141405 0.658544 0.208571
O O2 0.260848 0.684307 0.300211
O O3 0.948054 0.669104 0.935598
O O4 0.929639 0.812474 0.838217
O O5 0.750000 0.000000 0.174630
O O6 0.587471 0.002768 0.125527
O O7 0.631849 0.972238 0.267919
O O8 0.500000 0.500000 0.500000
O O9 0.325269 0.448130 0.507091
O O10 0.689667 0.431228 0.597491
#
# Coordination Sequence:
#
# PCOD9507231 Si02
#       6
#     8   8  16  16   8  16
#     4  10  20  39  74 103 132 196 234 290 375 405
#     4  12  26  45  72 108 137 194 242 292 365 424
#     4  10  21  42  69 104 143 184 239 297 349 426
#     4  12  27  45  68 107 148 187 236 295 363 438
#     4  12  24  48  70 100 154 184 224 312 350 422
#     4  11  23  43  72 106 140 181 250 296 344 429
#
# _framework density 20.287371
#
# number of rings (size 3 to 8) (size 9 to 14) (size 15 to 20)
#    0.000    0.889    6.667    2.667    0.000    6.667 
#    0.000    0.000    0.000    5.333    0.000    0.000 
#    0.000    0.000    0.000    0.000    0.000    0.000 
#
# Total GULP energy -201151.214533 kJ/mol
# GULP energy per Si atom -5587.533737 kJ/mol
# Density = 2.024120 g / cm^3
# Si number density = 20.287371 Si / 1000 Ang^3
#
#
#
# Elastic Constant Matrix: (Units=GPa)
#
#
# Indices 1 2 3 4 5 6 
#
# 1 91.9306 43.0119 54.4837 0.0000 0.0000 0.0000
# 2 43.0119 158.9120 78.1937 0.0000 0.0000 0.0000
# 3 54.4837 78.1937 129.4359 0.0000 0.0000 0.0000
# 4 0.0000 0.0000 0.0000 12.7063 0.0000 0.0000
# 5 0.0000 0.0000 0.0000 0.0000 3.9941 0.0000
# 6 0.0000 0.0000 0.0000 0.0000 0.0000 35.1889
#
#
#
# Elastic Compliance Matrix: (Units=1/GPa)
#
#
# Indices 1 2 3 4 5 6 
#
# 1 0.014688 -0.001328 -0.005380 0.000000 0.000000 0.000000
# 2 -0.001328 0.009075 -0.004923 0.000000 0.000000 0.000000
# 3 -0.005380 -0.004923 0.012965 0.000000 0.000000 0.000000
# 4 0.000000 0.000000 0.000000 0.078701 0.000000 0.000000
# 5 0.000000 0.000000 0.000000 0.000000 0.250371 0.000000
# 6 0.000000 0.000000 0.000000 0.000000 0.000000 0.028418
#
#
# Mechanical properties :
#
#
# Convention : Reuss Voigt Hill
#
# Bulk Modulus (GPa) = 74.27052 81.29521 77.78287
# Shear Modulus (GPa) = 11.84923 24.01714 17.93318
#
# Velocity S-wave (km/s) = 2.41937 3.44444 2.97637
# Velocity P-wave (km/s) = 6.67032 7.48183 7.08770
#
# Compressibility (1/GPa) = 0.01346429
#
# Stress axis : x y z
#
# Youngs Moduli (GPa) = 68.08363 110.19656 77.13282
#
# Poissons Ratio (x) = 0.14635 0.41499
# Poissons Ratio (y) = 0.09042 0.37973
# Poissons Ratio (z) = 0.36631 0.54251
#
# Static dielectric constant tensor:
#      x y z
#    x 1.751760 0.000000 0.000000 
#    y 0.000000 1.722860 0.000000 
#    z 0.000000 0.000000 1.798730 
# 
# From -- ./inp_files/29460.got.cif
#   From: 2010.05.17/outbox.cif.g08.bks.cpg/sg68_15_cif.got.tgz:29460.got - 2010.06.03 18:57:09.
