data_PCOD9507002
_publ_section_title
;
Structure prediction by ZEFSAII (Michael W. Deem and Ramdas Pophale) SiO2 
 PCOD9507002
Probable space group: C C C A
;
_chemical_formula_sum "Si O2"
_cell_formula_units_Z 44
_cell_length_a 4.964972
_cell_length_b 20.574739
_cell_length_c 21.618876
_cell_angle_alpha 90.000000
_cell_angle_beta 90.000000
_cell_angle_gamma 90.000000
_cell_volume 2208.433106
_symmetry_space_group_name_H-M "C C C A"
_symmetry_group_IT_number 68
_space_group.IT_coordinate_system_code '2'
_symmetry_cell_setting 'orthorhombic'
loop_
_space_group_symop_operation_xyz
x,y,z
-x,1/2-y,z
x,1/2-y,1/2-z
-x,y,1/2-z
-x,-y,-z
x,1/2+y,-z
-x,1/2+y,1/2+z
x,-y,1/2+z
1/2+x,1/2+y,z
1/2-x,-y,z
1/2+x,-y,1/2-z
1/2-x,1/2+y,1/2-z
1/2-x,1/2-y,-z
1/2+x,y,-z
1/2-x,y,1/2+z
1/2+x,1/2-y,1/2+z
loop_
_atom_site_type_symbol
_atom_site_label
_atom_site_fract_x
_atom_site_fract_y
_atom_site_fract_z
Si Si1 0.500000 0.750000 0.250000
Si Si2 0.000000 0.250000 0.045509
Si Si3 0.382827 0.348911 0.846967
Si Si4 0.610071 0.934308 0.680787
O O1 0.680625 0.706270 0.204059
O O2 0.035938 0.188120 0.090604
O O3 0.250000 0.250000 0.000000
O O4 0.646178 0.383846 0.820099
O O5 0.141459 0.400510 0.853512
O O6 0.500000 0.947741 0.750000
O O7 0.750000 0.000000 0.656069
#
# Coordination Sequence:
#
# PCOD9507002 Si02
#       4
#     4   8  16  16
#     4  10  20  38  56  98 124 156 208 250 344 368
#     4  11  24  45  66  91 122 169 220 272 328 369
#     4  11  23  38  65  92 129 166 207 270 313 395
#     4  12  22  38  60  95 135 172 203 248 319 395
#
# _framework density 19.923628000000001
#
# number of rings (size 3 to 8) (size 9 to 14) (size 15 to 20)
#    0.000    0.727    3.636    5.455    0.000    5.818 
#    0.000    0.000    0.000   21.818    0.000    0.000 
#    0.000    0.000    0.000    0.000    0.000    0.000 
#
# Total GULP energy -122879.290170 kJ/mol
# GULP energy per Si atom -5585.422280 kJ/mol
# Density = 1.987828 g / cm^3
# Si number density = 19.923628 Si / 1000 Ang^3
#
#
#
# Elastic Constant Matrix: (Units=GPa)
#
#
# Indices 1 2 3 4 5 6 
#
# 1 162.3666 56.9020 44.2740 0.0000 0.0000 0.0000
# 2 56.9020 101.4995 51.9124 0.0000 0.0000 0.0000
# 3 44.2740 51.9124 98.7625 0.0000 0.0000 0.0000
# 4 0.0000 0.0000 0.0000 12.0727 0.0000 0.0000
# 5 0.0000 0.0000 0.0000 0.0000 29.5911 0.0000
# 6 0.0000 0.0000 0.0000 0.0000 0.0000 34.1971
#
#
#
# Elastic Compliance Matrix: (Units=1/GPa)
#
#
# Indices 1 2 3 4 5 6 
#
# 1 0.007857 -0.003560 -0.001651 0.000000 0.000000 0.000000
# 2 -0.003560 0.015088 -0.006335 0.000000 0.000000 0.000000
# 3 -0.001651 -0.006335 0.014195 0.000000 0.000000 0.000000
# 4 0.000000 0.000000 0.000000 0.082831 0.000000 0.000000
# 5 0.000000 0.000000 0.000000 0.000000 0.033794 0.000000
# 6 0.000000 0.000000 0.000000 0.000000 0.000000 0.029242
#
#
# Mechanical properties :
#
#
# Convention : Reuss Voigt Hill
#
# Bulk Modulus (GPa) = 71.18230 74.31173 72.74701
# Shear Modulus (GPa) = 23.72122 29.14152 26.43137
#
# Velocity S-wave (km/s) = 3.45426 3.82862 3.64625
# Velocity P-wave (km/s) = 7.19127 7.54478 7.37015
#
# Compressibility (1/GPa) = 0.01404844
#
# Stress axis : x y z
#
# Youngs Moduli (GPa) = 127.27914 66.27704 70.44741
#
# Poissons Ratio (x) = 0.23597 0.11628
# Poissons Ratio (y) = 0.45316 0.44626
# Poissons Ratio (z) = 0.21009 0.41985
#
# Static dielectric constant tensor:
#      x y z
#    x 1.692980 0.000000 0.000000 
#    y 0.000000 1.785800 0.000000 
#    z 0.000000 0.000000 1.722600 
# 
# From -- ./inp_files/41935.got.cif
#   From: 2010.05.17/outbox.cif.g08.bks.cpg/sg68_21_cif.got.tgz:41935.got - 2010.06.03 18:57:09.
