data_PCOD9507700
_publ_section_title
;
Structure prediction by ZEFSAII (Michael W. Deem and Ramdas Pophale) SiO2 
 PCOD9507700
Probable space group: C C C A
;
_chemical_formula_sum "Si O2"
_cell_formula_units_Z 64
_cell_length_a 8.885905
_cell_length_b 15.965572
_cell_length_c 20.462630
_cell_angle_alpha 90.000000
_cell_angle_beta 90.000000
_cell_angle_gamma 90.000000
_cell_volume 2903.003771
_symmetry_space_group_name_H-M "C C C A"
_symmetry_group_IT_number 68
_space_group.IT_coordinate_system_code '2'
_symmetry_cell_setting 'orthorhombic'
loop_
_space_group_symop_operation_xyz
x,y,z
-x,1/2-y,z
x,1/2-y,1/2-z
-x,y,1/2-z
-x,-y,-z
x,1/2+y,-z
-x,1/2+y,1/2+z
x,-y,1/2+z
1/2+x,1/2+y,z
1/2-x,-y,z
1/2+x,-y,1/2-z
1/2-x,1/2+y,1/2-z
1/2-x,1/2-y,-z
1/2+x,y,-z
1/2-x,y,1/2+z
1/2+x,1/2-y,1/2+z
loop_
_atom_site_type_symbol
_atom_site_label
_atom_site_fract_x
_atom_site_fract_y
_atom_site_fract_z
Si Si1 0.432176 0.407894 0.818951
Si Si2 0.046878 0.340551 0.546672
Si Si3 0.412549 0.110928 0.184026
Si Si4 0.647072 0.415991 0.941454
O O1 0.500000 0.380417 0.750000
O O2 0.419399 0.509421 0.817247
O O3 0.264892 0.369847 0.822988
O O4 0.546206 0.393742 0.878699
O O5 0.224511 0.348874 0.544262
O O6 0.000000 0.250000 0.522323
O O7 0.995870 0.353701 0.621042
O O8 0.963922 0.410752 0.503184
O O9 0.500000 0.137485 0.250000
O O10 0.750000 0.500000 0.932052
#
# Coordination Sequence:
#
# PCOD9507700 Si02
#       4
#    16  16  16  16
#     4  10  21  37  66  98 127 164 217 277 326 388
#     4  12  26  42  64  94 135 175 216 275 335 392
#     4  10  21  39  64  95 131 170 215 269 335 394
#     4  12  24  42  67  98 129 172 225 271 326 394
#
# _framework density 22.046130000000002
#
# number of rings (size 3 to 8) (size 9 to 14) (size 15 to 20)
#    0.000    1.000    2.500    4.500    7.000    0.500 
#    0.000    0.000    0.000    5.250    0.000    0.000 
#    0.000    0.000    0.000    0.000    0.000    0.000 
#
# Total GULP energy -178854.047953 kJ/mol
# GULP energy per Si atom -5589.188999 kJ/mol
# Density = 2.199595 g / cm^3
# Si number density = 22.046130 Si / 1000 Ang^3
#
#
#
# Elastic Constant Matrix: (Units=GPa)
#
#
# Indices 1 2 3 4 5 6 
#
# 1 194.8332 26.8857 86.2133 0.0000 0.0000 0.0000
# 2 26.8857 52.8654 10.9438 0.0000 0.0000 0.0000
# 3 86.2133 10.9438 162.3220 0.0000 0.0000 0.0000
# 4 0.0000 0.0000 0.0000 -0.4277 0.0000 0.0000
# 5 0.0000 0.0000 0.0000 0.0000 42.7080 0.0000
# 6 0.0000 0.0000 0.0000 0.0000 0.0000 33.2697
#
#
#
# Elastic Compliance Matrix: (Units=1/GPa)
#
#
# Indices 1 2 3 4 5 6 
#
# 1 0.007116 -0.002877 -0.003586 0.000000 0.000000 0.000000
# 2 -0.002877 0.020347 0.000156 0.000000 0.000000 0.000000
# 3 -0.003586 0.000156 0.008054 0.000000 0.000000 0.000000
# 4 0.000000 0.000000 0.000000 -2.338124 0.000000 0.000000
# 5 0.000000 0.000000 0.000000 0.000000 0.023415 0.000000
# 6 0.000000 0.000000 0.000000 0.000000 0.000000 0.030057
#
#
# Mechanical properties :
#
#
# Convention : Reuss Voigt Hill
#
# Bulk Modulus (GPa) = 43.65891 73.12291 58.39091
# Shear Modulus (GPa) = -2.24327 34.17519 15.96596
#
# Velocity S-wave (km/s) = -1.00982 3.94149 2.69403
# Velocity P-wave (km/s) = 4.29962 7.34533 6.01833
#
# Compressibility (1/GPa) = 0.02290483
#
# Stress axis : x y z
#
# Youngs Moduli (GPa) = 140.52410 49.14799 124.15432
#
# Poissons Ratio (x) = 0.14139 0.44517
# Poissons Ratio (y) = 0.40426 -0.01939
# Poissons Ratio (z) = 0.50387 -0.00768
#
# Static dielectric constant tensor:
#      x y z
#    x 1.573670 0.000000 0.000000 
#    y 0.000000 1.875400 0.000000 
#    z 0.000000 0.000000 1.765970 
# 
# From -- ./inp_files/27893.got.cif
#   From: 2010.05.17/outbox.cif.g08.bks.cpg/sg68_14_cif.got.tgz:27893.got - 2010.06.03 18:57:09.
