data_PCOD9507138
_publ_section_title
;
Structure prediction by ZEFSAII (Michael W. Deem and Ramdas Pophale) SiO2 
 PCOD9507138
Probable space group: C C C A
;
_chemical_formula_sum "Si O2"
_cell_formula_units_Z 56
_cell_length_a 13.156142
_cell_length_b 10.118475
_cell_length_c 17.541409
_cell_angle_alpha 90.000000
_cell_angle_beta 90.000000
_cell_angle_gamma 90.000000
_cell_volume 2335.114014
_symmetry_space_group_name_H-M "C C C A"
_symmetry_group_IT_number 68
_space_group.IT_coordinate_system_code '2'
_symmetry_cell_setting 'orthorhombic'
loop_
_space_group_symop_operation_xyz
x,y,z
-x,1/2-y,z
x,1/2-y,1/2-z
-x,y,1/2-z
-x,-y,-z
x,1/2+y,-z
-x,1/2+y,1/2+z
x,-y,1/2+z
1/2+x,1/2+y,z
1/2-x,-y,z
1/2+x,-y,1/2-z
1/2-x,1/2+y,1/2-z
1/2-x,1/2-y,-z
1/2+x,y,-z
1/2-x,y,1/2+z
1/2+x,1/2-y,1/2+z
loop_
_atom_site_type_symbol
_atom_site_label
_atom_site_fract_x
_atom_site_fract_y
_atom_site_fract_z
Si Si1 0.172199 0.219468 0.114347
Si Si2 0.075447 0.984880 0.821188
Si Si3 0.657715 0.389678 0.456910
Si Si4 0.750000 0.500000 0.225252
O O1 0.111098 0.338280 0.153758
O O2 0.280742 0.270549 0.082731
O O3 0.193363 0.105456 0.174242
O O4 0.120790 0.156842 0.039439
O O5 0.000000 0.979482 0.750000
O O6 0.067447 0.059065 0.902211
O O7 0.169482 0.062692 0.782413
O O8 0.750000 0.500000 0.464697
#
# Coordination Sequence:
#
# PCOD9507138 Si02
#       4
#    16  16  16   8
#     4  10  20  38  71  96 134 185 226 285 354 421
#     4  11  24  42  69 106 142 180 234 296 354 415
#     4   9  18  40  69 100 132 180 239 282 352 417
#     4  12  22  38  66 102 138 182 234 286 358 412
#
# _framework density 23.981698999999999
#
# number of rings (size 3 to 8) (size 9 to 14) (size 15 to 20)
#    0.000    1.714    5.714    0.857    0.000    2.286 
#    0.000    4.286   12.571    0.000    0.000    0.000 
#    0.000    0.000    0.000    0.000    0.000    0.000 
#
# Total GULP energy -156312.977243 kJ/mol
# GULP energy per Si atom -5582.606330 kJ/mol
# Density = 2.392712 g / cm^3
# Si number density = 23.981699 Si / 1000 Ang^3
#
#
#
# Elastic Constant Matrix: (Units=GPa)
#
#
# Indices 1 2 3 4 5 6 
#
# 1 58.7340 4.2871 50.9867 0.0000 0.0000 0.0000
# 2 4.2871 52.9142 64.0712 0.0000 0.0000 0.0000
# 3 50.9867 64.0712 222.6019 0.0000 0.0000 0.0000
# 4 0.0000 0.0000 0.0000 67.1536 0.0000 0.0000
# 5 0.0000 0.0000 0.0000 0.0000 34.2998 0.0000
# 6 0.0000 0.0000 0.0000 0.0000 0.0000 17.9415
#
#
#
# Elastic Compliance Matrix: (Units=1/GPa)
#
#
# Indices 1 2 3 4 5 6 
#
# 1 0.022766 0.006861 -0.007189 0.000000 0.000000 0.000000
# 2 0.006861 0.031076 -0.010516 0.000000 0.000000 0.000000
# 3 -0.007189 -0.010516 0.009166 0.000000 0.000000 0.000000
# 4 0.000000 0.000000 0.000000 0.014891 0.000000 0.000000
# 5 0.000000 0.000000 0.000000 0.000000 0.029155 0.000000
# 6 0.000000 0.000000 0.000000 0.000000 0.000000 0.055737
#
#
# Mechanical properties :
#
#
# Convention : Reuss Voigt Hill
#
# Bulk Modulus (GPa) = 24.20216 63.66002 43.93109
# Shear Modulus (GPa) = 25.22037 38.20600 31.71318
#
# Velocity S-wave (km/s) = 3.24643 3.99574 3.64041
# Velocity P-wave (km/s) = 4.91592 6.92031 6.00238
#
# Compressibility (1/GPa) = 0.04131863
#
# Stress axis : x y z
#
# Youngs Moduli (GPa) = 43.92505 32.17921 109.10119
#
# Poissons Ratio (x) = -0.22077 0.78435
# Poissons Ratio (y) = -0.30135 1.14730
# Poissons Ratio (z) = 0.31579 0.33840
#
# Static dielectric constant tensor:
#      x y z
#    x 2.046390 0.000000 0.000000 
#    y 0.000000 1.915190 0.000000 
#    z 0.000000 0.000000 1.893730 
# 
# From -- ./inp_files/30411.got.cif
#   From: 2010.05.17/outbox.cif.g08.bks.cpg/sg68_16_cif.got.tgz:30411.got - 2010.06.03 18:57:09.
