data_PCOD9507072
_publ_section_title
;
Structure prediction by ZEFSAII (Michael W. Deem and Ramdas Pophale) SiO2 
 PCOD9507072
Probable space group: C C C A
;
_chemical_formula_sum "Si O2"
_cell_formula_units_Z 64
_cell_length_a 10.017713
_cell_length_b 10.815327
_cell_length_c 23.822668
_cell_angle_alpha 90.000000
_cell_angle_beta 90.000000
_cell_angle_gamma 90.000000
_cell_volume 2581.063198
_symmetry_space_group_name_H-M "C C C A"
_symmetry_group_IT_number 68
_space_group.IT_coordinate_system_code '2'
_symmetry_cell_setting 'orthorhombic'
loop_
_space_group_symop_operation_xyz
x,y,z
-x,1/2-y,z
x,1/2-y,1/2-z
-x,y,1/2-z
-x,-y,-z
x,1/2+y,-z
-x,1/2+y,1/2+z
x,-y,1/2+z
1/2+x,1/2+y,z
1/2-x,-y,z
1/2+x,-y,1/2-z
1/2-x,1/2+y,1/2-z
1/2-x,1/2-y,-z
1/2+x,y,-z
1/2-x,y,1/2+z
1/2+x,1/2-y,1/2+z
loop_
_atom_site_type_symbol
_atom_site_label
_atom_site_fract_x
_atom_site_fract_y
_atom_site_fract_z
Si Si1 0.897063 0.863422 0.107418
Si Si2 0.414697 0.374642 0.986849
Si Si3 0.500000 0.593494 0.250000
Si Si4 0.616515 0.428049 0.636809
Si Si5 0.750000 0.000000 0.689999
O O1 0.777585 0.880192 0.151172
O O2 0.000000 0.750000 0.113758
O O3 0.833886 0.865379 0.045120
O O4 0.993057 0.981008 0.120527
O O5 0.500000 0.250000 0.987360
O O6 0.350021 0.374891 0.925299
O O7 0.500000 0.500000 0.000000
O O8 0.431149 0.645659 0.307602
O O9 0.620821 0.513678 0.272954
O O10 0.750000 0.500000 0.653080
#
# Coordination Sequence:
#
# PCOD9507072 Si02
#       5
#    16  16   8  16   8
#     4   9  20  40  64  96 129 172 231 289 360 435
#     4   9  19  39  64  97 136 176 223 290 364 437
#     4  10  20  40  66  88 134 188 237 288 355 432
#     4  10  20  38  63  89 131 177 225 291 354 422
#     4  10  20  38  70  94 130 184 240 296 360 430
#
# _framework density 24.795985000000002
#
# number of rings (size 3 to 8) (size 9 to 14) (size 15 to 20)
#    0.000    2.500    1.250    0.000    1.750    0.000 
#   13.500   14.375    0.000    0.000    0.000    0.000 
#    0.000    0.000    0.000    0.000    0.000    0.000 
#
# Total GULP energy -178166.744719 kJ/mol
# GULP energy per Si atom -5567.710772 kJ/mol
# Density = 2.473955 g / cm^3
# Si number density = 24.795985 Si / 1000 Ang^3
#
#
#
# Elastic Constant Matrix: (Units=GPa)
#
#
# Indices 1 2 3 4 5 6 
#
# 1 109.9376 18.7456 66.8918 0.0000 0.0000 0.0000
# 2 18.7456 84.1350 42.6754 0.0000 0.0000 0.0000
# 3 66.8918 42.6754 246.3985 0.0000 0.0000 0.0000
# 4 0.0000 0.0000 0.0000 -177.5152 0.0000 0.0000
# 5 0.0000 0.0000 0.0000 0.0000 12.8096 0.0000
# 6 0.0000 0.0000 0.0000 0.0000 0.0000 33.2564
#
#
#
# Elastic Compliance Matrix: (Units=1/GPa)
#
#
# Indices 1 2 3 4 5 6 
#
# 1 0.010976 -0.001024 -0.002802 0.000000 0.000000 0.000000
# 2 -0.001024 0.013126 -0.001995 0.000000 0.000000 0.000000
# 3 -0.002802 -0.001995 0.005165 0.000000 0.000000 0.000000
# 4 0.000000 0.000000 0.000000 -0.005633 0.000000 0.000000
# 5 0.000000 0.000000 0.000000 0.000000 0.078066 0.000000
# 6 0.000000 0.000000 0.000000 0.000000 0.000000 0.030069
#
#
# Mechanical properties :
#
#
# Convention : Reuss Voigt Hill
#
# Bulk Modulus (GPa) = 56.74379 77.45517 67.09948
# Shear Modulus (GPa) = 33.49257 -5.47929 14.00664
#
# Velocity S-wave (km/s) = 3.67921 -1.48813 2.37929
# Velocity P-wave (km/s) = 6.40177 5.32467 5.88790
#
# Compressibility (1/GPa) = 0.01762308
#
# Stress axis : x y z
#
# Youngs Moduli (GPa) = 91.10985 76.18520 193.61736
#
# Poissons Ratio (x) = 0.07802 0.54258
# Poissons Ratio (y) = 0.09330 0.38634
# Poissons Ratio (z) = 0.25532 0.15202
#
# Static dielectric constant tensor:
#      x y z
#    x 1.952070 0.000000 0.000000 
#    y 0.000000 2.011850 0.000000 
#    z 0.000000 0.000000 2.075610 
# 
# From -- ./inp_files/43902.got.cif
#   From: 2010.05.17/outbox.cif.g08.bks.cpg/sg68_22_cif.got.tgz:43902.got - 2010.06.03 18:57:09.
