data_PCOD9507035
_publ_section_title
;
Structure prediction by ZEFSAII (Michael W. Deem and Ramdas Pophale) SiO2 
 PCOD9507035
Probable space group: C C C A
;
_chemical_formula_sum "Si O2"
_cell_formula_units_Z 80
_cell_length_a 24.164890
_cell_length_b 17.658139
_cell_length_c 10.032275
_cell_angle_alpha 90.000000
_cell_angle_beta 90.000000
_cell_angle_gamma 90.000000
_cell_volume 4280.841833
_symmetry_space_group_name_H-M "C C C A"
_symmetry_group_IT_number 68
_space_group.IT_coordinate_system_code '2'
_symmetry_cell_setting 'orthorhombic'
loop_
_space_group_symop_operation_xyz
x,y,z
-x,1/2-y,z
x,1/2-y,1/2-z
-x,y,1/2-z
-x,-y,-z
x,1/2+y,-z
-x,1/2+y,1/2+z
x,-y,1/2+z
1/2+x,1/2+y,z
1/2-x,-y,z
1/2+x,-y,1/2-z
1/2-x,1/2+y,1/2-z
1/2-x,1/2-y,-z
1/2+x,y,-z
1/2-x,y,1/2+z
1/2+x,1/2-y,1/2+z
loop_
_atom_site_type_symbol
_atom_site_label
_atom_site_fract_x
_atom_site_fract_y
_atom_site_fract_z
Si Si1 0.314396 0.829215 0.814064
Si Si2 0.354303 0.915525 0.065672
Si Si3 0.645697 0.415525 0.065672
Si Si4 0.539892 0.500000 0.624513
Si Si5 0.685603 0.329215 0.814064
O O1 0.333771 0.750000 0.750000
O O2 0.346646 0.858403 0.943613
O O3 0.320727 0.888652 0.694016
O O4 0.250000 0.820480 0.852406
O O5 0.417478 0.929457 0.113763
O O6 0.320728 0.888652 0.194016
O O7 0.336094 1.000000 0.020610
O O8 0.582522 0.429457 0.113763
O O9 0.653354 0.358403 0.943613
O O10 0.500000 0.500000 0.750000
O O11 0.500000 0.500000 0.500000
O O12 0.666229 0.250000 0.750000
#
# Coordination Sequence:
#
# PCOD9507035 Si02
#       5
#    16  16  16  16  16
#     4  11  22  37  56  84 126 163 188 229 296 357
#     4  10  22  36  59  89 109 156 200 248 281 349
#     4  10  22  36  59  89 109 156 200 248 281 349
#     4  10  20  38  61  84 111 144 194 252 308 340
#     4  11  22  37  56  84 126 163 188 229 296 357
#
# _framework density 18.687913000000002
#
# number of rings (size 3 to 8) (size 9 to 14) (size 15 to 20)
#    1.200    0.400    0.000    6.000    0.000    8.000 
#    0.000    0.000    0.000   18.000    0.000    0.000 
#    0.000    0.000    0.000    0.000    0.000    0.000 
#
# Total GULP energy -222959.469602 kJ/mol
# GULP energy per Si atom -5573.986740 kJ/mol
# Density = 1.864538 g / cm^3
# Si number density = 18.687913 Si / 1000 Ang^3
#
#
#
# Elastic Constant Matrix: (Units=GPa)
#
#
# Indices 1 2 3 4 5 6 
#
# 1 74.7011 32.0256 47.3462 0.0000 0.0000 0.0000
# 2 32.0256 64.3005 31.5316 0.0000 0.0000 0.0000
# 3 47.3462 31.5316 143.5592 0.0000 0.0000 0.0000
# 4 0.0000 0.0000 0.0000 40.2988 0.0000 0.0000
# 5 0.0000 0.0000 0.0000 0.0000 40.8707 0.0000
# 6 0.0000 0.0000 0.0000 0.0000 0.0000 -48.6259
#
#
#
# Elastic Compliance Matrix: (Units=1/GPa)
#
#
# Indices 1 2 3 4 5 6 
#
# 1 0.019633 -0.007400 -0.004850 0.000000 0.000000 0.000000
# 2 -0.007400 0.020219 -0.002000 0.000000 0.000000 0.000000
# 3 -0.004850 -0.002000 0.009005 0.000000 0.000000 0.000000
# 4 0.000000 0.000000 0.000000 0.024815 0.000000 0.000000
# 5 0.000000 0.000000 0.000000 0.000000 0.024467 0.000000
# 6 0.000000 0.000000 0.000000 0.000000 0.000000 -0.020565
#
#
# Mechanical properties :
#
#
# Convention : Reuss Voigt Hill
#
# Bulk Modulus (GPa) = 49.12574 56.04084 52.58329
# Shear Modulus (GPa) = 44.30321 17.95255 31.12788
#
# Velocity S-wave (km/s) = 4.87425 3.10280 4.08569
# Velocity P-wave (km/s) = 7.61724 6.54899 7.10323
#
# Compressibility (1/GPa) = 0.02035593
#
# Stress axis : x y z
#
# Youngs Moduli (GPa) = 50.93453 49.45931 111.05538
#
# Poissons Ratio (x) = 0.36601 0.53858
# Poissons Ratio (y) = 0.37693 0.22213
# Poissons Ratio (z) = 0.24701 0.09893
#
# Static dielectric constant tensor:
#      x y z
#    x 1.643830 0.000000 0.000000 
#    y 0.000000 1.729760 0.000000 
#    z 0.000000 0.000000 1.617040 
# 
# From -- ./inp_files/8775.got.cif
#   From: 2010.05.17/outbox.cif.g08.bks.cpg/sg68_5_cif.got.tgz:8775.got - 2010.06.03 18:57:09.
