data_PCOD9507500
_publ_section_title
;
Structure prediction by ZEFSAII (Michael W. Deem and Ramdas Pophale) SiO2 
 PCOD9507500
Probable space group: C C C A
;
_chemical_formula_sum "Si O2"
_cell_formula_units_Z 52
_cell_length_a 14.806247
_cell_length_b 7.744705
_cell_length_c 20.857763
_cell_angle_alpha 90.000000
_cell_angle_beta 90.000000
_cell_angle_gamma 90.000000
_cell_volume 2391.760000
_symmetry_space_group_name_H-M "C C C A"
_symmetry_group_IT_number 68
_space_group.IT_coordinate_system_code '2'
_symmetry_cell_setting 'orthorhombic'
loop_
_space_group_symop_operation_xyz
x,y,z
-x,1/2-y,z
x,1/2-y,1/2-z
-x,y,1/2-z
-x,-y,-z
x,1/2+y,-z
-x,1/2+y,1/2+z
x,-y,1/2+z
1/2+x,1/2+y,z
1/2-x,-y,z
1/2+x,-y,1/2-z
1/2-x,1/2+y,1/2-z
1/2-x,1/2-y,-z
1/2+x,y,-z
1/2-x,y,1/2+z
1/2+x,1/2-y,1/2+z
loop_
_atom_site_type_symbol
_atom_site_label
_atom_site_fract_x
_atom_site_fract_y
_atom_site_fract_z
Si Si1 0.905610 0.916609 0.427402
Si Si2 0.398792 0.580033 0.636845
Si Si3 0.168773 0.715919 0.551832
Si Si4 0.500000 0.750000 0.750000
O O1 0.858626 0.761957 0.387786
O O2 0.904600 0.857167 0.500922
O O3 0.005320 0.936516 0.399725
O O4 0.856065 0.097324 0.422466
O O5 0.338605 0.422128 0.610265
O O6 0.434222 0.624561 0.708244
O O7 0.250000 0.750000 0.500000
#
# Coordination Sequence:
#
# PCOD9507500 Si02
#       4
#    16  16  16   4
#     4  10  21  34  56  90 127 164 201 268 342 394
#     4  10  22  38  62  89 126 165 225 283 325 401
#     4  12  22  33  56  97 135 163 201 272 358 408
#     4   8  20  44  62  88 116 186 236 276 318 404
#
# _framework density 21.741311
#
# number of rings (size 3 to 8) (size 9 to 14) (size 15 to 20)
#    0.000    1.846    3.077    2.769    4.308    0.000 
#    0.000   12.308    0.000    0.000  128.000    0.000 
#    0.000    0.000    0.000    0.000    0.000    0.000 
#
# Total GULP energy -144776.022157 kJ/mol
# GULP energy per Si atom -5568.308544 kJ/mol
# Density = 2.169183 g / cm^3
# Si number density = 21.741311 Si / 1000 Ang^3
#
#
#
# Elastic Constant Matrix: (Units=GPa)
#
#
# Indices 1 2 3 4 5 6 
#
# 1 87.8545 58.8774 30.5200 0.0000 0.0000 0.0000
# 2 58.8774 240.8439 58.7507 0.0000 0.0000 0.0000
# 3 30.5200 58.7507 123.7928 0.0000 0.0000 0.0000
# 4 0.0000 0.0000 0.0000 14.2719 0.0000 0.0000
# 5 0.0000 0.0000 0.0000 0.0000 15.5877 0.0000
# 6 0.0000 0.0000 0.0000 0.0000 0.0000 32.9554
#
#
#
# Elastic Compliance Matrix: (Units=1/GPa)
#
#
# Indices 1 2 3 4 5 6 
#
# 1 0.014069 -0.002933 -0.002077 0.000000 0.000000 0.000000
# 2 -0.002933 0.005307 -0.001796 0.000000 0.000000 0.000000
# 3 -0.002077 -0.001796 0.009442 0.000000 0.000000 0.000000
# 4 0.000000 0.000000 0.000000 0.070068 0.000000 0.000000
# 5 0.000000 0.000000 0.000000 0.000000 0.064153 0.000000
# 6 0.000000 0.000000 0.000000 0.000000 0.000000 0.030344
#
#
# Mechanical properties :
#
#
# Convention : Reuss Voigt Hill
#
# Bulk Modulus (GPa) = 65.75404 83.19860 74.47632
# Shear Modulus (GPa) = 23.57787 32.85255 28.21521
#
# Velocity S-wave (km/s) = 3.29671 3.89146 3.60636
# Velocity P-wave (km/s) = 6.69332 7.65127 7.18827
#
# Compressibility (1/GPa) = 0.01520819
#
# Stress axis : x y z
#
# Youngs Moduli (GPa) = 71.07618 188.42858 105.90753
#
# Poissons Ratio (x) = 0.55263 0.21995
# Poissons Ratio (y) = 0.20846 0.19017
# Poissons Ratio (z) = 0.14761 0.33834
#
# Static dielectric constant tensor:
#      x y z
#    x 1.968200 0.000000 0.000000 
#    y 0.000000 1.830040 0.000000 
#    z 0.000000 0.000000 1.812940 
# 
# From -- ./inp_files/38104.got.cif
#   From: 2010.05.17/outbox.cif.g08.bks.cpg/sg68_20_cif.got.tgz:38104.got - 2010.06.03 18:57:09.
