data_PCOD9507597
_publ_section_title
;
Structure prediction by ZEFSAII (Michael W. Deem and Ramdas Pophale) SiO2 
 PCOD9507597
Probable space group: C C C A
;
_chemical_formula_sum "Si O2"
_cell_formula_units_Z 88
_cell_length_a 25.231802
_cell_length_b 20.018376
_cell_length_c 9.822389
_cell_angle_alpha 90.000000
_cell_angle_beta 90.000000
_cell_angle_gamma 90.000000
_cell_volume 4961.285733
_symmetry_space_group_name_H-M "C C C A"
_symmetry_group_IT_number 68
_space_group.IT_coordinate_system_code '2'
_symmetry_cell_setting 'orthorhombic'
loop_
_space_group_symop_operation_xyz
x,y,z
-x,1/2-y,z
x,1/2-y,1/2-z
-x,y,1/2-z
-x,-y,-z
x,1/2+y,-z
-x,1/2+y,1/2+z
x,-y,1/2+z
1/2+x,1/2+y,z
1/2-x,-y,z
1/2+x,-y,1/2-z
1/2-x,1/2+y,1/2-z
1/2-x,1/2-y,-z
1/2+x,y,-z
1/2-x,y,1/2+z
1/2+x,1/2-y,1/2+z
loop_
_atom_site_type_symbol
_atom_site_label
_atom_site_fract_x
_atom_site_fract_y
_atom_site_fract_z
Si Si1 0.808631 0.877395 0.652764
Si Si2 0.551277 0.453806 0.487991
Si Si3 0.277163 0.570917 0.864730
Si Si4 0.468586 0.313745 0.891800
Si Si5 0.878976 0.498936 0.243944
Si Si6 0.369919 0.750000 0.250000
O O1 0.761717 0.892226 0.760062
O O2 0.787587 0.887769 0.500715
O O3 0.834544 0.805595 0.676986
O O4 0.852326 0.934982 0.682581
O O5 0.500000 0.500000 0.500000
O O6 0.534366 0.377714 0.513961
O O7 0.579647 0.467180 0.345385
O O8 0.592052 0.473803 0.608026
O O9 0.250000 0.500000 0.904116
O O10 0.332075 0.549879 0.793999
O O11 0.500000 0.250000 0.949710
O O12 0.500000 0.330679 0.750000
O O13 0.410057 0.289069 0.850553
#
# Coordination Sequence:
#
# PCOD9507597 Si02
#       6
#    16  16  16  16  16   8
#     4  11  22  38  60  90 118 163 206 246 307 363
#     4  12  23  37  63  96 122 155 211 254 304 365
#     4  10  22  38  61  88 123 156 202 256 308 357
#     4   9  20  37  59  86 123 168 205 246 305 371
#     4  11  22  38  62  92 124 156 197 263 304 354
#     4  10  21  36  62  84 124 164 207 246 300 374
#
# _framework density 17.737338000000001
#
# number of rings (size 3 to 8) (size 9 to 14) (size 15 to 20)
#    0.000    1.636    3.636    3.273    5.091    0.727 
#    0.000    0.000    0.000    6.545    0.000    0.000 
#    0.000    0.000    0.000    0.000    0.000    0.000 
#
# Total GULP energy -245789.802660 kJ/mol
# GULP energy per Si atom -5586.131879 kJ/mol
# Density = 1.769697 g / cm^3
# Si number density = 17.737338 Si / 1000 Ang^3
#
#
#
# Elastic Constant Matrix: (Units=GPa)
#
#
# Indices 1 2 3 4 5 6 
#
# 1 90.4390 44.0788 18.7576 0.0000 0.0000 0.0000
# 2 44.0788 108.1139 35.7882 0.0000 0.0000 0.0000
# 3 18.7576 35.7882 52.3362 0.0000 0.0000 0.0000
# 4 0.0000 0.0000 0.0000 28.4639 0.0000 0.0000
# 5 0.0000 0.0000 0.0000 0.0000 25.9646 0.0000
# 6 0.0000 0.0000 0.0000 0.0000 0.0000 16.3749
#
#
#
# Elastic Compliance Matrix: (Units=1/GPa)
#
#
# Indices 1 2 3 4 5 6 
#
# 1 0.013881 -0.005187 -0.001428 0.000000 0.000000 0.000000
# 2 -0.005187 0.013894 -0.007642 0.000000 0.000000 0.000000
# 3 -0.001428 -0.007642 0.024845 0.000000 0.000000 0.000000
# 4 0.000000 0.000000 0.000000 0.035132 0.000000 0.000000
# 5 0.000000 0.000000 0.000000 0.000000 0.038514 0.000000
# 6 0.000000 0.000000 0.000000 0.000000 0.000000 0.061069
#
#
# Mechanical properties :
#
#
# Convention : Reuss Voigt Hill
#
# Bulk Modulus (GPa) = 41.48339 49.79315 45.63827
# Shear Modulus (GPa) = 22.33294 24.31163 23.32228
#
# Velocity S-wave (km/s) = 3.55222 3.70624 3.63005
# Velocity P-wave (km/s) = 6.34529 6.81531 6.58449
#
# Compressibility (1/GPa) = 0.02410603
#
# Stress axis : x y z
#
# Youngs Moduli (GPa) = 72.03898 71.97467 40.24993
#
# Poissons Ratio (x) = 0.37331 0.05749
# Poissons Ratio (y) = 0.37364 0.30758
# Poissons Ratio (z) = 0.10290 0.55002
#
# Static dielectric constant tensor:
#      x y z
#    x 1.608410 0.000000 0.000000 
#    y 0.000000 1.583380 0.000000 
#    z 0.000000 0.000000 1.584700 
# 
# From -- ./inp_files/7117.got.cif
#   From: 2010.05.17/outbox.cif.g08.bks.cpg/sg68_4_cif.got.tgz:7117.got - 2010.06.03 18:57:09.
