data_PCOD9507986
_publ_section_title
;
Structure prediction by ZEFSAII (Michael W. Deem and Ramdas Pophale) SiO2 
 PCOD9507986
Probable space group: C C C A
;
_chemical_formula_sum "Si O2"
_cell_formula_units_Z 60
_cell_length_a 19.447245
_cell_length_b 12.659338
_cell_length_c 13.719328
_cell_angle_alpha 90.000000
_cell_angle_beta 90.000000
_cell_angle_gamma 90.000000
_cell_volume 3377.551038
_symmetry_space_group_name_H-M "C C C A"
_symmetry_group_IT_number 68
_space_group.IT_coordinate_system_code '2'
_symmetry_cell_setting 'orthorhombic'
loop_
_space_group_symop_operation_xyz
x,y,z
-x,1/2-y,z
x,1/2-y,1/2-z
-x,y,1/2-z
-x,-y,-z
x,1/2+y,-z
-x,1/2+y,1/2+z
x,-y,1/2+z
1/2+x,1/2+y,z
1/2-x,-y,z
1/2+x,-y,1/2-z
1/2-x,1/2+y,1/2-z
1/2-x,1/2-y,-z
1/2+x,y,-z
1/2-x,y,1/2+z
1/2+x,1/2-y,1/2+z
loop_
_atom_site_type_symbol
_atom_site_label
_atom_site_fract_x
_atom_site_fract_y
_atom_site_fract_z
Si Si1 0.067431 0.573820 0.383294
Si Si2 0.500000 0.750000 0.750000
Si Si3 0.941870 0.416666 0.386383
Si Si4 0.614318 0.750000 0.250000
Si Si5 0.672437 0.470248 0.744242
O O1 0.066214 0.593927 0.498309
O O2 0.140817 0.537944 0.343206
O O3 0.043244 0.673685 0.320620
O O4 0.013063 0.477447 0.365298
O O5 0.931433 0.304553 0.333372
O O6 0.879797 0.483579 0.336201
O O7 0.661773 0.847207 0.283790
O O8 0.750000 0.500000 0.766539
#
# Coordination Sequence:
#
# PCOD9507986 Si02
#       5
#    16   4  16   8  16
#     4  11  22  38  61  91 118 162 195 260 303 348
#     4  12  20  38  56  94 124 144 194 268 300 346
#     4   9  21  41  61  85 119 161 206 244 301 353
#     4   8  20  40  62  89 111 166 198 250 279 367
#     4  10  21  40  60  89 125 158 199 248 297 363
#
# _framework density 17.76435
#
# number of rings (size 3 to 8) (size 9 to 14) (size 15 to 20)
#    1.600    0.533    2.667    0.000    0.000    8.533 
#    0.000    1.333    0.000    0.000    0.000    0.000 
#    0.000    0.000    0.000    0.000    0.000    0.000 
#
# Total GULP energy -167046.090620 kJ/mol
# GULP energy per Si atom -5568.203021 kJ/mol
# Density = 1.772392 g / cm^3
# Si number density = 17.764350 Si / 1000 Ang^3
#
#
#
# Elastic Constant Matrix: (Units=GPa)
#
#
# Indices 1 2 3 4 5 6 
#
# 1 95.9264 9.6477 16.8887 0.0000 0.0000 0.0000
# 2 9.6477 80.8194 20.2020 0.0000 0.0000 0.0000
# 3 16.8887 20.2020 110.3164 0.0000 0.0000 0.0000
# 4 0.0000 0.0000 0.0000 26.5513 0.0000 0.0000
# 5 0.0000 0.0000 0.0000 0.0000 8.9311 0.0000
# 6 0.0000 0.0000 0.0000 0.0000 0.0000 6.8806
#
#
#
# Elastic Compliance Matrix: (Units=1/GPa)
#
#
# Indices 1 2 3 4 5 6 
#
# 1 0.010778 -0.000916 -0.001482 0.000000 0.000000 0.000000
# 2 -0.000916 0.013045 -0.002249 0.000000 0.000000 0.000000
# 3 -0.001482 -0.002249 0.009704 0.000000 0.000000 0.000000
# 4 0.000000 0.000000 0.000000 0.037663 0.000000 0.000000
# 5 0.000000 0.000000 0.000000 0.000000 0.111968 0.000000
# 6 0.000000 0.000000 0.000000 0.000000 0.000000 0.145337
#
#
# Mechanical properties :
#
#
# Convention : Reuss Voigt Hill
#
# Bulk Modulus (GPa) = 41.26750 42.28213 41.77481
# Shear Modulus (GPa) = 14.45650 24.49417 19.47534
#
# Velocity S-wave (km/s) = 2.85580 3.71730 3.31466
# Velocity P-wave (km/s) = 5.84423 6.50214 6.18194
#
# Compressibility (1/GPa) = 0.02423214
#
# Stress axis : x y z
#
# Youngs Moduli (GPa) = 92.78374 76.65946 103.05513
#
# Poissons Ratio (x) = 0.07023 0.15275
# Poissons Ratio (y) = 0.08500 0.23173
# Poissons Ratio (z) = 0.13753 0.17238
#
# Static dielectric constant tensor:
#      x y z
#    x 1.593360 0.000000 0.000000 
#    y 0.000000 1.635800 0.000000 
#    z 0.000000 0.000000 1.602320 
# 
# From -- ./inp_files/24216.got.cif
#   From: 2010.05.17/outbox.cif.g08.bks.cpg/sg68_13_cif.got.tgz:24216.got - 2010.06.03 18:57:09.
