data_PCOD9507008
_publ_section_title
;
Structure prediction by ZEFSAII (Michael W. Deem and Ramdas Pophale) SiO2 
 PCOD9507008
Probable space group: C C C A
;
_chemical_formula_sum "Si O2"
_cell_formula_units_Z 112
_cell_length_a 14.137863
_cell_length_b 12.688446
_cell_length_c 30.568056
_cell_angle_alpha 90.000000
_cell_angle_beta 90.000000
_cell_angle_gamma 90.000000
_cell_volume 5483.527489
_symmetry_space_group_name_H-M "C C C A"
_symmetry_group_IT_number 68
_space_group.IT_coordinate_system_code '2'
_symmetry_cell_setting 'orthorhombic'
loop_
_space_group_symop_operation_xyz
x,y,z
-x,1/2-y,z
x,1/2-y,1/2-z
-x,y,1/2-z
-x,-y,-z
x,1/2+y,-z
-x,1/2+y,1/2+z
x,-y,1/2+z
1/2+x,1/2+y,z
1/2-x,-y,z
1/2+x,-y,1/2-z
1/2-x,1/2+y,1/2-z
1/2-x,1/2-y,-z
1/2+x,y,-z
1/2-x,y,1/2+z
1/2+x,1/2-y,1/2+z
loop_
_atom_site_type_symbol
_atom_site_label
_atom_site_fract_x
_atom_site_fract_y
_atom_site_fract_z
Si Si1 0.186671 0.898544 0.972434
Si Si2 0.323771 0.652794 0.607231
Si Si3 0.708298 0.654555 0.308829
Si Si4 0.517224 0.012341 0.578137
Si Si5 0.309046 0.899847 0.208765
Si Si6 0.999530 0.123808 0.166650
Si Si7 0.906764 0.819374 0.448743
O O1 0.240000 0.861897 0.928321
O O2 0.079769 0.926771 0.957335
O O3 0.250000 0.000000 0.986431
O O4 0.169279 0.819455 0.012408
O O5 0.285660 0.629310 0.655056
O O6 0.406814 0.571160 0.597010
O O7 0.365899 0.767238 0.595457
O O8 0.721708 0.618923 0.259043
O O9 0.704554 0.782865 0.311306
O O10 0.608843 0.601304 0.321666
O O11 0.481287 0.083875 0.617730
O O12 0.435717 0.940043 0.558417
O O13 0.420811 0.918975 0.199820
O O14 0.250000 0.000000 0.191645
O O15 0.000000 0.250000 0.168586
O O16 0.000000 0.750000 0.460309
#
# Coordination Sequence:
#
# PCOD9507008 Si02
#       7
#    16  16  16  16  16  16  16
#     4  10  20  38  58  88 119 161 211 247 296 367
#     4  10  21  38  63  85 118 162 206 242 304 369
#     4  10  21  41  61  89 120 158 201 244 306 370
#     4  10  21  37  61  86 119 160 201 251 300 369
#     4  10  23  38  63  91 124 152 195 257 308 362
#     4  10  21  39  59  89 119 154 201 249 299 367
#     4  10  22  39  57  86 126 163 197 256 309 350
#
# _framework density 20.424807999999999
#
# number of rings (size 3 to 8) (size 9 to 14) (size 15 to 20)
#    0.000    2.000    1.429    1.286    4.000    2.286 
#    5.143    0.000    0.000    0.000    0.000    0.000 
#    0.000    0.000    0.000    0.000    0.000    0.000 
#
# Total GULP energy -312214.636565 kJ/mol
# GULP energy per Si atom -5575.261367 kJ/mol
# Density = 2.037832 g / cm^3
# Si number density = 20.424808 Si / 1000 Ang^3
#
#
#
# Elastic Constant Matrix: (Units=GPa)
#
#
# Indices 1 2 3 4 5 6 
#
# 1 69.5112 23.8224 31.8299 0.0000 0.0000 0.0000
# 2 23.8224 46.4208 1.1785 0.0000 0.0000 0.0000
# 3 31.8299 1.1785 80.6820 0.0000 0.0000 0.0000
# 4 0.0000 0.0000 0.0000 32.9416 0.0000 0.0000
# 5 0.0000 0.0000 0.0000 0.0000 42.5188 0.0000
# 6 0.0000 0.0000 0.0000 0.0000 0.0000 27.2120
#
#
#
# Elastic Compliance Matrix: (Units=1/GPa)
#
#
# Indices 1 2 3 4 5 6 
#
# 1 0.022125 -0.011137 -0.008566 0.000000 0.000000 0.000000
# 2 -0.011137 0.027156 0.003997 0.000000 0.000000 0.000000
# 3 -0.008566 0.003997 0.015715 0.000000 0.000000 0.000000
# 4 0.000000 0.000000 0.000000 0.030357 0.000000 0.000000
# 5 0.000000 0.000000 0.000000 0.000000 0.023519 0.000000
# 6 0.000000 0.000000 0.000000 0.000000 0.000000 0.036748
#
#
# Mechanical properties :
#
#
# Convention : Reuss Voigt Hill
#
# Bulk Modulus (GPa) = 29.77548 34.47506 32.12527
# Shear Modulus (GPa) = 25.22350 29.85337 27.53843
#
# Velocity S-wave (km/s) = 3.51799 3.82727 3.67588
# Velocity P-wave (km/s) = 5.57776 6.03707 5.81196
#
# Compressibility (1/GPa) = 0.03358468
#
# Stress axis : x y z
#
# Youngs Moduli (GPa) = 45.19684 36.82440 63.63205
#
# Poissons Ratio (x) = 0.41011 0.54507
# Poissons Ratio (y) = 0.50336 -0.25434
# Poissons Ratio (z) = 0.38716 -0.14719
#
# Static dielectric constant tensor:
#      x y z
#    x 1.749580 0.000000 0.000000 
#    y 0.000000 1.762730 0.000000 
#    z 0.000000 0.000000 1.708260 
# 
# From -- ./inp_files/55244.got.cif
#   From: 2010.05.17/outbox.cif.g08.bks.cpg/sg68_28_cif.got.tgz:55244.got - 2010.06.03 18:57:09.
