data_PCOD9507699
_publ_section_title
;
Structure prediction by ZEFSAII (Michael W. Deem and Ramdas Pophale) SiO2 
 PCOD9507699
Probable space group: C C C A
;
_chemical_formula_sum "Si O2"
_cell_formula_units_Z 68
_cell_length_a 8.803116
_cell_length_b 20.711777
_cell_length_c 17.753773
_cell_angle_alpha 90.000000
_cell_angle_beta 90.000000
_cell_angle_gamma 90.000000
_cell_volume 3237.013039
_symmetry_space_group_name_H-M "C C C A"
_symmetry_group_IT_number 68
_space_group.IT_coordinate_system_code '2'
_symmetry_cell_setting 'orthorhombic'
loop_
_space_group_symop_operation_xyz
x,y,z
-x,1/2-y,z
x,1/2-y,1/2-z
-x,y,1/2-z
-x,-y,-z
x,1/2+y,-z
-x,1/2+y,1/2+z
x,-y,1/2+z
1/2+x,1/2+y,z
1/2-x,-y,z
1/2+x,-y,1/2-z
1/2-x,1/2+y,1/2-z
1/2-x,1/2-y,-z
1/2+x,y,-z
1/2-x,y,1/2+z
1/2+x,1/2-y,1/2+z
loop_
_atom_site_type_symbol
_atom_site_label
_atom_site_fract_x
_atom_site_fract_y
_atom_site_fract_z
Si Si1 0.914626 0.468197 0.324122
Si Si2 0.000000 0.750000 0.750000
Si Si3 0.684655 0.645682 0.009800
Si Si4 0.446367 0.054995 0.058937
Si Si5 0.083966 0.171394 0.390150
O O1 0.750000 0.500000 0.312384
O O2 0.896995 0.405509 0.376551
O O3 0.000000 0.445500 0.250000
O O4 0.023277 0.521595 0.361898
O O5 0.094363 0.706275 0.690502
O O6 0.782306 0.586371 0.045483
O O7 0.585339 0.679356 0.074921
O O8 0.561027 0.613873 0.954675
O O9 0.796239 0.686110 0.956283
O O10 0.500000 0.000000 0.000000
#
# Coordination Sequence:
#
# PCOD9507699 Si02
#       5
#    16   4  16  16  16
#     4  12  24  35  57  96 134 168 205 255 337 391
#     4  12  28  48  64  86 132 174 232 272 308 380
#     4  10  21  37  66  96 125 165 209 261 326 387
#     4  11  18  32  60  96 133 155 193 253 320 401
#     4  11  24  42  67  90 127 171 221 268 319 372
#
# _framework density 21.007021000000002
#
# number of rings (size 3 to 8) (size 9 to 14) (size 15 to 20)
#    0.000    0.941    8.235    0.706    3.294    0.941 
#    0.000    0.000    0.000    5.647    0.000    0.000 
#    0.000    0.000    0.000    0.000    0.000    0.000 
#
# Total GULP energy -189802.357061 kJ/mol
# GULP energy per Si atom -5582.422266 kJ/mol
# Density = 2.095921 g / cm^3
# Si number density = 21.007021 Si / 1000 Ang^3
#
#
#
# Elastic Constant Matrix: (Units=GPa)
#
#
# Indices 1 2 3 4 5 6 
#
# 1 111.8038 23.7630 40.0505 0.0000 0.0000 0.0000
# 2 23.7630 62.1967 22.5791 0.0000 0.0000 0.0000
# 3 40.0505 22.5791 102.4947 0.0000 0.0000 0.0000
# 4 0.0000 0.0000 0.0000 53.8046 0.0000 0.0000
# 5 0.0000 0.0000 0.0000 0.0000 28.2138 0.0000
# 6 0.0000 0.0000 0.0000 0.0000 0.0000 8.7429
#
#
#
# Elastic Compliance Matrix: (Units=1/GPa)
#
#
# Indices 1 2 3 4 5 6 
#
# 1 0.010840 -0.002830 -0.003612 0.000000 0.000000 0.000000
# 2 -0.002830 0.018215 -0.002907 0.000000 0.000000 0.000000
# 3 -0.003612 -0.002907 0.011808 0.000000 0.000000 0.000000
# 4 0.000000 0.000000 0.000000 0.018586 0.000000 0.000000
# 5 0.000000 0.000000 0.000000 0.000000 0.035444 0.000000
# 6 0.000000 0.000000 0.000000 0.000000 0.000000 0.114378
#
#
# Mechanical properties :
#
#
# Convention : Reuss Voigt Hill
#
# Bulk Modulus (GPa) = 45.11697 49.92003 47.51850
# Shear Modulus (GPa) = 21.24435 30.82577 26.03506
#
# Velocity S-wave (km/s) = 3.18354 3.83483 3.52426
# Velocity P-wave (km/s) = 5.91920 6.58961 6.26338
#
# Compressibility (1/GPa) = 0.02216461
#
# Stress axis : x y z
#
# Youngs Moduli (GPa) = 92.25314 54.90130 84.68523
#
# Poissons Ratio (x) = 0.15538 0.30590
# Poissons Ratio (y) = 0.26109 0.24615
# Poissons Ratio (z) = 0.33324 0.15958
#
# Static dielectric constant tensor:
#      x y z
#    x 1.770440 0.000000 0.000000 
#    y 0.000000 1.795840 0.000000 
#    z 0.000000 0.000000 1.761120 
# 
# From -- ./inp_files/25772.got.cif
#   From: 2010.05.17/outbox.cif.g08.bks.cpg/sg68_13_cif.got.tgz:25772.got - 2010.06.03 18:57:09.
