data_PCOD9507457
_publ_section_title
;
Structure prediction by ZEFSAII (Michael W. Deem and Ramdas Pophale) SiO2 
 PCOD9507457
Probable space group: C C C A
;
_chemical_formula_sum "Si O2"
_cell_formula_units_Z 80
_cell_length_a 8.198014
_cell_length_b 21.461947
_cell_length_c 21.797836
_cell_angle_alpha 90.000000
_cell_angle_beta 90.000000
_cell_angle_gamma 90.000000
_cell_volume 3835.227709
_symmetry_space_group_name_H-M "C C C A"
_symmetry_group_IT_number 68
_space_group.IT_coordinate_system_code '2'
_symmetry_cell_setting 'orthorhombic'
loop_
_space_group_symop_operation_xyz
x,y,z
-x,1/2-y,z
x,1/2-y,1/2-z
-x,y,1/2-z
-x,-y,-z
x,1/2+y,-z
-x,1/2+y,1/2+z
x,-y,1/2+z
1/2+x,1/2+y,z
1/2-x,-y,z
1/2+x,-y,1/2-z
1/2-x,1/2+y,1/2-z
1/2-x,1/2-y,-z
1/2+x,y,-z
1/2-x,y,1/2+z
1/2+x,1/2-y,1/2+z
loop_
_atom_site_type_symbol
_atom_site_label
_atom_site_fract_x
_atom_site_fract_y
_atom_site_fract_z
Si Si1 0.000000 0.750000 0.250000
Si Si2 0.864081 0.110100 0.478058
Si Si3 0.750000 0.500000 0.107199
Si Si4 0.391760 0.948219 0.886388
Si Si5 0.255300 0.821560 0.833539
Si Si6 0.000000 0.750000 0.750000
Si Si7 0.870828 0.302776 0.460091
O O1 0.102643 0.707397 0.205721
O O2 0.792468 0.057416 0.436196
O O3 0.909268 0.081897 0.544849
O O4 0.742308 0.168450 0.487599
O O5 0.020620 0.137003 0.443701
O O6 0.570061 0.477032 0.134529
O O7 0.311935 0.892639 0.845775
O O8 0.250000 0.000000 0.890665
O O9 0.099716 0.797474 0.794267
O O10 0.233322 0.789338 0.900044
O O11 0.000000 0.250000 0.477472
#
# Coordination Sequence:
#
# PCOD9507457 Si02
#       7
#     4  16   8  16  16   4  16
#     4  10  24  50  74  84 128 158 224 300 348 404
#     4  11  21  37  59  91 139 182 211 254 315 399
#     4  12  20  38  64  90 138 188 214 256 318 380
#     4  11  23  41  64  99 137 176 228 264 319 412
#     4  10  23  44  70  97 121 172 229 280 353 403
#     4  10  20  50  74  92 128 170 216 312 372 396
#     4  11  22  38  58  97 136 172 218 262 325 400
#
# _framework density 20.859259000000002
#
# number of rings (size 3 to 8) (size 9 to 14) (size 15 to 20)
#    0.000    1.200    4.000    3.600    0.000    1.600 
#   14.400    1.000    0.000    0.000    0.000    0.000 
#    0.000    0.000    0.000    0.000    0.000    0.000 
#
# Total GULP energy -222688.062457 kJ/mol
# GULP energy per Si atom -5567.201561 kJ/mol
# Density = 2.081178 g / cm^3
# Si number density = 20.859259 Si / 1000 Ang^3
#
#
#
# Elastic Constant Matrix: (Units=GPa)
#
#
# Indices 1 2 3 4 5 6 
#
# 1 131.8055 68.3788 30.8467 0.0000 0.0000 0.0000
# 2 68.3788 118.7123 51.7086 0.0000 0.0000 0.0000
# 3 30.8467 51.7086 51.9900 0.0000 0.0000 0.0000
# 4 0.0000 0.0000 0.0000 25.4815 0.0000 0.0000
# 5 0.0000 0.0000 0.0000 0.0000 -13.2520 0.0000
# 6 0.0000 0.0000 0.0000 0.0000 0.0000 43.7063
#
#
#
# Elastic Compliance Matrix: (Units=1/GPa)
#
#
# Indices 1 2 3 4 5 6 
#
# 1 0.010825 -0.006065 -0.000390 0.000000 0.000000 0.000000
# 2 -0.006065 0.018261 -0.014563 0.000000 0.000000 0.000000
# 3 -0.000390 -0.014563 0.033951 0.000000 0.000000 0.000000
# 4 0.000000 0.000000 0.000000 0.039244 0.000000 0.000000
# 5 0.000000 0.000000 0.000000 0.000000 -0.075460 0.000000
# 6 0.000000 0.000000 0.000000 0.000000 0.000000 0.022880
#
#
# Mechanical properties :
#
#
# Convention : Reuss Voigt Hill
#
# Bulk Modulus (GPa) = 47.62223 67.15289 57.38756
# Shear Modulus (GPa) = 50.63965 21.29208 35.96587
#
# Velocity S-wave (km/s) = 4.93250 3.19838 4.15687
# Velocity P-wave (km/s) = 7.43769 6.77516 7.11414
#
# Compressibility (1/GPa) = 0.02099860
#
# Stress axis : x y z
#
# Youngs Moduli (GPa) = 92.38074 54.76221 29.45461
#
# Poissons Ratio (x) = 0.33214 0.01149
# Poissons Ratio (y) = 0.56030 0.42896
# Poissons Ratio (z) = 0.03605 0.79752
#
# Static dielectric constant tensor:
#      x y z
#    x 1.805980 0.000000 0.000000 
#    y 0.000000 1.783460 0.000000 
#    z 0.000000 0.000000 1.656300 
# 
# From -- ./inp_files/43098.got.cif
#   From: 2010.05.17/outbox.cif.g08.bks.cpg/sg68_22_cif.got.tgz:43098.got - 2010.06.03 18:57:09.
