data_PCOD9507185
_publ_section_title
;
Structure prediction by ZEFSAII (Michael W. Deem and Ramdas Pophale) SiO2 
 PCOD9507185
Probable space group: C C C A
;
_chemical_formula_sum "Si O2"
_cell_formula_units_Z 112
_cell_length_a 22.295063
_cell_length_b 17.226107
_cell_length_c 14.747052
_cell_angle_alpha 90.000000
_cell_angle_beta 90.000000
_cell_angle_gamma 90.000000
_cell_volume 5663.710626
_symmetry_space_group_name_H-M "C C C A"
_symmetry_group_IT_number 68
_space_group.IT_coordinate_system_code '2'
_symmetry_cell_setting 'orthorhombic'
loop_
_space_group_symop_operation_xyz
x,y,z
-x,1/2-y,z
x,1/2-y,1/2-z
-x,y,1/2-z
-x,-y,-z
x,1/2+y,-z
-x,1/2+y,1/2+z
x,-y,1/2+z
1/2+x,1/2+y,z
1/2-x,-y,z
1/2+x,-y,1/2-z
1/2-x,1/2+y,1/2-z
1/2-x,1/2-y,-z
1/2+x,y,-z
1/2-x,y,1/2+z
1/2+x,1/2-y,1/2+z
loop_
_atom_site_type_symbol
_atom_site_label
_atom_site_fract_x
_atom_site_fract_y
_atom_site_fract_z
Si Si1 0.317299 0.025723 0.882768
Si Si2 0.841538 0.439104 0.706711
Si Si3 0.175958 0.300369 0.066935
Si Si4 0.059563 0.201574 0.010349
Si Si5 0.439666 0.666891 0.703925
Si Si6 0.628292 0.053620 0.948104
Si Si7 0.242478 0.157402 0.106465
O O1 0.331836 0.116366 0.888612
O O2 0.250000 0.000000 0.912751
O O3 0.321853 0.002814 0.778620
O O4 0.361836 0.980516 0.951107
O O5 0.885809 0.385851 0.764058
O O6 0.872965 0.481517 0.621449
O O7 0.785831 0.387140 0.674476
O O8 0.211399 0.239228 0.130215
O O9 0.116010 0.257473 0.032499
O O10 0.216220 0.320962 0.979475
O O11 0.055796 0.181564 0.903181
O O12 0.000000 0.250000 0.036121
O O13 0.075336 0.117789 0.055559
O O14 0.430484 0.750000 0.750000
O O15 0.500000 0.634420 0.750000
O O16 0.688974 0.100583 0.923448
#
# Coordination Sequence:
#
# PCOD9507185 Si02
#       7
#    16  16  16  16  16  16  16
#     4  12  22  38  64  96 137 172 212 274 339 398
#     4  12  24  40  65 101 132 176 220 278 338 394
#     4  10  22  39  66  92 131 173 220 266 338 406
#     4  11  23  45  68  93 128 184 223 276 337 398
#     4  11  23  40  63  95 133 163 227 287 325 391
#     4  11  22  42  63  97 136 169 223 274 333 406
#     4  10  20  39  64  91 132 173 210 271 331 405
#
# _framework density 19.775022
#
# number of rings (size 3 to 8) (size 9 to 14) (size 15 to 20)
#    0.000    1.000    5.714    2.143    0.000    1.143 
#    2.571    8.571    0.000    0.857    0.000    0.000 
#    0.000    0.000    0.000    0.000    0.000    0.000 
#
# Total GULP energy -312602.438273 kJ/mol
# GULP energy per Si atom -5582.186398 kJ/mol
# Density = 1.973001 g / cm^3
# Si number density = 19.775022 Si / 1000 Ang^3
#
#
#
# Elastic Constant Matrix: (Units=GPa)
#
#
# Indices 1 2 3 4 5 6 
#
# 1 72.2713 32.9707 31.2392 0.0000 0.0000 0.0000
# 2 32.9707 89.1873 31.7512 0.0000 0.0000 0.0000
# 3 31.2392 31.7512 69.9555 0.0000 0.0000 0.0000
# 4 0.0000 0.0000 0.0000 16.9894 0.0000 0.0000
# 5 0.0000 0.0000 0.0000 0.0000 18.7625 0.0000
# 6 0.0000 0.0000 0.0000 0.0000 0.0000 22.1659
#
#
#
# Elastic Compliance Matrix: (Units=1/GPa)
#
#
# Indices 1 2 3 4 5 6 
#
# 1 0.018657 -0.004689 -0.006203 0.000000 0.000000 0.000000
# 2 -0.004689 0.014552 -0.004511 0.000000 0.000000 0.000000
# 3 -0.006203 -0.004511 0.019112 0.000000 0.000000 0.000000
# 4 0.000000 0.000000 0.000000 0.058860 0.000000 0.000000
# 5 0.000000 0.000000 0.000000 0.000000 0.053298 0.000000
# 6 0.000000 0.000000 0.000000 0.000000 0.000000 0.045114
#
#
# Mechanical properties :
#
#
# Convention : Reuss Voigt Hill
#
# Bulk Modulus (GPa) = 46.47884 47.03735 46.75810
# Shear Modulus (GPa) = 20.19621 20.61376 20.40498
#
# Velocity S-wave (km/s) = 3.19924 3.23215 3.21574
# Velocity P-wave (km/s) = 6.09932 6.14548 6.12244
#
# Compressibility (1/GPa) = 0.02151517
#
# Stress axis : x y z
#
# Youngs Moduli (GPa) = 53.59862 68.72110 52.32218
#
# Poissons Ratio (x) = 0.32222 0.32458
# Poissons Ratio (y) = 0.25131 0.23602
# Poissons Ratio (z) = 0.33249 0.30999
#
# Static dielectric constant tensor:
#      x y z
#    x 1.748770 0.000000 0.000000 
#    y 0.000000 1.721160 0.000000 
#    z 0.000000 0.000000 1.688260 
# 
# From -- ./inp_files/25433.got.cif
#   From: 2010.05.17/outbox.cif.g08.bks.cpg/sg68_13_cif.got.tgz:25433.got - 2010.06.03 18:57:09.
