data_PCOD9507148
_publ_section_title
;
Structure prediction by ZEFSAII (Michael W. Deem and Ramdas Pophale) SiO2 
 PCOD9507148
Probable space group: C C C A
;
_chemical_formula_sum "Si O2"
_cell_formula_units_Z 88
_cell_length_a 10.740872
_cell_length_b 16.197811
_cell_length_c 23.866538
_cell_angle_alpha 90.000000
_cell_angle_beta 90.000000
_cell_angle_gamma 90.000000
_cell_volume 4152.267217
_symmetry_space_group_name_H-M "C C C A"
_symmetry_group_IT_number 68
_space_group.IT_coordinate_system_code '2'
_symmetry_cell_setting 'orthorhombic'
loop_
_space_group_symop_operation_xyz
x,y,z
-x,1/2-y,z
x,1/2-y,1/2-z
-x,y,1/2-z
-x,-y,-z
x,1/2+y,-z
-x,1/2+y,1/2+z
x,-y,1/2+z
1/2+x,1/2+y,z
1/2-x,-y,z
1/2+x,-y,1/2-z
1/2-x,1/2+y,1/2-z
1/2-x,1/2-y,-z
1/2+x,y,-z
1/2-x,y,1/2+z
1/2+x,1/2-y,1/2+z
loop_
_atom_site_type_symbol
_atom_site_label
_atom_site_fract_x
_atom_site_fract_y
_atom_site_fract_z
Si Si1 0.862063 0.333301 0.724652
Si Si2 0.400308 0.440961 0.898112
Si Si3 0.284973 0.784261 0.604089
Si Si4 0.500000 0.750000 0.515063
Si Si5 0.250000 0.500000 0.796057
Si Si6 0.250000 0.500000 0.495529
Si Si7 0.135142 0.133724 0.430074
O O1 0.804085 0.250000 0.750000
O O2 0.861410 0.313320 0.658321
O O3 0.785007 0.416471 0.735571
O O4 0.000000 0.341908 0.750000
O O5 0.309850 0.360730 0.905906
O O6 0.360670 0.481955 0.839979
O O7 0.545382 0.424347 0.895117
O O8 0.366095 0.494958 0.952645
O O9 0.379936 0.756732 0.555288
O O10 0.198238 0.703624 0.607508
O O11 0.535824 0.675913 0.472951
O O12 0.232231 0.579805 0.534344
#
# Coordination Sequence:
#
# PCOD9507148 Si02
#       7
#    16  16  16   8   8   8  16
#     4  10  22  47  70  93 124 164 217 274 333 395
#     4  10  20  39  60  89 132 175 210 260 319 382
#     4  11  22  39  65  93 122 173 219 262 322 385
#     4  12  20  34  63  88 131 176 218 250 308 394
#     4   9  22  42  71  92 124 162 209 270 349 388
#     4  11  22  36  51  94 138 180 219 252 315 370
#     4  12  22  37  58  93 135 173 219 264 309 378
#
# _framework density 21.193239999999999
#
# number of rings (size 3 to 8) (size 9 to 14) (size 15 to 20)
#    0.000    1.273    3.636    3.273    0.000    0.000 
#    9.818    0.000    0.000    0.000    0.000    0.000 
#    0.000    0.000    0.000    0.000    0.000    0.000 
#
# Total GULP energy -245359.943449 kJ/mol
# GULP energy per Si atom -5576.362351 kJ/mol
# Density = 2.114500 g / cm^3
# Si number density = 21.193240 Si / 1000 Ang^3
#
#
#
# Elastic Constant Matrix: (Units=GPa)
#
#
# Indices 1 2 3 4 5 6 
#
# 1 52.7196 8.2951 23.4091 0.0000 0.0000 0.0000
# 2 8.2951 124.4744 20.4834 0.0000 0.0000 0.0000
# 3 23.4091 20.4834 47.3585 0.0000 0.0000 0.0000
# 4 0.0000 0.0000 0.0000 210.6221 0.0000 0.0000
# 5 0.0000 0.0000 0.0000 0.0000 -39.4533 0.0000
# 6 0.0000 0.0000 0.0000 0.0000 0.0000 32.1532
#
#
#
# Elastic Compliance Matrix: (Units=1/GPa)
#
#
# Indices 1 2 3 4 5 6 
#
# 1 0.024319 0.000385 -0.012187 0.000000 0.000000 0.000000
# 2 0.000385 0.008655 -0.003934 0.000000 0.000000 0.000000
# 3 -0.012187 -0.003934 0.028841 0.000000 0.000000 0.000000
# 4 0.000000 0.000000 0.000000 0.004748 0.000000 0.000000
# 5 0.000000 0.000000 0.000000 0.000000 -0.025346 0.000000
# 6 0.000000 0.000000 0.000000 0.000000 0.000000 0.031101
#
#
# Mechanical properties :
#
#
# Convention : Reuss Voigt Hill
#
# Bulk Modulus (GPa) = 32.95634 36.54751 34.75193
# Shear Modulus (GPa) = 43.89601 52.15540 48.02571
#
# Velocity S-wave (km/s) = 4.55601 4.96617 4.76551
# Velocity P-wave (km/s) = 6.57727 7.08281 6.83471
#
# Compressibility (1/GPa) = 0.03034317
#
# Stress axis : x y z
#
# Youngs Moduli (GPa) = 41.11971 115.53366 34.67264
#
# Poissons Ratio (x) = -0.04447 0.42257
# Poissons Ratio (y) = -0.01583 0.13640
# Poissons Ratio (z) = 0.50114 0.45450
#
# Static dielectric constant tensor:
#      x y z
#    x 1.772670 0.000000 0.000000 
#    y 0.000000 1.824710 0.000000 
#    z 0.000000 0.000000 1.788730 
# 
# From -- ./inp_files/44279.got.cif
#   From: 2010.05.17/outbox.cif.g08.bks.cpg/sg68_23_cif.got.tgz:44279.got - 2010.06.03 18:57:09.
