data_PCOD9507544
_publ_section_title
;
Structure prediction by ZEFSAII (Michael W. Deem and Ramdas Pophale) SiO2 
 PCOD9507544
Probable space group: C C C A
;
_chemical_formula_sum "Si O2"
_cell_formula_units_Z 72
_cell_length_a 5.033615
_cell_length_b 25.338545
_cell_length_c 27.110766
_cell_angle_alpha 90.000000
_cell_angle_beta 90.000000
_cell_angle_gamma 90.000000
_cell_volume 3457.828557
_symmetry_space_group_name_H-M "C C C A"
_symmetry_group_IT_number 68
_space_group.IT_coordinate_system_code '2'
_symmetry_cell_setting 'orthorhombic'
loop_
_space_group_symop_operation_xyz
x,y,z
-x,1/2-y,z
x,1/2-y,1/2-z
-x,y,1/2-z
-x,-y,-z
x,1/2+y,-z
-x,1/2+y,1/2+z
x,-y,1/2+z
1/2+x,1/2+y,z
1/2-x,-y,z
1/2+x,-y,1/2-z
1/2-x,1/2+y,1/2-z
1/2-x,1/2-y,-z
1/2+x,y,-z
1/2-x,y,1/2+z
1/2+x,1/2-y,1/2+z
loop_
_atom_site_type_symbol
_atom_site_label
_atom_site_fract_x
_atom_site_fract_y
_atom_site_fract_z
Si Si1 0.384567 0.049628 0.700161
Si Si2 0.492817 0.187673 0.350448
Si Si3 0.752775 0.062730 0.969072
Si Si4 0.500000 0.635442 0.750000
Si Si5 0.486517 0.874925 0.379357
O O1 0.500000 0.025119 0.750000
O O2 0.571170 0.079712 0.661760
O O3 0.202060 0.095742 0.722933
O O4 0.250000 0.000000 0.673630
O O5 0.500000 0.250000 0.357084
O O6 0.401056 0.172298 0.294650
O O7 0.786156 0.164599 0.359435
O O8 0.282000 0.158057 0.385722
O O9 0.626014 0.095643 0.924766
O O10 0.750000 0.000000 0.958446
O O11 0.555043 0.073820 0.015195
#
# Coordination Sequence:
#
# PCOD9507544 Si02
#       5
#    16  16  16   8  16
#     4  11  20  34  54  85 128 162 193 236 292 377
#     4  11  23  39  60  84 118 160 212 259 299 348
#     4  10  21  40  65  95 124 154 195 246 303 371
#     4  10  21  36  52  82 118 164 205 248 296 348
#     4  11  23  39  62  89 120 161 201 250 307 363
#
# _framework density 20.822316000000001
#
# number of rings (size 3 to 8) (size 9 to 14) (size 15 to 20)
#    0.000    1.333    3.333    3.000    0.000    0.000 
#    0.000    5.556    0.000   13.333    0.000    0.000 
#    0.000    0.000    0.000    0.000    0.000    0.000 
#
# Total GULP energy -200802.408034 kJ/mol
# GULP energy per Si atom -5577.844668 kJ/mol
# Density = 2.077492 g / cm^3
# Si number density = 20.822316 Si / 1000 Ang^3
#
#
#
# Elastic Constant Matrix: (Units=GPa)
#
#
# Indices 1 2 3 4 5 6 
#
# 1 73.6597 23.2443 -11.5837 0.0000 0.0000 0.0000
# 2 23.2443 112.0994 28.6344 0.0000 0.0000 0.0000
# 3 -11.5837 28.6344 51.0330 0.0000 0.0000 0.0000
# 4 0.0000 0.0000 0.0000 16.1847 0.0000 0.0000
# 5 0.0000 0.0000 0.0000 0.0000 19.2627 0.0000
# 6 0.0000 0.0000 0.0000 0.0000 0.0000 32.2367
#
#
#
# Elastic Compliance Matrix: (Units=1/GPa)
#
#
# Indices 1 2 3 4 5 6 
#
# 1 0.016177 -0.005010 0.006483 0.000000 0.000000 0.000000
# 2 -0.005010 0.011965 -0.007851 0.000000 0.000000 0.000000
# 3 0.006483 -0.007851 0.025472 0.000000 0.000000 0.000000
# 4 0.000000 0.000000 0.000000 0.061787 0.000000 0.000000
# 5 0.000000 0.000000 0.000000 0.000000 0.051914 0.000000
# 6 0.000000 0.000000 0.000000 0.000000 0.000000 0.031021
#
#
# Mechanical properties :
#
#
# Convention : Reuss Voigt Hill
#
# Bulk Modulus (GPa) = 24.47544 35.26467 29.87006
# Shear Modulus (GPa) = 22.25097 26.63663 24.44380
#
# Velocity S-wave (km/s) = 3.27251 3.58052 3.42997
# Velocity P-wave (km/s) = 5.10481 5.83663 5.48294
#
# Compressibility (1/GPa) = 0.04085728
#
# Stress axis : x y z
#
# Youngs Moduli (GPa) = 61.81799 83.57767 39.25925
#
# Poissons Ratio (x) = 0.41875 -0.25452
# Poissons Ratio (y) = 0.30973 0.30821
# Poissons Ratio (z) = -0.40077 0.65614
#
# Static dielectric constant tensor:
#      x y z
#    x 1.855420 0.000000 0.000000 
#    y 0.000000 1.736190 0.000000 
#    z 0.000000 0.000000 1.776550 
# 
# From -- ./inp_files/48333.got.cif
#   From: 2010.05.17/outbox.cif.g08.bks.cpg/sg68_25_cif.got.tgz:48333.got - 2010.06.03 18:57:09.
