data_PCOD9507325
_publ_section_title
;
Structure prediction by ZEFSAII (Michael W. Deem and Ramdas Pophale) SiO2 
 PCOD9507325
Probable space group: C C C A
;
_chemical_formula_sum "Si O2"
_cell_formula_units_Z 112
_cell_length_a 11.301683
_cell_length_b 26.907717
_cell_length_c 14.289873
_cell_angle_alpha 90.000000
_cell_angle_beta 90.000000
_cell_angle_gamma 90.000000
_cell_volume 4345.585929
_symmetry_space_group_name_H-M "C C C A"
_symmetry_group_IT_number 68
_space_group.IT_coordinate_system_code '2'
_symmetry_cell_setting 'orthorhombic'
loop_
_space_group_symop_operation_xyz
x,y,z
-x,1/2-y,z
x,1/2-y,1/2-z
-x,y,1/2-z
-x,-y,-z
x,1/2+y,-z
-x,1/2+y,1/2+z
x,-y,1/2+z
1/2+x,1/2+y,z
1/2-x,-y,z
1/2+x,-y,1/2-z
1/2-x,1/2+y,1/2-z
1/2-x,1/2-y,-z
1/2+x,y,-z
1/2-x,y,1/2+z
1/2+x,1/2-y,1/2+z
loop_
_atom_site_type_symbol
_atom_site_label
_atom_site_fract_x
_atom_site_fract_y
_atom_site_fract_z
Si Si1 0.123675 0.382566 0.296084
Si Si2 0.593438 0.710335 0.518547
Si Si3 0.626151 0.493317 0.703309
Si Si4 0.707037 0.122086 0.592059
Si Si5 0.068093 0.848532 0.333600
Si Si6 0.373183 0.027339 0.010158
Si Si7 0.260710 0.710158 0.813209
O O1 0.117718 0.437114 0.339614
O O2 0.196612 0.389390 0.201469
O O3 0.185694 0.337417 0.347539
O O4 0.000000 0.367438 0.250000
O O5 0.500000 0.750000 0.479640
O O6 0.650988 0.673567 0.443508
O O7 0.522342 0.678695 0.597396
O O8 0.689257 0.733245 0.590941
O O9 0.500000 0.499426 0.750000
O O10 0.750000 0.500000 0.758516
O O11 0.638026 0.532780 0.621214
O O12 0.848710 0.123893 0.590871
O O13 0.635847 0.079741 0.539486
O O14 0.143861 0.809912 0.266223
O O15 0.000000 0.877755 0.250000
O O16 0.250000 0.000000 0.981407
O O17 0.500000 0.000000 0.000000
O O18 0.191353 0.750000 0.750000
#
# Coordination Sequence:
#
# PCOD9507325 Si02
#       7
#    16  16  16  16  16  16  16
#     4  10  23  45  68  93 145 195 244 314 386 473
#     4  11  23  41  71 105 153 194 249 328 391 457
#     4  10  23  46  72 104 143 197 258 311 390 476
#     4  11  26  44  69 112 145 199 256 325 402 473
#     4   9  21  44  69 101 144 202 258 311 384 473
#     4  11  26  46  75 110 154 195 255 331 403 472
#     4  10  20  40  69 101 136 196 261 303 370 471
#
# _framework density 25.77328
#
# number of rings (size 3 to 8) (size 9 to 14) (size 15 to 20)
#    0.000    1.714    1.429    1.714    6.000    4.286 
#    7.714    0.000    0.000    0.000    0.000    0.000 
#    0.000    0.000    0.000    0.000    0.000    0.000 
#
# Total GULP energy -312455.493730 kJ/mol
# GULP energy per Si atom -5579.562388 kJ/mol
# Density = 2.571462 g / cm^3
# Si number density = 25.773280 Si / 1000 Ang^3
#
#
#
# Elastic Constant Matrix: (Units=GPa)
#
#
# Indices 1 2 3 4 5 6 
#
# 1 138.5259 45.7253 24.4756 0.0000 0.0000 0.0000
# 2 45.7253 99.8695 31.0633 0.0000 0.0000 0.0000
# 3 24.4756 31.0633 68.8375 0.0000 0.0000 0.0000
# 4 0.0000 0.0000 0.0000 15.9219 0.0000 0.0000
# 5 0.0000 0.0000 0.0000 0.0000 37.8887 0.0000
# 6 0.0000 0.0000 0.0000 0.0000 0.0000 47.2251
#
#
#
# Elastic Compliance Matrix: (Units=1/GPa)
#
#
# Indices 1 2 3 4 5 6 
#
# 1 0.008635 -0.003488 -0.001496 0.000000 0.000000 0.000000
# 2 -0.003488 0.013057 -0.004652 0.000000 0.000000 0.000000
# 3 -0.001496 -0.004652 0.017158 0.000000 0.000000 0.000000
# 4 0.000000 0.000000 0.000000 0.062807 0.000000 0.000000
# 5 0.000000 0.000000 0.000000 0.000000 0.026393 0.000000
# 6 0.000000 0.000000 0.000000 0.000000 0.000000 0.021175
#
#
# Mechanical properties :
#
#
# Convention : Reuss Voigt Hill
#
# Bulk Modulus (GPa) = 51.07846 56.64014 53.85930
# Shear Modulus (GPa) = 28.56779 33.93839 31.25309
#
# Velocity S-wave (km/s) = 3.33292 3.63272 3.48604
# Velocity P-wave (km/s) = 5.88834 6.29440 6.09475
#
# Compressibility (1/GPa) = 0.01957773
#
# Stress axis : x y z
#
# Youngs Moduli (GPa) = 115.81401 76.58756 58.28158
#
# Poissons Ratio (x) = 0.26714 0.08719
# Poissons Ratio (y) = 0.40396 0.27112
# Poissons Ratio (z) = 0.17327 0.35627
#
# Static dielectric constant tensor:
#      x y z
#    x 1.947060 0.000000 0.000000 
#    y 0.000000 2.078250 0.000000 
#    z 0.000000 0.000000 1.886950 
# 
# From -- ./inp_files/21257.got.cif
#   From: 2010.05.17/outbox.cif.g08.bks.cpg/sg68_11_cif.got.tgz:21257.got - 2010.06.03 18:57:09.
