data_PCOD9507094
_publ_section_title
;
Structure prediction by ZEFSAII (Michael W. Deem and Ramdas Pophale) SiO2 
 PCOD9507094
Probable space group: C C C A
;
_chemical_formula_sum "Si O2"
_cell_formula_units_Z 44
_cell_length_a 25.373821
_cell_length_b 5.678494
_cell_length_c 12.240790
_cell_angle_alpha 90.000000
_cell_angle_beta 90.000000
_cell_angle_gamma 90.000000
_cell_volume 1763.715333
_symmetry_space_group_name_H-M "C C C A"
_symmetry_group_IT_number 68
_space_group.IT_coordinate_system_code '2'
_symmetry_cell_setting 'orthorhombic'
loop_
_space_group_symop_operation_xyz
x,y,z
-x,1/2-y,z
x,1/2-y,1/2-z
-x,y,1/2-z
-x,-y,-z
x,1/2+y,-z
-x,1/2+y,1/2+z
x,-y,1/2+z
1/2+x,1/2+y,z
1/2-x,-y,z
1/2+x,-y,1/2-z
1/2-x,1/2+y,1/2-z
1/2-x,1/2-y,-z
1/2+x,y,-z
1/2-x,y,1/2+z
1/2+x,1/2-y,1/2+z
loop_
_atom_site_type_symbol
_atom_site_label
_atom_site_fract_x
_atom_site_fract_y
_atom_site_fract_z
Si Si1 0.594042 0.891427 0.870782
Si Si2 0.500000 0.750000 0.750000
Si Si3 0.865755 0.892523 0.623409
Si Si4 0.750000 0.500000 0.434979
O O1 0.533426 0.915655 0.833882
O O2 0.604037 0.621142 0.833451
O O3 0.626932 0.124150 0.837724
O O4 0.611121 0.873763 0.998775
O O5 0.805001 0.975302 0.627211
O O6 0.750000 0.750000 0.500000
#
# Coordination Sequence:
#
# PCOD9507094 Si02
#       4
#    16   4  16   8
#     4  10  22  38  58  88 122 161 213 260 299 373
#     4  12  28  42  60  82 128 188 216 254 324 348
#     4  10  20  38  64  95 120 149 208 264 314 374
#     4  12  16  32  68 104 112 150 188 266 324 376
#
# _framework density 24.947337000000001
#
# number of rings (size 3 to 8) (size 9 to 14) (size 15 to 20)
#    0.000    1.455    7.273    0.000    0.000   10.182 
#    0.000    0.000    0.000    6.545    0.000    0.000 
#    0.000    0.000    0.000    0.000    0.000    1.455 
#
# Total GULP energy -122483.659947 kJ/mol
# GULP energy per Si atom -5567.439088 kJ/mol
# Density = 2.489056 g / cm^3
# Si number density = 24.947337 Si / 1000 Ang^3
#
#
#
# Elastic Constant Matrix: (Units=GPa)
#
#
# Indices 1 2 3 4 5 6 
#
# 1 121.7496 12.4899 14.9923 0.0000 0.0000 0.0000
# 2 12.4899 239.7451 54.2269 0.0000 0.0000 0.0000
# 3 14.9923 54.2269 38.0422 0.0000 0.0000 0.0000
# 4 0.0000 0.0000 0.0000 61.7856 0.0000 0.0000
# 5 0.0000 0.0000 0.0000 0.0000 45.6355 0.0000
# 6 0.0000 0.0000 0.0000 0.0000 0.0000 25.0378
#
#
#
# Elastic Compliance Matrix: (Units=1/GPa)
#
#
# Indices 1 2 3 4 5 6 
#
# 1 0.008669 0.000474 -0.004092 0.000000 0.000000 0.000000
# 2 0.000474 0.006182 -0.008998 0.000000 0.000000 0.000000
# 3 -0.004092 -0.008998 0.040726 0.000000 0.000000 0.000000
# 4 0.000000 0.000000 0.000000 0.016185 0.000000 0.000000
# 5 0.000000 0.000000 0.000000 0.000000 0.021913 0.000000
# 6 0.000000 0.000000 0.000000 0.000000 0.000000 0.039940
#
#
# Mechanical properties :
#
#
# Convention : Reuss Voigt Hill
#
# Bulk Modulus (GPa) = 32.95580 62.55058 47.75319
# Shear Modulus (GPa) = 29.59256 47.68029 38.63642
#
# Velocity S-wave (km/s) = 3.44786 4.37651 3.93965
# Velocity P-wave (km/s) = 5.39344 7.11800 6.31487
#
# Compressibility (1/GPa) = 0.03034367
#
# Stress axis : x y z
#
# Youngs Moduli (GPa) = 115.35567 161.76700 24.55434
#
# Poissons Ratio (x) = -0.07666 0.10047
# Poissons Ratio (y) = -0.05467 0.22095
# Poissons Ratio (z) = 0.47202 1.45565
#
# Static dielectric constant tensor:
#      x y z
#    x 2.347200 0.000000 0.000000 
#    y 0.000000 1.906370 0.000000 
#    z 0.000000 0.000000 1.344240 
# 
# From -- ./inp_files/25694.got.cif
#   From: 2010.05.17/outbox.cif.g08.bks.cpg/sg68_13_cif.got.tgz:25694.got - 2010.06.03 18:57:09.
