data_PCOD9507312
_publ_section_title
;
Structure prediction by ZEFSAII (Michael W. Deem and Ramdas Pophale) SiO2 
 PCOD9507312
Probable space group: C C C A
;
_chemical_formula_sum "Si O2"
_cell_formula_units_Z 64
_cell_length_a 8.351761
_cell_length_b 18.593822
_cell_length_c 19.609064
_cell_angle_alpha 90.000000
_cell_angle_beta 90.000000
_cell_angle_gamma 90.000000
_cell_volume 3045.114244
_symmetry_space_group_name_H-M "C C C A"
_symmetry_group_IT_number 68
_space_group.IT_coordinate_system_code '2'
_symmetry_cell_setting 'orthorhombic'
loop_
_space_group_symop_operation_xyz
x,y,z
-x,1/2-y,z
x,1/2-y,1/2-z
-x,y,1/2-z
-x,-y,-z
x,1/2+y,-z
-x,1/2+y,1/2+z
x,-y,1/2+z
1/2+x,1/2+y,z
1/2-x,-y,z
1/2+x,-y,1/2-z
1/2-x,1/2+y,1/2-z
1/2-x,1/2-y,-z
1/2+x,y,-z
1/2-x,y,1/2+z
1/2+x,1/2-y,1/2+z
loop_
_atom_site_type_symbol
_atom_site_label
_atom_site_fract_x
_atom_site_fract_y
_atom_site_fract_z
Si Si1 0.675348 0.851139 0.281786
Si Si2 0.448036 0.330896 0.024598
Si Si3 0.324541 0.212680 0.341034
Si Si4 0.751275 0.083020 0.418593
O O1 0.500000 0.858044 0.250000
O O2 0.700067 0.775874 0.323022
O O3 0.797178 0.845114 0.218236
O O4 0.716125 0.909683 0.338249
O O5 0.500000 0.250000 0.006296
O O6 0.313537 0.319468 0.083573
O O7 0.589137 0.375124 0.061365
O O8 0.386082 0.374817 0.960795
O O9 0.500000 0.250000 0.336642
O O10 0.750000 0.000000 0.439057
#
# Coordination Sequence:
#
# PCOD9507312 Si02
#       4
#    16  16  16  16
#     4  11  23  39  66 101 138 172 228 285 336 404
#     4  11  24  44  75  99 135 181 238 283 332 410
#     4  10  20  40  68 101 131 174 225 293 334 387
#     4  12  27  47  66 105 143 184 223 283 353 410
#
# _framework density 21.017272999999999
#
# number of rings (size 3 to 8) (size 9 to 14) (size 15 to 20)
#    0.000    1.000    5.000    4.500    3.500    2.000 
#    4.500    0.000    0.000    0.000    0.000    0.000 
#    0.000    0.000    0.000    0.000    0.000    0.000 
#
# Total GULP energy -178867.632815 kJ/mol
# GULP energy per Si atom -5589.613525 kJ/mol
# Density = 2.096944 g / cm^3
# Si number density = 21.017273 Si / 1000 Ang^3
#
#
#
# Elastic Constant Matrix: (Units=GPa)
#
#
# Indices 1 2 3 4 5 6 
#
# 1 56.3464 24.3359 20.6147 0.0000 0.0000 0.0000
# 2 24.3359 138.0052 46.4623 0.0000 0.0000 0.0000
# 3 20.6147 46.4623 95.2222 0.0000 0.0000 0.0000
# 4 0.0000 0.0000 0.0000 10.3045 0.0000 0.0000
# 5 0.0000 0.0000 0.0000 0.0000 32.0832 0.0000
# 6 0.0000 0.0000 0.0000 0.0000 0.0000 10.7161
#
#
#
# Elastic Compliance Matrix: (Units=1/GPa)
#
#
# Indices 1 2 3 4 5 6 
#
# 1 0.019954 -0.002470 -0.003115 0.000000 0.000000 0.000000
# 2 -0.002470 0.008976 -0.003845 0.000000 0.000000 0.000000
# 3 -0.003115 -0.003845 0.013052 0.000000 0.000000 0.000000
# 4 0.000000 0.000000 0.000000 0.097045 0.000000 0.000000
# 5 0.000000 0.000000 0.000000 0.000000 0.031169 0.000000
# 6 0.000000 0.000000 0.000000 0.000000 0.000000 0.093318
#
#
# Mechanical properties :
#
#
# Convention : Reuss Voigt Hill
#
# Bulk Modulus (GPa) = 43.24759 52.48885 47.86822
# Shear Modulus (GPa) = 17.23657 23.83147 20.53402
#
# Velocity S-wave (km/s) = 2.86687 3.37100 3.12910
# Velocity P-wave (km/s) = 5.61965 6.33876 5.99000
#
# Compressibility (1/GPa) = 0.02312268
#
# Stress axis : x y z
#
# Youngs Moduli (GPa) = 50.11619 111.40574 76.61564
#
# Poissons Ratio (x) = 0.27518 0.23862
# Poissons Ratio (y) = 0.12379 0.29459
# Poissons Ratio (z) = 0.15609 0.42836
#
# Static dielectric constant tensor:
#      x y z
#    x 1.793960 0.000000 0.000000 
#    y 0.000000 1.733860 0.000000 
#    z 0.000000 0.000000 1.798760 
# 
# From -- ./inp_files/35958.got.cif
#   From: 2010.05.17/outbox.cif.g08.bks.cpg/sg68_18_cif.got.tgz:35958.got - 2010.06.03 18:57:09.
