data_PCOD9507931
_publ_section_title
;
Structure prediction by ZEFSAII (Michael W. Deem and Ramdas Pophale) SiO2 
 PCOD9507931
Probable space group: C C C A
;
_chemical_formula_sum "Si O2"
_cell_formula_units_Z 80
_cell_length_a 22.644969
_cell_length_b 5.105761
_cell_length_c 32.395600
_cell_angle_alpha 90.000000
_cell_angle_beta 90.000000
_cell_angle_gamma 90.000000
_cell_volume 3745.572779
_symmetry_space_group_name_H-M "C C C A"
_symmetry_group_IT_number 68
_space_group.IT_coordinate_system_code '2'
_symmetry_cell_setting 'orthorhombic'
loop_
_space_group_symop_operation_xyz
x,y,z
-x,1/2-y,z
x,1/2-y,1/2-z
-x,y,1/2-z
-x,-y,-z
x,1/2+y,-z
-x,1/2+y,1/2+z
x,-y,1/2+z
1/2+x,1/2+y,z
1/2-x,-y,z
1/2+x,-y,1/2-z
1/2-x,1/2+y,1/2-z
1/2-x,1/2-y,-z
1/2+x,y,-z
1/2-x,y,1/2+z
1/2+x,1/2-y,1/2+z
loop_
_atom_site_type_symbol
_atom_site_label
_atom_site_fract_x
_atom_site_fract_y
_atom_site_fract_z
Si Si1 0.791227 0.250000 0.750000
Si Si2 0.438336 0.660130 0.614699
Si Si3 0.185387 0.809481 0.974224
Si Si4 0.058204 0.830129 0.557141
Si Si5 0.814252 0.160326 0.658193
Si Si6 0.250000 0.500000 0.903788
O O1 0.750000 0.500000 0.743670
O O2 0.823542 0.214437 0.706556
O O3 0.500000 0.750000 0.636425
O O4 0.448735 0.385751 0.592842
O O5 0.379376 0.596645 0.640833
O O6 0.432016 0.885189 0.578533
O O7 0.116867 0.756433 0.966063
O O8 0.219070 0.712350 0.933319
O O9 0.196825 0.605305 0.011574
O O10 0.000000 0.750000 0.530867
O O11 0.798989 0.395477 0.627291
O O12 0.750000 0.000000 0.656262
#
# Coordination Sequence:
#
# PCOD9507931 Si02
#       6
#     8  16  16  16  16   8
#     4  10  22  40  59 102 129 158 200 264 306 364
#     4  10  21  39  64  93 123 165 212 256 305 381
#     4  12  26  40  57  87 125 157 209 266 314 366
#     4  10  21  40  63  86 117 163 215 256 310 372
#     4  11  23  39  69  94 129 163 212 255 316 384
#     4  12  24  40  64  86 118 174 202 252 324 378
#
# _framework density 21.358547999999999
#
# number of rings (size 3 to 8) (size 9 to 14) (size 15 to 20)
#    0.000    1.200    3.000    3.000    2.800    0.800 
#    0.000    0.500    0.000    0.000    0.000    5.600 
#    0.000    0.000    0.000    0.000    0.000    0.000 
#
# Total GULP energy -222852.544960 kJ/mol
# GULP energy per Si atom -5571.313624 kJ/mol
# Density = 2.130993 g / cm^3
# Si number density = 21.358548 Si / 1000 Ang^3
#
#
#
# Elastic Constant Matrix: (Units=GPa)
#
#
# Indices 1 2 3 4 5 6 
#
# 1 115.0988 11.9900 23.2700 0.0000 0.0000 0.0000
# 2 11.9900 107.9823 27.9412 0.0000 0.0000 0.0000
# 3 23.2700 27.9412 82.1617 0.0000 0.0000 0.0000
# 4 0.0000 0.0000 0.0000 10.3277 0.0000 0.0000
# 5 0.0000 0.0000 0.0000 0.0000 25.9568 0.0000
# 6 0.0000 0.0000 0.0000 0.0000 0.0000 27.1801
#
#
#
# Elastic Compliance Matrix: (Units=1/GPa)
#
#
# Indices 1 2 3 4 5 6 
#
# 1 0.009230 -0.000382 -0.002484 0.000000 0.000000 0.000000
# 2 -0.000382 0.010170 -0.003350 0.000000 0.000000 0.000000
# 3 -0.002484 -0.003350 0.014014 0.000000 0.000000 0.000000
# 4 0.000000 0.000000 0.000000 0.096827 0.000000 0.000000
# 5 0.000000 0.000000 0.000000 0.000000 0.038525 0.000000
# 6 0.000000 0.000000 0.000000 0.000000 0.000000 0.036792
#
#
# Mechanical properties :
#
#
# Convention : Reuss Voigt Hill
#
# Bulk Modulus (GPa) = 47.66219 47.96059 47.81139
# Shear Modulus (GPa) = 22.22359 28.82903 25.52631
#
# Velocity S-wave (km/s) = 3.22918 3.67790 3.46082
# Velocity P-wave (km/s) = 6.02222 6.36708 6.19705
#
# Compressibility (1/GPa) = 0.02098099
#
# Stress axis : x y z
#
# Youngs Moduli (GPa) = 108.33951 98.32705 71.35661
#
# Poissons Ratio (x) = 0.03757 0.17727
# Poissons Ratio (y) = 0.04139 0.23907
# Poissons Ratio (z) = 0.26915 0.32944
#
# Static dielectric constant tensor:
#      x y z
#    x 2.036840 0.000000 0.000000 
#    y 0.000000 1.785130 0.000000 
#    z 0.000000 0.000000 1.774260 
# 
# From -- ./inp_files/55938.got.cif
#   From: 2010.05.17/outbox.cif.g08.bks.cpg/sg68_28_cif.got.tgz:55938.got - 2010.06.03 18:57:09.
