data_PCOD9507438
_publ_section_title
;
Structure prediction by ZEFSAII (Michael W. Deem and Ramdas Pophale) SiO2 
 PCOD9507438
Probable space group: C C C A
;
_chemical_formula_sum "Si O2"
_cell_formula_units_Z 108
_cell_length_a 26.741903
_cell_length_b 13.770312
_cell_length_c 12.557962
_cell_angle_alpha 90.000000
_cell_angle_beta 90.000000
_cell_angle_gamma 90.000000
_cell_volume 4624.398526
_symmetry_space_group_name_H-M "C C C A"
_symmetry_group_IT_number 68
_space_group.IT_coordinate_system_code '2'
_symmetry_cell_setting 'orthorhombic'
loop_
_space_group_symop_operation_xyz
x,y,z
-x,1/2-y,z
x,1/2-y,1/2-z
-x,y,1/2-z
-x,-y,-z
x,1/2+y,-z
-x,1/2+y,1/2+z
x,-y,1/2+z
1/2+x,1/2+y,z
1/2-x,-y,z
1/2+x,-y,1/2-z
1/2-x,1/2+y,1/2-z
1/2-x,1/2-y,-z
1/2+x,y,-z
1/2-x,y,1/2+z
1/2+x,1/2-y,1/2+z
loop_
_atom_site_type_symbol
_atom_site_label
_atom_site_fract_x
_atom_site_fract_y
_atom_site_fract_z
Si Si1 0.000000 0.250000 0.418800
Si Si2 0.357753 0.364315 0.746738
Si Si3 0.678215 0.165635 0.336962
Si Si4 0.931315 0.356420 0.579490
Si Si5 0.500000 0.250000 0.250000
Si Si6 0.192139 0.023503 0.854289
Si Si7 0.458396 0.450294 0.830135
Si Si8 0.276915 0.604607 0.431904
O O1 0.953416 0.294318 0.483736
O O2 0.979169 0.154310 0.363537
O O3 0.369530 0.250000 0.750000
O O4 0.335740 0.419325 0.642174
O O5 0.406871 0.425440 0.772622
O O6 0.315336 0.374928 0.837561
O O7 0.679541 0.250000 0.250000
O O8 0.627120 0.161021 0.402526
O O9 0.676645 0.074416 0.255399
O O10 0.727885 0.171087 0.410575
O O11 0.945625 0.470784 0.578618
O O12 0.962808 0.313482 0.678369
O O13 0.250000 0.000000 0.842175
O O14 0.191679 0.093506 0.957851
O O15 0.500000 0.491276 0.750000
O O16 0.250000 0.500000 0.423354
#
# Coordination Sequence:
#
# PCOD9507438 Si02
#       8
#     8  16  16  16   4  16  16  16
#     4  11  27  47  69 116 150 186 257 307 359 453
#     4  12  24  48  75 103 147 196 243 303 372 438
#     4  12  23  44  73 107 145 191 244 304 366 446
#     4  11  23  45  78 105 150 189 244 303 369 431
#     4  10  20  44  70 114 134 192 242 296 354 432
#     4  11  24  45  70 101 146 187 238 303 365 442
#     4  12  25  50  74 104 148 200 242 306 372 441
#     4  11  23  46  68 102 144 186 243 298 367 440
#
# _framework density 23.354388
#
# number of rings (size 3 to 8) (size 9 to 14) (size 15 to 20)
#    0.000    0.593    5.926    2.000    0.000    1.778 
#   21.333    0.000    0.000    0.000    0.000    0.000 
#    0.000    0.000    0.000    0.000    0.000    0.000 
#
# Total GULP energy -301645.695652 kJ/mol
# GULP energy per Si atom -5586.031401 kJ/mol
# Density = 2.330123 g / cm^3
# Si number density = 23.354388 Si / 1000 Ang^3
#
#
#
# Elastic Constant Matrix: (Units=GPa)
#
#
# Indices 1 2 3 4 5 6 
#
# 1 150.5060 13.3655 46.4151 0.0000 0.0000 0.0000
# 2 13.3655 107.2969 21.3240 0.0000 0.0000 0.0000
# 3 46.4151 21.3240 81.9746 0.0000 0.0000 0.0000
# 4 0.0000 0.0000 0.0000 22.1391 0.0000 0.0000
# 5 0.0000 0.0000 0.0000 0.0000 -92.4218 0.0000
# 6 0.0000 0.0000 0.0000 0.0000 0.0000 24.2820
#
#
#
# Elastic Compliance Matrix: (Units=1/GPa)
#
#
# Indices 1 2 3 4 5 6 
#
# 1 0.008051 -0.000102 -0.004532 0.000000 0.000000 0.000000
# 2 -0.000102 0.009829 -0.002499 0.000000 0.000000 0.000000
# 3 -0.004532 -0.002499 0.015415 0.000000 0.000000 0.000000
# 4 0.000000 0.000000 0.000000 0.045169 0.000000 0.000000
# 5 0.000000 0.000000 0.000000 0.000000 -0.010820 0.000000
# 6 0.000000 0.000000 0.000000 0.000000 0.000000 0.041183
#
#
# Mechanical properties :
#
#
# Convention : Reuss Voigt Hill
#
# Bulk Modulus (GPa) = 52.55162 55.77630 54.16396
# Shear Modulus (GPa) = 38.62904 8.04474 23.33689
#
# Velocity S-wave (km/s) = 4.07140 1.85799 3.16452
# Velocity P-wave (km/s) = 6.68224 5.34203 6.04936
#
# Compressibility (1/GPa) = 0.01902891
#
# Stress axis : x y z
#
# Youngs Moduli (GPa) = 124.20876 101.73649 64.87179
#
# Poissons Ratio (x) = 0.01040 0.29400
# Poissons Ratio (y) = 0.01269 0.16212
# Poissons Ratio (z) = 0.56291 0.25424
#
# Static dielectric constant tensor:
#      x y z
#    x 1.803180 0.000000 0.000000 
#    y 0.000000 1.966290 0.000000 
#    z 0.000000 0.000000 1.945600 
# 
# From -- ./inp_files/25504.got.cif
#   From: 2010.05.17/outbox.cif.g08.bks.cpg/sg68_13_cif.got.tgz:25504.got - 2010.06.03 18:57:09.
