data_PCOD9507221
_publ_section_title
;
Structure prediction by ZEFSAII (Michael W. Deem and Ramdas Pophale) SiO2 
 PCOD9507221
Probable space group: C C C A
;
_chemical_formula_sum "Si O2"
_cell_formula_units_Z 120
_cell_length_a 17.096509
_cell_length_b 18.838742
_cell_length_c 17.637860
_cell_angle_alpha 90.000000
_cell_angle_beta 90.000000
_cell_angle_gamma 90.000000
_cell_volume 5680.744135
_symmetry_space_group_name_H-M "C C C A"
_symmetry_group_IT_number 68
_space_group.IT_coordinate_system_code '2'
_symmetry_cell_setting 'orthorhombic'
loop_
_space_group_symop_operation_xyz
x,y,z
-x,1/2-y,z
x,1/2-y,1/2-z
-x,y,1/2-z
-x,-y,-z
x,1/2+y,-z
-x,1/2+y,1/2+z
x,-y,1/2+z
1/2+x,1/2+y,z
1/2-x,-y,z
1/2+x,-y,1/2-z
1/2-x,1/2+y,1/2-z
1/2-x,1/2-y,-z
1/2+x,y,-z
1/2-x,y,1/2+z
1/2+x,1/2-y,1/2+z
loop_
_atom_site_type_symbol
_atom_site_label
_atom_site_fract_x
_atom_site_fract_y
_atom_site_fract_z
Si Si1 0.130792 0.864931 0.489484
Si Si2 0.686165 0.750000 0.250000
Si Si3 0.307190 0.649076 0.011889
Si Si4 0.579542 0.713636 0.854727
Si Si5 0.592868 0.240036 0.901578
Si Si6 0.590931 0.066160 0.231786
Si Si7 0.343521 0.992282 0.411210
Si Si8 0.806732 0.846925 0.334153
O O1 0.217891 0.844181 0.458925
O O2 0.071978 0.818654 0.438736
O O3 0.113919 0.840964 0.574873
O O4 0.124607 0.947209 0.468312
O O5 0.631756 0.763959 0.177229
O O6 0.738441 0.817698 0.278142
O O7 0.358916 0.716021 0.034820
O O8 0.352246 0.584142 0.051219
O O9 0.291506 0.637189 0.922829
O O10 0.500000 0.750000 0.832398
O O11 0.596448 0.643424 0.807677
O O12 0.641803 0.775172 0.842549
O O13 0.500000 0.250000 0.901251
O O14 0.500000 0.053311 0.250000
O O15 0.620494 0.008631 0.171056
O O16 0.647734 0.083999 0.302091
O O17 0.250000 0.000000 0.404328
#
# Coordination Sequence:
#
# PCOD9507221 Si02
#       8
#    16   8  16  16  16  16  16  16
#     4  10  20  39  67  96 128 172 224 281 332 396
#     4  12  25  40  61  98 140 174 224 280 347 408
#     4  11  23  44  67  96 128 177 230 277 324 403
#     4  11  19  32  59 102 136 159 204 283 347 389
#     4  12  25  42  67  97 133 179 227 280 342 407
#     4  11  22  37  62 100 140 170 211 274 355 395
#     4   9  23  43  67  93 135 180 225 272 329 401
#     4  12  22  35  66 104 128 167 222 281 339 403
#
# _framework density 21.123994
#
# number of rings (size 3 to 8) (size 9 to 14) (size 15 to 20)
#    0.000    1.067    5.333    1.800    3.733    0.000 
#    0.000    7.333    0.000    0.000    0.000    0.000 
#    0.000    0.000    0.000    0.000    0.000    0.000 
#
# Total GULP energy -334628.938272 kJ/mol
# GULP energy per Si atom -5577.148971 kJ/mol
# Density = 2.107591 g / cm^3
# Si number density = 21.123994 Si / 1000 Ang^3
#
#
#
# Elastic Constant Matrix: (Units=GPa)
#
#
# Indices 1 2 3 4 5 6 
#
# 1 51.5082 9.0455 11.1854 0.0000 0.0000 0.0000
# 2 9.0455 62.7003 19.7061 0.0000 0.0000 0.0000
# 3 11.1854 19.7061 102.2738 0.0000 0.0000 0.0000
# 4 0.0000 0.0000 0.0000 187.5650 0.0000 0.0000
# 5 0.0000 0.0000 0.0000 0.0000 8.8709 0.0000
# 6 0.0000 0.0000 0.0000 0.0000 0.0000 18.0424
#
#
#
# Elastic Compliance Matrix: (Units=1/GPa)
#
#
# Indices 1 2 3 4 5 6 
#
# 1 0.020211 -0.002364 -0.001755 0.000000 0.000000 0.000000
# 2 -0.002364 0.017254 -0.003066 0.000000 0.000000 0.000000
# 3 -0.001755 -0.003066 0.010560 0.000000 0.000000 0.000000
# 4 0.000000 0.000000 0.000000 0.005331 0.000000 0.000000
# 5 0.000000 0.000000 0.000000 0.000000 0.112729 0.000000
# 6 0.000000 0.000000 0.000000 0.000000 0.000000 0.055425
#
#
# Mechanical properties :
#
#
# Convention : Reuss Voigt Hill
#
# Bulk Modulus (GPa) = 29.71348 32.92848 31.32098
# Shear Modulus (GPa) = 20.23494 54.66534 37.45014
#
# Velocity S-wave (km/s) = 3.09837 5.09259 4.21512
# Velocity P-wave (km/s) = 5.18620 7.08529 6.20878
#
# Compressibility (1/GPa) = 0.03365475
#
# Stress axis : x y z
#
# Youngs Moduli (GPa) = 49.47887 57.95917 94.69411
#
# Poissons Ratio (x) = 0.13703 0.16617
# Poissons Ratio (y) = 0.11698 0.29032
# Poissons Ratio (z) = 0.08683 0.17769
#
# Static dielectric constant tensor:
#      x y z
#    x 1.773570 0.000000 0.000000 
#    y 0.000000 1.727580 0.000000 
#    z 0.000000 0.000000 1.868880 
# 
# From -- ./inp_files/32305.got.cif
#   From: 2010.05.17/outbox.cif.g08.bks.cpg/sg68_17_cif.got.tgz:32305.got - 2010.06.03 18:57:09.
