data_PCOD9507603
_publ_section_title
;
Structure prediction by ZEFSAII (Michael W. Deem and Ramdas Pophale) SiO2 
 PCOD9507603
Probable space group: C C C A
;
_chemical_formula_sum "Si O2"
_cell_formula_units_Z 64
_cell_length_a 9.749649
_cell_length_b 11.375210
_cell_length_c 25.811000
_cell_angle_alpha 90.000000
_cell_angle_beta 90.000000
_cell_angle_gamma 90.000000
_cell_volume 2862.551011
_symmetry_space_group_name_H-M "C C C A"
_symmetry_group_IT_number 68
_space_group.IT_coordinate_system_code '2'
_symmetry_cell_setting 'orthorhombic'
loop_
_space_group_symop_operation_xyz
x,y,z
-x,1/2-y,z
x,1/2-y,1/2-z
-x,y,1/2-z
-x,-y,-z
x,1/2+y,-z
-x,1/2+y,1/2+z
x,-y,1/2+z
1/2+x,1/2+y,z
1/2-x,-y,z
1/2+x,-y,1/2-z
1/2-x,1/2+y,1/2-z
1/2-x,1/2-y,-z
1/2+x,y,-z
1/2-x,y,1/2+z
1/2+x,1/2-y,1/2+z
loop_
_atom_site_type_symbol
_atom_site_label
_atom_site_fract_x
_atom_site_fract_y
_atom_site_fract_z
Si Si1 0.346393 0.118429 0.271641
Si Si2 0.446470 0.879455 0.442247
Si Si3 0.180312 0.323379 0.609653
Si Si4 0.907006 0.403635 0.560071
O O1 0.299724 0.250000 0.250000
O O2 0.500000 0.096307 0.250000
O O3 0.361962 0.143095 0.332901
O O4 0.250000 0.000000 0.263308
O O5 0.500000 0.750000 0.445585
O O6 0.326181 0.880485 0.400873
O O7 0.379828 0.900061 0.498975
O O8 0.575792 0.960117 0.427873
O O9 0.175302 0.184166 0.596683
O O10 0.067419 0.367772 0.568555
#
# Coordination Sequence:
#
# PCOD9507603 Si02
#       4
#    16  16  16  16
#     4  11  25  49  79 105 138 181 235 305 373 435
#     4  11  22  36  57  98 137 178 229 280 321 403
#     4  11  22  44  65  92 135 179 221 278 350 419
#     4  10  21  36  63  88 134 186 223 263 336 405
#
# _framework density 22.357682
#
# number of rings (size 3 to 8) (size 9 to 14) (size 15 to 20)
#    0.000    1.250    2.500    6.000    0.000    1.500 
#   13.500    0.000    0.000    0.000    0.000    0.000 
#    0.000    0.000    0.000    0.000    0.000    0.000 
#
# Total GULP energy -178458.224209 kJ/mol
# GULP energy per Si atom -5576.819507 kJ/mol
# Density = 2.230679 g / cm^3
# Si number density = 22.357682 Si / 1000 Ang^3
#
#
#
# Elastic Constant Matrix: (Units=GPa)
#
#
# Indices 1 2 3 4 5 6 
#
# 1 52.3733 44.3594 51.4057 0.0000 0.0000 0.0000
# 2 44.3594 191.2353 31.0726 0.0000 0.0000 0.0000
# 3 51.4057 31.0726 132.0464 0.0000 0.0000 0.0000
# 4 0.0000 0.0000 0.0000 21.3050 0.0000 0.0000
# 5 0.0000 0.0000 0.0000 0.0000 33.1994 0.0000
# 6 0.0000 0.0000 0.0000 0.0000 0.0000 17.8150
#
#
#
# Elastic Compliance Matrix: (Units=1/GPa)
#
#
# Indices 1 2 3 4 5 6 
#
# 1 0.037451 -0.006569 -0.013034 0.000000 0.000000 0.000000
# 2 -0.006569 0.006589 0.001007 0.000000 0.000000 0.000000
# 3 -0.013034 0.001007 0.012410 0.000000 0.000000 0.000000
# 4 0.000000 0.000000 0.000000 0.046937 0.000000 0.000000
# 5 0.000000 0.000000 0.000000 0.000000 0.030121 0.000000
# 6 0.000000 0.000000 0.000000 0.000000 0.000000 0.056132
#
#
# Mechanical properties :
#
#
# Convention : Reuss Voigt Hill
#
# Bulk Modulus (GPa) = 51.92671 69.92559 60.92615
# Shear Modulus (GPa) = 21.43594 31.05170 26.24382
#
# Velocity S-wave (km/s) = 3.09976 3.73078 3.42982
# Velocity P-wave (km/s) = 6.00727 7.06414 6.55703
#
# Compressibility (1/GPa) = 0.01925791
#
# Stress axis : x y z
#
# Youngs Moduli (GPa) = 26.70166 151.75839 80.57892
#
# Poissons Ratio (x) = 0.99697 1.05024
# Poissons Ratio (y) = 0.17541 -0.08113
# Poissons Ratio (z) = 0.34802 -0.15280
#
# Static dielectric constant tensor:
#      x y z
#    x 1.848120 0.000000 0.000000 
#    y 0.000000 2.079450 0.000000 
#    z 0.000000 0.000000 1.782850 
# 
# From -- ./inp_files/49961.got.cif
#   From: 2010.05.17/outbox.cif.g08.bks.cpg/sg68_25_cif.got.tgz:49961.got - 2010.06.03 18:57:09.
