data_PCOD9507617
_publ_section_title
;
Structure prediction by ZEFSAII (Michael W. Deem and Ramdas Pophale) SiO2 
 PCOD9507617
Probable space group: C C C A
;
_chemical_formula_sum "Si O2"
_cell_formula_units_Z 88
_cell_length_a 9.765145
_cell_length_b 19.398644
_cell_length_c 23.735313
_cell_angle_alpha 90.000000
_cell_angle_beta 90.000000
_cell_angle_gamma 90.000000
_cell_volume 4496.193905
_symmetry_space_group_name_H-M "C C C A"
_symmetry_group_IT_number 68
_space_group.IT_coordinate_system_code '2'
_symmetry_cell_setting 'orthorhombic'
loop_
_space_group_symop_operation_xyz
x,y,z
-x,1/2-y,z
x,1/2-y,1/2-z
-x,y,1/2-z
-x,-y,-z
x,1/2+y,-z
-x,1/2+y,1/2+z
x,-y,1/2+z
1/2+x,1/2+y,z
1/2-x,-y,z
1/2+x,-y,1/2-z
1/2-x,1/2+y,1/2-z
1/2-x,1/2-y,-z
1/2+x,y,-z
1/2-x,y,1/2+z
1/2+x,1/2-y,1/2+z
loop_
_atom_site_type_symbol
_atom_site_label
_atom_site_fract_x
_atom_site_fract_y
_atom_site_fract_z
Si Si1 0.500000 0.250000 0.586549
Si Si2 0.243440 0.652041 0.548560
Si Si3 0.481679 0.176362 0.362714
Si Si4 0.250000 0.000000 0.399770
Si Si5 0.984126 0.464819 0.813821
Si Si6 0.722726 0.851592 0.418263
Si Si7 0.250000 0.500000 0.380816
O O1 0.601733 0.193690 0.557518
O O2 0.387034 0.197487 0.613398
O O3 0.359886 0.678977 0.591373
O O4 0.238230 0.569863 0.563155
O O5 0.285859 0.664979 0.484371
O O6 0.500000 0.250000 0.334901
O O7 0.448869 0.116060 0.318933
O O8 0.623572 0.160418 0.395597
O O9 0.377640 0.000353 0.356566
O O10 0.000000 0.488971 0.750000
O O11 0.130121 0.473986 0.841590
O O12 0.696556 0.933414 0.413971
#
# Coordination Sequence:
#
# PCOD9507617 Si02
#       7
#     8  16  16   8  16  16   8
#     4  12  22  32  56  86 115 160 199 230 268 322
#     4  11  22  35  57  84 121 156 190 226 279 341
#     4  10  21  37  53  81 114 151 188 230 282 344
#     4  10  22  40  58  86 116 150 190 238 290 346
#     4  10  21  38  62  83 106 144 192 246 293 337
#     4  11  22  35  57  84 121 156 190 226 279 341
#     4  10  22  40  58  86 116 150 190 238 290 346
#
# _framework density 19.572109999999999
#
# number of rings (size 3 to 8) (size 9 to 14) (size 15 to 20)
#    0.000    1.455    1.818    3.818    2.545    0.364 
#    0.000    7.273    0.000    0.000    0.000    7.636 
#    0.000    0.000    0.000    0.000    0.000    0.000 
#
# Total GULP energy -245096.145739 kJ/mol
# GULP energy per Si atom -5570.366949 kJ/mol
# Density = 1.952756 g / cm^3
# Si number density = 19.572110 Si / 1000 Ang^3
#
#
#
# Elastic Constant Matrix: (Units=GPa)
#
#
# Indices 1 2 3 4 5 6 
#
# 1 96.9262 7.8012 11.2181 0.0000 0.0000 0.0000
# 2 7.8012 105.5447 -7.1642 0.0000 0.0000 0.0000
# 3 11.2181 -7.1642 37.4739 0.0000 0.0000 0.0000
# 4 0.0000 0.0000 0.0000 7.8114 0.0000 0.0000
# 5 0.0000 0.0000 0.0000 0.0000 15.2344 0.0000
# 6 0.0000 0.0000 0.0000 0.0000 0.0000 33.0095
#
#
#
# Elastic Compliance Matrix: (Units=1/GPa)
#
#
# Indices 1 2 3 4 5 6 
#
# 1 0.010797 -0.001031 -0.003429 0.000000 0.000000 0.000000
# 2 -0.001031 0.009698 0.002163 0.000000 0.000000 0.000000
# 3 -0.003429 0.002163 0.028125 0.000000 0.000000 0.000000
# 4 0.000000 0.000000 0.000000 0.128017 0.000000 0.000000
# 5 0.000000 0.000000 0.000000 0.000000 0.065641 0.000000
# 6 0.000000 0.000000 0.000000 0.000000 0.000000 0.030294
#
#
# Mechanical properties :
#
#
# Convention : Reuss Voigt Hill
#
# Bulk Modulus (GPa) = 22.71443 29.29500 26.00472
# Shear Modulus (GPa) = 17.13254 26.41706 21.77480
#
# Velocity S-wave (km/s) = 2.96185 3.67785 3.33910
# Velocity P-wave (km/s) = 4.82985 5.74767 5.30863
#
# Compressibility (1/GPa) = 0.04402487
#
# Stress axis : x y z
#
# Youngs Moduli (GPa) = 92.61837 103.11788 35.55526
#
# Poissons Ratio (x) = 0.10630 0.12193
# Poissons Ratio (y) = 0.09547 -0.07689
# Poissons Ratio (z) = 0.31761 -0.22300
#
# Static dielectric constant tensor:
#      x y z
#    x 1.670330 0.000000 0.000000 
#    y 0.000000 1.807410 0.000000 
#    z 0.000000 0.000000 1.643730 
# 
# From -- ./inp_files/43165.got.cif
#   From: 2010.05.17/outbox.cif.g08.bks.cpg/sg68_22_cif.got.tgz:43165.got - 2010.06.03 18:57:09.
