data_PCOD9507640
_publ_section_title
;
Structure prediction by ZEFSAII (Michael W. Deem and Ramdas Pophale) SiO2 
 PCOD9507640
Probable space group: C C C A
;
_chemical_formula_sum "Si O2"
_cell_formula_units_Z 88
_cell_length_a 8.880716
_cell_length_b 24.969806
_cell_length_c 20.243803
_cell_angle_alpha 90.000000
_cell_angle_beta 90.000000
_cell_angle_gamma 90.000000
_cell_volume 4489.058369
_symmetry_space_group_name_H-M "C C C A"
_symmetry_group_IT_number 68
_space_group.IT_coordinate_system_code '2'
_symmetry_cell_setting 'orthorhombic'
loop_
_space_group_symop_operation_xyz
x,y,z
-x,1/2-y,z
x,1/2-y,1/2-z
-x,y,1/2-z
-x,-y,-z
x,1/2+y,-z
-x,1/2+y,1/2+z
x,-y,1/2+z
1/2+x,1/2+y,z
1/2-x,-y,z
1/2+x,-y,1/2-z
1/2-x,1/2+y,1/2-z
1/2-x,1/2-y,-z
1/2+x,y,-z
1/2-x,y,1/2+z
1/2+x,1/2-y,1/2+z
loop_
_atom_site_type_symbol
_atom_site_label
_atom_site_fract_x
_atom_site_fract_y
_atom_site_fract_z
Si Si1 0.500000 0.250000 0.993749
Si Si2 0.812891 0.646198 0.811007
Si Si3 0.170950 0.346938 0.339604
Si Si4 0.312013 0.558541 0.078743
Si Si5 0.170156 0.057968 0.059330
Si Si6 0.247308 0.767224 0.403615
O O1 0.603098 0.284167 0.944579
O O2 0.616899 0.223557 0.043384
O O3 0.770719 0.642189 0.734505
O O4 0.784355 0.595854 0.858293
O O5 0.725523 0.696264 0.840985
O O6 0.991376 0.657916 0.823792
O O7 0.206122 0.397556 0.385774
O O8 0.228467 0.293467 0.377425
O O9 0.250000 0.500000 0.093722
O O10 0.489155 0.553474 0.061840
O O11 0.226466 0.577351 0.012494
O O12 0.250000 0.000000 0.070370
#
# Coordination Sequence:
#
# PCOD9507640 Si02
#       6
#     8  16  16  16  16  16
#     4  10  24  34  60  90 114 152 190 232 284 336
#     4  10  21  37  60  85 116 155 191 229 282 346
#     4  10  21  37  60  85 116 155 191 229 282 346
#     4  10  21  37  59  85 112 146 192 240 283 333
#     4  10  21  37  59  85 112 146 192 240 283 333
#     4  11  21  39  58  89 119 148 186 238 283 336
#
# _framework density 19.603218999999999
#
# number of rings (size 3 to 8) (size 9 to 14) (size 15 to 20)
#    0.000    1.818    1.818    2.727    5.091    2.182 
#    3.273    1.818    0.000    0.000    0.000    0.000 
#    0.000    0.000    0.000    0.000    0.000    0.000 
#
# Total GULP energy -245319.936176 kJ/mol
# GULP energy per Si atom -5575.453095 kJ/mol
# Density = 1.955860 g / cm^3
# Si number density = 19.603219 Si / 1000 Ang^3
#
#
#
# Elastic Constant Matrix: (Units=GPa)
#
#
# Indices 1 2 3 4 5 6 
#
# 1 62.3965 29.4202 36.0336 0.0000 0.0000 0.0000
# 2 29.4202 91.9948 85.5151 0.0000 0.0000 0.0000
# 3 36.0336 85.5151 174.1136 0.0000 0.0000 0.0000
# 4 0.0000 0.0000 0.0000 10.7769 0.0000 0.0000
# 5 0.0000 0.0000 0.0000 0.0000 9.6982 0.0000
# 6 0.0000 0.0000 0.0000 0.0000 0.0000 9.7667
#
#
#
# Elastic Compliance Matrix: (Units=1/GPa)
#
#
# Indices 1 2 3 4 5 6 
#
# 1 0.019161 -0.004493 -0.001759 0.000000 0.000000 0.000000
# 2 -0.004493 0.021056 -0.009412 0.000000 0.000000 0.000000
# 3 -0.001759 -0.009412 0.010730 0.000000 0.000000 0.000000
# 4 0.000000 0.000000 0.000000 0.092791 0.000000 0.000000
# 5 0.000000 0.000000 0.000000 0.000000 0.103112 0.000000
# 6 0.000000 0.000000 0.000000 0.000000 0.000000 0.102388
#
#
# Mechanical properties :
#
#
# Convention : Reuss Voigt Hill
#
# Bulk Modulus (GPa) = 50.96878 70.04919 60.50898
# Shear Modulus (GPa) = 12.91646 17.88411 15.40029
#
# Velocity S-wave (km/s) = 2.56968 3.02372 2.80590
# Velocity P-wave (km/s) = 5.90432 6.92832 6.43671
#
# Compressibility (1/GPa) = 0.01961985
#
# Stress axis : x y z
#
# Youngs Moduli (GPa) = 52.19060 47.49315 93.19801
#
# Poissons Ratio (x) = 0.21337 0.16392
# Poissons Ratio (y) = 0.23448 0.87714
# Poissons Ratio (z) = 0.09179 0.44699
#
# Static dielectric constant tensor:
#      x y z
#    x 1.761560 0.000000 0.000000 
#    y 0.000000 1.681600 0.000000 
#    z 0.000000 0.000000 1.690190 
# 
# From -- ./inp_files/36279.got.cif
#   From: 2010.05.17/outbox.cif.g08.bks.cpg/sg68_19_cif.got.tgz:36279.got - 2010.06.03 18:57:09.
