data_PCOD9507335
_publ_section_title
;
Structure prediction by ZEFSAII (Michael W. Deem and Ramdas Pophale) SiO2 
 PCOD9507335
Probable space group: C C C A
;
_chemical_formula_sum "Si O2"
_cell_formula_units_Z 72
_cell_length_a 9.681708
_cell_length_b 22.724530
_cell_length_c 13.744170
_cell_angle_alpha 90.000000
_cell_angle_beta 90.000000
_cell_angle_gamma 90.000000
_cell_volume 3023.885957
_symmetry_space_group_name_H-M "C C C A"
_symmetry_group_IT_number 68
_space_group.IT_coordinate_system_code '2'
_symmetry_cell_setting 'orthorhombic'
loop_
_space_group_symop_operation_xyz
x,y,z
-x,1/2-y,z
x,1/2-y,1/2-z
-x,y,1/2-z
-x,-y,-z
x,1/2+y,-z
-x,1/2+y,1/2+z
x,-y,1/2+z
1/2+x,1/2+y,z
1/2-x,-y,z
1/2+x,-y,1/2-z
1/2-x,1/2+y,1/2-z
1/2-x,1/2-y,-z
1/2+x,y,-z
1/2-x,y,1/2+z
1/2+x,1/2-y,1/2+z
loop_
_atom_site_type_symbol
_atom_site_label
_atom_site_fract_x
_atom_site_fract_y
_atom_site_fract_z
Si Si1 0.070802 0.308819 0.005515
Si Si2 0.750000 0.500000 0.842058
Si Si3 0.153232 0.805197 0.205499
Si Si4 0.361265 0.093896 0.706716
Si Si5 0.821547 0.893790 0.023169
O O1 0.148347 0.288958 0.907869
O O2 0.000000 0.250000 0.051817
O O3 0.946571 0.348853 0.964751
O O4 0.181892 0.356048 0.046836
O O5 0.650822 0.464835 0.769699
O O6 0.821591 0.451536 0.910612
O O7 0.231087 0.750000 0.250000
O O8 0.231112 0.864668 0.227014
O O9 0.000000 0.808589 0.250000
O O10 0.500000 0.123348 0.750000
O O11 0.345629 0.086660 0.590144
#
# Coordination Sequence:
#
# PCOD9507335 Si02
#       5
#    16   8  16  16  16
#     4  11  22  43  70 100 144 185 234 298 360 423
#     4  12  26  46  74  94 150 190 246 292 364 436
#     4  10  20  40  70  99 136 189 239 280 356 435
#     4  11  26  45  68 106 142 185 239 308 363 417
#     4  11  26  44  70 108 138 189 244 296 364 433
#
# _framework density 23.810421000000002
#
# number of rings (size 3 to 8) (size 9 to 14) (size 15 to 20)
#    0.000    1.111    2.222    4.000    0.000    8.444 
#    8.000    0.000    0.000    0.000    0.000    0.000 
#    0.000    0.000    0.000    0.000    0.000    0.000 
#
# Total GULP energy -200976.915104 kJ/mol
# GULP energy per Si atom -5582.692086 kJ/mol
# Density = 2.375623 g / cm^3
# Si number density = 23.810421 Si / 1000 Ang^3
#
#
#
# Elastic Constant Matrix: (Units=GPa)
#
#
# Indices 1 2 3 4 5 6 
#
# 1 94.8530 27.5117 1.0012 0.0000 0.0000 0.0000
# 2 27.5117 131.8851 48.1571 0.0000 0.0000 0.0000
# 3 1.0012 48.1571 128.4142 0.0000 0.0000 0.0000
# 4 0.0000 0.0000 0.0000 215.4460 0.0000 0.0000
# 5 0.0000 0.0000 0.0000 0.0000 12.7697 0.0000
# 6 0.0000 0.0000 0.0000 0.0000 0.0000 -87.7756
#
#
#
# Elastic Compliance Matrix: (Units=1/GPa)
#
#
# Indices 1 2 3 4 5 6 
#
# 1 0.011315 -0.002698 0.000923 0.000000 0.000000 0.000000
# 2 -0.002698 0.009428 -0.003515 0.000000 0.000000 0.000000
# 3 0.000923 -0.003515 0.009098 0.000000 0.000000 0.000000
# 4 0.000000 0.000000 0.000000 0.004642 0.000000 0.000000
# 5 0.000000 0.000000 0.000000 0.000000 0.078310 0.000000
# 6 0.000000 0.000000 0.000000 0.000000 0.000000 -0.011393
#
#
# Mechanical properties :
#
#
# Convention : Reuss Voigt Hill
#
# Bulk Modulus (GPa) = 51.91014 56.49916 54.20465
# Shear Modulus (GPa) = 42.22955 46.65349 44.44152
#
# Velocity S-wave (km/s) = 4.21595 4.43128 4.32496
# Velocity P-wave (km/s) = 6.74891 7.06838 6.91049
#
# Compressibility (1/GPa) = 0.01926406
#
# Stress axis : x y z
#
# Youngs Moduli (GPa) = 88.37588 106.06157 109.91192
#
# Poissons Ratio (x) = 0.28611 -0.10149
# Poissons Ratio (y) = 0.23840 0.38632
# Poissons Ratio (z) = -0.08161 0.37278
#
# Static dielectric constant tensor:
#      x y z
#    x 1.969840 0.000000 0.000000 
#    y 0.000000 1.969750 0.000000 
#    z 0.000000 0.000000 1.971730 
# 
# From -- ./inp_files/19434.got.cif
#   From: 2010.05.17/outbox.cif.g08.bks.cpg/sg68_10_cif.got.tgz:19434.got - 2010.06.03 18:57:09.
