data_PCOD9507681
_publ_section_title
;
Structure prediction by ZEFSAII (Michael W. Deem and Ramdas Pophale) SiO2 
 PCOD9507681
Probable space group: C C C A
;
_chemical_formula_sum "Si O2"
_cell_formula_units_Z 80
_cell_length_a 16.636917
_cell_length_b 13.678562
_cell_length_c 16.514721
_cell_angle_alpha 90.000000
_cell_angle_beta 90.000000
_cell_angle_gamma 90.000000
_cell_volume 3758.240206
_symmetry_space_group_name_H-M "C C C A"
_symmetry_group_IT_number 68
_space_group.IT_coordinate_system_code '2'
_symmetry_cell_setting 'orthorhombic'
loop_
_space_group_symop_operation_xyz
x,y,z
-x,1/2-y,z
x,1/2-y,1/2-z
-x,y,1/2-z
-x,-y,-z
x,1/2+y,-z
-x,1/2+y,1/2+z
x,-y,1/2+z
1/2+x,1/2+y,z
1/2-x,-y,z
1/2+x,-y,1/2-z
1/2-x,1/2+y,1/2-z
1/2-x,1/2-y,-z
1/2+x,y,-z
1/2-x,y,1/2+z
1/2+x,1/2-y,1/2+z
loop_
_atom_site_type_symbol
_atom_site_label
_atom_site_fract_x
_atom_site_fract_y
_atom_site_fract_z
Si Si1 0.821391 0.931565 0.189197
Si Si2 0.773495 0.243194 0.906444
Si Si3 0.089375 0.887579 0.151899
Si Si4 0.559430 0.559949 0.940120
Si Si5 0.174594 0.070092 0.079635
O O1 0.778021 0.843642 0.141207
O O2 0.880082 0.883235 0.256029
O O3 0.878667 0.988377 0.124468
O O4 0.750000 0.000000 0.222500
O O5 0.858771 0.190271 0.897193
O O6 0.710819 0.161907 0.873034
O O7 0.750000 0.250000 0.000000
O O8 0.999352 0.879500 0.118639
O O9 0.118418 0.997566 0.129718
O O10 0.500000 0.500000 0.000000
O O11 0.621233 0.606649 0.004174
O O12 0.250000 0.000000 0.053268
#
# Coordination Sequence:
#
# PCOD9507681 Si02
#       5
#    16  16  16  16  16
#     4  12  24  40  63  93 122 167 211 255 315 375
#     4  11  22  37  63  90 120 161 209 249 303 376
#     4  10  23  40  63  90 129 157 200 271 318 368
#     4  10  21  37  63  90 126 161 203 254 318 374
#     4   9  18  39  63  92 121 162 206 256 311 374
#
# _framework density 21.286559
#
# number of rings (size 3 to 8) (size 9 to 14) (size 15 to 20)
#    0.000    1.600    2.000    3.600    5.600    0.800 
#    0.000    2.000    0.000    0.000    0.000    0.000 
#    0.000    0.000    0.000    0.000    0.000    0.000 
#
# Total GULP energy -222732.504932 kJ/mol
# GULP energy per Si atom -5568.312623 kJ/mol
# Density = 2.123811 g / cm^3
# Si number density = 21.286559 Si / 1000 Ang^3
#
#
#
# Elastic Constant Matrix: (Units=GPa)
#
#
# Indices 1 2 3 4 5 6 
#
# 1 107.3866 21.2225 40.6117 0.0000 0.0000 0.0000
# 2 21.2225 77.0951 26.9478 0.0000 0.0000 0.0000
# 3 40.6117 26.9478 110.2363 0.0000 0.0000 0.0000
# 4 0.0000 0.0000 0.0000 27.4865 0.0000 0.0000
# 5 0.0000 0.0000 0.0000 0.0000 47.9247 0.0000
# 6 0.0000 0.0000 0.0000 0.0000 0.0000 29.0047
#
#
#
# Elastic Compliance Matrix: (Units=1/GPa)
#
#
# Indices 1 2 3 4 5 6 
#
# 1 0.011036 -0.001768 -0.003633 0.000000 0.000000 0.000000
# 2 -0.001768 0.014466 -0.002885 0.000000 0.000000 0.000000
# 3 -0.003633 -0.002885 0.011115 0.000000 0.000000 0.000000
# 4 0.000000 0.000000 0.000000 0.036382 0.000000 0.000000
# 5 0.000000 0.000000 0.000000 0.000000 0.020866 0.000000
# 6 0.000000 0.000000 0.000000 0.000000 0.000000 0.034477
#
#
# Mechanical properties :
#
#
# Convention : Reuss Voigt Hill
#
# Bulk Modulus (GPa) = 49.88929 52.47578 51.18253
# Shear Modulus (GPa) = 32.98247 34.61226 33.79737
#
# Velocity S-wave (km/s) = 3.94058 4.03676 3.98896
# Velocity P-wave (km/s) = 6.64771 6.81417 6.73145
#
# Compressibility (1/GPa) = 0.02004438
#
# Stress axis : x y z
#
# Youngs Moduli (GPa) = 90.61571 69.12728 89.96636
#
# Poissons Ratio (x) = 0.12220 0.32689
# Poissons Ratio (y) = 0.16019 0.25956
# Poissons Ratio (z) = 0.32925 0.19943
#
# Static dielectric constant tensor:
#      x y z
#    x 1.802620 0.000000 0.000000 
#    y 0.000000 1.814530 0.000000 
#    z 0.000000 0.000000 1.861650 
# 
# From -- ./inp_files/31767.got.cif
#   From: 2010.05.17/outbox.cif.g08.bks.cpg/sg68_16_cif.got.tgz:31767.got - 2010.06.03 18:57:09.
