data_PCOD9507902
_publ_section_title
;
Structure prediction by ZEFSAII (Michael W. Deem and Ramdas Pophale) SiO2 
 PCOD9507902
Probable space group: C C C A
;
_chemical_formula_sum "Si O2"
_cell_formula_units_Z 72
_cell_length_a 13.313191
_cell_length_b 8.342661
_cell_length_c 31.442195
_cell_angle_alpha 90.000000
_cell_angle_beta 90.000000
_cell_angle_gamma 90.000000
_cell_volume 3492.204086
_symmetry_space_group_name_H-M "C C C A"
_symmetry_group_IT_number 68
_space_group.IT_coordinate_system_code '2'
_symmetry_cell_setting 'orthorhombic'
loop_
_space_group_symop_operation_xyz
x,y,z
-x,1/2-y,z
x,1/2-y,1/2-z
-x,y,1/2-z
-x,-y,-z
x,1/2+y,-z
-x,1/2+y,1/2+z
x,-y,1/2+z
1/2+x,1/2+y,z
1/2-x,-y,z
1/2+x,-y,1/2-z
1/2-x,1/2+y,1/2-z
1/2-x,1/2-y,-z
1/2+x,y,-z
1/2-x,y,1/2+z
1/2+x,1/2-y,1/2+z
loop_
_atom_site_type_symbol
_atom_site_label
_atom_site_fract_x
_atom_site_fract_y
_atom_site_fract_z
Si Si1 0.634771 0.457305 0.716240
Si Si2 0.370731 0.490745 0.947327
Si Si3 0.000000 0.250000 0.501144
Si Si4 0.358450 0.086433 0.811412
Si Si5 0.472524 0.070480 0.138057
O O1 0.750000 0.500000 0.719910
O O2 0.599545 0.466765 0.765081
O O3 0.634563 0.278557 0.695526
O O4 0.585298 0.575746 0.682811
O O5 0.250000 0.500000 0.951618
O O6 0.431186 0.636069 0.969729
O O7 0.403766 0.492831 0.898093
O O8 0.420311 0.340842 0.971268
O O9 0.250000 0.000000 0.816647
O O10 0.428675 0.031285 0.850040
O O11 0.500000 0.250000 0.124999
#
# Coordination Sequence:
#
# PCOD9507902 Si02
#       5
#    16  16   8  16  16
#     4  10  21  39  62  88 127 175 226 279 335 387
#     4  11  24  46  73 102 137 171 217 276 333 404
#     4  10  24  48  74 104 128 174 220 264 346 408
#     4  10  22  39  61  91 127 176 229 276 331 395
#     4  12  24  39  59  95 133 173 221 272 330 394
#
# _framework density 20.617352
#
# number of rings (size 3 to 8) (size 9 to 14) (size 15 to 20)
#    0.000    1.333    1.111    4.000    3.111    5.333 
#    0.000    1.111    0.000    0.000    0.000    0.000 
#    0.000    0.000    0.000    0.000    0.000    0.000 
#
# Total GULP energy -200903.669996 kJ/mol
# GULP energy per Si atom -5580.657500 kJ/mol
# Density = 2.057043 g / cm^3
# Si number density = 20.617352 Si / 1000 Ang^3
#
#
#
# Elastic Constant Matrix: (Units=GPa)
#
#
# Indices 1 2 3 4 5 6 
#
# 1 148.9946 17.0256 43.7522 0.0000 0.0000 0.0000
# 2 17.0256 41.1132 27.6122 0.0000 0.0000 0.0000
# 3 43.7522 27.6122 97.4402 0.0000 0.0000 0.0000
# 4 0.0000 0.0000 0.0000 28.4019 0.0000 0.0000
# 5 0.0000 0.0000 0.0000 0.0000 40.1187 0.0000
# 6 0.0000 0.0000 0.0000 0.0000 0.0000 20.9207
#
#
#
# Elastic Compliance Matrix: (Units=1/GPa)
#
#
# Indices 1 2 3 4 5 6 
#
# 1 0.007770 -0.001080 -0.003183 0.000000 0.000000 0.000000
# 2 -0.001080 0.030190 -0.008070 0.000000 0.000000 0.000000
# 3 -0.003183 -0.008070 0.013979 0.000000 0.000000 0.000000
# 4 0.000000 0.000000 0.000000 0.035209 0.000000 0.000000
# 5 0.000000 0.000000 0.000000 0.000000 0.024926 0.000000
# 6 0.000000 0.000000 0.000000 0.000000 0.000000 0.047800
#
#
# Mechanical properties :
#
#
# Convention : Reuss Voigt Hill
#
# Bulk Modulus (GPa) = 36.66648 51.59200 44.12924
# Shear Modulus (GPa) = 25.82244 31.16547 28.49396
#
# Velocity S-wave (km/s) = 3.54285 3.89217 3.72161
# Velocity P-wave (km/s) = 5.87866 6.72878 6.31804
#
# Compressibility (1/GPa) = 0.02727287
#
# Stress axis : x y z
#
# Youngs Moduli (GPa) = 128.70600 33.12306 71.53754
#
# Poissons Ratio (x) = 0.03577 0.22768
# Poissons Ratio (y) = 0.13901 0.57733
# Poissons Ratio (z) = 0.40962 0.26731
#
# Static dielectric constant tensor:
#      x y z
#    x 1.518490 0.000000 0.000000 
#    y 0.000000 1.778400 0.000000 
#    z 0.000000 0.000000 1.715790 
# 
# From -- ./inp_files/50715.got.cif
#   From: 2010.05.17/outbox.cif.g08.bks.cpg/sg68_26_cif.got.tgz:50715.got - 2010.06.03 18:57:09.
