data_PCOD9507381
_publ_section_title
;
Structure prediction by ZEFSAII (Michael W. Deem and Ramdas Pophale) SiO2 
 PCOD9507381
Probable space group: C C C A
;
_chemical_formula_sum "Si O2"
_cell_formula_units_Z 48
_cell_length_a 10.522220
_cell_length_b 21.749166
_cell_length_c 7.904831
_cell_angle_alpha 90.000000
_cell_angle_beta 90.000000
_cell_angle_gamma 90.000000
_cell_volume 1809.016697
_symmetry_space_group_name_H-M "C C C A"
_symmetry_group_IT_number 68
_space_group.IT_coordinate_system_code '2'
_symmetry_cell_setting 'orthorhombic'
loop_
_space_group_symop_operation_xyz
x,y,z
-x,1/2-y,z
x,1/2-y,1/2-z
-x,y,1/2-z
-x,-y,-z
x,1/2+y,-z
-x,1/2+y,1/2+z
x,-y,1/2+z
1/2+x,1/2+y,z
1/2-x,-y,z
1/2+x,-y,1/2-z
1/2-x,1/2+y,1/2-z
1/2-x,1/2-y,-z
1/2+x,y,-z
1/2-x,y,1/2+z
1/2+x,1/2-y,1/2+z
loop_
_atom_site_type_symbol
_atom_site_label
_atom_site_fract_x
_atom_site_fract_y
_atom_site_fract_z
Si Si1 0.000000 0.870465 0.750000
Si Si2 0.874407 0.710059 0.503081
Si Si3 0.250000 0.500000 0.290340
Si Si4 0.898325 0.919789 0.046421
O O1 0.892784 0.823356 0.814270
O O2 0.978038 0.908723 0.575943
O O3 0.750000 0.750000 0.500000
O O4 0.000000 0.750000 0.468830
O O5 0.871100 0.648657 0.387516
O O6 0.133213 0.530653 0.188200
O O7 0.304090 0.555034 0.401845
#
# Coordination Sequence:
#
# PCOD9507381 Si02
#       4
#     8  16   8  16
#     4   8  21  36  62 102 124 196 227 300 364 424
#     4  10  22  41  71 104 144 196 245 308 373 444
#     4  10  20  42  64 108 148 184 252 302 368 466
#     4   9  22  37  69 102 139 194 238 306 376 427
#
# _framework density 26.533753000000001
#
# number of rings (size 3 to 8) (size 9 to 14) (size 15 to 20)
#    2.000    0.667    0.000    0.500    4.667    1.333 
#    0.000    0.000    0.000   14.000    0.000    0.000 
#    0.000    0.000    0.000    0.000    0.000    0.000 
#
# Total GULP energy -133643.655935 kJ/mol
# GULP energy per Si atom -5568.485664 kJ/mol
# Density = 2.647336 g / cm^3
# Si number density = 26.533753 Si / 1000 Ang^3
#
#
#
# Elastic Constant Matrix: (Units=GPa)
#
#
# Indices 1 2 3 4 5 6 
#
# 1 138.2752 100.6018 42.6844 0.0000 0.0000 0.0000
# 2 100.6018 227.4052 18.0030 0.0000 0.0000 0.0000
# 3 42.6844 18.0030 73.2639 0.0000 0.0000 0.0000
# 4 0.0000 0.0000 0.0000 6.7939 0.0000 0.0000
# 5 0.0000 0.0000 0.0000 0.0000 36.0587 0.0000
# 6 0.0000 0.0000 0.0000 0.0000 0.0000 47.1905
#
#
#
# Elastic Compliance Matrix: (Units=1/GPa)
#
#
# Indices 1 2 3 4 5 6 
#
# 1 0.012989 -0.005249 -0.006278 0.000000 0.000000 0.000000
# 2 -0.005249 0.006606 0.001435 0.000000 0.000000 0.000000
# 3 -0.006278 0.001435 0.016954 0.000000 0.000000 0.000000
# 4 0.000000 0.000000 0.000000 0.147191 0.000000 0.000000
# 5 0.000000 0.000000 0.000000 0.000000 0.027733 0.000000
# 6 0.000000 0.000000 0.000000 0.000000 0.000000 0.021191
#
#
# Mechanical properties :
#
#
# Convention : Reuss Voigt Hill
#
# Bulk Modulus (GPa) = 61.10482 84.61362 72.85922
# Shear Modulus (GPa) = 19.35717 36.51895 27.93806
#
# Velocity S-wave (km/s) = 2.70391 3.71390 3.24840
# Velocity P-wave (km/s) = 5.72951 7.09571 6.44889
#
# Compressibility (1/GPa) = 0.01636532
#
# Stress axis : x y z
#
# Youngs Moduli (GPa) = 76.98954 151.37753 58.98288
#
# Poissons Ratio (x) = 0.79460 0.37027
# Poissons Ratio (y) = 0.40413 -0.08464
# Poissons Ratio (z) = 0.48331 -0.21721
#
# Static dielectric constant tensor:
#      x y z
#    x 2.293660 0.000000 0.000000 
#    y 0.000000 2.200450 0.000000 
#    z 0.000000 0.000000 2.253010 
# 
# From -- ./inp_files/19104.got.cif
#   From: 2010.05.17/outbox.cif.g08.bks.cpg/sg68_10_cif.got.tgz:19104.got - 2010.06.03 18:57:09.
