data_PCOD9507527
_publ_section_title
;
Structure prediction by ZEFSAII (Michael W. Deem and Ramdas Pophale) SiO2 
 PCOD9507527
Probable space group: C C C A
;
_chemical_formula_sum "Si O2"
_cell_formula_units_Z 92
_cell_length_a 20.789066
_cell_length_b 11.195188
_cell_length_c 22.414237
_cell_angle_alpha 90.000000
_cell_angle_beta 90.000000
_cell_angle_gamma 90.000000
_cell_volume 5216.633533
_symmetry_space_group_name_H-M "C C C A"
_symmetry_group_IT_number 68
_space_group.IT_coordinate_system_code '2'
_symmetry_cell_setting 'orthorhombic'
loop_
_space_group_symop_operation_xyz
x,y,z
-x,1/2-y,z
x,1/2-y,1/2-z
-x,y,1/2-z
-x,-y,-z
x,1/2+y,-z
-x,1/2+y,1/2+z
x,-y,1/2+z
1/2+x,1/2+y,z
1/2-x,-y,z
1/2+x,-y,1/2-z
1/2-x,1/2+y,1/2-z
1/2-x,1/2-y,-z
1/2+x,y,-z
1/2-x,y,1/2+z
1/2+x,1/2-y,1/2+z
loop_
_atom_site_type_symbol
_atom_site_label
_atom_site_fract_x
_atom_site_fract_y
_atom_site_fract_z
Si Si1 0.603840 0.144458 0.337816
Si Si2 0.254546 0.241194 0.319045
Si Si3 0.750000 0.500000 0.889848
Si Si4 0.073746 0.229683 0.528972
Si Si5 0.500000 0.750000 0.750000
Si Si6 0.816423 0.059444 0.376335
Si Si7 0.858010 0.012902 0.510177
O O1 0.672788 0.205869 0.323815
O O2 0.581253 0.196260 0.401323
O O3 0.548407 0.172013 0.290585
O O4 0.623226 0.005395 0.345819
O O5 0.235849 0.250000 0.250000
O O6 0.199789 0.306534 0.358875
O O7 0.257894 0.111261 0.346569
O O8 0.810187 0.505272 0.934826
O O9 0.107240 0.358515 0.518648
O O10 0.000000 0.250000 0.512720
O O11 0.101713 0.110862 0.496340
O O12 0.822980 0.031084 0.446261
O O13 0.750000 0.000000 0.354157
#
# Coordination Sequence:
#
# PCOD9507527 Si02
#       7
#    16  16   8  16   4  16  16
#     4  10  21  35  57  83 114 150 201 241 293 342
#     4  11  23  37  56  86 124 153 195 243 301 363
#     4  12  24  36  62  96 116 152 198 254 308 360
#     4  11  22  39  57  88 118 160 201 244 297 360
#     4  12  20  36  60  88 118 156 204 254 276 348
#     4   9  20  37  58  84 117 155 186 243 311 352
#     4  11  22  38  63  88 124 152 199 256 304 364
#
# _framework density 17.635895000000001
#
# number of rings (size 3 to 8) (size 9 to 14) (size 15 to 20)
#    0.000    1.391    4.348    1.565    3.652    1.391 
#    0.000    0.000    0.000    0.000    0.000    1.217 
#    0.000    0.000    0.000    0.000    0.000    0.000 
#
# Total GULP energy -256188.037338 kJ/mol
# GULP energy per Si atom -5569.305160 kJ/mol
# Density = 1.759576 g / cm^3
# Si number density = 17.635895 Si / 1000 Ang^3
#
#
#
# Elastic Constant Matrix: (Units=GPa)
#
#
# Indices 1 2 3 4 5 6 
#
# 1 104.2686 64.0353 43.3145 0.0000 0.0000 0.0000
# 2 64.0353 110.7186 47.1196 0.0000 0.0000 0.0000
# 3 43.3145 47.1196 88.2252 0.0000 0.0000 0.0000
# 4 0.0000 0.0000 0.0000 -30.7460 0.0000 0.0000
# 5 0.0000 0.0000 0.0000 0.0000 11.9978 0.0000
# 6 0.0000 0.0000 0.0000 0.0000 0.0000 18.4144
#
#
#
# Elastic Compliance Matrix: (Units=1/GPa)
#
#
# Indices 1 2 3 4 5 6 
#
# 1 0.015761 -0.007535 -0.003713 0.000000 0.000000 0.000000
# 2 -0.007535 0.015291 -0.004467 0.000000 0.000000 0.000000
# 3 -0.003713 -0.004467 0.015544 0.000000 0.000000 0.000000
# 4 0.000000 0.000000 0.000000 -0.032525 0.000000 0.000000
# 5 0.000000 0.000000 0.000000 0.000000 0.083348 0.000000
# 6 0.000000 0.000000 0.000000 0.000000 0.000000 0.054305
#
#
# Mechanical properties :
#
#
# Convention : Reuss Voigt Hill
#
# Bulk Modulus (GPa) = 65.94636 68.01680 66.98158
# Shear Modulus (GPa) = 26.56590 9.84944 18.20767
#
# Velocity S-wave (km/s) = 3.88539 2.36580 3.21662
# Velocity P-wave (km/s) = 7.58965 6.79070 7.20126
#
# Compressibility (1/GPa) = 0.01516384
#
# Stress axis : x y z
#
# Youngs Moduli (GPa) = 63.44862 65.39759 64.33471
#
# Poissons Ratio (x) = 0.49277 0.23891
# Poissons Ratio (y) = 0.47809 0.28741
# Poissons Ratio (z) = 0.23562 0.29215
#
# Static dielectric constant tensor:
#      x y z
#    x 1.594000 0.000000 0.000000 
#    y 0.000000 1.679310 0.000000 
#    z 0.000000 0.000000 1.647060 
# 
# From -- ./inp_files/39473.got.cif
#   From: 2010.05.17/outbox.cif.g08.bks.cpg/sg68_20_cif.got.tgz:39473.got - 2010.06.03 18:57:09.
