data_PCOD9507275
_publ_section_title
;
Structure prediction by ZEFSAII (Michael W. Deem and Ramdas Pophale) SiO2 
 PCOD9507275
Probable space group: C C C A
;
_chemical_formula_sum "Si O2"
_cell_formula_units_Z 112
_cell_length_a 15.321719
_cell_length_b 12.131681
_cell_length_c 31.021032
_cell_angle_alpha 90.000000
_cell_angle_beta 90.000000
_cell_angle_gamma 90.000000
_cell_volume 5766.133816
_symmetry_space_group_name_H-M "C C C A"
_symmetry_group_IT_number 68
_space_group.IT_coordinate_system_code '2'
_symmetry_cell_setting 'orthorhombic'
loop_
_space_group_symop_operation_xyz
x,y,z
-x,1/2-y,z
x,1/2-y,1/2-z
-x,y,1/2-z
-x,-y,-z
x,1/2+y,-z
-x,1/2+y,1/2+z
x,-y,1/2+z
1/2+x,1/2+y,z
1/2-x,-y,z
1/2+x,-y,1/2-z
1/2-x,1/2+y,1/2-z
1/2-x,1/2-y,-z
1/2+x,y,-z
1/2-x,y,1/2+z
1/2+x,1/2-y,1/2+z
loop_
_atom_site_type_symbol
_atom_site_label
_atom_site_fract_x
_atom_site_fract_y
_atom_site_fract_z
Si Si1 0.599920 0.498761 0.637680
Si Si2 0.737264 0.336695 0.120978
Si Si3 0.546356 0.140656 0.004525
Si Si4 0.768054 0.368962 0.023700
Si Si5 0.023008 0.126709 0.300343
Si Si6 0.552814 0.024941 0.569764
Si Si7 0.314693 0.397684 0.641785
O O1 0.651590 0.612714 0.643088
O O2 0.677122 0.409437 0.632089
O O3 0.538955 0.461319 0.676645
O O4 0.534425 0.497457 0.597063
O O5 0.723243 0.356387 0.070023
O O6 0.760559 0.213200 0.133803
O O7 0.500000 0.250000 0.018849
O O8 0.627789 0.140971 0.972606
O O9 0.470847 0.087353 0.974569
O O10 0.584329 0.087834 0.048275
O O11 0.750000 0.500000 0.009092
O O12 0.750000 0.250000 0.000000
O O13 0.121783 0.108026 0.316567
O O14 0.000000 0.250000 0.316693
O O15 0.000000 0.124276 0.250000
O O16 0.621332 0.084074 0.600531
O O17 0.250000 0.500000 0.644837
#
# Coordination Sequence:
#
# PCOD9507275 Si02
#       7
#    16  16  16  16  16  16  16
#     4  10  20  40  64  91 118 165 211 256 309 393
#     4  11  21  39  64  90 125 170 220 260 322 379
#     4  11  24  37  55  82 117 169 216 272 317 379
#     4  12  27  40  60  88 128 171 226 283 330 377
#     4  10  21  43  71 100 127 164 206 253 321 403
#     4  10  23  38  56  82 120 162 224 256 327 369
#     4  11  25  41  64  97 130 164 211 275 326 382
#
# _framework density 19.423760999999999
#
# number of rings (size 3 to 8) (size 9 to 14) (size 15 to 20)
#    0.000    1.286    4.286    0.857   10.000    0.000 
#    2.571    2.143    0.000    0.857    0.000    0.000 
#    0.000    0.000    0.000    0.000    0.000    0.000 
#
# Total GULP energy -311936.545145 kJ/mol
# GULP energy per Si atom -5570.295449 kJ/mol
# Density = 1.937955 g / cm^3
# Si number density = 19.423761 Si / 1000 Ang^3
#
#
#
# Elastic Constant Matrix: (Units=GPa)
#
#
# Indices 1 2 3 4 5 6 
#
# 1 77.9832 68.5203 13.4923 0.0000 0.0000 0.0000
# 2 68.5203 132.6403 36.0400 0.0000 0.0000 0.0000
# 3 13.4923 36.0400 67.0270 0.0000 0.0000 0.0000
# 4 0.0000 0.0000 0.0000 11.9834 0.0000 0.0000
# 5 0.0000 0.0000 0.0000 0.0000 23.8878 0.0000
# 6 0.0000 0.0000 0.0000 0.0000 0.0000 37.8160
#
#
#
# Elastic Compliance Matrix: (Units=1/GPa)
#
#
# Indices 1 2 3 4 5 6 
#
# 1 0.023737 -0.012840 0.002126 0.000000 0.000000 0.000000
# 2 -0.012840 0.015775 -0.005897 0.000000 0.000000 0.000000
# 3 0.002126 -0.005897 0.017662 0.000000 0.000000 0.000000
# 4 0.000000 0.000000 0.000000 0.083449 0.000000 0.000000
# 5 0.000000 0.000000 0.000000 0.000000 0.041862 0.000000
# 6 0.000000 0.000000 0.000000 0.000000 0.000000 0.026444
#
#
# Mechanical properties :
#
#
# Convention : Reuss Voigt Hill
#
# Bulk Modulus (GPa) = 41.75136 57.08395 49.41766
# Shear Modulus (GPa) = 19.98912 25.37731 22.68321
#
# Velocity S-wave (km/s) = 3.21145 3.61849 3.42103
# Velocity P-wave (km/s) = 5.94078 6.84912 6.41106
#
# Compressibility (1/GPa) = 0.02395132
#
# Stress axis : x y z
#
# Youngs Moduli (GPa) = 42.12750 63.39323 56.61758
#
# Poissons Ratio (x) = 0.81397 -0.12036
# Poissons Ratio (y) = 0.54092 0.33389
# Poissons Ratio (z) = -0.08955 0.37384
#
# Static dielectric constant tensor:
#      x y z
#    x 1.688950 0.000000 0.000000 
#    y 0.000000 2.448890 0.000000 
#    z 0.000000 0.000000 1.664530 
# 
# From -- ./inp_files/55292.got.cif
#   From: 2010.05.17/outbox.cif.g08.bks.cpg/sg68_28_cif.got.tgz:55292.got - 2010.06.03 18:57:09.
