data_PCOD9507911
_publ_section_title
;
Structure prediction by ZEFSAII (Michael W. Deem and Ramdas Pophale) SiO2 
 PCOD9507911
Probable space group: C C C A
;
_chemical_formula_sum "Si O2"
_cell_formula_units_Z 116
_cell_length_a 18.240679
_cell_length_b 22.596208
_cell_length_c 11.293415
_cell_angle_alpha 90.000000
_cell_angle_beta 90.000000
_cell_angle_gamma 90.000000
_cell_volume 4654.808857
_symmetry_space_group_name_H-M "C C C A"
_symmetry_group_IT_number 68
_space_group.IT_coordinate_system_code '2'
_symmetry_cell_setting 'orthorhombic'
loop_
_space_group_symop_operation_xyz
x,y,z
-x,1/2-y,z
x,1/2-y,1/2-z
-x,y,1/2-z
-x,-y,-z
x,1/2+y,-z
-x,1/2+y,1/2+z
x,-y,1/2+z
1/2+x,1/2+y,z
1/2-x,-y,z
1/2+x,-y,1/2-z
1/2-x,1/2+y,1/2-z
1/2-x,1/2-y,-z
1/2+x,y,-z
1/2-x,y,1/2+z
1/2+x,1/2-y,1/2+z
loop_
_atom_site_type_symbol
_atom_site_label
_atom_site_fract_x
_atom_site_fract_y
_atom_site_fract_z
Si Si1 0.213094 0.063228 0.998704
Si Si2 0.159702 0.123170 0.624272
Si Si3 0.064011 0.813276 0.484690
Si Si4 0.000000 0.250000 0.750000
Si Si5 0.290677 0.667284 0.643938
Si Si6 0.416360 0.516767 0.973739
Si Si7 0.954617 0.108484 0.143442
Si Si8 0.864893 0.794490 0.601896
O O1 0.259328 0.098464 0.096471
O O2 0.250000 0.000000 0.988293
O O3 0.130970 0.042681 0.029134
O O4 0.229924 0.098939 0.878670
O O5 0.167686 0.167111 0.733352
O O6 0.106594 0.065078 0.627710
O O7 0.136993 0.166112 0.517598
O O8 0.148920 0.828958 0.458943
O O9 0.010239 0.860619 0.547280
O O10 0.080781 0.758471 0.572338
O O11 0.035413 0.793290 0.352925
O O12 0.221161 0.710439 0.633254
O O13 0.500000 0.500000 0.000000
O O14 0.402765 0.558609 0.087840
O O15 0.000000 0.081482 0.250000
O O16 0.904688 0.161807 0.193137
#
# Coordination Sequence:
#
# PCOD9507911 Si02
#       8
#    16  16  16   4  16  16  16  16
#     4   9  20  40  59  86 128 169 216 273 337 412
#     4   9  21  40  63  92 131 171 218 289 349 411
#     4  12  24  43  68  99 131 181 230 283 355 426
#     4  12  24  44  74  88 140 180 222 286 360 416
#     4  11  23  38  69  97 129 169 229 289 346 410
#     4  10  21  39  62  93 128 170 229 277 332 420
#     4  11  25  44  65  93 139 183 227 285 352 419
#     4  10  22  44  62  95 134 173 229 277 345 426
#
# _framework density 24.920465
#
# number of rings (size 3 to 8) (size 9 to 14) (size 15 to 20)
#    0.000    1.655    1.379    2.897    1.931    7.172 
#    0.000    2.759    0.000    0.000    0.000    0.000 
#    0.000    0.000    0.000    0.000    0.000    0.000 
#
# Total GULP energy -323112.049976 kJ/mol
# GULP energy per Si atom -5570.897413 kJ/mol
# Density = 2.486375 g / cm^3
# Si number density = 24.920465 Si / 1000 Ang^3
#
#
#
# Elastic Constant Matrix: (Units=GPa)
#
#
# Indices 1 2 3 4 5 6 
#
# 1 155.0892 20.1009 7.3662 0.0000 0.0000 0.0000
# 2 20.1009 54.2181 7.8673 0.0000 0.0000 0.0000
# 3 7.3662 7.8673 46.0255 0.0000 0.0000 0.0000
# 4 0.0000 0.0000 0.0000 20.3346 0.0000 0.0000
# 5 0.0000 0.0000 0.0000 0.0000 26.0494 0.0000
# 6 0.0000 0.0000 0.0000 0.0000 0.0000 41.2783
#
#
#
# Elastic Compliance Matrix: (Units=1/GPa)
#
#
# Indices 1 2 3 4 5 6 
#
# 1 0.006794 -0.002421 -0.000673 0.000000 0.000000 0.000000
# 2 -0.002421 0.019776 -0.002993 0.000000 0.000000 0.000000
# 3 -0.000673 -0.002993 0.022346 0.000000 0.000000 0.000000
# 4 0.000000 0.000000 0.000000 0.049177 0.000000 0.000000
# 5 0.000000 0.000000 0.000000 0.000000 0.038389 0.000000
# 6 0.000000 0.000000 0.000000 0.000000 0.000000 0.024226
#
#
# Mechanical properties :
#
#
# Convention : Reuss Voigt Hill
#
# Bulk Modulus (GPa) = 27.21729 36.22239 31.71984
# Shear Modulus (GPa) = 27.00814 32.19904 29.60359
#
# Velocity S-wave (km/s) = 3.29564 3.59844 3.45036
# Velocity P-wave (km/s) = 5.04252 5.64197 5.35065
#
# Compressibility (1/GPa) = 0.03674135
#
# Stress axis : x y z
#
# Youngs Moduli (GPa) = 147.19594 50.56671 44.74978
#
# Poissons Ratio (x) = 0.12242 0.03014
# Poissons Ratio (y) = 0.35636 0.13393
# Poissons Ratio (z) = 0.09913 0.15134
#
# Static dielectric constant tensor:
#      x y z
#    x 2.196850 0.000000 0.000000 
#    y 0.000000 2.400890 0.000000 
#    z 0.000000 0.000000 2.039670 
# 
# From -- ./inp_files/14846.got.cif
#   From: 2010.05.17/outbox.cif.g08.bks.cpg/sg68_8_cif.got.tgz:14846.got - 2010.06.03 18:57:09.
