data_PCOD9507654
_publ_section_title
;
Structure prediction by ZEFSAII (Michael W. Deem and Ramdas Pophale) SiO2 
 PCOD9507654
Probable space group: C C C A
;
_chemical_formula_sum "Si O2"
_cell_formula_units_Z 72
_cell_length_a 10.350438
_cell_length_b 21.182976
_cell_length_c 17.110642
_cell_angle_alpha 90.000000
_cell_angle_beta 90.000000
_cell_angle_gamma 90.000000
_cell_volume 3751.560955
_symmetry_space_group_name_H-M "C C C A"
_symmetry_group_IT_number 68
_space_group.IT_coordinate_system_code '2'
_symmetry_cell_setting 'orthorhombic'
loop_
_space_group_symop_operation_xyz
x,y,z
-x,1/2-y,z
x,1/2-y,1/2-z
-x,y,1/2-z
-x,-y,-z
x,1/2+y,-z
-x,1/2+y,1/2+z
x,-y,1/2+z
1/2+x,1/2+y,z
1/2-x,-y,z
1/2+x,-y,1/2-z
1/2-x,1/2+y,1/2-z
1/2-x,1/2-y,-z
1/2+x,y,-z
1/2-x,y,1/2+z
1/2+x,1/2-y,1/2+z
loop_
_atom_site_type_symbol
_atom_site_label
_atom_site_fract_x
_atom_site_fract_y
_atom_site_fract_z
Si Si1 0.481641 0.374122 0.521465
Si Si2 0.500000 0.750000 0.916495
Si Si3 0.257968 0.428470 0.927899
Si Si4 0.255112 0.805742 0.673838
Si Si5 0.605665 0.312235 0.819744
O O1 0.520515 0.310757 0.472986
O O2 0.608229 0.417017 0.526933
O O3 0.365776 0.410616 0.479519
O O4 0.427647 0.355250 0.607399
O O5 0.382533 0.726700 0.861509
O O6 0.250000 0.500000 0.899381
O O7 0.259348 0.374305 0.862810
O O8 0.236757 0.817418 0.766666
O O9 0.137876 0.758406 0.648171
O O10 0.500000 0.320450 0.750000
#
# Coordination Sequence:
#
# PCOD9507654 Si02
#       5
#    16   8  16  16  16
#     4  11  22  39  64  92 123 161 216 261 315 370
#     4  10  22  37  61  96 126 156 198 280 320 359
#     4  11  23  40  61  88 125 168 212 256 303 378
#     4  10  21  37  60  92 125 158 203 254 322 376
#     4  11  21  36  63  94 117 156 201 260 320 372
#
# _framework density 19.192011000000001
#
# number of rings (size 3 to 8) (size 9 to 14) (size 15 to 20)
#    0.000    1.333    2.222    4.667    3.111    5.333 
#    0.000    1.111    0.000   16.000    0.000    0.000 
#    0.000    0.000    0.000    0.000    0.000    0.000 
#
# Total GULP energy -200419.947720 kJ/mol
# GULP energy per Si atom -5567.220770 kJ/mol
# Density = 1.914833 g / cm^3
# Si number density = 19.192011 Si / 1000 Ang^3
#
#
#
# Elastic Constant Matrix: (Units=GPa)
#
#
# Indices 1 2 3 4 5 6 
#
# 1 86.7665 49.9827 35.4072 0.0000 0.0000 0.0000
# 2 49.9827 125.3051 41.2959 0.0000 0.0000 0.0000
# 3 35.4072 41.2959 74.0661 0.0000 0.0000 0.0000
# 4 0.0000 0.0000 0.0000 14.7949 0.0000 0.0000
# 5 0.0000 0.0000 0.0000 0.0000 26.6141 0.0000
# 6 0.0000 0.0000 0.0000 0.0000 0.0000 20.6573
#
#
#
# Elastic Compliance Matrix: (Units=1/GPa)
#
#
# Indices 1 2 3 4 5 6 
#
# 1 0.016421 -0.004855 -0.005143 0.000000 0.000000 0.000000
# 2 -0.004855 0.011213 -0.003931 0.000000 0.000000 0.000000
# 3 -0.005143 -0.003931 0.018152 0.000000 0.000000 0.000000
# 4 0.000000 0.000000 0.000000 0.067591 0.000000 0.000000
# 5 0.000000 0.000000 0.000000 0.000000 0.037574 0.000000
# 6 0.000000 0.000000 0.000000 0.000000 0.000000 0.048409
#
#
# Mechanical properties :
#
#
# Convention : Reuss Voigt Hill
#
# Bulk Modulus (GPa) = 55.78018 59.94549 57.86284
# Shear Modulus (GPa) = 21.44155 23.04338 22.24247
#
# Velocity S-wave (km/s) = 3.34610 3.46884 3.40802
# Velocity P-wave (km/s) = 6.63746 6.88086 6.76025
#
# Compressibility (1/GPa) = 0.01792751
#
# Stress axis : x y z
#
# Youngs Moduli (GPa) = 60.89871 89.18572 55.09165
#
# Poissons Ratio (x) = 0.43301 0.28333
# Poissons Ratio (y) = 0.29567 0.21654
# Poissons Ratio (z) = 0.31320 0.35056
#
# Static dielectric constant tensor:
#      x y z
#    x 1.803460 0.000000 0.000000 
#    y 0.000000 1.688610 0.000000 
#    z 0.000000 0.000000 1.697450 
# 
# From -- ./inp_files/29406.got.cif
#   From: 2010.05.17/outbox.cif.g08.bks.cpg/sg68_15_cif.got.tgz:29406.got - 2010.06.03 18:57:09.
