data_PCOD9507274
_publ_section_title
;
Structure prediction by ZEFSAII (Michael W. Deem and Ramdas Pophale) SiO2 
 PCOD9507274
Probable space group: C C C A
;
_chemical_formula_sum "Si O2"
_cell_formula_units_Z 68
_cell_length_a 20.624169
_cell_length_b 5.181132
_cell_length_c 27.602515
_cell_angle_alpha 90.000000
_cell_angle_beta 90.000000
_cell_angle_gamma 90.000000
_cell_volume 2949.509303
_symmetry_space_group_name_H-M "C C C A"
_symmetry_group_IT_number 68
_space_group.IT_coordinate_system_code '2'
_symmetry_cell_setting 'orthorhombic'
loop_
_space_group_symop_operation_xyz
x,y,z
-x,1/2-y,z
x,1/2-y,1/2-z
-x,y,1/2-z
-x,-y,-z
x,1/2+y,-z
-x,1/2+y,1/2+z
x,-y,1/2+z
1/2+x,1/2+y,z
1/2-x,-y,z
1/2+x,-y,1/2-z
1/2-x,1/2+y,1/2-z
1/2-x,1/2-y,-z
1/2+x,y,-z
1/2-x,y,1/2+z
1/2+x,1/2-y,1/2+z
loop_
_atom_site_type_symbol
_atom_site_label
_atom_site_fract_x
_atom_site_fract_y
_atom_site_fract_z
Si Si1 0.609452 0.985838 0.880983
Si Si2 0.107004 0.485211 0.186698
Si Si3 0.500000 0.250000 0.250000
Si Si4 0.750000 0.000000 0.376541
Si Si5 0.928841 0.342116 0.518355
Si Si6 0.750000 0.500000 0.308544
O O1 0.607943 0.721307 0.851206
O O2 0.681876 0.013939 0.903068
O O3 0.565106 0.952854 0.927590
O O4 0.598046 0.221469 0.843838
O O5 0.177559 0.487684 0.214251
O O6 0.047716 0.560757 0.220658
O O7 0.748793 0.247789 0.341800
O O8 0.895977 0.559682 0.484998
O O9 0.000000 0.250000 0.501003
#
# Coordination Sequence:
#
# PCOD9507274 Si02
#       6
#    16  16   4   8  16   8
#     4  10  20  40  64  89 120 176 201 254 315 383
#     4  10  23  40  65  90 132 164 215 254 326 377
#     4  12  28  46  60 110 132 156 212 302 316 378
#     4   8  16  32  61  89 116 150 226 246 286 377
#     4  10  21  37  58  89 125 161 210 256 299 373
#     4   8  16  38  61  87 114 176 206 248 302 397
#
# _framework density 23.054683000000001
#
# number of rings (size 3 to 8) (size 9 to 14) (size 15 to 20)
#    0.000    2.353    0.000    1.412    1.647    2.824 
#    0.000    8.235    0.000    0.000    0.000    0.000 
#    0.000    0.000    0.000    0.000    0.000    0.000 
#
# Total GULP energy -189547.142186 kJ/mol
# GULP energy per Si atom -5574.915947 kJ/mol
# Density = 2.300221 g / cm^3
# Si number density = 23.054683 Si / 1000 Ang^3
#
#
#
# Elastic Constant Matrix: (Units=GPa)
#
#
# Indices 1 2 3 4 5 6 
#
# 1 112.9539 -8.1565 41.7197 0.0000 0.0000 0.0000
# 2 -8.1565 158.7723 18.7171 0.0000 0.0000 0.0000
# 3 41.7197 18.7171 61.5250 0.0000 0.0000 0.0000
# 4 0.0000 0.0000 0.0000 27.1533 0.0000 0.0000
# 5 0.0000 0.0000 0.0000 0.0000 155.6464 0.0000
# 6 0.0000 0.0000 0.0000 0.0000 0.0000 24.8957
#
#
#
# Elastic Compliance Matrix: (Units=1/GPa)
#
#
# Indices 1 2 3 4 5 6 
#
# 1 0.012221 0.001664 -0.008794 0.000000 0.000000 0.000000
# 2 0.001664 0.006759 -0.003185 0.000000 0.000000 0.000000
# 3 -0.008794 -0.003185 0.023185 0.000000 0.000000 0.000000
# 4 0.000000 0.000000 0.000000 0.036828 0.000000 0.000000
# 5 0.000000 0.000000 0.000000 0.000000 0.006425 0.000000
# 6 0.000000 0.000000 0.000000 0.000000 0.000000 0.040168
#
#
# Mechanical properties :
#
#
# Convention : Reuss Voigt Hill
#
# Bulk Modulus (GPa) = 46.42993 48.64574 47.53784
# Shear Modulus (GPa) = 32.59591 60.27048 46.43319
#
# Velocity S-wave (km/s) = 3.76420 5.11851 4.49268
# Velocity P-wave (km/s) = 6.25100 7.48854 6.89758
#
# Compressibility (1/GPa) = 0.02153783
#
# Stress axis : x y z
#
# Youngs Moduli (GPa) = 81.82460 147.94430 43.13076
#
# Poissons Ratio (x) = -0.24625 0.37927
# Poissons Ratio (y) = -0.13619 0.13737
# Poissons Ratio (z) = 0.71953 0.47120
#
# Static dielectric constant tensor:
#      x y z
#    x 2.014880 0.000000 0.000000 
#    y 0.000000 1.938890 0.000000 
#    z 0.000000 0.000000 1.855910 
# 
# From -- ./inp_files/51653.got.cif
#   From: 2010.05.17/outbox.cif.g08.bks.cpg/sg68_26_cif.got.tgz:51653.got - 2010.06.03 18:57:09.
