data_PCOD9507358
_publ_section_title
;
Structure prediction by ZEFSAII (Michael W. Deem and Ramdas Pophale) SiO2 
 PCOD9507358
Probable space group: C C C A
;
_chemical_formula_sum "Si O2"
_cell_formula_units_Z 64
_cell_length_a 13.490351
_cell_length_b 10.656740
_cell_length_c 17.525167
_cell_angle_alpha 90.000000
_cell_angle_beta 90.000000
_cell_angle_gamma 90.000000
_cell_volume 2519.473442
_symmetry_space_group_name_H-M "C C C A"
_symmetry_group_IT_number 68
_space_group.IT_coordinate_system_code '2'
_symmetry_cell_setting 'orthorhombic'
loop_
_space_group_symop_operation_xyz
x,y,z
-x,1/2-y,z
x,1/2-y,1/2-z
-x,y,1/2-z
-x,-y,-z
x,1/2+y,-z
-x,1/2+y,1/2+z
x,-y,1/2+z
1/2+x,1/2+y,z
1/2-x,-y,z
1/2+x,-y,1/2-z
1/2-x,1/2+y,1/2-z
1/2-x,1/2-y,-z
1/2+x,y,-z
1/2-x,y,1/2+z
1/2+x,1/2-y,1/2+z
loop_
_atom_site_type_symbol
_atom_site_label
_atom_site_fract_x
_atom_site_fract_y
_atom_site_fract_z
Si Si1 0.371140 0.387381 0.775443
Si Si2 0.879835 0.250063 0.941843
Si Si3 0.346311 0.366060 0.212302
Si Si4 0.597378 0.967706 0.447686
O O1 0.403423 0.250000 0.750000
O O2 0.397065 0.499394 0.716933
O O3 0.251673 0.377723 0.764840
O O4 0.406275 0.430339 0.858615
O O5 0.826676 0.323791 0.873350
O O6 0.000000 0.250000 0.925178
O O7 0.849878 0.104368 0.949226
O O8 0.864560 0.339036 0.014179
O O9 0.401375 0.250000 0.250000
O O10 0.500000 0.000000 0.500000
#
# Coordination Sequence:
#
# PCOD9507358 Si02
#       4
#    16  16  16  16
#     4  10  22  40  68  98 140 177 241 293 358 420
#     4  10  22  41  68  95 138 181 239 281 362 424
#     4  10  20  41  67  96 133 181 229 290 354 420
#     4  10  22  43  66  97 142 188 235 293 353 436
#
# _framework density 25.402132999999999
#
# number of rings (size 3 to 8) (size 9 to 14) (size 15 to 20)
#    0.000    2.000    2.500    0.000    3.500    0.500 
#    0.000   10.000    0.000    0.000    0.000    0.000 
#    0.000    0.000    0.000    0.000    0.000    0.000 
#
# Total GULP energy -178523.609755 kJ/mol
# GULP energy per Si atom -5578.862805 kJ/mol
# Density = 2.534432 g / cm^3
# Si number density = 25.402133 Si / 1000 Ang^3
#
#
#
# Elastic Constant Matrix: (Units=GPa)
#
#
# Indices 1 2 3 4 5 6 
#
# 1 126.6596 1.8940 33.7082 0.0000 0.0000 0.0000
# 2 1.8940 327.8722 94.9872 0.0000 0.0000 0.0000
# 3 33.7082 94.9872 163.0157 0.0000 0.0000 0.0000
# 4 0.0000 0.0000 0.0000 63.8005 0.0000 0.0000
# 5 0.0000 0.0000 0.0000 0.0000 25.5730 0.0000
# 6 0.0000 0.0000 0.0000 0.0000 0.0000 -15.4627
#
#
#
# Elastic Compliance Matrix: (Units=1/GPa)
#
#
# Indices 1 2 3 4 5 6 
#
# 1 0.008436 0.000549 -0.002065 0.000000 0.000000 0.000000
# 2 0.000549 0.003705 -0.002273 0.000000 0.000000 0.000000
# 3 -0.002065 -0.002273 0.007885 0.000000 0.000000 0.000000
# 4 0.000000 0.000000 0.000000 0.015674 0.000000 0.000000
# 5 0.000000 0.000000 0.000000 0.000000 0.039104 0.000000
# 6 0.000000 0.000000 0.000000 0.000000 0.000000 -0.064672
#
#
# Mechanical properties :
#
#
# Convention : Reuss Voigt Hill
#
# Bulk Modulus (GPa) = 80.31129 97.63626 88.97378
# Shear Modulus (GPa) = 228.74009 47.24604 137.99307
#
# Velocity S-wave (km/s) = 9.49964 4.31736 7.37844
# Velocity P-wave (km/s) = 12.32918 7.96069 10.37741
#
# Compressibility (1/GPa) = 0.01245155
#
# Stress axis : x y z
#
# Youngs Moduli (GPa) = 118.53367 269.89289 126.81529
#
# Poissons Ratio (x) = -0.14828 0.26182
# Poissons Ratio (y) = -0.06512 0.28820
# Poissons Ratio (z) = 0.24472 0.61335
#
# Static dielectric constant tensor:
#      x y z
#    x 2.188350 0.000000 0.000000 
#    y 0.000000 2.043560 0.000000 
#    z 0.000000 0.000000 1.966560 
# 
# From -- ./inp_files/23151.got.cif
#   From: 2010.05.17/outbox.cif.g08.bks.cpg/sg68_12_cif.got.tgz:23151.got - 2010.06.03 18:57:09.
