data_PCOD9507532
_publ_section_title
;
Structure prediction by ZEFSAII (Michael W. Deem and Ramdas Pophale) SiO2 
 PCOD9507532
Probable space group: C C C A
;
_chemical_formula_sum "Si O2"
_cell_formula_units_Z 80
_cell_length_a 7.499890
_cell_length_b 16.217608
_cell_length_c 27.310695
_cell_angle_alpha 90.000000
_cell_angle_beta 90.000000
_cell_angle_gamma 90.000000
_cell_volume 3321.807372
_symmetry_space_group_name_H-M "C C C A"
_symmetry_group_IT_number 68
_space_group.IT_coordinate_system_code '2'
_symmetry_cell_setting 'orthorhombic'
loop_
_space_group_symop_operation_xyz
x,y,z
-x,1/2-y,z
x,1/2-y,1/2-z
-x,y,1/2-z
-x,-y,-z
x,1/2+y,-z
-x,1/2+y,1/2+z
x,-y,1/2+z
1/2+x,1/2+y,z
1/2-x,-y,z
1/2+x,-y,1/2-z
1/2-x,1/2+y,1/2-z
1/2-x,1/2-y,-z
1/2+x,y,-z
1/2-x,y,1/2+z
1/2+x,1/2-y,1/2+z
loop_
_atom_site_type_symbol
_atom_site_label
_atom_site_fract_x
_atom_site_fract_y
_atom_site_fract_z
Si Si1 0.208532 0.594971 0.959161
Si Si2 0.292333 0.348178 0.749488
Si Si3 0.793158 0.595840 0.855193
Si Si4 0.361003 0.326386 0.551828
Si Si5 0.219528 0.903258 0.647013
O O1 0.250000 0.500000 0.969751
O O2 0.287847 0.624020 0.906570
O O3 0.996938 0.596580 0.951712
O O4 0.255095 0.659415 0.001725
O O5 0.292454 0.250000 0.750000
O O6 0.500000 0.377086 0.750000
O O7 0.217095 0.381961 0.698343
O O8 0.207016 0.372869 0.801230
O O9 0.750000 0.500000 0.865458
O O10 0.742779 0.656175 0.900144
O O11 0.006715 0.612748 0.851599
O O12 0.500000 0.250000 0.556712
O O13 0.250000 0.000000 0.646255
#
# Coordination Sequence:
#
# PCOD9507532 Si02
#       5
#    16  16  16  16  16
#     4  10  21  38  59  82 116 154 193 235 286 344
#     4   9  18  32  57  83 112 144 186 236 286 335
#     4  10  21  35  58  86 111 148 189 237 281 343
#     4  11  23  37  58  87 118 149 196 240 284 335
#     4   9  19  35  58  81 111 147 189 231 283 344
#
# _framework density 24.083275
#
# number of rings (size 3 to 8) (size 9 to 14) (size 15 to 20)
#    0.000    2.200    0.000    2.400    8.400    3.200 
#    0.000    0.000    0.000    1.200    0.000    0.000 
#    0.000    0.000    0.000    0.000    0.000    0.000 
#
# Total GULP energy -222981.203848 kJ/mol
# GULP energy per Si atom -5574.530096 kJ/mol
# Density = 2.402846 g / cm^3
# Si number density = 24.083275 Si / 1000 Ang^3
#
#
#
# Elastic Constant Matrix: (Units=GPa)
#
#
# Indices 1 2 3 4 5 6 
#
# 1 45.4353 -6.5744 7.6050 0.0000 0.0000 0.0000
# 2 -6.5744 64.9329 60.7459 0.0000 0.0000 0.0000
# 3 7.6050 60.7459 280.5334 0.0000 0.0000 0.0000
# 4 0.0000 0.0000 0.0000 11.6181 0.0000 0.0000
# 5 0.0000 0.0000 0.0000 0.0000 5.8379 0.0000
# 6 0.0000 0.0000 0.0000 0.0000 0.0000 29.4751
#
#
#
# Elastic Compliance Matrix: (Units=1/GPa)
#
#
# Indices 1 2 3 4 5 6 
#
# 1 0.022767 0.003615 -0.001400 0.000000 0.000000 0.000000
# 2 0.003615 0.019887 -0.004404 0.000000 0.000000 0.000000
# 3 -0.001400 -0.004404 0.004556 0.000000 0.000000 0.000000
# 4 0.000000 0.000000 0.000000 0.086073 0.000000 0.000000
# 5 0.000000 0.000000 0.000000 0.000000 0.171294 0.000000
# 6 0.000000 0.000000 0.000000 0.000000 0.000000 0.033927
#
#
# Mechanical properties :
#
#
# Convention : Reuss Voigt Hill
#
# Bulk Modulus (GPa) = 23.34760 57.16161 40.25461
# Shear Modulus (GPa) = 13.99936 31.32788 22.66362
#
# Velocity S-wave (km/s) = 2.41361 3.61059 3.07099
# Velocity P-wave (km/s) = 4.18126 6.41626 5.41532
#
# Compressibility (1/GPa) = 0.04283096
#
# Stress axis : x y z
#
# Youngs Moduli (GPa) = 43.92381 50.28479 219.47808
#
# Poissons Ratio (x) = -0.18177 0.30725
# Poissons Ratio (y) = -0.15877 0.96663
# Poissons Ratio (z) = 0.06149 0.22146
#
# Static dielectric constant tensor:
#      x y z
#    x 1.998360 0.000000 0.000000 
#    y 0.000000 1.890530 0.000000 
#    z 0.000000 0.000000 2.134400 
# 
# From -- ./inp_files/44075.got.cif
#   From: 2010.05.17/outbox.cif.g08.bks.cpg/sg68_23_cif.got.tgz:44075.got - 2010.06.03 18:57:09.
