data_PCOD9507329
_publ_section_title
;
Structure prediction by ZEFSAII (Michael W. Deem and Ramdas Pophale) SiO2 
 PCOD9507329
Probable space group: C C C A
;
_chemical_formula_sum "Si O2"
_cell_formula_units_Z 56
_cell_length_a 14.008608
_cell_length_b 12.264287
_cell_length_c 12.776707
_cell_angle_alpha 90.000000
_cell_angle_beta 90.000000
_cell_angle_gamma 90.000000
_cell_volume 2195.109671
_symmetry_space_group_name_H-M "C C C A"
_symmetry_group_IT_number 68
_space_group.IT_coordinate_system_code '2'
_symmetry_cell_setting 'orthorhombic'
loop_
_space_group_symop_operation_xyz
x,y,z
-x,1/2-y,z
x,1/2-y,1/2-z
-x,y,1/2-z
-x,-y,-z
x,1/2+y,-z
-x,1/2+y,1/2+z
x,-y,1/2+z
1/2+x,1/2+y,z
1/2-x,-y,z
1/2+x,-y,1/2-z
1/2-x,1/2+y,1/2-z
1/2-x,1/2-y,-z
1/2+x,y,-z
1/2-x,y,1/2+z
1/2+x,1/2-y,1/2+z
loop_
_atom_site_type_symbol
_atom_site_label
_atom_site_fract_x
_atom_site_fract_y
_atom_site_fract_z
Si Si1 0.683875 0.250000 0.750000
Si Si2 0.071334 0.412943 0.391395
Si Si3 0.264223 0.625801 0.558321
Si Si4 0.570193 0.153484 0.447007
O O1 0.616207 0.343350 0.700704
O O2 0.750463 0.192451 0.664322
O O3 0.139663 0.385206 0.490529
O O4 0.065715 0.543093 0.378507
O O5 0.970891 0.373748 0.436568
O O6 0.250000 0.500000 0.589002
O O7 0.181553 0.664956 0.476801
O O8 0.500000 0.250000 0.406819
#
# Coordination Sequence:
#
# PCOD9507329 Si02
#       4
#     8  16  16  16
#     4  12  22  39  68 101 138 196 242 301 362 445
#     4  10  23  40  64 102 135 185 241 295 363 435
#     4  10  23  41  62  98 140 186 241 301 365 432
#     4  10  20  40  69  94 133 183 236 296 367 431
#
# _framework density 25.511254000000001
#
# number of rings (size 3 to 8) (size 9 to 14) (size 15 to 20)
#    0.000    1.714    2.857    0.857    0.000    5.714 
#    0.000    0.000    0.000    6.857    0.000    0.000 
#    0.000    0.000    0.000    0.000    0.000    0.000 
#
# Total GULP energy -156553.480759 kJ/mol
# GULP energy per Si atom -5591.195741 kJ/mol
# Density = 2.545319 g / cm^3
# Si number density = 25.511254 Si / 1000 Ang^3
#
#
#
# Elastic Constant Matrix: (Units=GPa)
#
#
# Indices 1 2 3 4 5 6 
#
# 1 130.1980 31.5340 28.9143 0.0000 0.0000 0.0000
# 2 31.5340 204.9262 71.9934 0.0000 0.0000 0.0000
# 3 28.9143 71.9934 117.0474 0.0000 0.0000 0.0000
# 4 0.0000 0.0000 0.0000 20.6426 0.0000 0.0000
# 5 0.0000 0.0000 0.0000 0.0000 30.7185 0.0000
# 6 0.0000 0.0000 0.0000 0.0000 0.0000 51.9029
#
#
#
# Elastic Compliance Matrix: (Units=1/GPa)
#
#
# Indices 1 2 3 4 5 6 
#
# 1 0.008205 -0.000702 -0.001595 0.000000 0.000000 0.000000
# 2 -0.000702 0.006285 -0.003692 0.000000 0.000000 0.000000
# 3 -0.001595 -0.003692 0.011209 0.000000 0.000000 0.000000
# 4 0.000000 0.000000 0.000000 0.048444 0.000000 0.000000
# 5 0.000000 0.000000 0.000000 0.000000 0.032554 0.000000
# 6 0.000000 0.000000 0.000000 0.000000 0.000000 0.019267
#
#
# Mechanical properties :
#
#
# Convention : Reuss Voigt Hill
#
# Bulk Modulus (GPa) = 72.88864 79.67279 76.28072
# Shear Modulus (GPa) = 35.08411 41.96813 38.52612
#
# Velocity S-wave (km/s) = 3.71245 4.06036 3.89030
# Velocity P-wave (km/s) = 6.85635 7.29934 7.08131
#
# Compressibility (1/GPa) = 0.01371956
#
# Stress axis : x y z
#
# Youngs Moduli (GPa) = 121.87850 159.10832 89.21716
#
# Poissons Ratio (x) = 0.11173 0.14229
# Poissons Ratio (y) = 0.08559 0.32942
# Poissons Ratio (z) = 0.19439 0.58748
#
# Static dielectric constant tensor:
#      x y z
#    x 2.025880 0.000000 0.000000 
#    y 0.000000 2.189230 0.000000 
#    z 0.000000 0.000000 1.923590 
# 
# From -- ./inp_files/23259.got.cif
#   From: 2010.05.17/outbox.cif.g08.bks.cpg/sg68_12_cif.got.tgz:23259.got - 2010.06.03 18:57:09.
