data_PCOD9507400
_publ_section_title
;
Structure prediction by ZEFSAII (Michael W. Deem and Ramdas Pophale) SiO2 
 PCOD9507400
Probable space group: C C C A
;
_chemical_formula_sum "Si O2"
_cell_formula_units_Z 112
_cell_length_a 11.567874
_cell_length_b 13.802162
_cell_length_c 31.145195
_cell_angle_alpha 90.000000
_cell_angle_beta 90.000000
_cell_angle_gamma 90.000000
_cell_volume 4972.693876
_symmetry_space_group_name_H-M "C C C A"
_symmetry_group_IT_number 68
_space_group.IT_coordinate_system_code '2'
_symmetry_cell_setting 'orthorhombic'
loop_
_space_group_symop_operation_xyz
x,y,z
-x,1/2-y,z
x,1/2-y,1/2-z
-x,y,1/2-z
-x,-y,-z
x,1/2+y,-z
-x,1/2+y,1/2+z
x,-y,1/2+z
1/2+x,1/2+y,z
1/2-x,-y,z
1/2+x,-y,1/2-z
1/2-x,1/2+y,1/2-z
1/2-x,1/2-y,-z
1/2+x,y,-z
1/2-x,y,1/2+z
1/2+x,1/2-y,1/2+z
loop_
_atom_site_type_symbol
_atom_site_label
_atom_site_fract_x
_atom_site_fract_y
_atom_site_fract_z
Si Si1 0.734515 0.137549 0.147458
Si Si2 0.616735 0.313706 0.107515
Si Si3 0.505670 0.508881 0.867110
Si Si4 0.690137 0.860551 0.747988
Si Si5 0.440664 0.355808 0.580208
Si Si6 0.127970 0.696030 0.490253
Si Si7 0.588516 0.564306 0.218722
O O1 0.702953 0.245461 0.132665
O O2 0.628383 0.066536 0.133641
O O3 0.736347 0.126659 0.198896
O O4 0.848145 0.124082 0.118283
O O5 0.500000 0.250000 0.105061
O O6 0.588960 0.406860 0.134597
O O7 0.645623 0.339360 0.058361
O O8 0.478039 0.445995 0.909362
O O9 0.476806 0.447064 0.825582
O O10 0.641243 0.750000 0.750000
O O11 0.796490 0.872668 0.780567
O O12 0.617092 0.956772 0.760844
O O13 0.500000 0.250000 0.583790
O O14 0.387113 0.367759 0.533081
O O15 0.250000 0.750000 0.500000
O O16 0.000000 0.750000 0.489351
O O17 0.500000 0.615371 0.250000
#
# Coordination Sequence:
#
# PCOD9507400 Si02
#       7
#    16  16  16  16  16  16  16
#     4  11  21  42  68  94 125 176 228 275 335 422
#     4   9  20  38  69  96 130 173 224 283 337 406
#     4  11  23  42  66  97 128 175 231 278 342 411
#     4  11  25  40  64  93 126 175 221 274 349 410
#     4  11  25  40  68  96 136 178 220 282 346 417
#     4  10  20  42  68 103 142 179 229 288 358 419
#     4  11  23  43  60  91 134 165 213 291 328 387
#
# _framework density 22.523002000000002
#
# number of rings (size 3 to 8) (size 9 to 14) (size 15 to 20)
#    0.000    1.429    2.857    2.143    4.000    1.143 
#    0.000    0.000    0.000    0.000    0.000    0.000 
#    0.000    0.000    0.000    0.000    0.000    0.000 
#
# Total GULP energy -311907.265942 kJ/mol
# GULP energy per Si atom -5569.772606 kJ/mol
# Density = 2.247174 g / cm^3
# Si number density = 22.523002 Si / 1000 Ang^3
#
#
#
# Elastic Constant Matrix: (Units=GPa)
#
#
# Indices 1 2 3 4 5 6 
#
# 1 68.6629 -0.5636 4.2938 0.0000 0.0000 0.0000
# 2 -0.5636 77.6096 4.6436 0.0000 0.0000 0.0000
# 3 4.2938 4.6436 132.8278 0.0000 0.0000 0.0000
# 4 0.0000 0.0000 0.0000 2.1438 0.0000 0.0000
# 5 0.0000 0.0000 0.0000 0.0000 -25.5957 0.0000
# 6 0.0000 0.0000 0.0000 0.0000 0.0000 13.8987
#
#
#
# Elastic Compliance Matrix: (Units=1/GPa)
#
#
# Indices 1 2 3 4 5 6 
#
# 1 0.014595 0.000134 -0.000476 0.000000 0.000000 0.000000
# 2 0.000134 0.012913 -0.000456 0.000000 0.000000 0.000000
# 3 -0.000476 -0.000456 0.007560 0.000000 0.000000 0.000000
# 4 0.000000 0.000000 0.000000 0.466454 0.000000 0.000000
# 5 0.000000 0.000000 0.000000 0.000000 -0.039069 0.000000
# 6 0.000000 0.000000 0.000000 0.000000 0.000000 0.071949
#
#
# Mechanical properties :
#
#
# Convention : Reuss Voigt Hill
#
# Bulk Modulus (GPa) = 29.87540 32.87199 31.37370
# Shear Modulus (GPa) = 9.13818 16.13779 12.63798
#
# Velocity S-wave (km/s) = 2.01645 2.67966 2.37136
# Velocity P-wave (km/s) = 4.32604 4.91942 4.63224
#
# Compressibility (1/GPa) = 0.03347236
#
# Stress axis : x y z
#
# Youngs Moduli (GPa) = 68.51752 77.43978 132.27715
#
# Poissons Ratio (x) = -0.01041 0.06303
# Poissons Ratio (y) = -0.00921 0.06029
# Poissons Ratio (z) = 0.03265 0.03530
#
# Static dielectric constant tensor:
#      x y z
#    x 1.947830 0.000000 0.000000 
#    y 0.000000 1.924290 0.000000 
#    z 0.000000 0.000000 1.858940 
# 
# From -- ./inp_files/54838.got.cif
#   From: 2010.05.17/outbox.cif.g08.bks.cpg/sg68_28_cif.got.tgz:54838.got - 2010.06.03 18:57:09.
