data_PCOD9507814
_publ_section_title
;
Structure prediction by ZEFSAII (Michael W. Deem and Ramdas Pophale) SiO2 
 PCOD9507814
Probable space group: C C C A
;
_chemical_formula_sum "Si O2"
_cell_formula_units_Z 88
_cell_length_a 12.343005
_cell_length_b 18.588264
_cell_length_c 17.356180
_cell_angle_alpha 90.000000
_cell_angle_beta 90.000000
_cell_angle_gamma 90.000000
_cell_volume 3982.115774
_symmetry_space_group_name_H-M "C C C A"
_symmetry_group_IT_number 68
_space_group.IT_coordinate_system_code '2'
_symmetry_cell_setting 'orthorhombic'
loop_
_space_group_symop_operation_xyz
x,y,z
-x,1/2-y,z
x,1/2-y,1/2-z
-x,y,1/2-z
-x,-y,-z
x,1/2+y,-z
-x,1/2+y,1/2+z
x,-y,1/2+z
1/2+x,1/2+y,z
1/2-x,-y,z
1/2+x,-y,1/2-z
1/2-x,1/2+y,1/2-z
1/2-x,1/2-y,-z
1/2+x,y,-z
1/2-x,y,1/2+z
1/2+x,1/2-y,1/2+z
loop_
_atom_site_type_symbol
_atom_site_label
_atom_site_fract_x
_atom_site_fract_y
_atom_site_fract_z
Si Si1 0.000000 0.250000 0.564901
Si Si2 0.174665 0.690647 0.316089
Si Si3 0.122552 0.013143 0.099804
Si Si4 0.939674 0.097526 0.551545
Si Si5 0.709686 0.581470 0.801252
Si Si6 0.107718 0.359604 0.284345
O O1 0.903799 0.282635 0.617786
O O2 0.960620 0.178570 0.523104
O O3 0.162748 0.750000 0.250000
O O4 0.147671 0.614101 0.273833
O O5 0.302838 0.683019 0.334956
O O6 0.083910 0.066424 0.168681
O O7 0.250000 0.000000 0.113136
O O8 0.110657 0.054891 0.019187
O O9 0.046275 0.944203 0.083303
O O10 0.857560 0.097736 0.623266
O O11 0.750000 0.500000 0.797327
O O12 0.820951 0.624824 0.792173
O O13 0.000000 0.327413 0.250000
#
# Coordination Sequence:
#
# PCOD9507814 Si02
#       6
#     8  16  16  16  16  16
#     4  12  21  42  66 102 131 178 228 284 347 406
#     4  10  22  38  61  99 129 166 216 282 333 388
#     4  11  24  45  64  98 132 178 227 289 337 405
#     4  11  25  41  70  91 137 176 224 282 345 415
#     4  10  21  38  65 100 126 173 221 271 338 397
#     4  10  22  40  66  97 132 170 228 274 338 398
#
# _framework density 22.098804999999999
#
# number of rings (size 3 to 8) (size 9 to 14) (size 15 to 20)
#    1.091    0.364    1.818    3.545    2.545    1.818 
#    0.000    5.455    0.000    0.000    0.000    0.000 
#    0.000    0.000    0.000    0.000    0.000    0.000 
#
# Total GULP energy -245240.260531 kJ/mol
# GULP energy per Si atom -5573.642285 kJ/mol
# Density = 2.204851 g / cm^3
# Si number density = 22.098805 Si / 1000 Ang^3
#
#
#
# Elastic Constant Matrix: (Units=GPa)
#
#
# Indices 1 2 3 4 5 6 
#
# 1 117.2514 18.8641 30.0713 0.0000 0.0000 0.0000
# 2 18.8641 107.8224 13.5018 0.0000 0.0000 0.0000
# 3 30.0713 13.5018 64.9936 0.0000 0.0000 0.0000
# 4 0.0000 0.0000 0.0000 -0.6030 0.0000 0.0000
# 5 0.0000 0.0000 0.0000 0.0000 19.6451 0.0000
# 6 0.0000 0.0000 0.0000 0.0000 0.0000 19.6004
#
#
#
# Elastic Compliance Matrix: (Units=1/GPa)
#
#
# Indices 1 2 3 4 5 6 
#
# 1 0.009821 -0.001180 -0.004299 0.000000 0.000000 0.000000
# 2 -0.001180 0.009664 -0.001462 0.000000 0.000000 0.000000
# 3 -0.004299 -0.001462 0.017679 0.000000 0.000000 0.000000
# 4 0.000000 0.000000 0.000000 -1.658506 0.000000 0.000000
# 5 0.000000 0.000000 0.000000 0.000000 0.050903 0.000000
# 6 0.000000 0.000000 0.000000 0.000000 0.000000 0.051019
#
#
# Mechanical properties :
#
#
# Convention : Reuss Voigt Hill
#
# Bulk Modulus (GPa) = 42.95008 46.10466 44.52737
# Shear Modulus (GPa) = -3.33828 22.90386 9.78279
#
# Velocity S-wave (km/s) = -1.23040 3.22286 2.10629
# Velocity P-wave (km/s) = 4.17841 5.89553 5.10962
#
# Compressibility (1/GPa) = 0.02328284
#
# Stress axis : x y z
#
# Youngs Moduli (GPa) = 101.82215 103.47708 56.56491
#
# Poissons Ratio (x) = 0.12210 0.24317
# Poissons Ratio (y) = 0.12014 0.08268
# Poissons Ratio (z) = 0.43772 0.15125
#
# Static dielectric constant tensor:
#      x y z
#    x 1.764020 0.000000 0.000000 
#    y 0.000000 1.912760 0.000000 
#    z 0.000000 0.000000 1.783460 
# 
# From -- ./inp_files/29665.got.cif
#   From: 2010.05.17/outbox.cif.g08.bks.cpg/sg68_15_cif.got.tgz:29665.got - 2010.06.03 18:57:09.
