data_PCOD9507348
_publ_section_title
;
Structure prediction by ZEFSAII (Michael W. Deem and Ramdas Pophale) SiO2 
 PCOD9507348
Probable space group: C C C A
;
_chemical_formula_sum "Si O2"
_cell_formula_units_Z 64
_cell_length_a 16.290084
_cell_length_b 12.063717
_cell_length_c 15.675273
_cell_angle_alpha 90.000000
_cell_angle_beta 90.000000
_cell_angle_gamma 90.000000
_cell_volume 3080.488399
_symmetry_space_group_name_H-M "C C C A"
_symmetry_group_IT_number 68
_space_group.IT_coordinate_system_code '2'
_symmetry_cell_setting 'orthorhombic'
loop_
_space_group_symop_operation_xyz
x,y,z
-x,1/2-y,z
x,1/2-y,1/2-z
-x,y,1/2-z
-x,-y,-z
x,1/2+y,-z
-x,1/2+y,1/2+z
x,-y,1/2+z
1/2+x,1/2+y,z
1/2-x,-y,z
1/2+x,-y,1/2-z
1/2-x,1/2+y,1/2-z
1/2-x,1/2-y,-z
1/2+x,y,-z
1/2-x,y,1/2+z
1/2+x,1/2-y,1/2+z
loop_
_atom_site_type_symbol
_atom_site_label
_atom_site_fract_x
_atom_site_fract_y
_atom_site_fract_z
Si Si1 0.727333 0.657785 0.372328
Si Si2 0.114288 0.524530 0.183811
Si Si3 0.784672 0.882439 0.426345
Si Si4 0.460979 0.373115 0.356846
O O1 0.808342 0.603007 0.333342
O O2 0.649220 0.598789 0.329240
O O3 0.737722 0.789205 0.371628
O O4 0.731278 0.628886 0.472930
O O5 0.079180 0.566293 0.274157
O O6 0.039519 0.552025 0.119403
O O7 0.882358 0.865988 0.417024
O O8 0.750000 0.000000 0.397507
O O9 0.500000 0.250000 0.343358
#
# Coordination Sequence:
#
# PCOD9507348 Si02
#       4
#    16  16  16  16
#     4  10  22  41  64  92 139 170 211 272 332 387
#     4  10  20  41  62  94 126 169 217 267 319 381
#     4  11  23  41  64 100 128 174 223 260 334 397
#     4  11  23  39  68  99 123 173 229 268 322 402
#
# _framework density 20.775926999999999
#
# number of rings (size 3 to 8) (size 9 to 14) (size 15 to 20)
#    0.000    1.500    5.000    1.500    3.500    1.000 
#    0.000    1.250    0.000    3.000    0.000    0.000 
#    0.000    0.000    0.000    0.000    0.000    0.000 
#
# Total GULP energy -178447.050363 kJ/mol
# GULP energy per Si atom -5576.470324 kJ/mol
# Density = 2.072864 g / cm^3
# Si number density = 20.775927 Si / 1000 Ang^3
#
#
#
# Elastic Constant Matrix: (Units=GPa)
#
#
# Indices 1 2 3 4 5 6 
#
# 1 143.9968 74.9841 18.7329 0.0000 0.0000 0.0000
# 2 74.9841 168.0620 11.4095 0.0000 0.0000 0.0000
# 3 18.7329 11.4095 25.7864 0.0000 0.0000 0.0000
# 4 0.0000 0.0000 0.0000 -40.6014 0.0000 0.0000
# 5 0.0000 0.0000 0.0000 0.0000 0.0827 0.0000
# 6 0.0000 0.0000 0.0000 0.0000 0.0000 48.9153
#
#
#
# Elastic Compliance Matrix: (Units=1/GPa)
#
#
# Indices 1 2 3 4 5 6 
#
# 1 0.009699 -0.003968 -0.005290 0.000000 0.000000 0.000000
# 2 -0.003968 0.007758 -0.000550 0.000000 0.000000 0.000000
# 3 -0.005290 -0.000550 0.042867 0.000000 0.000000 0.000000
# 4 0.000000 0.000000 0.000000 -0.024630 0.000000 0.000000
# 5 0.000000 0.000000 0.000000 0.000000 12.094699 0.000000
# 6 0.000000 0.000000 0.000000 0.000000 0.000000 0.020443
#
#
# Mechanical properties :
#
#
# Convention : Reuss Voigt Hill
#
# Bulk Modulus (GPa) = 24.56579 60.89979 42.73279
# Shear Modulus (GPa) = 0.41037 17.19390 8.80214
#
# Velocity S-wave (km/s) = 0.44492 2.87990 2.06056
# Velocity P-wave (km/s) = 3.48048 6.35883 5.12584
#
# Compressibility (1/GPa) = 0.04070702
#
# Stress axis : x y z
#
# Youngs Moduli (GPa) = 103.10028 128.89803 23.32819
#
# Poissons Ratio (x) = 0.51152 0.12341
# Poissons Ratio (y) = 0.40914 0.01283
# Poissons Ratio (z) = 0.54543 0.07086
#
# Static dielectric constant tensor:
#      x y z
#    x 1.764200 0.000000 0.000000 
#    y 0.000000 1.793120 0.000000 
#    z 0.000000 0.000000 1.810100 
# 
# From -- ./inp_files/31569.got.cif
#   From: 2010.05.17/outbox.cif.g08.bks.cpg/sg68_16_cif.got.tgz:31569.got - 2010.06.03 18:57:09.
