data_PCOD9507762
_publ_section_title
;
Structure prediction by ZEFSAII (Michael W. Deem and Ramdas Pophale) SiO2 
 PCOD9507762
Probable space group: C C C A
;
_chemical_formula_sum "Si O2"
_cell_formula_units_Z 64
_cell_length_a 18.412140
_cell_length_b 7.863037
_cell_length_c 23.355210
_cell_angle_alpha 90.000000
_cell_angle_beta 90.000000
_cell_angle_gamma 90.000000
_cell_volume 3381.258423
_symmetry_space_group_name_H-M "C C C A"
_symmetry_group_IT_number 68
_space_group.IT_coordinate_system_code '2'
_symmetry_cell_setting 'orthorhombic'
loop_
_space_group_symop_operation_xyz
x,y,z
-x,1/2-y,z
x,1/2-y,1/2-z
-x,y,1/2-z
-x,-y,-z
x,1/2+y,-z
-x,1/2+y,1/2+z
x,-y,1/2+z
1/2+x,1/2+y,z
1/2-x,-y,z
1/2+x,-y,1/2-z
1/2-x,1/2+y,1/2-z
1/2-x,1/2-y,-z
1/2+x,y,-z
1/2-x,y,1/2+z
1/2+x,1/2-y,1/2+z
loop_
_atom_site_type_symbol
_atom_site_label
_atom_site_fract_x
_atom_site_fract_y
_atom_site_fract_z
Si Si1 0.322257 0.603187 0.297063
Si Si2 0.250000 0.500000 0.506939
Si Si3 0.162781 0.717824 0.925969
Si Si4 0.472045 0.061292 0.186554
Si Si5 0.000000 0.750000 0.897403
O O1 0.338619 0.750000 0.250000
O O2 0.250000 0.500000 0.281666
O O3 0.317610 0.690122 0.359530
O O4 0.385990 0.464929 0.306454
O O5 0.214269 0.639119 0.547628
O O6 0.185739 0.442047 0.464479
O O7 0.076637 0.751385 0.930297
O O8 0.500000 0.250000 0.171093
O O9 0.500000 0.022836 0.250000
O O10 0.498350 0.917864 0.142541
#
# Coordination Sequence:
#
# PCOD9507762 Si02
#       5
#    16   8  16  16   8
#     4  11  24  39  63  99 132 162 215 267 322 390
#     4  10  22  42  64  86 124 174 206 266 316 374
#     4  10  22  42  63  90 126 162 216 260 319 377
#     4  10  21  38  61  89 129 171 208 252 319 383
#     4  10  21  40  62  94 122 162 211 272 310 382
#
# _framework density 18.927862999999999
#
# number of rings (size 3 to 8) (size 9 to 14) (size 15 to 20)
#    0.000    1.750    1.250    3.375    5.250    3.000 
#    4.500    0.000    0.000    0.000    0.000    0.000 
#    0.000    0.000    0.000    0.000    0.000    0.000 
#
# Total GULP energy -178426.061975 kJ/mol
# GULP energy per Si atom -5575.814437 kJ/mol
# Density = 1.888478 g / cm^3
# Si number density = 18.927863 Si / 1000 Ang^3
#
#
#
# Elastic Constant Matrix: (Units=GPa)
#
#
# Indices 1 2 3 4 5 6 
#
# 1 125.2341 55.8202 22.4154 0.0000 0.0000 0.0000
# 2 55.8202 77.8737 31.0837 0.0000 0.0000 0.0000
# 3 22.4154 31.0837 91.1709 0.0000 0.0000 0.0000
# 4 0.0000 0.0000 0.0000 5.3517 0.0000 0.0000
# 5 0.0000 0.0000 0.0000 0.0000 20.7266 0.0000
# 6 0.0000 0.0000 0.0000 0.0000 0.0000 21.4170
#
#
#
# Elastic Compliance Matrix: (Units=1/GPa)
#
#
# Indices 1 2 3 4 5 6 
#
# 1 0.011734 -0.008403 -0.000020 0.000000 0.000000 0.000000
# 2 -0.008403 0.020882 -0.005053 0.000000 0.000000 0.000000
# 3 -0.000020 -0.005053 0.012696 0.000000 0.000000 0.000000
# 4 0.000000 0.000000 0.000000 0.186856 0.000000 0.000000
# 5 0.000000 0.000000 0.000000 0.000000 0.048247 0.000000
# 6 0.000000 0.000000 0.000000 0.000000 0.000000 0.046692
#
#
# Mechanical properties :
#
#
# Convention : Reuss Voigt Hill
#
# Bulk Modulus (GPa) = 54.46892 56.99079 55.72986
# Shear Modulus (GPa) = 13.88194 21.82968 17.85581
#
# Velocity S-wave (km/s) = 2.71110 3.39973 3.07475
# Velocity P-wave (km/s) = 6.21608 6.75172 6.48943
#
# Compressibility (1/GPa) = 0.01835909
#
# Stress axis : x y z
#
# Youngs Moduli (GPa) = 85.22166 47.88868 78.76349
#
# Poissons Ratio (x) = 0.40241 0.00158
# Poissons Ratio (y) = 0.71612 0.39802
# Poissons Ratio (z) = 0.00171 0.24200
#
# Static dielectric constant tensor:
#      x y z
#    x 1.665410 0.000000 0.000000 
#    y 0.000000 1.707610 0.000000 
#    z 0.000000 0.000000 1.623290 
# 
# From -- ./inp_files/35974.got.cif
#   From: 2010.05.17/outbox.cif.g08.bks.cpg/sg68_18_cif.got.tgz:35974.got - 2010.06.03 18:57:09.
