data_PCOD9507580
_publ_section_title
;
Structure prediction by ZEFSAII (Michael W. Deem and Ramdas Pophale) SiO2 
 PCOD9507580
Probable space group: C C C A
;
_chemical_formula_sum "Si O2"
_cell_formula_units_Z 88
_cell_length_a 26.797252
_cell_length_b 5.100614
_cell_length_c 32.232683
_cell_angle_alpha 90.000000
_cell_angle_beta 90.000000
_cell_angle_gamma 90.000000
_cell_volume 4405.641719
_symmetry_space_group_name_H-M "C C C A"
_symmetry_group_IT_number 68
_space_group.IT_coordinate_system_code '2'
_symmetry_cell_setting 'orthorhombic'
loop_
_space_group_symop_operation_xyz
x,y,z
-x,1/2-y,z
x,1/2-y,1/2-z
-x,y,1/2-z
-x,-y,-z
x,1/2+y,-z
-x,1/2+y,1/2+z
x,-y,1/2+z
1/2+x,1/2+y,z
1/2-x,-y,z
1/2+x,-y,1/2-z
1/2-x,1/2+y,1/2-z
1/2-x,1/2-y,-z
1/2+x,y,-z
1/2-x,y,1/2+z
1/2+x,1/2-y,1/2+z
loop_
_atom_site_type_symbol
_atom_site_label
_atom_site_fract_x
_atom_site_fract_y
_atom_site_fract_z
Si Si1 0.783554 0.758985 0.915021
Si Si2 0.451428 0.850155 0.094138
Si Si3 0.895792 0.204892 0.798601
Si Si4 0.000000 0.250000 0.840219
Si Si5 0.371639 0.614650 0.473117
Si Si6 0.870015 0.675241 0.848444
O O1 0.750000 0.500000 0.923513
O O2 0.816291 0.867004 0.953762
O O3 0.823545 0.711070 0.878741
O O4 0.750000 0.000000 0.901480
O O5 0.500000 0.750000 0.069862
O O6 0.410831 0.963658 0.062747
O O7 0.418004 0.648178 0.120863
O O8 0.477023 0.034944 0.128423
O O9 0.888812 0.250000 0.750000
O O10 0.952558 0.291113 0.810212
O O11 0.862444 0.413494 0.822873
O O12 0.882781 0.918930 0.817712
O O13 0.379254 0.406494 0.509505
#
# Coordination Sequence:
#
# PCOD9507580 Si02
#       6
#    16  16  16   8  16  16
#     4  11  23  42  70  90 112 157 205 252 307 362
#     4  10  21  38  61  81 123 168 206 240 293 348
#     4  11  21  36  60  90 127 160 194 249 304 343
#     4  10  21  36  58  88 120 166 218 242 274 356
#     4  11  26  41  59  92 126 154 199 255 306 361
#     4  10  22  39  60  90 122 156 204 247 292 368
#
# _framework density 19.97439
#
# number of rings (size 3 to 8) (size 9 to 14) (size 15 to 20)
#    0.000    1.455    1.818    3.000    2.545    5.818 
#    0.000    1.818    0.000   10.909    0.000    0.000 
#    0.000    0.000    0.000    0.000    0.000    0.000 
#
# Total GULP energy -245260.272303 kJ/mol
# GULP energy per Si atom -5574.097098 kJ/mol
# Density = 1.992893 g / cm^3
# Si number density = 19.974390 Si / 1000 Ang^3
#
#
#
# Elastic Constant Matrix: (Units=GPa)
#
#
# Indices 1 2 3 4 5 6 
#
# 1 86.3896 16.1182 7.1136 0.0000 0.0000 0.0000
# 2 16.1182 52.8938 -10.5729 0.0000 0.0000 0.0000
# 3 7.1136 -10.5729 46.7333 0.0000 0.0000 0.0000
# 4 0.0000 0.0000 0.0000 19.3691 0.0000 0.0000
# 5 0.0000 0.0000 0.0000 0.0000 10.3202 0.0000
# 6 0.0000 0.0000 0.0000 0.0000 0.0000 19.6799
#
#
#
# Elastic Compliance Matrix: (Units=1/GPa)
#
#
# Indices 1 2 3 4 5 6 
#
# 1 0.012645 -0.004439 -0.002929 0.000000 0.000000 0.000000
# 2 -0.004439 0.021359 0.005508 0.000000 0.000000 0.000000
# 3 -0.002929 0.005508 0.023090 0.000000 0.000000 0.000000
# 4 0.000000 0.000000 0.000000 0.051629 0.000000 0.000000
# 5 0.000000 0.000000 0.000000 0.000000 0.096897 0.000000
# 6 0.000000 0.000000 0.000000 0.000000 0.000000 0.050813
#
#
# Mechanical properties :
#
#
# Convention : Reuss Voigt Hill
#
# Bulk Modulus (GPa) = 18.73541 23.48159 21.10850
# Shear Modulus (GPa) = 17.98921 21.43102 19.71011
#
# Velocity S-wave (km/s) = 3.00428 3.27911 3.14470
# Velocity P-wave (km/s) = 4.62972 5.11059 4.87609
#
# Compressibility (1/GPa) = 0.05337488
#
# Stress axis : x y z
#
# Youngs Moduli (GPa) = 79.08394 46.81782 43.30880
#
# Poissons Ratio (x) = 0.20781 0.12685
# Poissons Ratio (y) = 0.35103 -0.23854
# Poissons Ratio (z) = 0.23163 -0.25787
#
# Static dielectric constant tensor:
#      x y z
#    x 1.769690 0.000000 0.000000 
#    y 0.000000 1.747990 0.000000 
#    z 0.000000 0.000000 1.713930 
# 
# From -- ./inp_files/55973.got.cif
#   From: 2010.05.17/outbox.cif.g08.bks.cpg/sg68_28_cif.got.tgz:55973.got - 2010.06.03 18:57:09.
