data_PCOD9507451
_publ_section_title
;
Structure prediction by ZEFSAII (Michael W. Deem and Ramdas Pophale) SiO2 
 PCOD9507451
Probable space group: C C C A
;
_chemical_formula_sum "Si O2"
_cell_formula_units_Z 72
_cell_length_a 8.943107
_cell_length_b 14.571833
_cell_length_c 24.645453
_cell_angle_alpha 90.000000
_cell_angle_beta 90.000000
_cell_angle_gamma 90.000000
_cell_volume 3211.732878
_symmetry_space_group_name_H-M "C C C A"
_symmetry_group_IT_number 68
_space_group.IT_coordinate_system_code '2'
_symmetry_cell_setting 'orthorhombic'
loop_
_space_group_symop_operation_xyz
x,y,z
-x,1/2-y,z
x,1/2-y,1/2-z
-x,y,1/2-z
-x,-y,-z
x,1/2+y,-z
-x,1/2+y,1/2+z
x,-y,1/2+z
1/2+x,1/2+y,z
1/2-x,-y,z
1/2+x,-y,1/2-z
1/2-x,1/2+y,1/2-z
1/2-x,1/2-y,-z
1/2+x,y,-z
1/2-x,y,1/2+z
1/2+x,1/2-y,1/2+z
loop_
_atom_site_type_symbol
_atom_site_label
_atom_site_fract_x
_atom_site_fract_y
_atom_site_fract_z
Si Si1 0.864040 0.915132 0.419471
Si Si2 0.500000 0.750000 0.750000
Si Si3 0.307350 0.593972 0.628522
Si Si4 0.000000 0.750000 0.750000
Si Si5 0.243621 0.791526 0.174577
Si Si6 0.132963 0.317077 0.029285
O O1 0.774183 0.840458 0.383008
O O2 0.912604 0.881793 0.479167
O O3 0.021587 0.923930 0.388613
O O4 0.750000 0.000000 0.423446
O O5 0.395468 0.686329 0.786928
O O6 0.250000 0.500000 0.653442
O O7 0.280372 0.682994 0.664969
O O8 0.209784 0.621592 0.575197
O O9 0.106950 0.693888 0.790947
O O10 0.000000 0.250000 0.048885
O O11 0.250000 0.250000 0.000000
#
# Coordination Sequence:
#
# PCOD9507451 Si02
#       6
#    16   4  16   4  16  16
#     4  12  26  45  70 102 141 187 225 278 346 416
#     4  10  20  46  78  84 128 188 216 294 338 412
#     4  12  27  43  71 105 140 181 230 282 342 413
#     4  10  28  42  78 104 124 180 232 294 346 404
#     4  11  23  49  70  98 138 174 231 280 355 403
#     4  12  24  43  71 101 141 189 230 276 338 410
#
# _framework density 22.417805999999999
#
# number of rings (size 3 to 8) (size 9 to 14) (size 15 to 20)
#    0.000    0.444    6.667    0.667    7.778    1.778 
#    0.000    6.667    0.000    0.000    0.000    0.000 
#    0.000    0.000    0.000    0.000    0.000    0.000 
#
# Total GULP energy -201158.955273 kJ/mol
# GULP energy per Si atom -5587.748758 kJ/mol
# Density = 2.236678 g / cm^3
# Si number density = 22.417806 Si / 1000 Ang^3
#
#
#
# Elastic Constant Matrix: (Units=GPa)
#
#
# Indices 1 2 3 4 5 6 
#
# 1 132.3461 25.5446 16.5816 0.0000 0.0000 0.0000
# 2 25.5446 113.7856 8.8536 0.0000 0.0000 0.0000
# 3 16.5816 8.8536 88.8031 0.0000 0.0000 0.0000
# 4 0.0000 0.0000 0.0000 5.1128 0.0000 0.0000
# 5 0.0000 0.0000 0.0000 0.0000 35.6055 0.0000
# 6 0.0000 0.0000 0.0000 0.0000 0.0000 30.6852
#
#
#
# Elastic Compliance Matrix: (Units=1/GPa)
#
#
# Indices 1 2 3 4 5 6 
#
# 1 0.008052 -0.001704 -0.001334 0.000000 0.000000 0.000000
# 2 -0.001704 0.009218 -0.000601 0.000000 0.000000 0.000000
# 3 -0.001334 -0.000601 0.011570 0.000000 0.000000 0.000000
# 4 0.000000 0.000000 0.000000 0.195589 0.000000 0.000000
# 5 0.000000 0.000000 0.000000 0.000000 0.028086 0.000000
# 6 0.000000 0.000000 0.000000 0.000000 0.000000 0.032589
#
#
# Mechanical properties :
#
#
# Convention : Reuss Voigt Hill
#
# Bulk Modulus (GPa) = 46.37621 48.54382 47.46002
# Shear Modulus (GPa) = 16.69074 33.21105 24.95089
#
# Velocity S-wave (km/s) = 2.73157 3.85315 3.33978
# Velocity P-wave (km/s) = 5.53902 6.44180 6.00739
#
# Compressibility (1/GPa) = 0.02156278
#
# Stress axis : x y z
#
# Youngs Moduli (GPa) = 124.19430 108.48668 86.43202
#
# Poissons Ratio (x) = 0.18485 0.11527
# Poissons Ratio (y) = 0.21161 0.05193
# Poissons Ratio (z) = 0.16563 0.06518
#
# Static dielectric constant tensor:
#      x y z
#    x 1.879970 0.000000 0.000000 
#    y 0.000000 1.828830 0.000000 
#    z 0.000000 0.000000 1.849080 
# 
# From -- ./inp_files/48983.got.cif
#   From: 2010.05.17/outbox.cif.g08.bks.cpg/sg68_25_cif.got.tgz:48983.got - 2010.06.03 18:57:09.
