data_PCOD9507141
_publ_section_title
;
Structure prediction by ZEFSAII (Michael W. Deem and Ramdas Pophale) SiO2 
 PCOD9507141
Probable space group: C C C A
;
_chemical_formula_sum "Si O2"
_cell_formula_units_Z 116
_cell_length_a 11.397299
_cell_length_b 29.310726
_cell_length_c 18.116964
_cell_angle_alpha 90.000000
_cell_angle_beta 90.000000
_cell_angle_gamma 90.000000
_cell_volume 6052.209304
_symmetry_space_group_name_H-M "C C C A"
_symmetry_group_IT_number 68
_space_group.IT_coordinate_system_code '2'
_symmetry_cell_setting 'orthorhombic'
loop_
_space_group_symop_operation_xyz
x,y,z
-x,1/2-y,z
x,1/2-y,1/2-z
-x,y,1/2-z
-x,-y,-z
x,1/2+y,-z
-x,1/2+y,1/2+z
x,-y,1/2+z
1/2+x,1/2+y,z
1/2-x,-y,z
1/2+x,-y,1/2-z
1/2-x,1/2+y,1/2-z
1/2-x,1/2-y,-z
1/2+x,y,-z
1/2-x,y,1/2+z
1/2+x,1/2-y,1/2+z
loop_
_atom_site_type_symbol
_atom_site_label
_atom_site_fract_x
_atom_site_fract_y
_atom_site_fract_z
Si Si1 0.980945 0.105889 0.408865
Si Si2 0.746975 0.945533 0.936890
Si Si3 0.319448 0.315472 0.327768
Si Si4 0.717420 0.552845 0.389958
Si Si5 0.949708 0.877405 0.423607
Si Si6 0.450520 0.202903 0.667355
Si Si7 0.113122 0.609172 0.208453
Si Si8 0.000000 0.250000 0.750000
O O1 0.856332 0.080502 0.400428
O O2 0.984867 0.154501 0.368393
O O3 0.083902 0.070788 0.385448
O O4 0.002062 0.118234 0.494684
O O5 0.624179 0.924003 0.910199
O O6 0.750000 0.000000 0.926347
O O7 0.754420 0.935684 0.025278
O O8 0.356109 0.337864 0.405693
O O9 0.190214 0.295475 0.330628
O O10 0.330277 0.355154 0.265333
O O11 0.415571 0.279610 0.301442
O O12 0.750000 0.500000 0.383287
O O13 0.790319 0.576902 0.325776
O O14 0.051792 0.869190 0.364089
O O15 0.500000 0.250000 0.632596
O O16 0.500000 0.201632 0.750000
O O17 0.000000 0.587816 0.250000
#
# Coordination Sequence:
#
# PCOD9507141 Si02
#       8
#    16  16  16  16  16  16  16   4
#     4  11  22  40  66  92 128 164 206 264 314 367
#     4  10  21  35  64  94 125 167 203 249 311 376
#     4  11  22  40  63  87 121 160 204 256 313 378
#     4  10  22  36  60  94 126 165 209 252 309 373
#     4  10  20  39  62  91 126 155 205 253 311 369
#     4  11  24  45  65  88 120 166 210 256 315 383
#     4  10  20  39  59  83 124 167 201 252 308 357
#     4  12  20  36  62  96 108 160 206 246 320 372
#
# _framework density 19.166554000000001
#
# number of rings (size 3 to 8) (size 9 to 14) (size 15 to 20)
#    0.000    1.517    4.828    1.655    1.931    1.655 
#    1.241    5.517    0.000    0.000    0.000    0.000 
#    0.000    0.000    0.000    0.000    0.000    0.000 
#
# Total GULP energy -323418.352315 kJ/mol
# GULP energy per Si atom -5576.178488 kJ/mol
# Density = 1.912293 g / cm^3
# Si number density = 19.166554 Si / 1000 Ang^3
#
#
#
# Elastic Constant Matrix: (Units=GPa)
#
#
# Indices 1 2 3 4 5 6 
#
# 1 88.1366 35.3553 15.8856 0.0000 0.0000 0.0000
# 2 35.3553 108.4292 21.9601 0.0000 0.0000 0.0000
# 3 15.8856 21.9601 44.0228 0.0000 0.0000 0.0000
# 4 0.0000 0.0000 0.0000 56.1101 0.0000 0.0000
# 5 0.0000 0.0000 0.0000 0.0000 24.0437 0.0000
# 6 0.0000 0.0000 0.0000 0.0000 0.0000 10.5922
#
#
#
# Elastic Compliance Matrix: (Units=1/GPa)
#
#
# Indices 1 2 3 4 5 6 
#
# 1 0.013390 -0.003768 -0.002952 0.000000 0.000000 0.000000
# 2 -0.003768 0.011319 -0.004287 0.000000 0.000000 0.000000
# 3 -0.002952 -0.004287 0.025919 0.000000 0.000000 0.000000
# 4 0.000000 0.000000 0.000000 0.017822 0.000000 0.000000
# 5 0.000000 0.000000 0.000000 0.000000 0.041591 0.000000
# 6 0.000000 0.000000 0.000000 0.000000 0.000000 0.094409
#
#
# Mechanical properties :
#
#
# Convention : Reuss Voigt Hill
#
# Bulk Modulus (GPa) = 34.94737 42.99896 38.97316
# Shear Modulus (GPa) = 21.18624 29.30838 25.24731
#
# Velocity S-wave (km/s) = 3.32833 3.91467 3.63334
# Velocity P-wave (km/s) = 5.74834 6.55102 6.16276
#
# Compressibility (1/GPa) = 0.02861446
#
# Stress axis : x y z
#
# Youngs Moduli (GPa) = 74.68478 88.34340 38.58147
#
# Poissons Ratio (x) = 0.33288 0.11389
# Poissons Ratio (y) = 0.28142 0.16539
# Poissons Ratio (z) = 0.22047 0.37872
#
# Static dielectric constant tensor:
#      x y z
#    x 1.759530 0.000000 0.000000 
#    y 0.000000 1.690200 0.000000 
#    z 0.000000 0.000000 1.673500 
# 
# From -- ./inp_files/30046.got.cif
#   From: 2010.05.17/outbox.cif.g08.bks.cpg/sg68_16_cif.got.tgz:30046.got - 2010.06.03 18:57:09.
