data_PCOD9507180
_publ_section_title
;
Structure prediction by ZEFSAII (Michael W. Deem and Ramdas Pophale) SiO2 
 PCOD9507180
Probable space group: C C C A
;
_chemical_formula_sum "Si O2"
_cell_formula_units_Z 64
_cell_length_a 12.631475
_cell_length_b 11.511209
_cell_length_c 19.609590
_cell_angle_alpha 90.000000
_cell_angle_beta 90.000000
_cell_angle_gamma 90.000000
_cell_volume 2851.303975
_symmetry_space_group_name_H-M "C C C A"
_symmetry_group_IT_number 68
_space_group.IT_coordinate_system_code '2'
_symmetry_cell_setting 'orthorhombic'
loop_
_space_group_symop_operation_xyz
x,y,z
-x,1/2-y,z
x,1/2-y,1/2-z
-x,y,1/2-z
-x,-y,-z
x,1/2+y,-z
-x,1/2+y,1/2+z
x,-y,1/2+z
1/2+x,1/2+y,z
1/2-x,-y,z
1/2+x,-y,1/2-z
1/2-x,1/2+y,1/2-z
1/2-x,1/2-y,-z
1/2+x,y,-z
1/2-x,y,1/2+z
1/2+x,1/2-y,1/2+z
loop_
_atom_site_type_symbol
_atom_site_label
_atom_site_fract_x
_atom_site_fract_y
_atom_site_fract_z
Si Si1 0.725461 0.360583 0.619922
Si Si2 0.000000 0.050887 0.750000
Si Si3 0.589691 0.847301 0.980372
Si Si4 0.677205 0.750000 0.750000
Si Si5 0.500420 0.436956 0.894641
O O1 0.750000 0.500000 0.634495
O O2 0.799764 0.324759 0.556870
O O3 0.753858 0.279005 0.683584
O O4 0.602047 0.354200 0.603026
O O5 0.899785 0.137879 0.747909
O O6 0.013955 0.971792 0.816561
O O7 0.500000 0.750000 0.975793
O O8 0.539553 0.949016 0.934114
O O9 0.595144 0.891103 0.058314
#
# Coordination Sequence:
#
# PCOD9507180 Si02
#       5
#    16   8  16   8  16
#     4  10  20  39  63  95 131 159 220 273 319 384
#     4  11  20  38  67  94 124 175 226 264 321 396
#     4  10  20  40  64  89 123 178 209 263 326 384
#     4  11  20  36  70  93 122 176 220 265 324 399
#     4  10  22  39  64  91 135 165 213 279 322 378
#
# _framework density 22.445871
#
# number of rings (size 3 to 8) (size 9 to 14) (size 15 to 20)
#    0.000    1.750    5.000    1.500    0.000    1.000 
#    4.500    5.000    5.500    0.000    0.000    0.000 
#    0.000    0.000    0.000    0.000    0.000    0.000 
#
# Total GULP energy -178686.393177 kJ/mol
# GULP energy per Si atom -5583.949787 kJ/mol
# Density = 2.239478 g / cm^3
# Si number density = 22.445871 Si / 1000 Ang^3
#
#
#
# Elastic Constant Matrix: (Units=GPa)
#
#
# Indices 1 2 3 4 5 6 
#
# 1 75.1468 13.5701 64.8436 0.0000 0.0000 0.0000
# 2 13.5701 61.1197 64.4690 0.0000 0.0000 0.0000
# 3 64.8436 64.4690 231.4406 0.0000 0.0000 0.0000
# 4 0.0000 0.0000 0.0000 61.0589 0.0000 0.0000
# 5 0.0000 0.0000 0.0000 0.0000 14.0559 0.0000
# 6 0.0000 0.0000 0.0000 0.0000 0.0000 -6.5507
#
#
#
# Elastic Compliance Matrix: (Units=1/GPa)
#
#
# Indices 1 2 3 4 5 6 
#
# 1 0.017695 0.001842 -0.005471 0.000000 0.000000 0.000000
# 2 0.001842 0.023361 -0.007023 0.000000 0.000000 0.000000
# 3 -0.005471 -0.007023 0.007810 0.000000 0.000000 0.000000
# 4 0.000000 0.000000 0.000000 0.016378 0.000000 0.000000
# 5 0.000000 0.000000 0.000000 0.000000 0.071144 0.000000
# 6 0.000000 0.000000 0.000000 0.000000 0.000000 -0.152656
#
#
# Mechanical properties :
#
#
# Convention : Reuss Voigt Hill
#
# Bulk Modulus (GPa) = 36.28264 72.60805 54.44535
# Shear Modulus (GPa) = 351.54020 28.70113 190.12067
#
# Velocity S-wave (km/s) = 12.52824 3.57975 9.21334
# Velocity P-wave (km/s) = 15.01584 7.03594 11.72561
#
# Compressibility (1/GPa) = 0.02756139
#
# Stress axis : x y z
#
# Youngs Moduli (GPa) = 56.51170 42.80725 128.04240
#
# Poissons Ratio (x) = -0.07884 0.70050
# Poissons Ratio (y) = -0.10409 0.89927
# Poissons Ratio (z) = 0.30917 0.30065
#
# Static dielectric constant tensor:
#      x y z
#    x 1.840970 0.000000 0.000000 
#    y 0.000000 1.899460 0.000000 
#    z 0.000000 0.000000 1.845790 
# 
# From -- ./inp_files/30507.got.cif
#   From: 2010.05.17/outbox.cif.g08.bks.cpg/sg68_16_cif.got.tgz:30507.got - 2010.06.03 18:57:09.
