data_PCOD9507555
_publ_section_title
;
Structure prediction by ZEFSAII (Michael W. Deem and Ramdas Pophale) SiO2 
 PCOD9507555
Probable space group: C C C A
;
_chemical_formula_sum "Si O2"
_cell_formula_units_Z 80
_cell_length_a 13.652226
_cell_length_b 25.824689
_cell_length_c 10.804877
_cell_angle_alpha 90.000000
_cell_angle_beta 90.000000
_cell_angle_gamma 90.000000
_cell_volume 3809.415956
_symmetry_space_group_name_H-M "C C C A"
_symmetry_group_IT_number 68
_space_group.IT_coordinate_system_code '2'
_symmetry_cell_setting 'orthorhombic'
loop_
_space_group_symop_operation_xyz
x,y,z
-x,1/2-y,z
x,1/2-y,1/2-z
-x,y,1/2-z
-x,-y,-z
x,1/2+y,-z
-x,1/2+y,1/2+z
x,-y,1/2+z
1/2+x,1/2+y,z
1/2-x,-y,z
1/2+x,-y,1/2-z
1/2-x,1/2+y,1/2-z
1/2-x,1/2-y,-z
1/2+x,y,-z
1/2-x,y,1/2+z
1/2+x,1/2-y,1/2+z
loop_
_atom_site_type_symbol
_atom_site_label
_atom_site_fract_x
_atom_site_fract_y
_atom_site_fract_z
Si Si1 0.690489 0.053466 0.066120
Si Si2 0.329980 0.750341 0.109193
Si Si3 0.729249 0.939622 0.823941
Si Si4 0.013167 0.586545 0.386230
Si Si5 0.000050 0.335099 0.389007
O O1 0.732384 0.083880 0.186028
O O2 0.576287 0.046260 0.097871
O O3 0.750000 0.000000 0.053277
O O4 0.701966 0.080541 0.933166
O O5 0.287802 0.750000 0.250000
O O6 0.404528 0.701808 0.100983
O O7 0.403337 0.799377 0.098994
O O8 0.250000 0.750000 0.000000
O O9 0.620623 0.936567 0.879241
O O10 0.750000 0.000000 0.801369
O O11 0.005163 0.624920 0.499838
O O12 0.000000 0.611818 0.250000
O O13 0.000000 0.358126 0.250000
#
# Coordination Sequence:
#
# PCOD9507555 Si02
#       5
#    16  16  16  16  16
#     4   9  19  35  53  74 102 138 181 227 275 326
#     4   9  19  37  60  84 112 147 183 219 266 328
#     4   9  19  35  53  74 102 138 181 227 275 326
#     4  10  21  36  54  79 111 144 183 232 278 324
#     4   9  20  38  57  81 113 147 183 222 270 328
#
# _framework density 21.000595000000001
#
# number of rings (size 3 to 8) (size 9 to 14) (size 15 to 20)
#    0.000    2.800    0.000    1.200    0.000    8.000 
#    0.000   12.000    0.000    0.000    0.000    0.000 
#    0.000    0.000    0.000    0.000    0.000    0.000 
#
# Total GULP energy -222892.820403 kJ/mol
# GULP energy per Si atom -5572.320510 kJ/mol
# Density = 2.095280 g / cm^3
# Si number density = 21.000595 Si / 1000 Ang^3
#
#
#
# Elastic Constant Matrix: (Units=GPa)
#
#
# Indices 1 2 3 4 5 6 
#
# 1 60.5949 14.6337 38.0756 0.0000 0.0000 0.0000
# 2 14.6337 47.9487 30.2661 0.0000 0.0000 0.0000
# 3 38.0756 30.2661 173.0018 0.0000 0.0000 0.0000
# 4 0.0000 0.0000 0.0000 22.8821 0.0000 0.0000
# 5 0.0000 0.0000 0.0000 0.0000 39.2061 0.0000
# 6 0.0000 0.0000 0.0000 0.0000 0.0000 7.5218
#
#
#
# Elastic Compliance Matrix: (Units=1/GPa)
#
#
# Indices 1 2 3 4 5 6 
#
# 1 0.019714 -0.003685 -0.003694 0.000000 0.000000 0.000000
# 2 -0.003685 0.024133 -0.003411 0.000000 0.000000 0.000000
# 3 -0.003694 -0.003411 0.007190 0.000000 0.000000 0.000000
# 4 0.000000 0.000000 0.000000 0.043702 0.000000 0.000000
# 5 0.000000 0.000000 0.000000 0.000000 0.025506 0.000000
# 6 0.000000 0.000000 0.000000 0.000000 0.000000 0.132948
#
#
# Mechanical properties :
#
#
# Convention : Reuss Voigt Hill
#
# Bulk Modulus (GPa) = 33.94728 49.72181 41.83454
# Shear Modulus (GPa) = 17.56895 27.16000 22.36447
#
# Velocity S-wave (km/s) = 2.89553 3.60014 3.26689
# Velocity P-wave (km/s) = 5.23247 6.40384 5.84756
#
# Compressibility (1/GPa) = 0.02945744
#
# Stress axis : x y z
#
# Youngs Moduli (GPa) = 50.72471 41.43645 139.08016
#
# Poissons Ratio (x) = 0.15269 0.51379
# Poissons Ratio (y) = 0.18691 0.47441
# Poissons Ratio (z) = 0.18739 0.14134
#
# Static dielectric constant tensor:
#      x y z
#    x 1.770880 0.000000 0.000000 
#    y 0.000000 1.749320 0.000000 
#    z 0.000000 0.000000 1.859800 
# 
# From -- ./inp_files/11943.got.cif
#   From: 2010.05.17/outbox.cif.g08.bks.cpg/sg68_6_cif.got.tgz:11943.got - 2010.06.03 18:57:09.
