data_PCOD9507086
_publ_section_title
;
Structure prediction by ZEFSAII (Michael W. Deem and Ramdas Pophale) SiO2 
 PCOD9507086
Probable space group: C C C A
;
_chemical_formula_sum "Si O2"
_cell_formula_units_Z 72
_cell_length_a 14.034282
_cell_length_b 27.526162
_cell_length_c 8.672952
_cell_angle_alpha 90.000000
_cell_angle_beta 90.000000
_cell_angle_gamma 90.000000
_cell_volume 3350.447392
_symmetry_space_group_name_H-M "C C C A"
_symmetry_group_IT_number 68
_space_group.IT_coordinate_system_code '2'
_symmetry_cell_setting 'orthorhombic'
loop_
_space_group_symop_operation_xyz
x,y,z
-x,1/2-y,z
x,1/2-y,1/2-z
-x,y,1/2-z
-x,-y,-z
x,1/2+y,-z
-x,1/2+y,1/2+z
x,-y,1/2+z
1/2+x,1/2+y,z
1/2-x,-y,z
1/2+x,-y,1/2-z
1/2-x,1/2+y,1/2-z
1/2-x,1/2-y,-z
1/2+x,y,-z
1/2-x,y,1/2+z
1/2+x,1/2-y,1/2+z
loop_
_atom_site_type_symbol
_atom_site_label
_atom_site_fract_x
_atom_site_fract_y
_atom_site_fract_z
Si Si1 0.846777 0.934196 0.545683
Si Si2 0.295077 0.344761 0.065701
Si Si3 0.649508 0.204093 0.366649
Si Si4 0.750000 0.500000 0.205400
Si Si5 0.001509 0.147303 0.430216
O O1 0.772161 0.890473 0.553552
O O2 0.817871 0.966049 0.398439
O O3 0.946675 0.905107 0.548615
O O4 0.821343 0.968141 0.690280
O O5 0.320984 0.336452 0.242636
O O6 0.235626 0.300293 0.990489
O O7 0.392848 0.353487 0.979395
O O8 0.636486 0.250000 0.250000
O O9 0.557297 0.186730 0.463199
O O10 0.000000 0.160674 0.250000
#
# Coordination Sequence:
#
# PCOD9507086 Si02
#       5
#    16  16  16   8  16
#     4  10  21  40  61  91 127 169 217 267 325 386
#     4  11  22  41  66  91 129 175 212 265 331 386
#     4  11  24  43  67  98 131 169 218 267 317 383
#     4  10  20  38  64  88 126 170 216 274 324 378
#     4  11  23  41  65  94 130 173 218 266 324 389
#
# _framework density 21.489668000000002
#
# number of rings (size 3 to 8) (size 9 to 14) (size 15 to 20)
#    0.000    1.333    0.000    8.000    0.000    1.778 
#    0.000   13.333    0.000    1.333    0.000    0.000 
#    0.000    0.000    0.000    0.000    0.000    0.000 
#
# Total GULP energy -201071.411284 kJ/mol
# GULP energy per Si atom -5585.316980 kJ/mol
# Density = 2.144076 g / cm^3
# Si number density = 21.489668 Si / 1000 Ang^3
#
#
#
# Elastic Constant Matrix: (Units=GPa)
#
#
# Indices 1 2 3 4 5 6 
#
# 1 967.0207 297.7225 647.1914 0.0000 0.0000 0.0000
# 2 297.7225 214.9826 233.3146 0.0000 0.0000 0.0000
# 3 647.1914 233.3146 575.2865 0.0000 0.0000 0.0000
# 4 0.0000 0.0000 0.0000 262.3356 0.0000 0.0000
# 5 0.0000 0.0000 0.0000 0.0000 38.3926 0.0000
# 6 0.0000 0.0000 0.0000 0.0000 0.0000 10.1198
#
#
#
# Elastic Compliance Matrix: (Units=1/GPa)
#
#
# Indices 1 2 3 4 5 6 
#
# 1 0.004374 -0.001281 -0.004401 0.000000 0.000000 0.000000
# 2 -0.001281 0.008684 -0.002081 0.000000 0.000000 0.000000
# 3 -0.004401 -0.002081 0.007534 0.000000 0.000000 0.000000
# 4 0.000000 0.000000 0.000000 0.003812 0.000000 0.000000
# 5 0.000000 0.000000 0.000000 0.000000 0.026047 0.000000
# 6 0.000000 0.000000 0.000000 0.000000 0.000000 0.098816
#
#
# Mechanical properties :
#
#
# Convention : Reuss Voigt Hill
#
# Bulk Modulus (GPa) = 197.42016 457.08298 327.25157
# Shear Modulus (GPa) = 30.03352 100.77369 65.40360
#
# Velocity S-wave (km/s) = 3.74248 6.85535 5.52277
# Velocity P-wave (km/s) = 10.52339 16.60788 13.90258
#
# Compressibility (1/GPa) = 0.00506534
#
# Stress axis : x y z
#
# Youngs Moduli (GPa) = 228.61564 115.15979 132.73817
#
# Poissons Ratio (x) = 0.14751 0.58423
# Poissons Ratio (y) = 0.29284 0.27619
# Poissons Ratio (z) = 1.00622 0.23961
#
# Static dielectric constant tensor:
#      x y z
#    x 1.783110 0.000000 0.000000 
#    y 0.000000 1.841180 0.000000 
#    z 0.000000 0.000000 1.898370 
# 
# From -- ./inp_files/5232.got.cif
#   From: 2010.05.17/outbox.cif.g08.bks.cpg/sg68_3_cif.got.tgz:5232.got - 2010.06.03 18:57:09.
