data_PCOD9507277
_publ_section_title
;
Structure prediction by ZEFSAII (Michael W. Deem and Ramdas Pophale) SiO2 
 PCOD9507277
Probable space group: C C C A
;
_chemical_formula_sum "Si O2"
_cell_formula_units_Z 80
_cell_length_a 14.254351
_cell_length_b 11.207020
_cell_length_c 25.663720
_cell_angle_alpha 90.000000
_cell_angle_beta 90.000000
_cell_angle_gamma 90.000000
_cell_volume 4099.748390
_symmetry_space_group_name_H-M "C C C A"
_symmetry_group_IT_number 68
_space_group.IT_coordinate_system_code '2'
_symmetry_cell_setting 'orthorhombic'
loop_
_space_group_symop_operation_xyz
x,y,z
-x,1/2-y,z
x,1/2-y,1/2-z
-x,y,1/2-z
-x,-y,-z
x,1/2+y,-z
-x,1/2+y,1/2+z
x,-y,1/2+z
1/2+x,1/2+y,z
1/2-x,-y,z
1/2+x,-y,1/2-z
1/2-x,1/2+y,1/2-z
1/2-x,1/2-y,-z
1/2+x,y,-z
1/2-x,y,1/2+z
1/2+x,1/2-y,1/2+z
loop_
_atom_site_type_symbol
_atom_site_label
_atom_site_fract_x
_atom_site_fract_y
_atom_site_fract_z
Si Si1 0.984183 0.892399 0.853387
Si Si2 0.797915 0.131030 0.779015
Si Si3 0.500000 0.957847 0.750000
Si Si4 0.284087 0.834021 0.109533
Si Si5 0.160613 0.064228 0.415300
Si Si6 0.250000 0.000000 0.516447
O O1 0.877208 0.904582 0.871578
O O2 0.000000 0.750000 0.849035
O O3 0.057783 0.950770 0.892920
O O4 0.005511 0.956057 0.799538
O O5 0.757188 0.250000 0.750000
O O6 0.904831 0.115803 0.759739
O O7 0.784608 0.158259 0.840750
O O8 0.750000 0.000000 0.768778
O O9 0.314796 0.701817 0.093953
O O10 0.249831 0.890763 0.055951
O O11 0.250000 0.000000 0.388268
O O12 0.166504 0.018246 0.474747
#
# Coordination Sequence:
#
# PCOD9507277 Si02
#       6
#    16  16   8  16  16   8
#     4  10  22  38  63  96 130 174 229 274 335 415
#     4  12  28  44  68 100 136 181 222 276 340 409
#     4  12  24  42  64 100 133 176 219 286 333 400
#     4  11  21  43  64  90 133 174 220 274 345 408
#     4   9  23  37  63  96 122 172 223 284 326 406
#     4  10  20  40  64  92 124 172 220 282 350 390
#
# _framework density 19.513392
#
# number of rings (size 3 to 8) (size 9 to 14) (size 15 to 20)
#    0.600    0.800    3.000    1.200    8.400    0.800 
#    0.000    0.000    0.000    0.000    0.000    0.000 
#    0.000    0.000    0.000    0.000    0.000    0.000 
#
# Total GULP energy -222795.270188 kJ/mol
# GULP energy per Si atom -5569.881755 kJ/mol
# Density = 1.946898 g / cm^3
# Si number density = 19.513392 Si / 1000 Ang^3
#
#
#
# Elastic Constant Matrix: (Units=GPa)
#
#
# Indices 1 2 3 4 5 6 
#
# 1 50.4512 -3.6904 11.2037 0.0000 0.0000 0.0000
# 2 -3.6904 55.9764 24.7951 0.0000 0.0000 0.0000
# 3 11.2037 24.7951 115.7606 0.0000 0.0000 0.0000
# 4 0.0000 0.0000 0.0000 233.0873 0.0000 0.0000
# 5 0.0000 0.0000 0.0000 0.0000 78.2936 0.0000
# 6 0.0000 0.0000 0.0000 0.0000 0.0000 28.7029
#
#
#
# Elastic Compliance Matrix: (Units=1/GPa)
#
#
# Indices 1 2 3 4 5 6 
#
# 1 0.020561 0.002472 -0.002519 0.000000 0.000000 0.000000
# 2 0.002472 0.020034 -0.004530 0.000000 0.000000 0.000000
# 3 -0.002519 -0.004530 0.009853 0.000000 0.000000 0.000000
# 4 0.000000 0.000000 0.000000 0.004290 0.000000 0.000000
# 5 0.000000 0.000000 0.000000 0.000000 0.012772 0.000000
# 6 0.000000 0.000000 0.000000 0.000000 0.000000 0.034840
#
#
# Mechanical properties :
#
#
# Convention : Reuss Voigt Hill
#
# Bulk Modulus (GPa) = 24.21779 31.86723 28.04251
# Shear Modulus (GPa) = 39.91334 80.67543 60.29439
#
# Velocity S-wave (km/s) = 4.52755 6.43688 5.56472
# Velocity P-wave (km/s) = 6.30630 8.46232 7.46259
#
# Compressibility (1/GPa) = 0.04129195
#
# Stress axis : x y z
#
# Youngs Moduli (GPa) = 48.63486 49.91417 101.49471
#
# Poissons Ratio (x) = -0.12336 0.25570
# Poissons Ratio (y) = -0.12020 0.45981
# Poissons Ratio (z) = 0.12253 0.22613
#
# Static dielectric constant tensor:
#      x y z
#    x 1.716220 0.000000 0.000000 
#    y 0.000000 1.748840 0.000000 
#    z 0.000000 0.000000 1.665280 
# 
# From -- ./inp_files/45239.got.cif
#   From: 2010.05.17/outbox.cif.g08.bks.cpg/sg68_23_cif.got.tgz:45239.got - 2010.06.03 18:57:09.
