data_PCOD9507875
_publ_section_title
;
Structure prediction by ZEFSAII (Michael W. Deem and Ramdas Pophale) SiO2 
 PCOD9507875
Probable space group: C C C A
;
_chemical_formula_sum "Si O2"
_cell_formula_units_Z 64
_cell_length_a 12.563487
_cell_length_b 15.648054
_cell_length_c 13.889178
_cell_angle_alpha 90.000000
_cell_angle_beta 90.000000
_cell_angle_gamma 90.000000
_cell_volume 2730.530768
_symmetry_space_group_name_H-M "C C C A"
_symmetry_group_IT_number 68
_space_group.IT_coordinate_system_code '2'
_symmetry_cell_setting 'orthorhombic'
loop_
_space_group_symop_operation_xyz
x,y,z
-x,1/2-y,z
x,1/2-y,1/2-z
-x,y,1/2-z
-x,-y,-z
x,1/2+y,-z
-x,1/2+y,1/2+z
x,-y,1/2+z
1/2+x,1/2+y,z
1/2-x,-y,z
1/2+x,-y,1/2-z
1/2-x,1/2+y,1/2-z
1/2-x,1/2-y,-z
1/2+x,y,-z
1/2-x,y,1/2+z
1/2+x,1/2-y,1/2+z
loop_
_atom_site_type_symbol
_atom_site_label
_atom_site_fract_x
_atom_site_fract_y
_atom_site_fract_z
Si Si1 0.340204 0.250000 0.250000
Si Si2 0.127573 0.600047 0.998066
Si Si3 0.502238 0.979156 0.146951
Si Si4 0.713825 0.404030 0.846038
Si Si5 0.500000 0.250000 0.081773
O O1 0.271006 0.329108 0.211527
O O2 0.412088 0.217530 0.159839
O O3 0.059628 0.541423 0.072301
O O4 0.244555 0.603580 0.043067
O O5 0.067434 0.688665 0.012883
O O6 0.106943 0.557308 0.895459
O O7 0.500000 0.022949 0.250000
O O8 0.587174 0.902427 0.158727
O O9 0.750000 0.500000 0.814506
#
# Coordination Sequence:
#
# PCOD9507875 Si02
#       5
#     8  16  16  16   8
#     4   9  18  34  59  92 116 156 205 252 293 366
#     4   9  20  39  58  87 118 154 206 249 301 366
#     4  10  21  39  60  85 122 161 199 250 307 365
#     4   9  19  37  59  89 124 154 206 250 303 369
#     4   9  18  34  63  84 116 156 203 252 299 350
#
# _framework density 23.438666999999999
#
# number of rings (size 3 to 8) (size 9 to 14) (size 15 to 20)
#    0.000    2.750    0.000    0.000   10.500    0.000 
#    9.000    8.750    0.000    0.000    0.000    0.000 
#    0.000    0.000    0.000    0.000    0.000    0.000 
#
# Total GULP energy -178508.061632 kJ/mol
# GULP energy per Si atom -5578.376926 kJ/mol
# Density = 2.338532 g / cm^3
# Si number density = 23.438667 Si / 1000 Ang^3
#
#
#
# Elastic Constant Matrix: (Units=GPa)
#
#
# Indices 1 2 3 4 5 6 
#
# 1 43.2955 7.0694 -15.7409 0.0000 0.0000 0.0000
# 2 7.0694 65.8265 6.2509 0.0000 0.0000 0.0000
# 3 -15.7409 6.2509 65.2984 0.0000 0.0000 0.0000
# 4 0.0000 0.0000 0.0000 14.3720 0.0000 0.0000
# 5 0.0000 0.0000 0.0000 0.0000 7.9888 0.0000
# 6 0.0000 0.0000 0.0000 0.0000 0.0000 -71.5139
#
#
#
# Elastic Compliance Matrix: (Units=1/GPa)
#
#
# Indices 1 2 3 4 5 6 
#
# 1 0.026060 -0.003426 0.006610 0.000000 0.000000 0.000000
# 2 -0.003426 0.015781 -0.002337 0.000000 0.000000 0.000000
# 3 0.006610 -0.002337 0.017131 0.000000 0.000000 0.000000
# 4 0.000000 0.000000 0.000000 0.069580 0.000000 0.000000
# 5 0.000000 0.000000 0.000000 0.000000 0.125175 0.000000
# 6 0.000000 0.000000 0.000000 0.000000 0.000000 -0.013983
#
#
# Mechanical properties :
#
#
# Convention : Reuss Voigt Hill
#
# Bulk Modulus (GPa) = 16.48361 18.84213 17.66287
# Shear Modulus (GPa) = 19.35943 1.95879 10.65911
#
# Velocity S-wave (km/s) = 2.87707 0.91516 2.13484
# Velocity P-wave (km/s) = 4.25260 3.02871 3.69173
#
# Compressibility (1/GPa) = 0.06066634
#
# Stress axis : x y z
#
# Youngs Moduli (GPa) = 38.37341 63.36612 58.37232
#
# Poissons Ratio (x) = 0.21711 -0.38584
# Poissons Ratio (y) = 0.13148 0.13640
# Poissons Ratio (z) = -0.25365 0.14807
#
# Static dielectric constant tensor:
#      x y z
#    x 1.934520 0.000000 0.000000 
#    y 0.000000 1.917600 0.000000 
#    z 0.000000 0.000000 1.962980 
# 
# From -- ./inp_files/12844.got.cif
#   From: 2010.05.17/outbox.cif.g08.bks.cpg/sg68_7_cif.got.tgz:12844.got - 2010.06.03 18:57:09.
