data_PCOD9507973
_publ_section_title
;
Structure prediction by ZEFSAII (Michael W. Deem and Ramdas Pophale) SiO2 
 PCOD9507973
Probable space group: C C C A
;
_chemical_formula_sum "Si O2"
_cell_formula_units_Z 44
_cell_length_a 15.237155
_cell_length_b 5.127998
_cell_length_c 22.987045
_cell_angle_alpha 90.000000
_cell_angle_beta 90.000000
_cell_angle_gamma 90.000000
_cell_volume 1796.118055
_symmetry_space_group_name_H-M "C C C A"
_symmetry_group_IT_number 68
_space_group.IT_coordinate_system_code '2'
_symmetry_cell_setting 'orthorhombic'
loop_
_space_group_symop_operation_xyz
x,y,z
-x,1/2-y,z
x,1/2-y,1/2-z
-x,y,1/2-z
-x,-y,-z
x,1/2+y,-z
-x,1/2+y,1/2+z
x,-y,1/2+z
1/2+x,1/2+y,z
1/2-x,-y,z
1/2+x,-y,1/2-z
1/2-x,1/2+y,1/2-z
1/2-x,1/2-y,-z
1/2+x,y,-z
1/2-x,y,1/2+z
1/2+x,1/2-y,1/2+z
loop_
_atom_site_type_symbol
_atom_site_label
_atom_site_fract_x
_atom_site_fract_y
_atom_site_fract_z
Si Si1 0.583051 0.434317 0.353411
Si Si2 0.500000 0.750000 0.250000
Si Si3 0.896688 0.265870 0.471448
Si Si4 0.250000 0.000000 0.789456
O O1 0.500000 0.250000 0.370887
O O2 0.550398 0.567628 0.294515
O O3 0.602650 0.632645 0.405841
O O4 0.679007 0.352687 0.331311
O O5 0.858168 0.485070 0.514204
O O6 0.000000 0.250000 0.486547
O O7 0.219616 0.750000 0.750000
#
# Coordination Sequence:
#
# PCOD9507973 Si02
#       4
#    16   4  16   8
#     4  12  25  44  71 103 141 189 235 297 358 429
#     4  12  22  40  68  98 130 180 242 278 346 436
#     4  10  21  39  68 101 134 182 238 291 352 423
#     4  12  28  48  68 106 152 186 238 300 360 434
#
# _framework density 24.497278000000001
#
# number of rings (size 3 to 8) (size 9 to 14) (size 15 to 20)
#    0.000    0.727    3.636    6.000    0.000    0.000 
#    0.000    1.818    0.000    0.000    0.000    2.545 
#    0.000    0.000    0.000    0.000    0.000    0.000 
#
# Total GULP energy -122600.908916 kJ/mol
# GULP energy per Si atom -5572.768587 kJ/mol
# Density = 2.444152 g / cm^3
# Si number density = 24.497278 Si / 1000 Ang^3
#
#
#
# Elastic Constant Matrix: (Units=GPa)
#
#
# Indices 1 2 3 4 5 6 
#
# 1 83.8171 -3.7114 15.6665 0.0000 0.0000 0.0000
# 2 -3.7114 52.5871 30.7569 0.0000 0.0000 0.0000
# 3 15.6665 30.7569 165.4622 0.0000 0.0000 0.0000
# 4 0.0000 0.0000 0.0000 63.9039 0.0000 0.0000
# 5 0.0000 0.0000 0.0000 0.0000 -0.8192 0.0000
# 6 0.0000 0.0000 0.0000 0.0000 0.0000 1.4441
#
#
#
# Elastic Compliance Matrix: (Units=1/GPa)
#
#
# Indices 1 2 3 4 5 6 
#
# 1 0.012285 0.001736 -0.001486 0.000000 0.000000 0.000000
# 2 0.001736 0.021581 -0.004176 0.000000 0.000000 0.000000
# 3 -0.001486 -0.004176 0.006961 0.000000 0.000000 0.000000
# 4 0.000000 0.000000 0.000000 0.015649 0.000000 0.000000
# 5 0.000000 0.000000 0.000000 0.000000 -1.220658 0.000000
# 6 0.000000 0.000000 0.000000 0.000000 0.000000 0.692473
#
#
# Mechanical properties :
#
#
# Convention : Reuss Voigt Hill
#
# Bulk Modulus (GPa) = 30.32559 43.03228 36.67893
# Shear Modulus (GPa) = -11.04078 30.18271 9.57097
#
# Velocity S-wave (km/s) = -2.12526 3.51391 1.97875
# Velocity P-wave (km/s) = 2.52661 5.83676 4.49730
#
# Compressibility (1/GPa) = 0.03297546
#
# Stress axis : x y z
#
# Youngs Moduli (GPa) = 81.39776 46.33701 143.66541
#
# Poissons Ratio (x) = -0.08045 0.21348
# Poissons Ratio (y) = -0.14132 0.59994
# Poissons Ratio (z) = 0.12095 0.19350
#
# Static dielectric constant tensor:
#      x y z
#    x 2.096040 0.000000 0.000000 
#    y 0.000000 2.052580 0.000000 
#    z 0.000000 0.000000 1.915820 
# 
# From -- ./inp_files/41856.got.cif
#   From: 2010.05.17/outbox.cif.g08.bks.cpg/sg68_21_cif.got.tgz:41856.got - 2010.06.03 18:57:09.
