data_PCOD9507943
_publ_section_title
;
Structure prediction by ZEFSAII (Michael W. Deem and Ramdas Pophale) SiO2 
 PCOD9507943
Probable space group: C C C A
;
_chemical_formula_sum "Si O2"
_cell_formula_units_Z 96
_cell_length_a 12.830632
_cell_length_b 16.086207
_cell_length_c 22.947678
_cell_angle_alpha 90.000000
_cell_angle_beta 90.000000
_cell_angle_gamma 90.000000
_cell_volume 4736.313591
_symmetry_space_group_name_H-M "C C C A"
_symmetry_group_IT_number 68
_space_group.IT_coordinate_system_code '2'
_symmetry_cell_setting 'orthorhombic'
loop_
_space_group_symop_operation_xyz
x,y,z
-x,1/2-y,z
x,1/2-y,1/2-z
-x,y,1/2-z
-x,-y,-z
x,1/2+y,-z
-x,1/2+y,1/2+z
x,-y,1/2+z
1/2+x,1/2+y,z
1/2-x,-y,z
1/2+x,-y,1/2-z
1/2-x,1/2+y,1/2-z
1/2-x,1/2-y,-z
1/2+x,y,-z
1/2-x,y,1/2+z
1/2+x,1/2-y,1/2+z
loop_
_atom_site_type_symbol
_atom_site_label
_atom_site_fract_x
_atom_site_fract_y
_atom_site_fract_z
Si Si1 0.272043 0.630596 0.747541
Si Si2 0.190896 0.631134 0.562169
Si Si3 0.088529 0.458466 0.588081
Si Si4 0.232211 0.240884 0.650535
Si Si5 0.902514 0.507493 0.780605
Si Si6 0.920987 0.174752 0.946674
O O1 0.310894 0.695736 0.699522
O O2 0.224566 0.670426 0.805772
O O3 0.186423 0.575988 0.714123
O O4 0.362126 0.565440 0.762036
O O5 0.110741 0.554537 0.571488
O O6 0.307000 0.592204 0.569552
O O7 0.190877 0.706814 0.608771
O O8 0.162255 0.663820 0.498359
O O9 0.078871 0.464825 0.657716
O O10 0.989864 0.408463 0.563079
O O11 0.142511 0.201930 0.610719
O O12 0.000000 0.547935 0.750000
O O13 0.000000 0.250000 0.960842
#
# Coordination Sequence:
#
# PCOD9507943 Si02
#       6
#    16  16  16  16  16  16
#     4  10  21  39  65  95 129 168 213 261 340 393
#     4  11  22  43  66  85 133 177 207 268 338 383
#     4  11  22  43  64  94 127 171 216 266 329 393
#     4  11  21  40  65  91 129 170 211 271 323 389
#     4  11  20  40  66  94 128 170 210 266 327 400
#     4  12  24  39  65  99 126 167 229 270 318 389
#
# _framework density 20.268927000000001
#
# number of rings (size 3 to 8) (size 9 to 14) (size 15 to 20)
#    0.000    1.000    5.000    3.000    0.000    0.000 
#    3.000   10.000    0.000    0.000    0.000    0.000 
#    0.000    0.000    0.000    0.000    0.000    0.000 
#
# Total GULP energy -267576.682904 kJ/mol
# GULP energy per Si atom -5574.514227 kJ/mol
# Density = 2.022279 g / cm^3
# Si number density = 20.268927 Si / 1000 Ang^3
#
#
#
# Elastic Constant Matrix: (Units=GPa)
#
#
# Indices 1 2 3 4 5 6 
#
# 1 54.6220 17.8112 43.6753 0.0000 0.0000 0.0000
# 2 17.8112 66.1073 45.3791 0.0000 0.0000 0.0000
# 3 43.6753 45.3791 124.3165 0.0000 0.0000 0.0000
# 4 0.0000 0.0000 0.0000 15.7491 0.0000 0.0000
# 5 0.0000 0.0000 0.0000 0.0000 29.8325 0.0000
# 6 0.0000 0.0000 0.0000 0.0000 0.0000 28.2403
#
#
#
# Elastic Compliance Matrix: (Units=1/GPa)
#
#
# Indices 1 2 3 4 5 6 
#
# 1 0.025505 -0.000962 -0.008610 0.000000 0.000000 0.000000
# 2 -0.000962 0.020221 -0.007043 0.000000 0.000000 0.000000
# 3 -0.008610 -0.007043 0.013640 0.000000 0.000000 0.000000
# 4 0.000000 0.000000 0.000000 0.063496 0.000000 0.000000
# 5 0.000000 0.000000 0.000000 0.000000 0.033521 0.000000
# 6 0.000000 0.000000 0.000000 0.000000 0.000000 0.035410
#
#
# Mechanical properties :
#
#
# Convention : Reuss Voigt Hill
#
# Bulk Modulus (GPa) = 38.26047 50.97521 44.61784
# Shear Modulus (GPa) = 21.39181 23.97638 22.68409
#
# Velocity S-wave (km/s) = 3.25221 3.44308 3.34901
# Velocity P-wave (km/s) = 5.74630 6.40394 6.08401
#
# Compressibility (1/GPa) = 0.02613663
#
# Stress axis : x y z
#
# Youngs Moduli (GPa) = 39.20738 49.45371 73.31532
#
# Poissons Ratio (x) = 0.04757 0.63121
# Poissons Ratio (y) = 0.03771 0.51638
# Poissons Ratio (z) = 0.33756 0.34832
#
# Static dielectric constant tensor:
#      x y z
#    x 1.722940 0.000000 0.000000 
#    y 0.000000 1.788000 0.000000 
#    z 0.000000 0.000000 1.712030 
# 
# From -- ./inp_files/44423.got.cif
#   From: 2010.05.17/outbox.cif.g08.bks.cpg/sg68_23_cif.got.tgz:44423.got - 2010.06.03 18:57:09.
