data_PCOD9507098
_publ_section_title
;
Structure prediction by ZEFSAII (Michael W. Deem and Ramdas Pophale) SiO2 
 PCOD9507098
Probable space group: C C C A
;
_chemical_formula_sum "Si O2"
_cell_formula_units_Z 64
_cell_length_a 9.250692
_cell_length_b 27.504826
_cell_length_c 11.356617
_cell_angle_alpha 90.000000
_cell_angle_beta 90.000000
_cell_angle_gamma 90.000000
_cell_volume 2889.562569
_symmetry_space_group_name_H-M "C C C A"
_symmetry_group_IT_number 68
_space_group.IT_coordinate_system_code '2'
_symmetry_cell_setting 'orthorhombic'
loop_
_space_group_symop_operation_xyz
x,y,z
-x,1/2-y,z
x,1/2-y,1/2-z
-x,y,1/2-z
-x,-y,-z
x,1/2+y,-z
-x,1/2+y,1/2+z
x,-y,1/2+z
1/2+x,1/2+y,z
1/2-x,-y,z
1/2+x,-y,1/2-z
1/2-x,1/2+y,1/2-z
1/2-x,1/2-y,-z
1/2+x,y,-z
1/2-x,y,1/2+z
1/2+x,1/2-y,1/2+z
loop_
_atom_site_type_symbol
_atom_site_label
_atom_site_fract_x
_atom_site_fract_y
_atom_site_fract_z
Si Si1 0.705425 0.444454 0.660600
Si Si2 0.332386 0.232366 0.382980
Si Si3 0.372976 0.373579 0.169011
Si Si4 0.959810 0.056516 0.007657
O O1 0.750000 0.500000 0.699168
O O2 0.767207 0.406222 0.752854
O O3 0.539076 0.433409 0.630367
O O4 0.795435 0.439035 0.536353
O O5 0.500000 0.250000 0.393989
O O6 0.285356 0.250000 0.250000
O O7 0.250000 0.250000 0.500000
O O8 0.308335 0.174034 0.388363
O O9 0.500000 0.351835 0.250000
O O10 0.458228 0.409813 0.084672
O O11 0.000000 0.000000 0.000000
#
# Coordination Sequence:
#
# PCOD9507098 Si02
#       4
#    16  16  16  16
#     4   9  19  35  57  88 125 165 211 260 325 400
#     4  11  25  46  73 102 138 182 234 296 355 413
#     4  10  20  38  65  89 128 175 217 270 346 399
#     4   9  19  34  56  85 120 161 207 257 320 391
#
# _framework density 22.148681
#
# number of rings (size 3 to 8) (size 9 to 14) (size 15 to 20)
#    0.000    2.250    2.500    0.000    3.500    3.500 
#    0.000    3.750    5.500    0.000    0.000    0.000 
#    0.000    0.000    0.000    0.000    0.000    0.000 
#
# Total GULP energy -178273.907463 kJ/mol
# GULP energy per Si atom -5571.059608 kJ/mol
# Density = 2.209827 g / cm^3
# Si number density = 22.148681 Si / 1000 Ang^3
#
#
#
# Elastic Constant Matrix: (Units=GPa)
#
#
# Indices 1 2 3 4 5 6 
#
# 1 59.7716 43.8408 53.5485 0.0000 0.0000 0.0000
# 2 43.8408 133.6534 46.9681 0.0000 0.0000 0.0000
# 3 53.5485 46.9681 132.7166 0.0000 0.0000 0.0000
# 4 0.0000 0.0000 0.0000 51.8688 0.0000 0.0000
# 5 0.0000 0.0000 0.0000 0.0000 34.2454 0.0000
# 6 0.0000 0.0000 0.0000 0.0000 0.0000 23.6291
#
#
#
# Elastic Compliance Matrix: (Units=1/GPa)
#
#
# Indices 1 2 3 4 5 6 
#
# 1 0.030421 -0.006470 -0.009985 0.000000 0.000000 0.000000
# 2 -0.006470 0.009921 -0.000900 0.000000 0.000000 0.000000
# 3 -0.009985 -0.000900 0.011882 0.000000 0.000000 0.000000
# 4 0.000000 0.000000 0.000000 0.019279 0.000000 0.000000
# 5 0.000000 0.000000 0.000000 0.000000 0.029201 0.000000
# 6 0.000000 0.000000 0.000000 0.000000 0.000000 0.042321
#
#
# Mechanical properties :
#
#
# Convention : Reuss Voigt Hill
#
# Bulk Modulus (GPa) = 57.09745 68.31738 62.70741
# Shear Modulus (GPa) = 27.23722 34.06763 30.65242
#
# Velocity S-wave (km/s) = 3.51058 3.92616 3.72417
# Velocity P-wave (km/s) = 6.50133 7.17390 6.84588
#
# Compressibility (1/GPa) = 0.01751392
#
# Stress axis : x y z
#
# Youngs Moduli (GPa) = 32.87220 100.79927 84.16032
#
# Poissons Ratio (x) = 0.65216 0.84030
# Poissons Ratio (y) = 0.21268 0.07578
# Poissons Ratio (z) = 0.32821 0.09076
#
# Static dielectric constant tensor:
#      x y z
#    x 2.306660 0.000000 0.000000 
#    y 0.000000 1.787890 0.000000 
#    z 0.000000 0.000000 1.862620 
# 
# From -- ./inp_files/10749.got.cif
#   From: 2010.05.17/outbox.cif.g08.bks.cpg/sg68_6_cif.got.tgz:10749.got - 2010.06.03 18:57:09.
