data_PCOD9507301
_publ_section_title
;
Structure prediction by ZEFSAII (Michael W. Deem and Ramdas Pophale) SiO2 
 PCOD9507301
Probable space group: C C C A
;
_chemical_formula_sum "Si O2"
_cell_formula_units_Z 80
_cell_length_a 16.089084
_cell_length_b 26.166908
_cell_length_c 8.543807
_cell_angle_alpha 90.000000
_cell_angle_beta 90.000000
_cell_angle_gamma 90.000000
_cell_volume 3596.956253
_symmetry_space_group_name_H-M "C C C A"
_symmetry_group_IT_number 68
_space_group.IT_coordinate_system_code '2'
_symmetry_cell_setting 'orthorhombic'
loop_
_space_group_symop_operation_xyz
x,y,z
-x,1/2-y,z
x,1/2-y,1/2-z
-x,y,1/2-z
-x,-y,-z
x,1/2+y,-z
-x,1/2+y,1/2+z
x,-y,1/2+z
1/2+x,1/2+y,z
1/2-x,-y,z
1/2+x,-y,1/2-z
1/2-x,1/2+y,1/2-z
1/2-x,1/2-y,-z
1/2+x,y,-z
1/2-x,y,1/2+z
1/2+x,1/2-y,1/2+z
loop_
_atom_site_type_symbol
_atom_site_label
_atom_site_fract_x
_atom_site_fract_y
_atom_site_fract_z
Si Si1 0.707806 0.080641 0.988087
Si Si2 0.406794 0.731827 0.067875
Si Si3 0.196888 0.848568 0.787753
Si Si4 0.000000 0.484564 0.250000
Si Si5 0.307142 0.250000 0.250000
Si Si6 0.620310 0.026139 0.496224
O O1 0.667998 0.117366 0.858089
O O2 0.798419 0.056701 0.944312
O O3 0.652157 0.031820 0.028713
O O4 0.735051 0.116401 0.128328
O O5 0.500000 0.750000 0.030357
O O6 0.398116 0.750000 0.250000
O O7 0.374006 0.673348 0.095040
O O8 0.355732 0.752496 0.916653
O O9 0.249911 0.799779 0.733595
O O10 0.947238 0.520342 0.136858
O O11 0.930949 0.454966 0.352555
#
# Coordination Sequence:
#
# PCOD9507301 Si02
#       6
#    16  16  16   8   8  16
#     4  11  23  40  70 101 131 182 241 279 346 427
#     4  11  24  44  68  99 139 181 227 296 365 414
#     4  12  22  41  70  96 129 181 237 289 346 425
#     4  10  20  40  66  88 144 186 212 284 364 396
#     4  12  23  46  71  96 138 190 234 306 347 418
#     4  10  22  42  65  99 140 182 228 290 341 419
#
# _framework density 22.241026999999999
#
# number of rings (size 3 to 8) (size 9 to 14) (size 15 to 20)
#    0.000    1.000    3.000    4.500    0.000    3.200 
#    0.000   20.000    0.000    0.000    0.000    0.000 
#    0.000    0.000    0.000    0.000    0.000    0.000 
#
# Total GULP energy -222840.560960 kJ/mol
# GULP energy per Si atom -5571.014024 kJ/mol
# Density = 2.219041 g / cm^3
# Si number density = 22.241027 Si / 1000 Ang^3
#
#
#
# Elastic Constant Matrix: (Units=GPa)
#
#
# Indices 1 2 3 4 5 6 
#
# 1 119.8873 32.5754 26.4814 0.0000 0.0000 0.0000
# 2 32.5754 96.8418 16.3656 0.0000 0.0000 0.0000
# 3 26.4814 16.3656 78.7958 0.0000 0.0000 0.0000
# 4 0.0000 0.0000 0.0000 24.7704 0.0000 0.0000
# 5 0.0000 0.0000 0.0000 0.0000 29.8776 0.0000
# 6 0.0000 0.0000 0.0000 0.0000 0.0000 17.7806
#
#
#
# Elastic Compliance Matrix: (Units=1/GPa)
#
#
# Indices 1 2 3 4 5 6 
#
# 1 0.009695 -0.002809 -0.002675 0.000000 0.000000 0.000000
# 2 -0.002809 0.011516 -0.001448 0.000000 0.000000 0.000000
# 3 -0.002675 -0.001448 0.013891 0.000000 0.000000 0.000000
# 4 0.000000 0.000000 0.000000 0.040371 0.000000 0.000000
# 5 0.000000 0.000000 0.000000 0.000000 0.033470 0.000000
# 6 0.000000 0.000000 0.000000 0.000000 0.000000 0.056241
#
#
# Mechanical properties :
#
#
# Convention : Reuss Voigt Hill
#
# Bulk Modulus (GPa) = 47.08511 49.59662 48.34086
# Shear Modulus (GPa) = 26.86345 29.15921 28.01133
#
# Velocity S-wave (km/s) = 3.47916 3.62478 3.55271
# Velocity P-wave (km/s) = 6.11193 6.31401 6.21379
#
# Compressibility (1/GPa) = 0.02123814
#
# Stress axis : x y z
#
# Youngs Moduli (GPa) = 103.14239 86.83769 71.99071
#
# Poissons Ratio (x) = 0.24395 0.19257
# Poissons Ratio (y) = 0.28975 0.10422
# Poissons Ratio (z) = 0.27590 0.12571
#
# Static dielectric constant tensor:
#      x y z
#    x 1.839230 0.000000 0.000000 
#    y 0.000000 1.917960 0.000000 
#    z 0.000000 0.000000 1.884430 
# 
# From -- ./inp_files/6280.got.cif
#   From: 2010.05.17/outbox.cif.g08.bks.cpg/sg68_4_cif.got.tgz:6280.got - 2010.06.03 18:57:09.
