data_PCOD9507320
_publ_section_title
;
Structure prediction by ZEFSAII (Michael W. Deem and Ramdas Pophale) SiO2 
 PCOD9507320
Probable space group: C C C A
;
_chemical_formula_sum "Si O2"
_cell_formula_units_Z 56
_cell_length_a 25.431253
_cell_length_b 7.785875
_cell_length_c 12.704102
_cell_angle_alpha 90.000000
_cell_angle_beta 90.000000
_cell_angle_gamma 90.000000
_cell_volume 2515.470088
_symmetry_space_group_name_H-M "C C C A"
_symmetry_group_IT_number 68
_space_group.IT_coordinate_system_code '2'
_symmetry_cell_setting 'orthorhombic'
loop_
_space_group_symop_operation_xyz
x,y,z
-x,1/2-y,z
x,1/2-y,1/2-z
-x,y,1/2-z
-x,-y,-z
x,1/2+y,-z
-x,1/2+y,1/2+z
x,-y,1/2+z
1/2+x,1/2+y,z
1/2-x,-y,z
1/2+x,-y,1/2-z
1/2-x,1/2+y,1/2-z
1/2-x,1/2-y,-z
1/2+x,y,-z
1/2-x,y,1/2+z
1/2+x,1/2-y,1/2+z
loop_
_atom_site_type_symbol
_atom_site_label
_atom_site_fract_x
_atom_site_fract_y
_atom_site_fract_z
Si Si1 0.945410 0.154431 0.577391
Si Si2 0.362449 0.250000 0.250000
Si Si3 0.697309 0.418925 0.819533
Si Si4 0.089993 0.797173 0.872089
O O1 0.900553 0.241595 0.649063
O O2 0.927316 0.158456 0.456266
O O3 0.000000 0.250000 0.591540
O O4 0.948120 0.958468 0.612919
O O5 0.328154 0.424071 0.247689
O O6 0.709995 0.250000 0.750000
O O7 0.750000 0.500000 0.867860
O O8 0.649755 0.360183 0.894858
O O9 0.089429 0.750000 0.750000
#
# Coordination Sequence:
#
# PCOD9507320 Si02
#       4
#    16   8  16  16
#     4  11  24  45  70  97 141 181 227 279 347 395
#     4  10  23  42  66  98 134 180 229 284 330 418
#     4  10  20  40  68  95 136 177 226 281 346 402
#     4  10  25  44  69 103 137 174 235 279 338 415
#
# _framework density 22.262241
#
# number of rings (size 3 to 8) (size 9 to 14) (size 15 to 20)
#    0.000    1.714    1.429    1.286   12.000    0.571 
#   10.286    7.143    0.000    0.000    0.000    0.000 
#    0.000    0.000    0.000    0.000    0.000    0.000 
#
# Total GULP energy -156498.576323 kJ/mol
# GULP energy per Si atom -5589.234869 kJ/mol
# Density = 2.221157 g / cm^3
# Si number density = 22.262241 Si / 1000 Ang^3
#
#
#
# Elastic Constant Matrix: (Units=GPa)
#
#
# Indices 1 2 3 4 5 6 
#
# 1 115.2276 41.1589 34.9703 0.0000 0.0000 0.0000
# 2 41.1589 105.0430 28.0977 0.0000 0.0000 0.0000
# 3 34.9703 28.0977 103.4214 0.0000 0.0000 0.0000
# 4 0.0000 0.0000 0.0000 21.6589 0.0000 0.0000
# 5 0.0000 0.0000 0.0000 0.0000 24.5182 0.0000
# 6 0.0000 0.0000 0.0000 0.0000 0.0000 40.6686
#
#
#
# Elastic Compliance Matrix: (Units=1/GPa)
#
#
# Indices 1 2 3 4 5 6 
#
# 1 0.010740 -0.003490 -0.002683 0.000000 0.000000 0.000000
# 2 -0.003490 0.011400 -0.001917 0.000000 0.000000 0.000000
# 3 -0.002683 -0.001917 0.011097 0.000000 0.000000 0.000000
# 4 0.000000 0.000000 0.000000 0.046170 0.000000 0.000000
# 5 0.000000 0.000000 0.000000 0.000000 0.040786 0.000000
# 6 0.000000 0.000000 0.000000 0.000000 0.000000 0.024589
#
#
# Mechanical properties :
#
#
# Convention : Reuss Voigt Hill
#
# Bulk Modulus (GPa) = 58.63027 59.12731 58.87879
# Shear Modulus (GPa) = 30.00321 32.00016 31.00168
#
# Velocity S-wave (km/s) = 3.67511 3.79544 3.73576
# Velocity P-wave (km/s) = 6.66348 6.76937 6.71663
#
# Compressibility (1/GPa) = 0.01705604
#
# Stress axis : x y z
#
# Youngs Moduli (GPa) = 93.11406 87.71684 90.11224
#
# Poissons Ratio (x) = 0.30616 0.24178
# Poissons Ratio (y) = 0.32500 0.17275
# Poissons Ratio (z) = 0.24984 0.16816
#
# Static dielectric constant tensor:
#      x y z
#    x 1.853630 0.000000 0.000000 
#    y 0.000000 1.856700 0.000000 
#    z 0.000000 0.000000 1.777740 
# 
# From -- ./inp_files/10581.got.cif
#   From: 2010.05.17/outbox.cif.g08.bks.cpg/sg68_6_cif.got.tgz:10581.got - 2010.06.03 18:57:09.
