data_PCOD9507927
_publ_section_title
;
Structure prediction by ZEFSAII (Michael W. Deem and Ramdas Pophale) SiO2 
 PCOD9507927
Probable space group: C C C A
;
_chemical_formula_sum "Si O2"
_cell_formula_units_Z 96
_cell_length_a 19.421889
_cell_length_b 19.857737
_cell_length_c 12.793693
_cell_angle_alpha 90.000000
_cell_angle_beta 90.000000
_cell_angle_gamma 90.000000
_cell_volume 4934.204526
_symmetry_space_group_name_H-M "C C C A"
_symmetry_group_IT_number 68
_space_group.IT_coordinate_system_code '2'
_symmetry_cell_setting 'orthorhombic'
loop_
_space_group_symop_operation_xyz
x,y,z
-x,1/2-y,z
x,1/2-y,1/2-z
-x,y,1/2-z
-x,-y,-z
x,1/2+y,-z
-x,1/2+y,1/2+z
x,-y,1/2+z
1/2+x,1/2+y,z
1/2-x,-y,z
1/2+x,-y,1/2-z
1/2-x,1/2+y,1/2-z
1/2-x,1/2-y,-z
1/2+x,y,-z
1/2-x,y,1/2+z
1/2+x,1/2-y,1/2+z
loop_
_atom_site_type_symbol
_atom_site_label
_atom_site_fract_x
_atom_site_fract_y
_atom_site_fract_z
Si Si1 0.689769 0.339718 0.941049
Si Si2 0.112298 0.824304 0.721695
Si Si3 0.528701 0.954252 0.347383
Si Si4 0.416078 0.434611 0.478091
Si Si5 0.156814 0.194132 0.986212
Si Si6 0.515081 0.174673 0.126107
O O1 0.659847 0.337573 0.822931
O O2 0.771627 0.333879 0.942453
O O3 0.657751 0.405468 0.994119
O O4 0.662016 0.275802 0.009292
O O5 0.081787 0.750000 0.750000
O O6 0.060666 0.885548 0.697519
O O7 0.150914 0.820315 0.610370
O O8 0.500000 0.996327 0.250000
O O9 0.462207 0.944365 0.419023
O O10 0.583174 0.996788 0.413078
O O11 0.462089 0.379044 0.419107
O O12 0.092598 0.165147 0.919425
O O13 0.500000 0.250000 0.085744
O O14 0.500000 0.175220 0.250000
#
# Coordination Sequence:
#
# PCOD9507927 Si02
#       6
#    16  16  16  16  16  16
#     4  10  21  39  63  95 129 171 213 274 345 392
#     4  10  21  39  65  95 122 166 224 284 332 384
#     4  11  22  38  63  91 129 167 224 273 331 397
#     4  11  22  38  62  89 131 169 212 272 330 399
#     4  10  21  39  63  95 135 163 219 283 332 390
#     4  11  22  37  60  92 127 174 218 263 324 394
#
# _framework density 19.456022999999998
#
# number of rings (size 3 to 8) (size 9 to 14) (size 15 to 20)
#    0.000    1.500    5.000    0.500    0.000    1.667 
#    6.000    0.833    0.000    2.000    0.000    0.000 
#    0.000    0.000    0.000    0.000    0.000    0.000 
#
# Total GULP energy -267465.419586 kJ/mol
# GULP energy per Si atom -5572.196241 kJ/mol
# Density = 1.941174 g / cm^3
# Si number density = 19.456023 Si / 1000 Ang^3
#
#
#
# Elastic Constant Matrix: (Units=GPa)
#
#
# Indices 1 2 3 4 5 6 
#
# 1 106.6088 40.6353 48.6394 0.0000 0.0000 0.0000
# 2 40.6353 85.3468 42.1374 0.0000 0.0000 0.0000
# 3 48.6394 42.1374 106.0477 0.0000 0.0000 0.0000
# 4 0.0000 0.0000 0.0000 16.0464 0.0000 0.0000
# 5 0.0000 0.0000 0.0000 0.0000 15.0380 0.0000
# 6 0.0000 0.0000 0.0000 0.0000 0.0000 25.3081
#
#
#
# Elastic Compliance Matrix: (Units=1/GPa)
#
#
# Indices 1 2 3 4 5 6 
#
# 1 0.012873 -0.003998 -0.004316 0.000000 0.000000 0.000000
# 2 -0.003998 0.015818 -0.004451 0.000000 0.000000 0.000000
# 3 -0.004316 -0.004451 0.013178 0.000000 0.000000 0.000000
# 4 0.000000 0.000000 0.000000 0.062319 0.000000 0.000000
# 5 0.000000 0.000000 0.000000 0.000000 0.066498 0.000000
# 6 0.000000 0.000000 0.000000 0.000000 0.000000 0.039513
#
#
# Mechanical properties :
#
#
# Convention : Reuss Voigt Hill
#
# Bulk Modulus (GPa) = 61.20539 62.31416 61.75978
# Shear Modulus (GPa) = 20.73167 22.38459 21.55813
#
# Velocity S-wave (km/s) = 3.26784 3.39561 3.33234
# Velocity P-wave (km/s) = 6.76498 6.88994 6.82775
#
# Compressibility (1/GPa) = 0.01633843
#
# Stress axis : x y z
#
# Youngs Moduli (GPa) = 77.68148 63.21751 75.88508
#
# Poissons Ratio (x) = 0.25277 0.32749
# Poissons Ratio (y) = 0.31061 0.33780
# Poissons Ratio (z) = 0.33524 0.28141
#
# Static dielectric constant tensor:
#      x y z
#    x 1.674010 0.000000 0.000000 
#    y 0.000000 1.730460 0.000000 
#    z 0.000000 0.000000 1.671980 
# 
# From -- ./inp_files/15558.got.cif
#   From: 2010.05.17/outbox.cif.g08.bks.cpg/sg68_8_cif.got.tgz:15558.got - 2010.06.03 18:57:09.
