data_PCOD9507395
_publ_section_title
;
Structure prediction by ZEFSAII (Michael W. Deem and Ramdas Pophale) SiO2 
 PCOD9507395
Probable space group: C C C A
;
_chemical_formula_sum "Si O2"
_cell_formula_units_Z 112
_cell_length_a 26.599755
_cell_length_b 13.343903
_cell_length_c 14.322315
_cell_angle_alpha 90.000000
_cell_angle_beta 90.000000
_cell_angle_gamma 90.000000
_cell_volume 5083.627660
_symmetry_space_group_name_H-M "C C C A"
_symmetry_group_IT_number 68
_space_group.IT_coordinate_system_code '2'
_symmetry_cell_setting 'orthorhombic'
loop_
_space_group_symop_operation_xyz
x,y,z
-x,1/2-y,z
x,1/2-y,1/2-z
-x,y,1/2-z
-x,-y,-z
x,1/2+y,-z
-x,1/2+y,1/2+z
x,-y,1/2+z
1/2+x,1/2+y,z
1/2-x,-y,z
1/2+x,-y,1/2-z
1/2-x,1/2+y,1/2-z
1/2-x,1/2-y,-z
1/2+x,y,-z
1/2-x,y,1/2+z
1/2+x,1/2-y,1/2+z
loop_
_atom_site_type_symbol
_atom_site_label
_atom_site_fract_x
_atom_site_fract_y
_atom_site_fract_z
Si Si1 0.674059 0.542656 0.781515
Si Si2 0.555098 0.767129 0.995548
Si Si3 0.584258 0.952477 0.580159
Si Si4 0.123493 0.012935 0.112457
Si Si5 0.359410 0.757245 0.136885
Si Si6 0.020702 0.937784 0.149188
Si Si7 0.233603 0.840250 0.822555
O O1 0.621204 0.538493 0.833468
O O2 0.659533 0.558937 0.672777
O O3 0.710173 0.619718 0.835744
O O4 0.703462 0.437399 0.785219
O O5 0.500000 0.750000 0.038624
O O6 0.574844 0.664074 0.947743
O O7 0.543377 0.847178 0.913226
O O8 0.594850 0.787790 0.077429
O O9 0.612419 0.006613 0.495292
O O10 0.527538 0.988174 0.599785
O O11 0.144070 0.125075 0.116998
O O12 0.067540 0.012269 0.157061
O O13 0.366391 0.750000 0.250000
O O14 0.307018 0.704921 0.106193
O O15 0.000000 0.903565 0.250000
O O16 0.239104 0.750000 0.750000
#
# Coordination Sequence:
#
# PCOD9507395 Si02
#       7
#    16  16  16  16  16  16  16
#     4  11  22  42  69  95 124 180 223 269 355 395
#     4   9  22  40  60  98 135 177 225 271 333 413
#     4  10  23  42  63  98 141 170 226 276 331 412
#     4  11  22  40  65  99 130 176 219 271 336 410
#     4  10  20  42  66  88 132 177 212 285 341 384
#     4  11  22  40  66  98 142 184 218 277 343 412
#     4  10  22  42  69  90 128 171 220 290 335 397
#
# _framework density 22.031511999999999
#
# number of rings (size 3 to 8) (size 9 to 14) (size 15 to 20)
#    0.000    1.714    4.286    0.429    2.000    4.000 
#    7.714    5.714    0.000    0.000    0.000    0.000 
#    0.000    0.000    0.000    0.000    0.000    0.000 
#
# Total GULP energy -312104.454433 kJ/mol
# GULP energy per Si atom -5573.293829 kJ/mol
# Density = 2.198137 g / cm^3
# Si number density = 22.031512 Si / 1000 Ang^3
#
#
#
# Elastic Constant Matrix: (Units=GPa)
#
#
# Indices 1 2 3 4 5 6 
#
# 1 122.0278 32.3826 25.4695 0.0000 0.0000 0.0000
# 2 32.3826 58.2605 8.9639 0.0000 0.0000 0.0000
# 3 25.4695 8.9639 87.5660 0.0000 0.0000 0.0000
# 4 0.0000 0.0000 0.0000 17.6289 0.0000 0.0000
# 5 0.0000 0.0000 0.0000 0.0000 -32.5367 0.0000
# 6 0.0000 0.0000 0.0000 0.0000 0.0000 -7.8430
#
#
#
# Elastic Compliance Matrix: (Units=1/GPa)
#
#
# Indices 1 2 3 4 5 6 
#
# 1 0.010085 -0.005237 -0.002397 0.000000 0.000000 0.000000
# 2 -0.005237 0.020158 -0.000540 0.000000 0.000000 0.000000
# 3 -0.002397 -0.000540 0.012173 0.000000 0.000000 0.000000
# 4 0.000000 0.000000 0.000000 0.056725 0.000000 0.000000
# 5 0.000000 0.000000 0.000000 0.000000 -0.030735 0.000000
# 6 0.000000 0.000000 0.000000 0.000000 0.000000 -0.127502
#
#
# Mechanical properties :
#
#
# Convention : Reuss Voigt Hill
#
# Bulk Modulus (GPa) = 38.36266 44.60959 41.48613
# Shear Modulus (GPa) = -146.80646 8.85239 -68.97703
#
# Velocity S-wave (km/s) = -8.17187 2.00668 -5.60146
# Velocity P-wave (km/s) = 8.46102 5.06568 4.79206
#
# Compressibility (1/GPa) = 0.02606701
#
# Stress axis : x y z
#
# Youngs Moduli (GPa) = 99.15880 49.60793 82.15214
#
# Poissons Ratio (x) = 0.25978 0.19694
# Poissons Ratio (y) = 0.51925 0.04440
# Poissons Ratio (z) = 0.23771 0.02681
#
# Static dielectric constant tensor:
#      x y z
#    x 1.849780 0.000000 0.000000 
#    y 0.000000 1.859230 0.000000 
#    z 0.000000 0.000000 1.850460 
# 
# From -- ./inp_files/26061.got.cif
#   From: 2010.05.17/outbox.cif.g08.bks.cpg/sg68_14_cif.got.tgz:26061.got - 2010.06.03 18:57:09.
