data_PCOD9507605
_publ_section_title
;
Structure prediction by ZEFSAII (Michael W. Deem and Ramdas Pophale) SiO2 
 PCOD9507605
Probable space group: C C C A
;
_chemical_formula_sum "Si O2"
_cell_formula_units_Z 88
_cell_length_a 16.760324
_cell_length_b 15.765195
_cell_length_c 15.969863
_cell_angle_alpha 90.000000
_cell_angle_beta 90.000000
_cell_angle_gamma 90.000000
_cell_volume 4219.713325
_symmetry_space_group_name_H-M "C C C A"
_symmetry_group_IT_number 68
_space_group.IT_coordinate_system_code '2'
_symmetry_cell_setting 'orthorhombic'
loop_
_space_group_symop_operation_xyz
x,y,z
-x,1/2-y,z
x,1/2-y,1/2-z
-x,y,1/2-z
-x,-y,-z
x,1/2+y,-z
-x,1/2+y,1/2+z
x,-y,1/2+z
1/2+x,1/2+y,z
1/2-x,-y,z
1/2+x,-y,1/2-z
1/2-x,1/2+y,1/2-z
1/2-x,1/2-y,-z
1/2+x,y,-z
1/2-x,y,1/2+z
1/2+x,1/2-y,1/2+z
loop_
_atom_site_type_symbol
_atom_site_label
_atom_site_fract_x
_atom_site_fract_y
_atom_site_fract_z
Si Si1 0.664130 0.741887 0.351667
Si Si2 0.949627 0.893833 0.832025
Si Si3 0.500000 0.250000 0.058452
Si Si4 0.421460 0.901181 0.453988
Si Si5 0.156983 0.224495 0.654007
Si Si6 0.159499 0.529196 0.388385
O O1 0.666218 0.750000 0.250000
O O2 0.596818 0.813064 0.371342
O O3 0.636318 0.654341 0.393740
O O4 0.754534 0.756999 0.382200
O O5 0.000000 0.868231 0.750000
O O6 0.013461 0.939236 0.892198
O O7 0.881685 0.964005 0.824313
O O8 0.419407 0.268181 0.111142
O O9 0.528715 0.331087 0.006127
O O10 0.378396 0.963694 0.518225
O O11 0.157304 0.250000 0.750000
O O12 0.149449 0.123585 0.646040
O O13 0.250000 0.500000 0.396706
#
# Coordination Sequence:
#
# PCOD9507605 Si02
#       6
#    16  16   8  16  16  16
#     4  11  21  40  70  98 122 166 224 274 315 378
#     4  12  23  41  68  97 131 168 220 273 325 380
#     4  10  21  36  63  94 128 164 210 266 317 388
#     4  11  23  39  65 100 129 170 216 268 326 388
#     4  10  23  42  68  92 126 174 224 264 318 391
#     4  11  25  44  61  94 141 174 210 270 339 392
#
# _framework density 20.854496999999999
#
# number of rings (size 3 to 8) (size 9 to 14) (size 15 to 20)
#    0.000    1.091    5.455    0.818    0.000    7.273 
#    0.000    4.545    0.000    0.000    0.000    0.000 
#    0.000    0.000    0.000    0.000    0.000    0.000 
#
# Total GULP energy -245337.620013 kJ/mol
# GULP energy per Si atom -5575.855000 kJ/mol
# Density = 2.080703 g / cm^3
# Si number density = 20.854497 Si / 1000 Ang^3
#
#
#
# Elastic Constant Matrix: (Units=GPa)
#
#
# Indices 1 2 3 4 5 6 
#
# 1 144.9555 10.1920 28.1444 0.0000 0.0000 0.0000
# 2 10.1920 21.3349 -11.9807 0.0000 0.0000 0.0000
# 3 28.1444 -11.9807 48.5040 0.0000 0.0000 0.0000
# 4 0.0000 0.0000 0.0000 25.7670 0.0000 0.0000
# 5 0.0000 0.0000 0.0000 0.0000 110.4128 0.0000
# 6 0.0000 0.0000 0.0000 0.0000 0.0000 15.3493
#
#
#
# Elastic Compliance Matrix: (Units=1/GPa)
#
#
# Indices 1 2 3 4 5 6 
#
# 1 0.008879 -0.008283 -0.007198 0.000000 0.000000 0.000000
# 2 -0.008283 0.062148 0.020157 0.000000 0.000000 0.000000
# 3 -0.007198 0.020157 0.029772 0.000000 0.000000 0.000000
# 4 0.000000 0.000000 0.000000 0.038809 0.000000 0.000000
# 5 0.000000 0.000000 0.000000 0.000000 0.009057 0.000000
# 6 0.000000 0.000000 0.000000 0.000000 0.000000 0.065150
#
#
# Mechanical properties :
#
#
# Convention : Reuss Voigt Hill
#
# Bulk Modulus (GPa) = 9.07846 29.72287 19.40066
# Shear Modulus (GPa) = 20.73143 42.86839 31.79991
#
# Velocity S-wave (km/s) = 3.15635 4.53879 3.90916
# Velocity P-wave (km/s) = 4.20073 6.46149 5.44963
#
# Compressibility (1/GPa) = 0.11015089
#
# Stress axis : x y z
#
# Youngs Moduli (GPa) = 112.63035 16.09061 33.58831
#
# Poissons Ratio (x) = 0.13328 0.24176
# Poissons Ratio (y) = 0.93296 -0.67705
# Poissons Ratio (z) = 0.81069 -0.32434
#
# Static dielectric constant tensor:
#      x y z
#    x 1.792470 0.000000 0.000000 
#    y 0.000000 1.717380 0.000000 
#    z 0.000000 0.000000 1.803900 
# 
# From -- ./inp_files/30909.got.cif
#   From: 2010.05.17/outbox.cif.g08.bks.cpg/sg68_16_cif.got.tgz:30909.got - 2010.06.03 18:57:09.
