data_PCOD9507785
_publ_section_title
;
Structure prediction by ZEFSAII (Michael W. Deem and Ramdas Pophale) SiO2 
 PCOD9507785
Probable space group: C C C A
;
_chemical_formula_sum "Si O2"
_cell_formula_units_Z 88
_cell_length_a 12.030322
_cell_length_b 27.130594
_cell_length_c 13.931472
_cell_angle_alpha 90.000000
_cell_angle_beta 90.000000
_cell_angle_gamma 90.000000
_cell_volume 4547.090107
_symmetry_space_group_name_H-M "C C C A"
_symmetry_group_IT_number 68
_space_group.IT_coordinate_system_code '2'
_symmetry_cell_setting 'orthorhombic'
loop_
_space_group_symop_operation_xyz
x,y,z
-x,1/2-y,z
x,1/2-y,1/2-z
-x,y,1/2-z
-x,-y,-z
x,1/2+y,-z
-x,1/2+y,1/2+z
x,-y,1/2+z
1/2+x,1/2+y,z
1/2-x,-y,z
1/2+x,-y,1/2-z
1/2-x,1/2+y,1/2-z
1/2-x,1/2-y,-z
1/2+x,y,-z
1/2-x,y,1/2+z
1/2+x,1/2-y,1/2+z
loop_
_atom_site_type_symbol
_atom_site_label
_atom_site_fract_x
_atom_site_fract_y
_atom_site_fract_z
Si Si1 0.352462 0.536727 0.039837
Si Si2 0.316893 0.800426 0.014901
Si Si3 0.712919 0.881273 0.631311
Si Si4 0.791854 0.301024 0.703225
Si Si5 0.000000 0.750000 0.402974
Si Si6 0.507287 0.952031 0.633579
O O1 0.250000 0.500000 0.017186
O O2 0.306706 0.577377 0.114869
O O3 0.442819 0.503722 0.095626
O O4 0.402402 0.556211 0.938208
O O5 0.298519 0.814631 0.123678
O O6 0.250000 0.750000 0.000000
O O7 0.263545 0.842396 0.951582
O O8 0.435984 0.788390 0.970691
O O9 0.699252 0.846970 0.725178
O O10 0.597253 0.909413 0.613961
O O11 0.750584 0.250000 0.750000
O O12 0.910199 0.282032 0.658055
O O13 0.500000 0.953660 0.750000
#
# Coordination Sequence:
#
# PCOD9507785 Si02
#       6
#    16  16  16  16   8  16
#     4   9  22  46  62  93 134 154 200 273 317 369
#     4  10  22  38  60  88 131 166 209 264 304 354
#     4  11  23  38  66  97 121 166 214 254 311 372
#     4  11  22  40  62  90 127 173 214 254 307 371
#     4  10  21  38  63  84 130 172 219 260 301 360
#     4  10  23  41  71  93 118 165 212 251 322 379
#
# _framework density 19.353034999999998
#
# number of rings (size 3 to 8) (size 9 to 14) (size 15 to 20)
#    0.000    1.818    3.636    0.273    5.091    3.636 
#    6.545    0.455    0.000    0.000    0.000    0.000 
#    0.000    0.000    0.000    0.000    0.000    0.000 
#
# Total GULP energy -244998.378867 kJ/mol
# GULP energy per Si atom -5568.144974 kJ/mol
# Density = 1.930899 g / cm^3
# Si number density = 19.353035 Si / 1000 Ang^3
#
#
#
# Elastic Constant Matrix: (Units=GPa)
#
#
# Indices 1 2 3 4 5 6 
#
# 1 48.5095 27.8200 42.1887 0.0000 0.0000 0.0000
# 2 27.8200 104.9222 39.1522 0.0000 0.0000 0.0000
# 3 42.1887 39.1522 118.8836 0.0000 0.0000 0.0000
# 4 0.0000 0.0000 0.0000 36.2323 0.0000 0.0000
# 5 0.0000 0.0000 0.0000 0.0000 -14.8723 0.0000
# 6 0.0000 0.0000 0.0000 0.0000 0.0000 18.3771
#
#
#
# Elastic Compliance Matrix: (Units=1/GPa)
#
#
# Indices 1 2 3 4 5 6 
#
# 1 0.031816 -0.004814 -0.009705 0.000000 0.000000 0.000000
# 2 -0.004814 0.011595 -0.002110 0.000000 0.000000 0.000000
# 3 -0.009705 -0.002110 0.012551 0.000000 0.000000 0.000000
# 4 0.000000 0.000000 0.000000 0.027600 0.000000 0.000000
# 5 0.000000 0.000000 0.000000 0.000000 -0.067239 0.000000
# 6 0.000000 0.000000 0.000000 0.000000 0.000000 0.054415
#
#
# Mechanical properties :
#
#
# Convention : Reuss Voigt Hill
#
# Bulk Modulus (GPa) = 44.04852 54.51524 49.28188
# Shear Modulus (GPa) = 44.81723 18.82439 31.82081
#
# Velocity S-wave (km/s) = 4.81747 3.12217 4.05931
# Velocity P-wave (km/s) = 7.33171 6.42085 6.89134
#
# Compressibility (1/GPa) = 0.02270224
#
# Stress axis : x y z
#
# Youngs Moduli (GPa) = 31.43056 86.24565 79.67753
#
# Poissons Ratio (x) = 0.41523 0.77328
# Poissons Ratio (y) = 0.15132 0.16812
# Poissons Ratio (z) = 0.30504 0.18198
#
# Static dielectric constant tensor:
#      x y z
#    x 1.713090 0.000000 0.000000 
#    y 0.000000 1.694220 0.000000 
#    z 0.000000 0.000000 1.731320 
# 
# From -- ./inp_files/21138.got.cif
#   From: 2010.05.17/outbox.cif.g08.bks.cpg/sg68_11_cif.got.tgz:21138.got - 2010.06.03 18:57:09.
