data_PCOD9507323
_publ_section_title
;
Structure prediction by ZEFSAII (Michael W. Deem and Ramdas Pophale) SiO2 
 PCOD9507323
Probable space group: C C C A
;
_chemical_formula_sum "Si O2"
_cell_formula_units_Z 108
_cell_length_a 20.442813
_cell_length_b 19.030675
_cell_length_c 12.270996
_cell_angle_alpha 90.000000
_cell_angle_beta 90.000000
_cell_angle_gamma 90.000000
_cell_volume 4773.914791
_symmetry_space_group_name_H-M "C C C A"
_symmetry_group_IT_number 68
_space_group.IT_coordinate_system_code '2'
_symmetry_cell_setting 'orthorhombic'
loop_
_space_group_symop_operation_xyz
x,y,z
-x,1/2-y,z
x,1/2-y,1/2-z
-x,y,1/2-z
-x,-y,-z
x,1/2+y,-z
-x,1/2+y,1/2+z
x,-y,1/2+z
1/2+x,1/2+y,z
1/2-x,-y,z
1/2+x,-y,1/2-z
1/2-x,1/2+y,1/2-z
1/2-x,1/2-y,-z
1/2+x,y,-z
1/2-x,y,1/2+z
1/2+x,1/2-y,1/2+z
loop_
_atom_site_type_symbol
_atom_site_label
_atom_site_fract_x
_atom_site_fract_y
_atom_site_fract_z
Si Si1 0.113107 0.963180 0.378332
Si Si2 0.000000 0.009282 0.750000
Si Si3 0.772991 0.813801 0.673215
Si Si4 0.500000 0.250000 0.750000
Si Si5 0.592171 0.195623 0.560700
Si Si6 0.214864 0.562625 0.294224
Si Si7 0.591693 0.436490 0.066872
Si Si8 0.619792 0.203893 0.137704
O O1 0.181452 0.968579 0.315159
O O2 0.097998 0.878911 0.364301
O O3 0.064599 0.016099 0.312129
O O4 0.110190 0.993451 0.499543
O O5 0.035295 0.048735 0.652040
O O6 0.791548 0.750000 0.750000
O O7 0.831737 0.820313 0.589205
O O8 0.764292 0.879201 0.754015
O O9 0.699514 0.800256 0.627988
O O10 0.549368 0.211178 0.667016
O O11 0.566152 0.124971 0.507862
O O12 0.591456 0.256074 0.467710
O O13 0.250000 0.500000 0.355755
O O14 0.155385 0.590104 0.367125
O O15 0.606499 0.250000 0.250000
#
# Coordination Sequence:
#
# PCOD9507323 Si02
#       8
#    16   8  16   4  16  16  16  16
#     4  10  22  41  64 101 132 180 228 279 354 416
#     4  10  22  43  63  94 130 176 236 280 344 417
#     4  10  20  40  68  98 133 176 226 284 354 424
#     4  12  32  50  62 104 142 192 238 284 360 426
#     4  12  25  47  67  96 141 184 232 290 352 423
#     4  10  22  40  65 101 138 168 223 287 353 418
#     4  11  24  42  68  96 134 180 232 293 349 419
#     4  10  22  43  74 107 138 177 238 295 360 421
#
# _framework density 22.622942999999999
#
# number of rings (size 3 to 8) (size 9 to 14) (size 15 to 20)
#    0.000    1.481    0.741    5.333    2.074    4.741 
#    5.333    0.000    0.000    0.000    0.000    0.000 
#    0.000    0.000    0.000    0.000    0.000    0.000 
#
# Total GULP energy -301054.168072 kJ/mol
# GULP energy per Si atom -5575.077187 kJ/mol
# Density = 2.257145 g / cm^3
# Si number density = 22.622943 Si / 1000 Ang^3
#
#
#
# Elastic Constant Matrix: (Units=GPa)
#
#
# Indices 1 2 3 4 5 6 
#
# 1 47.5926 -3.0461 24.0739 0.0000 0.0000 0.0000
# 2 -3.0461 69.6389 34.5450 0.0000 0.0000 0.0000
# 3 24.0739 34.5450 125.5370 0.0000 0.0000 0.0000
# 4 0.0000 0.0000 0.0000 4.4470 0.0000 0.0000
# 5 0.0000 0.0000 0.0000 0.0000 -56.6549 0.0000
# 6 0.0000 0.0000 0.0000 0.0000 0.0000 9.0636
#
#
#
# Elastic Compliance Matrix: (Units=1/GPa)
#
#
# Indices 1 2 3 4 5 6 
#
# 1 0.024142 0.003883 -0.005698 0.000000 0.000000 0.000000
# 2 0.003883 0.017254 -0.005493 0.000000 0.000000 0.000000
# 3 -0.005698 -0.005493 0.010570 0.000000 0.000000 0.000000
# 4 0.000000 0.000000 0.000000 0.224871 0.000000 0.000000
# 5 0.000000 0.000000 0.000000 0.000000 -0.017651 0.000000
# 6 0.000000 0.000000 0.000000 0.000000 0.000000 0.110332
#
#
# Mechanical properties :
#
#
# Convention : Reuss Voigt Hill
#
# Bulk Modulus (GPa) = 26.77341 39.32381 33.04861
# Shear Modulus (GPa) = 12.60762 3.85085 8.22924
#
# Velocity S-wave (km/s) = 2.36327 1.30609 1.90931
# Velocity P-wave (km/s) = 4.39398 4.43785 4.41597
#
# Compressibility (1/GPa) = 0.03735049
#
# Stress axis : x y z
#
# Youngs Moduli (GPa) = 41.42079 57.95678 94.60805
#
# Poissons Ratio (x) = -0.22502 0.53909
# Poissons Ratio (y) = -0.16082 0.51964
# Poissons Ratio (z) = 0.23602 0.31833
#
# Static dielectric constant tensor:
#      x y z
#    x 1.881060 0.000000 0.000000 
#    y 0.000000 1.728670 0.000000 
#    z 0.000000 0.000000 1.858410 
# 
# From -- ./inp_files/16593.got.cif
#   From: 2010.05.17/outbox.cif.g08.bks.cpg/sg68_9_cif.got.tgz:16593.got - 2010.06.03 18:57:09.
