data_PCOD9507391
_publ_section_title
;
Structure prediction by ZEFSAII (Michael W. Deem and Ramdas Pophale) SiO2 
 PCOD9507391
Probable space group: C C C A
;
_chemical_formula_sum "Si O2"
_cell_formula_units_Z 120
_cell_length_a 22.800807
_cell_length_b 11.455257
_cell_length_c 20.260513
_cell_angle_alpha 90.000000
_cell_angle_beta 90.000000
_cell_angle_gamma 90.000000
_cell_volume 5291.825237
_symmetry_space_group_name_H-M "C C C A"
_symmetry_group_IT_number 68
_space_group.IT_coordinate_system_code '2'
_symmetry_cell_setting 'orthorhombic'
loop_
_space_group_symop_operation_xyz
x,y,z
-x,1/2-y,z
x,1/2-y,1/2-z
-x,y,1/2-z
-x,-y,-z
x,1/2+y,-z
-x,1/2+y,1/2+z
x,-y,1/2+z
1/2+x,1/2+y,z
1/2-x,-y,z
1/2+x,-y,1/2-z
1/2-x,1/2+y,1/2-z
1/2-x,1/2-y,-z
1/2+x,y,-z
1/2-x,y,1/2+z
1/2+x,1/2-y,1/2+z
loop_
_atom_site_type_symbol
_atom_site_label
_atom_site_fract_x
_atom_site_fract_y
_atom_site_fract_z
Si Si1 0.307574 0.883605 0.907925
Si Si2 0.250000 0.000000 0.523111
Si Si3 0.948923 0.522514 0.630720
Si Si4 0.934082 0.704929 0.533580
Si Si5 0.223051 0.380940 0.736828
Si Si6 0.137983 0.142871 0.556877
Si Si7 0.573664 0.963495 0.593923
Si Si8 0.583478 0.616830 0.757166
O O1 0.271325 0.889418 0.841990
O O2 0.339828 0.759062 0.906734
O O3 0.356472 0.986343 0.908546
O O4 0.271669 0.897262 0.974517
O O5 0.307693 0.947351 0.557353
O O6 0.918700 0.640041 0.602275
O O7 0.916948 0.416659 0.592604
O O8 0.943107 0.479254 0.706405
O O9 0.015045 0.538571 0.602877
O O10 0.888691 0.805926 0.511570
O O11 0.933158 0.611431 0.473023
O O12 0.000000 0.750000 0.534020
O O13 0.245966 0.250000 0.750000
O O14 0.250000 0.500000 0.766495
O O15 0.153810 0.384936 0.753696
O O16 0.571057 0.905482 0.666326
O O17 0.563787 0.750000 0.750000
#
# Coordination Sequence:
#
# PCOD9507391 Si02
#       8
#    16   8  16  16  16  16  16  16
#     4  10  22  39  62  92 127 172 222 281 345 411
#     4  12  24  42  62  90 134 182 228 278 338 412
#     4  12  23  40  65 106 136 173 226 286 351 415
#     4  11  23  39  65 101 139 180 224 280 353 426
#     4  10  20  42  65  91 126 176 232 288 348 414
#     4  11  23  40  63  95 133 176 225 283 346 412
#     4  10  21  38  67  93 133 175 225 279 342 416
#     4  10  22  39  66 100 135 172 225 292 348 409
#
# _framework density 22.676486000000001
#
# number of rings (size 3 to 8) (size 9 to 14) (size 15 to 20)
#    0.000    1.333    2.000    6.000    1.867    0.533 
#    7.200    0.000    0.000    0.800    0.000    0.000 
#    0.000    0.000    0.000    0.000    0.000    0.000 
#
# Total GULP energy -334280.424125 kJ/mol
# GULP energy per Si atom -5571.340402 kJ/mol
# Density = 2.262487 g / cm^3
# Si number density = 22.676486 Si / 1000 Ang^3
#
#
#
# Elastic Constant Matrix: (Units=GPa)
#
#
# Indices 1 2 3 4 5 6 
#
# 1 58.5315 16.0844 0.9798 0.0000 0.0000 0.0000
# 2 16.0844 74.7250 27.2908 0.0000 0.0000 0.0000
# 3 0.9798 27.2908 93.3158 0.0000 0.0000 0.0000
# 4 0.0000 0.0000 0.0000 18.1841 0.0000 0.0000
# 5 0.0000 0.0000 0.0000 0.0000 9.5808 0.0000
# 6 0.0000 0.0000 0.0000 0.0000 0.0000 15.3737
#
#
#
# Elastic Compliance Matrix: (Units=1/GPa)
#
#
# Indices 1 2 3 4 5 6 
#
# 1 0.018254 -0.004321 0.001072 0.000000 0.000000 0.000000
# 2 -0.004321 0.016005 -0.004636 0.000000 0.000000 0.000000
# 3 0.001072 -0.004636 0.012061 0.000000 0.000000 0.000000
# 4 0.000000 0.000000 0.000000 0.054993 0.000000 0.000000
# 5 0.000000 0.000000 0.000000 0.000000 0.104376 0.000000
# 6 0.000000 0.000000 0.000000 0.000000 0.000000 0.065046
#
#
# Mechanical properties :
#
#
# Convention : Reuss Voigt Hill
#
# Bulk Modulus (GPa) = 32.73128 35.03138 33.88133
# Shear Modulus (GPa) = 16.85275 20.77554 18.81414
#
# Velocity S-wave (km/s) = 2.72909 3.03012 2.88354
# Velocity P-wave (km/s) = 4.93923 5.26536 5.10490
#
# Compressibility (1/GPa) = 0.03055182
#
# Stress axis : x y z
#
# Youngs Moduli (GPa) = 54.78190 62.47899 82.91377
#
# Poissons Ratio (x) = 0.26995 -0.08888
# Poissons Ratio (y) = 0.23669 0.38435
# Poissons Ratio (z) = -0.05872 0.28962
#
# Static dielectric constant tensor:
#      x y z
#    x 1.949870 0.000000 0.000000 
#    y 0.000000 1.792000 0.000000 
#    z 0.000000 0.000000 1.876640 
# 
# From -- ./inp_files/40945.got.cif
#   From: 2010.05.17/outbox.cif.g08.bks.cpg/sg68_21_cif.got.tgz:40945.got - 2010.06.03 18:57:09.
