data_PCOD9507636
_publ_section_title
;
Structure prediction by ZEFSAII (Michael W. Deem and Ramdas Pophale) SiO2 
 PCOD9507636
Probable space group: C C C A
;
_chemical_formula_sum "Si O2"
_cell_formula_units_Z 96
_cell_length_a 14.639681
_cell_length_b 15.477644
_cell_length_c 20.156953
_cell_angle_alpha 90.000000
_cell_angle_beta 90.000000
_cell_angle_gamma 90.000000
_cell_volume 4567.319046
_symmetry_space_group_name_H-M "C C C A"
_symmetry_group_IT_number 68
_space_group.IT_coordinate_system_code '2'
_symmetry_cell_setting 'orthorhombic'
loop_
_space_group_symop_operation_xyz
x,y,z
-x,1/2-y,z
x,1/2-y,1/2-z
-x,y,1/2-z
-x,-y,-z
x,1/2+y,-z
-x,1/2+y,1/2+z
x,-y,1/2+z
1/2+x,1/2+y,z
1/2-x,-y,z
1/2+x,-y,1/2-z
1/2-x,1/2+y,1/2-z
1/2-x,1/2-y,-z
1/2+x,y,-z
1/2-x,y,1/2+z
1/2+x,1/2-y,1/2+z
loop_
_atom_site_type_symbol
_atom_site_label
_atom_site_fract_x
_atom_site_fract_y
_atom_site_fract_z
Si Si1 0.771437 0.789717 0.681373
Si Si2 0.230509 0.179629 0.555119
Si Si3 0.072408 0.878714 0.307911
Si Si4 0.468955 0.380797 0.438928
Si Si5 0.119799 0.043776 0.016528
Si Si6 0.149822 0.538485 0.629239
O O1 0.806441 0.750000 0.750000
O O2 0.756887 0.715304 0.627061
O O3 0.671446 0.833062 0.697189
O O4 0.837618 0.861861 0.648338
O O5 0.250000 0.250000 0.500000
O O6 0.122176 0.170999 0.551162
O O7 0.288726 0.093457 0.537536
O O8 0.000000 0.862613 0.250000
O O9 0.024522 0.850259 0.375754
O O10 0.088446 0.981217 0.321471
O O11 0.425176 0.477803 0.431671
O O12 0.541931 0.386573 0.498047
O O13 0.129590 0.988517 0.947489
O O14 0.250000 0.500000 0.639405
#
# Coordination Sequence:
#
# PCOD9507636 Si02
#       6
#    16  16  16  16  16  16
#     4  11  24  39  60  91 128 163 198 254 324 376
#     4  12  23  36  61  93 125 162 203 257 315 367
#     4  10  21  38  61  83 113 161 209 250 295 365
#     4  10  21  37  58  85 115 154 204 254 303 356
#     4  10  21  38  61  87 117 156 209 260 299 359
#     4   9  18  38  60  80 114 159 203 247 300 361
#
# _framework density 21.018896000000002
#
# number of rings (size 3 to 8) (size 9 to 14) (size 15 to 20)
#    0.000    1.667    0.000    6.500    0.000    7.000 
#    0.000    3.333    0.000    6.500    0.000    0.000 
#    0.000    0.000    0.000    0.000    0.000    0.000 
#
# Total GULP energy -267863.437124 kJ/mol
# GULP energy per Si atom -5580.488273 kJ/mol
# Density = 2.097106 g / cm^3
# Si number density = 21.018896 Si / 1000 Ang^3
#
#
#
# Elastic Constant Matrix: (Units=GPa)
#
#
# Indices 1 2 3 4 5 6 
#
# 1 71.1706 21.7525 0.3240 0.0000 0.0000 0.0000
# 2 21.7525 90.6399 35.4911 0.0000 0.0000 0.0000
# 3 0.3240 35.4911 79.4912 0.0000 0.0000 0.0000
# 4 0.0000 0.0000 0.0000 17.9606 0.0000 0.0000
# 5 0.0000 0.0000 0.0000 0.0000 25.2544 0.0000
# 6 0.0000 0.0000 0.0000 0.0000 0.0000 37.8472
#
#
#
# Elastic Compliance Matrix: (Units=1/GPa)
#
#
# Indices 1 2 3 4 5 6 
#
# 1 0.015402 -0.004450 0.001924 0.000000 0.000000 0.000000
# 2 -0.004450 0.014656 -0.006525 0.000000 0.000000 0.000000
# 3 0.001924 -0.006525 0.015486 0.000000 0.000000 0.000000
# 4 0.000000 0.000000 0.000000 0.055678 0.000000 0.000000
# 5 0.000000 0.000000 0.000000 0.000000 0.039597 0.000000
# 6 0.000000 0.000000 0.000000 0.000000 0.000000 0.026422
#
#
# Mechanical properties :
#
#
# Convention : Reuss Voigt Hill
#
# Bulk Modulus (GPa) = 36.44167 39.60410 38.02289
# Shear Modulus (GPa) = 25.70843 28.46137 27.08490
#
# Velocity S-wave (km/s) = 3.50109 3.68378 3.59360
# Velocity P-wave (km/s) = 5.80679 6.08085 5.94540
#
# Compressibility (1/GPa) = 0.02744111
#
# Stress axis : x y z
#
# Youngs Moduli (GPa) = 64.92685 68.23344 64.57626
#
# Poissons Ratio (x) = 0.30361 -0.12424
# Poissons Ratio (y) = 0.28890 0.42138
# Poissons Ratio (z) = -0.12491 0.44524
#
# Static dielectric constant tensor:
#      x y z
#    x 1.801150 0.000000 0.000000 
#    y 0.000000 1.852020 0.000000 
#    z 0.000000 0.000000 1.762840 
# 
# From -- ./inp_files/38545.got.cif
#   From: 2010.05.17/outbox.cif.g08.bks.cpg/sg68_20_cif.got.tgz:38545.got - 2010.06.03 18:57:09.
