data_PCOD9507653
_publ_section_title
;
Structure prediction by ZEFSAII (Michael W. Deem and Ramdas Pophale) SiO2 
 PCOD9507653
Probable space group: C C C A
;
_chemical_formula_sum "Si O2"
_cell_formula_units_Z 116
_cell_length_a 18.958182
_cell_length_b 24.826200
_cell_length_c 12.171708
_cell_angle_alpha 90.000000
_cell_angle_beta 90.000000
_cell_angle_gamma 90.000000
_cell_volume 5728.731437
_symmetry_space_group_name_H-M "C C C A"
_symmetry_group_IT_number 68
_space_group.IT_coordinate_system_code '2'
_symmetry_cell_setting 'orthorhombic'
loop_
_space_group_symop_operation_xyz
x,y,z
-x,1/2-y,z
x,1/2-y,1/2-z
-x,y,1/2-z
-x,-y,-z
x,1/2+y,-z
-x,1/2+y,1/2+z
x,-y,1/2+z
1/2+x,1/2+y,z
1/2-x,-y,z
1/2+x,-y,1/2-z
1/2-x,1/2+y,1/2-z
1/2-x,1/2-y,-z
1/2+x,y,-z
1/2-x,y,1/2+z
1/2+x,1/2-y,1/2+z
loop_
_atom_site_type_symbol
_atom_site_label
_atom_site_fract_x
_atom_site_fract_y
_atom_site_fract_z
Si Si1 0.178369 0.229312 0.560836
Si Si2 0.502341 0.087752 0.566072
Si Si3 0.298532 0.948492 0.598396
Si Si4 0.500000 0.250000 0.750000
Si Si5 0.848989 0.371721 0.414157
Si Si6 0.049095 0.023215 0.650658
Si Si7 0.095159 0.688347 0.931919
Si Si8 0.265738 0.157273 0.701257
O O1 0.250000 0.250000 0.500000
O O2 0.145833 0.177253 0.499582
O O3 0.119900 0.275169 0.535875
O O4 0.207283 0.203029 0.674432
O O5 0.572657 0.111563 0.624375
O O6 0.527371 0.057532 0.455964
O O7 0.450611 0.136447 0.538083
O O8 0.464397 0.040220 0.632228
O O9 0.318024 0.922588 0.480194
O O10 0.368609 0.966078 0.662895
O O11 0.262986 0.900403 0.664917
O O12 0.250000 0.000000 0.584539
O O13 0.551018 0.218508 0.835467
O O14 0.796440 0.349164 0.322479
O O15 0.000000 0.040890 0.750000
O O16 0.167564 0.670349 0.875016
#
# Coordination Sequence:
#
# PCOD9507653 Si02
#       8
#    16  16  16   4  16  16  16  16
#     4   9  20  37  55  83 128 161 196 266 318 375
#     4  10  22  38  64  91 123 167 205 276 322 384
#     4  10  22  40  58  91 124 159 217 269 322 389
#     4  12  24  32  64 108 122 176 210 284 344 386
#     4  10  21  38  59  89 124 162 215 263 319 385
#     4  10  23  43  62  87 130 164 209 264 333 396
#     4  11  20  35  58  92 128 155 218 261 329 394
#     4  10  21  37  60  86 124 169 208 261 324 391
#
# _framework density 20.248809999999999
#
# number of rings (size 3 to 8) (size 9 to 14) (size 15 to 20)
#    0.000    1.931    0.000    3.310    4.828    2.207 
#   12.414    0.000    3.034    0.000    0.000    0.966 
#    0.000    0.000    0.000    0.000    0.000    0.000 
#
# Total GULP energy -323607.139384 kJ/mol
# GULP energy per Si atom -5579.433438 kJ/mol
# Density = 2.020272 g / cm^3
# Si number density = 20.248810 Si / 1000 Ang^3
#
#
#
# Elastic Constant Matrix: (Units=GPa)
#
#
# Indices 1 2 3 4 5 6 
#
# 1 114.5949 65.4926 35.8058 0.0000 0.0000 0.0000
# 2 65.4926 130.0175 35.5482 0.0000 0.0000 0.0000
# 3 35.8058 35.5482 55.7138 0.0000 0.0000 0.0000
# 4 0.0000 0.0000 0.0000 10.4974 0.0000 0.0000
# 5 0.0000 0.0000 0.0000 0.0000 24.6141 0.0000
# 6 0.0000 0.0000 0.0000 0.0000 0.0000 48.9444
#
#
#
# Elastic Compliance Matrix: (Units=1/GPa)
#
#
# Indices 1 2 3 4 5 6 
#
# 1 0.013398 -0.005323 -0.005214 0.000000 0.000000 0.000000
# 2 -0.005323 0.011432 -0.003873 0.000000 0.000000 0.000000
# 3 -0.005214 -0.003873 0.023771 0.000000 0.000000 0.000000
# 4 0.000000 0.000000 0.000000 0.095262 0.000000 0.000000
# 5 0.000000 0.000000 0.000000 0.000000 0.040627 0.000000
# 6 0.000000 0.000000 0.000000 0.000000 0.000000 0.020431
#
#
# Mechanical properties :
#
#
# Convention : Reuss Voigt Hill
#
# Bulk Modulus (GPa) = 50.55560 63.77994 57.16777
# Shear Modulus (GPa) = 20.80438 27.70983 24.25710
#
# Velocity S-wave (km/s) = 3.20884 3.70329 3.46490
# Velocity P-wave (km/s) = 6.22497 7.06062 6.65592
#
# Compressibility (1/GPa) = 0.01978020
#
# Stress axis : x y z
#
# Youngs Moduli (GPa) = 74.63912 87.47708 42.06845
#
# Poissons Ratio (x) = 0.46566 0.21934
# Poissons Ratio (y) = 0.39732 0.16292
# Poissons Ratio (z) = 0.38916 0.33878
#
# Static dielectric constant tensor:
#      x y z
#    x 1.718360 0.000000 0.000000 
#    y 0.000000 1.709150 0.000000 
#    z 0.000000 0.000000 1.734410 
# 
# From -- ./inp_files/14848.got.cif
#   From: 2010.05.17/outbox.cif.g08.bks.cpg/sg68_8_cif.got.tgz:14848.got - 2010.06.03 18:57:09.
