data_PCOD9507667
_publ_section_title
;
Structure prediction by ZEFSAII (Michael W. Deem and Ramdas Pophale) SiO2 
 PCOD9507667
Probable space group: C C C A
;
_chemical_formula_sum "Si O2"
_cell_formula_units_Z 104
_cell_length_a 9.635156
_cell_length_b 28.770762
_cell_length_c 19.128427
_cell_angle_alpha 90.000000
_cell_angle_beta 90.000000
_cell_angle_gamma 90.000000
_cell_volume 5302.606171
_symmetry_space_group_name_H-M "C C C A"
_symmetry_group_IT_number 68
_space_group.IT_coordinate_system_code '2'
_symmetry_cell_setting 'orthorhombic'
loop_
_space_group_symop_operation_xyz
x,y,z
-x,1/2-y,z
x,1/2-y,1/2-z
-x,y,1/2-z
-x,-y,-z
x,1/2+y,-z
-x,1/2+y,1/2+z
x,-y,1/2+z
1/2+x,1/2+y,z
1/2-x,-y,z
1/2+x,-y,1/2-z
1/2-x,1/2+y,1/2-z
1/2-x,1/2-y,-z
1/2+x,y,-z
1/2-x,y,1/2+z
1/2+x,1/2-y,1/2+z
loop_
_atom_site_type_symbol
_atom_site_label
_atom_site_fract_x
_atom_site_fract_y
_atom_site_fract_z
Si Si1 0.571513 0.065046 0.639761
Si Si2 0.761946 0.074714 0.848231
Si Si3 0.696450 0.820737 0.319892
Si Si4 0.873544 0.964844 0.492067
Si Si5 0.333087 0.757668 0.429653
Si Si6 0.250000 0.000000 0.768136
Si Si7 0.363175 0.834658 0.329085
O O1 0.404549 0.065499 0.643022
O O2 0.613629 0.068405 0.558623
O O3 0.632091 0.021008 0.681007
O O4 0.641673 0.109922 0.675324
O O5 0.769429 0.130254 0.837636
O O6 0.801294 0.041390 0.783340
O O7 0.845743 0.059145 0.917533
O O8 0.724918 0.778984 0.372466
O O9 0.528990 0.826353 0.326236
O O10 0.712708 0.812365 0.237428
O O11 0.750000 0.000000 0.504016
O O12 0.000000 0.000000 0.500000
O O13 0.500000 0.750000 0.438272
O O14 0.250000 0.750000 0.500000
O O15 0.312923 0.809232 0.398462
#
# Coordination Sequence:
#
# PCOD9507667 Si02
#       7
#    16  16  16  16  16   8  16
#     4  11  22  36  58  86 118 160 201 248 299 356
#     4  11  22  38  58  86 121 156 200 250 300 358
#     4   9  18  35  61  88 116 154 197 247 296 348
#     4  12  23  39  55  80 116 163 201 244 300 352
#     4  10  21  37  61  94 123 154 195 245 297 357
#     4  12  20  34  58  84 118 154 200 244 300 352
#     4   9  18  35  59  88 118 153 200 244 295 350
#
# _framework density 19.612997
#
# number of rings (size 3 to 8) (size 9 to 14) (size 15 to 20)
#    0.000    1.538    4.615    0.923    2.154    1.846 
#    0.000    0.000    0.000    1.846    0.000    0.000 
#    0.000    0.000    0.000    0.000    0.000    0.000 
#
# Total GULP energy -289924.668079 kJ/mol
# GULP energy per Si atom -5575.474386 kJ/mol
# Density = 1.956836 g / cm^3
# Si number density = 19.612997 Si / 1000 Ang^3
#
#
#
# Elastic Constant Matrix: (Units=GPa)
#
#
# Indices 1 2 3 4 5 6 
#
# 1 49.3179 24.7997 31.3545 0.0000 0.0000 0.0000
# 2 24.7997 85.1030 39.5178 0.0000 0.0000 0.0000
# 3 31.3545 39.5178 134.2265 0.0000 0.0000 0.0000
# 4 0.0000 0.0000 0.0000 31.6747 0.0000 0.0000
# 5 0.0000 0.0000 0.0000 0.0000 21.3336 0.0000
# 6 0.0000 0.0000 0.0000 0.0000 0.0000 19.2516
#
#
#
# Elastic Compliance Matrix: (Units=1/GPa)
#
#
# Indices 1 2 3 4 5 6 
#
# 1 0.025843 -0.005476 -0.004425 0.000000 0.000000 0.000000
# 2 -0.005476 0.014772 -0.003070 0.000000 0.000000 0.000000
# 3 -0.004425 -0.003070 0.009387 0.000000 0.000000 0.000000
# 4 0.000000 0.000000 0.000000 0.031571 0.000000 0.000000
# 5 0.000000 0.000000 0.000000 0.000000 0.046874 0.000000
# 6 0.000000 0.000000 0.000000 0.000000 0.000000 0.051944
#
#
# Mechanical properties :
#
#
# Convention : Reuss Voigt Hill
#
# Bulk Modulus (GPa) = 41.56065 51.11016 46.33541
# Shear Modulus (GPa) = 23.32594 25.98365 24.65479
#
# Velocity S-wave (km/s) = 3.45238 3.64375 3.54936
# Velocity P-wave (km/s) = 6.09330 6.61955 6.36187
#
# Compressibility (1/GPa) = 0.02406122
#
# Stress axis : x y z
#
# Youngs Moduli (GPa) = 38.69452 67.69663 106.52572
#
# Poissons Ratio (x) = 0.37074 0.47133
# Poissons Ratio (y) = 0.21191 0.32700
# Poissons Ratio (z) = 0.17121 0.20781
#
# Static dielectric constant tensor:
#      x y z
#    x 1.677100 0.000000 0.000000 
#    y 0.000000 1.735540 0.000000 
#    z 0.000000 0.000000 1.730380 
# 
# From -- ./inp_files/29992.got.cif
#   From: 2010.05.17/outbox.cif.g08.bks.cpg/sg68_15_cif.got.tgz:29992.got - 2010.06.03 18:57:09.
