data_PCOD9507315
_publ_section_title
;
Structure prediction by ZEFSAII (Michael W. Deem and Ramdas Pophale) SiO2 
 PCOD9507315
Probable space group: C C C A
;
_chemical_formula_sum "Si O2"
_cell_formula_units_Z 92
_cell_length_a 20.269302
_cell_length_b 27.921270
_cell_length_c 8.994293
_cell_angle_alpha 90.000000
_cell_angle_beta 90.000000
_cell_angle_gamma 90.000000
_cell_volume 5090.272039
_symmetry_space_group_name_H-M "C C C A"
_symmetry_group_IT_number 68
_space_group.IT_coordinate_system_code '2'
_symmetry_cell_setting 'orthorhombic'
loop_
_space_group_symop_operation_xyz
x,y,z
-x,1/2-y,z
x,1/2-y,1/2-z
-x,y,1/2-z
-x,-y,-z
x,1/2+y,-z
-x,1/2+y,1/2+z
x,-y,1/2+z
1/2+x,1/2+y,z
1/2-x,-y,z
1/2+x,-y,1/2-z
1/2-x,1/2+y,1/2-z
1/2-x,1/2-y,-z
1/2+x,y,-z
1/2-x,y,1/2+z
1/2+x,1/2-y,1/2+z
loop_
_atom_site_type_symbol
_atom_site_label
_atom_site_fract_x
_atom_site_fract_y
_atom_site_fract_z
Si Si1 0.750000 0.000000 0.005145
Si Si2 0.923595 0.862122 0.260138
Si Si3 0.721735 0.662505 0.236882
Si Si4 0.805497 0.066363 0.755589
Si Si5 0.390864 0.199117 0.950473
Si Si6 0.500000 0.750000 0.250000
Si Si7 0.666091 0.298293 0.430027
O O1 0.792913 0.966023 0.111510
O O2 0.706183 0.966705 0.898551
O O3 0.875631 0.907639 0.254836
O O4 0.911981 0.834065 0.413909
O O5 0.898015 0.826687 0.129261
O O6 0.000000 0.874002 0.250000
O O7 0.751572 0.609281 0.242345
O O8 0.659984 0.671316 0.344443
O O9 0.780296 0.696308 0.299054
O O10 0.699345 0.676062 0.071732
O O11 0.452143 0.218180 0.853371
O O12 0.354352 0.245734 0.018305
#
# Coordination Sequence:
#
# PCOD9507315 Si02
#       7
#     8  16  16  16  16   4  16
#     4  10  20  40  68  88 116 138 182 254 322 376
#     4  11  24  40  60  84 124 164 207 243 294 358
#     4  11  21  37  62  89 122 152 206 258 299 344
#     4  10  21  39  63  93 113 146 190 247 313 370
#     4  12  23  38  56  83 126 170 214 245 288 335
#     4  12  24  40  54  84 124 180 220 236 280 348
#     4  11  22  38  57  91 122 167 207 255 291 337
#
# _framework density 18.073689999999999
#
# number of rings (size 3 to 8) (size 9 to 14) (size 15 to 20)
#    0.000    1.043    1.739    7.304    0.000    3.478 
#    0.000    0.870    0.000    0.000    0.000    0.000 
#    0.000    0.000    0.000    0.000    0.000    0.000 
#
# Total GULP energy -257304.014962 kJ/mol
# GULP energy per Si atom -5593.565543 kJ/mol
# Density = 1.803255 g / cm^3
# Si number density = 18.073690 Si / 1000 Ang^3
#
#
#
# Elastic Constant Matrix: (Units=GPa)
#
#
# Indices 1 2 3 4 5 6 
#
# 1 140.3747 62.4283 61.2675 0.0000 0.0000 0.0000
# 2 62.4283 110.0664 61.8484 0.0000 0.0000 0.0000
# 3 61.2675 61.8484 126.0229 0.0000 0.0000 0.0000
# 4 0.0000 0.0000 0.0000 19.6840 0.0000 0.0000
# 5 0.0000 0.0000 0.0000 0.0000 25.1318 0.0000
# 6 0.0000 0.0000 0.0000 0.0000 0.0000 11.4083
#
#
#
# Elastic Compliance Matrix: (Units=1/GPa)
#
#
# Indices 1 2 3 4 5 6 
#
# 1 0.010261 -0.004166 -0.002944 0.000000 0.000000 0.000000
# 2 -0.004166 0.014236 -0.004961 0.000000 0.000000 0.000000
# 3 -0.002944 -0.004961 0.011801 0.000000 0.000000 0.000000
# 4 0.000000 0.000000 0.000000 0.050803 0.000000 0.000000
# 5 0.000000 0.000000 0.000000 0.000000 0.039790 0.000000
# 6 0.000000 0.000000 0.000000 0.000000 0.000000 0.087655
#
#
# Mechanical properties :
#
#
# Convention : Reuss Voigt Hill
#
# Bulk Modulus (GPa) = 82.26382 83.06137 82.66260
# Shear Modulus (GPa) = 20.59799 23.97281 22.28540
#
# Velocity S-wave (km/s) = 3.37956 3.64592 3.51526
# Velocity P-wave (km/s) = 7.80020 7.98627 7.89378
#
# Compressibility (1/GPa) = 0.01215601
#
# Stress axis : x y z
#
# Youngs Moduli (GPa) = 97.45202 70.24398 84.73557
#
# Poissons Ratio (x) = 0.29262 0.24949
# Poissons Ratio (y) = 0.40596 0.42041
# Poissons Ratio (z) = 0.28693 0.34851
#
# Static dielectric constant tensor:
#      x y z
#    x 1.606360 0.000000 0.000000 
#    y 0.000000 1.605760 0.000000 
#    z 0.000000 0.000000 1.630750 
# 
# From -- ./inp_files/7332.got.cif
#   From: 2010.05.17/outbox.cif.g08.bks.cpg/sg68_4_cif.got.tgz:7332.got - 2010.06.03 18:57:09.
