data_PCOD9507107
_publ_section_title
;
Structure prediction by ZEFSAII (Michael W. Deem and Ramdas Pophale) SiO2 
 PCOD9507107
Probable space group: C C C A
;
_chemical_formula_sum "Si O2"
_cell_formula_units_Z 112
_cell_length_a 13.803218
_cell_length_b 26.336011
_cell_length_c 14.365378
_cell_angle_alpha 90.000000
_cell_angle_beta 90.000000
_cell_angle_gamma 90.000000
_cell_volume 5222.126647
_symmetry_space_group_name_H-M "C C C A"
_symmetry_group_IT_number 68
_space_group.IT_coordinate_system_code '2'
_symmetry_cell_setting 'orthorhombic'
loop_
_space_group_symop_operation_xyz
x,y,z
-x,1/2-y,z
x,1/2-y,1/2-z
-x,y,1/2-z
-x,-y,-z
x,1/2+y,-z
-x,1/2+y,1/2+z
x,-y,1/2+z
1/2+x,1/2+y,z
1/2-x,-y,z
1/2+x,-y,1/2-z
1/2-x,1/2+y,1/2-z
1/2-x,1/2-y,-z
1/2+x,y,-z
1/2-x,y,1/2+z
1/2+x,1/2-y,1/2+z
loop_
_atom_site_type_symbol
_atom_site_label
_atom_site_fract_x
_atom_site_fract_y
_atom_site_fract_z
Si Si1 0.416884 0.286152 0.416891
Si Si2 0.909324 0.390176 0.682296
Si Si3 0.442381 0.091024 0.838054
Si Si4 0.968456 0.556930 0.474204
Si Si5 0.713907 0.283862 0.340426
Si Si6 0.212275 0.907016 0.348873
Si Si7 0.431693 0.795177 0.371050
O O1 0.500000 0.250000 0.373211
O O2 0.383225 0.335559 0.360803
O O3 0.334705 0.244397 0.426280
O O4 0.447794 0.304356 0.518535
O O5 0.828531 0.417727 0.744796
O O6 0.000000 0.379924 0.750000
O O7 0.952673 0.423523 0.599948
O O8 0.500000 0.066960 0.750000
O O9 0.326903 0.077692 0.855969
O O10 0.436775 0.151014 0.822412
O O11 0.510572 0.084140 0.927965
O O12 0.862959 0.568455 0.425053
O O13 0.000000 0.500000 0.500000
O O14 0.681415 0.250000 0.250000
O O15 0.698868 0.344859 0.348898
O O16 0.825989 0.275747 0.350083
O O17 0.500000 0.750000 0.344814
#
# Coordination Sequence:
#
# PCOD9507107 Si02
#       7
#    16  16  16  16  16  16  16
#     4  11  20  34  57  90 129 173 222 271 331 401
#     4  10  20  38  65  99 131 170 223 289 349 418
#     4  11  26  45  66 100 140 184 229 286 358 426
#     4  11  25  48  74  98 129 175 234 302 364 426
#     4  11  22  35  59  97 135 179 227 272 347 421
#     4  10  24  44  68 103 141 179 228 295 352 433
#     4  10  24  38  57  88 135 185 229 272 329 420
#
# _framework density 21.447199999999999
#
# number of rings (size 3 to 8) (size 9 to 14) (size 15 to 20)
#    0.000    1.429    2.857    2.143    6.000    3.429 
#    0.000    0.000    0.000    0.000    0.000    0.000 
#    0.000    0.000    0.000    0.000    0.000    0.000 
#
# Total GULP energy -311793.013773 kJ/mol
# GULP energy per Si atom -5567.732389 kJ/mol
# Density = 2.139839 g / cm^3
# Si number density = 21.447200 Si / 1000 Ang^3
#
#
#
# Elastic Constant Matrix: (Units=GPa)
#
#
# Indices 1 2 3 4 5 6 
#
# 1 126.5536 38.6020 50.6550 0.0000 0.0000 0.0000
# 2 38.6020 60.0743 6.0707 0.0000 0.0000 0.0000
# 3 50.6550 6.0707 113.6285 0.0000 0.0000 0.0000
# 4 0.0000 0.0000 0.0000 27.1116 0.0000 0.0000
# 5 0.0000 0.0000 0.0000 0.0000 31.8550 0.0000
# 6 0.0000 0.0000 0.0000 0.0000 0.0000 14.3646
#
#
#
# Elastic Compliance Matrix: (Units=1/GPa)
#
#
# Indices 1 2 3 4 5 6 
#
# 1 0.012135 -0.007290 -0.005020 0.000000 0.000000 0.000000
# 2 -0.007290 0.021116 0.002122 0.000000 0.000000 0.000000
# 3 -0.005020 0.002122 0.010925 0.000000 0.000000 0.000000
# 4 0.000000 0.000000 0.000000 0.036885 0.000000 0.000000
# 5 0.000000 0.000000 0.000000 0.000000 0.031392 0.000000
# 6 0.000000 0.000000 0.000000 0.000000 0.000000 0.069616
#
#
# Mechanical properties :
#
#
# Convention : Reuss Voigt Hill
#
# Bulk Modulus (GPa) = 42.01854 54.54576 48.28215
# Shear Modulus (GPa) = 23.76661 28.32813 26.04737
#
# Velocity S-wave (km/s) = 3.33249 3.63827 3.48873
# Velocity P-wave (km/s) = 5.86869 6.56788 6.22811
#
# Compressibility (1/GPa) = 0.02379902
#
# Stress axis : x y z
#
# Youngs Moduli (GPa) = 82.40690 47.35712 91.53130
#
# Poissons Ratio (x) = 0.34524 0.45950
# Poissons Ratio (y) = 0.60077 -0.19421
# Poissons Ratio (z) = 0.41370 -0.10048
#
# Static dielectric constant tensor:
#      x y z
#    x 2.086110 0.000000 0.000000 
#    y 0.000000 1.860020 0.000000 
#    z 0.000000 0.000000 1.899850 
# 
# From -- ./inp_files/22745.got.cif
#   From: 2010.05.17/outbox.cif.g08.bks.cpg/sg68_12_cif.got.tgz:22745.got - 2010.06.03 18:57:09.
