data_PCOD9507140
_publ_section_title
;
Structure prediction by ZEFSAII (Michael W. Deem and Ramdas Pophale) SiO2 
 PCOD9507140
Probable space group: C C C A
;
_chemical_formula_sum "Si O2"
_cell_formula_units_Z 88
_cell_length_a 22.474752
_cell_length_b 13.276366
_cell_length_c 14.768146
_cell_angle_alpha 90.000000
_cell_angle_beta 90.000000
_cell_angle_gamma 90.000000
_cell_volume 4406.564200
_symmetry_space_group_name_H-M "C C C A"
_symmetry_group_IT_number 68
_space_group.IT_coordinate_system_code '2'
_symmetry_cell_setting 'orthorhombic'
loop_
_space_group_symop_operation_xyz
x,y,z
-x,1/2-y,z
x,1/2-y,1/2-z
-x,y,1/2-z
-x,-y,-z
x,1/2+y,-z
-x,1/2+y,1/2+z
x,-y,1/2+z
1/2+x,1/2+y,z
1/2-x,-y,z
1/2+x,-y,1/2-z
1/2-x,1/2+y,1/2-z
1/2-x,1/2-y,-z
1/2+x,y,-z
1/2-x,y,1/2+z
1/2+x,1/2-y,1/2+z
loop_
_atom_site_type_symbol
_atom_site_label
_atom_site_fract_x
_atom_site_fract_y
_atom_site_fract_z
Si Si1 0.500000 0.008640 0.750000
Si Si2 0.727566 0.399158 0.976585
Si Si3 0.093331 0.840420 0.681123
Si Si4 0.851061 0.724479 0.490017
Si Si5 0.594473 0.348490 0.312095
Si Si6 0.312673 0.019307 0.778687
O O1 0.461939 0.081464 0.683836
O O2 0.543541 0.932531 0.697410
O O3 0.750000 0.500000 0.023576
O O4 0.788432 0.334724 0.975453
O O5 0.703559 0.431846 0.876829
O O6 0.672538 0.338752 0.018282
O O7 0.078800 0.750000 0.750000
O O8 0.117581 0.798731 0.585802
O O9 0.147040 0.903224 0.725160
O O10 0.896050 0.691890 0.412625
O O11 0.585555 0.250000 0.250000
O O12 0.653317 0.413267 0.287737
O O13 0.250000 0.000000 0.732735
#
# Coordination Sequence:
#
# PCOD9507140 Si02
#       6
#     8  16  16  16  16  16
#     4  10  26  48  68  90 132 176 230 298 328 388
#     4  10  20  39  58 101 147 166 210 263 321 410
#     4  11  23  42  67 101 133 178 228 274 338 392
#     4  11  23  38  71  99 134 179 216 271 329 407
#     4  11  24  45  67  95 132 175 227 277 337 390
#     4  10  20  40  64  95 143 176 209 273 327 408
#
# _framework density 19.970208
#
# number of rings (size 3 to 8) (size 9 to 14) (size 15 to 20)
#    0.000    1.455    5.455    0.545    0.000    8.000 
#    0.000    3.636    0.000    0.000    0.000    0.000 
#    0.000    0.000    0.000    0.000    0.000    0.000 
#
# Total GULP energy -245369.891181 kJ/mol
# GULP energy per Si atom -5576.588436 kJ/mol
# Density = 1.992475 g / cm^3
# Si number density = 19.970208 Si / 1000 Ang^3
#
#
#
# Elastic Constant Matrix: (Units=GPa)
#
#
# Indices 1 2 3 4 5 6 
#
# 1 115.1755 58.0822 35.5573 0.0000 0.0000 0.0000
# 2 58.0822 137.9697 63.9837 0.0000 0.0000 0.0000
# 3 35.5573 63.9837 90.8971 0.0000 0.0000 0.0000
# 4 0.0000 0.0000 0.0000 1.7638 0.0000 0.0000
# 5 0.0000 0.0000 0.0000 0.0000 6.5091 0.0000
# 6 0.0000 0.0000 0.0000 0.0000 0.0000 90.3411
#
#
#
# Elastic Compliance Matrix: (Units=1/GPa)
#
#
# Indices 1 2 3 4 5 6 
#
# 1 0.011172 -0.003974 -0.001573 0.000000 0.000000 0.000000
# 2 -0.003974 0.012174 -0.007015 0.000000 0.000000 0.000000
# 3 -0.001573 -0.007015 0.016555 0.000000 0.000000 0.000000
# 4 0.000000 0.000000 0.000000 0.566952 0.000000 0.000000
# 5 0.000000 0.000000 0.000000 0.000000 0.153631 0.000000
# 6 0.000000 0.000000 0.000000 0.000000 0.000000 0.011069
#
#
# Mechanical properties :
#
#
# Convention : Reuss Voigt Hill
#
# Bulk Modulus (GPa) = 67.67216 73.25430 70.46323
# Shear Modulus (GPa) = 6.23751 32.15074 19.19412
#
# Velocity S-wave (km/s) = 1.76923 4.01675 3.10359
# Velocity P-wave (km/s) = 6.17525 7.63373 6.94289
#
# Compressibility (1/GPa) = 0.01477713
#
# Stress axis : x y z
#
# Youngs Moduli (GPa) = 89.51011 82.14234 60.40519
#
# Poissons Ratio (x) = 0.32640 0.09503
# Poissons Ratio (y) = 0.35567 0.42375
# Poissons Ratio (z) = 0.14082 0.57623
#
# Static dielectric constant tensor:
#      x y z
#    x 1.729760 0.000000 0.000000 
#    y 0.000000 1.770870 0.000000 
#    z 0.000000 0.000000 1.697990 
# 
# From -- ./inp_files/25279.got.cif
#   From: 2010.05.17/outbox.cif.g08.bks.cpg/sg68_13_cif.got.tgz:25279.got - 2010.06.03 18:57:09.
