data_PCOD9507365
_publ_section_title
;
Structure prediction by ZEFSAII (Michael W. Deem and Ramdas Pophale) SiO2 
 PCOD9507365
Probable space group: C C C A
;
_chemical_formula_sum "Si O2"
_cell_formula_units_Z 108
_cell_length_a 17.771236
_cell_length_b 15.032999
_cell_length_c 21.877227
_cell_angle_alpha 90.000000
_cell_angle_beta 90.000000
_cell_angle_gamma 90.000000
_cell_volume 5844.609989
_symmetry_space_group_name_H-M "C C C A"
_symmetry_group_IT_number 68
_space_group.IT_coordinate_system_code '2'
_symmetry_cell_setting 'orthorhombic'
loop_
_space_group_symop_operation_xyz
x,y,z
-x,1/2-y,z
x,1/2-y,1/2-z
-x,y,1/2-z
-x,-y,-z
x,1/2+y,-z
-x,1/2+y,1/2+z
x,-y,1/2+z
1/2+x,1/2+y,z
1/2-x,-y,z
1/2+x,-y,1/2-z
1/2-x,1/2+y,1/2-z
1/2-x,1/2-y,-z
1/2+x,y,-z
1/2-x,y,1/2+z
1/2+x,1/2-y,1/2+z
loop_
_atom_site_type_symbol
_atom_site_label
_atom_site_fract_x
_atom_site_fract_y
_atom_site_fract_z
Si Si1 0.750000 0.000000 0.797496
Si Si2 0.747513 0.832884 0.119828
Si Si3 0.500000 0.250000 0.250000
Si Si4 0.327093 0.358867 0.880467
Si Si5 0.822546 0.062801 0.511963
Si Si6 0.485291 0.145458 0.681746
Si Si7 0.106693 0.462585 0.114190
Si Si8 0.866429 0.890370 0.212460
O O1 0.729341 0.079787 0.842968
O O2 0.819734 0.042773 0.758217
O O3 0.706231 0.739570 0.112592
O O4 0.795918 0.861973 0.060520
O O5 0.684252 0.909273 0.126871
O O6 0.801075 0.833287 0.178790
O O7 0.435077 0.324953 0.230575
O O8 0.400567 0.363092 0.839051
O O9 0.344621 0.396688 0.947530
O O10 0.750000 0.000000 0.501952
O O11 0.884682 0.002868 0.546470
O O12 0.500000 0.250000 0.684128
O O13 0.500000 0.108272 0.750000
O O14 0.538924 0.101406 0.631444
O O15 0.102066 0.544322 0.160410
#
# Coordination Sequence:
#
# PCOD9507365 Si02
#       8
#     8  16   4  16  16  16  16  16
#     4  12  24  38  62  98 128 168 222 270 320 394
#     4  10  20  41  70  90 121 166 221 268 324 393
#     4  12  28  40  64  92 146 170 208 276 346 400
#     4  12  23  37  64  95 125 157 217 276 322 380
#     4   9  20  40  64  92 121 164 213 270 330 393
#     4  11  24  38  59  94 128 163 209 269 324 374
#     4  10  20  42  67  87 122 171 214 259 328 396
#     4  11  23  43  62  91 128 175 213 257 335 402
#
# _framework density 18.478563999999999
#
# number of rings (size 3 to 8) (size 9 to 14) (size 15 to 20)
#    0.000    1.333    3.704    3.111    3.111    0.593 
#    0.000    0.000    6.519    0.000    0.000    0.000 
#    0.000    0.000    0.000    0.000    0.000    0.000 
#
# Total GULP energy -300741.641443 kJ/mol
# GULP energy per Si atom -5569.289656 kJ/mol
# Density = 1.843651 g / cm^3
# Si number density = 18.478564 Si / 1000 Ang^3
#
#
#
# Elastic Constant Matrix: (Units=GPa)
#
#
# Indices 1 2 3 4 5 6 
#
# 1 41.9215 29.4707 18.1243 0.0000 0.0000 0.0000
# 2 29.4707 96.6651 49.4036 0.0000 0.0000 0.0000
# 3 18.1243 49.4036 82.5597 0.0000 0.0000 0.0000
# 4 0.0000 0.0000 0.0000 18.7747 0.0000 0.0000
# 5 0.0000 0.0000 0.0000 0.0000 10.1326 0.0000
# 6 0.0000 0.0000 0.0000 0.0000 0.0000 33.4134
#
#
#
# Elastic Compliance Matrix: (Units=1/GPa)
#
#
# Indices 1 2 3 4 5 6 
#
# 1 0.030513 -0.008469 -0.001630 0.000000 0.000000 0.000000
# 2 -0.008469 0.017253 -0.008465 0.000000 0.000000 0.000000
# 3 -0.001630 -0.008465 0.017536 0.000000 0.000000 0.000000
# 4 0.000000 0.000000 0.000000 0.053263 0.000000 0.000000
# 5 0.000000 0.000000 0.000000 0.000000 0.098691 0.000000
# 6 0.000000 0.000000 0.000000 0.000000 0.000000 0.029928
#
#
# Mechanical properties :
#
#
# Convention : Reuss Voigt Hill
#
# Bulk Modulus (GPa) = 35.49573 46.12706 40.81140
# Shear Modulus (GPa) = 17.02386 20.74066 18.88226
#
# Velocity S-wave (km/s) = 3.03855 3.35388 3.20010
# Velocity P-wave (km/s) = 5.61793 6.32572 5.98230
#
# Compressibility (1/GPa) = 0.02817240
#
# Stress axis : x y z
#
# Youngs Moduli (GPa) = 32.77303 57.95935 57.02575
#
# Poissons Ratio (x) = 0.49088 0.09298
# Poissons Ratio (y) = 0.27757 0.48273
# Poissons Ratio (z) = 0.05343 0.49064
#
# Static dielectric constant tensor:
#      x y z
#    x 1.945490 0.000000 0.000000 
#    y 0.000000 1.646390 0.000000 
#    z 0.000000 0.000000 1.644380 
# 
# From -- ./inp_files/45595.got.cif
#   From: 2010.05.17/outbox.cif.g08.bks.cpg/sg68_23_cif.got.tgz:45595.got - 2010.06.03 18:57:09.
