data_PCOD9507183
_publ_section_title
;
Structure prediction by ZEFSAII (Michael W. Deem and Ramdas Pophale) SiO2 
 PCOD9507183
Probable space group: C C C A
;
_chemical_formula_sum "Si O2"
_cell_formula_units_Z 80
_cell_length_a 26.278545
_cell_length_b 13.097926
_cell_length_c 13.385678
_cell_angle_alpha 90.000000
_cell_angle_beta 90.000000
_cell_angle_gamma 90.000000
_cell_volume 4607.275914
_symmetry_space_group_name_H-M "C C C A"
_symmetry_group_IT_number 68
_space_group.IT_coordinate_system_code '2'
_symmetry_cell_setting 'orthorhombic'
loop_
_space_group_symop_operation_xyz
x,y,z
-x,1/2-y,z
x,1/2-y,1/2-z
-x,y,1/2-z
-x,-y,-z
x,1/2+y,-z
-x,1/2+y,1/2+z
x,-y,1/2+z
1/2+x,1/2+y,z
1/2-x,-y,z
1/2+x,-y,1/2-z
1/2-x,1/2+y,1/2-z
1/2-x,1/2-y,-z
1/2+x,y,-z
1/2-x,y,1/2+z
1/2+x,1/2-y,1/2+z
loop_
_atom_site_type_symbol
_atom_site_label
_atom_site_fract_x
_atom_site_fract_y
_atom_site_fract_z
Si Si1 0.643011 0.969199 0.864503
Si Si2 0.444064 0.369521 0.227689
Si Si3 0.806844 0.959310 0.674461
Si Si4 0.123214 0.391716 0.545114
Si Si5 0.193440 0.300050 0.002963
O O1 0.599242 0.915096 0.799842
O O2 0.680640 0.887308 0.919066
O O3 0.673710 0.041064 0.787732
O O4 0.617184 0.038302 0.948594
O O5 0.445344 0.250000 0.250000
O O6 0.500000 0.413183 0.250000
O O7 0.426642 0.380138 0.112793
O O8 0.811737 0.856616 0.609775
O O9 0.750000 0.000000 0.673509
O O10 0.838548 0.045396 0.616041
O O11 0.151186 0.286921 0.515410
O O12 0.250000 0.250000 0.000000
#
# Coordination Sequence:
#
# PCOD9507183 Si02
#       5
#    16  16  16  16  16
#     4  10  23  37  56  84 117 147 196 239 283 357
#     4  10  20  39  64  85 108 147 195 244 295 347
#     4  10  21  34  52  82 114 157 197 226 279 348
#     4  10  21  38  56  84 116 146 191 242 285 345
#     4  11  21  36  55  79 119 159 190 238 288 335
#
# _framework density 17.36384
#
# number of rings (size 3 to 8) (size 9 to 14) (size 15 to 20)
#    0.000    1.800    4.000    0.000    2.800    1.600 
#    0.000    0.000    0.000    0.000    0.000    1.400 
#    0.000    0.000    0.000    0.000    0.000    0.000 
#
# Total GULP energy -222959.043097 kJ/mol
# GULP energy per Si atom -5573.976077 kJ/mol
# Density = 1.732432 g / cm^3
# Si number density = 17.363840 Si / 1000 Ang^3
#
#
#
# Elastic Constant Matrix: (Units=GPa)
#
#
# Indices 1 2 3 4 5 6 
#
# 1 95.0591 33.8668 48.1638 0.0000 0.0000 0.0000
# 2 33.8668 80.3333 56.8483 0.0000 0.0000 0.0000
# 3 48.1638 56.8483 130.4525 0.0000 0.0000 0.0000
# 4 0.0000 0.0000 0.0000 14.7710 0.0000 0.0000
# 5 0.0000 0.0000 0.0000 0.0000 8.6882 0.0000
# 6 0.0000 0.0000 0.0000 0.0000 0.0000 9.8496
#
#
#
# Elastic Compliance Matrix: (Units=1/GPa)
#
#
# Indices 1 2 3 4 5 6 
#
# 1 0.013460 -0.003120 -0.003610 0.000000 0.000000 0.000000
# 2 -0.003120 0.018722 -0.007007 0.000000 0.000000 0.000000
# 3 -0.003610 -0.007007 0.012052 0.000000 0.000000 0.000000
# 4 0.000000 0.000000 0.000000 0.067700 0.000000 0.000000
# 5 0.000000 0.000000 0.000000 0.000000 0.115099 0.000000
# 6 0.000000 0.000000 0.000000 0.000000 0.000000 0.101527
#
#
# Mechanical properties :
#
#
# Convention : Reuss Voigt Hill
#
# Bulk Modulus (GPa) = 59.66332 64.84475 62.25403
# Shear Modulus (GPa) = 13.82668 17.79283 15.80976
#
# Velocity S-wave (km/s) = 2.82493 3.20458 3.02072
# Velocity P-wave (km/s) = 6.71383 7.14970 6.93519
#
# Compressibility (1/GPa) = 0.01676072
#
# Stress axis : x y z
#
# Youngs Moduli (GPa) = 74.29176 53.41392 82.97516
#
# Poissons Ratio (x) = 0.16665 0.29955
# Poissons Ratio (y) = 0.23179 0.58137
# Poissons Ratio (z) = 0.26820 0.37425
#
# Static dielectric constant tensor:
#      x y z
#    x 1.604360 0.000000 0.000000 
#    y 0.000000 1.585190 0.000000 
#    z 0.000000 0.000000 1.608980 
# 
# From -- ./inp_files/11933.got.cif
#   From: 2010.05.17/outbox.cif.g08.bks.cpg/sg68_6_cif.got.tgz:11933.got - 2010.06.03 18:57:09.
