data_PCOD9507066
_publ_section_title
;
Structure prediction by ZEFSAII (Michael W. Deem and Ramdas Pophale) SiO2 
 PCOD9507066
Probable space group: C C C A
;
_chemical_formula_sum "Si O2"
_cell_formula_units_Z 56
_cell_length_a 5.032480
_cell_length_b 15.292034
_cell_length_c 34.786283
_cell_angle_alpha 90.000000
_cell_angle_beta 90.000000
_cell_angle_gamma 90.000000
_cell_volume 2677.042946
_symmetry_space_group_name_H-M "C C C A"
_symmetry_group_IT_number 68
_space_group.IT_coordinate_system_code '2'
_symmetry_cell_setting 'orthorhombic'
loop_
_space_group_symop_operation_xyz
x,y,z
-x,1/2-y,z
x,1/2-y,1/2-z
-x,y,1/2-z
-x,-y,-z
x,1/2+y,-z
-x,1/2+y,1/2+z
x,-y,1/2+z
1/2+x,1/2+y,z
1/2-x,-y,z
1/2+x,-y,1/2-z
1/2-x,1/2+y,1/2-z
1/2-x,1/2-y,-z
1/2+x,y,-z
1/2-x,y,1/2+z
1/2+x,1/2-y,1/2+z
loop_
_atom_site_type_symbol
_atom_site_label
_atom_site_fract_x
_atom_site_fract_y
_atom_site_fract_z
Si Si1 0.497485 0.435435 0.166225
Si Si2 0.254754 0.307066 0.102611
Si Si3 0.000000 0.064239 0.750000
Si Si4 0.265096 0.605296 0.023684
O O1 0.250000 0.500000 0.169194
O O2 0.401373 0.366259 0.134657
O O3 0.527776 0.390401 0.208414
O O4 0.750000 0.500000 0.157840
O O5 0.500000 0.250000 0.087731
O O6 0.160911 0.362616 0.066013
O O7 0.000000 0.250000 0.116469
O O8 0.750000 0.000000 0.748901
O O9 0.250000 0.500000 0.025117
O O10 0.482110 0.634121 0.992635
#
# Coordination Sequence:
#
# PCOD9507066 Si02
#       4
#    16  16   8  16
#     4  10  20  38  63  86 114 153 200 246 290 346
#     4  12  25  38  57  89 125 156 190 237 299 357
#     4   8  16  32  59  88 107 140 196 248 284 330
#     4  10  22  40  61  83 110 150 199 243 286 342
#
# _framework density 20.918602
#
# number of rings (size 3 to 8) (size 9 to 14) (size 15 to 20)
#    0.000    1.714    0.000    4.286    0.000    6.857 
#    0.000    0.714    0.000    1.714    0.000    0.000 
#    0.000    0.000    0.000    0.000    0.000    0.000 
#
# Total GULP energy -156044.774633 kJ/mol
# GULP energy per Si atom -5573.027665 kJ/mol
# Density = 2.087099 g / cm^3
# Si number density = 20.918602 Si / 1000 Ang^3
#
#
#
# Elastic Constant Matrix: (Units=GPa)
#
#
# Indices 1 2 3 4 5 6 
#
# 1 144.6077 28.4034 19.1158 0.0000 0.0000 0.0000
# 2 28.4034 50.0227 52.5927 0.0000 0.0000 0.0000
# 3 19.1158 52.5927 161.7356 0.0000 0.0000 0.0000
# 4 0.0000 0.0000 0.0000 -11.1011 0.0000 0.0000
# 5 0.0000 0.0000 0.0000 0.0000 26.6609 0.0000
# 6 0.0000 0.0000 0.0000 0.0000 0.0000 24.4815
#
#
#
# Elastic Compliance Matrix: (Units=1/GPa)
#
#
# Indices 1 2 3 4 5 6 
#
# 1 0.007850 -0.005290 0.000793 0.000000 0.000000 0.000000
# 2 -0.005290 0.033942 -0.010412 0.000000 0.000000 0.000000
# 3 0.000793 -0.010412 0.009475 0.000000 0.000000 0.000000
# 4 0.000000 0.000000 0.000000 -0.090082 0.000000 0.000000
# 5 0.000000 0.000000 0.000000 0.000000 0.037508 0.000000
# 6 0.000000 0.000000 0.000000 0.000000 0.000000 0.040847
#
#
# Mechanical properties :
#
#
# Convention : Reuss Voigt Hill
#
# Bulk Modulus (GPa) = 46.62665 61.84333 54.23499
# Shear Modulus (GPa) = 65.35263 25.09186 45.22225
#
# Velocity S-wave (km/s) = 5.59546 3.46714 4.65458
# Velocity P-wave (km/s) = 8.00522 6.75692 7.40742
#
# Compressibility (1/GPa) = 0.02144696
#
# Stress axis : x y z
#
# Youngs Moduli (GPa) = 127.39483 29.46241 105.54178
#
# Poissons Ratio (x) = 0.15587 -0.08365
# Poissons Ratio (y) = 0.67397 1.09887
# Poissons Ratio (z) = -0.10097 0.30676
#
# Static dielectric constant tensor:
#      x y z
#    x 1.706570 0.000000 0.000000 
#    y 0.000000 1.735400 0.000000 
#    z 0.000000 0.000000 1.814380 
# 
# From -- ./inp_files/47972.got.cif
#   From: 2010.05.17/outbox.cif.g08.bks.cpg/sg68_24_cif.got.tgz:47972.got - 2010.06.03 18:57:09.
