data_PCOD9507841
_publ_section_title
;
Structure prediction by ZEFSAII (Michael W. Deem and Ramdas Pophale) SiO2 
 PCOD9507841
Probable space group: C C C A
;
_chemical_formula_sum "Si O2"
_cell_formula_units_Z 120
_cell_length_a 27.389326
_cell_length_b 11.081075
_cell_length_c 18.484433
_cell_angle_alpha 90.000000
_cell_angle_beta 90.000000
_cell_angle_gamma 90.000000
_cell_volume 5610.084115
_symmetry_space_group_name_H-M "C C C A"
_symmetry_group_IT_number 68
_space_group.IT_coordinate_system_code '2'
_symmetry_cell_setting 'orthorhombic'
loop_
_space_group_symop_operation_xyz
x,y,z
-x,1/2-y,z
x,1/2-y,1/2-z
-x,y,1/2-z
-x,-y,-z
x,1/2+y,-z
-x,1/2+y,1/2+z
x,-y,1/2+z
1/2+x,1/2+y,z
1/2-x,-y,z
1/2+x,-y,1/2-z
1/2-x,1/2+y,1/2-z
1/2-x,1/2-y,-z
1/2+x,y,-z
1/2-x,y,1/2+z
1/2+x,1/2-y,1/2+z
loop_
_atom_site_type_symbol
_atom_site_label
_atom_site_fract_x
_atom_site_fract_y
_atom_site_fract_z
Si Si1 0.345911 0.637805 0.570885
Si Si2 0.210663 0.258544 0.171522
Si Si3 0.078139 0.038196 0.357867
Si Si4 0.395866 0.481256 0.807407
Si Si5 0.686241 0.164316 0.319404
Si Si6 0.488243 0.119070 0.164320
Si Si7 0.750000 0.000000 0.606043
Si Si8 0.882328 0.721790 0.580223
O O1 0.381711 0.561589 0.621623
O O2 0.331638 0.762038 0.610445
O O3 0.296101 0.557253 0.562422
O O4 0.375777 0.668598 0.499015
O O5 0.185727 0.250000 0.250000
O O6 0.255288 0.164633 0.173669
O O7 0.232654 0.390728 0.156975
O O8 0.172869 0.241568 0.107977
O O9 0.087905 0.060484 0.272471
O O10 0.088817 0.154183 0.407130
O O11 0.024424 0.981952 0.366960
O O12 0.341910 0.539226 0.808956
O O13 0.431704 0.586435 0.835935
O O14 0.402736 0.374844 0.863729
O O15 0.675366 0.250000 0.250000
O O16 0.500000 0.250000 0.132763
O O17 0.500000 0.123219 0.250000
#
# Coordination Sequence:
#
# PCOD9507841 Si02
#       8
#    16  16  16  16  16  16   8  16
#     4  11  24  41  65  91 134 180 220 273 330 387
#     4  10  22  38  62  95 130 174 220 268 332 382
#     4  11  22  45  68  91 135 169 216 286 326 390
#     4  11  23  40  69 103 127 166 226 272 330 400
#     4  10  21  38  67  97 126 173 227 275 316 381
#     4   9  20  39  72 104 124 161 218 276 329 389
#     4  10  22  42  64  86 132 176 232 266 318 388
#     4  12  27  39  63  97 136 177 213 265 345 402
#
# _framework density 21.390055
#
# number of rings (size 3 to 8) (size 9 to 14) (size 15 to 20)
#    0.000    1.467    2.667    2.000    3.733    4.267 
#    0.000    2.667    2.933    0.000    0.000    0.000 
#    0.000    0.000    0.000    0.000    0.000    0.000 
#
# Total GULP energy -335227.676170 kJ/mol
# GULP energy per Si atom -5587.127936 kJ/mol
# Density = 2.134137 g / cm^3
# Si number density = 21.390055 Si / 1000 Ang^3
#
#
#
# Elastic Constant Matrix: (Units=GPa)
#
#
# Indices 1 2 3 4 5 6 
#
# 1 68.5506 17.2128 5.4088 0.0000 0.0000 0.0000
# 2 17.2128 56.7650 12.0332 0.0000 0.0000 0.0000
# 3 5.4088 12.0332 84.5767 0.0000 0.0000 0.0000
# 4 0.0000 0.0000 0.0000 22.4548 0.0000 0.0000
# 5 0.0000 0.0000 0.0000 0.0000 25.6068 0.0000
# 6 0.0000 0.0000 0.0000 0.0000 0.0000 17.6326
#
#
#
# Elastic Compliance Matrix: (Units=1/GPa)
#
#
# Indices 1 2 3 4 5 6 
#
# 1 0.015799 -0.004719 -0.000339 0.000000 0.000000 0.000000
# 2 -0.004719 0.019574 -0.002483 0.000000 0.000000 0.000000
# 3 -0.000339 -0.002483 0.012199 0.000000 0.000000 0.000000
# 4 0.000000 0.000000 0.000000 0.044534 0.000000 0.000000
# 5 0.000000 0.000000 0.000000 0.000000 0.039052 0.000000
# 6 0.000000 0.000000 0.000000 0.000000 0.000000 0.056713
#
#
# Mechanical properties :
#
#
# Convention : Reuss Voigt Hill
#
# Bulk Modulus (GPa) = 30.77906 31.02244 30.90075
# Shear Modulus (GPa) = 23.38821 24.82134 24.10477
#
# Velocity S-wave (km/s) = 3.31027 3.41018 3.36060
# Velocity P-wave (km/s) = 5.38806 5.48092 5.43469
#
# Compressibility (1/GPa) = 0.03248962
#
# Stress axis : x y z
#
# Youngs Moduli (GPa) = 63.29338 51.08866 81.97697
#
# Poissons Ratio (x) = 0.24109 0.02779
# Poissons Ratio (y) = 0.29868 0.20356
# Poissons Ratio (z) = 0.02146 0.12686
#
# Static dielectric constant tensor:
#      x y z
#    x 1.838050 0.000000 0.000000 
#    y 0.000000 1.800300 0.000000 
#    z 0.000000 0.000000 1.744370 
# 
# From -- ./inp_files/41429.got.cif
#   From: 2010.05.17/outbox.cif.g08.bks.cpg/sg68_21_cif.got.tgz:41429.got - 2010.06.03 18:57:09.
