data_PCOD9507357
_publ_section_title
;
Structure prediction by ZEFSAII (Michael W. Deem and Ramdas Pophale) SiO2 
 PCOD9507357
Probable space group: C C C A
;
_chemical_formula_sum "Si O2"
_cell_formula_units_Z 80
_cell_length_a 13.546616
_cell_length_b 10.622119
_cell_length_c 24.451313
_cell_angle_alpha 90.000000
_cell_angle_beta 90.000000
_cell_angle_gamma 90.000000
_cell_volume 3518.391541
_symmetry_space_group_name_H-M "C C C A"
_symmetry_group_IT_number 68
_space_group.IT_coordinate_system_code '2'
_symmetry_cell_setting 'orthorhombic'
loop_
_space_group_symop_operation_xyz
x,y,z
-x,1/2-y,z
x,1/2-y,1/2-z
-x,y,1/2-z
-x,-y,-z
x,1/2+y,-z
-x,1/2+y,1/2+z
x,-y,1/2+z
1/2+x,1/2+y,z
1/2-x,-y,z
1/2+x,-y,1/2-z
1/2-x,1/2+y,1/2-z
1/2-x,1/2-y,-z
1/2+x,y,-z
1/2-x,y,1/2+z
1/2+x,1/2-y,1/2+z
loop_
_atom_site_type_symbol
_atom_site_label
_atom_site_fract_x
_atom_site_fract_y
_atom_site_fract_z
Si Si1 0.702139 0.861246 0.290386
Si Si2 0.473729 0.606087 0.918408
Si Si3 0.856495 0.942567 0.522839
Si Si4 0.114351 0.794698 0.873848
Si Si5 0.499113 0.021303 0.805480
O O1 0.737800 0.750000 0.250000
O O2 0.697632 0.797528 0.350184
O O3 0.750000 0.000000 0.285378
O O4 0.583317 0.881081 0.284767
O O5 0.500000 0.750000 0.911236
O O6 0.564420 0.536207 0.948942
O O7 0.457446 0.546744 0.858866
O O8 0.386376 0.588883 0.961419
O O9 0.859385 0.826260 0.564377
O O10 0.750000 0.000000 0.524791
O O11 0.000000 0.750000 0.876535
O O12 0.099333 0.912865 0.831095
O O13 0.500000 0.937938 0.750000
#
# Coordination Sequence:
#
# PCOD9507357 Si02
#       5
#    16  16  16  16  16
#     4  11  23  40  65 102 140 176 229 291 345 417
#     4  10  23  42  64 100 136 174 240 297 347 415
#     4  10  22  41  68  95 133 184 227 287 358 426
#     4   9  19  38  69  94 125 179 230 273 337 423
#     4  10  20  41  67  89 130 184 229 267 343 431
#
# _framework density 22.737662
#
# number of rings (size 3 to 8) (size 9 to 14) (size 15 to 20)
#    0.000    2.000    2.000    0.600    0.000    6.000 
#    3.600    0.000    0.000    0.000    0.000    0.000 
#    0.000    0.000    0.000    0.000    0.000    0.000 
#
# Total GULP energy -222890.014684 kJ/mol
# GULP energy per Si atom -5572.250367 kJ/mol
# Density = 2.268591 g / cm^3
# Si number density = 22.737662 Si / 1000 Ang^3
#
#
#
# Elastic Constant Matrix: (Units=GPa)
#
#
# Indices 1 2 3 4 5 6 
#
# 1 63.8432 13.8273 32.2664 0.0000 0.0000 0.0000
# 2 13.8273 106.6430 55.3062 0.0000 0.0000 0.0000
# 3 32.2664 55.3062 205.9358 0.0000 0.0000 0.0000
# 4 0.0000 0.0000 0.0000 72.3302 0.0000 0.0000
# 5 0.0000 0.0000 0.0000 0.0000 10.9719 0.0000
# 6 0.0000 0.0000 0.0000 0.0000 0.0000 22.4196
#
#
#
# Elastic Compliance Matrix: (Units=1/GPa)
#
#
# Indices 1 2 3 4 5 6 
#
# 1 0.017095 -0.000961 -0.002420 0.000000 0.000000 0.000000
# 2 -0.000961 0.010949 -0.002790 0.000000 0.000000 0.000000
# 3 -0.002420 -0.002790 0.005984 0.000000 0.000000 0.000000
# 4 0.000000 0.000000 0.000000 0.013825 0.000000 0.000000
# 5 0.000000 0.000000 0.000000 0.000000 0.091142 0.000000
# 6 0.000000 0.000000 0.000000 0.000000 0.000000 0.044604
#
#
# Mechanical properties :
#
#
# Convention : Reuss Voigt Hill
#
# Bulk Modulus (GPa) = 46.11489 64.35800 55.23644
# Shear Modulus (GPa) = 24.60997 39.47913 32.04455
#
# Velocity S-wave (km/s) = 3.29347 4.17140 3.75816
# Velocity P-wave (km/s) = 5.89813 7.18100 6.57095
#
# Compressibility (1/GPa) = 0.02168497
#
# Stress axis : x y z
#
# Youngs Moduli (GPa) = 58.49732 91.33666 167.10392
#
# Poissons Ratio (x) = 0.08781 0.40444
# Poissons Ratio (y) = 0.05624 0.46617
# Poissons Ratio (z) = 0.14158 0.25480
#
# Static dielectric constant tensor:
#      x y z
#    x 1.782220 0.000000 0.000000 
#    y 0.000000 2.032470 0.000000 
#    z 0.000000 0.000000 2.069000 
# 
# From -- ./inp_files/45169.got.cif
#   From: 2010.05.17/outbox.cif.g08.bks.cpg/sg68_23_cif.got.tgz:45169.got - 2010.06.03 18:57:09.
