data_PCOD9507542
_publ_section_title
;
Structure prediction by ZEFSAII (Michael W. Deem and Ramdas Pophale) SiO2 
 PCOD9507542
Probable space group: C C C A
;
_chemical_formula_sum "Si O2"
_cell_formula_units_Z 96
_cell_length_a 23.529791
_cell_length_b 15.397771
_cell_length_c 12.123473
_cell_angle_alpha 90.000000
_cell_angle_beta 90.000000
_cell_angle_gamma 90.000000
_cell_volume 4392.411052
_symmetry_space_group_name_H-M "C C C A"
_symmetry_group_IT_number 68
_space_group.IT_coordinate_system_code '2'
_symmetry_cell_setting 'orthorhombic'
loop_
_space_group_symop_operation_xyz
x,y,z
-x,1/2-y,z
x,1/2-y,1/2-z
-x,y,1/2-z
-x,-y,-z
x,1/2+y,-z
-x,1/2+y,1/2+z
x,-y,1/2+z
1/2+x,1/2+y,z
1/2-x,-y,z
1/2+x,-y,1/2-z
1/2-x,1/2+y,1/2-z
1/2-x,1/2-y,-z
1/2+x,y,-z
1/2-x,y,1/2+z
1/2+x,1/2-y,1/2+z
loop_
_atom_site_type_symbol
_atom_site_label
_atom_site_fract_x
_atom_site_fract_y
_atom_site_fract_z
Si Si1 0.161665 0.630213 0.360195
Si Si2 0.542150 0.612046 0.011942
Si Si3 0.580525 0.075981 0.554755
Si Si4 0.114670 0.655796 0.780528
Si Si5 0.221168 0.835587 0.559974
Si Si6 0.638414 0.834730 0.623559
O O1 0.122144 0.589842 0.452554
O O2 0.226724 0.610852 0.390400
O O3 0.157144 0.735095 0.363087
O O4 0.142298 0.611759 0.235974
O O5 0.476717 0.631561 0.033808
O O6 0.574611 0.611675 0.128651
O O7 0.554888 0.520697 0.950527
O O8 0.576824 0.674554 0.931382
O O9 0.612354 0.101881 0.667225
O O10 0.090464 0.750000 0.750000
O O11 0.175336 0.675978 0.840741
O O12 0.250000 0.750000 0.500000
O O13 0.182319 0.876139 0.463929
#
# Coordination Sequence:
#
# PCOD9507542 Si02
#       6
#    16  16  16  16  16  16
#     4  10  21  35  64  91 119 166 207 255 317 395
#     4  10  24  43  60  90 131 168 211 274 327 390
#     4  11  24  40  65  90 127 172 214 264 337 388
#     4  11  23  40  70  99 123 172 223 277 325 395
#     4   9  19  36  63  93 128 162 203 266 326 384
#     4   9  20  38  59  90 123 160 209 258 320 387
#
# _framework density 21.855879000000002
#
# number of rings (size 3 to 8) (size 9 to 14) (size 15 to 20)
#    0.000    2.000    0.000    3.500    9.333    4.000 
#    0.000    5.000    0.000    0.000    0.000    0.000 
#    0.000    0.000    0.000    0.000    0.000    0.000 
#
# Total GULP energy -267584.405755 kJ/mol
# GULP energy per Si atom -5574.675120 kJ/mol
# Density = 2.180613 g / cm^3
# Si number density = 21.855879 Si / 1000 Ang^3
#
#
#
# Elastic Constant Matrix: (Units=GPa)
#
#
# Indices 1 2 3 4 5 6 
#
# 1 111.7227 0.7763 44.1863 0.0000 0.0000 0.0000
# 2 0.7763 35.3917 14.5029 0.0000 0.0000 0.0000
# 3 44.1863 14.5029 156.4076 0.0000 0.0000 0.0000
# 4 0.0000 0.0000 0.0000 23.1909 0.0000 0.0000
# 5 0.0000 0.0000 0.0000 0.0000 19.9172 0.0000
# 6 0.0000 0.0000 0.0000 0.0000 0.0000 35.5460
#
#
#
# Elastic Compliance Matrix: (Units=1/GPa)
#
#
# Indices 1 2 3 4 5 6 
#
# 1 0.010110 0.000986 -0.002947 0.000000 0.000000 0.000000
# 2 0.000986 0.029467 -0.003011 0.000000 0.000000 0.000000
# 3 -0.002947 -0.003011 0.007505 0.000000 0.000000 0.000000
# 4 0.000000 0.000000 0.000000 0.043120 0.000000 0.000000
# 5 0.000000 0.000000 0.000000 0.000000 0.050208 0.000000
# 6 0.000000 0.000000 0.000000 0.000000 0.000000 0.028133
#
#
# Mechanical properties :
#
#
# Convention : Reuss Voigt Hill
#
# Bulk Modulus (GPa) = 26.92677 46.93921 36.93299
# Shear Modulus (GPa) = 26.19624 32.00126 29.09875
#
# Velocity S-wave (km/s) = 3.46582 3.83063 3.65278
# Velocity P-wave (km/s) = 5.32567 6.41002 5.89284
#
# Compressibility (1/GPa) = 0.03713776
#
# Stress axis : x y z
#
# Youngs Moduli (GPa) = 98.91585 33.93580 133.23705
#
# Poissons Ratio (x) = -0.03346 0.39271
# Poissons Ratio (y) = -0.09754 0.40117
# Poissons Ratio (z) = 0.29155 0.10218
#
# Static dielectric constant tensor:
#      x y z
#    x 1.841020 0.000000 0.000000 
#    y 0.000000 1.914850 0.000000 
#    z 0.000000 0.000000 1.798330 
# 
# From -- ./inp_files/14627.got.cif
#   From: 2010.05.17/outbox.cif.g08.bks.cpg/sg68_8_cif.got.tgz:14627.got - 2010.06.03 18:57:09.
