data_PCOD9507682
_publ_section_title
;
Structure prediction by ZEFSAII (Michael W. Deem and Ramdas Pophale) SiO2 
 PCOD9507682
Probable space group: C C C A
;
_chemical_formula_sum "Si O2"
_cell_formula_units_Z 80
_cell_length_a 13.844103
_cell_length_b 27.389055
_cell_length_c 9.717701
_cell_angle_alpha 90.000000
_cell_angle_beta 90.000000
_cell_angle_gamma 90.000000
_cell_volume 3684.727726
_symmetry_space_group_name_H-M "C C C A"
_symmetry_group_IT_number 68
_space_group.IT_coordinate_system_code '2'
_symmetry_cell_setting 'orthorhombic'
loop_
_space_group_symop_operation_xyz
x,y,z
-x,1/2-y,z
x,1/2-y,1/2-z
-x,y,1/2-z
-x,-y,-z
x,1/2+y,-z
-x,1/2+y,1/2+z
x,-y,1/2+z
1/2+x,1/2+y,z
1/2-x,-y,z
1/2+x,-y,1/2-z
1/2-x,1/2+y,1/2-z
1/2-x,1/2-y,-z
1/2+x,y,-z
1/2-x,y,1/2+z
1/2+x,1/2-y,1/2+z
loop_
_atom_site_type_symbol
_atom_site_label
_atom_site_fract_x
_atom_site_fract_y
_atom_site_fract_z
Si Si1 0.375434 0.227957 0.394748
Si Si2 0.872707 0.119761 0.507647
Si Si3 0.530744 0.453926 0.908548
Si Si4 0.855290 0.288834 0.361926
Si Si5 0.697569 0.895218 0.202350
O O1 0.405532 0.250000 0.250000
O O2 0.400975 0.176165 0.464602
O O3 0.259668 0.220328 0.377735
O O4 0.398807 0.271965 0.496363
O O5 0.804957 0.106827 0.638923
O O6 0.809110 0.106957 0.369345
O O7 0.969095 0.089284 0.479218
O O8 0.500000 0.461670 0.750000
O O9 0.641181 0.437546 0.881219
O O10 0.500000 0.500000 0.000000
O O11 0.889443 0.250000 0.250000
O O12 0.862161 0.345426 0.329983
#
# Coordination Sequence:
#
# PCOD9507682 Si02
#       5
#    16  16  16  16  16
#     4   9  17  28  51  86 124 157 194 236 289 355
#     4  10  21  38  62  90 123 159 205 248 304 370
#     4  10  24  46  64  86 120 159 206 265 319 370
#     4   9  15  28  51  84 118 155 193 233 289 354
#     4  10  21  37  63  91 120 160 204 250 303 370
#
# _framework density 21.711238999999999
#
# number of rings (size 3 to 8) (size 9 to 14) (size 15 to 20)
#    0.000    2.400    2.000    0.000    8.400    2.400 
#    0.000    5.000    0.000    1.200    0.000    0.000 
#    0.000    0.000    0.000    0.000    0.000    0.000 
#
# Total GULP energy -222706.875200 kJ/mol
# GULP energy per Si atom -5567.671880 kJ/mol
# Density = 2.166182 g / cm^3
# Si number density = 21.711239 Si / 1000 Ang^3
#
#
#
# Elastic Constant Matrix: (Units=GPa)
#
#
# Indices 1 2 3 4 5 6 
#
# 1 70.7114 3.7903 1.1387 0.0000 0.0000 0.0000
# 2 3.7903 51.6901 17.8899 0.0000 0.0000 0.0000
# 3 1.1387 17.8899 92.2330 0.0000 0.0000 0.0000
# 4 0.0000 0.0000 0.0000 37.4495 0.0000 0.0000
# 5 0.0000 0.0000 0.0000 0.0000 -6.4718 0.0000
# 6 0.0000 0.0000 0.0000 0.0000 0.0000 29.4385
#
#
#
# Elastic Compliance Matrix: (Units=1/GPa)
#
#
# Indices 1 2 3 4 5 6 
#
# 1 0.014198 -0.001051 0.000029 0.000000 0.000000 0.000000
# 2 -0.001051 0.020816 -0.004025 0.000000 0.000000 0.000000
# 3 0.000029 -0.004025 0.011622 0.000000 0.000000 0.000000
# 4 0.000000 0.000000 0.000000 0.026703 0.000000 0.000000
# 5 0.000000 0.000000 0.000000 0.000000 -0.154518 0.000000
# 6 0.000000 0.000000 0.000000 0.000000 0.000000 0.033969
#
#
# Mechanical properties :
#
#
# Convention : Reuss Voigt Hill
#
# Bulk Modulus (GPa) = 27.36557 28.91916 28.14236
# Shear Modulus (GPa) = -200.52329 24.87096 -87.82617
#
# Velocity S-wave (km/s) = -9.62080 3.38825 -6.36708
# Velocity P-wave (km/s) = 10.52527 5.35311 6.40802
#
# Compressibility (1/GPa) = 0.03654227
#
# Stress axis : x y z
#
# Youngs Moduli (GPa) = 70.43312 48.03986 86.04093
#
# Poissons Ratio (x) = 0.05049 -0.00246
# Poissons Ratio (y) = 0.07402 0.34628
# Poissons Ratio (z) = -0.00201 0.19334
#
# Static dielectric constant tensor:
#      x y z
#    x 1.847150 0.000000 0.000000 
#    y 0.000000 1.818110 0.000000 
#    z 0.000000 0.000000 1.718190 
# 
# From -- ./inp_files/6232.got.cif
#   From: 2010.05.17/outbox.cif.g08.bks.cpg/sg68_4_cif.got.tgz:6232.got - 2010.06.03 18:57:09.
