data_PCOD9507182
_publ_section_title
;
Structure prediction by ZEFSAII (Michael W. Deem and Ramdas Pophale) SiO2 
 PCOD9507182
Probable space group: C C C A
;
_chemical_formula_sum "Si O2"
_cell_formula_units_Z 68
_cell_length_a 20.584514
_cell_length_b 14.206493
_cell_length_c 11.297341
_cell_angle_alpha 90.000000
_cell_angle_beta 90.000000
_cell_angle_gamma 90.000000
_cell_volume 3303.723839
_symmetry_space_group_name_H-M "C C C A"
_symmetry_group_IT_number 68
_space_group.IT_coordinate_system_code '2'
_symmetry_cell_setting 'orthorhombic'
loop_
_space_group_symop_operation_xyz
x,y,z
-x,1/2-y,z
x,1/2-y,1/2-z
-x,y,1/2-z
-x,-y,-z
x,1/2+y,-z
-x,1/2+y,1/2+z
x,-y,1/2+z
1/2+x,1/2+y,z
1/2-x,-y,z
1/2+x,-y,1/2-z
1/2-x,1/2+y,1/2-z
1/2-x,1/2-y,-z
1/2+x,y,-z
1/2-x,y,1/2+z
1/2+x,1/2-y,1/2+z
loop_
_atom_site_type_symbol
_atom_site_label
_atom_site_fract_x
_atom_site_fract_y
_atom_site_fract_z
Si Si1 0.209962 0.334807 0.437177
Si Si2 0.155779 0.844654 0.172827
Si Si3 0.175015 0.017415 0.861848
Si Si4 0.000000 0.250000 0.250000
Si Si5 0.610423 0.681836 0.412786
O O1 0.250000 0.250000 0.500000
O O2 0.270177 0.373239 0.362563
O O3 0.180387 0.413154 0.523997
O O4 0.151605 0.276024 0.380034
O O5 0.160594 0.750000 0.250000
O O6 0.135671 0.928281 0.259907
O O7 0.112395 0.823281 0.057251
O O8 0.145656 0.915343 0.882169
O O9 0.250000 0.000000 0.832601
O O10 0.044495 0.189785 0.339815
#
# Coordination Sequence:
#
# PCOD9507182 Si02
#       5
#    16  16  16   4  16
#     4  10  20  39  64 107 153 172 222 295 374 427
#     4  11  21  39  70 109 146 180 227 302 376 425
#     4  12  22  37  69 115 149 181 223 305 370 442
#     4  12  32  56  70  84 158 212 240 304 336 440
#     4  11  26  47  67 101 136 201 249 280 360 429
#
# _framework density 20.582834999999999
#
# number of rings (size 3 to 8) (size 9 to 14) (size 15 to 20)
#    0.000    0.941    9.412    0.000    8.235    0.000 
#    0.000    5.294    0.000    0.000    0.000    0.000 
#    0.000    0.000    0.000    0.000    0.000    0.000 
#
# Total GULP energy -189562.840726 kJ/mol
# GULP energy per Si atom -5575.377668 kJ/mol
# Density = 2.053599 g / cm^3
# Si number density = 20.582835 Si / 1000 Ang^3
#
#
#
# Elastic Constant Matrix: (Units=GPa)
#
#
# Indices 1 2 3 4 5 6 
#
# 1 79.4058 38.4110 50.7721 0.0000 0.0000 0.0000
# 2 38.4110 114.4520 58.2565 0.0000 0.0000 0.0000
# 3 50.7721 58.2565 139.5738 0.0000 0.0000 0.0000
# 4 0.0000 0.0000 0.0000 50.5271 0.0000 0.0000
# 5 0.0000 0.0000 0.0000 0.0000 40.9751 0.0000
# 6 0.0000 0.0000 0.0000 0.0000 0.0000 19.2771
#
#
#
# Elastic Compliance Matrix: (Units=1/GPa)
#
#
# Indices 1 2 3 4 5 6 
#
# 1 0.017347 -0.003314 -0.004927 0.000000 0.000000 0.000000
# 2 -0.003314 0.011727 -0.003689 0.000000 0.000000 0.000000
# 3 -0.004927 -0.003689 0.010497 0.000000 0.000000 0.000000
# 4 0.000000 0.000000 0.000000 0.019791 0.000000 0.000000
# 5 0.000000 0.000000 0.000000 0.000000 0.024405 0.000000
# 6 0.000000 0.000000 0.000000 0.000000 0.000000 0.051875
#
#
# Mechanical properties :
#
#
# Convention : Reuss Voigt Hill
#
# Bulk Modulus (GPa) = 63.65159 69.81232 66.73195
# Shear Modulus (GPa) = 30.35086 34.55532 32.45309
#
# Velocity S-wave (km/s) = 3.84418 4.10181 3.97508
# Velocity P-wave (km/s) = 7.12007 7.51163 7.31847
#
# Compressibility (1/GPa) = 0.01571053
#
# Stress axis : x y z
#
# Youngs Moduli (GPa) = 57.64717 85.27064 95.26656
#
# Poissons Ratio (x) = 0.28258 0.46938
# Poissons Ratio (y) = 0.19104 0.35148
# Poissons Ratio (z) = 0.28403 0.31460
#
# Static dielectric constant tensor:
#      x y z
#    x 1.745560 0.000000 0.000000 
#    y 0.000000 1.669400 0.000000 
#    z 0.000000 0.000000 1.879560 
# 
# From -- ./inp_files/15236.got.cif
#   From: 2010.05.17/outbox.cif.g08.bks.cpg/sg68_8_cif.got.tgz:15236.got - 2010.06.03 18:57:09.
