data_PCOD9507152
_publ_section_title
;
Structure prediction by ZEFSAII (Michael W. Deem and Ramdas Pophale) SiO2 
 PCOD9507152
Probable space group: C C C A
;
_chemical_formula_sum "Si O2"
_cell_formula_units_Z 100
_cell_length_a 27.792004
_cell_length_b 21.086005
_cell_length_c 9.146845
_cell_angle_alpha 90.000000
_cell_angle_beta 90.000000
_cell_angle_gamma 90.000000
_cell_volume 5360.255468
_symmetry_space_group_name_H-M "C C C A"
_symmetry_group_IT_number 68
_space_group.IT_coordinate_system_code '2'
_symmetry_cell_setting 'orthorhombic'
loop_
_space_group_symop_operation_xyz
x,y,z
-x,1/2-y,z
x,1/2-y,1/2-z
-x,y,1/2-z
-x,-y,-z
x,1/2+y,-z
-x,1/2+y,1/2+z
x,-y,1/2+z
1/2+x,1/2+y,z
1/2-x,-y,z
1/2+x,-y,1/2-z
1/2-x,1/2+y,1/2-z
1/2-x,1/2-y,-z
1/2+x,y,-z
1/2-x,y,1/2+z
1/2+x,1/2-y,1/2+z
loop_
_atom_site_type_symbol
_atom_site_label
_atom_site_fract_x
_atom_site_fract_y
_atom_site_fract_z
Si Si1 0.127930 0.436904 0.095526
Si Si2 0.312477 0.814637 0.326586
Si Si3 0.541048 0.130236 0.138081
Si Si4 0.209738 0.183538 0.677751
Si Si5 0.485982 0.561931 0.088086
Si Si6 0.640417 0.429475 0.248612
Si Si7 0.500000 0.750000 0.750000
O O1 0.153063 0.376054 0.170232
O O2 0.070606 0.426171 0.090091
O O3 0.144010 0.502505 0.172095
O O4 0.139402 0.442592 0.924249
O O5 0.333118 0.750000 0.250000
O O6 0.265031 0.825836 0.227378
O O7 0.297596 0.809602 0.500815
O O8 0.500000 0.104449 0.250000
O O9 0.591328 0.101203 0.186606
O O10 0.535411 0.205035 0.159821
O O11 0.520703 0.114543 0.980078
O O12 0.193892 0.250000 0.750000
O O13 0.180713 0.125498 0.751930
O O14 0.500000 0.549524 0.250000
O O15 0.500000 0.500000 0.000000
#
# Coordination Sequence:
#
# PCOD9507152 Si02
#       7
#    16  16  16  16  16  16   4
#     4  11  23  39  59  92 124 158 209 251 315 367
#     4  10  22  43  64  89 124 160 203 261 309 375
#     4  10  20  39  61  85 123 158 207 246 306 359
#     4  10  22  40  65  91 119 159 210 246 317 376
#     4  12  22  38  60  90 122 164 205 252 307 375
#     4  11  23  37  61  92 117 162 206 256 305 375
#     4   8  20  36  62  80 116 168 188 248 304 344
#
# _framework density 18.655826000000001
#
# number of rings (size 3 to 8) (size 9 to 14) (size 15 to 20)
#    0.480    0.960    3.200    3.360    1.120    3.200 
#    0.000    3.600    0.000    0.000    0.000    0.000 
#    0.000    0.000    0.000    0.000    0.000    0.000 
#
# Total GULP energy -278360.846756 kJ/mol
# GULP energy per Si atom -5567.216935 kJ/mol
# Density = 1.861336 g / cm^3
# Si number density = 18.655826 Si / 1000 Ang^3
#
#
#
# Elastic Constant Matrix: (Units=GPa)
#
#
# Indices 1 2 3 4 5 6 
#
# 1 77.4828 71.5701 29.1954 0.0000 0.0000 0.0000
# 2 71.5701 183.3722 67.1288 0.0000 0.0000 0.0000
# 3 29.1954 67.1288 101.6879 0.0000 0.0000 0.0000
# 4 0.0000 0.0000 0.0000 28.4319 0.0000 0.0000
# 5 0.0000 0.0000 0.0000 0.0000 23.2948 0.0000
# 6 0.0000 0.0000 0.0000 0.0000 0.0000 35.1254
#
#
#
# Elastic Compliance Matrix: (Units=1/GPa)
#
#
# Indices 1 2 3 4 5 6 
#
# 1 0.020230 -0.007608 -0.000786 0.000000 0.000000 0.000000
# 2 -0.007608 0.010052 -0.004452 0.000000 0.000000 0.000000
# 3 -0.000786 -0.004452 0.012998 0.000000 0.000000 0.000000
# 4 0.000000 0.000000 0.000000 0.035172 0.000000 0.000000
# 5 0.000000 0.000000 0.000000 0.000000 0.042928 0.000000
# 6 0.000000 0.000000 0.000000 0.000000 0.000000 0.028469
#
#
# Mechanical properties :
#
#
# Convention : Reuss Voigt Hill
#
# Bulk Modulus (GPa) = 56.85203 77.59238 67.22221
# Shear Modulus (GPa) = 27.56284 30.34700 28.95492
#
# Velocity S-wave (km/s) = 3.84792 4.03758 3.94389
# Velocity P-wave (km/s) = 7.09100 7.96354 7.53990
#
# Compressibility (1/GPa) = 0.01758952
#
# Stress axis : x y z
#
# Youngs Moduli (GPa) = 49.43273 99.47803 76.93245
#
# Poissons Ratio (x) = 0.75682 0.06045
# Poissons Ratio (y) = 0.37608 0.34249
# Poissons Ratio (z) = 0.03884 0.44285
#
# Static dielectric constant tensor:
#      x y z
#    x 1.649010 0.000000 0.000000 
#    y 0.000000 1.686990 0.000000 
#    z 0.000000 0.000000 1.602820 
# 
# From -- ./inp_files/9013.got.cif
#   From: 2010.05.17/outbox.cif.g08.bks.cpg/sg68_5_cif.got.tgz:9013.got - 2010.06.03 18:57:09.
