data_PCOD9507502
_publ_section_title
;
Structure prediction by ZEFSAII (Michael W. Deem and Ramdas Pophale) SiO2 
 PCOD9507502
Probable space group: C C C A
;
_chemical_formula_sum "Si O2"
_cell_formula_units_Z 68
_cell_length_a 13.465774
_cell_length_b 22.402637
_cell_length_c 9.966003
_cell_angle_alpha 90.000000
_cell_angle_beta 90.000000
_cell_angle_gamma 90.000000
_cell_volume 3006.432633
_symmetry_space_group_name_H-M "C C C A"
_symmetry_group_IT_number 68
_space_group.IT_coordinate_system_code '2'
_symmetry_cell_setting 'orthorhombic'
loop_
_space_group_symop_operation_xyz
x,y,z
-x,1/2-y,z
x,1/2-y,1/2-z
-x,y,1/2-z
-x,-y,-z
x,1/2+y,-z
-x,1/2+y,1/2+z
x,-y,1/2+z
1/2+x,1/2+y,z
1/2-x,-y,z
1/2+x,-y,1/2-z
1/2-x,1/2+y,1/2-z
1/2-x,1/2-y,-z
1/2+x,y,-z
1/2-x,y,1/2+z
1/2+x,1/2-y,1/2+z
loop_
_atom_site_type_symbol
_atom_site_label
_atom_site_fract_x
_atom_site_fract_y
_atom_site_fract_z
Si Si1 0.500000 0.750000 0.750000
Si Si2 0.559537 0.442567 0.867221
Si Si3 0.500000 0.550087 0.750000
Si Si4 0.799442 0.381602 0.551976
Si Si5 0.250000 0.000000 0.718412
Si Si6 0.146927 0.654804 0.176040
O O1 0.431273 0.792477 0.840609
O O2 0.500000 0.407080 0.750000
O O3 0.486430 0.501039 0.868918
O O4 0.595008 0.398010 0.982352
O O5 0.661920 0.474050 0.813914
O O6 0.585171 0.593856 0.799508
O O7 0.766903 0.444041 0.619534
O O8 0.805229 0.336489 0.676631
O O9 0.725076 0.357428 0.439787
#
# Coordination Sequence:
#
# PCOD9507502 Si02
#       6
#     4  16   8  16   8  16
#     4  10  28  52  68  94 106 176 228 304 344 386
#     4  10  21  34  56  97 140 176 211 249 299 407
#     4   9  18  39  52  96 132 187 192 261 290 412
#     4  12  22  40  64 100 132 182 204 268 323 405
#     4  12  20  36  58 102 146 178 206 248 316 418
#     4  11  24  43  70  86 130 165 232 270 340 375
#
# _framework density 22.618169000000002
#
# number of rings (size 3 to 8) (size 9 to 14) (size 15 to 20)
#    0.706    0.471    4.706    2.118    0.000    8.471 
#    0.000    0.000    0.000    1.412    0.000    0.000 
#    0.000    0.000    0.000    0.000    0.000    0.000 
#
# Total GULP energy -189329.087456 kJ/mol
# GULP energy per Si atom -5568.502572 kJ/mol
# Density = 2.256669 g / cm^3
# Si number density = 22.618169 Si / 1000 Ang^3
#
#
#
# Elastic Constant Matrix: (Units=GPa)
#
#
# Indices 1 2 3 4 5 6 
#
# 1 84.7925 20.3175 43.3242 0.0000 0.0000 0.0000
# 2 20.3175 75.3443 35.1245 0.0000 0.0000 0.0000
# 3 43.3242 35.1245 111.8552 0.0000 0.0000 0.0000
# 4 0.0000 0.0000 0.0000 11.7817 0.0000 0.0000
# 5 0.0000 0.0000 0.0000 0.0000 36.1758 0.0000
# 6 0.0000 0.0000 0.0000 0.0000 0.0000 40.0988
#
#
#
# Elastic Compliance Matrix: (Units=1/GPa)
#
#
# Indices 1 2 3 4 5 6 
#
# 1 0.014856 -0.001551 -0.005267 0.000000 0.000000 0.000000
# 2 -0.001551 0.015710 -0.004333 0.000000 0.000000 0.000000
# 3 -0.005267 -0.004333 0.012341 0.000000 0.000000 0.000000
# 4 0.000000 0.000000 0.000000 0.084878 0.000000 0.000000
# 5 0.000000 0.000000 0.000000 0.000000 0.027643 0.000000
# 6 0.000000 0.000000 0.000000 0.000000 0.000000 0.024938
#
#
# Mechanical properties :
#
#
# Convention : Reuss Voigt Hill
#
# Bulk Modulus (GPa) = 48.52900 52.16937 50.34919
# Shear Modulus (GPa) = 23.86219 29.15965 26.51092
#
# Velocity S-wave (km/s) = 3.25160 3.59446 3.42732
# Velocity P-wave (km/s) = 5.96654 6.35155 6.16205
#
# Compressibility (1/GPa) = 0.02060623
#
# Stress axis : x y z
#
# Youngs Moduli (GPa) = 67.31136 63.65204 81.03183
#
# Poissons Ratio (x) = 0.09870 0.42682
# Poissons Ratio (y) = 0.10438 0.35109
# Poissons Ratio (z) = 0.35455 0.27579
#
# Static dielectric constant tensor:
#      x y z
#    x 2.006840 0.000000 0.000000 
#    y 0.000000 1.839540 0.000000 
#    z 0.000000 0.000000 2.121360 
# 
# From -- ./inp_files/13394.got.cif
#   From: 2010.05.17/outbox.cif.g08.bks.cpg/sg68_7_cif.got.tgz:13394.got - 2010.06.03 18:57:09.
