data_PCOD9507934
_publ_section_title
;
Structure prediction by ZEFSAII (Michael W. Deem and Ramdas Pophale) SiO2 
 PCOD9507934
Probable space group: C C C A
;
_chemical_formula_sum "Si O2"
_cell_formula_units_Z 96
_cell_length_a 16.526286
_cell_length_b 19.154170
_cell_length_c 13.695919
_cell_angle_alpha 90.000000
_cell_angle_beta 90.000000
_cell_angle_gamma 90.000000
_cell_volume 4335.406064
_symmetry_space_group_name_H-M "C C C A"
_symmetry_group_IT_number 68
_space_group.IT_coordinate_system_code '2'
_symmetry_cell_setting 'orthorhombic'
loop_
_space_group_symop_operation_xyz
x,y,z
-x,1/2-y,z
x,1/2-y,1/2-z
-x,y,1/2-z
-x,-y,-z
x,1/2+y,-z
-x,1/2+y,1/2+z
x,-y,1/2+z
1/2+x,1/2+y,z
1/2-x,-y,z
1/2+x,-y,1/2-z
1/2-x,1/2+y,1/2-z
1/2-x,1/2-y,-z
1/2+x,y,-z
1/2-x,y,1/2+z
1/2+x,1/2-y,1/2+z
loop_
_atom_site_type_symbol
_atom_site_label
_atom_site_fract_x
_atom_site_fract_y
_atom_site_fract_z
Si Si1 0.120108 0.520559 0.422973
Si Si2 0.153120 0.302147 0.557451
Si Si3 0.773439 0.393080 0.117544
Si Si4 0.443064 0.689010 0.058173
Si Si5 0.459933 0.080755 0.429734
Si Si6 0.301659 0.315050 0.692243
O O1 0.165029 0.457580 0.369479
O O2 0.189669 0.579058 0.428732
O O3 0.090857 0.482993 0.523605
O O4 0.038127 0.550158 0.375520
O O5 0.184335 0.340290 0.458613
O O6 0.103322 0.233588 0.526817
O O7 0.099013 0.360519 0.613231
O O8 0.230900 0.287860 0.622234
O O9 0.763315 0.363114 0.225140
O O10 0.500000 0.750000 0.102961
O O11 0.375425 0.657287 0.128362
O O12 0.497661 0.627375 0.015486
O O13 0.337800 0.250000 0.750000
#
# Coordination Sequence:
#
# PCOD9507934 Si02
#       6
#    16  16  16  16  16  16
#     4   9  19  39  61  87 123 162 206 254 302 375
#     4  10  21  40  61  92 123 160 208 260 313 376
#     4  10  21  40  62  89 125 163 207 255 314 379
#     4  10  21  39  64  95 126 158 209 267 319 377
#     4   9  19  38  67  89 117 171 208 254 322 363
#     4  12  24  37  61  93 122 164 205 251 323 375
#
# _framework density 22.143253999999999
#
# number of rings (size 3 to 8) (size 9 to 14) (size 15 to 20)
#    0.000    2.000    1.667    1.500    2.333    0.333 
#    0.000   19.167    0.000    0.000    0.000    0.000 
#    0.000    0.000    0.000    0.000    0.000    0.000 
#
# Total GULP energy -267776.485337 kJ/mol
# GULP energy per Si atom -5578.676778 kJ/mol
# Density = 2.209285 g / cm^3
# Si number density = 22.143254 Si / 1000 Ang^3
#
#
#
# Elastic Constant Matrix: (Units=GPa)
#
#
# Indices 1 2 3 4 5 6 
#
# 1 125.0187 29.4038 28.6759 0.0000 0.0000 0.0000
# 2 29.4038 88.5204 16.6481 0.0000 0.0000 0.0000
# 3 28.6759 16.6481 43.5524 0.0000 0.0000 0.0000
# 4 0.0000 0.0000 0.0000 14.4295 0.0000 0.0000
# 5 0.0000 0.0000 0.0000 0.0000 9.0223 0.0000
# 6 0.0000 0.0000 0.0000 0.0000 0.0000 53.7147
#
#
#
# Elastic Compliance Matrix: (Units=1/GPa)
#
#
# Indices 1 2 3 4 5 6 
#
# 1 0.009804 -0.002201 -0.005614 0.000000 0.000000 0.000000
# 2 -0.002201 0.012666 -0.003393 0.000000 0.000000 0.000000
# 3 -0.005614 -0.003393 0.027954 0.000000 0.000000 0.000000
# 4 0.000000 0.000000 0.000000 0.069302 0.000000 0.000000
# 5 0.000000 0.000000 0.000000 0.000000 0.110837 0.000000
# 6 0.000000 0.000000 0.000000 0.000000 0.000000 0.018617
#
#
# Mechanical properties :
#
#
# Convention : Reuss Voigt Hill
#
# Bulk Modulus (GPa) = 35.70232 45.17191 40.43712
# Shear Modulus (GPa) = 17.79794 27.59088 22.69441
#
# Velocity S-wave (km/s) = 2.83815 3.53373 3.20486
# Velocity P-wave (km/s) = 5.18637 6.09047 5.65651
#
# Compressibility (1/GPa) = 0.02800939
#
# Stress axis : x y z
#
# Youngs Moduli (GPa) = 101.99801 78.95204 35.77303
#
# Poissons Ratio (x) = 0.17376 0.20083
# Poissons Ratio (y) = 0.22448 0.12136
# Poissons Ratio (z) = 0.57261 0.26785
#
# Static dielectric constant tensor:
#      x y z
#    x 1.853920 0.000000 0.000000 
#    y 0.000000 1.862590 0.000000 
#    z 0.000000 0.000000 1.763700 
# 
# From -- ./inp_files/22373.got.cif
#   From: 2010.05.17/outbox.cif.g08.bks.cpg/sg68_12_cif.got.tgz:22373.got - 2010.06.03 18:57:09.
