data_PCOD9507287
_publ_section_title
;
Structure prediction by ZEFSAII (Michael W. Deem and Ramdas Pophale) SiO2 
 PCOD9507287
Probable space group: C C C A
;
_chemical_formula_sum "Si O2"
_cell_formula_units_Z 120
_cell_length_a 21.522026
_cell_length_b 22.343410
_cell_length_c 10.921826
_cell_angle_alpha 90.000000
_cell_angle_beta 90.000000
_cell_angle_gamma 90.000000
_cell_volume 5252.038003
_symmetry_space_group_name_H-M "C C C A"
_symmetry_group_IT_number 68
_space_group.IT_coordinate_system_code '2'
_symmetry_cell_setting 'orthorhombic'
loop_
_space_group_symop_operation_xyz
x,y,z
-x,1/2-y,z
x,1/2-y,1/2-z
-x,y,1/2-z
-x,-y,-z
x,1/2+y,-z
-x,1/2+y,1/2+z
x,-y,1/2+z
1/2+x,1/2+y,z
1/2-x,-y,z
1/2+x,-y,1/2-z
1/2-x,1/2+y,1/2-z
1/2-x,1/2-y,-z
1/2+x,y,-z
1/2-x,y,1/2+z
1/2+x,1/2-y,1/2+z
loop_
_atom_site_type_symbol
_atom_site_label
_atom_site_fract_x
_atom_site_fract_y
_atom_site_fract_z
Si Si1 0.628385 0.063955 0.939025
Si Si2 0.896523 0.270602 0.378820
Si Si3 0.500000 0.750000 0.573048
Si Si4 0.208253 0.948539 0.322751
Si Si5 0.094749 0.439738 0.819412
Si Si6 0.786656 0.675179 0.627144
Si Si7 0.478278 0.115329 0.407992
Si Si8 0.211086 0.156255 0.392798
O O1 0.677711 0.111025 0.882471
O O2 0.606311 0.008754 0.855391
O O3 0.662178 0.037878 0.062424
O O4 0.567103 0.102327 0.977814
O O5 0.924895 0.250000 0.250000
O O6 0.943425 0.268363 0.487453
O O7 0.839837 0.224250 0.396890
O O8 0.861826 0.334045 0.376142
O O9 0.521142 0.814178 0.627842
O O10 0.164343 0.918766 0.218845
O O11 0.261154 0.909016 0.385249
O O12 0.250000 0.000000 0.264399
O O13 0.055823 0.423311 0.697528
O O14 0.049086 0.408763 0.918470
O O15 0.762465 0.683424 0.765253
O O16 0.736289 0.680457 0.520817
#
# Coordination Sequence:
#
# PCOD9507287 Si02
#       8
#    16  16   8  16  16  16  16  16
#     4  10  20  40  67  92 137 179 232 297 351 429
#     4  10  22  41  65  96 132 180 235 289 359 426
#     4  12  23  43  72  94 144 182 235 311 352 442
#     4  10  22  38  61  95 136 176 228 289 360 430
#     4  10  22  41  64  94 136 179 234 289 363 438
#     4  10  20  40  64  99 136 181 234 290 359 428
#     4  10  23  42  67 100 135 182 240 292 364 431
#     4  10  22  38  65  96 140 180 231 289 352 438
#
# _framework density 22.848274
#
# number of rings (size 3 to 8) (size 9 to 14) (size 15 to 20)
#    0.000    1.867    1.333    1.800    0.000    5.867 
#    0.000    6.667    2.933    0.000    0.000    0.000 
#    0.000    0.000    0.000    0.000    0.000    0.000 
#
# Total GULP energy -334112.050113 kJ/mol
# GULP energy per Si atom -5568.534169 kJ/mol
# Density = 2.279627 g / cm^3
# Si number density = 22.848274 Si / 1000 Ang^3
#
#
#
# Elastic Constant Matrix: (Units=GPa)
#
#
# Indices 1 2 3 4 5 6 
#
# 1 85.8998 36.0731 27.7893 0.0000 0.0000 0.0000
# 2 36.0731 106.7078 16.2444 0.0000 0.0000 0.0000
# 3 27.7893 16.2444 102.6828 0.0000 0.0000 0.0000
# 4 0.0000 0.0000 0.0000 41.5489 0.0000 0.0000
# 5 0.0000 0.0000 0.0000 0.0000 25.5793 0.0000
# 6 0.0000 0.0000 0.0000 0.0000 0.0000 40.4322
#
#
#
# Elastic Compliance Matrix: (Units=1/GPa)
#
#
# Indices 1 2 3 4 5 6 
#
# 1 0.014547 -0.004425 -0.003237 0.000000 0.000000 0.000000
# 2 -0.004425 0.010949 -0.000535 0.000000 0.000000 0.000000
# 3 -0.003237 -0.000535 0.010699 0.000000 0.000000 0.000000
# 4 0.000000 0.000000 0.000000 0.024068 0.000000 0.000000
# 5 0.000000 0.000000 0.000000 0.000000 0.039094 0.000000
# 6 0.000000 0.000000 0.000000 0.000000 0.000000 0.024733
#
#
# Mechanical properties :
#
#
# Convention : Reuss Voigt Hill
#
# Bulk Modulus (GPa) = 50.49941 50.61154 50.55547
# Shear Modulus (GPa) = 33.99445 35.85765 34.92605
#
# Velocity S-wave (km/s) = 3.86143 3.96584 3.91398
# Velocity P-wave (km/s) = 6.48312 6.57037 6.52689
#
# Compressibility (1/GPa) = 0.01980221
#
# Stress axis : x y z
#
# Youngs Moduli (GPa) = 68.74358 91.33579 93.46414
#
# Poissons Ratio (x) = 0.40415 0.30253
# Poissons Ratio (y) = 0.30418 0.04996
# Poissons Ratio (z) = 0.22251 0.04882
#
# Static dielectric constant tensor:
#      x y z
#    x 1.892640 0.000000 0.000000 
#    y 0.000000 1.924670 0.000000 
#    z 0.000000 0.000000 1.916130 
# 
# From -- ./inp_files/15789.got.cif
#   From: 2010.05.17/outbox.cif.g08.bks.cpg/sg68_8_cif.got.tgz:15789.got - 2010.06.03 18:57:09.
