data_PCOD9507020
_publ_section_title
;
Structure prediction by ZEFSAII (Michael W. Deem and Ramdas Pophale) SiO2 
 PCOD9507020
Probable space group: C C C A
;
_chemical_formula_sum "Si O2"
_cell_formula_units_Z 92
_cell_length_a 9.220069
_cell_length_b 21.966186
_cell_length_c 21.485952
_cell_angle_alpha 90.000000
_cell_angle_beta 90.000000
_cell_angle_gamma 90.000000
_cell_volume 4351.544500
_symmetry_space_group_name_H-M "C C C A"
_symmetry_group_IT_number 68
_space_group.IT_coordinate_system_code '2'
_symmetry_cell_setting 'orthorhombic'
loop_
_space_group_symop_operation_xyz
x,y,z
-x,1/2-y,z
x,1/2-y,1/2-z
-x,y,1/2-z
-x,-y,-z
x,1/2+y,-z
-x,1/2+y,1/2+z
x,-y,1/2+z
1/2+x,1/2+y,z
1/2-x,-y,z
1/2+x,-y,1/2-z
1/2-x,1/2+y,1/2-z
1/2-x,1/2-y,-z
1/2+x,y,-z
1/2-x,y,1/2+z
1/2+x,1/2-y,1/2+z
loop_
_atom_site_type_symbol
_atom_site_label
_atom_site_fract_x
_atom_site_fract_y
_atom_site_fract_z
Si Si1 0.216117 0.433866 0.271311
Si Si2 0.500000 0.250000 0.750000
Si Si3 0.780880 0.932928 0.627344
Si Si4 0.520416 0.344770 0.645232
Si Si5 0.228592 0.778300 0.067968
Si Si6 0.449396 0.668762 0.617423
Si Si7 0.000000 0.855701 0.250000
O O1 0.250000 0.500000 0.299181
O O2 0.166797 0.443456 0.199567
O O3 0.119502 0.390993 0.314348
O O4 0.363492 0.398439 0.259695
O O5 0.445298 0.299768 0.697430
O O6 0.631201 0.895899 0.619116
O O7 0.906314 0.885703 0.606677
O O8 0.750000 0.000000 0.600891
O O9 0.629153 0.307277 0.599946
O O10 0.169209 0.719474 0.103512
O O11 0.090706 0.824350 0.073866
O O12 0.250000 0.750000 0.000000
O O13 0.496389 0.681454 0.687521
#
# Coordination Sequence:
#
# PCOD9507020 Si02
#       7
#    16   4  16  16  16  16   8
#     4  10  21  34  60  96 143 183 212 264 338 419
#     4  12  24  34  56 102 134 160 216 266 340 396
#     4  10  22  39  64  99 145 171 210 273 348 418
#     4  12  23  39  62  98 135 179 221 278 335 412
#     4  11  26  44  66  89 129 182 234 281 332 401
#     4  10  23  42  65  98 130 177 215 279 339 408
#     4  10  20  38  60 104 137 167 212 272 346 410
#
# _framework density 21.141919000000001
#
# number of rings (size 3 to 8) (size 9 to 14) (size 15 to 20)
#    0.000    1.391    3.478    1.043    9.739    5.565 
#    0.000    0.000    0.000    5.217    0.000    0.000 
#    0.000    0.000    0.000    0.000    0.000    0.000 
#
# Total GULP energy -256156.787309 kJ/mol
# GULP energy per Si atom -5568.625811 kJ/mol
# Density = 2.109380 g / cm^3
# Si number density = 21.141919 Si / 1000 Ang^3
#
#
#
# Elastic Constant Matrix: (Units=GPa)
#
#
# Indices 1 2 3 4 5 6 
#
# 1 107.2732 38.2117 40.9615 0.0000 0.0000 0.0000
# 2 38.2117 120.2569 26.8177 0.0000 0.0000 0.0000
# 3 40.9615 26.8177 82.9151 0.0000 0.0000 0.0000
# 4 0.0000 0.0000 0.0000 14.4712 0.0000 0.0000
# 5 0.0000 0.0000 0.0000 0.0000 9.1320 0.0000
# 6 0.0000 0.0000 0.0000 0.0000 0.0000 -14.6086
#
#
#
# Elastic Compliance Matrix: (Units=1/GPa)
#
#
# Indices 1 2 3 4 5 6 
#
# 1 0.012277 -0.002747 -0.005177 0.000000 0.000000 0.000000
# 2 -0.002747 0.009576 -0.001740 0.000000 0.000000 0.000000
# 3 -0.005177 -0.001740 0.015181 0.000000 0.000000 0.000000
# 4 0.000000 0.000000 0.000000 0.069103 0.000000 0.000000
# 5 0.000000 0.000000 0.000000 0.000000 0.109505 0.000000
# 6 0.000000 0.000000 0.000000 0.000000 0.000000 -0.068453
#
#
# Mechanical properties :
#
#
# Convention : Reuss Voigt Hill
#
# Bulk Modulus (GPa) = 56.47584 58.04742 57.26163
# Shear Modulus (GPa) = 28.99912 15.42922 22.21417
#
# Velocity S-wave (km/s) = 3.70758 2.70440 3.24499
# Velocity P-wave (km/s) = 6.71558 6.10470 6.41741
#
# Compressibility (1/GPa) = 0.01770669
#
# Stress axis : x y z
#
# Youngs Moduli (GPa) = 81.45273 104.42334 65.87248
#
# Poissons Ratio (x) = 0.28681 0.34100
# Poissons Ratio (y) = 0.22372 0.11465
# Poissons Ratio (z) = 0.42166 0.18175
#
# Static dielectric constant tensor:
#      x y z
#    x 1.835480 0.000000 0.000000 
#    y 0.000000 1.826820 0.000000 
#    z 0.000000 0.000000 1.817840 
# 
# From -- ./inp_files/36317.got.cif
#   From: 2010.05.17/outbox.cif.g08.bks.cpg/sg68_19_cif.got.tgz:36317.got - 2010.06.03 18:57:09.
