data_PCOD9507090
_publ_section_title
;
Structure prediction by ZEFSAII (Michael W. Deem and Ramdas Pophale) SiO2 
 PCOD9507090
Probable space group: C C C A
;
_chemical_formula_sum "Si O2"
_cell_formula_units_Z 108
_cell_length_a 10.103266
_cell_length_b 15.683921
_cell_length_c 31.357136
_cell_angle_alpha 90.000000
_cell_angle_beta 90.000000
_cell_angle_gamma 90.000000
_cell_volume 4968.814951
_symmetry_space_group_name_H-M "C C C A"
_symmetry_group_IT_number 68
_space_group.IT_coordinate_system_code '2'
_symmetry_cell_setting 'orthorhombic'
loop_
_space_group_symop_operation_xyz
x,y,z
-x,1/2-y,z
x,1/2-y,1/2-z
-x,y,1/2-z
-x,-y,-z
x,1/2+y,-z
-x,1/2+y,1/2+z
x,-y,1/2+z
1/2+x,1/2+y,z
1/2-x,-y,z
1/2+x,-y,1/2-z
1/2-x,1/2+y,1/2-z
1/2-x,1/2-y,-z
1/2+x,y,-z
1/2-x,y,1/2+z
1/2+x,1/2-y,1/2+z
loop_
_atom_site_type_symbol
_atom_site_label
_atom_site_fract_x
_atom_site_fract_y
_atom_site_fract_z
Si Si1 0.836984 0.380044 0.689979
Si Si2 0.469303 0.904291 0.945570
Si Si3 0.240763 0.119139 0.385790
Si Si4 0.430465 0.490162 0.165642
Si Si5 0.750000 0.000000 0.244022
Si Si6 0.630915 0.936884 0.465118
Si Si7 0.000000 0.750000 0.250000
Si Si8 0.716871 0.814794 0.901789
O O1 0.744222 0.418684 0.725846
O O2 0.777766 0.342980 0.647151
O O3 0.921687 0.459937 0.671325
O O4 0.921007 0.311451 0.717185
O O5 0.322148 0.912288 0.926945
O O6 0.568565 0.837456 0.921591
O O7 0.537325 0.996190 0.941202
O O8 0.447929 0.892735 0.996167
O O9 0.117009 0.066675 0.365870
O O10 0.233474 0.217791 0.397656
O O11 0.351920 0.094726 0.350399
O O12 0.373906 0.504699 0.212541
O O13 0.690332 0.868629 0.433003
O O14 0.750000 0.000000 0.480675
#
# Coordination Sequence:
#
# PCOD9507090 Si02
#       8
#    16  16  16  16   8  16   4  16
#     4  12  23  38  68  98 134 166 223 272 324 388
#     4  10  20  38  64  92 127 172 211 271 324 404
#     4  10  21  37  66  90 126 164 219 267 323 387
#     4  10  22  41  59  97 131 175 216 261 333 403
#     4  10  22  38  60  96 126 172 214 268 310 398
#     4   9  22  39  60  94 133 166 217 264 341 397
#     4  12  24  40  64 108 126 170 216 288 320 380
#     4  11  23  38  65 102 128 166 222 282 326 380
#
# _framework density 21.735565999999999
#
# number of rings (size 3 to 8) (size 9 to 14) (size 15 to 20)
#    0.000    1.778    2.963    1.333    7.259    0.593 
#    0.000    0.000    0.000    6.222    0.000    0.000 
#    0.000    0.000    0.000    0.000    0.000    0.000 
#
# Total GULP energy -300774.957454 kJ/mol
# GULP energy per Si atom -5569.906620 kJ/mol
# Density = 2.168609 g / cm^3
# Si number density = 21.735566 Si / 1000 Ang^3
#
#
#
# Elastic Constant Matrix: (Units=GPa)
#
#
# Indices 1 2 3 4 5 6 
#
# 1 33.4860 43.9601 27.2514 0.0000 0.0000 0.0000
# 2 43.9601 122.9719 77.1436 0.0000 0.0000 0.0000
# 3 27.2514 77.1436 116.5777 0.0000 0.0000 0.0000
# 4 0.0000 0.0000 0.0000 21.8840 0.0000 0.0000
# 5 0.0000 0.0000 0.0000 0.0000 27.6231 0.0000
# 6 0.0000 0.0000 0.0000 0.0000 0.0000 8.7941
#
#
#
# Elastic Compliance Matrix: (Units=1/GPa)
#
#
# Indices 1 2 3 4 5 6 
#
# 1 0.056276 -0.020286 0.000269 0.000000 0.000000 0.000000
# 2 -0.020286 0.021217 -0.009298 0.000000 0.000000 0.000000
# 3 0.000269 -0.009298 0.014668 0.000000 0.000000 0.000000
# 4 0.000000 0.000000 0.000000 0.045695 0.000000 0.000000
# 5 0.000000 0.000000 0.000000 0.000000 0.036202 0.000000
# 6 0.000000 0.000000 0.000000 0.000000 0.000000 0.113712
#
#
# Mechanical properties :
#
#
# Convention : Reuss Voigt Hill
#
# Bulk Modulus (GPa) = 29.82371 63.30508 46.56439
# Shear Modulus (GPa) = 13.98305 19.97228 16.97766
#
# Velocity S-wave (km/s) = 2.53914 3.03458 2.79785
# Velocity P-wave (km/s) = 4.72729 6.43946 5.64862
#
# Compressibility (1/GPa) = 0.03353037
#
# Stress axis : x y z
#
# Youngs Moduli (GPa) = 17.76957 47.13304 68.17746
#
# Poissons Ratio (x) = 0.95616 -0.01834
# Poissons Ratio (y) = 0.36048 0.63388
# Poissons Ratio (z) = -0.00478 0.43822
#
# Static dielectric constant tensor:
#      x y z
#    x 1.877570 0.000000 0.000000 
#    y 0.000000 1.920060 0.000000 
#    z 0.000000 0.000000 1.815570 
# 
# From -- ./inp_files/54863.got.cif
#   From: 2010.05.17/outbox.cif.g08.bks.cpg/sg68_28_cif.got.tgz:54863.got - 2010.06.03 18:57:09.
