data_PCOD9507631
_publ_section_title
;
Structure prediction by ZEFSAII (Michael W. Deem and Ramdas Pophale) SiO2 
 PCOD9507631
Probable space group: C C C A
;
_chemical_formula_sum "Si O2"
_cell_formula_units_Z 84
_cell_length_a 11.361328
_cell_length_b 19.490830
_cell_length_c 20.749377
_cell_angle_alpha 90.000000
_cell_angle_beta 90.000000
_cell_angle_gamma 90.000000
_cell_volume 4594.777579
_symmetry_space_group_name_H-M "C C C A"
_symmetry_group_IT_number 68
_space_group.IT_coordinate_system_code '2'
_symmetry_cell_setting 'orthorhombic'
loop_
_space_group_symop_operation_xyz
x,y,z
-x,1/2-y,z
x,1/2-y,1/2-z
-x,y,1/2-z
-x,-y,-z
x,1/2+y,-z
-x,1/2+y,1/2+z
x,-y,1/2+z
1/2+x,1/2+y,z
1/2-x,-y,z
1/2+x,-y,1/2-z
1/2-x,1/2+y,1/2-z
1/2-x,1/2-y,-z
1/2+x,y,-z
1/2-x,y,1/2+z
1/2+x,1/2-y,1/2+z
loop_
_atom_site_type_symbol
_atom_site_label
_atom_site_fract_x
_atom_site_fract_y
_atom_site_fract_z
Si Si1 0.633365 0.328029 0.728132
Si Si2 0.500000 0.250000 0.250000
Si Si3 0.072471 0.073201 0.133750
Si Si4 0.195848 0.427843 0.087428
Si Si5 0.500000 0.018669 0.250000
Si Si6 0.655982 0.133625 0.187000
Si Si7 0.750000 0.500000 0.037899
O O1 0.656349 0.250000 0.750000
O O2 0.500000 0.340834 0.750000
O O3 0.630814 0.354134 0.654584
O O4 0.732187 0.369234 0.765782
O O5 0.580704 0.200828 0.205522
O O6 0.937586 0.082321 0.110721
O O7 0.148534 0.032909 0.081331
O O8 0.070404 0.027988 0.199277
O O9 0.250000 0.500000 0.113565
O O10 0.285474 0.371883 0.116491
O O11 0.201269 0.441486 0.010956
O O12 0.576136 0.069016 0.205220
#
# Coordination Sequence:
#
# PCOD9507631 Si02
#       7
#    16   4  16  16   8  16   8
#     4  11  22  35  58  89 121 158 192 250 306 365
#     4  10  24  36  62  84 122 176 202 268 306 376
#     4  12  20  37  59  93 124 154 203 249 323 367
#     4  10  21  37  57  86 124 160 198 254 305 365
#     4  11  20  31  61  92 117 154 188 274 315 358
#     4  11  20  38  55  87 126 155 212 251 314 363
#     4  10  24  36  60  92 126 164 200 256 306 376
#
# _framework density 18.281624000000001
#
# number of rings (size 3 to 8) (size 9 to 14) (size 15 to 20)
#    0.571    0.571    5.714    1.714    0.000    0.000 
#    0.000    0.000    0.000    3.429    0.000    0.000 
#    0.000    0.000    0.000    0.000    0.000    0.000 
#
# Total GULP energy -233857.551214 kJ/mol
# GULP energy per Si atom -5568.036934 kJ/mol
# Density = 1.824001 g / cm^3
# Si number density = 18.281624 Si / 1000 Ang^3
#
#
#
# Elastic Constant Matrix: (Units=GPa)
#
#
# Indices 1 2 3 4 5 6 
#
# 1 81.6832 33.8164 37.6418 0.0000 0.0000 0.0000
# 2 33.8164 83.1407 44.5014 0.0000 0.0000 0.0000
# 3 37.6418 44.5014 111.6262 0.0000 0.0000 0.0000
# 4 0.0000 0.0000 0.0000 19.7241 0.0000 0.0000
# 5 0.0000 0.0000 0.0000 0.0000 31.5364 0.0000
# 6 0.0000 0.0000 0.0000 0.0000 0.0000 15.2116
#
#
#
# Elastic Compliance Matrix: (Units=1/GPa)
#
#
# Indices 1 2 3 4 5 6 
#
# 1 0.015728 -0.004524 -0.003500 0.000000 0.000000 0.000000
# 2 -0.004524 0.016592 -0.005089 0.000000 0.000000 0.000000
# 3 -0.003500 -0.005089 0.012168 0.000000 0.000000 0.000000
# 4 0.000000 0.000000 0.000000 0.050699 0.000000 0.000000
# 5 0.000000 0.000000 0.000000 0.000000 0.031709 0.000000
# 6 0.000000 0.000000 0.000000 0.000000 0.000000 0.065739
#
#
# Mechanical properties :
#
#
# Convention : Reuss Voigt Hill
#
# Bulk Modulus (GPa) = 54.76027 56.48547 55.62287
# Shear Modulus (GPa) = 22.22727 23.99379 23.11053
#
# Velocity S-wave (km/s) = 3.49065 3.62671 3.55933
# Velocity P-wave (km/s) = 6.80183 6.96433 6.88356
#
# Compressibility (1/GPa) = 0.01826141
#
# Stress axis : x y z
#
# Youngs Moduli (GPa) = 63.57983 60.27109 82.18506
#
# Poissons Ratio (x) = 0.27265 0.28768
# Poissons Ratio (y) = 0.28762 0.41825
# Poissons Ratio (z) = 0.22255 0.30672
#
# Static dielectric constant tensor:
#      x y z
#    x 1.624580 0.000000 0.000000 
#    y 0.000000 1.711890 0.000000 
#    z 0.000000 0.000000 1.646910 
# 
# From -- ./inp_files/37628.got.cif
#   From: 2010.05.17/outbox.cif.g08.bks.cpg/sg68_19_cif.got.tgz:37628.got - 2010.06.03 18:57:09.
