data_PCOD9507698
_publ_section_title
;
Structure prediction by ZEFSAII (Michael W. Deem and Ramdas Pophale) SiO2 
 PCOD9507698
Probable space group: C C C A
;
_chemical_formula_sum "Si O2"
_cell_formula_units_Z 108
_cell_length_a 11.626357
_cell_length_b 31.620383
_cell_length_c 15.131859
_cell_angle_alpha 90.000000
_cell_angle_beta 90.000000
_cell_angle_gamma 90.000000
_cell_volume 5562.923224
_symmetry_space_group_name_H-M "C C C A"
_symmetry_group_IT_number 68
_space_group.IT_coordinate_system_code '2'
_symmetry_cell_setting 'orthorhombic'
loop_
_space_group_symop_operation_xyz
x,y,z
-x,1/2-y,z
x,1/2-y,1/2-z
-x,y,1/2-z
-x,-y,-z
x,1/2+y,-z
-x,1/2+y,1/2+z
x,-y,1/2+z
1/2+x,1/2+y,z
1/2-x,-y,z
1/2+x,-y,1/2-z
1/2-x,1/2+y,1/2-z
1/2-x,1/2-y,-z
1/2+x,y,-z
1/2-x,y,1/2+z
1/2+x,1/2-y,1/2+z
loop_
_atom_site_type_symbol
_atom_site_label
_atom_site_fract_x
_atom_site_fract_y
_atom_site_fract_z
Si Si1 0.685460 0.571378 0.585038
Si Si2 0.507812 0.505983 0.854296
Si Si3 0.066489 0.085678 0.154265
Si Si4 0.656069 0.776465 0.099130
Si Si5 0.904281 0.717460 0.438650
Si Si6 0.250000 0.500000 0.554439
Si Si7 0.043947 0.355181 0.006422
Si Si8 0.500000 0.250000 0.750000
O O1 0.582132 0.542496 0.622545
O O2 0.793078 0.583169 0.649855
O O3 0.731548 0.541210 0.506509
O O4 0.624471 0.612755 0.546306
O O5 0.500000 0.502643 0.750000
O O6 0.468425 0.459799 0.887174
O O7 0.637418 0.510315 0.887918
O O8 0.000000 0.090198 0.250000
O O9 0.019712 0.120989 0.086881
O O10 0.790069 0.778033 0.117301
O O11 0.622382 0.817290 0.042986
O O12 0.580917 0.776536 0.186272
O O13 0.627337 0.735573 0.037585
O O14 0.000000 0.750000 0.405650
O O15 0.950909 0.670143 0.447615
#
# Coordination Sequence:
#
# PCOD9507698 Si02
#       8
#    16  16  16  16  16   8  16   4
#     4  12  23  41  65  89 124 166 224 265 313 387
#     4  11  25  40  62  87 122 166 210 268 330 376
#     4  11  24  38  60  90 127 166 209 269 326 371
#     4  10  21  37  66  95 130 165 205 255 311 382
#     4   9  19  41  64  89 126 168 207 247 309 380
#     4  12  22  40  64  88 118 164 218 262 314 388
#     4  11  21  38  62  98 125 164 217 260 311 378
#     4  12  20  40  66 104 124 166 204 254 312 380
#
# _framework density 19.414252000000001
#
# number of rings (size 3 to 8) (size 9 to 14) (size 15 to 20)
#    0.000    1.185    5.185    2.222    5.185    0.000 
#    0.000    0.370    0.000    0.000    0.000    0.000 
#    0.000    0.000    0.000    0.000    0.000    0.000 
#
# Total GULP energy -301222.910360 kJ/mol
# GULP energy per Si atom -5578.202044 kJ/mol
# Density = 1.937006 g / cm^3
# Si number density = 19.414252 Si / 1000 Ang^3
#
#
#
# Elastic Constant Matrix: (Units=GPa)
#
#
# Indices 1 2 3 4 5 6 
#
# 1 177.4903 40.0099 50.0150 0.0000 0.0000 0.0000
# 2 40.0099 105.2027 24.0000 0.0000 0.0000 0.0000
# 3 50.0150 24.0000 53.0961 0.0000 0.0000 0.0000
# 4 0.0000 0.0000 0.0000 11.9979 0.0000 0.0000
# 5 0.0000 0.0000 0.0000 0.0000 19.0589 0.0000
# 6 0.0000 0.0000 0.0000 0.0000 0.0000 30.8080
#
#
#
# Elastic Compliance Matrix: (Units=1/GPa)
#
#
# Indices 1 2 3 4 5 6 
#
# 1 0.007864 -0.001450 -0.006752 0.000000 0.000000 0.000000
# 2 -0.001450 0.010866 -0.003545 0.000000 0.000000 0.000000
# 3 -0.006752 -0.003545 0.026796 0.000000 0.000000 0.000000
# 4 0.000000 0.000000 0.000000 0.083348 0.000000 0.000000
# 5 0.000000 0.000000 0.000000 0.000000 0.052469 0.000000
# 6 0.000000 0.000000 0.000000 0.000000 0.000000 0.032459
#
#
# Mechanical properties :
#
#
# Convention : Reuss Voigt Hill
#
# Bulk Modulus (GPa) = 45.39070 62.64877 54.01973
# Shear Modulus (GPa) = 20.43821 27.15724 23.79772
#
# Velocity S-wave (km/s) = 3.24812 3.74415 3.50492
# Velocity P-wave (km/s) = 6.12355 7.14360 6.65316
#
# Compressibility (1/GPa) = 0.02203095
#
# Stress axis : x y z
#
# Youngs Moduli (GPa) = 127.16788 92.03158 37.31868
#
# Poissons Ratio (x) = 0.13348 0.25197
# Poissons Ratio (y) = 0.18444 0.13231
# Poissons Ratio (z) = 0.85860 0.32628
#
# Static dielectric constant tensor:
#      x y z
#    x 1.774560 0.000000 0.000000 
#    y 0.000000 1.682190 0.000000 
#    z 0.000000 0.000000 1.692410 
# 
# From -- ./inp_files/21297.got.cif
#   From: 2010.05.17/outbox.cif.g08.bks.cpg/sg68_11_cif.got.tgz:21297.got - 2010.06.03 18:57:09.
