data_PCOD9507918
_publ_section_title
;
Structure prediction by ZEFSAII (Michael W. Deem and Ramdas Pophale) SiO2 
 PCOD9507918
Probable space group: C C C A
;
_chemical_formula_sum "Si O2"
_cell_formula_units_Z 72
_cell_length_a 26.461043
_cell_length_b 13.442329
_cell_length_c 9.242821
_cell_angle_alpha 90.000000
_cell_angle_beta 90.000000
_cell_angle_gamma 90.000000
_cell_volume 3287.653366
_symmetry_space_group_name_H-M "C C C A"
_symmetry_group_IT_number 68
_space_group.IT_coordinate_system_code '2'
_symmetry_cell_setting 'orthorhombic'
loop_
_space_group_symop_operation_xyz
x,y,z
-x,1/2-y,z
x,1/2-y,1/2-z
-x,y,1/2-z
-x,-y,-z
x,1/2+y,-z
-x,1/2+y,1/2+z
x,-y,1/2+z
1/2+x,1/2+y,z
1/2-x,-y,z
1/2+x,-y,1/2-z
1/2-x,1/2+y,1/2-z
1/2-x,1/2-y,-z
1/2+x,y,-z
1/2-x,y,1/2+z
1/2+x,1/2-y,1/2+z
loop_
_atom_site_type_symbol
_atom_site_label
_atom_site_fract_x
_atom_site_fract_y
_atom_site_fract_z
Si Si1 0.009500 0.130343 0.589055
Si Si2 0.608088 0.867390 0.085030
Si Si3 0.250000 0.500000 0.297771
Si Si4 0.587806 0.130913 0.912024
Si Si5 0.320352 0.466899 0.046597
O O1 0.065016 0.105369 0.531022
O O2 0.000000 0.250000 0.598976
O O3 0.000000 0.090436 0.750000
O O4 0.967988 0.105740 0.467618
O O5 0.601672 0.748300 0.089891
O O6 0.596085 0.904449 0.247766
O O7 0.662018 0.916698 0.046233
O O8 0.288096 0.444830 0.188837
O O9 0.286068 0.558555 0.408039
O O10 0.626928 0.087042 0.027215
#
# Coordination Sequence:
#
# PCOD9507918 Si02
#       5
#    16  16   8  16  16
#     4   9  19  34  57  92 128 154 190 240 287 347
#     4  10  21  39  63  90 121 159 196 236 293 358
#     4  10  24  42  62  84 120 152 196 258 310 332
#     4  10  21  39  63  90 121 159 196 236 293 358
#     4  11  22  43  62  86 118 157 194 253 300 354
#
# _framework density 21.900120999999999
#
# number of rings (size 3 to 8) (size 9 to 14) (size 15 to 20)
#    0.000    2.000    2.222    0.667    3.111    3.556 
#    0.000    6.667    0.000    0.000    0.000    0.000 
#    0.000    0.000    0.000    0.000    0.000    0.000 
#
# Total GULP energy -200801.574294 kJ/mol
# GULP energy per Si atom -5577.821508 kJ/mol
# Density = 2.185027 g / cm^3
# Si number density = 21.900121 Si / 1000 Ang^3
#
#
#
# Elastic Constant Matrix: (Units=GPa)
#
#
# Indices 1 2 3 4 5 6 
#
# 1 94.8375 -4.3044 37.7570 0.0000 0.0000 0.0000
# 2 -4.3044 43.9927 9.3417 0.0000 0.0000 0.0000
# 3 37.7570 9.3417 141.5200 0.0000 0.0000 0.0000
# 4 0.0000 0.0000 0.0000 14.1663 0.0000 0.0000
# 5 0.0000 0.0000 0.0000 0.0000 34.3672 0.0000
# 6 0.0000 0.0000 0.0000 0.0000 0.0000 7.2484
#
#
#
# Elastic Compliance Matrix: (Units=1/GPa)
#
#
# Indices 1 2 3 4 5 6 
#
# 1 0.011948 0.001872 -0.003311 0.000000 0.000000 0.000000
# 2 0.001872 0.023348 -0.002041 0.000000 0.000000 0.000000
# 3 -0.003311 -0.002041 0.008084 0.000000 0.000000 0.000000
# 4 0.000000 0.000000 0.000000 0.070590 0.000000 0.000000
# 5 0.000000 0.000000 0.000000 0.000000 0.029097 0.000000
# 6 0.000000 0.000000 0.000000 0.000000 0.000000 0.137961
#
#
# Mechanical properties :
#
#
# Convention : Reuss Voigt Hill
#
# Bulk Modulus (GPa) = 27.45748 40.65988 34.05868
# Shear Modulus (GPa) = 16.65959 26.99345 21.82652
#
# Velocity S-wave (km/s) = 2.76109 3.51461 3.16038
# Velocity P-wave (km/s) = 4.76756 5.92253 5.37615
#
# Compressibility (1/GPa) = 0.03641995
#
# Stress axis : x y z
#
# Youngs Moduli (GPa) = 83.69915 42.83112 123.69751
#
# Poissons Ratio (x) = -0.08018 0.40958
# Poissons Ratio (y) = -0.15669 0.25242
# Poissons Ratio (z) = 0.27714 0.08740
#
# Static dielectric constant tensor:
#      x y z
#    x 1.777730 0.000000 0.000000 
#    y 0.000000 1.882360 0.000000 
#    z 0.000000 0.000000 1.787600 
# 
# From -- ./inp_files/8648.got.cif
#   From: 2010.05.17/outbox.cif.g08.bks.cpg/sg68_5_cif.got.tgz:8648.got - 2010.06.03 18:57:09.
