data_PCOD9507792
_publ_section_title
;
Structure prediction by ZEFSAII (Michael W. Deem and Ramdas Pophale) SiO2 
 PCOD9507792
Probable space group: C C C A
;
_chemical_formula_sum "Si O2"
_cell_formula_units_Z 64
_cell_length_a 8.519454
_cell_length_b 20.230041
_cell_length_c 15.570859
_cell_angle_alpha 90.000000
_cell_angle_beta 90.000000
_cell_angle_gamma 90.000000
_cell_volume 2683.620479
_symmetry_space_group_name_H-M "C C C A"
_symmetry_group_IT_number 68
_space_group.IT_coordinate_system_code '2'
_symmetry_cell_setting 'orthorhombic'
loop_
_space_group_symop_operation_xyz
x,y,z
-x,1/2-y,z
x,1/2-y,1/2-z
-x,y,1/2-z
-x,-y,-z
x,1/2+y,-z
-x,1/2+y,1/2+z
x,-y,1/2+z
1/2+x,1/2+y,z
1/2-x,-y,z
1/2+x,-y,1/2-z
1/2-x,1/2+y,1/2-z
1/2-x,1/2-y,-z
1/2+x,y,-z
1/2-x,y,1/2+z
1/2+x,1/2-y,1/2+z
loop_
_atom_site_type_symbol
_atom_site_label
_atom_site_fract_x
_atom_site_fract_y
_atom_site_fract_z
Si Si1 0.160223 0.438559 0.715625
Si Si2 0.591705 0.149282 0.539461
Si Si3 0.196234 0.924342 0.603395
Si Si4 0.112034 0.693832 0.112147
O O1 0.250000 0.500000 0.673315
O O2 0.253537 0.410534 0.798172
O O3 0.108590 0.377232 0.658257
O O4 0.000000 0.469780 0.750000
O O5 0.703819 0.113666 0.469458
O O6 0.485521 0.096352 0.590997
O O7 0.700627 0.198777 0.595488
O O8 0.467691 0.185320 0.479838
O O9 0.250000 0.000000 0.591404
O O10 0.000000 0.750000 0.153511
#
# Coordination Sequence:
#
# PCOD9507792 Si02
#       4
#    16  16  16  16
#     4  11  25  43  67 101 145 184 237 300 373 432
#     4  10  22  40  65  99 135 183 243 295 365 431
#     4  10  21  38  64 101 142 181 238 298 370 436
#     4  11  24  43  69  97 137 189 240 297 366 439
#
# _framework density 23.848378
#
# number of rings (size 3 to 8) (size 9 to 14) (size 15 to 20)
#    0.000    1.500    2.500    1.500    7.000    4.500 
#    0.000    0.000    0.000    0.000    6.500    0.000 
#    0.000    0.000    0.000    0.000    0.000    0.000 
#
# Total GULP energy -178464.172364 kJ/mol
# GULP energy per Si atom -5577.005386 kJ/mol
# Density = 2.379410 g / cm^3
# Si number density = 23.848378 Si / 1000 Ang^3
#
#
#
# Elastic Constant Matrix: (Units=GPa)
#
#
# Indices 1 2 3 4 5 6 
#
# 1 165.7016 70.3562 36.7078 0.0000 0.0000 0.0000
# 2 70.3562 149.5956 41.2865 0.0000 0.0000 0.0000
# 3 36.7078 41.2865 58.6560 0.0000 0.0000 0.0000
# 4 0.0000 0.0000 0.0000 25.4032 0.0000 0.0000
# 5 0.0000 0.0000 0.0000 0.0000 21.1145 0.0000
# 6 0.0000 0.0000 0.0000 0.0000 0.0000 47.3023
#
#
#
# Elastic Compliance Matrix: (Units=1/GPa)
#
#
# Indices 1 2 3 4 5 6 
#
# 1 0.007918 -0.002925 -0.002897 0.000000 0.000000 0.000000
# 2 -0.002925 0.009377 -0.004770 0.000000 0.000000 0.000000
# 3 -0.002897 -0.004770 0.022219 0.000000 0.000000 0.000000
# 4 0.000000 0.000000 0.000000 0.039365 0.000000 0.000000
# 5 0.000000 0.000000 0.000000 0.000000 0.047361 0.000000
# 6 0.000000 0.000000 0.000000 0.000000 0.000000 0.021141
#
#
# Mechanical properties :
#
#
# Convention : Reuss Voigt Hill
#
# Bulk Modulus (GPa) = 54.55135 74.51714 64.53424
# Shear Modulus (GPa) = 28.62489 33.80418 31.21453
#
# Velocity S-wave (km/s) = 3.46827 3.76900 3.62176
# Velocity P-wave (km/s) = 6.24199 7.08905 6.67896
#
# Compressibility (1/GPa) = 0.01833135
#
# Stress axis : x y z
#
# Youngs Moduli (GPa) = 126.28677 106.64941 45.00707
#
# Poissons Ratio (x) = 0.31191 0.13038
# Poissons Ratio (y) = 0.36934 0.21467
# Poissons Ratio (z) = 0.36585 0.50868
#
# Static dielectric constant tensor:
#      x y z
#    x 2.031680 0.000000 0.000000 
#    y 0.000000 2.011270 0.000000 
#    z 0.000000 0.000000 1.948180 
# 
# From -- ./inp_files/27867.got.cif
#   From: 2010.05.17/outbox.cif.g08.bks.cpg/sg68_14_cif.got.tgz:27867.got - 2010.06.03 18:57:09.
