data_PCOD9507462
_publ_section_title
;
Structure prediction by ZEFSAII (Michael W. Deem and Ramdas Pophale) SiO2 
 PCOD9507462
Probable space group: C C C A
;
_chemical_formula_sum "Si O2"
_cell_formula_units_Z 84
_cell_length_a 22.620859
_cell_length_b 23.279029
_cell_length_c 9.036490
_cell_angle_alpha 90.000000
_cell_angle_beta 90.000000
_cell_angle_gamma 90.000000
_cell_volume 4758.540023
_symmetry_space_group_name_H-M "C C C A"
_symmetry_group_IT_number 68
_space_group.IT_coordinate_system_code '2'
_symmetry_cell_setting 'orthorhombic'
loop_
_space_group_symop_operation_xyz
x,y,z
-x,1/2-y,z
x,1/2-y,1/2-z
-x,y,1/2-z
-x,-y,-z
x,1/2+y,-z
-x,1/2+y,1/2+z
x,-y,1/2+z
1/2+x,1/2+y,z
1/2-x,-y,z
1/2+x,-y,1/2-z
1/2-x,1/2+y,1/2-z
1/2-x,1/2-y,-z
1/2+x,y,-z
1/2-x,y,1/2+z
1/2+x,1/2-y,1/2+z
loop_
_atom_site_type_symbol
_atom_site_label
_atom_site_fract_x
_atom_site_fract_y
_atom_site_fract_z
Si Si1 0.175516 0.110167 0.720464
Si Si2 0.000000 0.250000 0.750000
Si Si3 0.036262 0.453288 0.400310
Si Si4 0.949838 0.638316 0.356647
Si Si5 0.736959 0.408613 0.949246
Si Si6 0.826416 0.472813 0.181131
O O1 0.111932 0.125752 0.779032
O O2 0.222872 0.128939 0.841476
O O3 0.195889 0.127997 0.558155
O O4 0.181396 0.040755 0.705412
O O5 0.962347 0.206321 0.649505
O O6 0.042002 0.393898 0.490216
O O7 0.104676 0.467727 0.361951
O O8 0.000000 0.447119 0.250000
O O9 0.000000 0.500000 0.500000
O O10 0.000000 0.612184 0.250000
O O11 0.694810 0.444604 0.836812
O O12 0.785079 0.444563 0.051154
#
# Coordination Sequence:
#
# PCOD9507462 Si02
#       6
#    16   4  16  16  16  16
#     4  11  18  33  53  80 122 151 204 238 300 368
#     4   8  24  44  70  80 112 164 230 242 330 356
#     4  12  25  37  57  93 132 159 199 255 320 371
#     4  10  22  42  62  85 109 163 210 259 303 369
#     4  10  21  31  50  84 124 169 189 236 301 388
#     4  11  20  32  50  82 125 164 195 232 303 379
#
# _framework density 17.652471999999999
#
# number of rings (size 3 to 8) (size 9 to 14) (size 15 to 20)
#    0.571    0.762    1.905    7.429    5.333    0.000 
#    0.000    0.476    0.000    1.143    0.000    0.000 
#    0.000    0.000    0.000    0.000    0.000    0.000 
#
# Total GULP energy -233832.226371 kJ/mol
# GULP energy per Si atom -5567.433961 kJ/mol
# Density = 1.761229 g / cm^3
# Si number density = 17.652472 Si / 1000 Ang^3
#
#
#
# Elastic Constant Matrix: (Units=GPa)
#
#
# Indices 1 2 3 4 5 6 
#
# 1 147.0148 28.7892 64.6272 0.0000 0.0000 0.0000
# 2 28.7892 50.6230 31.4892 0.0000 0.0000 0.0000
# 3 64.6272 31.4892 133.2106 0.0000 0.0000 0.0000
# 4 0.0000 0.0000 0.0000 21.4908 0.0000 0.0000
# 5 0.0000 0.0000 0.0000 0.0000 38.2389 0.0000
# 6 0.0000 0.0000 0.0000 0.0000 0.0000 -16.0031
#
#
#
# Elastic Compliance Matrix: (Units=1/GPa)
#
#
# Indices 1 2 3 4 5 6 
#
# 1 0.008974 -0.002808 -0.003690 0.000000 0.000000 0.000000
# 2 -0.002808 0.024038 -0.004320 0.000000 0.000000 0.000000
# 3 -0.003690 -0.004320 0.010318 0.000000 0.000000 0.000000
# 4 0.000000 0.000000 0.000000 0.046532 0.000000 0.000000
# 5 0.000000 0.000000 0.000000 0.000000 0.026151 0.000000
# 6 0.000000 0.000000 0.000000 0.000000 0.000000 -0.062488
#
#
# Mechanical properties :
#
#
# Convention : Reuss Voigt Hill
#
# Bulk Modulus (GPa) = 46.09518 64.51772 55.30645
# Shear Modulus (GPa) = 60.68502 22.47485 41.57994
#
# Velocity S-wave (km/s) = 5.86961 3.57204 4.85859
# Velocity P-wave (km/s) = 8.49150 7.32399 7.92926
#
# Compressibility (1/GPa) = 0.02169424
#
# Stress axis : x y z
#
# Youngs Moduli (GPa) = 111.43244 41.60081 96.91588
#
# Poissons Ratio (x) = 0.11683 0.35761
# Poissons Ratio (y) = 0.31293 0.41866
# Poissons Ratio (z) = 0.41118 0.17971
#
# Static dielectric constant tensor:
#      x y z
#    x 1.642010 0.000000 0.000000 
#    y 0.000000 1.590500 0.000000 
#    z 0.000000 0.000000 1.695900 
# 
# From -- ./inp_files/7226.got.cif
#   From: 2010.05.17/outbox.cif.g08.bks.cpg/sg68_4_cif.got.tgz:7226.got - 2010.06.03 18:57:09.
