data_PCOD9507991
_publ_section_title
;
Structure prediction by ZEFSAII (Michael W. Deem and Ramdas Pophale) SiO2 
 PCOD9507991
Probable space group: C C C A
;
_chemical_formula_sum "Si O2"
_cell_formula_units_Z 112
_cell_length_a 23.020052
_cell_length_b 17.298532
_cell_length_c 14.627889
_cell_angle_alpha 90.000000
_cell_angle_beta 90.000000
_cell_angle_gamma 90.000000
_cell_volume 5825.017115
_symmetry_space_group_name_H-M "C C C A"
_symmetry_group_IT_number 68
_space_group.IT_coordinate_system_code '2'
_symmetry_cell_setting 'orthorhombic'
loop_
_space_group_symop_operation_xyz
x,y,z
-x,1/2-y,z
x,1/2-y,1/2-z
-x,y,1/2-z
-x,-y,-z
x,1/2+y,-z
-x,1/2+y,1/2+z
x,-y,1/2+z
1/2+x,1/2+y,z
1/2-x,-y,z
1/2+x,-y,1/2-z
1/2-x,1/2+y,1/2-z
1/2-x,1/2-y,-z
1/2+x,y,-z
1/2-x,y,1/2+z
1/2+x,1/2-y,1/2+z
loop_
_atom_site_type_symbol
_atom_site_label
_atom_site_fract_x
_atom_site_fract_y
_atom_site_fract_z
Si Si1 0.554549 0.521734 0.563340
Si Si2 0.714253 0.920567 0.864048
Si Si3 0.383884 0.983011 0.224248
Si Si4 0.750889 0.908894 0.069655
Si Si5 0.382193 0.932971 0.915558
Si Si6 0.995037 0.159191 0.640667
Si Si7 0.196482 0.838525 0.754972
O O1 0.500000 0.500000 0.500000
O O2 0.558458 0.480709 0.662508
O O3 0.607290 0.486367 0.504549
O O4 0.544472 0.611283 0.587025
O O5 0.652443 0.947343 0.825259
O O6 0.745774 0.854864 0.805267
O O7 0.750000 0.000000 0.849432
O O8 0.722669 0.901052 0.970054
O O9 0.386702 0.010311 0.328309
O O10 0.350784 0.901270 0.221414
O O11 0.819802 0.892307 0.073560
O O12 0.715177 0.861223 0.142972
O O13 0.750000 0.000000 0.095891
O O14 0.433846 0.872463 0.897872
O O15 0.000000 0.250000 0.627229
O O16 0.000000 0.143505 0.750000
O O17 0.177831 0.750000 0.750000
#
# Coordination Sequence:
#
# PCOD9507991 Si02
#       7
#    16  16  16  16  16  16  16
#     4  10  22  38  63  89 115 159 211 256 308 374
#     4   9  19  35  57  79 117 161 200 250 286 357
#     4  11  20  39  61  86 117 165 213 246 306 369
#     4  11  19  37  62  86 119 161 213 250 291 369
#     4  11  20  37  66  90 114 168 208 249 308 374
#     4  10  21  40  61  93 128 149 199 280 331 361
#     4  11  22  36  53  87 132 163 197 253 306 367
#
# _framework density 19.227411
#
# number of rings (size 3 to 8) (size 9 to 14) (size 15 to 20)
#    0.000    1.571    4.286    3.000    0.000    0.571 
#    5.143    4.286    0.000    0.000    0.000    6.000 
#    0.000    0.000    0.000    0.000    0.000    0.000 
#
# Total GULP energy -312246.881573 kJ/mol
# GULP energy per Si atom -5575.837171 kJ/mol
# Density = 1.918365 g / cm^3
# Si number density = 19.227411 Si / 1000 Ang^3
#
#
#
# Elastic Constant Matrix: (Units=GPa)
#
#
# Indices 1 2 3 4 5 6 
#
# 1 46.5546 24.5080 0.6221 0.0000 0.0000 0.0000
# 2 24.5080 115.0565 45.0231 0.0000 0.0000 0.0000
# 3 0.6221 45.0231 89.9227 0.0000 0.0000 0.0000
# 4 0.0000 0.0000 0.0000 18.8708 0.0000 0.0000
# 5 0.0000 0.0000 0.0000 0.0000 25.0270 0.0000
# 6 0.0000 0.0000 0.0000 0.0000 0.0000 17.6245
#
#
#
# Elastic Compliance Matrix: (Units=1/GPa)
#
#
# Indices 1 2 3 4 5 6 
#
# 1 0.024862 -0.006503 0.003084 0.000000 0.000000 0.000000
# 2 -0.006503 0.012510 -0.006219 0.000000 0.000000 0.000000
# 3 0.003084 -0.006219 0.014213 0.000000 0.000000 0.000000
# 4 0.000000 0.000000 0.000000 0.052992 0.000000 0.000000
# 5 0.000000 0.000000 0.000000 0.000000 0.039957 0.000000
# 6 0.000000 0.000000 0.000000 0.000000 0.000000 0.056739
#
#
# Mechanical properties :
#
#
# Convention : Reuss Voigt Hill
#
# Bulk Modulus (GPa) = 30.94998 43.53778 37.24388
# Shear Modulus (GPa) = 21.61531 24.39651 23.00591
#
# Velocity S-wave (km/s) = 3.35654 3.56594 3.46282
# Velocity P-wave (km/s) = 5.58153 6.29661 5.94983
#
# Compressibility (1/GPa) = 0.03231020
#
# Stress axis : x y z
#
# Youngs Moduli (GPa) = 40.22176 79.93679 70.35878
#
# Poissons Ratio (x) = 0.51979 -0.21697
# Poissons Ratio (y) = 0.26154 0.43753
# Poissons Ratio (z) = -0.12403 0.49709
#
# Static dielectric constant tensor:
#      x y z
#    x 1.786900 0.000000 0.000000 
#    y 0.000000 1.631930 0.000000 
#    z 0.000000 0.000000 1.693790 
# 
# From -- ./inp_files/25491.got.cif
#   From: 2010.05.17/outbox.cif.g08.bks.cpg/sg68_13_cif.got.tgz:25491.got - 2010.06.03 18:57:09.
