data_PCOD9507026
_publ_section_title
;
Structure prediction by ZEFSAII (Michael W. Deem and Ramdas Pophale) SiO2 
 PCOD9507026
Probable space group: C C C A
;
_chemical_formula_sum "Si O2"
_cell_formula_units_Z 104
_cell_length_a 20.448820
_cell_length_b 14.616480
_cell_length_c 17.067133
_cell_angle_alpha 90.000000
_cell_angle_beta 90.000000
_cell_angle_gamma 90.000000
_cell_volume 5101.191432
_symmetry_space_group_name_H-M "C C C A"
_symmetry_group_IT_number 68
_space_group.IT_coordinate_system_code '2'
_symmetry_cell_setting 'orthorhombic'
loop_
_space_group_symop_operation_xyz
x,y,z
-x,1/2-y,z
x,1/2-y,1/2-z
-x,y,1/2-z
-x,-y,-z
x,1/2+y,-z
-x,1/2+y,1/2+z
x,-y,1/2+z
1/2+x,1/2+y,z
1/2-x,-y,z
1/2+x,-y,1/2-z
1/2-x,1/2+y,1/2-z
1/2-x,1/2-y,-z
1/2+x,y,-z
1/2-x,y,1/2+z
1/2+x,1/2-y,1/2+z
loop_
_atom_site_type_symbol
_atom_site_label
_atom_site_fract_x
_atom_site_fract_y
_atom_site_fract_z
Si Si1 0.142627 0.948960 0.392617
Si Si2 0.068588 0.990142 0.542259
Si Si3 0.787443 0.369615 0.386188
Si Si4 0.832129 0.750000 0.750000
Si Si5 0.074009 0.286363 0.663655
Si Si6 0.875707 0.191329 0.982322
Si Si7 0.563072 0.193910 0.873286
O O1 0.118904 0.944330 0.481794
O O2 0.215575 0.910222 0.389120
O O3 0.088715 0.894823 0.341768
O O4 0.154615 0.055308 0.372620
O O5 0.055580 0.913654 0.607816
O O6 0.095268 0.093875 0.548362
O O7 0.000000 0.000000 0.500000
O O8 0.789285 0.307345 0.309968
O O9 0.808990 0.326362 0.469542
O O10 0.879909 0.802277 0.809508
O O11 0.088672 0.250000 0.750000
O O12 0.122555 0.249484 0.596746
O O13 0.000000 0.250000 0.645219
O O14 0.917612 0.247466 0.047790
O O15 0.500000 0.250000 0.844502
#
# Coordination Sequence:
#
# PCOD9507026 Si02
#       7
#    16  16  16   8  16  16  16
#     4  10  21  41  63  91 125 168 207 267 323 378
#     4  11  20  34  64  90 120 164 213 264 322 383
#     4   9  22  41  64  90 126 166 215 260 321 384
#     4  10  23  40  60  94 125 168 212 262 320 382
#     4  11  23  38  58  89 127 163 209 261 318 384
#     4  10  20  38  60  88 119 162 213 257 319 382
#     4  11  20  37  60  90 127 160 211 267 317 388
#
# _framework density 20.387395000000001
#
# number of rings (size 3 to 8) (size 9 to 14) (size 15 to 20)
#    0.000    1.692    3.077    1.615    1.077    1.846 
#    0.000    0.000    0.000    1.846    0.000    0.000 
#    0.000    0.000    0.000    0.000    0.000    0.000 
#
# Total GULP energy -289606.741157 kJ/mol
# GULP energy per Si atom -5569.360407 kJ/mol
# Density = 2.034099 g / cm^3
# Si number density = 20.387395 Si / 1000 Ang^3
#
#
#
# Elastic Constant Matrix: (Units=GPa)
#
#
# Indices 1 2 3 4 5 6 
#
# 1 51.9921 15.7800 11.1659 0.0000 0.0000 0.0000
# 2 15.7800 82.5662 23.4288 0.0000 0.0000 0.0000
# 3 11.1659 23.4288 90.5797 0.0000 0.0000 0.0000
# 4 0.0000 0.0000 0.0000 21.5473 0.0000 0.0000
# 5 0.0000 0.0000 0.0000 0.0000 12.5420 0.0000
# 6 0.0000 0.0000 0.0000 0.0000 0.0000 31.8151
#
#
#
# Elastic Compliance Matrix: (Units=1/GPa)
#
#
# Indices 1 2 3 4 5 6 
#
# 1 0.020643 -0.003478 -0.001645 0.000000 0.000000 0.000000
# 2 -0.003478 0.013657 -0.003104 0.000000 0.000000 0.000000
# 3 -0.001645 -0.003104 0.012046 0.000000 0.000000 0.000000
# 4 0.000000 0.000000 0.000000 0.046410 0.000000 0.000000
# 5 0.000000 0.000000 0.000000 0.000000 0.079732 0.000000
# 6 0.000000 0.000000 0.000000 0.000000 0.000000 0.031432
#
#
# Mechanical properties :
#
#
# Convention : Reuss Voigt Hill
#
# Bulk Modulus (GPa) = 33.45471 36.20971 34.83221
# Shear Modulus (GPa) = 21.70740 24.83176 23.26958
#
# Velocity S-wave (km/s) = 3.26658 3.49377 3.38208
# Velocity P-wave (km/s) = 5.53828 5.83734 5.68978
#
# Compressibility (1/GPa) = 0.02989116
#
# Stress axis : x y z
#
# Youngs Moduli (GPa) = 48.44326 73.22266 83.01822
#
# Poissons Ratio (x) = 0.25470 0.13656
# Poissons Ratio (y) = 0.16851 0.25766
# Poissons Ratio (z) = 0.07969 0.22726
#
# Static dielectric constant tensor:
#      x y z
#    x 1.740440 0.000000 0.000000 
#    y 0.000000 1.709350 0.000000 
#    z 0.000000 0.000000 1.692440 
# 
# From -- ./inp_files/31136.got.cif
#   From: 2010.05.17/outbox.cif.g08.bks.cpg/sg68_16_cif.got.tgz:31136.got - 2010.06.03 18:57:09.
