data_PCOD9507491
_publ_section_title
;
Structure prediction by ZEFSAII (Michael W. Deem and Ramdas Pophale) SiO2 
 PCOD9507491
Probable space group: C C C A
;
_chemical_formula_sum "Si O2"
_cell_formula_units_Z 80
_cell_length_a 33.068309
_cell_length_b 5.376157
_cell_length_c 23.300431
_cell_angle_alpha 90.000000
_cell_angle_beta 90.000000
_cell_angle_gamma 90.000000
_cell_volume 4142.360431
_symmetry_space_group_name_H-M "C C C A"
_symmetry_group_IT_number 68
_space_group.IT_coordinate_system_code '2'
_symmetry_cell_setting 'orthorhombic'
loop_
_space_group_symop_operation_xyz
x,y,z
-x,1/2-y,z
x,1/2-y,1/2-z
-x,y,1/2-z
-x,-y,-z
x,1/2+y,-z
-x,1/2+y,1/2+z
x,-y,1/2+z
1/2+x,1/2+y,z
1/2-x,-y,z
1/2+x,-y,1/2-z
1/2-x,1/2+y,1/2-z
1/2-x,1/2-y,-z
1/2+x,y,-z
1/2-x,y,1/2+z
1/2+x,1/2-y,1/2+z
loop_
_atom_site_type_symbol
_atom_site_label
_atom_site_fract_x
_atom_site_fract_y
_atom_site_fract_z
Si Si1 0.250000 0.000000 0.337663
Si Si2 0.906115 0.258465 0.319848
Si Si3 0.678670 0.878505 0.349782
Si Si4 0.690540 0.750000 0.750000
Si Si5 0.046551 0.754902 0.180271
Si Si6 0.700990 0.021484 0.467107
O O1 0.219477 0.212778 0.361130
O O2 0.281084 0.136230 0.297369
O O3 0.903437 0.250000 0.250000
O O4 0.862047 0.280439 0.348561
O O5 0.931316 0.501381 0.336603
O O6 0.928833 0.002527 0.336740
O O7 0.682004 0.059374 0.404174
O O8 0.672734 0.027106 0.288930
O O9 0.045965 0.750000 0.250000
O O10 0.000000 0.750000 0.160949
O O11 0.688932 0.756769 0.494220
O O12 0.750000 0.000000 0.464780
#
# Coordination Sequence:
#
# PCOD9507491 Si02
#       6
#     8  16  16   8  16  16
#     4  12  22  38  50  82 118 160 198 232 296 362
#     4  10  21  34  53  85 117 151 192 238 290 350
#     4  12  26  37  61  83 123 155 204 255 303 354
#     4  12  22  38  52  82 115 166 191 238 296 362
#     4   9  18  34  54  77 114 158 192 226 277 357
#     4  10  24  44  62  81 107 156 216 261 305 348
#
# _framework density 19.312660000000001
#
# number of rings (size 3 to 8) (size 9 to 14) (size 15 to 20)
#    0.000    1.400    2.000    3.000   14.000    2.400 
#    0.000    0.000    0.000    0.000    0.000    0.000 
#    0.000   16.000    0.000    0.000    0.000    0.000 
#
# Total GULP energy -222736.666026 kJ/mol
# GULP energy per Si atom -5568.416651 kJ/mol
# Density = 1.926870 g / cm^3
# Si number density = 19.312660 Si / 1000 Ang^3
#
#
#
# Elastic Constant Matrix: (Units=GPa)
#
#
# Indices 1 2 3 4 5 6 
#
# 1 71.0867 46.6579 40.0455 0.0000 0.0000 0.0000
# 2 46.6579 134.6673 32.5672 0.0000 0.0000 0.0000
# 3 40.0455 32.5672 50.6808 0.0000 0.0000 0.0000
# 4 0.0000 0.0000 0.0000 29.9932 0.0000 0.0000
# 5 0.0000 0.0000 0.0000 0.0000 10.6353 0.0000
# 6 0.0000 0.0000 0.0000 0.0000 0.0000 42.6010
#
#
#
# Elastic Compliance Matrix: (Units=1/GPa)
#
#
# Indices 1 2 3 4 5 6 
#
# 1 0.028094 -0.005168 -0.018877 0.000000 0.000000 0.000000
# 2 -0.005168 0.009743 -0.002177 0.000000 0.000000 0.000000
# 3 -0.018877 -0.002177 0.036046 0.000000 0.000000 0.000000
# 4 0.000000 0.000000 0.000000 0.033341 0.000000 0.000000
# 5 0.000000 0.000000 0.000000 0.000000 0.094026 0.000000
# 6 0.000000 0.000000 0.000000 0.000000 0.000000 0.023474
#
#
# Mechanical properties :
#
#
# Convention : Reuss Voigt Hill
#
# Bulk Modulus (GPa) = 46.64671 54.99734 50.82203
# Shear Modulus (GPa) = 17.58620 25.79019 21.68819
#
# Velocity S-wave (km/s) = 3.02090 3.65828 3.35476
# Velocity P-wave (km/s) = 6.03105 6.81052 6.43261
#
# Compressibility (1/GPa) = 0.02143774
#
# Stress axis : x y z
#
# Youngs Moduli (GPa) = 35.59504 102.63943 27.74240
#
# Poissons Ratio (x) = 0.53049 0.52370
# Poissons Ratio (y) = 0.18397 0.06039
# Poissons Ratio (z) = 0.67193 0.22343
#
# Static dielectric constant tensor:
#      x y z
#    x 1.623050 0.000000 0.000000 
#    y 0.000000 1.621200 0.000000 
#    z 0.000000 0.000000 1.628220 
# 
# From -- ./inp_files/47428.got.cif
#   From: 2010.05.17/outbox.cif.g08.bks.cpg/sg68_24_cif.got.tgz:47428.got - 2010.06.03 18:57:09.
