data_PCOD9507889
_publ_section_title
;
Structure prediction by ZEFSAII (Michael W. Deem and Ramdas Pophale) SiO2 
 PCOD9507889
Probable space group: C C C A
;
_chemical_formula_sum "Si O2"
_cell_formula_units_Z 48
_cell_length_a 5.178143
_cell_length_b 17.443932
_cell_length_c 20.536591
_cell_angle_alpha 90.000000
_cell_angle_beta 90.000000
_cell_angle_gamma 90.000000
_cell_volume 1855.012236
_symmetry_space_group_name_H-M "C C C A"
_symmetry_group_IT_number 68
_space_group.IT_coordinate_system_code '2'
_symmetry_cell_setting 'orthorhombic'
loop_
_space_group_symop_operation_xyz
x,y,z
-x,1/2-y,z
x,1/2-y,1/2-z
-x,y,1/2-z
-x,-y,-z
x,1/2+y,-z
-x,1/2+y,1/2+z
x,-y,1/2+z
1/2+x,1/2+y,z
1/2-x,-y,z
1/2+x,-y,1/2-z
1/2-x,1/2+y,1/2-z
1/2-x,1/2-y,-z
1/2+x,y,-z
1/2-x,y,1/2+z
1/2+x,1/2-y,1/2+z
loop_
_atom_site_type_symbol
_atom_site_label
_atom_site_fract_x
_atom_site_fract_y
_atom_site_fract_z
Si Si1 0.502744 0.047992 0.828017
Si Si2 0.911619 0.837998 0.320854
Si Si3 0.526446 0.343300 0.462646
O O1 0.500000 0.042528 0.750000
O O2 0.613844 0.136542 0.834982
O O3 0.750000 0.000000 0.852613
O O4 0.250000 0.000000 0.849165
O O5 0.055076 0.862063 0.387005
O O6 0.000000 0.750000 0.316587
O O7 0.000000 0.870124 0.250000
O O8 0.500000 0.250000 0.466055
O O9 0.764723 0.371788 0.504720
#
# Coordination Sequence:
#
# PCOD9507889 Si02
#       3
#    16  16  16
#     4  10  21  39  61  88 131 182 224 270 347 434
#     4  10  21  39  66 104 137 169 228 305 355 395
#     4   9  19  36  57  85 129 181 221 264 345 437
#
# _framework density 25.875841000000001
#
# number of rings (size 3 to 8) (size 9 to 14) (size 15 to 20)
#    0.000    2.333    0.000    3.000    0.000    5.333 
#    0.000   25.000    0.000    6.000    0.000    0.000 
#    0.000   10.667    0.000    0.000    0.000    0.000 
#
# Total GULP energy -133609.873271 kJ/mol
# GULP energy per Si atom -5567.078053 kJ/mol
# Density = 2.581695 g / cm^3
# Si number density = 25.875841 Si / 1000 Ang^3
#
#
#
# Elastic Constant Matrix: (Units=GPa)
#
#
# Indices 1 2 3 4 5 6 
#
# 1 234.6497 67.8822 47.2427 0.0000 0.0000 0.0000
# 2 67.8822 151.1492 3.5005 0.0000 0.0000 0.0000
# 3 47.2427 3.5005 186.9110 0.0000 0.0000 0.0000
# 4 0.0000 0.0000 0.0000 -15.5245 0.0000 0.0000
# 5 0.0000 0.0000 0.0000 0.0000 23.4952 0.0000
# 6 0.0000 0.0000 0.0000 0.0000 0.0000 154.0634
#
#
#
# Elastic Compliance Matrix: (Units=1/GPa)
#
#
# Indices 1 2 3 4 5 6 
#
# 1 0.005181 -0.002298 -0.001267 0.000000 0.000000 0.000000
# 2 -0.002298 0.007638 0.000438 0.000000 0.000000 0.000000
# 3 -0.001267 0.000438 0.005662 0.000000 0.000000 0.000000
# 4 0.000000 0.000000 0.000000 -0.064414 0.000000 0.000000
# 5 0.000000 0.000000 0.000000 0.000000 0.042562 0.000000
# 6 0.000000 0.000000 0.000000 0.000000 0.000000 0.006491
#
#
# Mechanical properties :
#
#
# Convention : Reuss Voigt Hill
#
# Bulk Modulus (GPa) = 81.77882 89.99562 85.88722
# Shear Modulus (GPa) = 371.78571 62.67913 217.23242
#
# Velocity S-wave (km/s) = 11.99969 4.92703 9.17246
# Velocity P-wave (km/s) = 14.95537 8.19895 12.05997
#
# Compressibility (1/GPa) = 0.01222811
#
# Stress axis : x y z
#
# Youngs Moduli (GPa) = 192.99916 130.92883 176.61359
#
# Poissons Ratio (x) = 0.30083 0.22370
# Poissons Ratio (y) = 0.44345 -0.07730
# Poissons Ratio (z) = 0.24445 -0.05731
#
# Static dielectric constant tensor:
#      x y z
#    x 2.120270 0.000000 0.000000 
#    y 0.000000 2.204860 0.000000 
#    z 0.000000 0.000000 2.033790 
# 
# From -- ./inp_files/41943.got.cif
#   From: 2010.05.17/outbox.cif.g08.bks.cpg/sg68_21_cif.got.tgz:41943.got - 2010.06.03 18:57:09.
