data_PCOD9507852
_publ_section_title
;
Structure prediction by ZEFSAII (Michael W. Deem and Ramdas Pophale) SiO2 
 PCOD9507852
Probable space group: C C C A
;
_chemical_formula_sum "Si O2"
_cell_formula_units_Z 116
_cell_length_a 27.913309
_cell_length_b 16.703975
_cell_length_c 11.017253
_cell_angle_alpha 90.000000
_cell_angle_beta 90.000000
_cell_angle_gamma 90.000000
_cell_volume 5136.939812
_symmetry_space_group_name_H-M "C C C A"
_symmetry_group_IT_number 68
_space_group.IT_coordinate_system_code '2'
_symmetry_cell_setting 'orthorhombic'
loop_
_space_group_symop_operation_xyz
x,y,z
-x,1/2-y,z
x,1/2-y,1/2-z
-x,y,1/2-z
-x,-y,-z
x,1/2+y,-z
-x,1/2+y,1/2+z
x,-y,1/2+z
1/2+x,1/2+y,z
1/2-x,-y,z
1/2+x,-y,1/2-z
1/2-x,1/2+y,1/2-z
1/2-x,1/2-y,-z
1/2+x,y,-z
1/2-x,y,1/2+z
1/2+x,1/2-y,1/2+z
loop_
_atom_site_type_symbol
_atom_site_label
_atom_site_fract_x
_atom_site_fract_y
_atom_site_fract_z
Si Si1 0.930413 0.291792 0.438034
Si Si2 0.317253 0.917202 0.029416
Si Si3 0.600727 0.574757 0.834903
Si Si4 0.505102 0.848288 0.607274
Si Si5 0.636293 0.803970 0.856691
Si Si6 0.000000 0.750000 0.750000
Si Si7 0.709000 0.403260 0.993183
Si Si8 0.637746 0.598533 0.281283
O O1 0.899852 0.260113 0.551475
O O2 0.960349 0.229778 0.355594
O O3 0.893519 0.334939 0.348606
O O4 0.965523 0.359481 0.500556
O O5 0.264784 0.883436 0.000433
O O6 0.345334 0.884359 0.145534
O O7 0.304891 0.011128 0.052670
O O8 0.352064 0.911231 0.915518
O O9 0.554384 0.602519 0.912405
O O10 0.605790 0.628473 0.713865
O O11 0.606151 0.482480 0.793829
O O12 0.500000 0.750000 0.608810
O O13 0.500000 0.869859 0.750000
O O14 0.655248 0.750000 0.750000
O O15 0.678489 0.839337 0.934360
O O16 0.686948 0.410242 0.858734
#
# Coordination Sequence:
#
# PCOD9507852 Si02
#       8
#    16  16  16  16  16   4  16  16
#     4  11  25  42  64  93 129 171 215 271 327 385
#     4  10  21  38  69  93 131 171 211 263 335 388
#     4  11  23  38  65  97 127 167 222 266 325 382
#     4  11  22  40  66  89 119 168 226 262 314 390
#     4  11  22  41  69  94 129 166 220 275 316 382
#     4  12  28  44  66  88 124 176 222 246 340 404
#     4   9  21  39  65  97 125 171 215 261 324 395
#     4  10  23  41  60  98 137 162 211 279 325 380
#
# _framework density 22.581537999999998
#
# number of rings (size 3 to 8) (size 9 to 14) (size 15 to 20)
#    0.000    1.517    3.448    0.828    3.862    1.655 
#    1.241    0.690    4.552    0.000    0.000    0.000 
#    0.000    0.000    0.000    0.000    0.000    0.000 
#
# Total GULP energy -322981.602473 kJ/mol
# GULP energy per Si atom -5568.648319 kJ/mol
# Density = 2.253014 g / cm^3
# Si number density = 22.581538 Si / 1000 Ang^3
#
#
#
# Elastic Constant Matrix: (Units=GPa)
#
#
# Indices 1 2 3 4 5 6 
#
# 1 124.3708 0.2560 24.6480 0.0000 0.0000 0.0000
# 2 0.2560 27.4092 0.3664 0.0000 0.0000 0.0000
# 3 24.6480 0.3664 105.9516 0.0000 0.0000 0.0000
# 4 0.0000 0.0000 0.0000 22.2873 0.0000 0.0000
# 5 0.0000 0.0000 0.0000 0.0000 24.7645 0.0000
# 6 0.0000 0.0000 0.0000 0.0000 0.0000 17.1632
#
#
#
# Elastic Compliance Matrix: (Units=1/GPa)
#
#
# Indices 1 2 3 4 5 6 
#
# 1 0.008429 -0.000053 -0.001961 0.000000 0.000000 0.000000
# 2 -0.000053 0.036486 -0.000114 0.000000 0.000000 0.000000
# 3 -0.001961 -0.000114 0.009895 0.000000 0.000000 0.000000
# 4 0.000000 0.000000 0.000000 0.044869 0.000000 0.000000
# 5 0.000000 0.000000 0.000000 0.000000 0.040380 0.000000
# 6 0.000000 0.000000 0.000000 0.000000 0.000000 0.058264
#
#
# Mechanical properties :
#
#
# Convention : Reuss Voigt Hill
#
# Bulk Modulus (GPa) = 19.78019 34.25250 27.01635
# Shear Modulus (GPa) = 22.78637 28.34042 25.56340
#
# Velocity S-wave (km/s) = 3.18003 3.54648 3.36824
# Velocity P-wave (km/s) = 4.71826 5.65432 5.20736
#
# Compressibility (1/GPa) = 0.05055564
#
# Stress axis : x y z
#
# Youngs Moduli (GPa) = 118.63578 27.40768 101.06319
#
# Poissons Ratio (x) = 0.00144 0.19816
# Poissons Ratio (y) = 0.00623 0.01152
# Poissons Ratio (z) = 0.23261 0.00312
#
# Static dielectric constant tensor:
#      x y z
#    x 1.888000 0.000000 0.000000 
#    y 0.000000 1.904270 0.000000 
#    z 0.000000 0.000000 1.832560 
# 
# From -- ./inp_files/17239.got.cif
#   From: 2010.05.17/outbox.cif.g08.bks.cpg/sg68_9_cif.got.tgz:17239.got - 2010.06.03 18:57:09.
