data_PCOD9507800
_publ_section_title
;
Structure prediction by ZEFSAII (Michael W. Deem and Ramdas Pophale) SiO2 
 PCOD9507800
Probable space group: C C C A
;
_chemical_formula_sum "Si O2"
_cell_formula_units_Z 64
_cell_length_a 24.518756
_cell_length_b 9.591088
_cell_length_c 10.253699
_cell_angle_alpha 90.000000
_cell_angle_beta 90.000000
_cell_angle_gamma 90.000000
_cell_volume 2411.275714
_symmetry_space_group_name_H-M "C C C A"
_symmetry_group_IT_number 68
_space_group.IT_coordinate_system_code '2'
_symmetry_cell_setting 'orthorhombic'
loop_
_space_group_symop_operation_xyz
x,y,z
-x,1/2-y,z
x,1/2-y,1/2-z
-x,y,1/2-z
-x,-y,-z
x,1/2+y,-z
-x,1/2+y,1/2+z
x,-y,1/2+z
1/2+x,1/2+y,z
1/2-x,-y,z
1/2+x,-y,1/2-z
1/2-x,1/2+y,1/2-z
1/2-x,1/2-y,-z
1/2+x,y,-z
1/2-x,y,1/2+z
1/2+x,1/2-y,1/2+z
loop_
_atom_site_type_symbol
_atom_site_label
_atom_site_fract_x
_atom_site_fract_y
_atom_site_fract_z
Si Si1 0.179488 0.252531 0.949929
Si Si2 0.750000 0.500000 0.997764
Si Si3 0.558257 0.790574 0.557040
Si Si4 0.944826 0.581084 0.830453
Si Si5 0.147335 0.250000 0.250000
O O1 0.176466 0.252341 0.110113
O O2 0.210493 0.107587 0.919493
O O3 0.212637 0.392721 0.920296
O O4 0.117786 0.259039 0.897215
O O5 0.500000 0.750000 0.618480
O O6 0.553655 0.720317 0.416346
O O7 0.560653 0.955789 0.568206
O O8 0.889982 0.608762 0.750461
O O9 0.000000 0.560564 0.750000
#
# Coordination Sequence:
#
# PCOD9507800 Si02
#       5
#    16   8  16  16   8
#     4  10  21  40  63  92 124 171 217 270 337 396
#     4  10  22  40  64  88 126 170 220 270 332 404
#     4  11  23  41  68  98 137 178 224 285 349 412
#     4  11  23  41  64  97 138 183 225 275 345 419
#     4  10  21  38  64  90 128 168 221 278 332 402
#
# _framework density 26.541968000000001
#
# number of rings (size 3 to 8) (size 9 to 14) (size 15 to 20)
#    0.000    1.500    0.000    7.125    0.000    3.500 
#    0.000    1.250    0.000   12.000    0.000    0.000 
#    0.000    0.000    0.000    0.000    0.000    0.000 
#
# Total GULP energy -178700.617195 kJ/mol
# GULP energy per Si atom -5584.394287 kJ/mol
# Density = 2.648156 g / cm^3
# Si number density = 26.541968 Si / 1000 Ang^3
#
#
#
# Elastic Constant Matrix: (Units=GPa)
#
#
# Indices 1 2 3 4 5 6 
#
# 1 217.7949 61.5617 -0.2446 0.0000 0.0000 0.0000
# 2 61.5617 176.7137 15.8621 0.0000 0.0000 0.0000
# 3 -0.2446 15.8621 112.0100 0.0000 0.0000 0.0000
# 4 0.0000 0.0000 0.0000 15.4770 0.0000 0.0000
# 5 0.0000 0.0000 0.0000 0.0000 -13.8423 0.0000
# 6 0.0000 0.0000 0.0000 0.0000 0.0000 46.3040
#
#
#
# Elastic Compliance Matrix: (Units=1/GPa)
#
#
# Indices 1 2 3 4 5 6 
#
# 1 0.005101 -0.001801 0.000266 0.000000 0.000000 0.000000
# 2 -0.001801 0.006368 -0.000906 0.000000 0.000000 0.000000
# 3 0.000266 -0.000906 0.009057 0.000000 0.000000 0.000000
# 4 0.000000 0.000000 0.000000 0.064612 0.000000 0.000000
# 5 0.000000 0.000000 0.000000 0.000000 -0.072242 0.000000
# 6 0.000000 0.000000 0.000000 0.000000 0.000000 0.021596
#
#
# Mechanical properties :
#
#
# Convention : Reuss Voigt Hill
#
# Bulk Modulus (GPa) = 63.92129 73.43077 68.67603
# Shear Modulus (GPa) = 112.14198 38.21038 75.17618
#
# Velocity S-wave (km/s) = 6.50711 3.79835 5.32776
# Velocity P-wave (km/s) = 8.97731 6.85293 7.98607
#
# Compressibility (1/GPa) = 0.01564424
#
# Stress axis : x y z
#
# Youngs Moduli (GPa) = 196.04755 157.04678 110.41662
#
# Poissons Ratio (x) = 0.28282 -0.02939
# Poissons Ratio (y) = 0.35305 0.10000
# Poissons Ratio (z) = -0.05218 0.14223
#
# Static dielectric constant tensor:
#      x y z
#    x 2.219230 0.000000 0.000000 
#    y 0.000000 2.026000 0.000000 
#    z 0.000000 0.000000 2.041380 
# 
# From -- ./inp_files/19278.got.cif
#   From: 2010.05.17/outbox.cif.g08.bks.cpg/sg68_10_cif.got.tgz:19278.got - 2010.06.03 18:57:09.
