data_PCOD9507386
_publ_section_title
;
Structure prediction by ZEFSAII (Michael W. Deem and Ramdas Pophale) SiO2 
 PCOD9507386
Probable space group: C C C A
;
_chemical_formula_sum "Si O2"
_cell_formula_units_Z 112
_cell_length_a 12.091288
_cell_length_b 14.703186
_cell_length_c 26.547265
_cell_angle_alpha 90.000000
_cell_angle_beta 90.000000
_cell_angle_gamma 90.000000
_cell_volume 4719.584889
_symmetry_space_group_name_H-M "C C C A"
_symmetry_group_IT_number 68
_space_group.IT_coordinate_system_code '2'
_symmetry_cell_setting 'orthorhombic'
loop_
_space_group_symop_operation_xyz
x,y,z
-x,1/2-y,z
x,1/2-y,1/2-z
-x,y,1/2-z
-x,-y,-z
x,1/2+y,-z
-x,1/2+y,1/2+z
x,-y,1/2+z
1/2+x,1/2+y,z
1/2-x,-y,z
1/2+x,-y,1/2-z
1/2-x,1/2+y,1/2-z
1/2-x,1/2-y,-z
1/2+x,y,-z
1/2-x,y,1/2+z
1/2+x,1/2-y,1/2+z
loop_
_atom_site_type_symbol
_atom_site_label
_atom_site_fract_x
_atom_site_fract_y
_atom_site_fract_z
Si Si1 0.191309 0.098341 0.062950
Si Si2 0.730255 0.237241 0.365942
Si Si3 0.089275 0.672406 0.689376
Si Si4 0.729246 0.106235 0.268582
Si Si5 0.448062 0.154375 0.314779
Si Si6 0.991876 0.512169 0.631311
Si Si7 0.117684 0.033152 0.969517
O O1 0.269374 0.176253 0.084524
O O2 0.100059 0.074495 0.104882
O O3 0.250000 0.000000 0.059783
O O4 0.142570 0.117328 0.007600
O O5 0.843579 0.292144 0.359377
O O6 0.728527 0.170080 0.317498
O O7 0.636031 0.311689 0.358479
O O8 0.173255 0.648649 0.734063
O O9 0.039180 0.576704 0.674075
O O10 0.000000 0.750000 0.699107
O O11 0.622830 0.115797 0.231770
O O12 0.750000 0.000000 0.280118
O O13 0.500000 0.250000 0.300835
O O14 0.530904 0.081405 0.338981
O O15 0.073504 0.481174 0.586626
O O16 0.250000 0.000000 0.964107
O O17 0.000000 0.000000 0.000000
#
# Coordination Sequence:
#
# PCOD9507386 Si02
#       7
#    16  16  16  16  16  16  16
#     4  10  20  42  64  93 132 177 226 287 357 416
#     4  11  24  39  64  91 137 175 226 288 343 414
#     4  11  22  41  64  96 129 172 226 288 339 409
#     4  11  24  43  65  96 131 182 230 280 347 422
#     4  11  24  42  65  95 138 179 224 288 349 420
#     4  11  22  41  71  98 128 184 230 281 365 429
#     4   9  21  38  70 102 139 183 240 303 360 438
#
# _framework density 23.730902
#
# number of rings (size 3 to 8) (size 9 to 14) (size 15 to 20)
#    0.000    1.429    2.857    3.000    4.000    2.286 
#    0.000    2.143    9.429    0.000    0.000    0.000 
#    0.000    0.000    0.000    0.000    0.000    0.000 
#
# Total GULP energy -311983.157169 kJ/mol
# GULP energy per Si atom -5571.127807 kJ/mol
# Density = 2.367689 g / cm^3
# Si number density = 23.730902 Si / 1000 Ang^3
#
#
#
# Elastic Constant Matrix: (Units=GPa)
#
#
# Indices 1 2 3 4 5 6 
#
# 1 85.6539 5.6101 10.7661 0.0000 0.0000 0.0000
# 2 5.6101 108.8879 11.8084 0.0000 0.0000 0.0000
# 3 10.7661 11.8084 68.8483 0.0000 0.0000 0.0000
# 4 0.0000 0.0000 0.0000 17.1911 0.0000 0.0000
# 5 0.0000 0.0000 0.0000 0.0000 10.8742 0.0000
# 6 0.0000 0.0000 0.0000 0.0000 0.0000 24.3952
#
#
#
# Elastic Compliance Matrix: (Units=1/GPa)
#
#
# Indices 1 2 3 4 5 6 
#
# 1 0.011928 -0.000420 -0.001793 0.000000 0.000000 0.000000
# 2 -0.000420 0.009373 -0.001542 0.000000 0.000000 0.000000
# 3 -0.001793 -0.001542 0.015070 0.000000 0.000000 0.000000
# 4 0.000000 0.000000 0.000000 0.058170 0.000000 0.000000
# 5 0.000000 0.000000 0.000000 0.000000 0.091961 0.000000
# 6 0.000000 0.000000 0.000000 0.000000 0.000000 0.040992
#
#
# Mechanical properties :
#
#
# Convention : Reuss Voigt Hill
#
# Bulk Modulus (GPa) = 34.65029 35.52882 35.08956
# Shear Modulus (GPa) = 20.43968 26.17247 23.30608
#
# Velocity S-wave (km/s) = 2.93799 3.32457 3.13724
# Velocity P-wave (km/s) = 5.11294 5.45354 5.28598
#
# Compressibility (1/GPa) = 0.02885979
#
# Stress axis : x y z
#
# Youngs Moduli (GPa) = 83.83784 106.69396 66.35903
#
# Poissons Ratio (x) = 0.04482 0.11899
# Poissons Ratio (y) = 0.03522 0.10231
# Poissons Ratio (z) = 0.15033 0.16450
#
# Static dielectric constant tensor:
#      x y z
#    x 2.035680 0.000000 0.000000 
#    y 0.000000 1.881310 0.000000 
#    z 0.000000 0.000000 1.916040 
# 
# From -- ./inp_files/54800.got.cif
#   From: 2010.05.17/outbox.cif.g08.bks.cpg/sg68_28_cif.got.tgz:54800.got - 2010.06.03 18:57:09.
