data_PCOD9507563
_publ_section_title
;
Structure prediction by ZEFSAII (Michael W. Deem and Ramdas Pophale) SiO2 
 PCOD9507563
Probable space group: C C C A
;
_chemical_formula_sum "Si O2"
_cell_formula_units_Z 72
_cell_length_a 16.944517
_cell_length_b 8.244987
_cell_length_c 26.977299
_cell_angle_alpha 90.000000
_cell_angle_beta 90.000000
_cell_angle_gamma 90.000000
_cell_volume 3768.926209
_symmetry_space_group_name_H-M "C C C A"
_symmetry_group_IT_number 68
_space_group.IT_coordinate_system_code '2'
_symmetry_cell_setting 'orthorhombic'
loop_
_space_group_symop_operation_xyz
x,y,z
-x,1/2-y,z
x,1/2-y,1/2-z
-x,y,1/2-z
-x,-y,-z
x,1/2+y,-z
-x,1/2+y,1/2+z
x,-y,1/2+z
1/2+x,1/2+y,z
1/2-x,-y,z
1/2+x,-y,1/2-z
1/2-x,1/2+y,1/2-z
1/2-x,1/2-y,-z
1/2+x,y,-z
1/2-x,y,1/2+z
1/2+x,1/2-y,1/2+z
loop_
_atom_site_type_symbol
_atom_site_label
_atom_site_fract_x
_atom_site_fract_y
_atom_site_fract_z
Si Si1 0.851043 0.250000 0.250000
Si Si2 0.000000 0.750000 0.381872
Si Si3 0.436766 0.065316 0.292315
Si Si4 0.250000 0.000000 0.493473
Si Si5 0.774448 0.308038 0.824742
Si Si6 0.667504 0.258774 0.068973
O O1 0.902523 0.390487 0.275395
O O2 0.788943 0.294230 0.206421
O O3 0.981007 0.598065 0.344791
O O4 0.923065 0.777322 0.415207
O O5 0.500000 0.096817 0.250000
O O6 0.360507 0.181108 0.299367
O O7 0.311704 0.090450 0.457880
O O8 0.199907 0.113329 0.529817
O O9 0.750000 0.500000 0.827024
O O10 0.784396 0.239801 0.879573
#
# Coordination Sequence:
#
# PCOD9507563 Si02
#       6
#     8   8  16   8  16  16
#     4  10  21  36  59  84 124 166 204 242 287 368
#     4  10  23  38  62  84 126 160 204 251 320 364
#     4  10  21  36  55  85 120 164 198 246 293 357
#     4  10  22  40  66  88 120 152 216 262 316 364
#     4   9  19  36  58  85 117 157 199 241 296 360
#     4  10  21  40  63  91 118 161 200 265 308 371
#
# _framework density 19.103584000000001
#
# number of rings (size 3 to 8) (size 9 to 14) (size 15 to 20)
#    0.000    2.222    1.111    0.667    6.222    2.667 
#    2.000    0.000    0.000    0.000    0.000    0.000 
#    0.000    0.000    0.000    0.000    0.000    0.000 
#
# Total GULP energy -200504.847029 kJ/mol
# GULP energy per Si atom -5569.579084 kJ/mol
# Density = 1.906010 g / cm^3
# Si number density = 19.103584 Si / 1000 Ang^3
#
#
#
# Elastic Constant Matrix: (Units=GPa)
#
#
# Indices 1 2 3 4 5 6 
#
# 1 135.1933 34.3285 66.8396 0.0000 0.0000 0.0000
# 2 34.3285 53.9805 33.8061 0.0000 0.0000 0.0000
# 3 66.8396 33.8061 135.0165 0.0000 0.0000 0.0000
# 4 0.0000 0.0000 0.0000 11.7588 0.0000 0.0000
# 5 0.0000 0.0000 0.0000 0.0000 44.8715 0.0000
# 6 0.0000 0.0000 0.0000 0.0000 0.0000 14.9542
#
#
#
# Elastic Compliance Matrix: (Units=1/GPa)
#
#
# Indices 1 2 3 4 5 6 
#
# 1 0.010493 -0.004056 -0.004179 0.000000 0.000000 0.000000
# 2 -0.004056 0.023538 -0.003886 0.000000 0.000000 0.000000
# 3 -0.004179 -0.003886 0.010448 0.000000 0.000000 0.000000
# 4 0.000000 0.000000 0.000000 0.085043 0.000000 0.000000
# 5 0.000000 0.000000 0.000000 0.000000 0.022286 0.000000
# 6 0.000000 0.000000 0.000000 0.000000 0.000000 0.066871
#
#
# Mechanical properties :
#
#
# Convention : Reuss Voigt Hill
#
# Bulk Modulus (GPa) = 49.41175 66.01539 57.71357
# Shear Modulus (GPa) = 20.02685 26.93132 23.47909
#
# Velocity S-wave (km/s) = 3.24130 3.75874 3.50957
# Velocity P-wave (km/s) = 6.31897 7.31225 6.83368
#
# Compressibility (1/GPa) = 0.02023810
#
# Stress axis : x y z
#
# Youngs Moduli (GPa) = 95.30451 42.48468 95.71017
#
# Poissons Ratio (x) = 0.17230 0.39996
# Poissons Ratio (y) = 0.38652 0.37191
# Poissons Ratio (z) = 0.39827 0.16509
#
# Static dielectric constant tensor:
#      x y z
#    x -14.373000 0.000000 0.000000 
#    y 0.000000 1.761770 0.000000 
#    z 0.000000 0.000000 1.652870 
# 
# From -- ./inp_files/42974.got.cif
#   From: 2010.05.17/outbox.cif.g08.bks.cpg/sg68_22_cif.got.tgz:42974.got - 2010.06.03 18:57:09.
