data_PCOD9507220
_publ_section_title
;
Structure prediction by ZEFSAII (Michael W. Deem and Ramdas Pophale) SiO2 
 PCOD9507220
Probable space group: C C C A
;
_chemical_formula_sum "Si O2"
_cell_formula_units_Z 112
_cell_length_a 30.533682
_cell_length_b 12.745498
_cell_length_c 12.924872
_cell_angle_alpha 90.000000
_cell_angle_beta 90.000000
_cell_angle_gamma 90.000000
_cell_volume 5029.933440
_symmetry_space_group_name_H-M "C C C A"
_symmetry_group_IT_number 68
_space_group.IT_coordinate_system_code '2'
_symmetry_cell_setting 'orthorhombic'
loop_
_space_group_symop_operation_xyz
x,y,z
-x,1/2-y,z
x,1/2-y,1/2-z
-x,y,1/2-z
-x,-y,-z
x,1/2+y,-z
-x,1/2+y,1/2+z
x,-y,1/2+z
1/2+x,1/2+y,z
1/2-x,-y,z
1/2+x,-y,1/2-z
1/2-x,1/2+y,1/2-z
1/2-x,1/2-y,-z
1/2+x,y,-z
1/2-x,y,1/2+z
1/2+x,1/2-y,1/2+z
loop_
_atom_site_type_symbol
_atom_site_label
_atom_site_fract_x
_atom_site_fract_y
_atom_site_fract_z
Si Si1 0.290299 0.331833 0.519794
Si Si2 0.967292 0.662472 0.002153
Si Si3 0.245496 0.365684 0.239545
Si Si4 0.525513 0.977371 0.655586
Si Si5 0.117058 0.410137 0.737963
Si Si6 0.312640 0.003484 0.654688
Si Si7 0.374853 0.253552 0.075087
O O1 0.250000 0.250000 0.500000
O O2 0.280241 0.373100 0.633425
O O3 0.299381 0.434195 0.444806
O O4 0.335993 0.271196 0.503164
O O5 0.958851 0.564987 0.925613
O O6 0.000000 0.750000 0.957548
O O7 0.922686 0.723912 0.030898
O O8 0.994302 0.607292 0.097142
O O9 0.263956 0.250000 0.250000
O O10 0.286673 0.440147 0.254840
O O11 0.212187 0.387119 0.334828
O O12 0.500000 0.030257 0.750000
O O13 0.566348 0.923020 0.711829
O O14 0.138815 0.508109 0.798346
O O15 0.127260 0.324456 0.826290
O O16 0.132799 0.367622 0.626142
#
# Coordination Sequence:
#
# PCOD9507220 Si02
#       7
#    16  16  16  16  16  16  16
#     4  11  22  42  68  95 136 176 219 286 340 393
#     4  11  23  41  64  98 131 168 219 269 329 406
#     4  11  23  43  66  91 136 180 223 272 344 407
#     4  11  23  40  66  94 133 171 212 273 335 391
#     4  10  20  39  67  96 127 164 221 282 321 398
#     4  10  24  41  65 100 130 170 233 276 334 400
#     4  10  21  37  68 100 122 172 224 272 337 388
#
# _framework density 22.266697000000001
#
# number of rings (size 3 to 8) (size 9 to 14) (size 15 to 20)
#    0.000    1.429    4.286    0.857    4.000    2.857 
#    2.571    1.429    0.000    0.000    0.000    0.000 
#    0.000    0.000    0.000    0.000    0.000    0.000 
#
# Total GULP energy -311864.887277 kJ/mol
# GULP energy per Si atom -5569.015844 kJ/mol
# Density = 2.221602 g / cm^3
# Si number density = 22.266697 Si / 1000 Ang^3
#
#
#
# Elastic Constant Matrix: (Units=GPa)
#
#
# Indices 1 2 3 4 5 6 
#
# 1 93.5748 -4.8748 32.5135 0.0000 0.0000 0.0000
# 2 -4.8748 35.9180 8.6130 0.0000 0.0000 0.0000
# 3 32.5135 8.6130 93.7686 0.0000 0.0000 0.0000
# 4 0.0000 0.0000 0.0000 21.1494 0.0000 0.0000
# 5 0.0000 0.0000 0.0000 0.0000 37.4909 0.0000
# 6 0.0000 0.0000 0.0000 0.0000 0.0000 27.6570
#
#
#
# Elastic Compliance Matrix: (Units=1/GPa)
#
#
# Indices 1 2 3 4 5 6 
#
# 1 0.012416 0.002779 -0.004560 0.000000 0.000000 0.000000
# 2 0.002779 0.029090 -0.003635 0.000000 0.000000 0.000000
# 3 -0.004560 -0.003635 0.012580 0.000000 0.000000 0.000000
# 4 0.000000 0.000000 0.000000 0.047283 0.000000 0.000000
# 5 0.000000 0.000000 0.000000 0.000000 0.026673 0.000000
# 6 0.000000 0.000000 0.000000 0.000000 0.000000 0.036157
#
#
# Mechanical properties :
#
#
# Convention : Reuss Voigt Hill
#
# Bulk Modulus (GPa) = 23.12067 32.86275 27.99171
# Shear Modulus (GPa) = 26.39213 29.72675 28.05944
#
# Velocity S-wave (km/s) = 3.44652 3.65777 3.55371
# Velocity P-wave (km/s) = 5.12289 5.71225 5.42558
#
# Compressibility (1/GPa) = 0.04325135
#
# Stress axis : x y z
#
# Youngs Moduli (GPa) = 80.54168 34.37598 79.49286
#
# Poissons Ratio (x) = -0.09552 0.36252
# Poissons Ratio (y) = -0.22380 0.28900
# Poissons Ratio (z) = 0.36730 0.12497
#
# Static dielectric constant tensor:
#      x y z
#    x 1.919630 0.000000 0.000000 
#    y 0.000000 2.021430 0.000000 
#    z 0.000000 0.000000 1.856740 
# 
# From -- ./inp_files/17792.got.cif
#   From: 2010.05.17/outbox.cif.g08.bks.cpg/sg68_9_cif.got.tgz:17792.got - 2010.06.03 18:57:09.
