data_PCOD9507649
_publ_section_title
;
Structure prediction by ZEFSAII (Michael W. Deem and Ramdas Pophale) SiO2 
 PCOD9507649
Probable space group: C C C A
;
_chemical_formula_sum "Si O2"
_cell_formula_units_Z 64
_cell_length_a 7.209331
_cell_length_b 14.112585
_cell_length_c 28.920809
_cell_angle_alpha 90.000000
_cell_angle_beta 90.000000
_cell_angle_gamma 90.000000
_cell_volume 2942.469525
_symmetry_space_group_name_H-M "C C C A"
_symmetry_group_IT_number 68
_space_group.IT_coordinate_system_code '2'
_symmetry_cell_setting 'orthorhombic'
loop_
_space_group_symop_operation_xyz
x,y,z
-x,1/2-y,z
x,1/2-y,1/2-z
-x,y,1/2-z
-x,-y,-z
x,1/2+y,-z
-x,1/2+y,1/2+z
x,-y,1/2+z
1/2+x,1/2+y,z
1/2-x,-y,z
1/2+x,-y,1/2-z
1/2-x,1/2+y,1/2-z
1/2-x,1/2-y,-z
1/2+x,y,-z
1/2-x,y,1/2+z
1/2+x,1/2-y,1/2+z
loop_
_atom_site_type_symbol
_atom_site_label
_atom_site_fract_x
_atom_site_fract_y
_atom_site_fract_z
Si Si1 0.542820 0.355845 0.047111
Si Si2 0.750000 0.500000 0.978035
Si Si3 0.624442 0.582988 0.640710
Si Si4 0.222609 0.643864 0.259456
Si Si5 0.250000 0.500000 0.184459
O O1 0.500000 0.250000 0.028731
O O2 0.377648 0.432495 0.052843
O O3 0.618144 0.342435 0.099083
O O4 0.663320 0.418656 0.011410
O O5 0.750000 0.500000 0.620213
O O6 0.731134 0.616153 0.686962
O O7 0.422176 0.544153 0.656348
O O8 0.280048 0.750000 0.250000
O O9 0.318822 0.578979 0.221116
O O10 0.000000 0.637344 0.250000
#
# Coordination Sequence:
#
# PCOD9507649 Si02
#       5
#    16   8  16  16   8
#     4  11  23  41  69  94 128 166 208 267 326 389
#     4  10  23  45  66  96 126 164 210 259 337 392
#     4  11  22  39  61  90 124 165 212 263 312 375
#     4   9  19  35  59  84 119 167 211 252 309 366
#     4  10  21  37  60  82 124 168 208 263 311 358
#
# _framework density 21.750437000000002
#
# number of rings (size 3 to 8) (size 9 to 14) (size 15 to 20)
#    0.000    1.750    2.500    1.500    7.000    0.000 
#    0.000    2.500    0.000    0.000    0.000    0.000 
#    0.000    0.000    0.000    0.000    0.000    0.000 
#
# Total GULP energy -178254.355376 kJ/mol
# GULP energy per Si atom -5570.448606 kJ/mol
# Density = 2.170093 g / cm^3
# Si number density = 21.750437 Si / 1000 Ang^3
#
#
#
# Elastic Constant Matrix: (Units=GPa)
#
#
# Indices 1 2 3 4 5 6 
#
# 1 38.2724 -2.4137 6.0513 0.0000 0.0000 0.0000
# 2 -2.4137 131.8010 27.7117 0.0000 0.0000 0.0000
# 3 6.0513 27.7117 102.3594 0.0000 0.0000 0.0000
# 4 0.0000 0.0000 0.0000 -36.6048 0.0000 0.0000
# 5 0.0000 0.0000 0.0000 0.0000 -17.8366 0.0000
# 6 0.0000 0.0000 0.0000 0.0000 0.0000 25.6126
#
#
#
# Elastic Compliance Matrix: (Units=1/GPa)
#
#
# Indices 1 2 3 4 5 6 
#
# 1 0.026467 0.000863 -0.001798 0.000000 0.000000 0.000000
# 2 0.000863 0.008073 -0.002237 0.000000 0.000000 0.000000
# 3 -0.001798 -0.002237 0.010481 0.000000 0.000000 0.000000
# 4 0.000000 0.000000 0.000000 -0.027319 0.000000 0.000000
# 5 0.000000 0.000000 0.000000 0.000000 -0.056064 0.000000
# 6 0.000000 0.000000 0.000000 0.000000 0.000000 0.039043
#
#
# Mechanical properties :
#
#
# Convention : Reuss Voigt Hill
#
# Bulk Modulus (GPa) = 25.85481 37.23684 31.54582
# Shear Modulus (GPa) = 251.01864 10.30646 130.66255
#
# Velocity S-wave (km/s) = 10.75449 2.17917 7.75912
# Velocity P-wave (km/s) = 12.88895 4.84654 9.73689
#
# Compressibility (1/GPa) = 0.03867752
#
# Stress axis : x y z
#
# Youngs Moduli (GPa) = 37.78255 123.86562 95.40763
#
# Poissons Ratio (x) = -0.10687 0.17157
# Poissons Ratio (y) = -0.03260 0.21340
# Poissons Ratio (z) = 0.06794 0.27705
#
# Static dielectric constant tensor:
#      x y z
#    x 1.885260 0.000000 0.000000 
#    y 0.000000 1.749270 0.000000 
#    z 0.000000 0.000000 1.819630 
# 
# From -- ./inp_files/48866.got.cif
#   From: 2010.05.17/outbox.cif.g08.bks.cpg/sg68_25_cif.got.tgz:48866.got - 2010.06.03 18:57:09.
