data_PCOD9507670
_publ_section_title
;
Structure prediction by ZEFSAII (Michael W. Deem and Ramdas Pophale) SiO2 
 PCOD9507670
Probable space group: C C C A
;
_chemical_formula_sum "Si O2"
_cell_formula_units_Z 112
_cell_length_a 22.568982
_cell_length_b 14.859392
_cell_length_c 14.477990
_cell_angle_alpha 90.000000
_cell_angle_beta 90.000000
_cell_angle_gamma 90.000000
_cell_volume 4855.358280
_symmetry_space_group_name_H-M "C C C A"
_symmetry_group_IT_number 68
_space_group.IT_coordinate_system_code '2'
_symmetry_cell_setting 'orthorhombic'
loop_
_space_group_symop_operation_xyz
x,y,z
-x,1/2-y,z
x,1/2-y,1/2-z
-x,y,1/2-z
-x,-y,-z
x,1/2+y,-z
-x,1/2+y,1/2+z
x,-y,1/2+z
1/2+x,1/2+y,z
1/2-x,-y,z
1/2+x,-y,1/2-z
1/2-x,1/2+y,1/2-z
1/2-x,1/2-y,-z
1/2+x,y,-z
1/2-x,y,1/2+z
1/2+x,1/2-y,1/2+z
loop_
_atom_site_type_symbol
_atom_site_label
_atom_site_fract_x
_atom_site_fract_y
_atom_site_fract_z
Si Si1 0.459890 0.627011 0.369643
Si Si2 0.211042 0.407711 0.767953
Si Si3 0.095559 0.189708 0.379102
Si Si4 0.899325 0.976484 0.717412
Si Si5 0.171054 0.106689 0.532258
Si Si6 0.892935 0.065153 0.529551
Si Si7 0.226380 0.331154 0.571006
O O1 0.527224 0.658630 0.363315
O O2 0.411572 0.706805 0.353365
O O3 0.443392 0.548173 0.299441
O O4 0.447562 0.603911 0.474556
O O5 0.250000 0.500000 0.775223
O O6 0.147303 0.449639 0.746303
O O7 0.199102 0.365400 0.869279
O O8 0.228915 0.340845 0.683682
O O9 0.129542 0.119226 0.313708
O O10 0.124160 0.172520 0.479818
O O11 0.919161 0.017115 0.619653
O O12 0.226122 0.095502 0.463266
O O13 0.137826 0.011286 0.534090
O O14 0.840381 0.136581 0.548289
O O15 0.250000 0.250000 0.500000
#
# Coordination Sequence:
#
# PCOD9507670 Si02
#       7
#    16  16  16  16  16  16  16
#     4  11  21  41  64  94 135 175 222 277 345 393
#     4  11  22  40  66  93 131 176 218 272 336 402
#     4  10  23  39  64  95 135 173 221 284 336 405
#     4  10  21  37  61  97 125 172 222 271 331 396
#     4  11  22  41  62  94 131 174 219 277 334 399
#     4  10  21  38  64  94 129 171 221 277 335 399
#     4  11  23  40  64  94 130 169 221 274 332 408
#
# _framework density 23.067298999999998
#
# number of rings (size 3 to 8) (size 9 to 14) (size 15 to 20)
#    0.000    1.429    1.429    5.571    0.000    4.000 
#    2.571    0.000    0.000    0.000    0.000    8.000 
#    0.000    0.000    0.000    0.000    0.000    0.000 
#
# Total GULP energy -311797.520631 kJ/mol
# GULP energy per Si atom -5567.812868 kJ/mol
# Density = 2.301480 g / cm^3
# Si number density = 23.067299 Si / 1000 Ang^3
#
#
#
# Elastic Constant Matrix: (Units=GPa)
#
#
# Indices 1 2 3 4 5 6 
#
# 1 49.2976 17.1905 37.6413 0.0000 0.0000 0.0000
# 2 17.1905 77.2853 44.1665 0.0000 0.0000 0.0000
# 3 37.6413 44.1665 185.4700 0.0000 0.0000 0.0000
# 4 0.0000 0.0000 0.0000 34.9373 0.0000 0.0000
# 5 0.0000 0.0000 0.0000 0.0000 32.0888 0.0000
# 6 0.0000 0.0000 0.0000 0.0000 0.0000 32.9921
#
#
#
# Elastic Compliance Matrix: (Units=1/GPa)
#
#
# Indices 1 2 3 4 5 6 
#
# 1 0.024604 -0.003032 -0.004271 0.000000 0.000000 0.000000
# 2 -0.003032 0.015351 -0.003040 0.000000 0.000000 0.000000
# 3 -0.004271 -0.003040 0.006983 0.000000 0.000000 0.000000
# 4 0.000000 0.000000 0.000000 0.028623 0.000000 0.000000
# 5 0.000000 0.000000 0.000000 0.000000 0.031164 0.000000
# 6 0.000000 0.000000 0.000000 0.000000 0.000000 0.030310
#
#
# Mechanical properties :
#
#
# Convention : Reuss Voigt Hill
#
# Bulk Modulus (GPa) = 38.09454 56.67216 47.38335
# Shear Modulus (GPa) = 30.03544 34.20728 32.12136
#
# Velocity S-wave (km/s) = 3.61235 3.85507 3.73568
# Velocity P-wave (km/s) = 5.82659 6.66610 6.26043
#
# Compressibility (1/GPa) = 0.02625048
#
# Stress axis : x y z
#
# Youngs Moduli (GPa) = 40.64460 65.14312 143.21343
#
# Poissons Ratio (x) = 0.19748 0.61172
# Poissons Ratio (y) = 0.12322 0.43541
# Poissons Ratio (z) = 0.17361 0.19805
#
# Static dielectric constant tensor:
#      x y z
#    x 1.879920 0.000000 0.000000 
#    y 0.000000 1.988420 0.000000 
#    z 0.000000 0.000000 1.971040 
# 
# From -- ./inp_files/25440.got.cif
#   From: 2010.05.17/outbox.cif.g08.bks.cpg/sg68_13_cif.got.tgz:25440.got - 2010.06.03 18:57:09.
