data_PCOD9507115
_publ_section_title
;
Structure prediction by ZEFSAII (Michael W. Deem and Ramdas Pophale) SiO2 
 PCOD9507115
Probable space group: C C C A
;
_chemical_formula_sum "Si O2"
_cell_formula_units_Z 104
_cell_length_a 32.258768
_cell_length_b 18.311874
_cell_length_c 8.703500
_cell_angle_alpha 90.000000
_cell_angle_beta 90.000000
_cell_angle_gamma 90.000000
_cell_volume 5141.318421
_symmetry_space_group_name_H-M "C C C A"
_symmetry_group_IT_number 68
_space_group.IT_coordinate_system_code '2'
_symmetry_cell_setting 'orthorhombic'
loop_
_space_group_symop_operation_xyz
x,y,z
-x,1/2-y,z
x,1/2-y,1/2-z
-x,y,1/2-z
-x,-y,-z
x,1/2+y,-z
-x,1/2+y,1/2+z
x,-y,1/2+z
1/2+x,1/2+y,z
1/2-x,-y,z
1/2+x,-y,1/2-z
1/2-x,1/2+y,1/2-z
1/2-x,1/2-y,-z
1/2+x,y,-z
1/2-x,y,1/2+z
1/2+x,1/2-y,1/2+z
loop_
_atom_site_type_symbol
_atom_site_label
_atom_site_fract_x
_atom_site_fract_y
_atom_site_fract_z
Si Si1 0.999185 0.338087 0.066097
Si Si2 0.190742 0.448089 0.340646
Si Si3 0.629693 0.184555 0.842502
Si Si4 0.921640 0.083365 0.124747
Si Si5 0.112119 0.543696 0.309224
Si Si6 0.577917 0.682476 0.863336
Si Si7 0.750000 0.000000 0.603058
O O1 0.000000 0.250000 0.053575
O O2 0.000000 0.353271 0.250000
O O3 0.039266 0.386427 0.027743
O O4 0.961086 0.354434 0.952586
O O5 0.162668 0.378110 0.369191
O O6 0.157692 0.509704 0.287090
O O7 0.215031 0.467695 0.493771
O O8 0.226275 0.442648 0.211849
O O9 0.649652 0.250000 0.750000
O O10 0.595228 0.150226 0.727220
O O11 0.607083 0.209493 0.997367
O O12 0.921347 0.015884 0.245000
O O13 0.891515 0.055511 0.991265
O O14 0.102575 0.619569 0.226028
O O15 0.566708 0.750000 0.750000
#
# Coordination Sequence:
#
# PCOD9507115 Si02
#       7
#    16  16  16  16  16  16   8
#     4  11  23  41  61  84 124 175 217 267 321 371
#     4  10  21  39  65  93 127 160 204 256 310 387
#     4  11  21  40  64  91 125 170 210 261 322 372
#     4  11  23  40  64  89 126 173 215 268 318 369
#     4  11  23  41  62  95 126 160 214 269 314 377
#     4  12  25  40  64  93 124 169 223 270 320 380
#     4  10  20  38  66  94 120 164 202 244 320 388
#
# _framework density 20.228276000000001
#
# number of rings (size 3 to 8) (size 9 to 14) (size 15 to 20)
#    0.000    1.077    1.538    7.385    0.000    2.769 
#    0.000    0.769    0.000    3.692    0.000    0.000 
#    0.000    0.000    0.000    0.000    0.000    0.000 
#
# Total GULP energy -290065.629972 kJ/mol
# GULP energy per Si atom -5578.185192 kJ/mol
# Density = 2.018224 g / cm^3
# Si number density = 20.228276 Si / 1000 Ang^3
#
#
#
# Elastic Constant Matrix: (Units=GPa)
#
#
# Indices 1 2 3 4 5 6 
#
# 1 97.9921 16.5714 34.6874 0.0000 0.0000 0.0000
# 2 16.5714 51.9577 24.8987 0.0000 0.0000 0.0000
# 3 34.6874 24.8987 123.0256 0.0000 0.0000 0.0000
# 4 0.0000 0.0000 0.0000 18.3828 0.0000 0.0000
# 5 0.0000 0.0000 0.0000 0.0000 38.7694 0.0000
# 6 0.0000 0.0000 0.0000 0.0000 0.0000 9.2478
#
#
#
# Elastic Compliance Matrix: (Units=1/GPa)
#
#
# Indices 1 2 3 4 5 6 
#
# 1 0.011592 -0.002360 -0.002791 0.000000 0.000000 0.000000
# 2 -0.002360 0.021794 -0.003745 0.000000 0.000000 0.000000
# 3 -0.002791 -0.003745 0.009673 0.000000 0.000000 0.000000
# 4 0.000000 0.000000 0.000000 0.054399 0.000000 0.000000
# 5 0.000000 0.000000 0.000000 0.000000 0.025794 0.000000
# 6 0.000000 0.000000 0.000000 0.000000 0.000000 0.108133
#
#
# Mechanical properties :
#
#
# Convention : Reuss Voigt Hill
#
# Bulk Modulus (GPa) = 39.57715 47.25449 43.41582
# Shear Modulus (GPa) = 19.41003 26.40121 22.90562
#
# Velocity S-wave (km/s) = 3.10102 3.61662 3.36870
# Velocity P-wave (km/s) = 5.69469 6.39150 6.05313
#
# Compressibility (1/GPa) = 0.02526711
#
# Stress axis : x y z
#
# Youngs Moduli (GPa) = 86.26756 45.88437 103.37754
#
# Poissons Ratio (x) = 0.10828 0.28850
# Poissons Ratio (y) = 0.20357 0.38720
# Poissons Ratio (z) = 0.24075 0.17186
#
# Static dielectric constant tensor:
#      x y z
#    x 1.760440 0.000000 0.000000 
#    y 0.000000 1.707440 0.000000 
#    z 0.000000 0.000000 1.736120 
# 
# From -- ./inp_files/9602.got.cif
#   From: 2010.05.17/outbox.cif.g08.bks.cpg/sg68_5_cif.got.tgz:9602.got - 2010.06.03 18:57:09.
