data_PCOD9507519
_publ_section_title
;
Structure prediction by ZEFSAII (Michael W. Deem and Ramdas Pophale) SiO2 
 PCOD9507519
Probable space group: C C C A
;
_chemical_formula_sum "Si O2"
_cell_formula_units_Z 104
_cell_length_a 22.502271
_cell_length_b 26.352996
_cell_length_c 9.872746
_cell_angle_alpha 90.000000
_cell_angle_beta 90.000000
_cell_angle_gamma 90.000000
_cell_volume 5854.560667
_symmetry_space_group_name_H-M "C C C A"
_symmetry_group_IT_number 68
_space_group.IT_coordinate_system_code '2'
_symmetry_cell_setting 'orthorhombic'
loop_
_space_group_symop_operation_xyz
x,y,z
-x,1/2-y,z
x,1/2-y,1/2-z
-x,y,1/2-z
-x,-y,-z
x,1/2+y,-z
-x,1/2+y,1/2+z
x,-y,1/2+z
1/2+x,1/2+y,z
1/2-x,-y,z
1/2+x,-y,1/2-z
1/2-x,1/2+y,1/2-z
1/2-x,1/2-y,-z
1/2+x,y,-z
1/2-x,y,1/2+z
1/2+x,1/2-y,1/2+z
loop_
_atom_site_type_symbol
_atom_site_label
_atom_site_fract_x
_atom_site_fract_y
_atom_site_fract_z
Si Si1 0.120453 0.386418 0.964906
Si Si2 0.071667 0.534924 0.250000
Si Si3 0.428819 0.190465 0.250000
Si Si4 0.750000 0.578163 1.000000
Si Si5 0.250000 0.500000 0.750000
Si Si6 0.620453 0.613582 0.964906
Si Si7 0.071271 0.916945 0.750000
O O1 0.097584 0.435698 0.879734
O O2 0.097223 0.338647 0.880195
O O3 0.191147 0.389438 0.972034
O O4 0.094197 0.390670 0.114438
O O5 0.097584 0.564302 0.120265
O O6 0.090640 0.476356 0.249999
O O7 0.000000 0.538250 0.250000
O O8 0.415596 0.250000 0.250000
O O9 0.500000 0.183528 0.250000
O O10 0.402777 0.161353 0.380196
O O11 0.760288 0.543026 0.869276
O O12 0.691147 0.610562 0.972033
O O13 0.739713 0.543026 0.130724
O O14 0.594197 0.609330 0.114439
O O15 0.000000 0.917327 0.750000
#
# Coordination Sequence:
#
# PCOD9507519 Si02
#       7
#    16  16  16  16   8  16  16
#     4  11  22  36  58  83 119 151 195 242 286 348
#     4  10  21  35  53  80 118 164 200 230 281 346
#     4  10  22  44  70  87 104 145 201 256 313 361
#     4  11  24  34  55  84 118 160 201 226 285 330
#     4  10  22  34  50  78 120 168 198 224 252 332
#     4  11  22  36  58  83 119 151 195 242 286 348
#     4  11  22  33  52  84 118 154 187 233 292 341
#
# _framework density 17.763929000000001
#
# number of rings (size 3 to 8) (size 9 to 14) (size 15 to 20)
#    0.000    1.385    0.000    7.385   12.923    2.462 
#    0.000    1.538    0.000    2.769    0.000    0.000 
#    0.000    0.000    0.000    0.000    0.000    0.000 
#
# Total GULP energy -289688.037100 kJ/mol
# GULP energy per Si atom -5570.923790 kJ/mol
# Density = 1.772350 g / cm^3
# Si number density = 17.763929 Si / 1000 Ang^3
#
#
#
# Elastic Constant Matrix: (Units=GPa)
#
#
# Indices 1 2 3 4 5 6 
#
# 1 125.6922 67.3685 53.6112 0.0000 0.0000 0.0000
# 2 67.3685 133.3918 70.3600 0.0000 0.0000 0.0000
# 3 53.6112 70.3600 189.4056 0.0000 0.0000 0.0000
# 4 0.0000 0.0000 0.0000 5.4609 0.0000 0.0000
# 5 0.0000 0.0000 0.0000 0.0000 34.8457 0.0000
# 6 0.0000 0.0000 0.0000 0.0000 0.0000 -28.7962
#
#
#
# Elastic Compliance Matrix: (Units=1/GPa)
#
#
# Indices 1 2 3 4 5 6 
#
# 1 0.011170 -0.004942 -0.001326 0.000000 0.000000 0.000000
# 2 -0.004942 0.011510 -0.002877 0.000000 0.000000 0.000000
# 3 -0.001326 -0.002877 0.006724 0.000000 0.000000 0.000000
# 4 0.000000 0.000000 0.000000 0.183119 0.000000 0.000000
# 5 0.000000 0.000000 0.000000 0.000000 0.028698 0.000000
# 6 0.000000 0.000000 0.000000 0.000000 0.000000 -0.034727
#
#
# Mechanical properties :
#
#
# Convention : Reuss Voigt Hill
#
# Bulk Modulus (GPa) = 89.97364 92.35211 91.16287
# Shear Modulus (GPa) = 21.88286 19.44541 20.66414
#
# Velocity S-wave (km/s) = 3.51361 3.31215 3.41437
# Velocity P-wave (km/s) = 8.19879 8.16875 8.18379
#
# Compressibility (1/GPa) = 0.01111437
#
# Stress axis : x y z
#
# Youngs Moduli (GPa) = 89.52272 86.87963 148.72834
#
# Poissons Ratio (x) = 0.42937 0.19719
# Poissons Ratio (y) = 0.44243 0.42788
# Poissons Ratio (z) = 0.11870 0.24994
#
# Static dielectric constant tensor:
#      x y z
#    x 1.618510 0.000000 0.000000 
#    y 0.000000 1.574360 0.000000 
#    z 0.000000 0.000000 1.579360 
# 
# From -- ./inp_files/7368.got.cif
#   From: 2010.05.17/outbox.cif.g08.bks.cpg/sg68_4_cif.got.tgz:7368.got - 2010.06.03 18:57:09.
