data_PCOD9507167
_publ_section_title
;
Structure prediction by ZEFSAII (Michael W. Deem and Ramdas Pophale) SiO2 
 PCOD9507167
Probable space group: C C C A
;
_chemical_formula_sum "Si O2"
_cell_formula_units_Z 68
_cell_length_a 16.748049
_cell_length_b 22.135736
_cell_length_c 8.949367
_cell_angle_alpha 90.000000
_cell_angle_beta 90.000000
_cell_angle_gamma 90.000000
_cell_volume 3317.802329
_symmetry_space_group_name_H-M "C C C A"
_symmetry_group_IT_number 68
_space_group.IT_coordinate_system_code '2'
_symmetry_cell_setting 'orthorhombic'
loop_
_space_group_symop_operation_xyz
x,y,z
-x,1/2-y,z
x,1/2-y,1/2-z
-x,y,1/2-z
-x,-y,-z
x,1/2+y,-z
-x,1/2+y,1/2+z
x,-y,1/2+z
1/2+x,1/2+y,z
1/2-x,-y,z
1/2+x,-y,1/2-z
1/2-x,1/2+y,1/2-z
1/2-x,1/2-y,-z
1/2+x,y,-z
1/2-x,y,1/2+z
1/2+x,1/2-y,1/2+z
loop_
_atom_site_type_symbol
_atom_site_label
_atom_site_fract_x
_atom_site_fract_y
_atom_site_fract_z
Si Si1 0.920562 0.456264 0.353169
Si Si2 0.199734 0.691716 0.341580
Si Si3 0.413061 0.922152 0.699537
Si Si4 0.647218 0.827936 0.170842
Si Si5 0.000000 0.750000 0.750000
O O1 0.928332 0.449026 0.532398
O O2 0.889205 0.521989 0.305854
O O3 0.865411 0.399378 0.317035
O O4 0.000000 0.449145 0.250000
O O5 0.168667 0.750000 0.250000
O O6 0.150997 0.631338 0.295741
O O7 0.293216 0.687811 0.303685
O O8 0.188837 0.692182 0.518358
O O9 0.500000 0.898871 0.750000
O O10 0.561639 0.794889 0.168653
#
# Coordination Sequence:
#
# PCOD9507167 Si02
#       5
#    16  16  16  16   4
#     4  10  20  39  62  94 128 171 219 268 319 389
#     4  11  25  43  64  97 133 168 215 273 325 386
#     4  10  22  38  63  95 130 172 217 269 325 385
#     4  11  25  43  69  94 133 170 216 268 328 392
#     4  12  24  44  70  96 122 180 208 256 344 380
#
# _framework density 20.495494999999998
#
# number of rings (size 3 to 8) (size 9 to 14) (size 15 to 20)
#    0.000    1.412    2.353    3.529    0.000    8.941 
#    0.000    4.706    0.000    0.000    0.000    0.000 
#    0.000    0.000    0.000    0.000    0.000    0.000 
#
# Total GULP energy -189678.249704 kJ/mol
# GULP energy per Si atom -5578.772050 kJ/mol
# Density = 2.044885 g / cm^3
# Si number density = 20.495495 Si / 1000 Ang^3
#
#
#
# Elastic Constant Matrix: (Units=GPa)
#
#
# Indices 1 2 3 4 5 6 
#
# 1 97.6735 40.4111 47.5026 0.0000 0.0000 0.0000
# 2 40.4111 106.0933 29.8141 0.0000 0.0000 0.0000
# 3 47.5026 29.8141 89.0247 0.0000 0.0000 0.0000
# 4 0.0000 0.0000 0.0000 26.1270 0.0000 0.0000
# 5 0.0000 0.0000 0.0000 0.0000 20.2347 0.0000
# 6 0.0000 0.0000 0.0000 0.0000 0.0000 32.9042
#
#
#
# Elastic Compliance Matrix: (Units=1/GPa)
#
#
# Indices 1 2 3 4 5 6 
#
# 1 0.015133 -0.003858 -0.006783 0.000000 0.000000 0.000000
# 2 -0.003858 0.011389 -0.001755 0.000000 0.000000 0.000000
# 3 -0.006783 -0.001755 0.015440 0.000000 0.000000 0.000000
# 4 0.000000 0.000000 0.000000 0.038275 0.000000 0.000000
# 5 0.000000 0.000000 0.000000 0.000000 0.049420 0.000000
# 6 0.000000 0.000000 0.000000 0.000000 0.000000 0.030391
#
#
# Mechanical properties :
#
#
# Convention : Reuss Voigt Hill
#
# Bulk Modulus (GPa) = 58.24430 58.69411 58.46920
# Shear Modulus (GPa) = 26.23800 27.52409 26.88104
#
# Velocity S-wave (km/s) = 3.58185 3.66858 3.62547
# Velocity P-wave (km/s) = 6.75174 6.82967 6.79082
#
# Compressibility (1/GPa) = 0.01716906
#
# Stress axis : x y z
#
# Youngs Moduli (GPa) = 66.07974 87.80772 64.76717
#
# Poissons Ratio (x) = 0.33878 0.43931
# Poissons Ratio (y) = 0.25495 0.11369
# Poissons Ratio (z) = 0.44821 0.15413
#
# Static dielectric constant tensor:
#      x y z
#    x 1.712200 0.000000 0.000000 
#    y 0.000000 1.776180 0.000000 
#    z 0.000000 0.000000 1.776460 
# 
# From -- ./inp_files/5927.got.cif
#   From: 2010.05.17/outbox.cif.g08.bks.cpg/sg68_3_cif.got.tgz:5927.got - 2010.06.03 18:57:09.
