data_PCOD9507581
_publ_section_title
;
Structure prediction by ZEFSAII (Michael W. Deem and Ramdas Pophale) SiO2 
 PCOD9507581
Probable space group: C C C A
;
_chemical_formula_sum "Si O2"
_cell_formula_units_Z 88
_cell_length_a 30.410239
_cell_length_b 24.067308
_cell_length_c 4.992109
_cell_angle_alpha 90.000000
_cell_angle_beta 90.000000
_cell_angle_gamma 90.000000
_cell_volume 3653.687577
_symmetry_space_group_name_H-M "C C C A"
_symmetry_group_IT_number 68
_space_group.IT_coordinate_system_code '2'
_symmetry_cell_setting 'orthorhombic'
loop_
_space_group_symop_operation_xyz
x,y,z
-x,1/2-y,z
x,1/2-y,1/2-z
-x,y,1/2-z
-x,-y,-z
x,1/2+y,-z
-x,1/2+y,1/2+z
x,-y,1/2+z
1/2+x,1/2+y,z
1/2-x,-y,z
1/2+x,-y,1/2-z
1/2-x,1/2+y,1/2-z
1/2-x,1/2-y,-z
1/2+x,y,-z
1/2-x,y,1/2+z
1/2+x,1/2-y,1/2+z
loop_
_atom_site_type_symbol
_atom_site_label
_atom_site_fract_x
_atom_site_fract_y
_atom_site_fract_z
Si Si1 0.952363 0.628301 0.142740
Si Si2 0.072620 0.750000 0.250000
Si Si3 0.221153 0.858231 0.269283
Si Si4 0.814865 0.530837 0.546433
Si Si5 0.848981 0.298522 0.081544
Si Si6 0.896960 0.404592 0.151884
O O1 0.952196 0.696138 0.130466
O O2 0.917339 0.611416 0.367633
O O3 0.000000 0.610916 0.250000
O O4 0.935454 0.599382 0.871184
O O5 0.105419 0.773497 0.473902
O O6 0.237124 0.851608 0.967627
O O7 0.201999 0.916569 0.379922
O O8 0.182930 0.815636 0.343144
O O9 0.800673 0.480700 0.350373
O O10 0.867010 0.541600 0.598649
O O11 0.827399 0.250000 0.250000
O O12 0.862968 0.355069 0.233782
#
# Coordination Sequence:
#
# PCOD9507581 Si02
#       6
#    16   8  16  16  16  16
#     4  11  21  36  60  90 127 160 195 250 306 344
#     4  10  21  36  58  88 120 168 218 246 272 362
#     4  11  26  41  59  92 126 154 200 254 305 361
#     4  11  23  42  70  90 112 157 205 252 308 363
#     4  10  21  38  61  81 123 169 205 240 293 348
#     4  10  22  39  60  90 122 156 204 248 293 371
#
# _framework density 24.085255
#
# number of rings (size 3 to 8) (size 9 to 14) (size 15 to 20)
#    0.000    1.455    1.818    3.000    2.545    5.818 
#    0.000    1.818    0.000   10.909    0.000    0.000 
#    0.000    0.000    0.000    0.000    0.000    0.000 
#
# Total GULP energy -245849.304857 kJ/mol
# GULP energy per Si atom -5587.484201 kJ/mol
# Density = 2.403044 g / cm^3
# Si number density = 24.085255 Si / 1000 Ang^3
#
#
#
# Elastic Constant Matrix: (Units=GPa)
#
#
# Indices 1 2 3 4 5 6 
#
# 1 59.8039 4.0303 -13.8500 0.0000 0.0000 0.0000
# 2 4.0303 31.8872 20.7820 0.0000 0.0000 0.0000
# 3 -13.8500 20.7820 83.0086 0.0000 0.0000 0.0000
# 4 0.0000 0.0000 0.0000 27.4474 0.0000 0.0000
# 5 0.0000 0.0000 0.0000 0.0000 10.1575 0.0000
# 6 0.0000 0.0000 0.0000 0.0000 0.0000 31.9235
#
#
#
# Elastic Compliance Matrix: (Units=1/GPa)
#
#
# Indices 1 2 3 4 5 6 
#
# 1 0.018055 -0.005073 0.004283 0.000000 0.000000 0.000000
# 2 -0.005073 0.038901 -0.010586 0.000000 0.000000 0.000000
# 3 0.004283 -0.010586 0.015412 0.000000 0.000000 0.000000
# 4 0.000000 0.000000 0.000000 0.036433 0.000000 0.000000
# 5 0.000000 0.000000 0.000000 0.000000 0.098449 0.000000
# 6 0.000000 0.000000 0.000000 0.000000 0.000000 0.031325
#
#
# Mechanical properties :
#
#
# Convention : Reuss Voigt Hill
#
# Bulk Modulus (GPa) = 20.15513 21.84714 21.00114
# Shear Modulus (GPa) = 17.99431 24.82151 21.40791
#
# Velocity S-wave (km/s) = 2.73630 3.21373 2.98457
# Velocity P-wave (km/s) = 4.28596 4.78134 4.54041
#
# Compressibility (1/GPa) = 0.04961516
#
# Stress axis : x y z
#
# Youngs Moduli (GPa) = 55.38633 25.70648 64.88578
#
# Poissons Ratio (x) = 0.13041 -0.27788
# Poissons Ratio (y) = 0.28098 0.68686
# Poissons Ratio (z) = -0.23720 0.27212
#
# Static dielectric constant tensor:
#      x y z
#    x 1.910730 0.000000 0.000000 
#    y 0.000000 2.011340 0.000000 
#    z 0.000000 0.000000 1.890830 
# 
# From -- ./inp_files/2097.got.cif
#   From: 2010.05.17/outbox.cif.g08.bks.cpg/sg68_2_cif.got.tgz:2097.got - 2010.06.03 18:57:09.
