data_PCOD9507070
_publ_section_title
;
Structure prediction by ZEFSAII (Michael W. Deem and Ramdas Pophale) SiO2 
 PCOD9507070
Probable space group: C C C A
;
_chemical_formula_sum "Si O2"
_cell_formula_units_Z 88
_cell_length_a 21.349764
_cell_length_b 13.228189
_cell_length_c 15.292589
_cell_angle_alpha 90.000000
_cell_angle_beta 90.000000
_cell_angle_gamma 90.000000
_cell_volume 4318.913308
_symmetry_space_group_name_H-M "C C C A"
_symmetry_group_IT_number 68
_space_group.IT_coordinate_system_code '2'
_symmetry_cell_setting 'orthorhombic'
loop_
_space_group_symop_operation_xyz
x,y,z
-x,1/2-y,z
x,1/2-y,1/2-z
-x,y,1/2-z
-x,-y,-z
x,1/2+y,-z
-x,1/2+y,1/2+z
x,-y,1/2+z
1/2+x,1/2+y,z
1/2-x,-y,z
1/2+x,-y,1/2-z
1/2-x,1/2+y,1/2-z
1/2-x,1/2-y,-z
1/2+x,y,-z
1/2-x,y,1/2+z
1/2+x,1/2-y,1/2+z
loop_
_atom_site_type_symbol
_atom_site_label
_atom_site_fract_x
_atom_site_fract_y
_atom_site_fract_z
Si Si1 0.931307 0.230836 0.125250
Si Si2 0.670319 0.750000 0.250000
Si Si3 0.060095 0.932170 0.024039
Si Si4 0.637289 0.122075 0.998323
Si Si5 0.249648 0.380018 0.883463
Si Si6 0.614382 0.218482 0.352198
O O1 0.878987 0.189122 0.190341
O O2 0.902187 0.331240 0.082492
O O3 0.000000 0.250000 0.161091
O O4 0.939220 0.155339 0.046377
O O5 0.712382 0.677301 0.192436
O O6 0.065202 0.868232 0.114720
O O7 0.119264 0.004884 0.005494
O O8 0.000000 0.000000 0.000000
O O9 0.710122 0.137963 0.972605
O O10 0.615208 0.181723 0.085086
O O11 0.250000 0.500000 0.868632
O O12 0.180710 0.333914 0.876546
O O13 0.609463 0.250000 0.250000
#
# Coordination Sequence:
#
# PCOD9507070 Si02
#       6
#    16   8  16  16  16  16
#     4  10  20  38  63  88 127 168 215 268 330 397
#     4  10  23  38  58  96 128 161 212 282 322 390
#     4  11  22  42  68  94 128 178 223 266 338 416
#     4  10  22  40  65  90 129 176 220 270 339 408
#     4  11  21  41  66  92 132 176 224 274 342 412
#     4  11  24  43  66  99 137 173 226 291 342 397
#
# _framework density 20.375495999999998
#
# number of rings (size 3 to 8) (size 9 to 14) (size 15 to 20)
#    0.000    1.455    4.545    0.818    0.000    1.455 
#    0.000    2.727    0.000    0.000    0.000    0.000 
#    0.000    0.000    0.000    0.000    0.000    0.000 
#
# Total GULP energy -245222.291725 kJ/mol
# GULP energy per Si atom -5573.233903 kJ/mol
# Density = 2.032912 g / cm^3
# Si number density = 20.375496 Si / 1000 Ang^3
#
#
#
# Elastic Constant Matrix: (Units=GPa)
#
#
# Indices 1 2 3 4 5 6 
#
# 1 74.0583 17.9110 20.5162 0.0000 0.0000 0.0000
# 2 17.9110 95.9363 35.9966 0.0000 0.0000 0.0000
# 3 20.5162 35.9966 107.5766 0.0000 0.0000 0.0000
# 4 0.0000 0.0000 0.0000 14.4154 0.0000 0.0000
# 5 0.0000 0.0000 0.0000 0.0000 -17.2433 0.0000
# 6 0.0000 0.0000 0.0000 0.0000 0.0000 26.8139
#
#
#
# Elastic Compliance Matrix: (Units=1/GPa)
#
#
# Indices 1 2 3 4 5 6 
#
# 1 0.014558 -0.001917 -0.002135 0.000000 0.000000 0.000000
# 2 -0.001917 0.012173 -0.003708 0.000000 0.000000 0.000000
# 3 -0.002135 -0.003708 0.010943 0.000000 0.000000 0.000000
# 4 0.000000 0.000000 0.000000 0.069370 0.000000 0.000000
# 5 0.000000 0.000000 0.000000 0.000000 -0.057994 0.000000
# 6 0.000000 0.000000 0.000000 0.000000 0.000000 0.037294
#
#
# Mechanical properties :
#
#
# Convention : Reuss Voigt Hill
#
# Bulk Modulus (GPa) = 45.13607 47.37987 46.25797
# Shear Modulus (GPa) = 45.76724 18.34037 32.05381
#
# Velocity S-wave (km/s) = 4.74454 3.00345 3.97060
# Velocity P-wave (km/s) = 7.22596 5.94403 6.61611
#
# Compressibility (1/GPa) = 0.02215523
#
# Stress axis : x y z
#
# Youngs Moduli (GPa) = 68.69120 82.15191 91.37870
#
# Poissons Ratio (x) = 0.15747 0.19509
# Poissons Ratio (y) = 0.13167 0.33879
# Poissons Ratio (z) = 0.14665 0.30458
#
# Static dielectric constant tensor:
#      x y z
#    x 1.877080 0.000000 0.000000 
#    y 0.000000 1.692520 0.000000 
#    z 0.000000 0.000000 1.905870 
# 
# From -- ./inp_files/24359.got.cif
#   From: 2010.05.17/outbox.cif.g08.bks.cpg/sg68_13_cif.got.tgz:24359.got - 2010.06.03 18:57:09.
