data_PCOD9507046
_publ_section_title
;
Structure prediction by ZEFSAII (Michael W. Deem and Ramdas Pophale) SiO2 
 PCOD9507046
Probable space group: C C C A
;
_chemical_formula_sum "Si O2"
_cell_formula_units_Z 88
_cell_length_a 23.836719
_cell_length_b 15.936301
_cell_length_c 11.704759
_cell_angle_alpha 90.000000
_cell_angle_beta 90.000000
_cell_angle_gamma 90.000000
_cell_volume 4446.276605
_symmetry_space_group_name_H-M "C C C A"
_symmetry_group_IT_number 68
_space_group.IT_coordinate_system_code '2'
_symmetry_cell_setting 'orthorhombic'
loop_
_space_group_symop_operation_xyz
x,y,z
-x,1/2-y,z
x,1/2-y,1/2-z
-x,y,1/2-z
-x,-y,-z
x,1/2+y,-z
-x,1/2+y,1/2+z
x,-y,1/2+z
1/2+x,1/2+y,z
1/2-x,-y,z
1/2+x,-y,1/2-z
1/2-x,1/2+y,1/2-z
1/2-x,1/2-y,-z
1/2+x,y,-z
1/2-x,y,1/2+z
1/2+x,1/2-y,1/2+z
loop_
_atom_site_type_symbol
_atom_site_label
_atom_site_fract_x
_atom_site_fract_y
_atom_site_fract_z
Si Si1 0.984378 0.961702 0.377284
Si Si2 0.641130 0.580093 0.666746
Si Si3 0.757469 0.318129 0.346113
Si Si4 0.661876 0.741409 0.514046
Si Si5 0.250000 0.500000 0.763426
Si Si6 0.074601 0.177925 0.846875
O O1 0.018475 0.873559 0.370843
O O2 0.000000 0.000207 0.250000
O O3 0.917511 0.952786 0.381123
O O4 0.000000 0.000000 0.500000
O O5 0.661643 0.659348 0.594200
O O6 0.691866 0.514917 0.669802
O O7 0.620950 0.615240 0.790559
O O8 0.742176 0.250000 0.250000
O O9 0.710939 0.304182 0.444186
O O10 0.818388 0.290972 0.392196
O O11 0.756637 0.413416 0.305509
O O12 0.602393 0.783568 0.540063
O O13 0.067778 0.250000 0.750000
#
# Coordination Sequence:
#
# PCOD9507046 Si02
#       6
#    16  16  16  16   8  16
#     4  10  23  41  65  98 134 171 228 295 344 410
#     4  10  21  38  62  90 124 173 218 264 335 410
#     4  11  22  39  56  90 131 173 212 277 331 410
#     4  10  20  38  62  86 125 165 221 270 325 398
#     4  12  22  38  62  90 140 178 222 268 352 414
#     4   9  18  39  66  90 118 173 228 278 328 407
#
# _framework density 19.791841000000002
#
# number of rings (size 3 to 8) (size 9 to 14) (size 15 to 20)
#    0.000    1.818    3.636    0.545    0.000   13.455 
#    0.000    0.000    0.000    0.000    0.000   12.727 
#    0.000    0.000    0.000    0.000    0.000    0.000 
#
# Total GULP energy -245108.567640 kJ/mol
# GULP energy per Si atom -5570.649265 kJ/mol
# Density = 1.974679 g / cm^3
# Si number density = 19.791841 Si / 1000 Ang^3
#
#
#
# Elastic Constant Matrix: (Units=GPa)
#
#
# Indices 1 2 3 4 5 6 
#
# 1 143.0850 42.9749 35.7222 0.0000 0.0000 0.0000
# 2 42.9749 90.0479 28.3110 0.0000 0.0000 0.0000
# 3 35.7222 28.3110 69.6389 0.0000 0.0000 0.0000
# 4 0.0000 0.0000 0.0000 18.1217 0.0000 0.0000
# 5 0.0000 0.0000 0.0000 0.0000 33.9856 0.0000
# 6 0.0000 0.0000 0.0000 0.0000 0.0000 42.6124
#
#
#
# Elastic Compliance Matrix: (Units=1/GPa)
#
#
# Indices 1 2 3 4 5 6 
#
# 1 0.008737 -0.003165 -0.003195 0.000000 0.000000 0.000000
# 2 -0.003165 0.013879 -0.004019 0.000000 0.000000 0.000000
# 3 -0.003195 -0.004019 0.017633 0.000000 0.000000 0.000000
# 4 0.000000 0.000000 0.000000 0.055183 0.000000 0.000000
# 5 0.000000 0.000000 0.000000 0.000000 0.029424 0.000000
# 6 0.000000 0.000000 0.000000 0.000000 0.000000 0.023467
#
#
# Mechanical properties :
#
#
# Convention : Reuss Voigt Hill
#
# Bulk Modulus (GPa) = 51.30635 57.42089 54.36362
# Shear Modulus (GPa) = 28.47731 31.99486 30.23609
#
# Velocity S-wave (km/s) = 3.79732 4.02502 3.91283
# Velocity P-wave (km/s) = 6.72350 7.11874 6.92394
#
# Compressibility (1/GPa) = 0.01949076
#
# Stress axis : x y z
#
# Youngs Moduli (GPa) = 114.45326 72.04966 56.71332
#
# Poissons Ratio (x) = 0.22806 0.18120
# Poissons Ratio (y) = 0.36227 0.22792
# Poissons Ratio (z) = 0.36568 0.28956
#
# Static dielectric constant tensor:
#      x y z
#    x 1.749930 0.000000 0.000000 
#    y 0.000000 1.716180 0.000000 
#    z 0.000000 0.000000 1.778400 
# 
# From -- ./inp_files/16351.got.cif
#   From: 2010.05.17/outbox.cif.g08.bks.cpg/sg68_9_cif.got.tgz:16351.got - 2010.06.03 18:57:09.
