data_PCOD9507453
_publ_section_title
;
Structure prediction by ZEFSAII (Michael W. Deem and Ramdas Pophale) SiO2 
 PCOD9507453
Probable space group: C C C A
;
_chemical_formula_sum "Si O2"
_cell_formula_units_Z 96
_cell_length_a 13.331905
_cell_length_b 14.601234
_cell_length_c 21.665823
_cell_angle_alpha 90.000000
_cell_angle_beta 90.000000
_cell_angle_gamma 90.000000
_cell_volume 4217.518169
_symmetry_space_group_name_H-M "C C C A"
_symmetry_group_IT_number 68
_space_group.IT_coordinate_system_code '2'
_symmetry_cell_setting 'orthorhombic'
loop_
_space_group_symop_operation_xyz
x,y,z
-x,1/2-y,z
x,1/2-y,1/2-z
-x,y,1/2-z
-x,-y,-z
x,1/2+y,-z
-x,1/2+y,1/2+z
x,-y,1/2+z
1/2+x,1/2+y,z
1/2-x,-y,z
1/2+x,-y,1/2-z
1/2-x,1/2+y,1/2-z
1/2-x,1/2-y,-z
1/2+x,y,-z
1/2-x,y,1/2+z
1/2+x,1/2-y,1/2+z
loop_
_atom_site_type_symbol
_atom_site_label
_atom_site_fract_x
_atom_site_fract_y
_atom_site_fract_z
Si Si1 0.103384 0.899288 0.175192
Si Si2 0.586808 0.900435 0.290368
Si Si3 0.306390 0.368491 0.904080
Si Si4 0.250000 0.000000 0.000459
Si Si5 0.784722 0.319224 0.927536
Si Si6 0.267706 0.654517 0.719326
Si Si7 0.500000 0.750000 0.908361
O O1 0.209491 0.898364 0.137382
O O2 0.130510 0.865799 0.243809
O O3 0.038130 0.830767 0.135727
O O4 0.059990 0.999625 0.183197
O O5 0.500000 0.859700 0.250000
O O6 0.612172 0.847195 0.352611
O O7 0.681195 0.912665 0.243971
O O8 0.276534 0.274808 0.937437
O O9 0.328025 0.451590 0.951358
O O10 0.264439 0.090112 0.958287
O O11 0.781470 0.336918 0.853232
O O12 0.901648 0.292574 0.942295
O O13 0.232614 0.750000 0.750000
#
# Coordination Sequence:
#
# PCOD9507453 Si02
#       7
#    16  16  16   8  16  16   8
#     4  10  21  37  66  93 134 173 212 282 357 411
#     4  11  23  36  67  99 135 170 218 284 352 420
#     4  10  20  47  66  94 135 191 219 273 355 410
#     4  12  24  42  74  94 136 194 242 272 334 432
#     4  11  25  40  70  99 132 180 237 288 335 430
#     4  11  20  39  61  94 131 170 217 281 357 418
#     4  10  22  41  64 100 130 170 237 292 348 402
#
# _framework density 22.762201999999998
#
# number of rings (size 3 to 8) (size 9 to 14) (size 15 to 20)
#    0.000    1.333    6.667    2.000    4.667    1.000 
#    0.000    3.333   11.000    0.000    0.000    0.000 
#    0.000    0.000    0.000    0.000    0.000    0.000 
#
# Total GULP energy -267605.400670 kJ/mol
# GULP energy per Si atom -5575.112514 kJ/mol
# Density = 2.271039 g / cm^3
# Si number density = 22.762202 Si / 1000 Ang^3
#
#
#
# Elastic Constant Matrix: (Units=GPa)
#
#
# Indices 1 2 3 4 5 6 
#
# 1 76.7396 29.6340 27.2607 0.0000 0.0000 0.0000
# 2 29.6340 138.0281 39.6047 0.0000 0.0000 0.0000
# 3 27.2607 39.6047 117.7894 0.0000 0.0000 0.0000
# 4 0.0000 0.0000 0.0000 38.5677 0.0000 0.0000
# 5 0.0000 0.0000 0.0000 0.0000 18.3421 0.0000
# 6 0.0000 0.0000 0.0000 0.0000 0.0000 21.6328
#
#
#
# Elastic Compliance Matrix: (Units=1/GPa)
#
#
# Indices 1 2 3 4 5 6 
#
# 1 0.014910 -0.002447 -0.002628 0.000000 0.000000 0.000000
# 2 -0.002447 0.008420 -0.002265 0.000000 0.000000 0.000000
# 3 -0.002628 -0.002265 0.009859 0.000000 0.000000 0.000000
# 4 0.000000 0.000000 0.000000 0.025928 0.000000 0.000000
# 5 0.000000 0.000000 0.000000 0.000000 0.054519 0.000000
# 6 0.000000 0.000000 0.000000 0.000000 0.000000 0.046226
#
#
# Mechanical properties :
#
#
# Convention : Reuss Voigt Hill
#
# Bulk Modulus (GPa) = 54.02554 58.39512 56.21033
# Shear Modulus (GPa) = 27.66831 31.44569 29.55700
#
# Velocity S-wave (km/s) = 3.49024 3.72087 3.60740
# Velocity P-wave (km/s) = 6.32682 6.64605 6.48840
#
# Compressibility (1/GPa) = 0.01850976
#
# Stress axis : x y z
#
# Youngs Moduli (GPa) = 67.07124 118.76335 101.42594
#
# Poissons Ratio (x) = 0.29061 0.26653
# Poissons Ratio (y) = 0.16412 0.22971
# Poissons Ratio (z) = 0.17625 0.26897
#
# Static dielectric constant tensor:
#      x y z
#    x 1.939690 0.000000 0.000000 
#    y 0.000000 1.908530 0.000000 
#    z 0.000000 0.000000 1.907180 
# 
# From -- ./inp_files/38628.got.cif
#   From: 2010.05.17/outbox.cif.g08.bks.cpg/sg68_20_cif.got.tgz:38628.got - 2010.06.03 18:57:09.
