data_PCOD9507582
_publ_section_title
;
Structure prediction by ZEFSAII (Michael W. Deem and Ramdas Pophale) SiO2 
 PCOD9507582
Probable space group: C C C A
;
_chemical_formula_sum "Si O2"
_cell_formula_units_Z 84
_cell_length_a 7.895837
_cell_length_b 16.445522
_cell_length_c 27.189882
_cell_angle_alpha 90.000000
_cell_angle_beta 90.000000
_cell_angle_gamma 90.000000
_cell_volume 3530.637748
_symmetry_space_group_name_H-M "C C C A"
_symmetry_group_IT_number 68
_space_group.IT_coordinate_system_code '2'
_symmetry_cell_setting 'orthorhombic'
loop_
_space_group_symop_operation_xyz
x,y,z
-x,1/2-y,z
x,1/2-y,1/2-z
-x,y,1/2-z
-x,-y,-z
x,1/2+y,-z
-x,1/2+y,1/2+z
x,-y,1/2+z
1/2+x,1/2+y,z
1/2-x,-y,z
1/2+x,-y,1/2-z
1/2-x,1/2+y,1/2-z
1/2-x,1/2-y,-z
1/2+x,y,-z
1/2-x,y,1/2+z
1/2+x,1/2-y,1/2+z
loop_
_atom_site_type_symbol
_atom_site_label
_atom_site_fract_x
_atom_site_fract_y
_atom_site_fract_z
Si Si1 0.726031 0.406623 0.514473
Si Si2 0.938282 0.037871 0.699495
Si Si3 0.832221 0.408175 0.618454
Si Si4 0.992522 0.868975 0.830471
Si Si5 0.910016 0.162490 0.065963
Si Si6 0.000000 0.250000 0.250000
O O1 0.750000 0.500000 0.498999
O O2 0.847008 0.385564 0.561285
O O3 0.750543 0.345662 0.469254
O O4 0.542520 0.396642 0.538657
O O5 0.000000 0.078775 0.750000
O O6 0.000830 0.086511 0.651661
O O7 0.750000 0.000000 0.699127
O O8 0.042914 0.953868 0.695592
O O9 0.750000 0.500000 0.615454
O O10 0.693263 0.350739 0.645933
O O11 0.108478 0.869528 0.878695
O O12 0.077787 0.811568 0.789780
O O13 0.000000 0.250000 0.067368
#
# Coordination Sequence:
#
# PCOD9507582 Si02
#       6
#    16  16  16  16  16   4
#     4  10  21  38  61  83 119 155 193 245 295 350
#     4  11  21  35  59  87 113 144 188 244 296 343
#     4   8  18  37  57  82 111 145 187 239 290 339
#     4  10  21  36  59  84 111 152 197 232 284 353
#     4  11  22  38  58  89 118 155 196 242 298 358
#     4  12  20  36  60  78 112 160 202 222 290 344
#
# _framework density 23.791734999999999
#
# number of rings (size 3 to 8) (size 9 to 14) (size 15 to 20)
#    0.000    1.905    1.905    4.000    0.000    2.286 
#    0.000    0.000    0.000    1.143    0.000    0.000 
#    0.000    0.000    0.000    0.000    0.000    0.000 
#
# Total GULP energy -233984.873902 kJ/mol
# GULP energy per Si atom -5571.068426 kJ/mol
# Density = 2.373758 g / cm^3
# Si number density = 23.791735 Si / 1000 Ang^3
#
#
#
# Elastic Constant Matrix: (Units=GPa)
#
#
# Indices 1 2 3 4 5 6 
#
# 1 84.1352 -13.3157 40.6487 0.0000 0.0000 0.0000
# 2 -13.3157 44.4661 0.4155 0.0000 0.0000 0.0000
# 3 40.6487 0.4155 185.1720 0.0000 0.0000 0.0000
# 4 0.0000 0.0000 0.0000 24.8906 0.0000 0.0000
# 5 0.0000 0.0000 0.0000 0.0000 14.8116 0.0000
# 6 0.0000 0.0000 0.0000 0.0000 0.0000 7.2128
#
#
#
# Elastic Compliance Matrix: (Units=1/GPa)
#
#
# Indices 1 2 3 4 5 6 
#
# 1 0.014051 0.004237 -0.003094 0.000000 0.000000 0.000000
# 2 0.004237 0.023767 -0.000983 0.000000 0.000000 0.000000
# 3 -0.003094 -0.000983 0.006082 0.000000 0.000000 0.000000
# 4 0.000000 0.000000 0.000000 0.040176 0.000000 0.000000
# 5 0.000000 0.000000 0.000000 0.000000 0.067515 0.000000
# 6 0.000000 0.000000 0.000000 0.000000 0.000000 0.138642
#
#
# Mechanical properties :
#
#
# Convention : Reuss Voigt Hill
#
# Bulk Modulus (GPa) = 22.61514 41.03004 31.82259
# Shear Modulus (GPa) = 16.41213 28.45132 22.43172
#
# Velocity S-wave (km/s) = 2.62930 3.46186 3.07390
# Velocity P-wave (km/s) = 4.32940 5.76734 5.09931
#
# Compressibility (1/GPa) = 0.04421817
#
# Stress axis : x y z
#
# Youngs Moduli (GPa) = 71.16959 42.07534 164.42579
#
# Poissons Ratio (x) = -0.17826 0.50873
# Poissons Ratio (y) = -0.30152 0.16169
# Poissons Ratio (z) = 0.22020 0.04137
#
# Static dielectric constant tensor:
#      x y z
#    x 2.051750 0.000000 0.000000 
#    y 0.000000 1.972130 0.000000 
#    z 0.000000 0.000000 1.953340 
# 
# From -- ./inp_files/43072.got.cif
#   From: 2010.05.17/outbox.cif.g08.bks.cpg/sg68_22_cif.got.tgz:43072.got - 2010.06.03 18:57:09.
