data_PCOD9507516
_publ_section_title
;
Structure prediction by ZEFSAII (Michael W. Deem and Ramdas Pophale) SiO2 
 PCOD9507516
Probable space group: C C C A
;
_chemical_formula_sum "Si O2"
_cell_formula_units_Z 56
_cell_length_a 35.384393
_cell_length_b 14.246530
_cell_length_c 5.275224
_cell_angle_alpha 90.000000
_cell_angle_beta 90.000000
_cell_angle_gamma 90.000000
_cell_volume 2659.265826
_symmetry_space_group_name_H-M "C C C A"
_symmetry_group_IT_number 68
_space_group.IT_coordinate_system_code '2'
_symmetry_cell_setting 'orthorhombic'
loop_
_space_group_symop_operation_xyz
x,y,z
-x,1/2-y,z
x,1/2-y,1/2-z
-x,y,1/2-z
-x,-y,-z
x,1/2+y,-z
-x,1/2+y,1/2+z
x,-y,1/2+z
1/2+x,1/2+y,z
1/2-x,-y,z
1/2+x,-y,1/2-z
1/2-x,1/2+y,1/2-z
1/2-x,1/2-y,-z
1/2+x,y,-z
1/2-x,y,1/2+z
1/2+x,1/2-y,1/2+z
loop_
_atom_site_type_symbol
_atom_site_label
_atom_site_fract_x
_atom_site_fract_y
_atom_site_fract_z
Si Si1 0.910981 0.057343 0.854799
Si Si2 0.983110 0.354757 0.503575
Si Si3 0.678751 0.559659 0.654720
Si Si4 0.275726 0.750000 0.750000
O O1 0.938331 0.139796 0.953115
O O2 0.866414 0.077798 0.857785
O O3 0.918653 0.023079 0.567743
O O4 0.000000 0.250000 0.502959
O O5 0.000000 0.402662 0.750000
O O6 0.000000 0.396966 0.250000
O O7 0.687994 0.514114 0.380894
O O8 0.699320 0.656145 0.722746
O O9 0.250000 0.750000 0.500000
#
# Coordination Sequence:
#
# PCOD9507516 Si02
#       4
#    16  16  16   8
#     4  10  21  38  60  84 114 157 206 254 308 371
#     4  10  21  35  52  80 114 151 196 246 306 361
#     4  10  23  44  67  94 130 171 214 264 319 381
#     4  12  26  42  68 104 133 168 213 260 326 400
#
# _framework density 21.058444000000001
#
# number of rings (size 3 to 8) (size 9 to 14) (size 15 to 20)
#    0.000    1.714    0.000    3.429    0.000    9.143 
#    0.000    8.571    0.000    0.000    0.000    0.000 
#    0.000    0.000    0.000    0.000    0.000    0.000 
#
# Total GULP energy -156206.659452 kJ/mol
# GULP energy per Si atom -5578.809266 kJ/mol
# Density = 2.101051 g / cm^3
# Si number density = 21.058444 Si / 1000 Ang^3
#
#
#
# Elastic Constant Matrix: (Units=GPa)
#
#
# Indices 1 2 3 4 5 6 
#
# 1 98.2342 68.3427 49.6094 0.0000 0.0000 0.0000
# 2 68.3427 133.6341 30.5843 0.0000 0.0000 0.0000
# 3 49.6094 30.5843 192.8931 0.0000 0.0000 0.0000
# 4 0.0000 0.0000 0.0000 11.3257 0.0000 0.0000
# 5 0.0000 0.0000 0.0000 0.0000 31.5117 0.0000
# 6 0.0000 0.0000 0.0000 0.0000 0.0000 62.5562
#
#
#
# Elastic Compliance Matrix: (Units=1/GPa)
#
#
# Indices 1 2 3 4 5 6 
#
# 1 0.017521 -0.008228 -0.003202 0.000000 0.000000 0.000000
# 2 -0.008228 0.011629 0.000272 0.000000 0.000000 0.000000
# 3 -0.003202 0.000272 0.005964 0.000000 0.000000 0.000000
# 4 0.000000 0.000000 0.000000 0.088295 0.000000 0.000000
# 5 0.000000 0.000000 0.000000 0.000000 0.031734 0.000000
# 6 0.000000 0.000000 0.000000 0.000000 0.000000 0.015986
#
#
# Mechanical properties :
#
#
# Convention : Reuss Voigt Hill
#
# Bulk Modulus (GPa) = 78.12599 80.20379 79.16489
# Shear Modulus (GPa) = 25.28976 39.49373 32.39175
#
# Velocity S-wave (km/s) = 3.46921 4.33533 3.92622
# Velocity P-wave (km/s) = 7.29571 7.95167 7.63074
#
# Compressibility (1/GPa) = 0.01279984
#
# Stress axis : x y z
#
# Youngs Moduli (GPa) = 57.07571 85.99534 167.66040
#
# Poissons Ratio (x) = 0.70754 0.53677
# Poissons Ratio (y) = 0.46960 -0.04565
# Poissons Ratio (z) = 0.18273 -0.02341
#
# Static dielectric constant tensor:
#      x y z
#    x 1.794990 0.000000 0.000000 
#    y 0.000000 1.734020 0.000000 
#    z 0.000000 0.000000 1.902800 
# 
# From -- ./inp_files/670.got.cif
#   From: 2010.05.17/outbox.cif.g08.bks.cpg/sg68_1_cif.got.tgz:670.got - 2010.06.03 18:57:09.
