data_PCOD9507150
_publ_section_title
;
Structure prediction by ZEFSAII (Michael W. Deem and Ramdas Pophale) SiO2 
 PCOD9507150
Probable space group: C C C A
;
_chemical_formula_sum "Si O2"
_cell_formula_units_Z 80
_cell_length_a 11.764958
_cell_length_b 22.054602
_cell_length_c 14.793486
_cell_angle_alpha 90.000000
_cell_angle_beta 90.000000
_cell_angle_gamma 90.000000
_cell_volume 3838.487503
_symmetry_space_group_name_H-M "C C C A"
_symmetry_group_IT_number 68
_space_group.IT_coordinate_system_code '2'
_symmetry_cell_setting 'orthorhombic'
loop_
_space_group_symop_operation_xyz
x,y,z
-x,1/2-y,z
x,1/2-y,1/2-z
-x,y,1/2-z
-x,-y,-z
x,1/2+y,-z
-x,1/2+y,1/2+z
x,-y,1/2+z
1/2+x,1/2+y,z
1/2-x,-y,z
1/2+x,-y,1/2-z
1/2-x,1/2+y,1/2-z
1/2-x,1/2-y,-z
1/2+x,y,-z
1/2-x,y,1/2+z
1/2+x,1/2-y,1/2+z
loop_
_atom_site_type_symbol
_atom_site_label
_atom_site_fract_x
_atom_site_fract_y
_atom_site_fract_z
Si Si1 0.269204 0.269159 0.851046
Si Si2 0.500000 0.544851 0.750000
Si Si3 0.750000 0.500000 0.295154
Si Si4 0.086827 0.135270 0.603027
Si Si5 0.117469 0.314608 0.520448
Si Si6 0.756615 0.068566 0.030076
O O1 0.299849 0.250000 0.750000
O O2 0.186717 0.328444 0.845878
O O3 0.201331 0.217246 0.907187
O O4 0.367527 0.286610 0.921509
O O5 0.376439 0.510158 0.747880
O O6 0.516638 0.589759 0.665413
O O7 0.766374 0.442960 0.363078
O O8 0.138913 0.099469 0.519125
O O9 0.006164 0.185468 0.561289
O O10 0.154365 0.385396 0.511900
O O11 0.750000 0.000000 0.992220
#
# Coordination Sequence:
#
# PCOD9507150 Si02
#       6
#    16   8   8  16  16  16
#     4  10  22  37  63  96 125 169 224 286 347 412
#     4  12  24  40  67 100 138 173 242 290 350 416
#     4  10  24  42  60  96 138 178 224 296 334 422
#     4  11  21  38  66  92 126 180 226 279 348 427
#     4  10  20  39  60  92 133 167 223 283 344 416
#     4   9  21  40  59  88 129 174 220 270 341 413
#
# _framework density 20.841543999999999
#
# number of rings (size 3 to 8) (size 9 to 14) (size 15 to 20)
#    0.600    1.200    2.000    1.800    1.400    4.000 
#    3.600    0.000    0.000   20.400    0.000    0.000 
#    0.000    0.000    0.000    0.000    0.000    0.000 
#
# Total GULP energy -222784.251596 kJ/mol
# GULP energy per Si atom -5569.606290 kJ/mol
# Density = 2.079411 g / cm^3
# Si number density = 20.841544 Si / 1000 Ang^3
#
#
#
# Elastic Constant Matrix: (Units=GPa)
#
#
# Indices 1 2 3 4 5 6 
#
# 1 98.3243 22.4035 42.9114 0.0000 0.0000 0.0000
# 2 22.4035 87.3702 16.9938 0.0000 0.0000 0.0000
# 3 42.9114 16.9938 129.0072 0.0000 0.0000 0.0000
# 4 0.0000 0.0000 0.0000 32.2536 0.0000 0.0000
# 5 0.0000 0.0000 0.0000 0.0000 25.1675 0.0000
# 6 0.0000 0.0000 0.0000 0.0000 0.0000 26.9576
#
#
#
# Elastic Compliance Matrix: (Units=1/GPa)
#
#
# Indices 1 2 3 4 5 6 
#
# 1 0.012383 -0.002437 -0.003798 0.000000 0.000000 0.000000
# 2 -0.002437 0.012226 -0.000800 0.000000 0.000000 0.000000
# 3 -0.003798 -0.000800 0.009120 0.000000 0.000000 0.000000
# 4 0.000000 0.000000 0.000000 0.031004 0.000000 0.000000
# 5 0.000000 0.000000 0.000000 0.000000 0.039734 0.000000
# 6 0.000000 0.000000 0.000000 0.000000 0.000000 0.037095
#
#
# Mechanical properties :
#
#
# Convention : Reuss Voigt Hill
#
# Bulk Modulus (GPa) = 50.86445 53.25768 52.06107
# Shear Modulus (GPa) = 30.82893 32.36860 31.59877
#
# Velocity S-wave (km/s) = 3.85022 3.94519 3.89799
# Velocity P-wave (km/s) = 6.65010 6.80895 6.72999
#
# Compressibility (1/GPa) = 0.01966009
#
# Stress axis : x y z
#
# Youngs Moduli (GPa) = 80.75482 81.79330 109.64650
#
# Poissons Ratio (x) = 0.19930 0.41644
# Poissons Ratio (y) = 0.19677 0.08772
# Poissons Ratio (z) = 0.30671 0.06544
#
# Static dielectric constant tensor:
#      x y z
#    x 1.782920 0.000000 0.000000 
#    y 0.000000 1.772730 0.000000 
#    z 0.000000 0.000000 1.731980 
# 
# From -- ./inp_files/20907.got.cif
#   From: 2010.05.17/outbox.cif.g08.bks.cpg/sg68_11_cif.got.tgz:20907.got - 2010.06.03 18:57:09.
