data_PCOD9507176
_publ_section_title
;
Structure prediction by ZEFSAII (Michael W. Deem and Ramdas Pophale) SiO2 
 PCOD9507176
Probable space group: C C C A
;
_chemical_formula_sum "Si O2"
_cell_formula_units_Z 60
_cell_length_a 5.505870
_cell_length_b 21.664110
_cell_length_c 19.265169
_cell_angle_alpha 90.000000
_cell_angle_beta 90.000000
_cell_angle_gamma 90.000000
_cell_volume 2297.944991
_symmetry_space_group_name_H-M "C C C A"
_symmetry_group_IT_number 68
_space_group.IT_coordinate_system_code '2'
_symmetry_cell_setting 'orthorhombic'
loop_
_space_group_symop_operation_xyz
x,y,z
-x,1/2-y,z
x,1/2-y,1/2-z
-x,y,1/2-z
-x,-y,-z
x,1/2+y,-z
-x,1/2+y,1/2+z
x,-y,1/2+z
1/2+x,1/2+y,z
1/2-x,-y,z
1/2+x,-y,1/2-z
1/2-x,1/2+y,1/2-z
1/2-x,1/2-y,-z
1/2+x,y,-z
1/2-x,y,1/2+z
1/2+x,1/2-y,1/2+z
loop_
_atom_site_type_symbol
_atom_site_label
_atom_site_fract_x
_atom_site_fract_y
_atom_site_fract_z
Si Si1 0.995575 0.523649 0.607846
Si Si2 0.500000 0.250000 0.750000
Si Si3 0.000000 0.446928 0.750000
Si Si4 0.288839 0.138781 0.832615
Si Si5 0.001102 0.324489 0.540163
O O1 0.250000 0.500000 0.576541
O O2 0.023579 0.595999 0.624719
O O3 0.750000 0.500000 0.572796
O O4 0.988776 0.487622 0.681766
O O5 0.361173 0.204676 0.802882
O O6 0.780867 0.401007 0.765501
O O7 0.060102 0.146888 0.884617
O O8 0.242650 0.340594 0.494529
O O9 0.000000 0.250000 0.546985
#
# Coordination Sequence:
#
# PCOD9507176 Si02
#       5
#    16   4   8  16  16
#     4  10  20  39  63  92 132 181 219 263 346 428
#     4  12  26  34  60 116 148 172 218 304 374 436
#     4  10  21  39  66  95 137 182 218 276 368 428
#     4  11  25  40  69 105 146 183 238 300 360 445
#     4  10  25  47  72  94 138 198 252 291 350 425
#
# _framework density 26.110285000000001
#
# number of rings (size 3 to 8) (size 9 to 14) (size 15 to 20)
#    0.000    1.600    0.000    4.800    9.333    4.267 
#    0.000    0.000    0.000   20.800    0.000    0.000 
#    0.000    0.000    0.000    0.000    0.000    0.000 
#
# Total GULP energy -167796.069114 kJ/mol
# GULP energy per Si atom -5593.202304 kJ/mol
# Density = 2.605086 g / cm^3
# Si number density = 26.110285 Si / 1000 Ang^3
#
#
#
# Elastic Constant Matrix: (Units=GPa)
#
#
# Indices 1 2 3 4 5 6 
#
# 1 208.2266 55.1759 51.9761 0.0000 0.0000 0.0000
# 2 55.1759 145.7807 53.5258 0.0000 0.0000 0.0000
# 3 51.9761 53.5258 142.6964 0.0000 0.0000 0.0000
# 4 0.0000 0.0000 0.0000 20.9334 0.0000 0.0000
# 5 0.0000 0.0000 0.0000 0.0000 39.3733 0.0000
# 6 0.0000 0.0000 0.0000 0.0000 0.0000 42.3642
#
#
#
# Elastic Compliance Matrix: (Units=1/GPa)
#
#
# Indices 1 2 3 4 5 6 
#
# 1 0.005581 -0.001584 -0.001439 0.000000 0.000000 0.000000
# 2 -0.001584 0.008405 -0.002576 0.000000 0.000000 0.000000
# 3 -0.001439 -0.002576 0.008498 0.000000 0.000000 0.000000
# 4 0.000000 0.000000 0.000000 0.047771 0.000000 0.000000
# 5 0.000000 0.000000 0.000000 0.000000 0.025398 0.000000
# 6 0.000000 0.000000 0.000000 0.000000 0.000000 0.023605
#
#
# Mechanical properties :
#
#
# Convention : Reuss Voigt Hill
#
# Bulk Modulus (GPa) = 88.59645 90.89549 89.74597
# Shear Modulus (GPa) = 37.25302 42.93590 40.09446
#
# Velocity S-wave (km/s) = 3.78134 4.05953 3.92290
# Velocity P-wave (km/s) = 7.28492 7.54060 7.41386
#
# Compressibility (1/GPa) = 0.01128713
#
# Stress axis : x y z
#
# Youngs Moduli (GPa) = 179.16737 118.97787 117.67375
#
# Poissons Ratio (x) = 0.18849 0.16930
# Poissons Ratio (y) = 0.28384 0.30309
# Poissons Ratio (z) = 0.25777 0.30645
#
# Static dielectric constant tensor:
#      x y z
#    x 2.383680 0.000000 0.000000 
#    y 0.000000 2.030220 0.000000 
#    z 0.000000 0.000000 2.010520 
# 
# From -- ./inp_files/42055.got.cif
#   From: 2010.05.17/outbox.cif.g08.bks.cpg/sg68_22_cif.got.tgz:42055.got - 2010.06.03 18:57:09.
