data_PCOD9507994
_publ_section_title
;
Structure prediction by ZEFSAII (Michael W. Deem and Ramdas Pophale) SiO2 
 PCOD9507994
Probable space group: C C C A
;
_chemical_formula_sum "Si O2"
_cell_formula_units_Z 116
_cell_length_a 19.646753
_cell_length_b 26.102397
_cell_length_c 9.016464
_cell_angle_alpha 90.000000
_cell_angle_beta 90.000000
_cell_angle_gamma 90.000000
_cell_volume 4623.889309
_symmetry_space_group_name_H-M "C C C A"
_symmetry_group_IT_number 68
_space_group.IT_coordinate_system_code '2'
_symmetry_cell_setting 'orthorhombic'
loop_
_space_group_symop_operation_xyz
x,y,z
-x,1/2-y,z
x,1/2-y,1/2-z
-x,y,1/2-z
-x,-y,-z
x,1/2+y,-z
-x,1/2+y,1/2+z
x,-y,1/2+z
1/2+x,1/2+y,z
1/2-x,-y,z
1/2+x,-y,1/2-z
1/2-x,1/2+y,1/2-z
1/2-x,1/2-y,-z
1/2+x,y,-z
1/2-x,y,1/2+z
1/2+x,1/2-y,1/2+z
loop_
_atom_site_type_symbol
_atom_site_label
_atom_site_fract_x
_atom_site_fract_y
_atom_site_fract_z
Si Si1 0.346946 0.932761 0.082419
Si Si2 0.106145 0.820883 0.675961
Si Si3 0.908291 0.010893 0.702062
Si Si4 0.209296 0.879786 0.992287
Si Si5 0.935790 0.071691 0.990423
Si Si6 0.030327 0.185198 0.482864
Si Si7 0.744895 0.693479 0.722497
Si Si8 0.000000 0.750000 0.250000
O O1 0.384894 0.881494 0.141442
O O2 0.353844 0.976986 0.204865
O O3 0.270409 0.915378 0.048434
O O4 0.378102 0.954739 0.930257
O O5 0.083598 0.810875 0.846307
O O6 0.180835 0.798575 0.644412
O O7 0.044305 0.799247 0.579218
O O8 0.954821 0.969263 0.615982
O O9 0.937787 0.046601 0.829878
O O10 0.142277 0.912817 0.972957
O O11 0.195052 0.838522 0.120031
O O12 0.235734 0.844983 0.856386
O O13 0.975466 0.124384 0.991771
O O14 0.041779 0.213780 0.637324
O O15 0.718397 0.750000 0.750000
#
# Coordination Sequence:
#
# PCOD9507994 Si02
#       8
#    16  16  16  16  16  16  16   4
#     4  10  21  40  62 102 132 184 227 274 345 422
#     4  10  23  45  75  90 140 187 221 288 365 417
#     4  10  22  37  67 100 138 185 236 276 349 424
#     4  11  22  40  63  95 141 183 226 291 351 403
#     4  11  22  43  66 100 144 182 231 293 346 426
#     4  11  25  49  71 102 139 180 235 301 352 426
#     4  11  23  41  66 101 131 182 240 289 354 427
#     4  12  32  46  76 108 124 178 248 288 368 406
#
# _framework density 25.087105999999999
#
# number of rings (size 3 to 8) (size 9 to 14) (size 15 to 20)
#    0.000    1.379    2.759    2.069    3.862    3.862 
#    1.241    4.138    0.000    0.000    0.000    0.000 
#    0.000    0.000    0.000    0.000    0.000    0.000 
#
# Total GULP energy -324817.155852 kJ/mol
# GULP energy per Si atom -5600.295791 kJ/mol
# Density = 2.503001 g / cm^3
# Si number density = 25.087106 Si / 1000 Ang^3
#
#
#
# Elastic Constant Matrix: (Units=GPa)
#
#
# Indices 1 2 3 4 5 6 
#
# 1 72.1574 13.3892 26.1352 0.0000 0.0000 0.0000
# 2 13.3892 108.0702 64.8885 0.0000 0.0000 0.0000
# 3 26.1352 64.8885 176.3462 0.0000 0.0000 0.0000
# 4 0.0000 0.0000 0.0000 53.3060 0.0000 0.0000
# 5 0.0000 0.0000 0.0000 0.0000 30.0126 0.0000
# 6 0.0000 0.0000 0.0000 0.0000 0.0000 28.0029
#
#
#
# Elastic Compliance Matrix: (Units=1/GPa)
#
#
# Indices 1 2 3 4 5 6 
#
# 1 0.014681 -0.000658 -0.001934 0.000000 0.000000 0.000000
# 2 -0.000658 0.011907 -0.004284 0.000000 0.000000 0.000000
# 3 -0.001934 -0.004284 0.007534 0.000000 0.000000 0.000000
# 4 0.000000 0.000000 0.000000 0.018760 0.000000 0.000000
# 5 0.000000 0.000000 0.000000 0.000000 0.033319 0.000000
# 6 0.000000 0.000000 0.000000 0.000000 0.000000 0.035711
#
#
# Mechanical properties :
#
#
# Convention : Reuss Voigt Hill
#
# Bulk Modulus (GPa) = 49.08996 62.82218 55.95607
# Shear Modulus (GPa) = 35.09959 39.07503 37.08731
#
# Velocity S-wave (km/s) = 3.74452 3.95089 3.84909
# Velocity P-wave (km/s) = 6.18915 6.77560 6.48900
#
# Compressibility (1/GPa) = 0.02037076
#
# Stress axis : x y z
#
# Youngs Moduli (GPa) = 68.11504 83.98535 132.74029
#
# Poissons Ratio (x) = 0.05525 0.25669
# Poissons Ratio (y) = 0.04481 0.56863
# Poissons Ratio (z) = 0.13172 0.35977
#
# Static dielectric constant tensor:
#      x y z
#    x 1.961840 0.000000 0.000000 
#    y 0.000000 2.009390 0.000000 
#    z 0.000000 0.000000 1.968010 
# 
# From -- ./inp_files/8357.got.cif
#   From: 2010.05.17/outbox.cif.g08.bks.cpg/sg68_5_cif.got.tgz:8357.got - 2010.06.03 18:57:09.
