data_PCOD9507419
_publ_section_title
;
Structure prediction by ZEFSAII (Michael W. Deem and Ramdas Pophale) SiO2 
 PCOD9507419
Probable space group: C C C A
;
_chemical_formula_sum "Si O2"
_cell_formula_units_Z 80
_cell_length_a 8.935753
_cell_length_b 24.871649
_cell_length_c 18.289227
_cell_angle_alpha 90.000000
_cell_angle_beta 90.000000
_cell_angle_gamma 90.000000
_cell_volume 4064.724227
_symmetry_space_group_name_H-M "C C C A"
_symmetry_group_IT_number 68
_space_group.IT_coordinate_system_code '2'
_symmetry_cell_setting 'orthorhombic'
loop_
_space_group_symop_operation_xyz
x,y,z
-x,1/2-y,z
x,1/2-y,1/2-z
-x,y,1/2-z
-x,-y,-z
x,1/2+y,-z
-x,1/2+y,1/2+z
x,-y,1/2+z
1/2+x,1/2+y,z
1/2-x,-y,z
1/2+x,-y,1/2-z
1/2-x,1/2+y,1/2-z
1/2-x,1/2-y,-z
1/2+x,y,-z
1/2-x,y,1/2+z
1/2+x,1/2-y,1/2+z
loop_
_atom_site_type_symbol
_atom_site_label
_atom_site_fract_x
_atom_site_fract_y
_atom_site_fract_z
Si Si1 0.848788 0.051851 0.297573
Si Si2 0.980902 0.094928 0.437187
Si Si3 0.654701 0.634529 0.785496
Si Si4 0.188453 0.939049 0.419058
Si Si5 0.948356 0.310639 0.333085
O O1 0.902769 0.054082 0.380749
O O2 0.749394 0.103212 0.276193
O O3 0.000000 0.051846 0.250000
O O4 0.750000 0.000000 0.282747
O O5 0.921165 0.077326 0.515695
O O6 0.157772 0.089855 0.438993
O O7 0.970708 0.151922 0.393789
O O8 0.500000 0.655006 0.750000
O O9 0.625166 0.587243 0.845026
O O10 0.769158 0.676464 0.825169
O O11 0.250000 0.000000 0.410558
O O12 0.000000 0.250000 0.347757
O O13 0.000000 0.322605 0.250000
#
# Coordination Sequence:
#
# PCOD9507419 Si02
#       5
#    16  16  16  16  16
#     4  12  22  38  60  90 126 173 214 257 320 385
#     4  11  23  40  59  91 126 174 218 259 331 382
#     4  11  23  39  65  97 131 163 223 268 316 389
#     4  11  24  39  59  94 138 177 214 259 323 394
#     4  10  20  43  70  89 123 171 217 276 335 379
#
# _framework density 19.681532000000001
#
# number of rings (size 3 to 8) (size 9 to 14) (size 15 to 20)
#    0.000    1.000    6.000    2.400    5.600    0.000 
#    0.000    6.000    0.000    0.000    0.000    0.000 
#    0.000    0.000    0.000    0.000    0.000    0.000 
#
# Total GULP energy -222820.288518 kJ/mol
# GULP energy per Si atom -5570.507213 kJ/mol
# Density = 1.963674 g / cm^3
# Si number density = 19.681532 Si / 1000 Ang^3
#
#
#
# Elastic Constant Matrix: (Units=GPa)
#
#
# Indices 1 2 3 4 5 6 
#
# 1 93.5921 28.9304 14.8577 0.0000 0.0000 0.0000
# 2 28.9304 93.4548 -12.8485 0.0000 0.0000 0.0000
# 3 14.8577 -12.8485 66.1426 0.0000 0.0000 0.0000
# 4 0.0000 0.0000 0.0000 -6.8509 0.0000 0.0000
# 5 0.0000 0.0000 0.0000 0.0000 18.7431 0.0000
# 6 0.0000 0.0000 0.0000 0.0000 0.0000 13.0173
#
#
#
# Elastic Compliance Matrix: (Units=1/GPa)
#
#
# Indices 1 2 3 4 5 6 
#
# 1 0.012638 -0.004421 -0.003698 0.000000 0.000000 0.000000
# 2 -0.004421 0.012540 0.003429 0.000000 0.000000 0.000000
# 3 -0.003698 0.003429 0.016616 0.000000 0.000000 0.000000
# 4 0.000000 0.000000 0.000000 -0.145967 0.000000 0.000000
# 5 0.000000 0.000000 0.000000 0.000000 0.053353 0.000000
# 6 0.000000 0.000000 0.000000 0.000000 0.000000 0.076821
#
#
# Mechanical properties :
#
#
# Convention : Reuss Voigt Hill
#
# Bulk Modulus (GPa) = 30.84959 35.00763 32.92861
# Shear Modulus (GPa) = 108.26125 19.79857 64.02991
#
# Velocity S-wave (km/s) = 7.42468 3.17511 5.70996
# Velocity P-wave (km/s) = 9.44509 5.59173 7.76135
#
# Compressibility (1/GPa) = 0.03241534
#
# Stress axis : x y z
#
# Youngs Moduli (GPa) = 79.12550 79.74299 60.18459
#
# Poissons Ratio (x) = 0.35252 0.22254
# Poissons Ratio (y) = 0.34979 -0.20637
# Poissons Ratio (z) = 0.29258 -0.27344
#
# Static dielectric constant tensor:
#      x y z
#    x 2.888430 0.000000 0.000000 
#    y 0.000000 1.751020 0.000000 
#    z 0.000000 0.000000 1.766790 
# 
# From -- ./inp_files/28343.got.cif
#   From: 2010.05.17/outbox.cif.g08.bks.cpg/sg68_15_cif.got.tgz:28343.got - 2010.06.03 18:57:09.
