data_PCOD9507684
_publ_section_title
;
Structure prediction by ZEFSAII (Michael W. Deem and Ramdas Pophale) SiO2 
 PCOD9507684
Probable space group: C C C A
;
_chemical_formula_sum "Si O2"
_cell_formula_units_Z 88
_cell_length_a 11.406722
_cell_length_b 23.218520
_cell_length_c 15.059437
_cell_angle_alpha 90.000000
_cell_angle_beta 90.000000
_cell_angle_gamma 90.000000
_cell_volume 3988.449767
_symmetry_space_group_name_H-M "C C C A"
_symmetry_group_IT_number 68
_space_group.IT_coordinate_system_code '2'
_symmetry_cell_setting 'orthorhombic'
loop_
_space_group_symop_operation_xyz
x,y,z
-x,1/2-y,z
x,1/2-y,1/2-z
-x,y,1/2-z
-x,-y,-z
x,1/2+y,-z
-x,1/2+y,1/2+z
x,-y,1/2+z
1/2+x,1/2+y,z
1/2-x,-y,z
1/2+x,-y,1/2-z
1/2-x,1/2+y,1/2-z
1/2-x,1/2-y,-z
1/2+x,y,-z
1/2-x,y,1/2+z
1/2+x,1/2-y,1/2+z
loop_
_atom_site_type_symbol
_atom_site_label
_atom_site_fract_x
_atom_site_fract_y
_atom_site_fract_z
Si Si1 0.500000 0.096484 0.750000
Si Si2 0.297632 0.325235 0.085121
Si Si3 0.864655 0.201145 0.927643
Si Si4 0.178803 0.186424 0.226512
Si Si5 0.616287 0.521918 0.391945
Si Si6 0.009983 0.909350 0.448719
O O1 0.580858 0.141170 0.803181
O O2 0.589866 0.057693 0.695853
O O3 0.385761 0.270143 0.079475
O O4 0.252486 0.333912 0.185887
O O5 0.361743 0.379601 0.039476
O O6 0.185221 0.308485 0.026560
O O7 0.763265 0.195247 0.855331
O O8 0.942437 0.144961 0.908564
O O9 0.131988 0.250000 0.250000
O O10 0.750000 0.500000 0.403668
O O11 0.536115 0.464845 0.389305
O O12 0.563873 0.563298 0.469799
#
# Coordination Sequence:
#
# PCOD9507684 Si02
#       6
#     8  16  16  16  16  16
#     4  12  23  40  64  86 117 164 208 252 312 374
#     4  10  21  39  62  93 125 155 203 258 311 383
#     4  10  21  37  63  93 122 159 201 252 318 381
#     4  10  22  39  62  94 127 156 199 262 319 378
#     4  11  26  42  60  88 124 165 216 266 305 364
#     4  11  22  41  63  84 120 166 203 252 316 368
#
# _framework density 22.06371
#
# number of rings (size 3 to 8) (size 9 to 14) (size 15 to 20)
#    0.000    1.455    0.000    5.182    0.000    5.091 
#    0.000   10.909    0.000    0.000    0.000    0.000 
#    0.000    0.000    0.000    0.000    0.000    0.000 
#
# Total GULP energy -245163.773041 kJ/mol
# GULP energy per Si atom -5571.903933 kJ/mol
# Density = 2.201349 g / cm^3
# Si number density = 22.063710 Si / 1000 Ang^3
#
#
#
# Elastic Constant Matrix: (Units=GPa)
#
#
# Indices 1 2 3 4 5 6 
#
# 1 46.9873 54.6755 2.0384 0.0000 0.0000 0.0000
# 2 54.6755 179.1478 10.8321 0.0000 0.0000 0.0000
# 3 2.0384 10.8321 50.0721 0.0000 0.0000 0.0000
# 4 0.0000 0.0000 0.0000 17.2118 0.0000 0.0000
# 5 0.0000 0.0000 0.0000 0.0000 8.2222 0.0000
# 6 0.0000 0.0000 0.0000 0.0000 0.0000 57.5327
#
#
#
# Elastic Compliance Matrix: (Units=1/GPa)
#
#
# Indices 1 2 3 4 5 6 
#
# 1 0.033038 -0.010134 0.000847 0.000000 0.000000 0.000000
# 2 -0.010134 0.008765 -0.001483 0.000000 0.000000 0.000000
# 3 0.000847 -0.001483 0.020258 0.000000 0.000000 0.000000
# 4 0.000000 0.000000 0.000000 0.058100 0.000000 0.000000
# 5 0.000000 0.000000 0.000000 0.000000 0.121622 0.000000
# 6 0.000000 0.000000 0.000000 0.000000 0.000000 0.017381
#
#
# Mechanical properties :
#
#
# Convention : Reuss Voigt Hill
#
# Bulk Modulus (GPa) = 24.67947 45.69993 35.18970
# Shear Modulus (GPa) = 16.99459 30.50409 23.74934
#
# Velocity S-wave (km/s) = 2.77835 3.72229 3.28441
# Velocity P-wave (km/s) = 4.63704 6.26352 5.51062
#
# Compressibility (1/GPa) = 0.04051951
#
# Stress axis : x y z
#
# Youngs Moduli (GPa) = 30.26791 114.09414 49.36414
#
# Poissons Ratio (x) = 1.15628 -0.04183
# Poissons Ratio (y) = 0.30675 0.07323
# Poissons Ratio (z) = -0.02565 0.16926
#
# Static dielectric constant tensor:
#      x y z
#    x 1.901770 0.000000 0.000000 
#    y 0.000000 1.853660 0.000000 
#    z 0.000000 0.000000 1.764900 
# 
# From -- ./inp_files/20957.got.cif
#   From: 2010.05.17/outbox.cif.g08.bks.cpg/sg68_11_cif.got.tgz:20957.got - 2010.06.03 18:57:09.
