data_PCOD9507029
_publ_section_title
;
Structure prediction by ZEFSAII (Michael W. Deem and Ramdas Pophale) SiO2 
 PCOD9507029
Probable space group: C C C A
;
_chemical_formula_sum "Si O2"
_cell_formula_units_Z 96
_cell_length_a 23.957215
_cell_length_b 12.860406
_cell_length_c 13.585974
_cell_angle_alpha 90.000000
_cell_angle_beta 90.000000
_cell_angle_gamma 90.000000
_cell_volume 4185.831953
_symmetry_space_group_name_H-M "C C C A"
_symmetry_group_IT_number 68
_space_group.IT_coordinate_system_code '2'
_symmetry_cell_setting 'orthorhombic'
loop_
_space_group_symop_operation_xyz
x,y,z
-x,1/2-y,z
x,1/2-y,1/2-z
-x,y,1/2-z
-x,-y,-z
x,1/2+y,-z
-x,1/2+y,1/2+z
x,-y,1/2+z
1/2+x,1/2+y,z
1/2-x,-y,z
1/2+x,-y,1/2-z
1/2-x,1/2+y,1/2-z
1/2-x,1/2-y,-z
1/2+x,y,-z
1/2-x,y,1/2+z
1/2+x,1/2-y,1/2+z
loop_
_atom_site_type_symbol
_atom_site_label
_atom_site_fract_x
_atom_site_fract_y
_atom_site_fract_z
Si Si1 0.336917 0.694535 0.354128
Si Si2 0.018675 0.510439 0.138296
Si Si3 0.782138 0.248685 0.866444
Si Si4 0.308697 0.519908 0.934584
Si Si5 0.604470 0.318049 0.445926
Si Si6 0.422459 0.906746 0.509373
O O1 0.349617 0.750000 0.250000
O O2 0.282863 0.756956 0.400247
O O3 0.317316 0.573043 0.355104
O O4 0.385328 0.687452 0.435577
O O5 0.061483 0.603214 0.105608
O O6 0.049347 0.407191 0.097800
O O7 0.000000 0.511293 0.250000
O O8 0.962402 0.523738 0.076339
O O9 0.777358 0.250000 0.750000
O O10 0.831951 0.322710 0.903482
O O11 0.801966 0.132238 0.887913
O O12 0.250000 0.500000 0.987968
O O13 0.363388 0.535117 0.999519
O O14 0.581628 0.201050 0.433096
#
# Coordination Sequence:
#
# PCOD9507029 Si02
#       6
#    16  16  16  16  16  16
#     4  10  20  38  60  91 133 177 214 272 342 408
#     4  11  25  43  69  94 131 173 225 287 339 405
#     4   9  20  36  61  94 129 168 220 280 334 398
#     4   9  18  37  64  92 130 173 217 274 341 412
#     4  11  22  39  64  94 127 172 226 279 336 410
#     4  10  23  43  63  94 130 166 222 277 337 410
#
# _framework density 22.934508999999998
#
# number of rings (size 3 to 8) (size 9 to 14) (size 15 to 20)
#    0.000    2.000    1.667    1.000    4.667    2.000 
#    0.000    0.000    0.000    1.000    0.000    0.000 
#    0.000    0.000    0.000    0.000    0.000    0.000 
#
# Total GULP energy -267451.480272 kJ/mol
# GULP energy per Si atom -5571.905839 kJ/mol
# Density = 2.288231 g / cm^3
# Si number density = 22.934509 Si / 1000 Ang^3
#
#
#
# Elastic Constant Matrix: (Units=GPa)
#
#
# Indices 1 2 3 4 5 6 
#
# 1 112.2058 3.6041 37.4411 0.0000 0.0000 0.0000
# 2 3.6041 24.8302 -5.4012 0.0000 0.0000 0.0000
# 3 37.4411 -5.4012 102.2334 0.0000 0.0000 0.0000
# 4 0.0000 0.0000 0.0000 13.0220 0.0000 0.0000
# 5 0.0000 0.0000 0.0000 0.0000 33.7703 0.0000
# 6 0.0000 0.0000 0.0000 0.0000 0.0000 13.2118
#
#
#
# Elastic Compliance Matrix: (Units=1/GPa)
#
#
# Indices 1 2 3 4 5 6 
#
# 1 0.010286 -0.002339 -0.003890 0.000000 0.000000 0.000000
# 2 -0.002339 0.041274 0.003037 0.000000 0.000000 0.000000
# 3 -0.003890 0.003037 0.011367 0.000000 0.000000 0.000000
# 4 0.000000 0.000000 0.000000 0.076793 0.000000 0.000000
# 5 0.000000 0.000000 0.000000 0.000000 0.029612 0.000000
# 6 0.000000 0.000000 0.000000 0.000000 0.000000 0.075690
#
#
# Mechanical properties :
#
#
# Convention : Reuss Voigt Hill
#
# Bulk Modulus (GPa) = 17.68616 34.50637 26.09627
# Shear Modulus (GPa) = 18.50117 25.57584 22.03850
#
# Velocity S-wave (km/s) = 2.84332 3.34304 3.10325
# Velocity P-wave (km/s) = 4.30205 5.47535 4.92377
#
# Compressibility (1/GPa) = 0.05654137
#
# Stress axis : x y z
#
# Youngs Moduli (GPa) = 97.22413 24.22843 87.97534
#
# Poissons Ratio (x) = 0.05668 0.34227
# Poissons Ratio (y) = 0.22743 -0.26721
# Poissons Ratio (z) = 0.37825 -0.07359
#
# Static dielectric constant tensor:
#      x y z
#    x 1.934840 0.000000 0.000000 
#    y 0.000000 1.969430 0.000000 
#    z 0.000000 0.000000 1.884340 
# 
# From -- ./inp_files/24465.got.cif
#   From: 2010.05.17/outbox.cif.g08.bks.cpg/sg68_13_cif.got.tgz:24465.got - 2010.06.03 18:57:09.
