data_PCOD9507108
_publ_section_title
;
Structure prediction by ZEFSAII (Michael W. Deem and Ramdas Pophale) SiO2 
 PCOD9507108
Probable space group: C C C A
;
_chemical_formula_sum "Si O2"
_cell_formula_units_Z 88
_cell_length_a 16.737352
_cell_length_b 8.740741
_cell_length_c 29.660339
_cell_angle_alpha 90.000000
_cell_angle_beta 90.000000
_cell_angle_gamma 90.000000
_cell_volume 4339.214428
_symmetry_space_group_name_H-M "C C C A"
_symmetry_group_IT_number 68
_space_group.IT_coordinate_system_code '2'
_symmetry_cell_setting 'orthorhombic'
loop_
_space_group_symop_operation_xyz
x,y,z
-x,1/2-y,z
x,1/2-y,1/2-z
-x,y,1/2-z
-x,-y,-z
x,1/2+y,-z
-x,1/2+y,1/2+z
x,-y,1/2+z
1/2+x,1/2+y,z
1/2-x,-y,z
1/2+x,-y,1/2-z
1/2-x,1/2+y,1/2-z
1/2-x,1/2-y,-z
1/2+x,y,-z
1/2-x,y,1/2+z
1/2+x,1/2-y,1/2+z
loop_
_atom_site_type_symbol
_atom_site_label
_atom_site_fract_x
_atom_site_fract_y
_atom_site_fract_z
Si Si1 0.681540 0.708278 0.964281
Si Si2 0.643714 0.750000 0.250000
Si Si3 0.705561 0.226181 0.359530
Si Si4 0.120367 0.417907 0.337722
Si Si5 0.000000 0.250000 0.098507
Si Si6 0.420529 0.422299 0.518841
Si Si7 0.250000 0.000000 0.802176
O O1 0.700326 0.747556 0.912919
O O2 0.651651 0.536873 0.971106
O O3 0.750000 0.750000 0.000000
O O4 0.606870 0.808829 0.980031
O O5 0.598775 0.842834 0.289388
O O6 0.698580 0.883341 0.227941
O O7 0.795018 0.163195 0.350130
O O8 0.697661 0.387539 0.333677
O O9 0.643342 0.097444 0.341620
O O10 0.051244 0.367510 0.371809
O O11 0.059852 0.336462 0.064995
O O12 0.500000 0.500000 0.500000
#
# Coordination Sequence:
#
# PCOD9507108 Si02
#       7
#    16   8  16  16   8  16   8
#     4  12  26  39  65  95 132 173 226 275 317 381
#     4  10  20  39  66  96 124 165 216 270 354 388
#     4  10  23  39  65  99 128 167 222 274 331 380
#     4  10  23  40  66  94 128 171 214 278 328 414
#     4  12  24  43  66  90 138 178 228 259 346 404
#     4  12  25  43  62  91 132 183 218 268 324 395
#     4  10  20  38  66 100 132 162 214 288 342 406
#
# _framework density 20.280169999999998
#
# number of rings (size 3 to 8) (size 9 to 14) (size 15 to 20)
#    0.000    1.091    1.818    4.909   12.727    0.364 
#    0.000    0.000    0.000    0.000    4.727    0.000 
#    0.000    0.000    0.000    0.000    0.000    0.000 
#
# Total GULP energy -245799.436559 kJ/mol
# GULP energy per Si atom -5586.350831 kJ/mol
# Density = 2.023401 g / cm^3
# Si number density = 20.280170 Si / 1000 Ang^3
#
#
#
# Elastic Constant Matrix: (Units=GPa)
#
#
# Indices 1 2 3 4 5 6 
#
# 1 47.7091 24.9873 12.9509 0.0000 0.0000 0.0000
# 2 24.9873 140.4724 54.3938 0.0000 0.0000 0.0000
# 3 12.9509 54.3938 137.4219 0.0000 0.0000 0.0000
# 4 0.0000 0.0000 0.0000 12.1096 0.0000 0.0000
# 5 0.0000 0.0000 0.0000 0.0000 84.2250 0.0000
# 6 0.0000 0.0000 0.0000 0.0000 0.0000 41.7569
#
#
#
# Elastic Compliance Matrix: (Units=1/GPa)
#
#
# Indices 1 2 3 4 5 6 
#
# 1 0.023163 -0.003868 -0.000652 0.000000 0.000000 0.000000
# 2 -0.003868 0.009053 -0.003219 0.000000 0.000000 0.000000
# 3 -0.000652 -0.003219 0.008612 0.000000 0.000000 0.000000
# 4 0.000000 0.000000 0.000000 0.082579 0.000000 0.000000
# 5 0.000000 0.000000 0.000000 0.000000 0.011873 0.000000
# 6 0.000000 0.000000 0.000000 0.000000 0.000000 0.023948
#
#
# Mechanical properties :
#
#
# Convention : Reuss Voigt Hill
#
# Bulk Modulus (GPa) = 39.44563 56.69638 48.07100
# Shear Modulus (GPa) = 27.29905 43.16972 35.23438
#
# Velocity S-wave (km/s) = 3.67290 4.61875 4.17271
# Velocity P-wave (km/s) = 6.12205 7.51406 6.85349
#
# Compressibility (1/GPa) = 0.02535135
#
# Stress axis : x y z
#
# Youngs Moduli (GPa) = 43.17210 110.45724 116.11152
#
# Poissons Ratio (x) = 0.42723 0.07570
# Poissons Ratio (y) = 0.16698 0.37375
# Poissons Ratio (z) = 0.02815 0.35555
#
# Static dielectric constant tensor:
#      x y z
#    x 1.702890 0.000000 0.000000 
#    y 0.000000 1.725200 0.000000 
#    z 0.000000 0.000000 1.729350 
# 
# From -- ./inp_files/55592.got.cif
#   From: 2010.05.17/outbox.cif.g08.bks.cpg/sg68_28_cif.got.tgz:55592.got - 2010.06.03 18:57:09.
