data_PCOD9507116
_publ_section_title
;
Structure prediction by ZEFSAII (Michael W. Deem and Ramdas Pophale) SiO2 
 PCOD9507116
Probable space group: C C C A
;
_chemical_formula_sum "Si O2"
_cell_formula_units_Z 44
_cell_length_a 17.385060
_cell_length_b 9.124329
_cell_length_c 13.072919
_cell_angle_alpha 90.000000
_cell_angle_beta 90.000000
_cell_angle_gamma 90.000000
_cell_volume 2073.718015
_symmetry_space_group_name_H-M "C C C A"
_symmetry_group_IT_number 68
_space_group.IT_coordinate_system_code '2'
_symmetry_cell_setting 'orthorhombic'
loop_
_space_group_symop_operation_xyz
x,y,z
-x,1/2-y,z
x,1/2-y,1/2-z
-x,y,1/2-z
-x,-y,-z
x,1/2+y,-z
-x,1/2+y,1/2+z
x,-y,1/2+z
1/2+x,1/2+y,z
1/2-x,-y,z
1/2+x,-y,1/2-z
1/2-x,1/2+y,1/2-z
1/2-x,1/2-y,-z
1/2+x,y,-z
1/2-x,y,1/2+z
1/2+x,1/2-y,1/2+z
loop_
_atom_site_type_symbol
_atom_site_label
_atom_site_fract_x
_atom_site_fract_y
_atom_site_fract_z
Si Si1 0.250000 0.500000 0.214273
Si Si2 0.124655 0.312942 0.100007
Si Si3 0.164672 0.523465 0.407544
Si Si4 0.500000 0.750000 0.250000
O O1 0.201285 0.381803 0.151168
O O2 0.187886 0.572367 0.293030
O O3 0.129375 0.137699 0.098106
O O4 0.054056 0.345415 0.175473
O O5 0.119413 0.373842 0.985128
O O6 0.250000 0.500000 0.454371
#
# Coordination Sequence:
#
# PCOD9507116 Si02
#       4
#     8  16  16   4
#     4  10  20  38  66  94 122 168 216 258 306 376
#     4  12  23  41  64  95 131 168 215 261 329 376
#     4  10  22  36  66  95 123 166 217 268 303 381
#     4  12  24  44  64  90 138 174 200 274 336 380
#
# _framework density 21.217928000000001
#
# number of rings (size 3 to 8) (size 9 to 14) (size 15 to 20)
#    1.091    0.000    5.455    1.091    0.000    1.455 
#    0.000    0.000    0.000    2.182    0.000    0.000 
#    0.000    0.000    0.000    0.000    0.000    0.000 
#
# Total GULP energy -122552.336736 kJ/mol
# GULP energy per Si atom -5570.560761 kJ/mol
# Density = 2.116964 g / cm^3
# Si number density = 21.217928 Si / 1000 Ang^3
#
#
#
# Elastic Constant Matrix: (Units=GPa)
#
#
# Indices 1 2 3 4 5 6 
#
# 1 51.5754 21.6872 3.7379 0.0000 0.0000 0.0000
# 2 21.6872 62.0823 20.5645 0.0000 0.0000 0.0000
# 3 3.7379 20.5645 78.3532 0.0000 0.0000 0.0000
# 4 0.0000 0.0000 0.0000 80.9618 0.0000 0.0000
# 5 0.0000 0.0000 0.0000 0.0000 -219.3757 0.0000
# 6 0.0000 0.0000 0.0000 0.0000 0.0000 15.3207
#
#
#
# Elastic Compliance Matrix: (Units=1/GPa)
#
#
# Indices 1 2 3 4 5 6 
#
# 1 0.022814 -0.008333 0.001099 0.000000 0.000000 0.000000
# 2 -0.008333 0.020685 -0.005032 0.000000 0.000000 0.000000
# 3 0.001099 -0.005032 0.014031 0.000000 0.000000 0.000000
# 4 0.000000 0.000000 0.000000 0.012351 0.000000 0.000000
# 5 0.000000 0.000000 0.000000 0.000000 -0.004558 0.000000
# 6 0.000000 0.000000 0.000000 0.000000 0.000000 0.065271
#
#
# Mechanical properties :
#
#
# Convention : Reuss Voigt Hill
#
# Bulk Modulus (GPa) = 30.30518 31.55446 30.92982
# Shear Modulus (GPa) = 30.09769 -14.88388 7.60691
#
# Velocity S-wave (km/s) = 3.77039 -2.65141 1.89550
# Velocity P-wave (km/s) = 5.76786 2.35171 4.40448
#
# Compressibility (1/GPa) = 0.03299766
#
# Stress axis : x y z
#
# Youngs Moduli (GPa) = 43.83341 48.34310 71.27136
#
# Poissons Ratio (x) = 0.40287 -0.07832
# Poissons Ratio (y) = 0.36529 0.35861
# Poissons Ratio (z) = -0.04817 0.24324
#
# Static dielectric constant tensor:
#      x y z
#    x 1.799670 0.000000 0.000000 
#    y 0.000000 1.887980 0.000000 
#    z 0.000000 0.000000 1.839980 
# 
# From -- ./inp_files/11344.got.cif
#   From: 2010.05.17/outbox.cif.g08.bks.cpg/sg68_6_cif.got.tgz:11344.got - 2010.06.03 18:57:09.
