data_PCOD9507709
_publ_section_title
;
Structure prediction by ZEFSAII (Michael W. Deem and Ramdas Pophale) SiO2 
 PCOD9507709
Probable space group: C C C A
;
_chemical_formula_sum "Si O2"
_cell_formula_units_Z 72
_cell_length_a 5.397734
_cell_length_b 23.509364
_cell_length_c 28.075860
_cell_angle_alpha 90.000000
_cell_angle_beta 90.000000
_cell_angle_gamma 90.000000
_cell_volume 3562.750643
_symmetry_space_group_name_H-M "C C C A"
_symmetry_group_IT_number 68
_space_group.IT_coordinate_system_code '2'
_symmetry_cell_setting 'orthorhombic'
loop_
_space_group_symop_operation_xyz
x,y,z
-x,1/2-y,z
x,1/2-y,1/2-z
-x,y,1/2-z
-x,-y,-z
x,1/2+y,-z
-x,1/2+y,1/2+z
x,-y,1/2+z
1/2+x,1/2+y,z
1/2-x,-y,z
1/2+x,-y,1/2-z
1/2-x,1/2+y,1/2-z
1/2-x,1/2-y,-z
1/2+x,y,-z
1/2-x,y,1/2+z
1/2+x,1/2-y,1/2+z
loop_
_atom_site_type_symbol
_atom_site_label
_atom_site_fract_x
_atom_site_fract_y
_atom_site_fract_z
Si Si1 0.382601 0.050530 0.705154
Si Si2 0.489174 0.183214 0.355181
Si Si3 0.493695 0.934799 0.020165
Si Si4 0.500000 0.639436 0.750000
Si Si5 0.490644 0.882021 0.379084
O O1 0.500000 0.019180 0.750000
O O2 0.558661 0.081003 0.668252
O O3 0.217310 0.098735 0.730241
O O4 0.250000 0.000000 0.677021
O O5 0.500000 0.250000 0.364861
O O6 0.441562 0.174915 0.297910
O O7 0.748400 0.151579 0.369854
O O8 0.251557 0.157238 0.382423
O O9 0.485067 0.924431 0.076364
O O10 0.246682 0.908059 0.998693
O O11 0.500000 0.000000 0.000000
#
# Coordination Sequence:
#
# PCOD9507709 Si02
#       5
#    16  16  16   8  16
#     4  11  21  36  56  90 139 174 207 247 322 396
#     4  11  23  41  66  92 128 173 223 266 313 362
#     4  10  22  42  65  94 126 160 208 257 323 386
#     4  10  21  38  54  90 130 178 217 260 296 372
#     4  11  24  41  66  94 131 166 212 271 316 380
#
# _framework density 20.209102999999999
#
# number of rings (size 3 to 8) (size 9 to 14) (size 15 to 20)
#    0.000    1.333    3.333    2.333    3.111    0.000 
#    8.000    2.222    0.000   13.333    0.000    0.000 
#    0.000    0.000    0.000    0.000    0.000    0.000 
#
# Total GULP energy -200500.707830 kJ/mol
# GULP energy per Si atom -5569.464106 kJ/mol
# Density = 2.016311 g / cm^3
# Si number density = 20.209103 Si / 1000 Ang^3
#
#
#
# Elastic Constant Matrix: (Units=GPa)
#
#
# Indices 1 2 3 4 5 6 
#
# 1 124.1221 21.1958 30.0138 0.0000 0.0000 0.0000
# 2 21.1958 90.7786 36.7888 0.0000 0.0000 0.0000
# 3 30.0138 36.7888 125.3705 0.0000 0.0000 0.0000
# 4 0.0000 0.0000 0.0000 13.5659 0.0000 0.0000
# 5 0.0000 0.0000 0.0000 0.0000 26.2217 0.0000
# 6 0.0000 0.0000 0.0000 0.0000 0.0000 20.4650
#
#
#
# Elastic Compliance Matrix: (Units=1/GPa)
#
#
# Indices 1 2 3 4 5 6 
#
# 1 0.008694 -0.001347 -0.001686 0.000000 0.000000 0.000000
# 2 -0.001347 0.012711 -0.003408 0.000000 0.000000 0.000000
# 3 -0.001686 -0.003408 0.009380 0.000000 0.000000 0.000000
# 4 0.000000 0.000000 0.000000 0.073714 0.000000 0.000000
# 5 0.000000 0.000000 0.000000 0.000000 0.038136 0.000000
# 6 0.000000 0.000000 0.000000 0.000000 0.000000 0.048864
#
#
# Mechanical properties :
#
#
# Convention : Reuss Voigt Hill
#
# Bulk Modulus (GPa) = 55.85202 57.36313 56.60758
# Shear Modulus (GPa) = 23.76997 28.86868 26.31932
#
# Velocity S-wave (km/s) = 3.43330 3.78365 3.61272
# Velocity P-wave (km/s) = 6.58891 6.89452 6.74345
#
# Compressibility (1/GPa) = 0.01790446
#
# Stress axis : x y z
#
# Youngs Moduli (GPa) = 115.01786 78.67079 106.61001
#
# Poissons Ratio (x) = 0.10594 0.17977
# Poissons Ratio (y) = 0.15489 0.36328
# Poissons Ratio (z) = 0.19395 0.26808
#
# Static dielectric constant tensor:
#      x y z
#    x 1.865850 0.000000 0.000000 
#    y 0.000000 1.687750 0.000000 
#    z 0.000000 0.000000 1.723080 
# 
# From -- ./inp_files/48334.got.cif
#   From: 2010.05.17/outbox.cif.g08.bks.cpg/sg68_25_cif.got.tgz:48334.got - 2010.06.03 18:57:09.
