data_PCOD9507714
_publ_section_title
;
Structure prediction by ZEFSAII (Michael W. Deem and Ramdas Pophale) SiO2 
 PCOD9507714
Probable space group: C C C A
;
_chemical_formula_sum "Si O2"
_cell_formula_units_Z 72
_cell_length_a 5.180232
_cell_length_b 22.535656
_cell_length_c 33.984814
_cell_angle_alpha 90.000000
_cell_angle_beta 90.000000
_cell_angle_gamma 90.000000
_cell_volume 3967.384683
_symmetry_space_group_name_H-M "C C C A"
_symmetry_group_IT_number 68
_space_group.IT_coordinate_system_code '2'
_symmetry_cell_setting 'orthorhombic'
loop_
_space_group_symop_operation_xyz
x,y,z
-x,1/2-y,z
x,1/2-y,1/2-z
-x,y,1/2-z
-x,-y,-z
x,1/2+y,-z
-x,1/2+y,1/2+z
x,-y,1/2+z
1/2+x,1/2+y,z
1/2-x,-y,z
1/2+x,-y,1/2-z
1/2-x,1/2+y,1/2-z
1/2-x,1/2-y,-z
1/2+x,y,-z
1/2-x,y,1/2+z
1/2+x,1/2-y,1/2+z
loop_
_atom_site_type_symbol
_atom_site_label
_atom_site_fract_x
_atom_site_fract_y
_atom_site_fract_z
Si Si1 0.234848 0.607556 0.088035
Si Si2 0.250000 0.000000 0.472957
Si Si3 0.233128 0.927949 0.634419
Si Si4 0.955242 0.179568 0.020990
Si Si5 0.751340 0.427898 0.726293
O O1 0.246133 0.556345 0.055332
O O2 0.453559 0.592110 0.119748
O O3 0.330282 0.664309 0.063059
O O4 0.956790 0.603359 0.108692
O O5 0.500000 0.000000 0.500000
O O6 0.261510 0.912724 0.680378
O O7 0.250000 0.000000 0.629682
O O8 0.000000 0.250000 0.017596
O O9 0.742348 0.156128 0.989310
O O10 0.500000 0.407662 0.750000
O O11 0.750000 0.500000 0.727251
O O12 0.000000 0.407108 0.750000
#
# Coordination Sequence:
#
# PCOD9507714 Si02
#       5
#    16   8  16  16  16
#     4  12  21  34  50  73 102 133 169 212 257 306
#     4  12  22  32  46  66  96 132 166 198 244 308
#     4  11  20  33  48  73 107 137 165 203 257 301
#     4  10  21  38  56  72  94 130 175 222 262 297
#     4   9  17  29  46  67  95 135 172 197 228 290
#
# _framework density 18.147974999999999
#
# number of rings (size 3 to 8) (size 9 to 14) (size 15 to 20)
#    0.000    1.333    2.222    5.333    0.000    3.556 
#    0.000    0.000    0.000    0.000    0.000    0.000 
#    0.000   13.333    0.000    0.000    0.000    0.000 
#
# Total GULP energy -200926.514077 kJ/mol
# GULP energy per Si atom -5581.292058 kJ/mol
# Density = 1.810667 g / cm^3
# Si number density = 18.147975 Si / 1000 Ang^3
#
#
#
# Elastic Constant Matrix: (Units=GPa)
#
#
# Indices 1 2 3 4 5 6 
#
# 1 125.2130 16.4743 46.8002 0.0000 0.0000 0.0000
# 2 16.4743 14.3692 9.1470 0.0000 0.0000 0.0000
# 3 46.8002 9.1470 115.2376 0.0000 0.0000 0.0000
# 4 0.0000 0.0000 0.0000 11.4738 0.0000 0.0000
# 5 0.0000 0.0000 0.0000 0.0000 42.2613 0.0000
# 6 0.0000 0.0000 0.0000 0.0000 0.0000 14.3827
#
#
#
# Elastic Compliance Matrix: (Units=1/GPa)
#
#
# Indices 1 2 3 4 5 6 
#
# 1 0.010607 -0.009920 -0.003520 0.000000 0.000000 0.000000
# 2 -0.009920 0.082575 -0.002525 0.000000 0.000000 0.000000
# 3 -0.003520 -0.002525 0.010308 0.000000 0.000000 0.000000
# 4 0.000000 0.000000 0.000000 0.087155 0.000000 0.000000
# 5 0.000000 0.000000 0.000000 0.000000 0.023662 0.000000
# 6 0.000000 0.000000 0.000000 0.000000 0.000000 0.069528
#
#
# Mechanical properties :
#
#
# Convention : Reuss Voigt Hill
#
# Bulk Modulus (GPa) = 13.97476 44.40696 29.19086
# Shear Modulus (GPa) = 14.72230 25.78345 20.25288
#
# Velocity S-wave (km/s) = 2.85131 3.77335 3.34426
# Velocity P-wave (km/s) = 4.30780 6.59596 5.57063
#
# Compressibility (1/GPa) = 0.07155758
#
# Stress axis : x y z
#
# Youngs Moduli (GPa) = 94.27335 12.11020 97.01288
#
# Poissons Ratio (x) = 0.12014 0.34153
# Poissons Ratio (y) = 0.93524 0.24500
# Poissons Ratio (z) = 0.33189 0.03058
#
# Static dielectric constant tensor:
#      x y z
#    x 1.611730 0.000000 0.000000 
#    y 0.000000 1.663270 0.000000 
#    z 0.000000 0.000000 1.609180 
# 
# From -- ./inp_files/48310.got.cif
#   From: 2010.05.17/outbox.cif.g08.bks.cpg/sg68_25_cif.got.tgz:48310.got - 2010.06.03 18:57:09.
