data_PCOD9507691
_publ_section_title
;
Structure prediction by ZEFSAII (Michael W. Deem and Ramdas Pophale) SiO2 
 PCOD9507691
Probable space group: C C C A
;
_chemical_formula_sum "Si O2"
_cell_formula_units_Z 52
_cell_length_a 26.792220
_cell_length_b 13.103335
_cell_length_c 5.436841
_cell_angle_alpha 90.000000
_cell_angle_beta 90.000000
_cell_angle_gamma 90.000000
_cell_volume 1908.697819
_symmetry_space_group_name_H-M "C C C A"
_symmetry_group_IT_number 68
_space_group.IT_coordinate_system_code '2'
_symmetry_cell_setting 'orthorhombic'
loop_
_space_group_symop_operation_xyz
x,y,z
-x,1/2-y,z
x,1/2-y,1/2-z
-x,y,1/2-z
-x,-y,-z
x,1/2+y,-z
-x,1/2+y,1/2+z
x,-y,1/2+z
1/2+x,1/2+y,z
1/2-x,-y,z
1/2+x,-y,1/2-z
1/2-x,1/2+y,1/2-z
1/2-x,1/2-y,-z
1/2+x,y,-z
1/2-x,y,1/2+z
1/2+x,1/2-y,1/2+z
loop_
_atom_site_type_symbol
_atom_site_label
_atom_site_fract_x
_atom_site_fract_y
_atom_site_fract_z
Si Si1 0.421006 0.128580 0.570791
Si Si2 0.770896 0.365674 0.492785
Si Si3 0.615771 0.605370 0.571868
Si Si4 0.500000 0.750000 0.750000
O O1 0.381209 0.149980 0.349465
O O2 0.469325 0.171913 0.428246
O O3 0.410262 0.005751 0.601354
O O4 0.416154 0.160289 0.857590
O O5 0.750000 0.250000 0.500000
O O6 0.740928 0.405377 0.261420
O O7 0.829252 0.387019 0.457027
#
# Coordination Sequence:
#
# PCOD9507691 Si02
#       4
#    16  16  16   4
#     4  10  25  44  70  95 135 174 229 283 349 417
#     4  10  21  37  65 101 138 175 225 268 314 397
#     4  10  22  46  68  97 138 186 218 278 350 403
#     4  12  28  46  72 106 124 172 232 298 348 414
#
# _framework density 27.243704000000001
#
# number of rings (size 3 to 8) (size 9 to 14) (size 15 to 20)
#    0.000    1.846    0.000    1.846    0.000   16.000 
#    0.000   18.462    0.000    0.000    0.000    0.000 
#    0.000    0.000    0.000    0.000    0.000    0.000 
#
# Total GULP energy -144862.440928 kJ/mol
# GULP energy per Si atom -5571.632343 kJ/mol
# Density = 2.718170 g / cm^3
# Si number density = 27.243704 Si / 1000 Ang^3
#
#
#
# Elastic Constant Matrix: (Units=GPa)
#
#
# Indices 1 2 3 4 5 6 
#
# 1 151.8475 9.9479 10.2608 0.0000 0.0000 0.0000
# 2 9.9479 133.8836 -21.3680 0.0000 0.0000 0.0000
# 3 10.2608 -21.3680 222.5429 0.0000 0.0000 0.0000
# 4 0.0000 0.0000 0.0000 -56.8944 0.0000 0.0000
# 5 0.0000 0.0000 0.0000 0.0000 51.3447 0.0000
# 6 0.0000 0.0000 0.0000 0.0000 0.0000 18.1745
#
#
#
# Elastic Compliance Matrix: (Units=1/GPa)
#
#
# Indices 1 2 3 4 5 6 
#
# 1 0.006646 -0.000551 -0.000359 0.000000 0.000000 0.000000
# 2 -0.000551 0.007631 0.000758 0.000000 0.000000 0.000000
# 3 -0.000359 0.000758 0.004583 0.000000 0.000000 0.000000
# 4 0.000000 0.000000 0.000000 -0.017576 0.000000 0.000000
# 5 0.000000 0.000000 0.000000 0.000000 0.019476 0.000000
# 6 0.000000 0.000000 0.000000 0.000000 0.000000 0.055022
#
#
# Mechanical properties :
#
#
# Convention : Reuss Voigt Hill
#
# Bulk Modulus (GPa) = 53.89326 56.21727 55.05527
# Shear Modulus (GPa) = 60.77428 36.48717 48.63072
#
# Velocity S-wave (km/s) = 4.72822 3.66360 4.22954
# Velocity P-wave (km/s) = 7.04507 6.21093 6.64111
#
# Compressibility (1/GPa) = 0.01855520
#
# Stress axis : x y z
#
# Youngs Moduli (GPa) = 150.46772 131.04226 218.20348
#
# Poissons Ratio (x) = 0.07223 0.07841
# Poissons Ratio (y) = 0.08293 -0.16543
# Poissons Ratio (z) = 0.05407 -0.09935
#
# Static dielectric constant tensor:
#      x y z
#    x 2.080380 0.000000 0.000000 
#    y 0.000000 2.747310 0.000000 
#    z 0.000000 0.000000 2.132920 
# 
# From -- ./inp_files/935.got.cif
#   From: 2010.05.17/outbox.cif.g08.bks.cpg/sg68_1_cif.got.tgz:935.got - 2010.06.03 18:57:09.
