data_PCOD9507624
_publ_section_title
;
Structure prediction by ZEFSAII (Michael W. Deem and Ramdas Pophale) SiO2 
 PCOD9507624
Probable space group: C C C A
;
_chemical_formula_sum "Si O2"
_cell_formula_units_Z 64
_cell_length_a 14.606023
_cell_length_b 5.279203
_cell_length_c 38.854956
_cell_angle_alpha 90.000000
_cell_angle_beta 90.000000
_cell_angle_gamma 90.000000
_cell_volume 2996.034181
_symmetry_space_group_name_H-M "C C C A"
_symmetry_group_IT_number 68
_space_group.IT_coordinate_system_code '2'
_symmetry_cell_setting 'orthorhombic'
loop_
_space_group_symop_operation_xyz
x,y,z
-x,1/2-y,z
x,1/2-y,1/2-z
-x,y,1/2-z
-x,-y,-z
x,1/2+y,-z
-x,1/2+y,1/2+z
x,-y,1/2+z
1/2+x,1/2+y,z
1/2-x,-y,z
1/2+x,-y,1/2-z
1/2-x,1/2+y,1/2-z
1/2-x,1/2-y,-z
1/2+x,y,-z
1/2-x,y,1/2+z
1/2+x,1/2-y,1/2+z
loop_
_atom_site_type_symbol
_atom_site_label
_atom_site_fract_x
_atom_site_fract_y
_atom_site_fract_z
Si Si1 0.937681 0.500937 0.157067
Si Si2 0.352833 0.178635 0.513042
Si Si3 0.563469 0.000257 0.919126
Si Si4 0.358790 0.499663 0.768599
O O1 0.893148 0.514766 0.119083
O O2 0.876278 0.496514 0.190825
O O3 0.000000 0.750000 0.159603
O O4 0.000000 0.250000 0.157945
O O5 0.395459 0.460415 0.511351
O O6 0.250000 0.250000 0.500000
O O7 0.364818 0.053239 0.550366
O O8 0.500000 0.750000 0.923919
O O9 0.500000 0.250000 0.919196
O O10 0.395474 0.750000 0.750000
O O11 0.250000 0.500000 0.763298
O O12 0.395753 0.250000 0.750000
#
# Coordination Sequence:
#
# PCOD9507624 Si02
#       4
#    16  16  16  16
#     4  10  21  37  58  85 116 148 192 236 283 340
#     4  10  21  37  56  81 114 143 187 240 279 343
#     4  10  21  37  58  83 114 150 187 235 290 343
#     4  10  21  37  57  83 118 152 191 233 280 335
#
# _framework density 21.36157
#
# number of rings (size 3 to 8) (size 9 to 14) (size 15 to 20)
#    0.000    2.000    0.000    3.000    0.000    6.000 
#    4.500    0.000   11.000    0.000    0.000    0.000 
#    0.000    0.000    0.000    0.000    0.000    0.000 
#
# Total GULP energy -178460.102325 kJ/mol
# GULP energy per Si atom -5576.878198 kJ/mol
# Density = 2.131295 g / cm^3
# Si number density = 21.361570 Si / 1000 Ang^3
#
#
#
# Elastic Constant Matrix: (Units=GPa)
#
#
# Indices 1 2 3 4 5 6 
#
# 1 57.9711 28.6161 38.5963 0.0000 0.0000 0.0000
# 2 28.6161 213.4034 65.2200 0.0000 0.0000 0.0000
# 3 38.5963 65.2200 189.2034 0.0000 0.0000 0.0000
# 4 0.0000 0.0000 0.0000 37.2921 0.0000 0.0000
# 5 0.0000 0.0000 0.0000 0.0000 131.1180 0.0000
# 6 0.0000 0.0000 0.0000 0.0000 0.0000 -1.2660
#
#
#
# Elastic Compliance Matrix: (Units=1/GPa)
#
#
# Indices 1 2 3 4 5 6 
#
# 1 0.020463 -0.001641 -0.003609 0.000000 0.000000 0.000000
# 2 -0.001641 0.005369 -0.001516 0.000000 0.000000 0.000000
# 3 -0.003609 -0.001516 0.006544 0.000000 0.000000 0.000000
# 4 0.000000 0.000000 0.000000 0.026815 0.000000 0.000000
# 5 0.000000 0.000000 0.000000 0.000000 0.007627 0.000000
# 6 0.000000 0.000000 0.000000 0.000000 0.000000 -0.789875
#
#
# Mechanical properties :
#
#
# Convention : Reuss Voigt Hill
#
# Bulk Modulus (GPa) = 53.06570 80.60475 66.83523
# Shear Modulus (GPa) = -7.10991 55.30518 24.09763
#
# Velocity S-wave (km/s) = -1.82636 5.09375 3.36234
# Velocity P-wave (km/s) = 4.52196 8.50943 6.81390
#
# Compressibility (1/GPa) = 0.01884456
#
# Stress axis : x y z
#
# Youngs Moduli (GPa) = 48.86969 186.24169 152.81052
#
# Poissons Ratio (x) = 0.30564 0.55142
# Poissons Ratio (y) = 0.08020 0.23168
# Poissons Ratio (z) = 0.17635 0.28236
#
# Static dielectric constant tensor:
#      x y z
#    x 1.836190 0.000000 0.000000 
#    y 0.000000 1.861060 0.000000 
#    z 0.000000 0.000000 1.802470 
# 
# From -- ./inp_files/55459.got.cif
#   From: 2010.05.17/outbox.cif.g08.bks.cpg/sg68_28_cif.got.tgz:55459.got - 2010.06.03 18:57:09.
