data_PCOD9507672
_publ_section_title
;
Structure prediction by ZEFSAII (Michael W. Deem and Ramdas Pophale) SiO2 
 PCOD9507672
Probable space group: C C C A
;
_chemical_formula_sum "Si O2"
_cell_formula_units_Z 88
_cell_length_a 18.378037
_cell_length_b 11.391645
_cell_length_c 19.827198
_cell_angle_alpha 90.000000
_cell_angle_beta 90.000000
_cell_angle_gamma 90.000000
_cell_volume 4150.944318
_symmetry_space_group_name_H-M "C C C A"
_symmetry_group_IT_number 68
_space_group.IT_coordinate_system_code '2'
_symmetry_cell_setting 'orthorhombic'
loop_
_space_group_symop_operation_xyz
x,y,z
-x,1/2-y,z
x,1/2-y,1/2-z
-x,y,1/2-z
-x,-y,-z
x,1/2+y,-z
-x,1/2+y,1/2+z
x,-y,1/2+z
1/2+x,1/2+y,z
1/2-x,-y,z
1/2+x,-y,1/2-z
1/2-x,1/2+y,1/2-z
1/2-x,1/2-y,-z
1/2+x,y,-z
1/2-x,y,1/2+z
1/2+x,1/2-y,1/2+z
loop_
_atom_site_type_symbol
_atom_site_label
_atom_site_fract_x
_atom_site_fract_y
_atom_site_fract_z
Si Si1 0.242881 0.205257 0.892047
Si Si2 0.917923 0.536457 0.738912
Si Si3 0.813109 0.904154 0.494113
Si Si4 0.936743 0.409215 0.603309
Si Si5 0.092266 0.863286 0.361583
Si Si6 0.691495 0.250000 0.750000
O O1 0.215613 0.307445 0.940977
O O2 0.173906 0.117725 0.887719
O O3 0.261013 0.250200 0.817832
O O4 0.311108 0.149341 0.930952
O O5 0.910869 0.496213 0.661863
O O6 0.911768 0.422958 0.788038
O O7 0.858696 0.634666 0.754283
O O8 0.000000 0.582366 0.750000
O O9 0.891737 0.934176 0.464225
O O10 0.750000 0.000000 0.491352
O O11 0.920292 0.277337 0.632226
O O12 0.024041 0.416334 0.597735
#
# Coordination Sequence:
#
# PCOD9507672 Si02
#       6
#    16  16  16  16  16   8
#     4  10  24  39  59  93 125 160 209 256 310 374
#     4  10  21  37  62  90 124 160 204 263 311 373
#     4  10  21  40  62  86 128 161 204 260 313 380
#     4   9  18  37  65  90 121 159 204 259 319 366
#     4   9  19  36  61  93 122 152 209 267 307 363
#     4  12  25  38  60  89 126 172 206 246 326 381
#
# _framework density 21.199995000000001
#
# number of rings (size 3 to 8) (size 9 to 14) (size 15 to 20)
#    0.000    2.182    0.000    1.909    7.636    2.182 
#    0.000    0.909   24.000    0.000    0.000    0.000 
#    0.000    0.000    0.000    0.000    0.000    0.000 
#
# Total GULP energy -245501.621736 kJ/mol
# GULP energy per Si atom -5579.582312 kJ/mol
# Density = 2.115174 g / cm^3
# Si number density = 21.199995 Si / 1000 Ang^3
#
#
#
# Elastic Constant Matrix: (Units=GPa)
#
#
# Indices 1 2 3 4 5 6 
#
# 1 91.2601 0.2777 52.0222 0.0000 0.0000 0.0000
# 2 0.2777 31.1538 8.8359 0.0000 0.0000 0.0000
# 3 52.0222 8.8359 124.5034 0.0000 0.0000 0.0000
# 4 0.0000 0.0000 0.0000 43.1535 0.0000 0.0000
# 5 0.0000 0.0000 0.0000 0.0000 25.7550 0.0000
# 6 0.0000 0.0000 0.0000 0.0000 0.0000 25.0813
#
#
#
# Elastic Compliance Matrix: (Units=1/GPa)
#
#
# Indices 1 2 3 4 5 6 
#
# 1 0.014463 0.001618 -0.006158 0.000000 0.000000 0.000000
# 2 0.001618 0.032939 -0.003014 0.000000 0.000000 0.000000
# 3 -0.006158 -0.003014 0.010819 0.000000 0.000000 0.000000
# 4 0.000000 0.000000 0.000000 0.023173 0.000000 0.000000
# 5 0.000000 0.000000 0.000000 0.000000 0.038827 0.000000
# 6 0.000000 0.000000 0.000000 0.000000 0.000000 0.039870
#
#
# Mechanical properties :
#
#
# Convention : Reuss Voigt Hill
#
# Bulk Modulus (GPa) = 23.19477 41.02098 32.10787
# Shear Modulus (GPa) = 26.37536 31.18341 28.77938
#
# Velocity S-wave (km/s) = 3.53104 3.83941 3.68845
# Velocity P-wave (km/s) = 5.25252 6.24871 5.77214
#
# Compressibility (1/GPa) = 0.04311317
#
# Stress axis : x y z
#
# Youngs Moduli (GPa) = 69.14138 30.35901 92.43137
#
# Poissons Ratio (x) = -0.04911 0.56920
# Poissons Ratio (y) = -0.11185 0.27855
# Poissons Ratio (z) = 0.42578 0.09149
#
# Static dielectric constant tensor:
#      x y z
#    x 1.807260 0.000000 0.000000 
#    y 0.000000 1.794390 0.000000 
#    z 0.000000 0.000000 1.755260 
# 
# From -- ./inp_files/32797.got.cif
#   From: 2010.05.17/outbox.cif.g08.bks.cpg/sg68_17_cif.got.tgz:32797.got - 2010.06.03 18:57:09.
