data_PCOD9507104
_publ_section_title
;
Structure prediction by ZEFSAII (Michael W. Deem and Ramdas Pophale) SiO2 
 PCOD9507104
Probable space group: C C C A
;
_chemical_formula_sum "Si O2"
_cell_formula_units_Z 56
_cell_length_a 16.472895
_cell_length_b 4.900917
_cell_length_c 31.613698
_cell_angle_alpha 90.000000
_cell_angle_beta 90.000000
_cell_angle_gamma 90.000000
_cell_volume 2552.246271
_symmetry_space_group_name_H-M "C C C A"
_symmetry_group_IT_number 68
_space_group.IT_coordinate_system_code '2'
_symmetry_cell_setting 'orthorhombic'
loop_
_space_group_symop_operation_xyz
x,y,z
-x,1/2-y,z
x,1/2-y,1/2-z
-x,y,1/2-z
-x,-y,-z
x,1/2+y,-z
-x,1/2+y,1/2+z
x,-y,1/2+z
1/2+x,1/2+y,z
1/2-x,-y,z
1/2+x,-y,1/2-z
1/2-x,1/2+y,1/2-z
1/2-x,1/2-y,-z
1/2+x,y,-z
1/2-x,y,1/2+z
1/2+x,1/2-y,1/2+z
loop_
_atom_site_type_symbol
_atom_site_label
_atom_site_fract_x
_atom_site_fract_y
_atom_site_fract_z
Si Si1 0.193141 0.750000 0.250000
Si Si2 0.420344 0.941421 0.118372
Si Si3 0.847567 0.983935 0.473218
Si Si4 0.153832 0.536647 0.161212
O O1 0.250000 0.500000 0.264634
O O2 0.146667 0.637539 0.209315
O O3 0.500000 0.750000 0.114730
O O4 0.383155 0.933741 0.071513
O O5 0.374961 0.769432 0.154276
O O6 0.401228 0.254583 0.133133
O O7 0.871696 0.185295 0.511232
O O8 0.750000 0.000000 0.469490
O O9 0.250000 0.500000 0.150088
#
# Coordination Sequence:
#
# PCOD9507104 Si02
#       4
#     8  16  16  16
#     4  10  20  38  65  96 119 152 212 266 302 352
#     4  12  25  40  60  93 131 164 202 254 321 384
#     4  10  21  38  61  87 116 157 210 260 307 367
#     4  11  22  41  66  90 121 164 212 259 309 372
#
# _framework density 21.941455999999999
#
# number of rings (size 3 to 8) (size 9 to 14) (size 15 to 20)
#    0.000    1.143    0.000    8.571    0.000    3.429 
#    0.000    4.286    0.000    0.000    0.000    0.000 
#    0.000    0.000    0.000    0.000    0.000    0.000 
#
# Total GULP energy -155996.841107 kJ/mol
# GULP energy per Si atom -5571.315754 kJ/mol
# Density = 2.189152 g / cm^3
# Si number density = 21.941456 Si / 1000 Ang^3
#
#
#
# Elastic Constant Matrix: (Units=GPa)
#
#
# Indices 1 2 3 4 5 6 
#
# 1 43.8599 22.0546 25.7649 0.0000 0.0000 0.0000
# 2 22.0546 111.6747 10.2296 0.0000 0.0000 0.0000
# 3 25.7649 10.2296 111.4428 0.0000 0.0000 0.0000
# 4 0.0000 0.0000 0.0000 35.4455 0.0000 0.0000
# 5 0.0000 0.0000 0.0000 0.0000 22.6075 0.0000
# 6 0.0000 0.0000 0.0000 0.0000 0.0000 33.2687
#
#
#
# Elastic Compliance Matrix: (Units=1/GPa)
#
#
# Indices 1 2 3 4 5 6 
#
# 1 0.029068 -0.005168 -0.006246 0.000000 0.000000 0.000000
# 2 -0.005168 0.009949 0.000282 0.000000 0.000000 0.000000
# 3 -0.006246 0.000282 0.010391 0.000000 0.000000 0.000000
# 4 0.000000 0.000000 0.000000 0.028212 0.000000 0.000000
# 5 0.000000 0.000000 0.000000 0.000000 0.044233 0.000000
# 6 0.000000 0.000000 0.000000 0.000000 0.000000 0.030058
#
#
# Mechanical properties :
#
#
# Convention : Reuss Voigt Hill
#
# Bulk Modulus (GPa) = 36.84152 42.56395 39.70274
# Shear Modulus (GPa) = 27.28875 32.19288 29.74081
#
# Velocity S-wave (km/s) = 3.53045 3.83458 3.68565
# Velocity P-wave (km/s) = 5.78326 6.24871 6.02048
#
# Compressibility (1/GPa) = 0.02714328
#
# Stress axis : x y z
#
# Youngs Moduli (GPa) = 34.40229 100.50761 96.23367
#
# Poissons Ratio (x) = 0.51947 0.60106
# Poissons Ratio (y) = 0.17781 -0.02710
# Poissons Ratio (z) = 0.21487 -0.02831
#
# Static dielectric constant tensor:
#      x y z
#    x 1.886830 0.000000 0.000000 
#    y 0.000000 1.810680 0.000000 
#    z 0.000000 0.000000 1.744900 
# 
# From -- ./inp_files/51143.got.cif
#   From: 2010.05.17/outbox.cif.g08.bks.cpg/sg68_26_cif.got.tgz:51143.got - 2010.06.03 18:57:09.
