data_PCOD9507606
_publ_section_title
;
Structure prediction by ZEFSAII (Michael W. Deem and Ramdas Pophale) SiO2 
 PCOD9507606
Probable space group: C C C A
;
_chemical_formula_sum "Si O2"
_cell_formula_units_Z 52
_cell_length_a 18.602217
_cell_length_b 22.171674
_cell_length_c 5.584375
_cell_angle_alpha 90.000000
_cell_angle_beta 90.000000
_cell_angle_gamma 90.000000
_cell_volume 2303.232419
_symmetry_space_group_name_H-M "C C C A"
_symmetry_group_IT_number 68
_space_group.IT_coordinate_system_code '2'
_symmetry_cell_setting 'orthorhombic'
loop_
_space_group_symop_operation_xyz
x,y,z
-x,1/2-y,z
x,1/2-y,1/2-z
-x,y,1/2-z
-x,-y,-z
x,1/2+y,-z
-x,1/2+y,1/2+z
x,-y,1/2+z
1/2+x,1/2+y,z
1/2-x,-y,z
1/2+x,-y,1/2-z
1/2-x,1/2+y,1/2-z
1/2-x,1/2-y,-z
1/2+x,y,-z
1/2-x,y,1/2+z
1/2+x,1/2-y,1/2+z
loop_
_atom_site_type_symbol
_atom_site_label
_atom_site_fract_x
_atom_site_fract_y
_atom_site_fract_z
Si Si1 0.707822 0.418595 0.353087
Si Si2 0.906597 0.479011 0.363566
Si Si3 0.000000 0.250000 0.750000
Si Si4 0.574099 0.363886 0.135162
O O1 0.745661 0.410179 0.609699
O O2 0.669528 0.484514 0.345501
O O3 0.640075 0.373090 0.316974
O O4 0.937108 0.490407 0.103051
O O5 0.905831 0.592002 0.917803
O O6 0.948988 0.205215 0.902518
O O7 0.500000 0.388650 0.250000
#
# Coordination Sequence:
#
# PCOD9507606 Si02
#       4
#    16  16   4  16
#     4  11  23  40  66 104 142 176 221 289 364 429
#     4  10  21  36  63  99 133 172 215 279 353 421
#     4   8  20  48  72  98 140 198 254 304 328 418
#     4   9  21  42  72  99 146 190 247 289 356 417
#
# _framework density 22.576964
#
# number of rings (size 3 to 8) (size 9 to 14) (size 15 to 20)
#    0.923    1.231    0.000    3.692    0.000   19.692 
#    0.000    9.231    0.000   33.231    0.000    0.000 
#    0.000    0.000    0.000    0.000    0.000    0.000 
#
# Total GULP energy -144846.083604 kJ/mol
# GULP energy per Si atom -5571.003216 kJ/mol
# Density = 2.252558 g / cm^3
# Si number density = 22.576964 Si / 1000 Ang^3
#
#
#
# Elastic Constant Matrix: (Units=GPa)
#
#
# Indices 1 2 3 4 5 6 
#
# 1 149.5051 45.6722 79.8564 0.0000 0.0000 0.0000
# 2 45.6722 166.2031 44.1026 0.0000 0.0000 0.0000
# 3 79.8564 44.1026 193.6325 0.0000 0.0000 0.0000
# 4 0.0000 0.0000 0.0000 2.8805 0.0000 0.0000
# 5 0.0000 0.0000 0.0000 0.0000 50.8349 0.0000
# 6 0.0000 0.0000 0.0000 0.0000 0.0000 32.2324
#
#
#
# Elastic Compliance Matrix: (Units=1/GPa)
#
#
# Indices 1 2 3 4 5 6 
#
# 1 0.008950 -0.001575 -0.003332 0.000000 0.000000 0.000000
# 2 -0.001575 0.006681 -0.000872 0.000000 0.000000 0.000000
# 3 -0.003332 -0.000872 0.006737 0.000000 0.000000 0.000000
# 4 0.000000 0.000000 0.000000 0.347165 0.000000 0.000000
# 5 0.000000 0.000000 0.000000 0.000000 0.019672 0.000000
# 6 0.000000 0.000000 0.000000 0.000000 0.000000 0.031025
#
#
# Mechanical properties :
#
#
# Convention : Reuss Voigt Hill
#
# Bulk Modulus (GPa) = 92.51424 94.28923 93.40173
# Shear Modulus (GPa) = 11.48393 39.83687 25.66040
#
# Velocity S-wave (km/s) = 2.25779 4.20514 3.37497
# Velocity P-wave (km/s) = 6.91831 8.08899 7.52645
#
# Compressibility (1/GPa) = 0.01080915
#
# Stress axis : x y z
#
# Youngs Moduli (GPa) = 111.73424 149.67833 148.42727
#
# Poissons Ratio (x) = 0.23577 0.49460
# Poissons Ratio (y) = 0.17600 0.12944
# Poissons Ratio (z) = 0.37233 0.13053
#
# Static dielectric constant tensor:
#      x y z
#    x 2.025870 0.000000 0.000000 
#    y 0.000000 1.846020 0.000000 
#    z 0.000000 0.000000 1.864720 
# 
# From -- ./inp_files/936.got.cif
#   From: 2010.05.17/outbox.cif.g08.bks.cpg/sg68_1_cif.got.tgz:936.got - 2010.06.03 18:57:09.
