data_PCOD9507858
_publ_section_title
;
Structure prediction by ZEFSAII (Michael W. Deem and Ramdas Pophale) SiO2 
 PCOD9507858
Probable space group: C C C A
;
_chemical_formula_sum "Si O2"
_cell_formula_units_Z 88
_cell_length_a 8.503313
_cell_length_b 19.255345
_cell_length_c 28.108586
_cell_angle_alpha 90.000000
_cell_angle_beta 90.000000
_cell_angle_gamma 90.000000
_cell_volume 4602.337557
_symmetry_space_group_name_H-M "C C C A"
_symmetry_group_IT_number 68
_space_group.IT_coordinate_system_code '2'
_symmetry_cell_setting 'orthorhombic'
loop_
_space_group_symop_operation_xyz
x,y,z
-x,1/2-y,z
x,1/2-y,1/2-z
-x,y,1/2-z
-x,-y,-z
x,1/2+y,-z
-x,1/2+y,1/2+z
x,-y,1/2+z
1/2+x,1/2+y,z
1/2-x,-y,z
1/2+x,-y,1/2-z
1/2-x,1/2+y,1/2-z
1/2-x,1/2-y,-z
1/2+x,y,-z
1/2-x,y,1/2+z
1/2+x,1/2-y,1/2+z
loop_
_atom_site_type_symbol
_atom_site_label
_atom_site_fract_x
_atom_site_fract_y
_atom_site_fract_z
Si Si1 0.064289 0.018944 0.611523
Si Si2 0.963425 0.385960 0.434588
Si Si3 0.851728 0.428859 0.971280
Si Si4 0.256243 0.752325 0.803817
Si Si5 0.483311 0.374128 0.303687
Si Si6 0.500000 0.750000 0.381932
O O1 0.023154 0.065055 0.657553
O O2 0.993100 0.060803 0.566327
O O3 0.250000 0.000000 0.609391
O O4 0.974036 0.945498 0.605824
O O5 0.069694 0.410287 0.478916
O O6 0.782876 0.377518 0.451645
O O7 0.032063 0.315807 0.414284
O O8 0.750000 0.500000 0.975756
O O9 0.191044 0.750000 0.750000
O O10 0.380443 0.815529 0.806286
O O11 0.332494 0.675995 0.810191
O O12 0.140402 0.766190 0.846406
O O13 0.500000 0.402760 0.250000
#
# Coordination Sequence:
#
# PCOD9507858 Si02
#       6
#    16  16  16  16  16   8
#     4  11  20  36  60  84 111 146 187 230 279 332
#     4  11  23  37  56  81 112 149 188 232 280 332
#     4  10  21  39  58  79 109 148 188 227 280 340
#     4   9  19  37  59  81 113 152 183 219 276 341
#     4   9  19  38  61  84 111 147 187 225 273 335
#     4  12  23  36  56  86 114 142 187 238 282 324
#
# _framework density 19.120719000000001
#
# number of rings (size 3 to 8) (size 9 to 14) (size 15 to 20)
#    0.000    1.818    0.000    7.364    0.000    0.727 
#    0.000   10.000    0.000    0.000    0.000    0.000 
#    0.000    0.000    0.000    0.000    0.000    0.000 
#
# Total GULP energy -245368.789765 kJ/mol
# GULP energy per Si atom -5576.563404 kJ/mol
# Density = 1.907720 g / cm^3
# Si number density = 19.120719 Si / 1000 Ang^3
#
#
#
# Elastic Constant Matrix: (Units=GPa)
#
#
# Indices 1 2 3 4 5 6 
#
# 1 63.2706 1.9845 36.6451 0.0000 0.0000 0.0000
# 2 1.9845 78.7221 66.6968 0.0000 0.0000 0.0000
# 3 36.6451 66.6968 146.2519 0.0000 0.0000 0.0000
# 4 0.0000 0.0000 0.0000 20.9118 0.0000 0.0000
# 5 0.0000 0.0000 0.0000 0.0000 22.4087 0.0000
# 6 0.0000 0.0000 0.0000 0.0000 0.0000 3.3100
#
#
#
# Elastic Compliance Matrix: (Units=1/GPa)
#
#
# Indices 1 2 3 4 5 6 
#
# 1 0.020162 0.006147 -0.007855 0.000000 0.000000 0.000000
# 2 0.006147 0.022576 -0.011836 0.000000 0.000000 0.000000
# 3 -0.007855 -0.011836 0.014203 0.000000 0.000000 0.000000
# 4 0.000000 0.000000 0.000000 0.047820 0.000000 0.000000
# 5 0.000000 0.000000 0.000000 0.000000 0.044626 0.000000
# 6 0.000000 0.000000 0.000000 0.000000 0.000000 0.302115
#
#
# Mechanical properties :
#
#
# Convention : Reuss Voigt Hill
#
# Bulk Modulus (GPa) = 33.49734 55.43305 44.46519
# Shear Modulus (GPa) = 10.23460 21.52064 15.87762
#
# Velocity S-wave (km/s) = 2.31608 3.35851 2.88477
# Velocity P-wave (km/s) = 4.97084 6.64029 5.86527
#
# Compressibility (1/GPa) = 0.02985312
#
# Stress axis : x y z
#
# Youngs Moduli (GPa) = 49.59879 44.29576 70.40689
#
# Poissons Ratio (x) = -0.27228 0.55304
# Poissons Ratio (y) = -0.30487 0.83330
# Poissons Ratio (z) = 0.38960 0.52426
#
# Static dielectric constant tensor:
#      x y z
#    x 2.947750 0.000000 0.000000 
#    y 0.000000 1.640930 0.000000 
#    z 0.000000 0.000000 1.652780 
# 
# From -- ./inp_files/43145.got.cif
#   From: 2010.05.17/outbox.cif.g08.bks.cpg/sg68_22_cif.got.tgz:43145.got - 2010.06.03 18:57:09.
