data_PCOD9507075
_publ_section_title
;
Structure prediction by ZEFSAII (Michael W. Deem and Ramdas Pophale) SiO2 
 PCOD9507075
Probable space group: C C C A
;
_chemical_formula_sum "Si O2"
_cell_formula_units_Z 88
_cell_length_a 27.335159
_cell_length_b 12.900633
_cell_length_c 11.379404
_cell_angle_alpha 90.000000
_cell_angle_beta 90.000000
_cell_angle_gamma 90.000000
_cell_volume 4012.842747
_symmetry_space_group_name_H-M "C C C A"
_symmetry_group_IT_number 68
_space_group.IT_coordinate_system_code '2'
_symmetry_cell_setting 'orthorhombic'
loop_
_space_group_symop_operation_xyz
x,y,z
-x,1/2-y,z
x,1/2-y,1/2-z
-x,y,1/2-z
-x,-y,-z
x,1/2+y,-z
-x,1/2+y,1/2+z
x,-y,1/2+z
1/2+x,1/2+y,z
1/2-x,-y,z
1/2+x,-y,1/2-z
1/2-x,1/2+y,1/2-z
1/2-x,1/2-y,-z
1/2+x,y,-z
1/2-x,y,1/2+z
1/2+x,1/2-y,1/2+z
loop_
_atom_site_type_symbol
_atom_site_label
_atom_site_fract_x
_atom_site_fract_y
_atom_site_fract_z
Si Si1 0.500000 0.575161 0.250000
Si Si2 0.500000 0.750000 0.049651
Si Si3 0.172259 0.665224 0.649381
Si Si4 0.250000 0.000000 0.353292
Si Si5 0.103309 0.978237 0.686582
Si Si6 0.394815 0.691124 0.512736
Si Si7 0.666262 0.863061 0.740498
O O1 0.494351 0.651756 0.137931
O O2 0.451295 0.509275 0.266377
O O3 0.449606 0.763512 0.978866
O O4 0.188603 0.750000 0.750000
O O5 0.215699 0.593113 0.594046
O O6 0.134424 0.588660 0.717766
O O7 0.141873 0.730136 0.553920
O O8 0.288969 0.061541 0.277591
O O9 0.101117 0.907761 0.572492
O O10 0.131517 0.084800 0.663460
O O11 0.370074 0.650526 0.630348
O O12 0.687456 0.750000 0.750000
#
# Coordination Sequence:
#
# PCOD9507075 Si02
#       7
#     8   8  16   8  16  16  16
#     4   9  14  32  63  92 116 160 215 244 275 356
#     4   9  16  32  63  96 120 162 201 248 295 352
#     4   9  17  35  61  89 115 152 201 261 299 360
#     4  10  22  40  64  80 116 164 210 250 314 364
#     4   9  19  37  60  88 122 161 204 248 292 365
#     4  10  20  38  63  92 126 155 205 251 307 360
#     4  11  25  43  59  89 126 160 198 260 315 367
#
# _framework density 21.929592
#
# number of rings (size 3 to 8) (size 9 to 14) (size 15 to 20)
#    0.000    2.364    1.818    0.545    0.000    3.636 
#    3.273   10.909    0.000    0.000    0.000    0.000 
#    0.000    0.000    0.000    0.000    0.000    0.000 
#
# Total GULP energy -245350.508419 kJ/mol
# GULP energy per Si atom -5576.147919 kJ/mol
# Density = 2.187968 g / cm^3
# Si number density = 21.929592 Si / 1000 Ang^3
#
#
#
# Elastic Constant Matrix: (Units=GPa)
#
#
# Indices 1 2 3 4 5 6 
#
# 1 153.1112 54.8657 19.2240 0.0000 0.0000 0.0000
# 2 54.8657 110.8974 2.2600 0.0000 0.0000 0.0000
# 3 19.2240 2.2600 33.0912 0.0000 0.0000 0.0000
# 4 0.0000 0.0000 0.0000 11.5100 0.0000 0.0000
# 5 0.0000 0.0000 0.0000 0.0000 -8.8346 0.0000
# 6 0.0000 0.0000 0.0000 0.0000 0.0000 20.4353
#
#
#
# Elastic Compliance Matrix: (Units=1/GPa)
#
#
# Indices 1 2 3 4 5 6 
#
# 1 0.008617 -0.004167 -0.004721 0.000000 0.000000 0.000000
# 2 -0.004167 0.011045 0.001666 0.000000 0.000000 0.000000
# 3 -0.004721 0.001666 0.032849 0.000000 0.000000 0.000000
# 4 0.000000 0.000000 0.000000 0.086881 0.000000 0.000000
# 5 0.000000 0.000000 0.000000 0.000000 -0.113191 0.000000
# 6 0.000000 0.000000 0.000000 0.000000 0.000000 0.048935
#
#
# Mechanical properties :
#
#
# Convention : Reuss Voigt Hill
#
# Bulk Modulus (GPa) = 26.26972 49.97768 38.12370
# Shear Modulus (GPa) = 48.89075 19.33880 34.11478
#
# Velocity S-wave (km/s) = 4.72682 2.97283 3.94845
# Velocity P-wave (km/s) = 6.46495 5.88415 6.18137
#
# Compressibility (1/GPa) = 0.03806664
#
# Stress axis : x y z
#
# Youngs Moduli (GPa) = 116.04637 90.53850 30.44272
#
# Poissons Ratio (x) = 0.37728 0.14374
# Poissons Ratio (y) = 0.48358 -0.05073
# Poissons Ratio (z) = 0.54791 -0.15088
#
# Static dielectric constant tensor:
#      x y z
#    x 1.793860 0.000000 0.000000 
#    y 0.000000 1.899950 0.000000 
#    z 0.000000 0.000000 1.788010 
# 
# From -- ./inp_files/17108.got.cif
#   From: 2010.05.17/outbox.cif.g08.bks.cpg/sg68_9_cif.got.tgz:17108.got - 2010.06.03 18:57:09.
