data_PCOD9507867
_publ_section_title
;
Structure prediction by ZEFSAII (Michael W. Deem and Ramdas Pophale) SiO2 
 PCOD9507867
Probable space group: C C C A
;
_chemical_formula_sum "Si O2"
_cell_formula_units_Z 96
_cell_length_a 26.582384
_cell_length_b 9.049388
_cell_length_c 19.319060
_cell_angle_alpha 90.000000
_cell_angle_beta 90.000000
_cell_angle_gamma 90.000000
_cell_volume 4647.283086
_symmetry_space_group_name_H-M "C C C A"
_symmetry_group_IT_number 68
_space_group.IT_coordinate_system_code '2'
_symmetry_cell_setting 'orthorhombic'
loop_
_space_group_symop_operation_xyz
x,y,z
-x,1/2-y,z
x,1/2-y,1/2-z
-x,y,1/2-z
-x,-y,-z
x,1/2+y,-z
-x,1/2+y,1/2+z
x,-y,1/2+z
1/2+x,1/2+y,z
1/2-x,-y,z
1/2+x,-y,1/2-z
1/2-x,1/2+y,1/2-z
1/2-x,1/2-y,-z
1/2+x,y,-z
1/2-x,y,1/2+z
1/2+x,1/2-y,1/2+z
loop_
_atom_site_type_symbol
_atom_site_label
_atom_site_fract_x
_atom_site_fract_y
_atom_site_fract_z
Si Si1 0.637243 0.090938 0.719264
Si Si2 0.443315 0.901967 0.720851
Si Si3 0.836722 0.167689 0.480315
Si Si4 0.875661 0.616076 0.092146
Si Si5 0.799838 0.437541 0.408727
Si Si6 0.710241 0.121990 0.301632
O O1 0.648516 0.250000 0.750000
O O2 0.651300 0.076666 0.639516
O O3 0.582629 0.041258 0.743168
O O4 0.673159 0.973197 0.754725
O O5 0.420232 0.750000 0.750000
O O6 0.500000 0.903199 0.750000
O O7 0.425579 0.890472 0.640498
O O8 0.873337 0.276206 0.525216
O O9 0.797525 0.273980 0.440889
O O10 0.864894 0.053802 0.429450
O O11 0.808864 0.056229 0.531751
O O12 0.827063 0.672014 0.136886
O O13 0.750000 0.500000 0.371327
O O14 0.730450 0.250000 0.250000
O O15 0.750000 0.000000 0.327658
#
# Coordination Sequence:
#
# PCOD9507867 Si02
#       6
#    16  16  16  16  16  16
#     4  11  22  36  57  86 118 151 193 252 310 352
#     4  10  21  40  67  89 111 146 193 247 307 364
#     4  10  22  36  56  81 118 159 195 234 281 340
#     4  10  21  39  59  86 117 155 198 241 290 355
#     4  11  21  35  54  80 115 157 200 236 279 341
#     4  11  22  36  56  85 122 162 207 255 302 345
#
# _framework density 20.657230999999999
#
# number of rings (size 3 to 8) (size 9 to 14) (size 15 to 20)
#    0.000    1.500    0.000    7.500    0.000    7.000 
#    0.000    0.833    0.000   18.000    0.000    0.000 
#    0.000    0.000    0.000    0.000    0.000    0.000 
#
# Total GULP energy -267679.684921 kJ/mol
# GULP energy per Si atom -5576.660103 kJ/mol
# Density = 2.061021 g / cm^3
# Si number density = 20.657231 Si / 1000 Ang^3
#
#
#
# Elastic Constant Matrix: (Units=GPa)
#
#
# Indices 1 2 3 4 5 6 
#
# 1 74.5208 16.8978 14.6472 0.0000 0.0000 0.0000
# 2 16.8978 122.8670 24.3589 0.0000 0.0000 0.0000
# 3 14.6472 24.3589 61.2234 0.0000 0.0000 0.0000
# 4 0.0000 0.0000 0.0000 44.5303 0.0000 0.0000
# 5 0.0000 0.0000 0.0000 0.0000 12.3635 0.0000
# 6 0.0000 0.0000 0.0000 0.0000 0.0000 -6.4027
#
#
#
# Elastic Compliance Matrix: (Units=1/GPa)
#
#
# Indices 1 2 3 4 5 6 
#
# 1 0.014299 -0.001399 -0.002864 0.000000 0.000000 0.000000
# 2 -0.001399 0.008973 -0.003235 0.000000 0.000000 0.000000
# 3 -0.002864 -0.003235 0.018306 0.000000 0.000000 0.000000
# 4 0.000000 0.000000 0.000000 0.022457 0.000000 0.000000
# 5 0.000000 0.000000 0.000000 0.000000 0.080883 0.000000
# 6 0.000000 0.000000 0.000000 0.000000 0.000000 -0.156185
#
#
# Mechanical properties :
#
#
# Convention : Reuss Voigt Hill
#
# Bulk Modulus (GPa) = 37.62069 41.15765 39.38917
# Shear Modulus (GPa) = 397.13339 23.61204 210.37272
#
# Velocity S-wave (km/s) = 13.88043 3.38456 10.10252
# Velocity P-wave (km/s) = 16.58734 5.93641 12.45755
#
# Compressibility (1/GPa) = 0.02658112
#
# Stress axis : x y z
#
# Youngs Moduli (GPa) = 69.93379 111.44969 54.62638
#
# Poissons Ratio (x) = 0.15588 0.15648
# Poissons Ratio (y) = 0.09781 0.17673
# Poissons Ratio (z) = 0.20032 0.36058
#
# Static dielectric constant tensor:
#      x y z
#    x 1.804260 0.000000 0.000000 
#    y 0.000000 1.785650 0.000000 
#    z 0.000000 0.000000 1.843970 
# 
# From -- ./inp_files/36468.got.cif
#   From: 2010.05.17/outbox.cif.g08.bks.cpg/sg68_19_cif.got.tgz:36468.got - 2010.06.03 18:57:09.
