data_PCOD9507015
_publ_section_title
;
Structure prediction by ZEFSAII (Michael W. Deem and Ramdas Pophale) SiO2 
 PCOD9507015
Probable space group: C C C A
;
_chemical_formula_sum "Si O2"
_cell_formula_units_Z 120
_cell_length_a 22.559955
_cell_length_b 13.267057
_cell_length_c 20.970325
_cell_angle_alpha 90.000000
_cell_angle_beta 90.000000
_cell_angle_gamma 90.000000
_cell_volume 6276.506535
_symmetry_space_group_name_H-M "C C C A"
_symmetry_group_IT_number 68
_space_group.IT_coordinate_system_code '2'
_symmetry_cell_setting 'orthorhombic'
loop_
_space_group_symop_operation_xyz
x,y,z
-x,1/2-y,z
x,1/2-y,1/2-z
-x,y,1/2-z
-x,-y,-z
x,1/2+y,-z
-x,1/2+y,1/2+z
x,-y,1/2+z
1/2+x,1/2+y,z
1/2-x,-y,z
1/2+x,-y,1/2-z
1/2-x,1/2+y,1/2-z
1/2-x,1/2-y,-z
1/2+x,y,-z
1/2-x,y,1/2+z
1/2+x,1/2-y,1/2+z
loop_
_atom_site_type_symbol
_atom_site_label
_atom_site_fract_x
_atom_site_fract_y
_atom_site_fract_z
Si Si1 0.000000 0.979157 0.750000
Si Si2 0.648959 0.069377 0.934260
Si Si3 0.809046 0.068932 0.570241
Si Si4 0.694978 0.574024 0.677640
Si Si5 0.121955 0.039729 0.797410
Si Si6 0.551025 0.672830 0.142378
Si Si7 0.843986 0.188391 0.194209
Si Si8 0.755699 0.259344 0.099432
O O1 0.973692 0.906624 0.805773
O O2 0.948215 0.044245 0.716335
O O3 0.586300 0.117843 0.914403
O O4 0.700975 0.153509 0.927060
O O5 0.662431 0.985682 0.880234
O O6 0.655386 0.034163 0.007031
O O7 0.850130 0.065312 0.633648
O O8 0.786543 0.184677 0.560889
O O9 0.750000 0.000000 0.575632
O O10 0.750000 0.500000 0.695096
O O11 0.656159 0.592382 0.739812
O O12 0.716637 0.678390 0.649007
O O13 0.136361 0.921317 0.786750
O O14 0.500000 0.750000 0.121383
O O15 0.600208 0.742553 0.176389
O O16 0.812359 0.250000 0.250000
O O17 0.800331 0.184384 0.135290
#
# Coordination Sequence:
#
# PCOD9507015 Si02
#       8
#     8  16  16  16  16  16  16  16
#     4  12  21  38  62  91 120 160 206 263 312 349
#     4  10  22  40  61  93 125 159 200 250 320 386
#     4  12  24  39  61  93 129 162 206 253 310 375
#     4  10  20  38  59  88 125 160 196 243 315 382
#     4  12  23  36  60  91 123 161 206 261 303 366
#     4  11  19  34  63  90 118 155 205 261 312 358
#     4  11  18  31  55  95 120 147 193 251 314 364
#     4  10  22  36  60  86 125 165 194 246 307 379
#
# _framework density 19.118917
#
# number of rings (size 3 to 8) (size 9 to 14) (size 15 to 20)
#    0.000    1.067    5.333    3.800    1.867    0.000 
#    0.000    0.667    2.933    0.800    0.000    0.000 
#    0.000    0.000    0.000    0.000    0.000    0.000 
#
# Total GULP energy -334692.038755 kJ/mol
# GULP energy per Si atom -5578.200646 kJ/mol
# Density = 1.907540 g / cm^3
# Si number density = 19.118917 Si / 1000 Ang^3
#
#
#
# Elastic Constant Matrix: (Units=GPa)
#
#
# Indices 1 2 3 4 5 6 
#
# 1 102.3129 15.5142 68.3518 0.0000 0.0000 0.0000
# 2 15.5142 35.4907 8.0854 0.0000 0.0000 0.0000
# 3 68.3518 8.0854 130.8119 0.0000 0.0000 0.0000
# 4 0.0000 0.0000 0.0000 7.2829 0.0000 0.0000
# 5 0.0000 0.0000 0.0000 0.0000 10.3299 0.0000
# 6 0.0000 0.0000 0.0000 0.0000 0.0000 8.0507
#
#
#
# Elastic Compliance Matrix: (Units=1/GPa)
#
#
# Indices 1 2 3 4 5 6 
#
# 1 0.015884 -0.005125 -0.007983 0.000000 0.000000 0.000000
# 2 -0.005125 0.030232 0.000809 0.000000 0.000000 0.000000
# 3 -0.007983 0.000809 0.011766 0.000000 0.000000 0.000000
# 4 0.000000 0.000000 0.000000 0.137308 0.000000 0.000000
# 5 0.000000 0.000000 0.000000 0.000000 0.096806 0.000000
# 6 0.000000 0.000000 0.000000 0.000000 0.000000 0.124214
#
#
# Mechanical properties :
#
#
# Convention : Reuss Voigt Hill
#
# Bulk Modulus (GPa) = 30.04363 50.27981 40.16172
# Shear Modulus (GPa) = 11.06433 16.91030 13.98731
#
# Velocity S-wave (km/s) = 2.40825 2.97725 2.70774
# Velocity P-wave (km/s) = 4.84573 6.17853 5.55227
#
# Compressibility (1/GPa) = 0.03328492
#
# Stress axis : x y z
#
# Youngs Moduli (GPa) = 62.95532 33.07724 84.99161
#
# Poissons Ratio (x) = 0.16952 0.67850
# Poissons Ratio (y) = 0.32264 -0.06877
# Poissons Ratio (z) = 0.50258 -0.02677
#
# Static dielectric constant tensor:
#      x y z
#    x 1.703270 0.000000 0.000000 
#    y 0.000000 1.661320 0.000000 
#    z 0.000000 0.000000 1.723970 
# 
# From -- ./inp_files/40400.got.cif
#   From: 2010.05.17/outbox.cif.g08.bks.cpg/sg68_21_cif.got.tgz:40400.got - 2010.06.03 18:57:09.
