data_PCOD9507359
_publ_section_title
;
Structure prediction by ZEFSAII (Michael W. Deem and Ramdas Pophale) SiO2 
 PCOD9507359
Probable space group: C C C A
;
_chemical_formula_sum "Si O2"
_cell_formula_units_Z 88
_cell_length_a 12.732607
_cell_length_b 16.837664
_cell_length_c 18.678004
_cell_angle_alpha 90.000000
_cell_angle_beta 90.000000
_cell_angle_gamma 90.000000
_cell_volume 4004.327940
_symmetry_space_group_name_H-M "C C C A"
_symmetry_group_IT_number 68
_space_group.IT_coordinate_system_code '2'
_symmetry_cell_setting 'orthorhombic'
loop_
_space_group_symop_operation_xyz
x,y,z
-x,1/2-y,z
x,1/2-y,1/2-z
-x,y,1/2-z
-x,-y,-z
x,1/2+y,-z
-x,1/2+y,1/2+z
x,-y,1/2+z
1/2+x,1/2+y,z
1/2-x,-y,z
1/2+x,-y,1/2-z
1/2-x,1/2+y,1/2-z
1/2-x,1/2-y,-z
1/2+x,y,-z
1/2-x,y,1/2+z
1/2+x,1/2-y,1/2+z
loop_
_atom_site_type_symbol
_atom_site_label
_atom_site_fract_x
_atom_site_fract_y
_atom_site_fract_z
Si Si1 0.000000 0.750000 0.597867
Si Si2 0.846484 0.048153 0.321552
Si Si3 0.023614 0.473811 0.582123
Si Si4 0.680795 0.337166 0.411215
Si Si5 0.127333 0.609003 0.669391
Si Si6 0.218198 0.823975 0.563672
O O1 0.048052 0.677905 0.643493
O O2 0.102346 0.782369 0.556429
O O3 0.891383 0.089299 0.251554
O O4 0.799618 0.112026 0.376031
O O5 0.750000 0.000000 0.291071
O O6 0.923321 0.992075 0.367614
O O7 0.071930 0.385305 0.587941
O O8 0.107056 0.533646 0.618305
O O9 0.000000 0.500000 0.500000
O O10 0.754324 0.362270 0.345517
O O11 0.695045 0.241554 0.415694
O O12 0.738202 0.361535 0.486208
#
# Coordination Sequence:
#
# PCOD9507359 Si02
#       6
#     8  16  16  16  16  16
#     4  10  20  41  68 102 130 173 224 288 347 408
#     4  12  26  43  63 100 137 178 234 288 346 426
#     4  12  23  40  66  99 134 183 225 279 352 409
#     4  10  22  41  65  98 134 176 223 281 353 409
#     4  11  24  41  70  99 137 174 227 288 350 411
#     4  10  22  41  65 100 136 172 232 283 342 420
#
# _framework density 21.976223000000001
#
# number of rings (size 3 to 8) (size 9 to 14) (size 15 to 20)
#    0.000    1.091    3.636    2.182    2.545    3.636 
#    3.273    0.000    0.000    0.000    4.727    0.000 
#    0.000    0.000    0.000    0.000    0.000    0.000 
#
# Total GULP energy -245636.039359 kJ/mol
# GULP energy per Si atom -5582.637258 kJ/mol
# Density = 2.192620 g / cm^3
# Si number density = 21.976223 Si / 1000 Ang^3
#
#
#
# Elastic Constant Matrix: (Units=GPa)
#
#
# Indices 1 2 3 4 5 6 
#
# 1 76.4665 41.8449 23.7138 0.0000 0.0000 0.0000
# 2 41.8449 93.0482 24.8863 0.0000 0.0000 0.0000
# 3 23.7138 24.8863 104.4000 0.0000 0.0000 0.0000
# 4 0.0000 0.0000 0.0000 22.6077 0.0000 0.0000
# 5 0.0000 0.0000 0.0000 0.0000 22.2399 0.0000
# 6 0.0000 0.0000 0.0000 0.0000 0.0000 61.0866
#
#
#
# Elastic Compliance Matrix: (Units=1/GPa)
#
#
# Indices 1 2 3 4 5 6 
#
# 1 0.017843 -0.007413 -0.002286 0.000000 0.000000 0.000000
# 2 -0.007413 0.014559 -0.001787 0.000000 0.000000 0.000000
# 3 -0.002286 -0.001787 0.010524 0.000000 0.000000 0.000000
# 4 0.000000 0.000000 0.000000 0.044233 0.000000 0.000000
# 5 0.000000 0.000000 0.000000 0.000000 0.044964 0.000000
# 6 0.000000 0.000000 0.000000 0.000000 0.000000 0.016370
#
#
# Mechanical properties :
#
#
# Convention : Reuss Voigt Hill
#
# Bulk Modulus (GPa) = 50.11384 50.53387 50.32386
# Shear Modulus (GPa) = 28.07179 33.41816 30.74498
#
# Velocity S-wave (km/s) = 3.57791 3.90378 3.74439
# Velocity P-wave (km/s) = 6.31837 6.58514 6.45313
#
# Compressibility (1/GPa) = 0.01995457
#
# Stress axis : x y z
#
# Youngs Moduli (GPa) = 56.04407 68.68776 95.02401
#
# Poissons Ratio (x) = 0.50917 0.21722
# Poissons Ratio (y) = 0.41545 0.16977
# Poissons Ratio (z) = 0.12811 0.12272
#
# Static dielectric constant tensor:
#      x y z
#    x 1.838070 0.000000 0.000000 
#    y 0.000000 1.858460 0.000000 
#    z 0.000000 0.000000 1.757350 
# 
# From -- ./inp_files/30918.got.cif
#   From: 2010.05.17/outbox.cif.g08.bks.cpg/sg68_16_cif.got.tgz:30918.got - 2010.06.03 18:57:09.
