data_PCOD9507879
_publ_section_title
;
Structure prediction by ZEFSAII (Michael W. Deem and Ramdas Pophale) SiO2 
 PCOD9507879
Probable space group: C C C A
;
_chemical_formula_sum "Si O2"
_cell_formula_units_Z 120
_cell_length_a 13.530465
_cell_length_b 30.584420
_cell_length_c 14.206626
_cell_angle_alpha 90.000000
_cell_angle_beta 90.000000
_cell_angle_gamma 90.000000
_cell_volume 5879.006207
_symmetry_space_group_name_H-M "C C C A"
_symmetry_group_IT_number 68
_space_group.IT_coordinate_system_code '2'
_symmetry_cell_setting 'orthorhombic'
loop_
_space_group_symop_operation_xyz
x,y,z
-x,1/2-y,z
x,1/2-y,1/2-z
-x,y,1/2-z
-x,-y,-z
x,1/2+y,-z
-x,1/2+y,1/2+z
x,-y,1/2+z
1/2+x,1/2+y,z
1/2-x,-y,z
1/2+x,-y,1/2-z
1/2-x,1/2+y,1/2-z
1/2-x,1/2-y,-z
1/2+x,y,-z
1/2-x,y,1/2+z
1/2+x,1/2-y,1/2+z
loop_
_atom_site_type_symbol
_atom_site_label
_atom_site_fract_x
_atom_site_fract_y
_atom_site_fract_z
Si Si1 0.250714 0.250000 0.750000
Si Si2 0.868612 0.500098 0.424213
Si Si3 0.357373 0.425166 0.929630
Si Si4 0.879312 0.575074 0.071270
Si Si5 0.017564 0.850227 0.496875
Si Si6 0.111651 0.733887 0.075139
Si Si7 0.405476 0.279240 0.616766
Si Si8 0.370319 0.499645 0.785507
O O1 0.177972 0.252729 0.840273
O O2 0.329661 0.284338 0.703308
O O3 0.750000 0.500000 0.419215
O O4 0.886538 0.544505 0.480986
O O5 0.897999 0.457452 0.482931
O O6 0.909055 0.499075 0.319798
O O7 0.239257 0.416777 0.929051
O O8 0.414483 0.380557 0.939067
O O9 0.388800 0.455352 0.842639
O O10 0.898646 0.543725 0.159956
O O11 0.945723 0.618228 0.063717
O O12 0.090951 0.818166 0.437805
O O13 0.948189 0.821959 0.566183
O O14 0.000000 0.750000 0.091988
O O15 0.141366 0.752492 0.972056
O O16 0.500000 0.250000 0.644720
O O17 0.250000 0.500000 0.783126
#
# Coordination Sequence:
#
# PCOD9507879 Si02
#       8
#     8  16  16  16  16  16  16  16
#     4  12  20  40  76  88 116 162 204 236 312 380
#     4   8  15  31  53  76 115 162 213 245 292 370
#     4   9  18  33  56  81 116 163 205 250 311 361
#     4   9  18  33  56  81 116 163 205 250 311 361
#     4  10  21  39  60  88 130 148 204 271 309 362
#     4   9  22  43  64  92 123 159 201 247 307 392
#     4   9  22  43  64  92 123 159 201 247 307 392
#     4   8  15  31  53  80 113 166 211 245 293 374
#
# _framework density 20.411614
#
# number of rings (size 3 to 8) (size 9 to 14) (size 15 to 20)
#    0.000    3.200    0.000    2.400    1.867    2.133 
#    2.400   13.333   11.733    0.000    0.000    0.000 
#    0.000    0.000    0.000    0.000    0.000    0.000 
#
# Total GULP energy -334215.126390 kJ/mol
# GULP energy per Si atom -5570.252107 kJ/mol
# Density = 2.036516 g / cm^3
# Si number density = 20.411614 Si / 1000 Ang^3
#
#
#
# Elastic Constant Matrix: (Units=GPa)
#
#
# Indices 1 2 3 4 5 6 
#
# 1 107.4866 29.8854 30.7704 0.0000 0.0000 0.0000
# 2 29.8854 97.1404 28.9698 0.0000 0.0000 0.0000
# 3 30.7704 28.9698 123.5344 0.0000 0.0000 0.0000
# 4 0.0000 0.0000 0.0000 -21.0572 0.0000 0.0000
# 5 0.0000 0.0000 0.0000 0.0000 32.9959 0.0000
# 6 0.0000 0.0000 0.0000 0.0000 0.0000 5.2466
#
#
#
# Elastic Compliance Matrix: (Units=1/GPa)
#
#
# Indices 1 2 3 4 5 6 
#
# 1 0.010623 -0.002666 -0.002021 0.000000 0.000000 0.000000
# 2 -0.002666 0.011737 -0.002089 0.000000 0.000000 0.000000
# 3 -0.002021 -0.002089 0.009088 0.000000 0.000000 0.000000
# 4 0.000000 0.000000 0.000000 -0.047490 0.000000 0.000000
# 5 0.000000 0.000000 0.000000 0.000000 0.030307 0.000000
# 6 0.000000 0.000000 0.000000 0.000000 0.000000 0.190601
#
#
# Mechanical properties :
#
#
# Convention : Reuss Voigt Hill
#
# Bulk Modulus (GPa) = 55.87077 56.37916 56.12497
# Shear Modulus (GPa) = 22.28336 19.33944 20.81140
#
# Velocity S-wave (km/s) = 3.30767 3.08144 3.19656
# Velocity P-wave (km/s) = 6.48221 6.35149 6.41719
#
# Compressibility (1/GPa) = 0.01789845
#
# Stress axis : x y z
#
# Youngs Moduli (GPa) = 94.13404 85.19855 110.03420
#
# Poissons Ratio (x) = 0.22710 0.22238
# Poissons Ratio (y) = 0.25092 0.22981
# Poissons Ratio (z) = 0.19024 0.17794
#
# Static dielectric constant tensor:
#      x y z
#    x 1.813490 0.000000 0.000000 
#    y 0.000000 1.705340 0.000000 
#    z 0.000000 0.000000 1.768470 
# 
# From -- ./inp_files/22851.got.cif
#   From: 2010.05.17/outbox.cif.g08.bks.cpg/sg68_12_cif.got.tgz:22851.got - 2010.06.03 18:57:09.
