data_PCOD9507362
_publ_section_title
;
Structure prediction by ZEFSAII (Michael W. Deem and Ramdas Pophale) SiO2 
 PCOD9507362
Probable space group: C C C A
;
_chemical_formula_sum "Si O2"
_cell_formula_units_Z 60
_cell_length_a 16.920924
_cell_length_b 5.688221
_cell_length_c 22.357858
_cell_angle_alpha 90.000000
_cell_angle_beta 90.000000
_cell_angle_gamma 90.000000
_cell_volume 2151.942832
_symmetry_space_group_name_H-M "C C C A"
_symmetry_group_IT_number 68
_space_group.IT_coordinate_system_code '2'
_symmetry_cell_setting 'orthorhombic'
loop_
_space_group_symop_operation_xyz
x,y,z
-x,1/2-y,z
x,1/2-y,1/2-z
-x,y,1/2-z
-x,-y,-z
x,1/2+y,-z
-x,1/2+y,1/2+z
x,-y,1/2+z
1/2+x,1/2+y,z
1/2-x,-y,z
1/2+x,-y,1/2-z
1/2-x,1/2+y,1/2-z
1/2-x,1/2-y,-z
1/2+x,y,-z
1/2-x,y,1/2+z
1/2+x,1/2-y,1/2+z
loop_
_atom_site_type_symbol
_atom_site_label
_atom_site_fract_x
_atom_site_fract_y
_atom_site_fract_z
Si Si1 0.791869 0.250000 0.750000
Si Si2 0.258624 0.752074 0.376919
Si Si3 0.575129 0.077140 0.846347
Si Si4 0.090066 0.965075 0.021747
Si Si5 0.000000 0.750000 0.250000
O O1 0.750000 0.500000 0.748451
O O2 0.806404 0.243725 0.676730
O O3 0.250000 0.500000 0.409322
O O4 0.345422 0.732396 0.346138
O O5 0.250000 0.000000 0.409256
O O6 0.500000 0.250000 0.852306
O O7 0.555582 0.920657 0.788351
O O8 0.581274 0.930649 0.907395
O O9 0.124544 0.226996 0.007639
O O10 0.000000 0.000000 0.000000
#
# Coordination Sequence:
#
# PCOD9507362 Si02
#       5
#     8  16  16  16   4
#     4   8  16  33  55  76 112 172 228 254 308 419
#     4  10  24  43  66  94 136 193 243 285 355 441
#     4  12  27  44  73 107 151 190 242 317 373 436
#     4  10  20  41  70 102 131 187 250 300 350 442
#     4  12  30  42  68 118 158 188 236 318 390 446
#
# _framework density 27.881779999999999
#
# number of rings (size 3 to 8) (size 9 to 14) (size 15 to 20)
#    0.000    1.600    2.667    2.000    7.467    4.267 
#    0.000    0.000    0.000    4.800    0.000    0.000 
#    0.000    0.000    0.000    0.000    0.000    0.267 
#
# Total GULP energy -167389.535885 kJ/mol
# GULP energy per Si atom -5579.651196 kJ/mol
# Density = 2.781832 g / cm^3
# Si number density = 27.881780 Si / 1000 Ang^3
#
#
#
# Elastic Constant Matrix: (Units=GPa)
#
#
# Indices 1 2 3 4 5 6 
#
# 1 164.5197 38.8340 23.7273 0.0000 0.0000 0.0000
# 2 38.8340 296.3709 50.5745 0.0000 0.0000 0.0000
# 3 23.7273 50.5745 154.0152 0.0000 0.0000 0.0000
# 4 0.0000 0.0000 0.0000 157.1579 0.0000 0.0000
# 5 0.0000 0.0000 0.0000 0.0000 28.3177 0.0000
# 6 0.0000 0.0000 0.0000 0.0000 0.0000 37.3730
#
#
#
# Elastic Compliance Matrix: (Units=1/GPa)
#
#
# Indices 1 2 3 4 5 6 
#
# 1 0.006352 -0.000705 -0.000747 0.000000 0.000000 0.000000
# 2 -0.000705 0.003653 -0.001091 0.000000 0.000000 0.000000
# 3 -0.000747 -0.001091 0.006966 0.000000 0.000000 0.000000
# 4 0.000000 0.000000 0.000000 0.006363 0.000000 0.000000
# 5 0.000000 0.000000 0.000000 0.000000 0.035314 0.000000
# 6 0.000000 0.000000 0.000000 0.000000 0.000000 0.026757
#
#
# Mechanical properties :
#
#
# Convention : Reuss Voigt Hill
#
# Bulk Modulus (GPa) = 84.13627 93.46417 88.80022
# Shear Modulus (GPa) = 52.93651 78.02106 65.47879
#
# Velocity S-wave (km/s) = 4.36203 5.29562 4.85133
# Velocity P-wave (km/s) = 7.45730 8.42531 7.95604
#
# Compressibility (1/GPa) = 0.01188548
#
# Stress axis : x y z
#
# Youngs Moduli (GPa) = 157.41977 273.77313 143.55068
#
# Poissons Ratio (x) = 0.19297 0.10726
# Poissons Ratio (y) = 0.11096 0.15659
# Poissons Ratio (z) = 0.11762 0.29864
#
# Static dielectric constant tensor:
#      x y z
#    x 2.303820 0.000000 0.000000 
#    y 0.000000 2.204090 0.000000 
#    z 0.000000 0.000000 2.257180 
# 
# From -- ./inp_files/46339.got.cif
#   From: 2010.05.17/outbox.cif.g08.bks.cpg/sg68_24_cif.got.tgz:46339.got - 2010.06.03 18:57:09.
