data_PCOD9507882
_publ_section_title
;
Structure prediction by ZEFSAII (Michael W. Deem and Ramdas Pophale) SiO2 
 PCOD9507882
Probable space group: C C C A
;
_chemical_formula_sum "Si O2"
_cell_formula_units_Z 116
_cell_length_a 24.749306
_cell_length_b 9.086757
_cell_length_c 25.566791
_cell_angle_alpha 90.000000
_cell_angle_beta 90.000000
_cell_angle_gamma 90.000000
_cell_volume 5749.739393
_symmetry_space_group_name_H-M "C C C A"
_symmetry_group_IT_number 68
_space_group.IT_coordinate_system_code '2'
_symmetry_cell_setting 'orthorhombic'
loop_
_space_group_symop_operation_xyz
x,y,z
-x,1/2-y,z
x,1/2-y,1/2-z
-x,y,1/2-z
-x,-y,-z
x,1/2+y,-z
-x,1/2+y,1/2+z
x,-y,1/2+z
1/2+x,1/2+y,z
1/2-x,-y,z
1/2+x,-y,1/2-z
1/2-x,1/2+y,1/2-z
1/2-x,1/2-y,-z
1/2+x,y,-z
1/2-x,y,1/2+z
1/2+x,1/2-y,1/2+z
loop_
_atom_site_type_symbol
_atom_site_label
_atom_site_fract_x
_atom_site_fract_y
_atom_site_fract_z
Si Si1 0.367002 0.758340 0.067895
Si Si2 0.500000 0.750000 0.250000
Si Si3 0.397099 0.059746 0.120958
Si Si4 0.687246 0.010133 0.128431
Si Si5 0.985901 0.995285 0.662536
Si Si6 0.612867 0.806315 0.692312
Si Si7 0.455508 0.549567 0.042298
Si Si8 0.865007 0.699690 0.457326
O O1 0.374573 0.906109 0.100720
O O2 0.339888 0.636445 0.104445
O O3 0.425372 0.706821 0.043850
O O4 0.336538 0.772733 0.012679
O O5 0.523892 0.631152 0.293165
O O6 0.451006 0.033652 0.155751
O O7 0.365286 0.166509 0.159758
O O8 0.397682 0.163505 0.068888
O O9 0.653081 0.061047 0.178683
O O10 0.677143 0.134255 0.084161
O O11 0.750000 0.000000 0.139542
O O12 0.974640 0.954894 0.602295
O O13 0.945689 0.130800 0.674447
O O14 0.608796 0.750000 0.750000
O O15 0.407650 0.432060 0.036198
O O16 0.500000 0.500000 0.000000
#
# Coordination Sequence:
#
# PCOD9507882 Si02
#       8
#    16   4  16  16  16  16  16  16
#     4  11  21  39  62  99 130 172 217 268 320 398
#     4  12  28  36  62 100 132 180 234 266 320 396
#     4  11  22  37  64  92 136 169 213 261 320 406
#     4  10  23  46  67  88 127 169 217 283 345 394
#     4  12  22  40  60  94 137 176 218 265 329 399
#     4  11  24  45  66  90 124 172 220 278 344 399
#     4  11  22  37  60  91 137 184 221 264 325 391
#     4  10  21  39  60  96 132 173 216 257 330 399
#
# _framework density 20.174828999999999
#
# number of rings (size 3 to 8) (size 9 to 14) (size 15 to 20)
#    0.000    1.103    4.138    5.379    0.000    3.862 
#    0.000    4.828    0.000    0.000    0.000    0.000 
#    0.000    0.000    0.000    0.000    0.000    0.000 
#
# Total GULP energy -322933.619745 kJ/mol
# GULP energy per Si atom -5567.821030 kJ/mol
# Density = 2.012891 g / cm^3
# Si number density = 20.174829 Si / 1000 Ang^3
#
#
#
# Elastic Constant Matrix: (Units=GPa)
#
#
# Indices 1 2 3 4 5 6 
#
# 1 57.3249 19.1526 16.2864 0.0000 0.0000 0.0000
# 2 19.1526 124.9676 46.3937 0.0000 0.0000 0.0000
# 3 16.2864 46.3937 122.3134 0.0000 0.0000 0.0000
# 4 0.0000 0.0000 0.0000 48.4275 0.0000 0.0000
# 5 0.0000 0.0000 0.0000 0.0000 -6.1043 0.0000
# 6 0.0000 0.0000 0.0000 0.0000 0.0000 6.0861
#
#
#
# Elastic Compliance Matrix: (Units=1/GPa)
#
#
# Indices 1 2 3 4 5 6 
#
# 1 0.018661 -0.002255 -0.001629 0.000000 0.000000 0.000000
# 2 -0.002255 0.009586 -0.003336 0.000000 0.000000 0.000000
# 3 -0.001629 -0.003336 0.009658 0.000000 0.000000 0.000000
# 4 0.000000 0.000000 0.000000 0.020649 0.000000 0.000000
# 5 0.000000 0.000000 0.000000 0.000000 -0.163818 0.000000
# 6 0.000000 0.000000 0.000000 0.000000 0.000000 0.164310
#
#
# Mechanical properties :
#
#
# Convention : Reuss Voigt Hill
#
# Bulk Modulus (GPa) = 42.61778 52.03014 47.32396
# Shear Modulus (GPa) = 61.49510 24.53341 43.01426
#
# Velocity S-wave (km/s) = 5.52696 3.49096 4.62245
# Velocity P-wave (km/s) = 7.86764 6.48804 7.21091
#
# Compressibility (1/GPa) = 0.02346438
#
# Stress axis : x y z
#
# Youngs Moduli (GPa) = 53.58840 104.31812 103.54185
#
# Poissons Ratio (x) = 0.23524 0.16871
# Poissons Ratio (y) = 0.12084 0.34539
# Poissons Ratio (z) = 0.08732 0.34798
#
# Static dielectric constant tensor:
#      x y z
#    x 1.786180 0.000000 0.000000 
#    y 0.000000 1.794600 0.000000 
#    z 0.000000 0.000000 1.853640 
# 
# From -- ./inp_files/52218.got.cif
#   From: 2010.05.17/outbox.cif.g08.bks.cpg/sg68_27_cif.got.tgz:52218.got - 2010.06.03 18:57:09.
