data_PCOD9507600
_publ_section_title
;
Structure prediction by ZEFSAII (Michael W. Deem and Ramdas Pophale) SiO2 
 PCOD9507600
Probable space group: C C C A
;
_chemical_formula_sum "Si O2"
_cell_formula_units_Z 92
_cell_length_a 17.323440
_cell_length_b 13.990918
_cell_length_c 20.245469
_cell_angle_alpha 90.000000
_cell_angle_beta 90.000000
_cell_angle_gamma 90.000000
_cell_volume 4906.911095
_symmetry_space_group_name_H-M "C C C A"
_symmetry_group_IT_number 68
_space_group.IT_coordinate_system_code '2'
_symmetry_cell_setting 'orthorhombic'
loop_
_space_group_symop_operation_xyz
x,y,z
-x,1/2-y,z
x,1/2-y,1/2-z
-x,y,1/2-z
-x,-y,-z
x,1/2+y,-z
-x,1/2+y,1/2+z
x,-y,1/2+z
1/2+x,1/2+y,z
1/2-x,-y,z
1/2+x,-y,1/2-z
1/2-x,1/2+y,1/2-z
1/2-x,1/2-y,-z
1/2+x,y,-z
1/2-x,y,1/2+z
1/2+x,1/2-y,1/2+z
loop_
_atom_site_type_symbol
_atom_site_label
_atom_site_fract_x
_atom_site_fract_y
_atom_site_fract_z
Si Si1 0.875706 0.769231 0.483179
Si Si2 0.776793 0.395555 0.161648
Si Si3 0.396956 0.366744 0.349183
Si Si4 0.000000 0.250000 0.404511
Si Si5 0.775577 0.895155 0.995601
Si Si6 0.000000 0.750000 0.250000
Si Si7 0.558082 0.917311 0.311990
O O1 0.913486 0.822169 0.421042
O O2 0.844576 0.661761 0.469028
O O3 0.800423 0.830890 0.500609
O O4 0.928961 0.766626 0.546601
O O5 0.750000 0.500000 0.184880
O O6 0.694127 0.342975 0.164007
O O7 0.795787 0.400371 0.082891
O O8 0.855829 0.371042 0.199501
O O9 0.447154 0.315050 0.295275
O O10 0.418965 0.479358 0.343649
O O11 0.983783 0.156805 0.360557
O O12 0.750000 0.000000 0.018039
O O13 0.500000 0.930186 0.250000
#
# Coordination Sequence:
#
# PCOD9507600 Si02
#       7
#    16  16  16   8  16   4  16
#     4  10  21  36  62  95 121 162 206 255 320 382
#     4   8  16  35  64  87 113 167 203 250 315 375
#     4  10  22  41  66  88 123 167 214 262 317 384
#     4  12  24  38  60  98 126 164 208 266 324 388
#     4   9  17  37  61  89 128 158 204 254 313 381
#     4  12  22  44  60  88 118 164 210 264 308 380
#     4  11  22  42  63  89 130 170 215 261 318 381
#
# _framework density 18.749067
#
# number of rings (size 3 to 8) (size 9 to 14) (size 15 to 20)
#    0.000    2.087    2.609    1.826    0.000    0.696 
#    6.261    0.000    0.000    2.087    0.000    0.000 
#    0.000    0.000    0.000    0.000    0.000    0.000 
#
# Total GULP energy -256088.041513 kJ/mol
# GULP energy per Si atom -5567.131337 kJ/mol
# Density = 1.870639 g / cm^3
# Si number density = 18.749067 Si / 1000 Ang^3
#
#
#
# Elastic Constant Matrix: (Units=GPa)
#
#
# Indices 1 2 3 4 5 6 
#
# 1 80.9094 52.0432 53.3262 0.0000 0.0000 0.0000
# 2 52.0432 123.7227 51.0511 0.0000 0.0000 0.0000
# 3 53.3262 51.0511 89.3623 0.0000 0.0000 0.0000
# 4 0.0000 0.0000 0.0000 46.1785 0.0000 0.0000
# 5 0.0000 0.0000 0.0000 0.0000 22.3376 0.0000
# 6 0.0000 0.0000 0.0000 0.0000 0.0000 30.3460
#
#
#
# Elastic Compliance Matrix: (Units=1/GPa)
#
#
# Indices 1 2 3 4 5 6 
#
# 1 0.022643 -0.005167 -0.010560 0.000000 0.000000 0.000000
# 2 -0.005167 0.011755 -0.003632 0.000000 0.000000 0.000000
# 3 -0.010560 -0.003632 0.019567 0.000000 0.000000 0.000000
# 4 0.000000 0.000000 0.000000 0.021655 0.000000 0.000000
# 5 0.000000 0.000000 0.000000 0.000000 0.044768 0.000000
# 6 0.000000 0.000000 0.000000 0.000000 0.000000 0.032953
#
#
# Mechanical properties :
#
#
# Convention : Reuss Voigt Hill
#
# Bulk Modulus (GPa) = 65.58927 67.42616 66.50772
# Shear Modulus (GPa) = 25.36247 28.94401 27.15324
#
# Velocity S-wave (km/s) = 3.68194 3.93333 3.80971
# Velocity P-wave (km/s) = 7.28932 7.52785 7.40955
#
# Compressibility (1/GPa) = 0.01524640
#
# Stress axis : x y z
#
# Youngs Moduli (GPa) = 44.16294 85.07204 51.10688
#
# Poissons Ratio (x) = 0.43960 0.53970
# Poissons Ratio (y) = 0.22821 0.18560
# Poissons Ratio (z) = 0.46637 0.30895
#
# Static dielectric constant tensor:
#      x y z
#    x 1.704750 0.000000 0.000000 
#    y 0.000000 1.645040 0.000000 
#    z 0.000000 0.000000 1.633730 
# 
# From -- ./inp_files/39595.got.cif
#   From: 2010.05.17/outbox.cif.g08.bks.cpg/sg68_20_cif.got.tgz:39595.got - 2010.06.03 18:57:09.
