data_PCOD9507055
_publ_section_title
;
Structure prediction by ZEFSAII (Michael W. Deem and Ramdas Pophale) SiO2 
 PCOD9507055
Probable space group: C C C A
;
_chemical_formula_sum "Si O2"
_cell_formula_units_Z 60
_cell_length_a 21.273374
_cell_length_b 21.462350
_cell_length_c 5.613618
_cell_angle_alpha 90.000000
_cell_angle_beta 90.000000
_cell_angle_gamma 90.000000
_cell_volume 2563.046612
_symmetry_space_group_name_H-M "C C C A"
_symmetry_group_IT_number 68
_space_group.IT_coordinate_system_code '2'
_symmetry_cell_setting 'orthorhombic'
loop_
_space_group_symop_operation_xyz
x,y,z
-x,1/2-y,z
x,1/2-y,1/2-z
-x,y,1/2-z
-x,-y,-z
x,1/2+y,-z
-x,1/2+y,1/2+z
x,-y,1/2+z
1/2+x,1/2+y,z
1/2-x,-y,z
1/2+x,-y,1/2-z
1/2-x,1/2+y,1/2-z
1/2-x,1/2-y,-z
1/2+x,y,-z
1/2-x,y,1/2+z
1/2+x,1/2-y,1/2+z
loop_
_atom_site_type_symbol
_atom_site_label
_atom_site_fract_x
_atom_site_fract_y
_atom_site_fract_z
Si Si1 0.411546 0.854030 0.548952
Si Si2 0.500000 0.750000 0.750000
Si Si3 0.376274 0.021252 0.205337
Si Si4 0.000000 0.944331 0.750000
Si Si5 0.226332 0.178216 0.463738
O O1 0.452718 0.795514 0.616896
O O2 0.388088 0.905048 0.744424
O O3 0.459136 0.896938 0.404800
O O4 0.348216 0.828522 0.430505
O O5 0.346040 0.990497 0.441926
O O6 0.444248 0.988288 0.153407
O O7 0.250000 0.250000 0.500000
O O8 0.256391 0.150596 0.223499
#
# Coordination Sequence:
#
# PCOD9507055 Si02
#       5
#    16   4  16   8  16
#     4  11  23  38  65  96 134 171 214 272 331 397
#     4  12  22  34  56 104 138 162 208 270 344 406
#     4  10  20  38  62  91 125 163 205 257 329 391
#     4  10  21  39  64  97 127 166 208 270 342 390
#     4  10  23  43  63  85 123 178 223 255 303 374
#
# _framework density 23.40964
#
# number of rings (size 3 to 8) (size 9 to 14) (size 15 to 20)
#    0.000    1.600    0.000    7.200    0.000   11.200 
#    0.000    0.000    0.000   19.200    0.000    0.000 
#    0.000    0.000    0.000    0.000    0.000    0.000 
#
# Total GULP energy -167118.989804 kJ/mol
# GULP energy per Si atom -5570.632993 kJ/mol
# Density = 2.335636 g / cm^3
# Si number density = 23.409640 Si / 1000 Ang^3
#
#
#
# Elastic Constant Matrix: (Units=GPa)
#
#
# Indices 1 2 3 4 5 6 
#
# 1 83.7324 51.9988 39.0080 0.0000 0.0000 0.0000
# 2 51.9988 140.9993 15.1233 0.0000 0.0000 0.0000
# 3 39.0080 15.1233 148.7023 0.0000 0.0000 0.0000
# 4 0.0000 0.0000 0.0000 20.3942 0.0000 0.0000
# 5 0.0000 0.0000 0.0000 0.0000 -44.7972 0.0000
# 6 0.0000 0.0000 0.0000 0.0000 0.0000 292.8993
#
#
#
# Elastic Compliance Matrix: (Units=1/GPa)
#
#
# Indices 1 2 3 4 5 6 
#
# 1 0.017557 -0.006047 -0.003991 0.000000 0.000000 0.000000
# 2 -0.006047 0.009253 0.000645 0.000000 0.000000 0.000000
# 3 -0.003991 0.000645 0.007706 0.000000 0.000000 0.000000
# 4 0.000000 0.000000 0.000000 0.049033 0.000000 0.000000
# 5 0.000000 0.000000 0.000000 0.000000 -0.022323 0.000000
# 6 0.000000 0.000000 0.000000 0.000000 0.000000 0.003414
#
#
# Mechanical properties :
#
#
# Convention : Reuss Voigt Hill
#
# Bulk Modulus (GPa) = 63.56637 65.07711 64.32174
# Shear Modulus (GPa) = 56.38932 71.51953 63.95442
#
# Velocity S-wave (km/s) = 4.91328 5.53332 5.23249
# Velocity P-wave (km/s) = 7.70714 8.28753 8.00260
#
# Compressibility (1/GPa) = 0.01573159
#
# Stress axis : x y z
#
# Youngs Moduli (GPa) = 56.95721 108.07288 129.76783
#
# Poissons Ratio (x) = 0.65349 0.51786
# Poissons Ratio (y) = 0.34441 -0.08372
# Poissons Ratio (z) = 0.22730 -0.06972
#
# Static dielectric constant tensor:
#      x y z
#    x 1.765720 0.000000 0.000000 
#    y 0.000000 1.624380 0.000000 
#    z 0.000000 0.000000 2.090880 
# 
# From -- ./inp_files/1813.got.cif
#   From: 2010.05.17/outbox.cif.g08.bks.cpg/sg68_1_cif.got.tgz:1813.got - 2010.06.03 18:57:09.
