data_PCOD9507146
_publ_section_title
;
Structure prediction by ZEFSAII (Michael W. Deem and Ramdas Pophale) SiO2 
 PCOD9507146
Probable space group: C C C A
;
_chemical_formula_sum "Si O2"
_cell_formula_units_Z 112
_cell_length_a 30.724295
_cell_length_b 21.754349
_cell_length_c 8.722477
_cell_angle_alpha 90.000000
_cell_angle_beta 90.000000
_cell_angle_gamma 90.000000
_cell_volume 5829.990550
_symmetry_space_group_name_H-M "C C C A"
_symmetry_group_IT_number 68
_space_group.IT_coordinate_system_code '2'
_symmetry_cell_setting 'orthorhombic'
loop_
_space_group_symop_operation_xyz
x,y,z
-x,1/2-y,z
x,1/2-y,1/2-z
-x,y,1/2-z
-x,-y,-z
x,1/2+y,-z
-x,1/2+y,1/2+z
x,-y,1/2+z
1/2+x,1/2+y,z
1/2-x,-y,z
1/2+x,-y,1/2-z
1/2-x,1/2+y,1/2-z
1/2-x,1/2-y,-z
1/2+x,y,-z
1/2-x,y,1/2+z
1/2+x,1/2-y,1/2+z
loop_
_atom_site_type_symbol
_atom_site_label
_atom_site_fract_x
_atom_site_fract_y
_atom_site_fract_z
Si Si1 0.510783 0.321042 0.928378
Si Si2 0.697198 0.195550 0.529613
Si Si3 0.948069 0.084214 0.585518
Si Si4 0.607403 0.139229 0.572094
Si Si5 0.580829 0.978476 0.891489
Si Si6 0.867316 0.095196 0.397603
Si Si7 0.785206 0.331566 0.112871
O O1 0.500000 0.250000 0.950590
O O2 0.500000 0.337845 0.750000
O O3 0.483614 0.365618 0.040387
O O4 0.561981 0.327714 0.953766
O O5 0.649139 0.170960 0.497240
O O6 0.734441 0.164553 0.427037
O O7 0.709080 0.179285 0.705834
O O8 0.699385 0.269599 0.524342
O O9 0.899950 0.108988 0.537516
O O10 0.952319 0.025390 0.472931
O O11 0.942641 0.057007 0.754284
O O12 0.599623 0.071110 0.508273
O O13 0.617017 0.135662 0.753391
O O14 0.620686 0.024939 0.851056
O O15 0.817623 0.112858 0.429171
#
# Coordination Sequence:
#
# PCOD9507146 Si02
#       7
#    16  16  16  16  16  16  16
#     4  11  24  39  63  91 124 167 215 252 312 374
#     4   9  20  34  60  86 120 155 199 249 310 362
#     4  10  21  39  60  90 120 161 204 254 299 369
#     4  11  21  38  57  90 121 156 199 261 304 368
#     4  10  20  39  60  86 121 153 204 248 305 364
#     4   9  18  36  59  84 117 152 203 249 297 355
#     4   9  18  35  58  86 115 157 199 248 300 380
#
# _framework density 19.211009000000001
#
# number of rings (size 3 to 8) (size 9 to 14) (size 15 to 20)
#    0.857    1.286    2.857    0.000    2.000    3.429 
#    2.571    2.143    0.000    3.429    0.000    0.000 
#    0.000    0.000    0.000    0.000    0.000    0.000 
#
# Total GULP energy -312061.097287 kJ/mol
# GULP energy per Si atom -5572.519594 kJ/mol
# Density = 1.916728 g / cm^3
# Si number density = 19.211009 Si / 1000 Ang^3
#
#
#
# Elastic Constant Matrix: (Units=GPa)
#
#
# Indices 1 2 3 4 5 6 
#
# 1 149.1421 60.3397 23.2411 0.0000 0.0000 0.0000
# 2 60.3397 71.2799 15.8040 0.0000 0.0000 0.0000
# 3 23.2411 15.8040 45.8730 0.0000 0.0000 0.0000
# 4 0.0000 0.0000 0.0000 -6.4167 0.0000 0.0000
# 5 0.0000 0.0000 0.0000 0.0000 22.0919 0.0000
# 6 0.0000 0.0000 0.0000 0.0000 0.0000 31.7830
#
#
#
# Elastic Compliance Matrix: (Units=1/GPa)
#
#
# Indices 1 2 3 4 5 6 
#
# 1 0.010442 -0.008300 -0.002431 0.000000 0.000000 0.000000
# 2 -0.008300 0.021787 -0.003301 0.000000 0.000000 0.000000
# 3 -0.002431 -0.003301 0.024168 0.000000 0.000000 0.000000
# 4 0.000000 0.000000 0.000000 -0.155844 0.000000 0.000000
# 5 0.000000 0.000000 0.000000 0.000000 0.045265 0.000000
# 6 0.000000 0.000000 0.000000 0.000000 0.000000 0.031463
#
#
# Mechanical properties :
#
#
# Convention : Reuss Voigt Hill
#
# Bulk Modulus (GPa) = 35.29378 51.67383 43.48380
# Shear Modulus (GPa) = 338.05143 20.61900 179.33522
#
# Velocity S-wave (km/s) = 13.27967 3.27967 9.67227
# Velocity P-wave (km/s) = 15.92307 6.42635 12.14171
#
# Compressibility (1/GPa) = 0.02833361
#
# Stress axis : x y z
#
# Youngs Moduli (GPa) = 95.76771 45.89802 41.37707
#
# Poissons Ratio (x) = 0.38097 0.10057
# Poissons Ratio (y) = 0.79491 0.13658
# Poissons Ratio (z) = 0.23278 0.15150
#
# Static dielectric constant tensor:
#      x y z
#    x 1.680950 0.000000 0.000000 
#    y 0.000000 1.684670 0.000000 
#    z 0.000000 0.000000 1.689560 
# 
# From -- ./inp_files/17335.got.cif
#   From: 2010.05.17/outbox.cif.g08.bks.cpg/sg68_9_cif.got.tgz:17335.got - 2010.06.03 18:57:09.
