data_PCOD9507203
_publ_section_title
;
Structure prediction by ZEFSAII (Michael W. Deem and Ramdas Pophale) SiO2 
 PCOD9507203
Probable space group: C C C A
;
_chemical_formula_sum "Si O2"
_cell_formula_units_Z 56
_cell_length_a 20.324694
_cell_length_b 8.502804
_cell_length_c 12.234128
_cell_angle_alpha 90.000000
_cell_angle_beta 90.000000
_cell_angle_gamma 90.000000
_cell_volume 2114.263946
_symmetry_space_group_name_H-M "C C C A"
_symmetry_group_IT_number 68
_space_group.IT_coordinate_system_code '2'
_symmetry_cell_setting 'orthorhombic'
loop_
_space_group_symop_operation_xyz
x,y,z
-x,1/2-y,z
x,1/2-y,1/2-z
-x,y,1/2-z
-x,-y,-z
x,1/2+y,-z
-x,1/2+y,1/2+z
x,-y,1/2+z
1/2+x,1/2+y,z
1/2-x,-y,z
1/2+x,-y,1/2-z
1/2-x,1/2+y,1/2-z
1/2-x,1/2-y,-z
1/2+x,y,-z
1/2-x,y,1/2+z
1/2+x,1/2-y,1/2+z
loop_
_atom_site_type_symbol
_atom_site_label
_atom_site_fract_x
_atom_site_fract_y
_atom_site_fract_z
Si Si1 0.412535 0.229169 0.555961
Si Si2 0.184827 0.460101 0.929639
Si Si3 0.671487 0.750000 0.750000
Si Si4 0.946155 0.544837 0.344584
O O1 0.363608 0.344461 0.491617
O O2 0.445076 0.357627 0.635306
O O3 0.363694 0.099534 0.607126
O O4 0.453568 0.131814 0.463104
O O5 0.250000 0.500000 0.997689
O O6 0.212986 0.351463 0.833317
O O7 0.622094 0.622398 0.804412
O O8 0.000000 0.577038 0.250000
#
# Coordination Sequence:
#
# PCOD9507203 Si02
#       4
#    16  16   8  16
#     4   9  21  41  68 101 131 175 233 271 334 418
#     4  10  20  39  65  97 135 174 217 279 335 394
#     4  10  23  38  58  94 134 174 231 272 324 414
#     4  10  21  44  67  93 137 181 224 286 338 393
#
# _framework density 26.486757999999998
#
# number of rings (size 3 to 8) (size 9 to 14) (size 15 to 20)
#    0.000    2.286    0.000    1.286    0.000    3.429 
#    0.000   44.286    0.000    0.000    0.000    0.000 
#    0.000    0.000    0.000    0.000    0.000    0.000 
#
# Total GULP energy -156426.906257 kJ/mol
# GULP energy per Si atom -5586.675223 kJ/mol
# Density = 2.642647 g / cm^3
# Si number density = 26.486758 Si / 1000 Ang^3
#
#
#
# Elastic Constant Matrix: (Units=GPa)
#
#
# Indices 1 2 3 4 5 6 
#
# 1 91.8622 48.2577 34.2602 0.0000 0.0000 0.0000
# 2 48.2577 206.6446 63.5193 0.0000 0.0000 0.0000
# 3 34.2602 63.5193 63.8556 0.0000 0.0000 0.0000
# 4 0.0000 0.0000 0.0000 -4.4277 0.0000 0.0000
# 5 0.0000 0.0000 0.0000 0.0000 6.6626 0.0000
# 6 0.0000 0.0000 0.0000 0.0000 0.0000 26.7567
#
#
#
# Elastic Compliance Matrix: (Units=1/GPa)
#
#
# Indices 1 2 3 4 5 6 
#
# 1 0.013874 -0.001371 -0.006080 0.000000 0.000000 0.000000
# 2 -0.001371 0.007106 -0.006333 0.000000 0.000000 0.000000
# 3 -0.006080 -0.006333 0.025222 0.000000 0.000000 0.000000
# 4 0.000000 0.000000 0.000000 -0.225852 0.000000 0.000000
# 5 0.000000 0.000000 0.000000 0.000000 0.150091 0.000000
# 6 0.000000 0.000000 0.000000 0.000000 0.000000 0.037374
#
#
# Mechanical properties :
#
#
# Convention : Reuss Voigt Hill
#
# Bulk Modulus (GPa) = 53.66537 72.71522 63.19030
# Shear Modulus (GPa) = 120.21055 20.22000 70.21528
#
# Velocity S-wave (km/s) = 6.74416 2.76597 5.15433
# Velocity P-wave (km/s) = 8.99723 6.14116 7.70272
#
# Compressibility (1/GPa) = 0.01863399
#
# Stress axis : x y z
#
# Youngs Moduli (GPa) = 72.07953 140.72423 39.64807
#
# Poissons Ratio (x) = 0.19295 0.24105
# Poissons Ratio (y) = 0.09883 0.25109
# Poissons Ratio (z) = 0.43822 0.89121
#
# Static dielectric constant tensor:
#      x y z
#    x 2.136120 0.000000 0.000000 
#    y 0.000000 2.178730 0.000000 
#    z 0.000000 0.000000 2.169640 
# 
# From -- ./inp_files/24146.got.cif
#   From: 2010.05.17/outbox.cif.g08.bks.cpg/sg68_13_cif.got.tgz:24146.got - 2010.06.03 18:57:09.
