data_PCOD9507073
_publ_section_title
;
Structure prediction by ZEFSAII (Michael W. Deem and Ramdas Pophale) SiO2 
 PCOD9507073
Probable space group: C C C A
;
_chemical_formula_sum "Si O2"
_cell_formula_units_Z 104
_cell_length_a 16.418084
_cell_length_b 18.449704
_cell_length_c 15.712415
_cell_angle_alpha 90.000000
_cell_angle_beta 90.000000
_cell_angle_gamma 90.000000
_cell_volume 4759.428616
_symmetry_space_group_name_H-M "C C C A"
_symmetry_group_IT_number 68
_space_group.IT_coordinate_system_code '2'
_symmetry_cell_setting 'orthorhombic'
loop_
_space_group_symop_operation_xyz
x,y,z
-x,1/2-y,z
x,1/2-y,1/2-z
-x,y,1/2-z
-x,-y,-z
x,1/2+y,-z
-x,1/2+y,1/2+z
x,-y,1/2+z
1/2+x,1/2+y,z
1/2-x,-y,z
1/2+x,-y,1/2-z
1/2-x,1/2+y,1/2-z
1/2-x,1/2-y,-z
1/2+x,y,-z
1/2-x,y,1/2+z
1/2+x,1/2-y,1/2+z
loop_
_atom_site_type_symbol
_atom_site_label
_atom_site_fract_x
_atom_site_fract_y
_atom_site_fract_z
Si Si1 0.586908 0.279716 0.614086
Si Si2 0.908771 0.963918 0.069234
Si Si3 0.772819 0.674668 0.831755
Si Si4 0.887371 0.697234 0.423796
Si Si5 0.666768 0.023088 0.725784
Si Si6 0.070552 0.452420 0.385241
Si Si7 0.640571 0.250000 0.250000
O O1 0.500000 0.250000 0.643859
O O2 0.662562 0.239311 0.657023
O O3 0.596249 0.264860 0.512770
O O4 0.584147 0.366382 0.624535
O O5 0.934653 0.879500 0.074769
O O6 0.843931 0.973285 0.143435
O O7 0.882281 0.975454 0.971746
O O8 0.979578 0.020812 0.093031
O O9 0.709629 0.678207 0.911811
O O10 0.823800 0.603482 0.811920
O O11 0.705506 0.684095 0.756313
O O12 0.905220 0.743599 0.338939
O O13 0.597582 0.014897 0.795835
O O14 0.750000 0.000000 0.770215
#
# Coordination Sequence:
#
# PCOD9507073 Si02
#       7
#    16  16  16  16  16  16   8
#     4  11  22  39  62  94 125 165 213 264 335 398
#     4  10  21  43  62  90 130 167 211 268 324 388
#     4  10  20  38  63  90 126 159 212 271 320 388
#     4   9  20  40  63  86 123 167 207 267 319 386
#     4  12  22  40  63  94 125 169 217 268 328 390
#     4  10  24  41  64  92 129 169 215 265 331 399
#     4   8  18  36  58  88 112 158 206 254 314 366
#
# _framework density 21.851362000000002
#
# number of rings (size 3 to 8) (size 9 to 14) (size 15 to 20)
#    0.923    0.923    1.538    2.769    0.000    0.615 
#    0.000   16.923    0.000    0.000    0.000    0.000 
#    0.000    0.000    0.000    0.000    0.000    0.000 
#
# Total GULP energy -289642.215309 kJ/mol
# GULP energy per Si atom -5570.042602 kJ/mol
# Density = 2.180163 g / cm^3
# Si number density = 21.851362 Si / 1000 Ang^3
#
#
#
# Elastic Constant Matrix: (Units=GPa)
#
#
# Indices 1 2 3 4 5 6 
#
# 1 74.4239 18.9781 20.6838 0.0000 0.0000 0.0000
# 2 18.9781 61.8699 15.1361 0.0000 0.0000 0.0000
# 3 20.6838 15.1361 112.5118 0.0000 0.0000 0.0000
# 4 0.0000 0.0000 0.0000 14.7294 0.0000 0.0000
# 5 0.0000 0.0000 0.0000 0.0000 9.1290 0.0000
# 6 0.0000 0.0000 0.0000 0.0000 0.0000 32.0409
#
#
#
# Elastic Compliance Matrix: (Units=1/GPa)
#
#
# Indices 1 2 3 4 5 6 
#
# 1 0.015097 -0.004086 -0.002226 0.000000 0.000000 0.000000
# 2 -0.004086 0.017819 -0.001646 0.000000 0.000000 0.000000
# 3 -0.002226 -0.001646 0.009519 0.000000 0.000000 0.000000
# 4 0.000000 0.000000 0.000000 0.067891 0.000000 0.000000
# 5 0.000000 0.000000 0.000000 0.000000 0.109541 0.000000
# 6 0.000000 0.000000 0.000000 0.000000 0.000000 0.031210
#
#
# Mechanical properties :
#
#
# Convention : Reuss Voigt Hill
#
# Bulk Modulus (GPa) = 37.70927 39.82241 38.76584
# Shear Modulus (GPa) = 18.12691 24.11371 21.12031
#
# Velocity S-wave (km/s) = 2.88332 3.32555 3.11230
# Velocity P-wave (km/s) = 5.32723 5.74539 5.54026
#
# Compressibility (1/GPa) = 0.02651868
#
# Stress axis : x y z
#
# Youngs Moduli (GPa) = 66.23769 56.11956 105.05809
#
# Poissons Ratio (x) = 0.22933 0.23382
# Poissons Ratio (y) = 0.27068 0.17292
# Poissons Ratio (z) = 0.14742 0.09237
#
# Static dielectric constant tensor:
#      x y z
#    x 1.817250 0.000000 0.000000 
#    y 0.000000 1.820520 0.000000 
#    z 0.000000 0.000000 1.838940 
# 
# From -- ./inp_files/23800.got.cif
#   From: 2010.05.17/outbox.cif.g08.bks.cpg/sg68_12_cif.got.tgz:23800.got - 2010.06.03 18:57:09.
