data_PCOD9507952
_publ_section_title
;
Structure prediction by ZEFSAII (Michael W. Deem and Ramdas Pophale) SiO2 
 PCOD9507952
Probable space group: C C C A
;
_chemical_formula_sum "Si O2"
_cell_formula_units_Z 112
_cell_length_a 14.326754
_cell_length_b 12.556368
_cell_length_c 32.245374
_cell_angle_alpha 90.000000
_cell_angle_beta 90.000000
_cell_angle_gamma 90.000000
_cell_volume 5800.684674
_symmetry_space_group_name_H-M "C C C A"
_symmetry_group_IT_number 68
_space_group.IT_coordinate_system_code '2'
_symmetry_cell_setting 'orthorhombic'
loop_
_space_group_symop_operation_xyz
x,y,z
-x,1/2-y,z
x,1/2-y,1/2-z
-x,y,1/2-z
-x,-y,-z
x,1/2+y,-z
-x,1/2+y,1/2+z
x,-y,1/2+z
1/2+x,1/2+y,z
1/2-x,-y,z
1/2+x,-y,1/2-z
1/2-x,1/2+y,1/2-z
1/2-x,1/2-y,-z
1/2+x,y,-z
1/2-x,y,1/2+z
1/2+x,1/2-y,1/2+z
loop_
_atom_site_type_symbol
_atom_site_label
_atom_site_fract_x
_atom_site_fract_y
_atom_site_fract_z
Si Si1 0.084641 0.168783 0.095811
Si Si2 0.848229 0.022481 0.851799
Si Si3 0.491448 0.122666 0.297550
Si Si4 0.295046 0.787087 0.585404
Si Si5 0.453413 0.987455 0.443220
Si Si6 0.157713 0.430568 0.634439
Si Si7 0.068709 0.338310 0.987627
O O1 0.182716 0.217304 0.080890
O O2 0.000000 0.250000 0.104970
O O3 0.044135 0.085038 0.063245
O O4 0.111335 0.090753 0.133582
O O5 0.823677 0.104177 0.889759
O O6 0.922131 0.078322 0.823197
O O7 0.750000 0.000000 0.830225
O O8 0.500000 0.250000 0.297992
O O9 0.500000 0.086401 0.250000
O O10 0.400369 0.087711 0.323540
O O11 0.323072 0.684248 0.612800
O O12 0.350213 0.792929 0.541851
O O13 0.396193 0.922702 0.478004
O O14 0.401971 0.005008 0.400038
O O15 0.495010 0.097485 0.459081
O O16 0.250000 0.500000 0.641801
O O17 0.000000 0.250000 0.006846
#
# Coordination Sequence:
#
# PCOD9507952 Si02
#       7
#    16  16  16  16  16  16  16
#     4  11  22  39  62  93 124 164 223 262 320 379
#     4  10  21  39  66  91 123 173 213 250 317 395
#     4  11  23  42  72 101 128 162 208 266 324 398
#     4  11  22  40  67  90 126 179 214 265 318 379
#     4  11  23  40  62  90 128 173 222 269 317 375
#     4  12  24  42  66 100 131 168 215 270 334 385
#     4  11  22  40  62  90 129 172 223 273 315 374
#
# _framework density 19.308064999999999
#
# number of rings (size 3 to 8) (size 9 to 14) (size 15 to 20)
#    0.000    1.000    5.714    1.286    0.000    0.571 
#    5.143    2.143    0.000    0.429    0.000    0.000 
#    0.000    0.000    0.000    0.000    0.000    0.000 
#
# Total GULP energy -312546.402943 kJ/mol
# GULP energy per Si atom -5581.185767 kJ/mol
# Density = 1.926412 g / cm^3
# Si number density = 19.308065 Si / 1000 Ang^3
#
#
#
# Elastic Constant Matrix: (Units=GPa)
#
#
# Indices 1 2 3 4 5 6 
#
# 1 120.1531 49.9959 53.4007 0.0000 0.0000 0.0000
# 2 49.9959 69.7930 16.1156 0.0000 0.0000 0.0000
# 3 53.4007 16.1156 81.9033 0.0000 0.0000 0.0000
# 4 0.0000 0.0000 0.0000 12.1651 0.0000 0.0000
# 5 0.0000 0.0000 0.0000 0.0000 -4.0787 0.0000
# 6 0.0000 0.0000 0.0000 0.0000 0.0000 35.6340
#
#
#
# Elastic Compliance Matrix: (Units=1/GPa)
#
#
# Indices 1 2 3 4 5 6 
#
# 1 0.016147 -0.009571 -0.008645 0.000000 0.000000 0.000000
# 2 -0.009571 0.020683 0.002171 0.000000 0.000000 0.000000
# 3 -0.008645 0.002171 0.017419 0.000000 0.000000 0.000000
# 4 0.000000 0.000000 0.000000 0.082202 0.000000 0.000000
# 5 0.000000 0.000000 0.000000 0.000000 -0.245177 0.000000
# 6 0.000000 0.000000 0.000000 0.000000 0.000000 0.028063
#
#
# Mechanical properties :
#
#
# Convention : Reuss Voigt Hill
#
# Bulk Modulus (GPa) = 45.12883 56.76375 50.94629
# Shear Modulus (GPa) = -121.39996 18.89990 -51.25003
#
# Velocity S-wave (km/s) = -7.93799 3.13207 -5.15761
# Velocity P-wave (km/s) = 7.78408 6.52247 3.00410
#
# Compressibility (1/GPa) = 0.02215879
#
# Stress axis : x y z
#
# Youngs Moduli (GPa) = 61.93018 48.34901 57.40927
#
# Poissons Ratio (x) = 0.46274 0.49629
# Poissons Ratio (y) = 0.59273 -0.12461
# Poissons Ratio (z) = 0.53537 -0.10494
#
# Static dielectric constant tensor:
#      x y z
#    x 1.699880 0.000000 0.000000 
#    y 0.000000 1.750660 0.000000 
#    z 0.000000 0.000000 1.671700 
# 
# From -- ./inp_files/55261.got.cif
#   From: 2010.05.17/outbox.cif.g08.bks.cpg/sg68_28_cif.got.tgz:55261.got - 2010.06.03 18:57:09.
