data_PCOD9507536
_publ_section_title
;
Structure prediction by ZEFSAII (Michael W. Deem and Ramdas Pophale) SiO2 
 PCOD9507536
Probable space group: C C C A
;
_chemical_formula_sum "Si O2"
_cell_formula_units_Z 72
_cell_length_a 15.442124
_cell_length_b 22.253505
_cell_length_c 8.612842
_cell_angle_alpha 90.000000
_cell_angle_beta 90.000000
_cell_angle_gamma 90.000000
_cell_volume 2959.728942
_symmetry_space_group_name_H-M "C C C A"
_symmetry_group_IT_number 68
_space_group.IT_coordinate_system_code '2'
_symmetry_cell_setting 'orthorhombic'
loop_
_space_group_symop_operation_xyz
x,y,z
-x,1/2-y,z
x,1/2-y,1/2-z
-x,y,1/2-z
-x,-y,-z
x,1/2+y,-z
-x,1/2+y,1/2+z
x,-y,1/2+z
1/2+x,1/2+y,z
1/2-x,-y,z
1/2+x,-y,1/2-z
1/2-x,1/2+y,1/2-z
1/2-x,1/2-y,-z
1/2+x,y,-z
1/2-x,y,1/2+z
1/2+x,1/2-y,1/2+z
loop_
_atom_site_type_symbol
_atom_site_label
_atom_site_fract_x
_atom_site_fract_y
_atom_site_fract_z
Si Si1 0.835072 0.167644 0.983259
Si Si2 0.910765 0.572555 0.453984
Si Si3 0.013301 0.820837 0.574735
Si Si4 0.730145 0.250000 0.750000
Si Si5 0.615434 0.951839 0.903850
O O1 0.785601 0.206137 0.857278
O O2 0.821207 0.096114 0.988307
O O3 0.937069 0.168933 0.950254
O O4 0.822956 0.204373 0.142199
O O5 0.867670 0.521651 0.560528
O O6 0.881005 0.562756 0.278380
O O7 0.904562 0.642179 0.509611
O O8 0.014956 0.558490 0.458435
O O9 0.000000 0.750000 0.590304
O O10 0.000000 0.846190 0.750000
#
# Coordination Sequence:
#
# PCOD9507536 Si02
#       5
#    16  16  16   8  16
#     4  10  22  40  62  90 119 169 218 261 317 373
#     4   9  19  33  57  89 127 158 192 248 326 399
#     4  10  21  35  59  98 130 158 201 266 338 393
#     4  10  22  42  64  84 122 176 224 268 296 364
#     4   9  19  35  56  90 120 162 199 247 320 384
#
# _framework density 24.326553000000001
#
# number of rings (size 3 to 8) (size 9 to 14) (size 15 to 20)
#    0.000    2.444    0.000    1.333   12.444    0.000 
#    0.000    0.000    0.000    4.000    0.000    0.000 
#    0.000    0.000    0.000    0.000    0.000    0.000 
#
# Total GULP energy -200634.056970 kJ/mol
# GULP energy per Si atom -5573.168249 kJ/mol
# Density = 2.427118 g / cm^3
# Si number density = 24.326553 Si / 1000 Ang^3
#
#
#
# Elastic Constant Matrix: (Units=GPa)
#
#
# Indices 1 2 3 4 5 6 
#
# 1 40.2315 32.0302 23.2256 0.0000 0.0000 0.0000
# 2 32.0302 211.6261 88.1560 0.0000 0.0000 0.0000
# 3 23.2256 88.1560 90.1261 0.0000 0.0000 0.0000
# 4 0.0000 0.0000 0.0000 31.4587 0.0000 0.0000
# 5 0.0000 0.0000 0.0000 0.0000 8.6539 0.0000
# 6 0.0000 0.0000 0.0000 0.0000 0.0000 34.1726
#
#
#
# Elastic Compliance Matrix: (Units=1/GPa)
#
#
# Indices 1 2 3 4 5 6 
#
# 1 0.029802 -0.002213 -0.005515 0.000000 0.000000 0.000000
# 2 -0.002213 0.008139 -0.007391 0.000000 0.000000 0.000000
# 3 -0.005515 -0.007391 0.019746 0.000000 0.000000 0.000000
# 4 0.000000 0.000000 0.000000 0.031788 0.000000 0.000000
# 5 0.000000 0.000000 0.000000 0.000000 0.115555 0.000000
# 6 0.000000 0.000000 0.000000 0.000000 0.000000 0.029263
#
#
# Mechanical properties :
#
#
# Convention : Reuss Voigt Hill
#
# Bulk Modulus (GPa) = 36.43142 69.86749 53.14946
# Shear Modulus (GPa) = 18.26945 28.09516 23.18231
#
# Velocity S-wave (km/s) = 2.74343 3.40209 3.09036
# Velocity P-wave (km/s) = 5.00437 6.64946 5.88469
#
# Compressibility (1/GPa) = 0.02744883
#
# Stress axis : x y z
#
# Youngs Moduli (GPa) = 33.55463 122.86482 50.64298
#
# Poissons Ratio (x) = 0.27192 0.27931
# Poissons Ratio (y) = 0.07426 0.37429
# Poissons Ratio (z) = 0.18506 0.90807
#
# Static dielectric constant tensor:
#      x y z
#    x 2.028160 0.000000 0.000000 
#    y 0.000000 2.220510 0.000000 
#    z 0.000000 0.000000 1.925460 
# 
# From -- ./inp_files/6106.got.cif
#   From: 2010.05.17/outbox.cif.g08.bks.cpg/sg68_4_cif.got.tgz:6106.got - 2010.06.03 18:57:09.
