data_PCOD9507087
_publ_section_title
;
Structure prediction by ZEFSAII (Michael W. Deem and Ramdas Pophale) SiO2 
 PCOD9507087
Probable space group: C C C A
;
_chemical_formula_sum "Si O2"
_cell_formula_units_Z 88
_cell_length_a 15.477869
_cell_length_b 11.760396
_cell_length_c 23.808895
_cell_angle_alpha 90.000000
_cell_angle_beta 90.000000
_cell_angle_gamma 90.000000
_cell_volume 4333.834795
_symmetry_space_group_name_H-M "C C C A"
_symmetry_group_IT_number 68
_space_group.IT_coordinate_system_code '2'
_symmetry_cell_setting 'orthorhombic'
loop_
_space_group_symop_operation_xyz
x,y,z
-x,1/2-y,z
x,1/2-y,1/2-z
-x,y,1/2-z
-x,-y,-z
x,1/2+y,-z
-x,1/2+y,1/2+z
x,-y,1/2+z
1/2+x,1/2+y,z
1/2-x,-y,z
1/2+x,-y,1/2-z
1/2-x,1/2+y,1/2-z
1/2-x,1/2-y,-z
1/2+x,y,-z
1/2-x,y,1/2+z
1/2+x,1/2-y,1/2+z
loop_
_atom_site_type_symbol
_atom_site_label
_atom_site_fract_x
_atom_site_fract_y
_atom_site_fract_z
Si Si1 0.866598 0.699310 0.948030
Si Si2 0.917080 0.329344 0.572030
Si Si3 0.273945 0.213341 0.359577
Si Si4 0.629816 0.149147 0.791012
Si Si5 0.463002 0.912595 0.098641
Si Si6 0.250000 0.500000 0.217187
O O1 0.777718 0.680324 0.915969
O O2 0.900578 0.828091 0.936927
O O3 0.940413 0.623039 0.918063
O O4 0.865095 0.672681 0.013494
O O5 0.859867 0.277076 0.621754
O O6 0.944627 0.457475 0.584933
O O7 0.000000 0.250000 0.563220
O O8 0.209950 0.297574 0.326147
O O9 0.284285 0.102791 0.321249
O O10 0.600358 0.250000 0.750000
O O11 0.558973 0.112146 0.836314
O O12 0.671880 0.048513 0.754835
#
# Coordination Sequence:
#
# PCOD9507087 Si02
#       6
#    16  16  16  16  16   8
#     4  10  22  41  63  92 120 169 218 257 307 386
#     4  12  24  38  62  93 134 170 198 263 334 382
#     4  10  23  38  63  93 125 165 220 255 329 381
#     4   9  19  40  66  91 117 165 215 267 305 367
#     4  10  21  40  65  89 128 160 215 266 310 376
#     4  10  20  38  64  88 130 160 208 276 318 386
#
# _framework density 20.305342
#
# number of rings (size 3 to 8) (size 9 to 14) (size 15 to 20)
#    0.000    1.818    1.818    2.182    2.545    2.182 
#    0.000   15.455    4.000    3.818    0.000    0.000 
#    0.000    0.000    0.000    0.000    0.000    0.000 
#
# Total GULP energy -246052.503210 kJ/mol
# GULP energy per Si atom -5592.102346 kJ/mol
# Density = 2.025913 g / cm^3
# Si number density = 20.305342 Si / 1000 Ang^3
#
#
#
# Elastic Constant Matrix: (Units=GPa)
#
#
# Indices 1 2 3 4 5 6 
#
# 1 16.4763 10.9208 23.5668 0.0000 0.0000 0.0000
# 2 10.9208 124.3667 55.6703 0.0000 0.0000 0.0000
# 3 23.5668 55.6703 98.7511 0.0000 0.0000 0.0000
# 4 0.0000 0.0000 0.0000 11.3081 0.0000 0.0000
# 5 0.0000 0.0000 0.0000 0.0000 24.0212 0.0000
# 6 0.0000 0.0000 0.0000 0.0000 0.0000 7.2500
#
#
#
# Elastic Compliance Matrix: (Units=1/GPa)
#
#
# Indices 1 2 3 4 5 6 
#
# 1 0.092662 0.002357 -0.023442 0.000000 0.000000 0.000000
# 2 0.002357 0.010815 -0.006659 0.000000 0.000000 0.000000
# 3 -0.023442 -0.006659 0.019475 0.000000 0.000000 0.000000
# 4 0.000000 0.000000 0.000000 0.088432 0.000000 0.000000
# 5 0.000000 0.000000 0.000000 0.000000 0.041630 0.000000
# 6 0.000000 0.000000 0.000000 0.000000 0.000000 0.137931
#
#
# Mechanical properties :
#
#
# Convention : Reuss Voigt Hill
#
# Bulk Modulus (GPa) = 14.82312 46.65667 30.73989
# Shear Modulus (GPa) = 10.66278 18.47826 14.57052
#
# Velocity S-wave (km/s) = 2.29404 3.01993 2.68166
# Velocity P-wave (km/s) = 3.78587 5.93189 4.97595
#
# Compressibility (1/GPa) = 0.06746218
#
# Stress axis : x y z
#
# Youngs Moduli (GPa) = 10.79193 92.46759 51.34805
#
# Poissons Ratio (x) = -0.21792 1.20371
# Poissons Ratio (y) = -0.02543 0.34193
# Poissons Ratio (z) = 0.25299 0.61575
#
# Static dielectric constant tensor:
#      x y z
#    x 1.702630 0.000000 0.000000 
#    y 0.000000 1.694040 0.000000 
#    z 0.000000 0.000000 1.733750 
# 
# From -- ./inp_files/45298.got.cif
#   From: 2010.05.17/outbox.cif.g08.bks.cpg/sg68_23_cif.got.tgz:45298.got - 2010.06.03 18:57:09.
