data_PCOD9507925
_publ_section_title
;
Structure prediction by ZEFSAII (Michael W. Deem and Ramdas Pophale) SiO2 
 PCOD9507925
Probable space group: C C C A
;
_chemical_formula_sum "Si O2"
_cell_formula_units_Z 44
_cell_length_a 31.309029
_cell_length_b 4.892556
_cell_length_c 12.801538
_cell_angle_alpha 90.000000
_cell_angle_beta 90.000000
_cell_angle_gamma 90.000000
_cell_volume 1960.954667
_symmetry_space_group_name_H-M "C C C A"
_symmetry_group_IT_number 68
_space_group.IT_coordinate_system_code '2'
_symmetry_cell_setting 'orthorhombic'
loop_
_space_group_symop_operation_xyz
x,y,z
-x,1/2-y,z
x,1/2-y,1/2-z
-x,y,1/2-z
-x,-y,-z
x,1/2+y,-z
-x,1/2+y,1/2+z
x,-y,1/2+z
1/2+x,1/2+y,z
1/2-x,-y,z
1/2+x,-y,1/2-z
1/2-x,1/2+y,1/2-z
1/2-x,1/2-y,-z
1/2+x,y,-z
1/2-x,y,1/2+z
1/2+x,1/2-y,1/2+z
loop_
_atom_site_type_symbol
_atom_site_label
_atom_site_fract_x
_atom_site_fract_y
_atom_site_fract_z
Si Si1 0.000000 0.250000 0.250000
Si Si2 0.202869 0.999346 0.329360
Si Si3 0.941923 0.750000 0.250000
Si Si4 0.886530 0.008057 0.065406
O O1 0.031175 0.488845 0.297940
O O2 0.201161 0.750000 0.250000
O O3 0.163501 0.986803 0.407219
O O4 0.197985 0.250000 0.250000
O O5 0.250000 0.000000 0.379819
O O6 0.913506 0.893205 0.161625
O O7 0.895757 0.817023 0.966151
#
# Coordination Sequence:
#
# PCOD9507925 Si02
#       4
#     4  16   8  16
#     4  10  24  46  76  92 124 182 204 266 368 382
#     4  10  21  39  63  93 135 182 222 270 319 370
#     4  11  24  48  68  97 136 163 218 282 324 407
#     4  12  25  40  69 102 131 178 220 265 329 390
#
# _framework density 22.438051999999999
#
# number of rings (size 3 to 8) (size 9 to 14) (size 15 to 20)
#    0.000    1.091    1.818    4.364    2.545    1.455 
#    0.000   18.182    0.000    0.000    0.000    0.000 
#    0.000    0.000    0.000    0.000    0.000    0.000 
#
# Total GULP energy -122704.627135 kJ/mol
# GULP energy per Si atom -5577.483052 kJ/mol
# Density = 2.238698 g / cm^3
# Si number density = 22.438052 Si / 1000 Ang^3
#
#
#
# Elastic Constant Matrix: (Units=GPa)
#
#
# Indices 1 2 3 4 5 6 
#
# 1 113.1877 32.8629 39.8431 0.0000 0.0000 0.0000
# 2 32.8629 160.9231 7.5076 0.0000 0.0000 0.0000
# 3 39.8431 7.5076 48.9560 0.0000 0.0000 0.0000
# 4 0.0000 0.0000 0.0000 29.4083 0.0000 0.0000
# 5 0.0000 0.0000 0.0000 0.0000 11.4227 0.0000
# 6 0.0000 0.0000 0.0000 0.0000 0.0000 37.4296
#
#
#
# Elastic Compliance Matrix: (Units=1/GPa)
#
#
# Indices 1 2 3 4 5 6 
#
# 1 0.013109 -0.002195 -0.010332 0.000000 0.000000 0.000000
# 2 -0.002195 0.006626 0.000770 0.000000 0.000000 0.000000
# 3 -0.010332 0.000770 0.028718 0.000000 0.000000 0.000000
# 4 0.000000 0.000000 0.000000 0.034004 0.000000 0.000000
# 5 0.000000 0.000000 0.000000 0.000000 0.087545 0.000000
# 6 0.000000 0.000000 0.000000 0.000000 0.000000 0.026717
#
#
# Mechanical properties :
#
#
# Convention : Reuss Voigt Hill
#
# Bulk Modulus (GPa) = 40.09818 53.72156 46.90987
# Shear Modulus (GPa) = 21.87737 31.84235 26.85986
#
# Velocity S-wave (km/s) = 3.12591 3.77121 3.46362
# Velocity P-wave (km/s) = 5.56218 6.55415 6.07843
#
# Compressibility (1/GPa) = 0.02493879
#
# Stress axis : x y z
#
# Youngs Moduli (GPa) = 76.28164 150.90970 34.82196
#
# Poissons Ratio (x) = 0.33126 0.35980
# Poissons Ratio (y) = 0.16744 -0.02682
# Poissons Ratio (z) = 0.78818 -0.11624
#
# Static dielectric constant tensor:
#      x y z
#    x 1.911920 0.000000 0.000000 
#    y 0.000000 1.783930 0.000000 
#    z 0.000000 0.000000 1.782290 
# 
# From -- ./inp_files/26163.got.cif
#   From: 2010.05.17/outbox.cif.g08.bks.cpg/sg68_14_cif.got.tgz:26163.got - 2010.06.03 18:57:09.
