data_PCOD9507984
_publ_section_title
;
Structure prediction by ZEFSAII (Michael W. Deem and Ramdas Pophale) SiO2 
 PCOD9507984
Probable space group: C C C A
;
_chemical_formula_sum "Si O2"
_cell_formula_units_Z 96
_cell_length_a 21.620775
_cell_length_b 11.689644
_cell_length_c 19.341426
_cell_angle_alpha 90.000000
_cell_angle_beta 90.000000
_cell_angle_gamma 90.000000
_cell_volume 4888.335814
_symmetry_space_group_name_H-M "C C C A"
_symmetry_group_IT_number 68
_space_group.IT_coordinate_system_code '2'
_symmetry_cell_setting 'orthorhombic'
loop_
_space_group_symop_operation_xyz
x,y,z
-x,1/2-y,z
x,1/2-y,1/2-z
-x,y,1/2-z
-x,-y,-z
x,1/2+y,-z
-x,1/2+y,1/2+z
x,-y,1/2+z
1/2+x,1/2+y,z
1/2-x,-y,z
1/2+x,-y,1/2-z
1/2-x,1/2+y,1/2-z
1/2-x,1/2-y,-z
1/2+x,y,-z
1/2-x,y,1/2+z
1/2+x,1/2-y,1/2+z
loop_
_atom_site_type_symbol
_atom_site_label
_atom_site_fract_x
_atom_site_fract_y
_atom_site_fract_z
Si Si1 0.818629 0.490725 0.476542
Si Si2 0.690361 0.918508 0.307776
Si Si3 0.851719 0.167499 0.628942
Si Si4 0.983529 0.385411 0.825486
Si Si5 0.896027 0.574651 0.106017
Si Si6 0.712110 0.338157 0.842277
O O1 0.750000 0.500000 0.509389
O O2 0.838440 0.613233 0.445997
O O3 0.869002 0.449256 0.530493
O O4 0.808984 0.406905 0.410313
O O5 0.682329 0.888269 0.227067
O O6 0.699845 0.796998 0.345959
O O7 0.750000 0.000000 0.315005
O O8 0.633946 0.984838 0.341557
O O9 0.911147 0.103790 0.659909
O O10 0.870535 0.299777 0.626401
O O11 0.786568 0.150398 0.667250
O O12 0.000000 0.250000 0.823264
O O13 0.000000 0.432774 0.750000
O O14 0.030278 0.430934 0.883702
#
# Coordination Sequence:
#
# PCOD9507984 Si02
#       6
#    16  16  16  16  16  16
#     4  10  23  38  58  90 126 160 194 252 314 364
#     4  11  21  36  61  93 121 158 203 249 309 368
#     4  10  21  40  60  85 122 157 204 248 302 361
#     4   9  21  37  59  88 115 153 205 259 295 347
#     4  11  23  37  62  89 120 159 207 247 303 370
#     4  10  23  37  60  92 125 157 195 254 315 363
#
# _framework density 19.638586
#
# number of rings (size 3 to 8) (size 9 to 14) (size 15 to 20)
#    0.000    1.833    1.667    2.000    7.000    3.333 
#    0.000    0.000    0.000    0.000    0.000    0.000 
#    0.000    0.000    0.000    0.000    0.000    0.000 
#
# Total GULP energy -268040.531951 kJ/mol
# GULP energy per Si atom -5584.177749 kJ/mol
# Density = 1.959389 g / cm^3
# Si number density = 19.638586 Si / 1000 Ang^3
#
#
#
# Elastic Constant Matrix: (Units=GPa)
#
#
# Indices 1 2 3 4 5 6 
#
# 1 113.9633 30.2613 48.2658 0.0000 0.0000 0.0000
# 2 30.2613 97.6665 25.7683 0.0000 0.0000 0.0000
# 3 48.2658 25.7683 78.6245 0.0000 0.0000 0.0000
# 4 0.0000 0.0000 0.0000 9.7974 0.0000 0.0000
# 5 0.0000 0.0000 0.0000 0.0000 19.6788 0.0000
# 6 0.0000 0.0000 0.0000 0.0000 0.0000 16.5034
#
#
#
# Elastic Compliance Matrix: (Units=1/GPa)
#
#
# Indices 1 2 3 4 5 6 
#
# 1 0.012196 -0.001974 -0.006840 0.000000 0.000000 0.000000
# 2 -0.001974 0.011528 -0.002566 0.000000 0.000000 0.000000
# 3 -0.006840 -0.002566 0.017758 0.000000 0.000000 0.000000
# 4 0.000000 0.000000 0.000000 0.102068 0.000000 0.000000
# 5 0.000000 0.000000 0.000000 0.000000 0.050816 0.000000
# 6 0.000000 0.000000 0.000000 0.000000 0.000000 0.060594
#
#
# Mechanical properties :
#
#
# Convention : Reuss Voigt Hill
#
# Bulk Modulus (GPa) = 53.41364 55.42722 54.42043
# Shear Modulus (GPa) = 17.60811 21.59318 19.60064
#
# Velocity S-wave (km/s) = 2.99759 3.31951 3.16265
# Velocity P-wave (km/s) = 6.26403 6.55569 6.41152
#
# Compressibility (1/GPa) = 0.01872181
#
# Stress axis : x y z
#
# Youngs Moduli (GPa) = 81.99609 86.74784 56.31134
#
# Poissons Ratio (x) = 0.17126 0.38515
# Poissons Ratio (y) = 0.16188 0.14450
# Poissons Ratio (z) = 0.56082 0.22261
#
# Static dielectric constant tensor:
#      x y z
#    x 1.684900 0.000000 0.000000 
#    y 0.000000 1.700230 0.000000 
#    z 0.000000 0.000000 1.705690 
# 
# From -- ./inp_files/46005.got.cif
#   From: 2010.05.17/outbox.cif.g08.bks.cpg/sg68_24_cif.got.tgz:46005.got - 2010.06.03 18:57:09.
