data_PCOD9507559
_publ_section_title
;
Structure prediction by ZEFSAII (Michael W. Deem and Ramdas Pophale) SiO2 
 PCOD9507559
Probable space group: C C C A
;
_chemical_formula_sum "Si O2"
_cell_formula_units_Z 104
_cell_length_a 16.598955
_cell_length_b 27.383953
_cell_length_c 11.574665
_cell_angle_alpha 90.000000
_cell_angle_beta 90.000000
_cell_angle_gamma 90.000000
_cell_volume 5261.206144
_symmetry_space_group_name_H-M "C C C A"
_symmetry_group_IT_number 68
_space_group.IT_coordinate_system_code '2'
_symmetry_cell_setting 'orthorhombic'
loop_
_space_group_symop_operation_xyz
x,y,z
-x,1/2-y,z
x,1/2-y,1/2-z
-x,y,1/2-z
-x,-y,-z
x,1/2+y,-z
-x,1/2+y,1/2+z
x,-y,1/2+z
1/2+x,1/2+y,z
1/2-x,-y,z
1/2+x,-y,1/2-z
1/2-x,1/2+y,1/2-z
1/2-x,1/2-y,-z
1/2+x,y,-z
1/2-x,y,1/2+z
1/2+x,1/2-y,1/2+z
loop_
_atom_site_type_symbol
_atom_site_label
_atom_site_fract_x
_atom_site_fract_y
_atom_site_fract_z
Si Si1 0.808054 0.750000 0.750000
Si Si2 0.333288 0.857349 0.512872
Si Si3 0.836652 0.472346 0.462065
Si Si4 0.091795 0.263112 0.039268
Si Si5 0.189395 0.307809 0.601368
Si Si6 0.904186 0.619166 0.256427
Si Si7 0.345278 0.511449 0.778904
O O1 0.867796 0.763942 0.852743
O O2 0.750801 0.792697 0.702832
O O3 0.328501 0.913794 0.475085
O O4 0.393370 0.820748 0.445411
O O5 0.246505 0.832379 0.494741
O O6 0.368718 0.857055 0.640825
O O7 0.750000 0.500000 0.456527
O O8 0.875045 0.491039 0.585691
O O9 0.875545 0.481720 0.334774
O O10 0.000000 0.250000 0.023356
O O11 0.145620 0.241838 0.935622
O O12 0.123429 0.346604 0.639788
O O13 0.862291 0.566639 0.260551
O O14 0.000000 0.614015 0.250000
O O15 0.250000 0.500000 0.788903
#
# Coordination Sequence:
#
# PCOD9507559 Si02
#       7
#     8  16  16  16  16  16  16
#     4  10  21  36  55  78 110 154 200 238 281 352
#     4  10  21  37  57  85 117 155 204 243 293 373
#     4   9  17  33  58  84 111 149 198 250 296 351
#     4  11  22  37  56  83 120 157 192 245 302 350
#     4  11  20  35  59  83 113 155 200 237 290 361
#     4  11  22  37  59  90 121 149 191 256 309 350
#     4   9  18  34  56  82 114 156 199 242 301 369
#
# _framework density 19.767330000000001
#
# number of rings (size 3 to 8) (size 9 to 14) (size 15 to 20)
#    0.000    1.846    0.000    6.692    0.000    0.000 
#    0.000    7.692    0.000    9.231    0.000    0.000 
#    0.000    0.000    0.000    0.000    0.000    0.000 
#
# Total GULP energy -289474.973279 kJ/mol
# GULP energy per Si atom -5566.826409 kJ/mol
# Density = 1.972234 g / cm^3
# Si number density = 19.767330 Si / 1000 Ang^3
#
#
#
# Elastic Constant Matrix: (Units=GPa)
#
#
# Indices 1 2 3 4 5 6 
#
# 1 73.3177 57.2267 33.0124 0.0000 0.0000 0.0000
# 2 57.2267 96.0526 30.5708 0.0000 0.0000 0.0000
# 3 33.0124 30.5708 93.0886 0.0000 0.0000 0.0000
# 4 0.0000 0.0000 0.0000 -35.7804 0.0000 0.0000
# 5 0.0000 0.0000 0.0000 0.0000 32.0648 0.0000
# 6 0.0000 0.0000 0.0000 0.0000 0.0000 13.4264
#
#
#
# Elastic Compliance Matrix: (Units=1/GPa)
#
#
# Indices 1 2 3 4 5 6 
#
# 1 0.027326 -0.014736 -0.004851 0.000000 0.000000 0.000000
# 2 -0.014736 0.019573 -0.001202 0.000000 0.000000 0.000000
# 3 -0.004851 -0.001202 0.012858 0.000000 0.000000 0.000000
# 4 0.000000 0.000000 0.000000 -0.027948 0.000000 0.000000
# 5 0.000000 0.000000 0.000000 0.000000 0.031187 0.000000
# 6 0.000000 0.000000 0.000000 0.000000 0.000000 0.074480
#
#
# Mechanical properties :
#
#
# Convention : Reuss Voigt Hill
#
# Bulk Modulus (GPa) = 55.01252 56.00875 55.51063
# Shear Modulus (GPa) = 27.01055 11.38543 19.19799
#
# Velocity S-wave (km/s) = 3.70053 2.40255 3.11979
# Velocity P-wave (km/s) = 6.79330 6.00765 6.41252
#
# Compressibility (1/GPa) = 0.01817768
#
# Stress axis : x y z
#
# Youngs Moduli (GPa) = 36.59567 51.09047 77.77521
#
# Poissons Ratio (x) = 0.75288 0.37730
# Poissons Ratio (y) = 0.53928 0.09348
# Poissons Ratio (z) = 0.17753 0.06141
#
# Static dielectric constant tensor:
#      x y z
#    x 1.676880 0.000000 0.000000 
#    y 0.000000 1.683840 0.000000 
#    z 0.000000 0.000000 1.811460 
# 
# From -- ./inp_files/14775.got.cif
#   From: 2010.05.17/outbox.cif.g08.bks.cpg/sg68_8_cif.got.tgz:14775.got - 2010.06.03 18:57:09.
