data_PCOD9507337
_publ_section_title
;
Structure prediction by ZEFSAII (Michael W. Deem and Ramdas Pophale) SiO2 
 PCOD9507337
Probable space group: C C C A
;
_chemical_formula_sum "Si O2"
_cell_formula_units_Z 92
_cell_length_a 7.626875
_cell_length_b 21.145364
_cell_length_c 25.161607
_cell_angle_alpha 90.000000
_cell_angle_beta 90.000000
_cell_angle_gamma 90.000000
_cell_volume 4057.889055
_symmetry_space_group_name_H-M "C C C A"
_symmetry_group_IT_number 68
_space_group.IT_coordinate_system_code '2'
_symmetry_cell_setting 'orthorhombic'
loop_
_space_group_symop_operation_xyz
x,y,z
-x,1/2-y,z
x,1/2-y,1/2-z
-x,y,1/2-z
-x,-y,-z
x,1/2+y,-z
-x,1/2+y,1/2+z
x,-y,1/2+z
1/2+x,1/2+y,z
1/2-x,-y,z
1/2+x,-y,1/2-z
1/2-x,1/2+y,1/2-z
1/2-x,1/2-y,-z
1/2+x,y,-z
1/2-x,y,1/2+z
1/2+x,1/2-y,1/2+z
loop_
_atom_site_type_symbol
_atom_site_label
_atom_site_fract_x
_atom_site_fract_y
_atom_site_fract_z
Si Si1 0.579773 0.181077 0.473414
Si Si2 0.422473 0.873022 0.067200
Si Si3 0.297627 0.855650 0.184374
Si Si4 0.000000 0.546480 0.750000
Si Si5 0.250000 0.000000 0.834322
Si Si6 0.750000 0.000000 0.423620
Si Si7 0.479182 0.902275 0.877481
Si Si8 0.000000 0.250000 0.250000
O O1 0.500000 0.250000 0.473877
O O2 0.581369 0.148621 0.531148
O O3 0.774558 0.177500 0.450507
O O4 0.474366 0.138608 0.430889
O O5 0.412257 0.869191 0.130816
O O6 0.356770 0.942913 0.049064
O O7 0.345996 0.910223 0.226142
O O8 0.093801 0.861830 0.165719
O O9 0.373521 0.792869 0.212540
O O10 0.082771 0.507020 0.703191
O O11 0.205864 0.064805 0.864882
O O12 0.607964 0.038741 0.390162
#
# Coordination Sequence:
#
# PCOD9507337 Si02
#       8
#    16  16  16   8   8   8  16   4
#     4  10  22  39  57  91 124 168 209 251 313 390
#     4  10  21  37  62  86 127 163 203 260 317 375
#     4   9  21  41  59  93 122 166 209 271 315 387
#     4  11  22  37  62  90 123 152 223 252 338 384
#     4  12  22  38  66  92 124 172 204 282 322 400
#     4   8  18  38  58  86 124 160 200 266 310 378
#     4  10  22  40  63  93 129 163 212 261 328 379
#     4  10  20  40  72  90 124 170 230 260 338 392
#
# _framework density 22.671887000000002
#
# number of rings (size 3 to 8) (size 9 to 14) (size 15 to 20)
#    0.000    2.435    0.000    3.652    1.217    6.957 
#   12.522    0.000    0.000    0.000    0.000    0.000 
#    0.000    0.000    0.000    0.000    0.000    0.000 
#
# Total GULP energy -256531.997895 kJ/mol
# GULP energy per Si atom -5576.782563 kJ/mol
# Density = 2.262028 g / cm^3
# Si number density = 22.671887 Si / 1000 Ang^3
#
#
#
# Elastic Constant Matrix: (Units=GPa)
#
#
# Indices 1 2 3 4 5 6 
#
# 1 66.3281 23.0641 15.0203 0.0000 0.0000 0.0000
# 2 23.0641 115.7901 37.2849 0.0000 0.0000 0.0000
# 3 15.0203 37.2849 93.4997 0.0000 0.0000 0.0000
# 4 0.0000 0.0000 0.0000 62.3403 0.0000 0.0000
# 5 0.0000 0.0000 0.0000 0.0000 -4.1401 0.0000
# 6 0.0000 0.0000 0.0000 0.0000 0.0000 16.8594
#
#
#
# Elastic Compliance Matrix: (Units=1/GPa)
#
#
# Indices 1 2 3 4 5 6 
#
# 1 0.016386 -0.002772 -0.001527 0.000000 0.000000 0.000000
# 2 -0.002772 0.010378 -0.003693 0.000000 0.000000 0.000000
# 3 -0.001527 -0.003693 0.012413 0.000000 0.000000 0.000000
# 4 0.000000 0.000000 0.000000 0.016041 0.000000 0.000000
# 5 0.000000 0.000000 0.000000 0.000000 -0.241538 0.000000
# 6 0.000000 0.000000 0.000000 0.000000 0.000000 0.059314
#
#
# Mechanical properties :
#
#
# Convention : Reuss Voigt Hill
#
# Bulk Modulus (GPa) = 43.11666 47.37293 45.24480
# Shear Modulus (GPa) = -48.40702 28.36182 -10.02260
#
# Velocity S-wave (km/s) = -4.62574 3.54074 -2.10483
# Velocity P-wave (km/s) = 3.07750 6.13646 3.75401
#
# Compressibility (1/GPa) = 0.02319289
#
# Stress axis : x y z
#
# Youngs Moduli (GPa) = 61.02640 96.36068 80.55976
#
# Poissons Ratio (x) = 0.26714 0.12300
# Poissons Ratio (y) = 0.16919 0.29750
# Poissons Ratio (z) = 0.09318 0.35585
#
# Static dielectric constant tensor:
#      x y z
#    x 1.935310 0.000000 0.000000 
#    y 0.000000 1.860870 0.000000 
#    z 0.000000 0.000000 1.833850 
# 
# From -- ./inp_files/49388.got.cif
#   From: 2010.05.17/outbox.cif.g08.bks.cpg/sg68_25_cif.got.tgz:49388.got - 2010.06.03 18:57:09.
