data_PCOD9507803
_publ_section_title
;
Structure prediction by ZEFSAII (Michael W. Deem and Ramdas Pophale) SiO2 
 PCOD9507803
Probable space group: C C C A
;
_chemical_formula_sum "Si O2"
_cell_formula_units_Z 92
_cell_length_a 20.630583
_cell_length_b 9.172636
_cell_length_c 19.194719
_cell_angle_alpha 90.000000
_cell_angle_beta 90.000000
_cell_angle_gamma 90.000000
_cell_volume 3632.347744
_symmetry_space_group_name_H-M "C C C A"
_symmetry_group_IT_number 68
_space_group.IT_coordinate_system_code '2'
_symmetry_cell_setting 'orthorhombic'
loop_
_space_group_symop_operation_xyz
x,y,z
-x,1/2-y,z
x,1/2-y,1/2-z
-x,y,1/2-z
-x,-y,-z
x,1/2+y,-z
-x,1/2+y,1/2+z
x,-y,1/2+z
1/2+x,1/2+y,z
1/2-x,-y,z
1/2+x,-y,1/2-z
1/2-x,1/2+y,1/2-z
1/2-x,1/2-y,-z
1/2+x,y,-z
1/2-x,y,1/2+z
1/2+x,1/2-y,1/2+z
loop_
_atom_site_type_symbol
_atom_site_label
_atom_site_fract_x
_atom_site_fract_y
_atom_site_fract_z
Si Si1 0.808206 0.719208 0.911942
Si Si2 0.113303 0.915758 0.290737
Si Si3 0.750000 0.000000 0.193937
Si Si4 0.430919 0.284889 0.668173
Si Si5 0.577271 0.266295 0.085414
Si Si6 0.642302 0.965580 0.486117
Si Si7 0.000000 0.750000 0.250000
O O1 0.763169 0.642343 0.854463
O O2 0.870261 0.782505 0.869808
O O3 0.797948 0.862771 0.958660
O O4 0.829802 0.582366 0.958798
O O5 0.183565 0.966345 0.265404
O O6 0.119053 0.791283 0.349229
O O7 0.056656 0.873231 0.237760
O O8 0.082486 0.045015 0.335281
O O9 0.500000 0.250000 0.636944
O O10 0.430419 0.250000 0.750000
O O11 0.500000 0.250000 0.103911
O O12 0.600383 0.426981 0.063558
O O13 0.595259 0.152951 0.023558
#
# Coordination Sequence:
#
# PCOD9507803 Si02
#       7
#    16  16   8  16  16  16   4
#     4  10  22  40  65  94 138 182 238 288 359 428
#     4  11  24  44  69 101 136 183 232 304 356 428
#     4  10  22  48  66  96 148 178 228 306 366 432
#     4  10  21  38  64  93 131 177 238 292 363 432
#     4  11  21  38  62  97 142 178 233 293 361 429
#     4  10  22  38  61 101 133 194 231 291 354 434
#     4  12  24  44  78  96 132 186 244 298 362 424
#
# _framework density 25.327971999999999
#
# number of rings (size 3 to 8) (size 9 to 14) (size 15 to 20)
#    0.000    1.565    4.348    1.565    2.435    4.870 
#    6.261    0.000    0.000    0.000    0.000    0.000 
#    0.000    0.000    0.000    0.000    0.000    0.000 
#
# Total GULP energy -256268.275654 kJ/mol
# GULP energy per Si atom -5571.049471 kJ/mol
# Density = 2.527032 g / cm^3
# Si number density = 25.327972 Si / 1000 Ang^3
#
#
#
# Elastic Constant Matrix: (Units=GPa)
#
#
# Indices 1 2 3 4 5 6 
#
# 1 185.8599 44.8304 15.8747 0.0000 0.0000 0.0000
# 2 44.8304 157.3632 20.2800 0.0000 0.0000 0.0000
# 3 15.8747 20.2800 28.0061 0.0000 0.0000 0.0000
# 4 0.0000 0.0000 0.0000 -99.4997 0.0000 0.0000
# 5 0.0000 0.0000 0.0000 0.0000 -1.7711 0.0000
# 6 0.0000 0.0000 0.0000 0.0000 0.0000 -52.7168
#
#
#
# Elastic Compliance Matrix: (Units=1/GPa)
#
#
# Indices 1 2 3 4 5 6 
#
# 1 0.005915 -0.001382 -0.002352 0.000000 0.000000 0.000000
# 2 -0.001382 0.007332 -0.004526 0.000000 0.000000 0.000000
# 3 -0.002352 -0.004526 0.040317 0.000000 0.000000 0.000000
# 4 0.000000 0.000000 0.000000 -0.010050 0.000000 0.000000
# 5 0.000000 0.000000 0.000000 0.000000 -0.564626 0.000000
# 6 0.000000 0.000000 0.000000 0.000000 0.000000 -0.018969
#
#
# Mechanical properties :
#
#
# Convention : Reuss Voigt Hill
#
# Bulk Modulus (GPa) = 26.99489 59.24437 43.11963
# Shear Modulus (GPa) = -9.78062 -11.44791 -10.61427
#
# Velocity S-wave (km/s) = -1.96722 -2.12830 -2.04935
# Velocity P-wave (km/s) = 2.34975 4.17158 3.38551
#
# Compressibility (1/GPa) = 0.03704405
#
# Stress axis : x y z
#
# Youngs Moduli (GPa) = 169.07326 136.39475 24.80346
#
# Poissons Ratio (x) = 0.18848 0.05834
# Poissons Ratio (y) = 0.23364 0.11226
# Poissons Ratio (z) = 0.39765 0.61729
#
# Static dielectric constant tensor:
#      x y z
#    x 2.022750 0.000000 0.000000 
#    y 0.000000 2.246080 0.000000 
#    z 0.000000 0.000000 2.354100 
# 
# From -- ./inp_files/46553.got.cif
#   From: 2010.05.17/outbox.cif.g08.bks.cpg/sg68_24_cif.got.tgz:46553.got - 2010.06.03 18:57:09.
