data_PCOD9507688
_publ_section_title
;
Structure prediction by ZEFSAII (Michael W. Deem and Ramdas Pophale) SiO2 
 PCOD9507688
Probable space group: C C C A
;
_chemical_formula_sum "Si O2"
_cell_formula_units_Z 68
_cell_length_a 15.608562
_cell_length_b 19.880546
_cell_length_c 9.882803
_cell_angle_alpha 90.000000
_cell_angle_beta 90.000000
_cell_angle_gamma 90.000000
_cell_volume 3066.700330
_symmetry_space_group_name_H-M "C C C A"
_symmetry_group_IT_number 68
_space_group.IT_coordinate_system_code '2'
_symmetry_cell_setting 'orthorhombic'
loop_
_space_group_symop_operation_xyz
x,y,z
-x,1/2-y,z
x,1/2-y,1/2-z
-x,y,1/2-z
-x,-y,-z
x,1/2+y,-z
-x,1/2+y,1/2+z
x,-y,1/2+z
1/2+x,1/2+y,z
1/2-x,-y,z
1/2+x,-y,1/2-z
1/2-x,1/2+y,1/2-z
1/2-x,1/2-y,-z
1/2+x,y,-z
1/2-x,y,1/2+z
1/2+x,1/2-y,1/2+z
loop_
_atom_site_type_symbol
_atom_site_label
_atom_site_fract_x
_atom_site_fract_y
_atom_site_fract_z
Si Si1 0.000000 0.250000 0.750000
Si Si2 0.933176 0.073481 0.136679
Si Si3 0.210296 0.426483 0.321098
Si Si4 0.654660 0.678944 0.716668
Si Si5 0.076166 0.421355 0.564958
O O1 0.934121 0.291605 0.657668
O O2 0.839564 0.096642 0.184463
O O3 0.000000 0.097835 0.250000
O O4 0.980641 0.088244 0.995827
O O5 0.926599 0.992122 0.143207
O O6 0.250000 0.500000 0.300809
O O7 0.283215 0.372598 0.355846
O O8 0.140452 0.431388 0.439206
O O9 0.701282 0.750000 0.750000
O O10 0.616200 0.636975 0.843733
#
# Coordination Sequence:
#
# PCOD9507688 Si02
#       5
#     4  16  16  16  16
#     4   8  24  44  60  84 120 188 202 268 300 408
#     4   9  20  37  61  96 128 165 213 273 333 393
#     4  11  22  37  63 100 134 164 219 290 328 392
#     4  10  23  43  61  88 131 171 226 264 327 405
#     4  10  21  37  64  93 127 175 210 269 343 385
#
# _framework density 22.173670000000001
#
# number of rings (size 3 to 8) (size 9 to 14) (size 15 to 20)
#    0.706    1.412    2.353    0.000    4.941    2.824 
#    0.000    0.000    0.000    4.941    0.000    0.000 
#    0.000    0.000    0.000    0.000    0.000    0.000 
#
# Total GULP energy -189362.679565 kJ/mol
# GULP energy per Si atom -5569.490575 kJ/mol
# Density = 2.212320 g / cm^3
# Si number density = 22.173670 Si / 1000 Ang^3
#
#
#
# Elastic Constant Matrix: (Units=GPa)
#
#
# Indices 1 2 3 4 5 6 
#
# 1 122.9234 29.7527 14.1370 0.0000 0.0000 0.0000
# 2 29.7527 92.9532 -0.6064 0.0000 0.0000 0.0000
# 3 14.1370 -0.6064 31.6212 0.0000 0.0000 0.0000
# 4 0.0000 0.0000 0.0000 13.9883 0.0000 0.0000
# 5 0.0000 0.0000 0.0000 0.0000 23.1618 0.0000
# 6 0.0000 0.0000 0.0000 0.0000 0.0000 30.8115
#
#
#
# Elastic Compliance Matrix: (Units=1/GPa)
#
#
# Indices 1 2 3 4 5 6 
#
# 1 0.009354 -0.003022 -0.004240 0.000000 0.000000 0.000000
# 2 -0.003022 0.011736 0.001576 0.000000 0.000000 0.000000
# 3 -0.004240 0.001576 0.033550 0.000000 0.000000 0.000000
# 4 0.000000 0.000000 0.000000 0.071488 0.000000 0.000000
# 5 0.000000 0.000000 0.000000 0.000000 0.043175 0.000000
# 6 0.000000 0.000000 0.000000 0.000000 0.000000 0.032455
#
#
# Mechanical properties :
#
#
# Convention : Reuss Voigt Hill
#
# Bulk Modulus (GPa) = 23.11147 37.11826 30.11487
# Shear Modulus (GPa) = 21.97293 27.20660 24.58977
#
# Velocity S-wave (km/s) = 3.15135 3.50662 3.33372
# Velocity P-wave (km/s) = 4.86692 5.75946 5.33190
#
# Compressibility (1/GPa) = 0.04326855
#
# Stress axis : x y z
#
# Youngs Moduli (GPa) = 106.90418 85.21076 29.80609
#
# Poissons Ratio (x) = 0.25749 0.12638
# Poissons Ratio (y) = 0.32304 -0.04697
# Poissons Ratio (z) = 0.45327 -0.13429
#
# Static dielectric constant tensor:
#      x y z
#    x 1.880690 0.000000 0.000000 
#    y 0.000000 1.849900 0.000000 
#    z 0.000000 0.000000 1.835460 
# 
# From -- ./inp_files/13010.got.cif
#   From: 2010.05.17/outbox.cif.g08.bks.cpg/sg68_7_cif.got.tgz:13010.got - 2010.06.03 18:57:09.
