data_PCOD9507352
_publ_section_title
;
Structure prediction by ZEFSAII (Michael W. Deem and Ramdas Pophale) SiO2 
 PCOD9507352
Probable space group: C C C A
;
_chemical_formula_sum "Si O2"
_cell_formula_units_Z 88
_cell_length_a 9.612700
_cell_length_b 18.160736
_cell_length_c 20.820570
_cell_angle_alpha 90.000000
_cell_angle_beta 90.000000
_cell_angle_gamma 90.000000
_cell_volume 3634.724086
_symmetry_space_group_name_H-M "C C C A"
_symmetry_group_IT_number 68
_space_group.IT_coordinate_system_code '2'
_symmetry_cell_setting 'orthorhombic'
loop_
_space_group_symop_operation_xyz
x,y,z
-x,1/2-y,z
x,1/2-y,1/2-z
-x,y,1/2-z
-x,-y,-z
x,1/2+y,-z
-x,1/2+y,1/2+z
x,-y,1/2+z
1/2+x,1/2+y,z
1/2-x,-y,z
1/2+x,-y,1/2-z
1/2-x,1/2+y,1/2-z
1/2-x,1/2-y,-z
1/2+x,y,-z
1/2-x,y,1/2+z
1/2+x,1/2-y,1/2+z
loop_
_atom_site_type_symbol
_atom_site_label
_atom_site_fract_x
_atom_site_fract_y
_atom_site_fract_z
Si Si1 0.175882 0.344823 0.468546
Si Si2 0.408150 0.568955 0.019918
Si Si3 0.558286 0.977610 0.152036
Si Si4 0.276399 0.108551 0.287244
Si Si5 0.750000 0.500000 0.673627
Si Si6 0.335031 0.270426 0.109824
O O1 0.285735 0.411537 0.472213
O O2 0.231958 0.296889 0.408933
O O3 0.187908 0.314404 0.542271
O O4 0.014154 0.363932 0.467646
O O5 0.359926 0.547739 0.089607
O O6 0.500000 0.500000 0.000000
O O7 0.618174 0.918315 0.201473
O O8 0.394635 0.978177 0.140923
O O9 0.613565 0.056170 0.175150
O O10 0.297793 0.186456 0.323843
O O11 0.294039 0.073572 0.215657
O O12 0.500000 0.250000 0.112704
#
# Coordination Sequence:
#
# PCOD9507352 Si02
#       6
#    16  16  16  16   8  16
#     4  11  24  40  58  94 136 177 218 260 325 418
#     4  12  24  38  64  99 136 164 212 277 339 407
#     4  10  22  38  66  98 128 164 213 287 343 384
#     4  10  20  41  65  89 127 170 221 274 333 387
#     4  10  22  40  68 106 126 164 228 296 346 392
#     4  11  22  39  62  89 132 184 222 257 322 407
#
# _framework density 24.210916000000001
#
# number of rings (size 3 to 8) (size 9 to 14) (size 15 to 20)
#    0.000    1.455    3.636    3.818    5.091    0.000 
#    0.000    0.000    0.000    7.636    0.000   15.273 
#    0.000    0.000    0.000    0.000    0.000    0.000 
#
# Total GULP energy -245033.922702 kJ/mol
# GULP energy per Si atom -5568.952789 kJ/mol
# Density = 2.415581 g / cm^3
# Si number density = 24.210916 Si / 1000 Ang^3
#
#
#
# Elastic Constant Matrix: (Units=GPa)
#
#
# Indices 1 2 3 4 5 6 
#
# 1 180.7185 35.5262 17.9858 0.0000 0.0000 0.0000
# 2 35.5262 58.3884 24.7453 0.0000 0.0000 0.0000
# 3 17.9858 24.7453 51.4373 0.0000 0.0000 0.0000
# 4 0.0000 0.0000 0.0000 31.8698 0.0000 0.0000
# 5 0.0000 0.0000 0.0000 0.0000 29.6481 0.0000
# 6 0.0000 0.0000 0.0000 0.0000 0.0000 31.5268
#
#
#
# Elastic Compliance Matrix: (Units=1/GPa)
#
#
# Indices 1 2 3 4 5 6 
#
# 1 0.006294 -0.003638 -0.000450 0.000000 0.000000 0.000000
# 2 -0.003638 0.023616 -0.010089 0.000000 0.000000 0.000000
# 3 -0.000450 -0.010089 0.024452 0.000000 0.000000 0.000000
# 4 0.000000 0.000000 0.000000 0.031378 0.000000 0.000000
# 5 0.000000 0.000000 0.000000 0.000000 0.033729 0.000000
# 6 0.000000 0.000000 0.000000 0.000000 0.000000 0.031719
#
#
# Mechanical properties :
#
#
# Convention : Reuss Voigt Hill
#
# Bulk Modulus (GPa) = 38.45187 49.67321 44.06254
# Shear Modulus (GPa) = 26.56579 32.76140 29.66359
#
# Velocity S-wave (km/s) = 3.31609 3.68253 3.50411
# Velocity P-wave (km/s) = 5.52978 6.21633 5.88308
#
# Compressibility (1/GPa) = 0.02600654
#
# Stress axis : x y z
#
# Youngs Moduli (GPa) = 158.89323 42.34367 40.89614
#
# Poissons Ratio (x) = 0.15407 0.01841
# Poissons Ratio (y) = 0.57813 0.41260
# Poissons Ratio (z) = 0.07154 0.42721
#
# Static dielectric constant tensor:
#      x y z
#    x 1.905420 0.000000 0.000000 
#    y 0.000000 2.076930 0.000000 
#    z 0.000000 0.000000 3.328960 
# 
# From -- ./inp_files/43141.got.cif
#   From: 2010.05.17/outbox.cif.g08.bks.cpg/sg68_22_cif.got.tgz:43141.got - 2010.06.03 18:57:09.
