data_PCOD9507821
_publ_section_title
;
Structure prediction by ZEFSAII (Michael W. Deem and Ramdas Pophale) SiO2 
 PCOD9507821
Probable space group: C C C A
;
_chemical_formula_sum "Si O2"
_cell_formula_units_Z 72
_cell_length_a 12.722592
_cell_length_b 8.868672
_cell_length_c 26.981616
_cell_angle_alpha 90.000000
_cell_angle_beta 90.000000
_cell_angle_gamma 90.000000
_cell_volume 3044.403064
_symmetry_space_group_name_H-M "C C C A"
_symmetry_group_IT_number 68
_space_group.IT_coordinate_system_code '2'
_symmetry_cell_setting 'orthorhombic'
loop_
_space_group_symop_operation_xyz
x,y,z
-x,1/2-y,z
x,1/2-y,1/2-z
-x,y,1/2-z
-x,-y,-z
x,1/2+y,-z
-x,1/2+y,1/2+z
x,-y,1/2+z
1/2+x,1/2+y,z
1/2-x,-y,z
1/2+x,-y,1/2-z
1/2-x,1/2+y,1/2-z
1/2-x,1/2-y,-z
1/2+x,y,-z
1/2-x,y,1/2+z
1/2+x,1/2-y,1/2+z
loop_
_atom_site_type_symbol
_atom_site_label
_atom_site_fract_x
_atom_site_fract_y
_atom_site_fract_z
Si Si1 0.897304 0.650436 0.529477
Si Si2 0.602418 0.463389 0.721346
Si Si3 0.292404 0.647736 0.573215
Si Si4 0.369210 0.934077 0.615863
Si Si5 0.773025 0.750000 0.250000
O O1 0.805267 0.752154 0.553709
O O2 0.854587 0.598910 0.476269
O O3 0.915815 0.513332 0.567174
O O4 0.000000 0.750000 0.523693
O O5 0.500000 0.413574 0.750000
O O6 0.576368 0.525465 0.667026
O O7 0.687063 0.328069 0.713316
O O8 0.652535 0.602675 0.753583
O O9 0.250000 0.500000 0.599743
O O10 0.361197 0.756820 0.606696
O O11 0.250000 0.000000 0.619402
#
# Coordination Sequence:
#
# PCOD9507821 Si02
#       5
#    16  16  16  16   8
#     4  10  21  38  65  94 140 184 227 280 345 419
#     4  11  23  45  73 100 137 183 239 296 367 429
#     4  10  21  39  63  96 133 185 230 281 348 410
#     4  10  21  43  67  93 142 181 225 293 351 427
#     4  10  22  44  70  98 136 178 222 304 354 412
#
# _framework density 23.649954999999999
#
# number of rings (size 3 to 8) (size 9 to 14) (size 15 to 20)
#    0.000    1.778    2.222    4.000    0.000    5.333 
#    4.000    4.444    0.000    0.000    0.000    0.000 
#    0.000    0.000    0.000    0.000    0.000    0.000 
#
# Total GULP energy -201089.272970 kJ/mol
# GULP energy per Si atom -5585.813138 kJ/mol
# Density = 2.359613 g / cm^3
# Si number density = 23.649955 Si / 1000 Ang^3
#
#
#
# Elastic Constant Matrix: (Units=GPa)
#
#
# Indices 1 2 3 4 5 6 
#
# 1 89.1454 13.2588 25.3138 0.0000 0.0000 0.0000
# 2 13.2588 138.6856 58.8058 0.0000 0.0000 0.0000
# 3 25.3138 58.8058 95.9049 0.0000 0.0000 0.0000
# 4 0.0000 0.0000 0.0000 24.7723 0.0000 0.0000
# 5 0.0000 0.0000 0.0000 0.0000 -0.6154 0.0000
# 6 0.0000 0.0000 0.0000 0.0000 0.0000 27.0199
#
#
#
# Elastic Compliance Matrix: (Units=1/GPa)
#
#
# Indices 1 2 3 4 5 6 
#
# 1 0.012134 0.000268 -0.003367 0.000000 0.000000 0.000000
# 2 0.000268 0.009750 -0.006049 0.000000 0.000000 0.000000
# 3 -0.003367 -0.006049 0.015025 0.000000 0.000000 0.000000
# 4 0.000000 0.000000 0.000000 0.040368 0.000000 0.000000
# 5 0.000000 0.000000 0.000000 0.000000 -1.624919 0.000000
# 6 0.000000 0.000000 0.000000 0.000000 0.000000 0.037010
#
#
# Mechanical properties :
#
#
# Convention : Reuss Voigt Hill
#
# Bulk Modulus (GPa) = 53.72845 57.61032 55.66938
# Shear Modulus (GPa) = -3.36444 25.32584 10.98070
#
# Velocity S-wave (km/s) = -1.19402 3.27595 2.15710
# Velocity P-wave (km/s) = 4.56800 6.22267 5.45840
#
# Compressibility (1/GPa) = 0.01861211
#
# Stress axis : x y z
#
# Youngs Moduli (GPa) = 82.41394 102.56570 66.55733
#
# Poissons Ratio (x) = -0.02744 0.22408
# Poissons Ratio (y) = -0.02205 0.40260
# Poissons Ratio (z) = 0.27747 0.62041
#
# Static dielectric constant tensor:
#      x y z
#    x 1.944260 0.000000 0.000000 
#    y 0.000000 1.920390 0.000000 
#    z 0.000000 0.000000 1.865600 
# 
# From -- ./inp_files/55140.got.cif
#   From: 2010.05.17/outbox.cif.g08.bks.cpg/sg68_28_cif.got.tgz:55140.got - 2010.06.03 18:57:09.
