data_PCOD9507951
_publ_section_title
;
Structure prediction by ZEFSAII (Michael W. Deem and Ramdas Pophale) SiO2 
 PCOD9507951
Probable space group: C C C A
;
_chemical_formula_sum "Si O2"
_cell_formula_units_Z 80
_cell_length_a 10.533903
_cell_length_b 25.406805
_cell_length_c 13.878696
_cell_angle_alpha 90.000000
_cell_angle_beta 90.000000
_cell_angle_gamma 90.000000
_cell_volume 3714.394540
_symmetry_space_group_name_H-M "C C C A"
_symmetry_group_IT_number 68
_space_group.IT_coordinate_system_code '2'
_symmetry_cell_setting 'orthorhombic'
loop_
_space_group_symop_operation_xyz
x,y,z
-x,1/2-y,z
x,1/2-y,1/2-z
-x,y,1/2-z
-x,-y,-z
x,1/2+y,-z
-x,1/2+y,1/2+z
x,-y,1/2+z
1/2+x,1/2+y,z
1/2-x,-y,z
1/2+x,-y,1/2-z
1/2-x,1/2+y,1/2-z
1/2-x,1/2-y,-z
1/2+x,y,-z
1/2-x,y,1/2+z
1/2+x,1/2-y,1/2+z
loop_
_atom_site_type_symbol
_atom_site_label
_atom_site_fract_x
_atom_site_fract_y
_atom_site_fract_z
Si Si1 0.709555 0.917582 0.100127
Si Si2 0.000000 0.827183 0.250000
Si Si3 0.840414 0.091281 0.874456
Si Si4 0.705739 0.750000 0.750000
Si Si5 0.039395 0.511850 0.110031
Si Si6 0.648113 0.151334 0.765629
O O1 0.847413 0.944918 0.107562
O O2 0.703824 0.865141 0.161755
O O3 0.606379 0.958533 0.144300
O O4 0.672550 0.908491 0.989275
O O5 0.071501 0.863438 0.172478
O O6 0.104367 0.789327 0.299591
O O7 0.701973 0.104946 0.833401
O O8 0.912683 0.037375 0.844538
O O9 0.796980 0.792451 0.800659
O O10 0.000000 0.500000 0.000000
O O11 0.500000 0.154016 0.750000
#
# Coordination Sequence:
#
# PCOD9507951 Si02
#       6
#    16   8  16   8  16  16
#     4  10  22  40  61  92 130 169 212 263 321 375
#     4   9  18  38  66 100 112 162 218 257 320 386
#     4  10  21  39  66  90 129 169 211 265 316 387
#     4   9  19  40  68  82 129 159 204 276 324 361
#     4   9  19  38  60  90 127 169 208 261 313 370
#     4  11  24  42  61  95 125 170 211 266 324 383
#
# _framework density 21.537828999999999
#
# number of rings (size 3 to 8) (size 9 to 14) (size 15 to 20)
#    0.000    2.200    0.000    2.700    5.600    0.000 
#    9.000    4.000    8.800    0.000    0.000    0.000 
#    0.000    0.000    0.000    0.000    0.000    0.000 
#
# Total GULP energy -222813.592854 kJ/mol
# GULP energy per Si atom -5570.339821 kJ/mol
# Density = 2.148881 g / cm^3
# Si number density = 21.537829 Si / 1000 Ang^3
#
#
#
# Elastic Constant Matrix: (Units=GPa)
#
#
# Indices 1 2 3 4 5 6 
#
# 1 115.1004 71.0434 10.9249 0.0000 0.0000 0.0000
# 2 71.0434 88.6950 24.2742 0.0000 0.0000 0.0000
# 3 10.9249 24.2742 72.1891 0.0000 0.0000 0.0000
# 4 0.0000 0.0000 0.0000 3.6981 0.0000 0.0000
# 5 0.0000 0.0000 0.0000 0.0000 35.6305 0.0000
# 6 0.0000 0.0000 0.0000 0.0000 0.0000 23.5714
#
#
#
# Elastic Compliance Matrix: (Units=1/GPa)
#
#
# Indices 1 2 3 4 5 6 
#
# 1 0.017517 -0.014654 0.002276 0.000000 0.000000 0.000000
# 2 -0.014654 0.024676 -0.006080 0.000000 0.000000 0.000000
# 3 0.002276 -0.006080 0.015552 0.000000 0.000000 0.000000
# 4 0.000000 0.000000 0.000000 0.270409 0.000000 0.000000
# 5 0.000000 0.000000 0.000000 0.000000 0.028066 0.000000
# 6 0.000000 0.000000 0.000000 0.000000 0.000000 0.042424
#
#
# Mechanical properties :
#
#
# Convention : Reuss Voigt Hill
#
# Bulk Modulus (GPa) = 48.00545 54.27438 51.13991
# Shear Modulus (GPa) = 11.29938 23.89614 17.59776
#
# Velocity S-wave (km/s) = 2.29296 3.33452 2.86153
# Velocity P-wave (km/s) = 5.41734 6.33085 5.89182
#
# Compressibility (1/GPa) = 0.02083097
#
# Stress axis : x y z
#
# Youngs Moduli (GPa) = 57.08867 40.52548 64.29886
#
# Poissons Ratio (x) = 0.59384 -0.14637
# Poissons Ratio (y) = 0.83655 0.39093
# Poissons Ratio (z) = -0.12996 0.24639
#
# Static dielectric constant tensor:
#      x y z
#    x 1.853150 0.000000 0.000000 
#    y 0.000000 1.819370 0.000000 
#    z 0.000000 0.000000 1.813930 
# 
# From -- ./inp_files/21099.got.cif
#   From: 2010.05.17/outbox.cif.g08.bks.cpg/sg68_11_cif.got.tgz:21099.got - 2010.06.03 18:57:09.
