data_PCOD9507396
_publ_section_title
;
Structure prediction by ZEFSAII (Michael W. Deem and Ramdas Pophale) SiO2 
 PCOD9507396
Probable space group: C C C A
;
_chemical_formula_sum "Si O2"
_cell_formula_units_Z 64
_cell_length_a 13.066324
_cell_length_b 15.667269
_cell_length_c 14.604199
_cell_angle_alpha 90.000000
_cell_angle_beta 90.000000
_cell_angle_gamma 90.000000
_cell_volume 2989.678342
_symmetry_space_group_name_H-M "C C C A"
_symmetry_group_IT_number 68
_space_group.IT_coordinate_system_code '2'
_symmetry_cell_setting 'orthorhombic'
loop_
_space_group_symop_operation_xyz
x,y,z
-x,1/2-y,z
x,1/2-y,1/2-z
-x,y,1/2-z
-x,-y,-z
x,1/2+y,-z
-x,1/2+y,1/2+z
x,-y,1/2+z
1/2+x,1/2+y,z
1/2-x,-y,z
1/2+x,-y,1/2-z
1/2-x,1/2+y,1/2-z
1/2-x,1/2-y,-z
1/2+x,y,-z
1/2-x,y,1/2+z
1/2+x,1/2-y,1/2+z
loop_
_atom_site_type_symbol
_atom_site_label
_atom_site_fract_x
_atom_site_fract_y
_atom_site_fract_z
Si Si1 0.582059 0.138467 0.830568
Si Si2 0.914608 0.182673 0.540108
Si Si3 0.960905 0.939111 0.351813
Si Si4 0.303737 0.204319 0.162166
O O1 0.500000 0.157703 0.750000
O O2 0.575725 0.180040 0.931262
O O3 0.694940 0.168965 0.802806
O O4 0.569484 0.037764 0.850733
O O5 0.811811 0.222449 0.583910
O O6 0.000000 0.250000 0.574137
O O7 0.948606 0.091293 0.580490
O O8 0.863526 0.879530 0.371320
O O9 0.000000 0.919474 0.250000
O O10 0.353620 0.250000 0.250000
#
# Coordination Sequence:
#
# PCOD9507396 Si02
#       4
#    16  16  16  16
#     4  11  25  40  62  94 140 167 203 272 346 379
#     4  10  22  39  67  93 126 171 223 265 320 393
#     4  10  20  42  66  93 122 170 222 273 315 390
#     4  11  22  39  69  92 126 168 226 269 315 392
#
# _framework density 21.406984999999999
#
# number of rings (size 3 to 8) (size 9 to 14) (size 15 to 20)
#    0.000    1.500    2.500    2.250    3.500    0.000 
#    0.000    0.000    5.500    0.000    0.000    0.000 
#    0.000    0.000    0.000    0.000    0.000    0.000 
#
# Total GULP energy -178306.422616 kJ/mol
# GULP energy per Si atom -5572.075707 kJ/mol
# Density = 2.135826 g / cm^3
# Si number density = 21.406985 Si / 1000 Ang^3
#
#
#
# Elastic Constant Matrix: (Units=GPa)
#
#
# Indices 1 2 3 4 5 6 
#
# 1 75.9915 34.1768 15.6056 0.0000 0.0000 0.0000
# 2 34.1768 132.0650 14.3124 0.0000 0.0000 0.0000
# 3 15.6056 14.3124 122.4758 0.0000 0.0000 0.0000
# 4 0.0000 0.0000 0.0000 55.9641 0.0000 0.0000
# 5 0.0000 0.0000 0.0000 0.0000 24.0240 0.0000
# 6 0.0000 0.0000 0.0000 0.0000 0.0000 29.0324
#
#
#
# Elastic Compliance Matrix: (Units=1/GPa)
#
#
# Indices 1 2 3 4 5 6 
#
# 1 0.015157 -0.003761 -0.001492 0.000000 0.000000 0.000000
# 2 -0.003761 0.008602 -0.000526 0.000000 0.000000 0.000000
# 3 -0.001492 -0.000526 0.008416 0.000000 0.000000 0.000000
# 4 0.000000 0.000000 0.000000 0.017869 0.000000 0.000000
# 5 0.000000 0.000000 0.000000 0.000000 0.041625 0.000000
# 6 0.000000 0.000000 0.000000 0.000000 0.000000 0.034444
#
#
# Mechanical properties :
#
#
# Convention : Reuss Voigt Hill
#
# Bulk Modulus (GPa) = 48.50010 50.96909 49.73460
# Shear Modulus (GPa) = 34.59153 39.56659 37.07906
#
# Velocity S-wave (km/s) = 4.02419 4.30385 4.16637
# Velocity P-wave (km/s) = 6.65564 6.96841 6.81382
#
# Compressibility (1/GPa) = 0.02061851
#
# Stress axis : x y z
#
# Youngs Moduli (GPa) = 65.97553 116.24806 118.81510
#
# Poissons Ratio (x) = 0.43719 0.17725
# Poissons Ratio (y) = 0.24812 0.06250
# Poissons Ratio (z) = 0.09842 0.06115
#
# Static dielectric constant tensor:
#      x y z
#    x 1.875940 0.000000 0.000000 
#    y 0.000000 1.757730 0.000000 
#    z 0.000000 0.000000 1.794690 
# 
# From -- ./inp_files/20407.got.cif
#   From: 2010.05.17/outbox.cif.g08.bks.cpg/sg68_11_cif.got.tgz:20407.got - 2010.06.03 18:57:09.
