data_PCOD9507770
_publ_section_title
;
Structure prediction by ZEFSAII (Michael W. Deem and Ramdas Pophale) SiO2 
 PCOD9507770
Probable space group: C C C A
;
_chemical_formula_sum "Si O2"
_cell_formula_units_Z 68
_cell_length_a 5.065419
_cell_length_b 20.516818
_cell_length_c 26.214301
_cell_angle_alpha 90.000000
_cell_angle_beta 90.000000
_cell_angle_gamma 90.000000
_cell_volume 2724.354778
_symmetry_space_group_name_H-M "C C C A"
_symmetry_group_IT_number 68
_space_group.IT_coordinate_system_code '2'
_symmetry_cell_setting 'orthorhombic'
loop_
_space_group_symop_operation_xyz
x,y,z
-x,1/2-y,z
x,1/2-y,1/2-z
-x,y,1/2-z
-x,-y,-z
x,1/2+y,-z
-x,1/2+y,1/2+z
x,-y,1/2+z
1/2+x,1/2+y,z
1/2-x,-y,z
1/2+x,-y,1/2-z
1/2-x,1/2+y,1/2-z
1/2-x,1/2-y,-z
1/2+x,y,-z
1/2-x,y,1/2+z
1/2+x,1/2-y,1/2+z
loop_
_atom_site_type_symbol
_atom_site_label
_atom_site_fract_x
_atom_site_fract_y
_atom_site_fract_z
Si Si1 0.500000 0.036740 0.750000
Si Si2 0.000000 0.250000 0.250000
Si Si3 0.744326 0.357125 0.178455
Si Si4 0.962574 0.677425 0.480629
Si Si5 0.761007 0.373195 0.386361
Si Si6 0.750000 0.000000 0.538710
O O1 0.652440 0.080435 0.790718
O O2 0.750000 0.000000 0.724927
O O3 0.815023 0.295482 0.214221
O O4 0.444289 0.368734 0.160884
O O5 0.945541 0.356210 0.131016
O O6 0.242791 0.643688 0.484780
O O7 0.000000 0.750000 0.501570
O O8 0.849936 0.680854 0.424710
O O9 0.745167 0.438386 0.421321
O O10 0.500000 0.000000 0.500000
#
# Coordination Sequence:
#
# PCOD9507770 Si02
#       6
#     8   4  16  16  16   8
#     4  11  24  45  70  95 140 175 224 294 372 409
#     4  10  28  54  72 106 156 188 240 308 408 420
#     4  11  27  44  73 105 138 188 235 301 356 453
#     4  10  21  38  61  92 133 175 221 280 344 407
#     4  12  25  42  71 105 138 186 246 284 353 444
#     4  12  26  46  72 104 154 198 234 308 370 426
#
# _framework density 24.960041
#
# number of rings (size 3 to 8) (size 9 to 14) (size 15 to 20)
#    0.000    0.941    0.000    5.647    8.235    3.765 
#    0.000    0.000    0.000    0.000    0.000    0.000 
#    0.000    0.000    0.000    0.000    0.000    0.000 
#
# Total GULP energy -190079.214039 kJ/mol
# GULP energy per Si atom -5590.565119 kJ/mol
# Density = 2.490323 g / cm^3
# Si number density = 24.960041 Si / 1000 Ang^3
#
#
#
# Elastic Constant Matrix: (Units=GPa)
#
#
# Indices 1 2 3 4 5 6 
#
# 1 127.4895 26.7635 17.4711 0.0000 0.0000 0.0000
# 2 26.7635 111.4052 32.0668 0.0000 0.0000 0.0000
# 3 17.4711 32.0668 96.3498 0.0000 0.0000 0.0000
# 4 0.0000 0.0000 0.0000 173.4933 0.0000 0.0000
# 5 0.0000 0.0000 0.0000 0.0000 59.1682 0.0000
# 6 0.0000 0.0000 0.0000 0.0000 0.0000 18.4311
#
#
#
# Elastic Compliance Matrix: (Units=1/GPa)
#
#
# Indices 1 2 3 4 5 6 
#
# 1 0.008336 -0.001734 -0.000935 0.000000 0.000000 0.000000
# 2 -0.001734 0.010288 -0.003110 0.000000 0.000000 0.000000
# 3 -0.000935 -0.003110 0.011583 0.000000 0.000000 0.000000
# 4 0.000000 0.000000 0.000000 0.005764 0.000000 0.000000
# 5 0.000000 0.000000 0.000000 0.000000 0.016901 0.000000
# 6 0.000000 0.000000 0.000000 0.000000 0.000000 0.054256
#
#
# Mechanical properties :
#
#
# Convention : Reuss Voigt Hill
#
# Bulk Modulus (GPa) = 53.61541 54.20526 53.91033
# Shear Modulus (GPa) = 40.03196 67.48139 53.75668
#
# Velocity S-wave (km/s) = 4.00914 5.20523 4.64584
# Velocity P-wave (km/s) = 6.55424 7.60854 7.10099
#
# Compressibility (1/GPa) = 0.01865135
#
# Stress axis : x y z
#
# Youngs Moduli (GPa) = 119.96485 97.20286 86.33168
#
# Poissons Ratio (x) = 0.16851 0.08068
# Poissons Ratio (y) = 0.20796 0.26846
# Poissons Ratio (z) = 0.11212 0.30226
#
# Static dielectric constant tensor:
#      x y z
#    x 2.108650 0.000000 0.000000 
#    y 0.000000 2.075420 0.000000 
#    z 0.000000 0.000000 2.011030 
# 
# From -- ./inp_files/48224.got.cif
#   From: 2010.05.17/outbox.cif.g08.bks.cpg/sg68_25_cif.got.tgz:48224.got - 2010.06.03 18:57:09.
