data_PCOD9507413
_publ_section_title
;
Structure prediction by ZEFSAII (Michael W. Deem and Ramdas Pophale) SiO2 
 PCOD9507413
Probable space group: C C C A
;
_chemical_formula_sum "Si O2"
_cell_formula_units_Z 64
_cell_length_a 10.783386
_cell_length_b 20.912981
_cell_length_c 12.582818
_cell_angle_alpha 90.000000
_cell_angle_beta 90.000000
_cell_angle_gamma 90.000000
_cell_volume 2837.585846
_symmetry_space_group_name_H-M "C C C A"
_symmetry_group_IT_number 68
_space_group.IT_coordinate_system_code '2'
_symmetry_cell_setting 'orthorhombic'
loop_
_space_group_symop_operation_xyz
x,y,z
-x,1/2-y,z
x,1/2-y,1/2-z
-x,y,1/2-z
-x,-y,-z
x,1/2+y,-z
-x,1/2+y,1/2+z
x,-y,1/2+z
1/2+x,1/2+y,z
1/2-x,-y,z
1/2+x,-y,1/2-z
1/2-x,1/2+y,1/2-z
1/2-x,1/2-y,-z
1/2+x,y,-z
1/2-x,y,1/2+z
1/2+x,1/2-y,1/2+z
loop_
_atom_site_type_symbol
_atom_site_label
_atom_site_fract_x
_atom_site_fract_y
_atom_site_fract_z
Si Si1 0.852789 0.129852 0.887767
Si Si2 0.930335 0.053169 0.069709
Si Si3 0.000000 0.528135 0.250000
Si Si4 0.000000 0.750000 0.025346
Si Si5 0.408048 0.331592 0.847901
O O1 0.923536 0.075702 0.823476
O O2 0.732442 0.151272 0.822757
O O3 0.828667 0.092470 0.001105
O O4 0.937555 0.192242 0.910259
O O5 0.030013 0.107092 0.098159
O O6 0.908256 0.016918 0.180701
O O7 0.000000 0.000000 0.000000
O O8 0.098027 0.721190 0.940754
O O9 0.500000 0.316696 0.750000
#
# Coordination Sequence:
#
# PCOD9507413 Si02
#       5
#    16  16   8   8  16
#     4  10  23  43  68  97 137 175 228 287 340 407
#     4   9  20  41  62  97 137 173 222 269 348 405
#     4  10  20  43  64 103 134 180 226 280 342 410
#     4  10  23  47  64  96 130 184 228 288 350 392
#     4  11  22  44  66  99 133 180 234 275 344 415
#
# _framework density 22.554383999999999
#
# number of rings (size 3 to 8) (size 9 to 14) (size 15 to 20)
#    0.000    2.000    1.250    1.125    0.000    4.500 
#   40.500    0.000    0.000    0.000    0.000    0.000 
#    0.000    0.000    0.000    0.000    0.000    0.000 
#
# Total GULP energy -178383.956476 kJ/mol
# GULP energy per Si atom -5574.498640 kJ/mol
# Density = 2.250305 g / cm^3
# Si number density = 22.554384 Si / 1000 Ang^3
#
#
#
# Elastic Constant Matrix: (Units=GPa)
#
#
# Indices 1 2 3 4 5 6 
#
# 1 81.2809 16.5582 31.9964 0.0000 0.0000 0.0000
# 2 16.5582 120.5921 44.6661 0.0000 0.0000 0.0000
# 3 31.9964 44.6661 89.6179 0.0000 0.0000 0.0000
# 4 0.0000 0.0000 0.0000 57.5089 0.0000 0.0000
# 5 0.0000 0.0000 0.0000 0.0000 22.5424 0.0000
# 6 0.0000 0.0000 0.0000 0.0000 0.0000 0.8979
#
#
#
# Elastic Compliance Matrix: (Units=1/GPa)
#
#
# Indices 1 2 3 4 5 6 
#
# 1 0.014316 -0.000089 -0.005067 0.000000 0.000000 0.000000
# 2 -0.000089 0.010170 -0.005037 0.000000 0.000000 0.000000
# 3 -0.005067 -0.005037 0.015478 0.000000 0.000000 0.000000
# 4 0.000000 0.000000 0.000000 0.017389 0.000000 0.000000
# 5 0.000000 0.000000 0.000000 0.000000 0.044361 0.000000
# 6 0.000000 0.000000 0.000000 0.000000 0.000000 1.113663
#
#
# Mechanical properties :
#
#
# Convention : Reuss Voigt Hill
#
# Bulk Modulus (GPa) = 51.07728 53.10357 52.09042
# Shear Modulus (GPa) = 4.02483 29.40787 16.71635
#
# Velocity S-wave (km/s) = 1.33730 3.61482 2.72537
# Velocity P-wave (km/s) = 5.00799 6.40456 5.74884
#
# Compressibility (1/GPa) = 0.01957818
#
# Stress axis : x y z
#
# Youngs Moduli (GPa) = 69.85343 98.32493 64.60758
#
# Poissons Ratio (x) = 0.00875 0.32735
# Poissons Ratio (y) = 0.00621 0.32544
# Poissons Ratio (z) = 0.35393 0.49528
#
# Static dielectric constant tensor:
#      x y z
#    x 2.036850 0.000000 0.000000 
#    y 0.000000 1.860760 0.000000 
#    z 0.000000 0.000000 1.992000 
# 
# From -- ./inp_files/19255.got.cif
#   From: 2010.05.17/outbox.cif.g08.bks.cpg/sg68_10_cif.got.tgz:19255.got - 2010.06.03 18:57:09.
