data_PCOD9507158
_publ_section_title
;
Structure prediction by ZEFSAII (Michael W. Deem and Ramdas Pophale) SiO2 
 PCOD9507158
Probable space group: C C C A
;
_chemical_formula_sum "Si O2"
_cell_formula_units_Z 84
_cell_length_a 8.759921
_cell_length_b 17.626351
_cell_length_c 25.020157
_cell_angle_alpha 90.000000
_cell_angle_beta 90.000000
_cell_angle_gamma 90.000000
_cell_volume 3863.248407
_symmetry_space_group_name_H-M "C C C A"
_symmetry_group_IT_number 68
_space_group.IT_coordinate_system_code '2'
_symmetry_cell_setting 'orthorhombic'
loop_
_space_group_symop_operation_xyz
x,y,z
-x,1/2-y,z
x,1/2-y,1/2-z
-x,y,1/2-z
-x,-y,-z
x,1/2+y,-z
-x,1/2+y,1/2+z
x,-y,1/2+z
1/2+x,1/2+y,z
1/2-x,-y,z
1/2+x,-y,1/2-z
1/2-x,1/2+y,1/2-z
1/2-x,1/2-y,-z
1/2+x,y,-z
1/2-x,y,1/2+z
1/2+x,1/2-y,1/2+z
loop_
_atom_site_type_symbol
_atom_site_label
_atom_site_fract_x
_atom_site_fract_y
_atom_site_fract_z
Si Si1 0.750000 0.500000 0.818006
Si Si2 0.073559 0.325986 0.542506
Si Si3 0.421954 0.351958 0.157985
Si Si4 0.769594 0.408606 0.161329
Si Si5 0.000000 0.250000 0.750000
Si Si6 0.266631 0.087955 0.041615
Si Si7 0.000000 0.912990 0.750000
O O1 0.673313 0.570750 0.847215
O O2 0.616376 0.464888 0.782724
O O3 0.118608 0.308004 0.603630
O O4 0.200227 0.359096 0.504232
O O5 0.000000 0.250000 0.519339
O O6 0.942932 0.389792 0.548143
O O7 0.601154 0.372683 0.165148
O O8 0.396424 0.301938 0.210851
O O9 0.750000 0.500000 0.169678
O O10 0.814992 0.399354 0.099014
O O11 0.891080 0.376493 0.204183
O O12 0.250000 0.000000 0.027547
#
# Coordination Sequence:
#
# PCOD9507158 Si02
#       7
#     8  16  16  16   4  16   8
#     4  12  22  36  64  98 122 174 218 274 308 402
#     4  11  23  44  65  98 130 178 214 269 338 403
#     4  11  24  40  67  94 132 172 222 266 326 396
#     4  10  20  39  61  95 131 166 211 277 323 379
#     4  12  22  44  60  94 134 170 208 268 330 392
#     4  10  23  40  69  94 134 165 226 280 323 380
#     4  12  19  34  60  92 131 156 216 260 339 370
#
# _framework density 21.743359999999999
#
# number of rings (size 3 to 8) (size 9 to 14) (size 15 to 20)
#    0.000    1.143    3.810    2.857    1.333    1.524 
#    0.000    0.000    0.000    5.143    0.000    0.000 
#    0.000    0.000    0.000    0.000    0.000    0.000 
#
# Total GULP energy -234468.470263 kJ/mol
# GULP energy per Si atom -5582.582625 kJ/mol
# Density = 2.169387 g / cm^3
# Si number density = 21.743360 Si / 1000 Ang^3
#
#
#
# Elastic Constant Matrix: (Units=GPa)
#
#
# Indices 1 2 3 4 5 6 
#
# 1 74.8436 1.5792 30.7244 0.0000 0.0000 0.0000
# 2 1.5792 68.5381 17.4908 0.0000 0.0000 0.0000
# 3 30.7244 17.4908 132.7242 0.0000 0.0000 0.0000
# 4 0.0000 0.0000 0.0000 1302.1858 0.0000 0.0000
# 5 0.0000 0.0000 0.0000 0.0000 9.1643 0.0000
# 6 0.0000 0.0000 0.0000 0.0000 0.0000 26.4299
#
#
#
# Elastic Compliance Matrix: (Units=1/GPa)
#
#
# Indices 1 2 3 4 5 6 
#
# 1 0.014784 0.000551 -0.003495 0.000000 0.000000 0.000000
# 2 0.000551 0.015119 -0.002120 0.000000 0.000000 0.000000
# 3 -0.003495 -0.002120 0.008623 0.000000 0.000000 0.000000
# 4 0.000000 0.000000 0.000000 0.000768 0.000000 0.000000
# 5 0.000000 0.000000 0.000000 0.000000 0.109120 0.000000
# 6 0.000000 0.000000 0.000000 0.000000 0.000000 0.037836
#
#
# Mechanical properties :
#
#
# Convention : Reuss Voigt Hill
#
# Bulk Modulus (GPa) = 35.21328 41.74384 38.47856
# Shear Modulus (GPa) = 24.29033 282.64343 153.46688
#
# Velocity S-wave (km/s) = 3.34599 11.41371 8.41037
# Velocity P-wave (km/s) = 5.58190 13.89019 10.58525
#
# Compressibility (1/GPa) = 0.02839838
#
# Stress axis : x y z
#
# Youngs Moduli (GPa) = 67.63904 66.14301 115.97042
#
# Poissons Ratio (x) = -0.03646 0.40533
# Poissons Ratio (y) = -0.03729 0.24586
# Poissons Ratio (z) = 0.23640 0.14022
#
# Static dielectric constant tensor:
#      x y z
#    x 1.782550 0.000000 0.000000 
#    y 0.000000 1.811660 0.000000 
#    z 0.000000 0.000000 1.851250 
# 
# From -- ./inp_files/43086.got.cif
#   From: 2010.05.17/outbox.cif.g08.bks.cpg/sg68_22_cif.got.tgz:43086.got - 2010.06.03 18:57:09.
