data_PCOD9507091
_publ_section_title
;
Structure prediction by ZEFSAII (Michael W. Deem and Ramdas Pophale) SiO2 
 PCOD9507091
Probable space group: C C C A
;
_chemical_formula_sum "Si O2"
_cell_formula_units_Z 112
_cell_length_a 12.506351
_cell_length_b 21.113790
_cell_length_c 15.665856
_cell_angle_alpha 90.000000
_cell_angle_beta 90.000000
_cell_angle_gamma 90.000000
_cell_volume 4136.670614
_symmetry_space_group_name_H-M "C C C A"
_symmetry_group_IT_number 68
_space_group.IT_coordinate_system_code '2'
_symmetry_cell_setting 'orthorhombic'
loop_
_space_group_symop_operation_xyz
x,y,z
-x,1/2-y,z
x,1/2-y,1/2-z
-x,y,1/2-z
-x,-y,-z
x,1/2+y,-z
-x,1/2+y,1/2+z
x,-y,1/2+z
1/2+x,1/2+y,z
1/2-x,-y,z
1/2+x,-y,1/2-z
1/2-x,1/2+y,1/2-z
1/2-x,1/2-y,-z
1/2+x,y,-z
1/2-x,y,1/2+z
1/2+x,1/2-y,1/2+z
loop_
_atom_site_type_symbol
_atom_site_label
_atom_site_fract_x
_atom_site_fract_y
_atom_site_fract_z
Si Si1 0.839448 0.637679 0.391620
Si Si2 0.145073 0.622607 0.297772
Si Si3 0.375217 0.930912 0.402399
Si Si4 0.393992 0.414101 0.778760
Si Si5 0.122796 0.491007 0.922044
Si Si6 0.032691 0.679388 0.952805
Si Si7 0.234738 0.731871 0.848166
O O1 0.894488 0.630346 0.298899
O O2 0.751030 0.584424 0.408363
O O3 0.921570 0.641051 0.467784
O O4 0.772595 0.703515 0.391904
O O5 0.273676 0.610675 0.280969
O O6 0.102542 0.567991 0.358423
O O7 0.158366 0.688520 0.347035
O O8 0.388833 0.958303 0.306251
O O9 0.405116 0.975290 0.480937
O O10 0.434815 0.862670 0.416793
O O11 0.500000 0.374712 0.750000
O O12 0.414760 0.447894 0.868736
O O13 0.250000 0.500000 0.921371
O O14 0.133663 0.695701 0.890052
O O15 0.000000 0.750000 0.979136
O O16 0.208148 0.750000 0.750000
#
# Coordination Sequence:
#
# PCOD9507091 Si02
#       7
#    16  16  16  16  16  16  16
#     4  10  22  40  61  93 135 175 215 267 322 400
#     4   9  20  39  65  87 124 174 220 264 329 382
#     4  11  24  42  67  98 131 177 219 270 347 391
#     4  10  22  41  62  93 127 161 222 285 323 387
#     4  10  23  42  66  93 124 174 224 278 331 397
#     4  12  24  37  62  99 136 172 215 270 327 407
#     4  10  20  38  64  92 129 177 217 269 328 390
#
# _framework density 27.074914
#
# number of rings (size 3 to 8) (size 9 to 14) (size 15 to 20)
#    0.000    1.714    1.429    2.143    2.000    6.000 
#    0.000    0.000    0.000    0.000    0.000    0.000 
#    0.000    0.000    0.000    0.000    0.000    0.000 
#
# Total GULP energy -313257.155160 kJ/mol
# GULP energy per Si atom -5593.877771 kJ/mol
# Density = 2.701329 g / cm^3
# Si number density = 27.074914 Si / 1000 Ang^3
#
#
#
# Elastic Constant Matrix: (Units=GPa)
#
#
# Indices 1 2 3 4 5 6 
#
# 1 45.0682 2.2892 21.8307 0.0000 0.0000 0.0000
# 2 2.2892 76.9482 29.2258 0.0000 0.0000 0.0000
# 3 21.8307 29.2258 166.4403 0.0000 0.0000 0.0000
# 4 0.0000 0.0000 0.0000 48.9567 0.0000 0.0000
# 5 0.0000 0.0000 0.0000 0.0000 32.1276 0.0000
# 6 0.0000 0.0000 0.0000 0.0000 0.0000 44.7781
#
#
#
# Elastic Compliance Matrix: (Units=1/GPa)
#
#
# Indices 1 2 3 4 5 6 
#
# 1 0.023713 0.000510 -0.003200 0.000000 0.000000 0.000000
# 2 0.000510 0.013935 -0.002514 0.000000 0.000000 0.000000
# 3 -0.003200 -0.002514 0.006869 0.000000 0.000000 0.000000
# 4 0.000000 0.000000 0.000000 0.020426 0.000000 0.000000
# 5 0.000000 0.000000 0.000000 0.000000 0.031126 0.000000
# 6 0.000000 0.000000 0.000000 0.000000 0.000000 0.022332
#
#
# Mechanical properties :
#
#
# Convention : Reuss Voigt Hill
#
# Bulk Modulus (GPa) = 29.31710 43.90536 36.61123
# Shear Modulus (GPa) = 35.66868 40.84655 38.25761
#
# Velocity S-wave (km/s) = 3.63355 3.88835 3.76310
# Velocity P-wave (km/s) = 5.33434 6.03411 5.69498
#
# Compressibility (1/GPa) = 0.03410978
#
# Stress axis : x y z
#
# Youngs Moduli (GPa) = 42.17168 71.75988 145.57614
#
# Poissons Ratio (x) = -0.03659 0.46580
# Poissons Ratio (y) = -0.02150 0.36595
# Poissons Ratio (z) = 0.13494 0.18039
#
# Static dielectric constant tensor:
#      x y z
#    x 2.175780 0.000000 0.000000 
#    y 0.000000 2.156010 0.000000 
#    z 0.000000 0.000000 2.102320 
# 
# From -- ./inp_files/22619.got.cif
#   From: 2010.05.17/outbox.cif.g08.bks.cpg/sg68_12_cif.got.tgz:22619.got - 2010.06.03 18:57:09.
