data_PCOD9507992
_publ_section_title
;
Structure prediction by ZEFSAII (Michael W. Deem and Ramdas Pophale) SiO2 
 PCOD9507992
Probable space group: C C C A
;
_chemical_formula_sum "Si O2"
_cell_formula_units_Z 88
_cell_length_a 11.105563
_cell_length_b 24.465969
_cell_length_c 14.133437
_cell_angle_alpha 90.000000
_cell_angle_beta 90.000000
_cell_angle_gamma 90.000000
_cell_volume 3840.172990
_symmetry_space_group_name_H-M "C C C A"
_symmetry_group_IT_number 68
_space_group.IT_coordinate_system_code '2'
_symmetry_cell_setting 'orthorhombic'
loop_
_space_group_symop_operation_xyz
x,y,z
-x,1/2-y,z
x,1/2-y,1/2-z
-x,y,1/2-z
-x,-y,-z
x,1/2+y,-z
-x,1/2+y,1/2+z
x,-y,1/2+z
1/2+x,1/2+y,z
1/2-x,-y,z
1/2+x,-y,1/2-z
1/2-x,1/2+y,1/2-z
1/2-x,1/2-y,-z
1/2+x,y,-z
1/2-x,y,1/2+z
1/2+x,1/2-y,1/2+z
loop_
_atom_site_type_symbol
_atom_site_label
_atom_site_fract_x
_atom_site_fract_y
_atom_site_fract_z
Si Si1 0.595417 0.298563 0.096859
Si Si2 0.790692 0.440843 0.690981
Si Si3 0.000000 0.880754 0.250000
Si Si4 0.167459 0.669854 0.810490
Si Si5 0.624706 0.465994 0.981388
Si Si6 0.589299 0.653421 0.394397
O O1 0.500000 0.250000 0.095009
O O2 0.528575 0.344231 0.159920
O O3 0.724014 0.294318 0.148940
O O4 0.624662 0.318877 0.992184
O O5 0.750000 0.500000 0.719521
O O6 0.691653 0.394962 0.678043
O O7 0.848764 0.445159 0.587482
O O8 0.885533 0.418373 0.765836
O O9 0.161052 0.673954 0.697332
O O10 0.043814 0.675451 0.866839
O O11 0.750000 0.500000 0.956690
O O12 0.500000 0.500000 0.000000
O O13 0.601677 0.412622 0.913799
#
# Coordination Sequence:
#
# PCOD9507992 Si02
#       6
#    16  16   8  16  16  16
#     4  11  25  48  76 106 142 193 250 322 381 438
#     4  10  21  40  62 100 145 192 244 301 361 439
#     4  10  21  42  70 102 140 182 247 300 354 456
#     4  10  24  44  70 108 148 192 254 304 376 473
#     4  11  23  39  68 106 151 209 257 303 374 459
#     4  11  23  45  71 104 155 198 243 315 383 448
#
# _framework density 22.915634000000001
#
# number of rings (size 3 to 8) (size 9 to 14) (size 15 to 20)
#    0.000    1.455    3.636    2.455    0.000   10.182 
#    0.000    5.455    0.000    0.000    0.000    3.818 
#    0.000    0.000    0.000    0.000    0.000    0.000 
#
# Total GULP energy -245651.159484 kJ/mol
# GULP energy per Si atom -5582.980897 kJ/mol
# Density = 2.286348 g / cm^3
# Si number density = 22.915634 Si / 1000 Ang^3
#
#
#
# Elastic Constant Matrix: (Units=GPa)
#
#
# Indices 1 2 3 4 5 6 
#
# 1 105.8484 52.3652 80.1972 0.0000 0.0000 0.0000
# 2 52.3652 92.6670 29.6112 0.0000 0.0000 0.0000
# 3 80.1972 29.6112 146.5982 0.0000 0.0000 0.0000
# 4 0.0000 0.0000 0.0000 13.3993 0.0000 0.0000
# 5 0.0000 0.0000 0.0000 0.0000 -5.8668 0.0000
# 6 0.0000 0.0000 0.0000 0.0000 0.0000 43.7005
#
#
#
# Elastic Compliance Matrix: (Units=1/GPa)
#
#
# Indices 1 2 3 4 5 6 
#
# 1 0.021328 -0.008898 -0.009870 0.000000 0.000000 0.000000
# 2 -0.008898 0.015248 0.001788 0.000000 0.000000 0.000000
# 3 -0.009870 0.001788 0.011860 0.000000 0.000000 0.000000
# 4 0.000000 0.000000 0.000000 0.074631 0.000000 0.000000
# 5 0.000000 0.000000 0.000000 0.000000 -0.170449 0.000000
# 6 0.000000 0.000000 0.000000 0.000000 0.000000 0.022883
#
#
# Mechanical properties :
#
#
# Convention : Reuss Voigt Hill
#
# Bulk Modulus (GPa) = 69.08539 74.38452 71.73495
# Shear Modulus (GPa) = 349.99164 22.44261 186.21712
#
# Velocity S-wave (km/s) = 12.37183 3.13286 9.02433
# Velocity P-wave (km/s) = 15.30673 6.75404 11.83032
#
# Compressibility (1/GPa) = 0.01447484
#
# Stress axis : x y z
#
# Youngs Moduli (GPa) = 46.88722 65.58099 84.31888
#
# Poissons Ratio (x) = 0.58355 0.83224
# Poissons Ratio (y) = 0.41721 -0.15075
# Poissons Ratio (z) = 0.46278 -0.11725
#
# Static dielectric constant tensor:
#      x y z
#    x 1.647380 0.000000 0.000000 
#    y 0.000000 2.644270 0.000000 
#    z 0.000000 0.000000 1.761420 
# 
# From -- ./inp_files/21142.got.cif
#   From: 2010.05.17/outbox.cif.g08.bks.cpg/sg68_11_cif.got.tgz:21142.got - 2010.06.03 18:57:09.
