data_PCOD9507504
_publ_section_title
;
Structure prediction by ZEFSAII (Michael W. Deem and Ramdas Pophale) SiO2 
 PCOD9507504
Probable space group: C C C A
;
_chemical_formula_sum "Si O2"
_cell_formula_units_Z 56
_cell_length_a 14.412582
_cell_length_b 9.025083
_cell_length_c 22.145649
_cell_angle_alpha 90.000000
_cell_angle_beta 90.000000
_cell_angle_gamma 90.000000
_cell_volume 2880.589731
_symmetry_space_group_name_H-M "C C C A"
_symmetry_group_IT_number 68
_space_group.IT_coordinate_system_code '2'
_symmetry_cell_setting 'orthorhombic'
loop_
_space_group_symop_operation_xyz
x,y,z
-x,1/2-y,z
x,1/2-y,1/2-z
-x,y,1/2-z
-x,-y,-z
x,1/2+y,-z
-x,1/2+y,1/2+z
x,-y,1/2+z
1/2+x,1/2+y,z
1/2-x,-y,z
1/2+x,-y,1/2-z
1/2-x,1/2+y,1/2-z
1/2-x,1/2-y,-z
1/2+x,y,-z
1/2-x,y,1/2+z
1/2+x,1/2-y,1/2+z
loop_
_atom_site_type_symbol
_atom_site_label
_atom_site_fract_x
_atom_site_fract_y
_atom_site_fract_z
Si Si1 0.000000 0.750000 0.505315
Si Si2 0.717461 0.250000 0.250000
Si Si3 0.565836 0.001470 0.084852
Si Si4 0.049425 0.409897 0.809114
Si Si5 0.750000 0.000000 0.162511
O O1 0.946969 0.634890 0.462332
O O2 0.065398 0.650359 0.547593
O O3 0.651916 0.361717 0.210793
O O4 0.769370 0.356823 0.295829
O O5 0.477566 0.002832 0.130861
O O6 0.658453 0.025765 0.123182
O O7 0.000000 0.250000 0.818316
O O8 0.000000 0.478495 0.750000
#
# Coordination Sequence:
#
# PCOD9507504 Si02
#       5
#     8   8  16  16   8
#     4  10  24  40  60  78 110 166 200 222 272 348
#     4  10  21  34  58  87 116 150 178 227 306 348
#     4  11  21  40  60  84 114 151 197 235 278 335
#     4   9  15  35  61  78 102 158 180 218 279 365
#     4  12  22  36  58  90 120 142 184 250 286 332
#
# _framework density 19.440463999999999
#
# number of rings (size 3 to 8) (size 9 to 14) (size 15 to 20)
#    0.000    2.000    7.143    0.000    0.000    3.429 
#    0.000    0.000    0.000    0.000    0.000    0.000 
#    0.000    0.000    0.000    0.000    0.000    0.000 
#
# Total GULP energy -156106.395640 kJ/mol
# GULP energy per Si atom -5575.228416 kJ/mol
# Density = 1.939622 g / cm^3
# Si number density = 19.440464 Si / 1000 Ang^3
#
#
#
# Elastic Constant Matrix: (Units=GPa)
#
#
# Indices 1 2 3 4 5 6 
#
# 1 36.6197 14.2176 16.4457 0.0000 0.0000 0.0000
# 2 14.2176 80.6562 49.3323 0.0000 0.0000 0.0000
# 3 16.4457 49.3323 112.6244 0.0000 0.0000 0.0000
# 4 0.0000 0.0000 0.0000 14.1929 0.0000 0.0000
# 5 0.0000 0.0000 0.0000 0.0000 2.8817 0.0000
# 6 0.0000 0.0000 0.0000 0.0000 0.0000 6.4094
#
#
#
# Elastic Compliance Matrix: (Units=1/GPa)
#
#
# Indices 1 2 3 4 5 6 
#
# 1 0.029953 -0.003558 -0.002815 0.000000 0.000000 0.000000
# 2 -0.003558 0.017358 -0.007084 0.000000 0.000000 0.000000
# 3 -0.002815 -0.007084 0.012393 0.000000 0.000000 0.000000
# 4 0.000000 0.000000 0.000000 0.070458 0.000000 0.000000
# 5 0.000000 0.000000 0.000000 0.000000 0.347016 0.000000
# 6 0.000000 0.000000 0.000000 0.000000 0.000000 0.156022
#
#
# Mechanical properties :
#
#
# Convention : Reuss Voigt Hill
#
# Bulk Modulus (GPa) = 30.49678 43.32128 36.90903
# Shear Modulus (GPa) = 7.45107 14.69045 11.07076
#
# Velocity S-wave (km/s) = 1.95987 2.75192 2.38895
# Velocity P-wave (km/s) = 4.56539 5.69472 5.16104
#
# Compressibility (1/GPa) = 0.03279034
#
# Stress axis : x y z
#
# Youngs Moduli (GPa) = 33.38512 57.60972 80.69043
#
# Poissons Ratio (x) = 0.20498 0.22718
# Poissons Ratio (y) = 0.11879 0.57159
# Poissons Ratio (z) = 0.09399 0.40809
#
# Static dielectric constant tensor:
#      x y z
#    x 1.688780 0.000000 0.000000 
#    y 0.000000 1.690650 0.000000 
#    z 0.000000 0.000000 1.725880 
# 
# From -- ./inp_files/35625.got.cif
#   From: 2010.05.17/outbox.cif.g08.bks.cpg/sg68_18_cif.got.tgz:35625.got - 2010.06.03 18:57:09.
