data_PCOD9507756
_publ_section_title
;
Structure prediction by ZEFSAII (Michael W. Deem and Ramdas Pophale) SiO2 
 PCOD9507756
Probable space group: C C C A
;
_chemical_formula_sum "Si O2"
_cell_formula_units_Z 72
_cell_length_a 8.135065
_cell_length_b 28.188219
_cell_length_c 15.662115
_cell_angle_alpha 90.000000
_cell_angle_beta 90.000000
_cell_angle_gamma 90.000000
_cell_volume 3591.526480
_symmetry_space_group_name_H-M "C C C A"
_symmetry_group_IT_number 68
_space_group.IT_coordinate_system_code '2'
_symmetry_cell_setting 'orthorhombic'
loop_
_space_group_symop_operation_xyz
x,y,z
-x,1/2-y,z
x,1/2-y,1/2-z
-x,y,1/2-z
-x,-y,-z
x,1/2+y,-z
-x,1/2+y,1/2+z
x,-y,1/2+z
1/2+x,1/2+y,z
1/2-x,-y,z
1/2+x,-y,1/2-z
1/2-x,1/2+y,1/2-z
1/2-x,1/2-y,-z
1/2+x,y,-z
1/2-x,y,1/2+z
1/2+x,1/2-y,1/2+z
loop_
_atom_site_type_symbol
_atom_site_label
_atom_site_fract_x
_atom_site_fract_y
_atom_site_fract_z
Si Si1 0.154401 0.401315 0.415841
Si Si2 0.972844 0.131071 0.598227
Si Si3 0.000000 0.437930 0.750000
Si Si4 0.000000 0.859806 0.750000
Si Si5 0.671493 0.697589 0.790164
Si Si6 0.250000 0.500000 0.359252
O O1 0.328246 0.373659 0.400838
O O2 0.041313 0.389536 0.334423
O O3 0.177578 0.457864 0.416067
O O4 0.080419 0.385900 0.505337
O O5 0.920231 0.094705 0.674864
O O6 0.880883 0.181735 0.614156
O O7 0.873367 0.471567 0.701691
O O8 0.159932 0.828026 0.768327
O O9 0.685901 0.750000 0.750000
O O10 0.500000 0.679431 0.750000
#
# Coordination Sequence:
#
# PCOD9507756 Si02
#       6
#    16  16   8   8  16   8
#     4  11  24  39  68  94 144 176 237 274 341 401
#     4  11  22  42  62  98 130 185 214 287 337 402
#     4  10  21  38  61  85 136 171 229 276 337 392
#     4  12  22  44  68 103 132 189 214 290 342 410
#     4  11  22  42  72  95 133 169 223 279 345 414
#     4  10  22  38  58 100 126 192 228 278 324 398
#
# _framework density 20.047186
#
# number of rings (size 3 to 8) (size 9 to 14) (size 15 to 20)
#    0.000    1.111    3.333    3.667    0.000    6.222 
#    0.000    1.111    4.889    0.000    0.000    0.000 
#    0.000    0.000    0.000    0.000    0.000    0.000 
#
# Total GULP energy -200497.684461 kJ/mol
# GULP energy per Si atom -5569.380124 kJ/mol
# Density = 2.000156 g / cm^3
# Si number density = 20.047186 Si / 1000 Ang^3
#
#
#
# Elastic Constant Matrix: (Units=GPa)
#
#
# Indices 1 2 3 4 5 6 
#
# 1 110.6551 48.0850 36.4871 0.0000 0.0000 0.0000
# 2 48.0850 133.7700 64.0472 0.0000 0.0000 0.0000
# 3 36.4871 64.0472 151.8215 0.0000 0.0000 0.0000
# 4 0.0000 0.0000 0.0000 70.0024 0.0000 0.0000
# 5 0.0000 0.0000 0.0000 0.0000 25.5479 0.0000
# 6 0.0000 0.0000 0.0000 0.0000 0.0000 15.5277
#
#
#
# Elastic Compliance Matrix: (Units=1/GPa)
#
#
# Indices 1 2 3 4 5 6 
#
# 1 0.010884 -0.003333 -0.001210 0.000000 0.000000 0.000000
# 2 -0.003333 0.010388 -0.003581 0.000000 0.000000 0.000000
# 3 -0.001210 -0.003581 0.008388 0.000000 0.000000 0.000000
# 4 0.000000 0.000000 0.000000 0.014285 0.000000 0.000000
# 5 0.000000 0.000000 0.000000 0.000000 0.039142 0.000000
# 6 0.000000 0.000000 0.000000 0.000000 0.000000 0.064401
#
#
# Mechanical properties :
#
#
# Convention : Reuss Voigt Hill
#
# Bulk Modulus (GPa) = 74.55788 77.05391 75.80589
# Shear Modulus (GPa) = 29.72494 38.72408 34.22451
#
# Velocity S-wave (km/s) = 3.85483 4.39982 4.13631
# Velocity P-wave (km/s) = 7.55545 8.02066 7.79153
#
# Compressibility (1/GPa) = 0.01341240
#
# Stress axis : x y z
#
# Youngs Moduli (GPa) = 91.87404 96.26090 119.21485
#
# Poissons Ratio (x) = 0.32087 0.14421
# Poissons Ratio (y) = 0.30625 0.42695
# Poissons Ratio (z) = 0.11113 0.34474
#
# Static dielectric constant tensor:
#      x y z
#    x 1.753080 0.000000 0.000000 
#    y 0.000000 1.794240 0.000000 
#    z 0.000000 0.000000 1.859040 
# 
# From -- ./inp_files/19517.got.cif
#   From: 2010.05.17/outbox.cif.g08.bks.cpg/sg68_10_cif.got.tgz:19517.got - 2010.06.03 18:57:09.
