data_PCOD9507361
_publ_section_title
;
Structure prediction by ZEFSAII (Michael W. Deem and Ramdas Pophale) SiO2 
 PCOD9507361
Probable space group: C C C A
;
_chemical_formula_sum "Si O2"
_cell_formula_units_Z 80
_cell_length_a 11.466713
_cell_length_b 24.638884
_cell_length_c 13.707043
_cell_angle_alpha 90.000000
_cell_angle_beta 90.000000
_cell_angle_gamma 90.000000
_cell_volume 3872.609895
_symmetry_space_group_name_H-M "C C C A"
_symmetry_group_IT_number 68
_space_group.IT_coordinate_system_code '2'
_symmetry_cell_setting 'orthorhombic'
loop_
_space_group_symop_operation_xyz
x,y,z
-x,1/2-y,z
x,1/2-y,1/2-z
-x,y,1/2-z
-x,-y,-z
x,1/2+y,-z
-x,1/2+y,1/2+z
x,-y,1/2+z
1/2+x,1/2+y,z
1/2-x,-y,z
1/2+x,-y,1/2-z
1/2-x,1/2+y,1/2-z
1/2-x,1/2-y,-z
1/2+x,y,-z
1/2-x,y,1/2+z
1/2+x,1/2-y,1/2+z
loop_
_atom_site_type_symbol
_atom_site_label
_atom_site_fract_x
_atom_site_fract_y
_atom_site_fract_z
Si Si1 0.100163 0.423320 0.315869
Si Si2 0.305644 0.119431 0.057378
Si Si3 0.364367 0.808933 0.723843
Si Si4 0.998232 0.036903 0.864740
Si Si5 0.767282 0.909271 0.150060
O O1 0.178711 0.392283 0.394147
O O2 0.039130 0.474258 0.368644
O O3 0.190364 0.441269 0.229996
O O4 0.000000 0.394486 0.250000
O O5 0.347579 0.174009 0.111224
O O6 0.397907 0.073134 0.088282
O O7 0.299839 0.115536 0.941790
O O8 0.314137 0.750000 0.750000
O O9 0.500000 0.807767 0.750000
O O10 0.312785 0.857726 0.788363
O O11 0.000000 0.050283 0.750000
O O12 0.128270 0.054217 0.893989
#
# Coordination Sequence:
#
# PCOD9507361 Si02
#       5
#    16  16  16  16  16
#     4  10  24  38  57  86 126 168 201 241 307 361
#     4  11  22  39  60  92 124 155 212 257 304 364
#     4  10  20  41  69  89 116 160 205 260 320 370
#     4  11  20  42  58  82 125 166 206 245 293 371
#     4  11  23  40  64  88 127 162 200 265 300 358
#
# _framework density 20.657903000000001
#
# number of rings (size 3 to 8) (size 9 to 14) (size 15 to 20)
#    0.000    1.400    6.000    0.600    5.600    1.600 
#   10.800    0.000    0.000    9.600    0.000    0.000 
#    0.000    0.000    0.000    0.000    0.000    0.000 
#
# Total GULP energy -223213.725787 kJ/mol
# GULP energy per Si atom -5580.343145 kJ/mol
# Density = 2.061088 g / cm^3
# Si number density = 20.657903 Si / 1000 Ang^3
#
#
#
# Elastic Constant Matrix: (Units=GPa)
#
#
# Indices 1 2 3 4 5 6 
#
# 1 61.1043 8.2524 -10.8704 0.0000 0.0000 0.0000
# 2 8.2524 77.8656 -2.4744 0.0000 0.0000 0.0000
# 3 -10.8704 -2.4744 67.8209 0.0000 0.0000 0.0000
# 4 0.0000 0.0000 0.0000 -0.7667 0.0000 0.0000
# 5 0.0000 0.0000 0.0000 0.0000 19.6672 0.0000
# 6 0.0000 0.0000 0.0000 0.0000 0.0000 9.5715
#
#
#
# Elastic Compliance Matrix: (Units=1/GPa)
#
#
# Indices 1 2 3 4 5 6 
#
# 1 0.017074 -0.001725 0.002674 0.000000 0.000000 0.000000
# 2 -0.001725 0.013032 0.000199 0.000000 0.000000 0.000000
# 3 0.002674 0.000199 0.015181 0.000000 0.000000 0.000000
# 4 0.000000 0.000000 0.000000 -1.304221 0.000000 0.000000
# 5 0.000000 0.000000 0.000000 0.000000 0.050846 0.000000
# 6 0.000000 0.000000 0.000000 0.000000 0.000000 0.104476
#
#
# Mechanical properties :
#
#
# Convention : Reuss Voigt Hill
#
# Bulk Modulus (GPa) = 21.01608 21.84512 21.43060
# Shear Modulus (GPa) = -4.58696 19.81995 7.61650
#
# Velocity S-wave (km/s) = -1.49173 3.10084 1.92223
# Velocity P-wave (km/s) = 2.68858 4.83921 3.91448
#
# Compressibility (1/GPa) = 0.04758262
#
# Stress axis : x y z
#
# Youngs Moduli (GPa) = 58.56852 76.73576 65.87387
#
# Poissons Ratio (x) = 0.13234 -0.17613
# Poissons Ratio (y) = 0.10101 -0.01311
# Poissons Ratio (z) = -0.15660 -0.01527
#
# Static dielectric constant tensor:
#      x y z
#    x 1.839220 0.000000 0.000000 
#    y 0.000000 1.741610 0.000000 
#    z 0.000000 0.000000 1.750420 
# 
# From -- ./inp_files/21084.got.cif
#   From: 2010.05.17/outbox.cif.g08.bks.cpg/sg68_11_cif.got.tgz:21084.got - 2010.06.03 18:57:09.
