data_PCOD9507154
_publ_section_title
;
Structure prediction by ZEFSAII (Michael W. Deem and Ramdas Pophale) SiO2 
 PCOD9507154
Probable space group: C C C A
;
_chemical_formula_sum "Si O2"
_cell_formula_units_Z 104
_cell_length_a 8.856811
_cell_length_b 32.779270
_cell_length_c 19.105001
_cell_angle_alpha 90.000000
_cell_angle_beta 90.000000
_cell_angle_gamma 90.000000
_cell_volume 5546.560052
_symmetry_space_group_name_H-M "C C C A"
_symmetry_group_IT_number 68
_space_group.IT_coordinate_system_code '2'
_symmetry_cell_setting 'orthorhombic'
loop_
_space_group_symop_operation_xyz
x,y,z
-x,1/2-y,z
x,1/2-y,1/2-z
-x,y,1/2-z
-x,-y,-z
x,1/2+y,-z
-x,1/2+y,1/2+z
x,-y,1/2+z
1/2+x,1/2+y,z
1/2-x,-y,z
1/2+x,-y,1/2-z
1/2-x,1/2+y,1/2-z
1/2-x,1/2-y,-z
1/2+x,y,-z
1/2-x,y,1/2+z
1/2+x,1/2-y,1/2+z
loop_
_atom_site_type_symbol
_atom_site_label
_atom_site_fract_x
_atom_site_fract_y
_atom_site_fract_z
Si Si1 0.173034 0.632506 0.154057
Si Si2 0.560229 0.962005 0.455132
Si Si3 0.676061 0.075735 0.762713
Si Si4 0.318514 0.795623 0.742578
Si Si5 0.820246 0.862700 0.364699
Si Si6 0.750000 0.000000 0.333602
Si Si7 0.201066 0.901052 0.983721
O O1 0.255068 0.596442 0.194774
O O2 0.224674 0.673591 0.194366
O O3 0.219684 0.627107 0.073927
O O4 0.992057 0.628661 0.160488
O O5 0.618650 0.982420 0.383491
O O6 0.699580 0.939936 0.492973
O O7 0.443903 0.924221 0.451753
O O8 0.500000 0.000000 0.500000
O O9 0.500000 0.066155 0.750000
O O10 0.702272 0.107589 0.826124
O O11 0.779910 0.037762 0.783692
O O12 0.255935 0.750000 0.750000
O O13 0.500000 0.792646 0.750000
O O14 0.286173 0.818120 0.668427
O O15 0.822283 0.873781 0.446554
#
# Coordination Sequence:
#
# PCOD9507154 Si02
#       7
#    16  16  16  16  16   8  16
#     4  10  22  37  61  88 117 153 197 240 298 352
#     4  12  22  39  58  80 116 154 202 248 295 340
#     4  11  23  40  57  82 113 156 200 248 295 350
#     4   8  16  35  63  90 117 151 192 237 288 356
#     4  10  20  39  61  87 119 153 197 240 295 359
#     4  12  24  40  54  80 116 152 204 246 298 346
#     4  12  22  39  61  86 115 157 201 246 302 347
#
# _framework density 18.750360000000001
#
# number of rings (size 3 to 8) (size 9 to 14) (size 15 to 20)
#    0.000    1.385    4.615    2.308    0.000    1.231 
#    2.769    0.769    0.000    7.385    0.000    0.000 
#    0.000    0.000    0.000    0.000    0.000    0.000 
#
# Total GULP energy -289762.005784 kJ/mol
# GULP energy per Si atom -5572.346265 kJ/mol
# Density = 1.870768 g / cm^3
# Si number density = 18.750360 Si / 1000 Ang^3
#
#
#
# Elastic Constant Matrix: (Units=GPa)
#
#
# Indices 1 2 3 4 5 6 
#
# 1 56.5325 15.8407 26.0171 0.0000 0.0000 0.0000
# 2 15.8407 130.5611 62.8559 0.0000 0.0000 0.0000
# 3 26.0171 62.8559 124.3257 0.0000 0.0000 0.0000
# 4 0.0000 0.0000 0.0000 13.4336 0.0000 0.0000
# 5 0.0000 0.0000 0.0000 0.0000 -1.5955 0.0000
# 6 0.0000 0.0000 0.0000 0.0000 0.0000 16.3224
#
#
#
# Elastic Compliance Matrix: (Units=1/GPa)
#
#
# Indices 1 2 3 4 5 6 
#
# 1 0.019602 -0.000533 -0.003832 0.000000 0.000000 0.000000
# 2 -0.000533 0.010138 -0.005014 0.000000 0.000000 0.000000
# 3 -0.003832 -0.005014 0.011380 0.000000 0.000000 0.000000
# 4 0.000000 0.000000 0.000000 0.074440 0.000000 0.000000
# 5 0.000000 0.000000 0.000000 0.000000 -0.626747 0.000000
# 6 0.000000 0.000000 0.000000 0.000000 0.000000 0.061265
#
#
# Mechanical properties :
#
#
# Convention : Reuss Voigt Hill
#
# Bulk Modulus (GPa) = 44.72047 57.87186 51.29616
# Shear Modulus (GPa) = -11.80057 19.41246 3.80595
#
# Velocity S-wave (km/s) = -2.51141 3.22112 1.42626
# Velocity P-wave (km/s) = 3.93607 6.69070 5.48900
#
# Compressibility (1/GPa) = 0.02236113
#
# Stress axis : x y z
#
# Youngs Moduli (GPa) = 51.01488 98.64137 87.87160
#
# Poissons Ratio (x) = 0.05260 0.33676
# Poissons Ratio (y) = 0.02720 0.44057
# Poissons Ratio (z) = 0.19551 0.49457
#
# Static dielectric constant tensor:
#      x y z
#    x 1.690850 0.000000 0.000000 
#    y 0.000000 1.670560 0.000000 
#    z 0.000000 0.000000 1.692970 
# 
# From -- ./inp_files/36708.got.cif
#   From: 2010.05.17/outbox.cif.g08.bks.cpg/sg68_19_cif.got.tgz:36708.got - 2010.06.03 18:57:09.
