data_PCOD9507043
_publ_section_title
;
Structure prediction by ZEFSAII (Michael W. Deem and Ramdas Pophale) SiO2 
 PCOD9507043
Probable space group: C C C A
;
_chemical_formula_sum "Si O2"
_cell_formula_units_Z 116
_cell_length_a 22.549119
_cell_length_b 9.395386
_cell_length_c 24.357453
_cell_angle_alpha 90.000000
_cell_angle_beta 90.000000
_cell_angle_gamma 90.000000
_cell_volume 5160.313409
_symmetry_space_group_name_H-M "C C C A"
_symmetry_group_IT_number 68
_space_group.IT_coordinate_system_code '2'
_symmetry_cell_setting 'orthorhombic'
loop_
_space_group_symop_operation_xyz
x,y,z
-x,1/2-y,z
x,1/2-y,1/2-z
-x,y,1/2-z
-x,-y,-z
x,1/2+y,-z
-x,1/2+y,1/2+z
x,-y,1/2+z
1/2+x,1/2+y,z
1/2-x,-y,z
1/2+x,-y,1/2-z
1/2-x,1/2+y,1/2-z
1/2-x,1/2-y,-z
1/2+x,y,-z
1/2-x,y,1/2+z
1/2+x,1/2-y,1/2+z
loop_
_atom_site_type_symbol
_atom_site_label
_atom_site_fract_x
_atom_site_fract_y
_atom_site_fract_z
Si Si1 0.530058 0.097439 0.046994
Si Si2 0.743578 0.646325 0.875270
Si Si3 0.352282 0.752340 0.440010
Si Si4 0.661670 0.945830 0.523000
Si Si5 0.528813 0.487665 0.827406
Si Si6 0.780916 0.642174 0.700950
Si Si7 0.000000 0.250000 0.750000
Si Si8 0.588208 0.806872 0.337838
O O1 0.500000 0.250000 0.050526
O O2 0.597597 0.123893 0.029346
O O3 0.532526 0.028613 0.107914
O O4 0.500000 0.000000 0.000000
O O5 0.750000 0.500000 0.842369
O O6 0.809950 0.677141 0.894953
O O7 0.702955 0.609633 0.927637
O O8 0.732726 0.785141 0.840572
O O9 0.316923 0.621531 0.466390
O O10 0.409272 0.706993 0.404958
O O11 0.352676 0.887466 0.480333
O O12 0.532598 0.633045 0.790785
O O13 0.464832 0.410722 0.819764
O O14 0.574660 0.355457 0.817153
O O15 0.787429 0.750000 0.750000
O O16 0.750000 0.500000 0.717988
O O17 0.848339 0.627795 0.678768
#
# Coordination Sequence:
#
# PCOD9507043 Si02
#       8
#    16  16  16  16  16  16   4  16
#     4  12  25  40  65 101 145 186 236 300 367 444
#     4   9  21  40  63  88 134 175 231 290 348 433
#     4  10  20  38  61  99 129 181 230 278 362 423
#     4  11  21  36  61  92 135 181 224 285 349 423
#     4  11  25  48  72 109 146 190 251 299 377 447
#     4  11  25  46  69 102 130 180 238 298 376 439
#     4  12  28  50  72 112 140 190 256 322 356 444
#     4  10  24  46  74  95 146 192 232 301 370 453
#
# _framework density 22.479254999999998
#
# number of rings (size 3 to 8) (size 9 to 14) (size 15 to 20)
#    0.000    1.379    2.069    2.483    3.862    3.862 
#    1.241    0.690    0.000    0.000    0.000    0.000 
#    0.000    0.000    0.000    0.000    0.000    0.000 
#
# Total GULP energy -323023.336701 kJ/mol
# GULP energy per Si atom -5569.367874 kJ/mol
# Density = 2.242809 g / cm^3
# Si number density = 22.479255 Si / 1000 Ang^3
#
#
#
# Elastic Constant Matrix: (Units=GPa)
#
#
# Indices 1 2 3 4 5 6 
#
# 1 75.4813 14.3494 -11.3723 0.0000 0.0000 0.0000
# 2 14.3494 97.2370 14.8713 0.0000 0.0000 0.0000
# 3 -11.3723 14.8713 49.9757 0.0000 0.0000 0.0000
# 4 0.0000 0.0000 0.0000 44.7970 0.0000 0.0000
# 5 0.0000 0.0000 0.0000 0.0000 10.6298 0.0000
# 6 0.0000 0.0000 0.0000 0.0000 0.0000 26.4090
#
#
#
# Elastic Compliance Matrix: (Units=1/GPa)
#
#
# Indices 1 2 3 4 5 6 
#
# 1 0.014387 -0.002749 0.004092 0.000000 0.000000 0.000000
# 2 -0.002749 0.011300 -0.003988 0.000000 0.000000 0.000000
# 3 0.004092 -0.003988 0.022128 0.000000 0.000000 0.000000
# 4 0.000000 0.000000 0.000000 0.022323 0.000000 0.000000
# 5 0.000000 0.000000 0.000000 0.000000 0.094075 0.000000
# 6 0.000000 0.000000 0.000000 0.000000 0.000000 0.037866
#
#
# Mechanical properties :
#
#
# Convention : Reuss Voigt Hill
#
# Bulk Modulus (GPa) = 23.51577 28.71011 26.11294
# Shear Modulus (GPa) = 22.56890 30.02352 26.29621
#
# Velocity S-wave (km/s) = 3.17201 3.65856 3.42394
# Velocity P-wave (km/s) = 4.88870 5.53591 5.22234
#
# Compressibility (1/GPa) = 0.04252465
#
# Stress axis : x y z
#
# Youngs Moduli (GPa) = 69.50513 88.49753 45.19244
#
# Poissons Ratio (x) = 0.24328 -0.18493
# Poissons Ratio (y) = 0.19107 0.18023
# Poissons Ratio (z) = -0.28441 0.35293
#
# Static dielectric constant tensor:
#      x y z
#    x 1.812560 0.000000 0.000000 
#    y 0.000000 2.244980 0.000000 
#    z 0.000000 0.000000 2.059330 
# 
# From -- ./inp_files/52187.got.cif
#   From: 2010.05.17/outbox.cif.g08.bks.cpg/sg68_27_cif.got.tgz:52187.got - 2010.06.03 18:57:09.
