data_PCOD9507040
_publ_section_title
;
Structure prediction by ZEFSAII (Michael W. Deem and Ramdas Pophale) SiO2 
 PCOD9507040
Probable space group: C C C A
;
_chemical_formula_sum "Si O2"
_cell_formula_units_Z 72
_cell_length_a 8.484615
_cell_length_b 16.929772
_cell_length_c 23.696079
_cell_angle_alpha 90.000000
_cell_angle_beta 90.000000
_cell_angle_gamma 90.000000
_cell_volume 3403.766337
_symmetry_space_group_name_H-M "C C C A"
_symmetry_group_IT_number 68
_space_group.IT_coordinate_system_code '2'
_symmetry_cell_setting 'orthorhombic'
loop_
_space_group_symop_operation_xyz
x,y,z
-x,1/2-y,z
x,1/2-y,1/2-z
-x,y,1/2-z
-x,-y,-z
x,1/2+y,-z
-x,1/2+y,1/2+z
x,-y,1/2+z
1/2+x,1/2+y,z
1/2-x,-y,z
1/2+x,-y,1/2-z
1/2-x,1/2+y,1/2-z
1/2-x,1/2-y,-z
1/2+x,y,-z
1/2-x,y,1/2+z
1/2+x,1/2-y,1/2+z
loop_
_atom_site_type_symbol
_atom_site_label
_atom_site_fract_x
_atom_site_fract_y
_atom_site_fract_z
Si Si1 0.000000 0.381415 0.250000
Si Si2 0.925829 0.532174 0.634142
Si Si3 0.000000 0.250000 0.841409
Si Si4 0.101039 0.885440 0.421650
Si Si5 0.246090 0.750000 0.250000
Si Si6 0.946707 0.414857 0.472282
O O1 0.963359 0.433507 0.195167
O O2 0.856921 0.322992 0.266318
O O3 0.750000 0.500000 0.632750
O O4 0.041678 0.461561 0.614086
O O5 0.947552 0.595370 0.583466
O O6 0.910169 0.313893 0.878662
O O7 0.865635 0.217520 0.799602
O O8 0.269159 0.904758 0.450366
O O9 0.985054 0.862942 0.473480
O O10 0.000000 0.500000 0.500000
#
# Coordination Sequence:
#
# PCOD9507040 Si02
#       6
#     8  16   8  16   8  16
#     4  11  24  42  66  91 122 164 212 261 318 386
#     4  11  22  38  63  92 122 159 208 260 312 373
#     4  11  24  44  64  88 126 169 214 258 314 385
#     4  11  23  39  63  92 126 168 208 257 316 377
#     4  10  24  44  62  88 128 166 202 266 328 366
#     4  10  20  38  61  90 128 160 199 260 319 368
#
# _framework density 21.153039
#
# number of rings (size 3 to 8) (size 9 to 14) (size 15 to 20)
#    0.000    1.333    0.000    8.000    0.000    6.222 
#    0.000    2.222    0.000    0.000    0.000    0.000 
#    0.000    0.000    0.000    0.000    0.000    0.000 
#
# Total GULP energy -200865.258437 kJ/mol
# GULP energy per Si atom -5579.590512 kJ/mol
# Density = 2.110489 g / cm^3
# Si number density = 21.153039 Si / 1000 Ang^3
#
#
#
# Elastic Constant Matrix: (Units=GPa)
#
#
# Indices 1 2 3 4 5 6 
#
# 1 163.0131 35.4598 59.4334 0.0000 0.0000 0.0000
# 2 35.4598 37.6163 26.4598 0.0000 0.0000 0.0000
# 3 59.4334 26.4598 144.9756 0.0000 0.0000 0.0000
# 4 0.0000 0.0000 0.0000 27.2463 0.0000 0.0000
# 5 0.0000 0.0000 0.0000 0.0000 35.2888 0.0000
# 6 0.0000 0.0000 0.0000 0.0000 0.0000 6.9657
#
#
#
# Elastic Compliance Matrix: (Units=1/GPa)
#
#
# Indices 1 2 3 4 5 6 
#
# 1 0.008321 -0.006247 -0.002271 0.000000 0.000000 0.000000
# 2 -0.006247 0.035189 -0.003862 0.000000 0.000000 0.000000
# 3 -0.002271 -0.003862 0.008534 0.000000 0.000000 0.000000
# 4 0.000000 0.000000 0.000000 0.036702 0.000000 0.000000
# 5 0.000000 0.000000 0.000000 0.000000 0.028338 0.000000
# 6 0.000000 0.000000 0.000000 0.000000 0.000000 0.143560
#
#
# Mechanical properties :
#
#
# Convention : Reuss Voigt Hill
#
# Bulk Modulus (GPa) = 36.65020 65.36791 51.00905
# Shear Modulus (GPa) = 16.97806 28.85031 22.91418
#
# Velocity S-wave (km/s) = 2.83615 3.69709 3.29486
# Velocity P-wave (km/s) = 5.29989 7.01385 6.21622
#
# Compressibility (1/GPa) = 0.02728498
#
# Stress axis : x y z
#
# Youngs Moduli (GPa) = 120.17212 28.41789 117.18349
#
# Poissons Ratio (x) = 0.17752 0.26616
# Poissons Ratio (y) = 0.75068 0.45251
# Poissons Ratio (z) = 0.27295 0.10974
#
# Static dielectric constant tensor:
#      x y z
#    x 1.785780 0.000000 0.000000 
#    y 0.000000 1.813650 0.000000 
#    z 0.000000 0.000000 1.790110 
# 
# From -- ./inp_files/49071.got.cif
#   From: 2010.05.17/outbox.cif.g08.bks.cpg/sg68_25_cif.got.tgz:49071.got - 2010.06.03 18:57:09.
