data_PCOD9507892
_publ_section_title
;
Structure prediction by ZEFSAII (Michael W. Deem and Ramdas Pophale) SiO2 
 PCOD9507892
Probable space group: C C C A
;
_chemical_formula_sum "Si O2"
_cell_formula_units_Z 96
_cell_length_a 15.276620
_cell_length_b 23.086899
_cell_length_c 13.183084
_cell_angle_alpha 90.000000
_cell_angle_beta 90.000000
_cell_angle_gamma 90.000000
_cell_volume 4649.539035
_symmetry_space_group_name_H-M "C C C A"
_symmetry_group_IT_number 68
_space_group.IT_coordinate_system_code '2'
_symmetry_cell_setting 'orthorhombic'
loop_
_space_group_symop_operation_xyz
x,y,z
-x,1/2-y,z
x,1/2-y,1/2-z
-x,y,1/2-z
-x,-y,-z
x,1/2+y,-z
-x,1/2+y,1/2+z
x,-y,1/2+z
1/2+x,1/2+y,z
1/2-x,-y,z
1/2+x,-y,1/2-z
1/2-x,1/2+y,1/2-z
1/2-x,1/2-y,-z
1/2+x,y,-z
1/2-x,y,1/2+z
1/2+x,1/2-y,1/2+z
loop_
_atom_site_type_symbol
_atom_site_label
_atom_site_fract_x
_atom_site_fract_y
_atom_site_fract_z
Si Si1 0.408544 0.128064 0.288542
Si Si2 0.860891 0.129177 0.930804
Si Si3 0.727924 0.312341 0.798849
Si Si4 0.474980 0.933664 0.988564
Si Si5 0.330304 0.135832 0.590377
Si Si6 0.103777 0.261291 0.031129
O O1 0.500000 0.157998 0.250000
O O2 0.375504 0.103142 0.181276
O O3 0.324104 0.163630 0.326299
O O4 0.436116 0.084529 0.378004
O O5 0.761573 0.116840 0.958121
O O6 0.935943 0.102813 0.999695
O O7 0.876638 0.199031 0.932648
O O8 0.744149 0.250000 0.750000
O O9 0.687315 0.351573 0.708946
O O10 0.655115 0.299527 0.884266
O O11 0.404780 0.910334 0.068443
O O12 0.500000 0.000000 0.000000
O O13 0.355716 0.197678 0.541087
O O14 0.000000 0.250000 0.044216
#
# Coordination Sequence:
#
# PCOD9507892 Si02
#       6
#    16  16  16  16  16  16
#     4   9  20  39  60  85 127 161 207 262 311 377
#     4  10  21  40  63  94 124 167 204 257 326 380
#     4   9  20  36  59  96 130 169 205 255 324 388
#     4  11  23  41  64  89 119 166 217 268 315 365
#     4  10  21  39  61  90 133 163 209 262 314 390
#     4  11  20  37  63  96 132 167 206 256 324 391
#
# _framework density 20.647207999999999
#
# number of rings (size 3 to 8) (size 9 to 14) (size 15 to 20)
#    0.000    2.000    1.667    1.500    0.000    6.667 
#    0.000    5.000    0.000   10.000    0.000    0.000 
#    0.000    0.000    0.000    0.000    0.000    0.000 
#
# Total GULP energy -267527.895616 kJ/mol
# GULP energy per Si atom -5573.497825 kJ/mol
# Density = 2.060021 g / cm^3
# Si number density = 20.647208 Si / 1000 Ang^3
#
#
#
# Elastic Constant Matrix: (Units=GPa)
#
#
# Indices 1 2 3 4 5 6 
#
# 1 187.0350 54.3143 52.0484 0.0000 0.0000 0.0000
# 2 54.3143 92.7321 35.0957 0.0000 0.0000 0.0000
# 3 52.0484 35.0957 89.0313 0.0000 0.0000 0.0000
# 4 0.0000 0.0000 0.0000 14.6475 0.0000 0.0000
# 5 0.0000 0.0000 0.0000 0.0000 25.5795 0.0000
# 6 0.0000 0.0000 0.0000 0.0000 0.0000 17.1072
#
#
#
# Elastic Compliance Matrix: (Units=1/GPa)
#
#
# Indices 1 2 3 4 5 6 
#
# 1 0.007036 -0.003014 -0.002925 0.000000 0.000000 0.000000
# 2 -0.003014 0.013966 -0.003743 0.000000 0.000000 0.000000
# 3 -0.002925 -0.003743 0.014418 0.000000 0.000000 0.000000
# 4 0.000000 0.000000 0.000000 0.068271 0.000000 0.000000
# 5 0.000000 0.000000 0.000000 0.000000 0.039094 0.000000
# 6 0.000000 0.000000 0.000000 0.000000 0.000000 0.058455
#
#
# Mechanical properties :
#
#
# Convention : Reuss Voigt Hill
#
# Bulk Modulus (GPa) = 62.28754 72.41279 67.35017
# Shear Modulus (GPa) = 22.12826 26.62283 24.37555
#
# Velocity S-wave (km/s) = 3.27728 3.59474 3.43967
# Velocity P-wave (km/s) = 6.67486 7.23720 6.96171
#
# Compressibility (1/GPa) = 0.01605457
#
# Stress axis : x y z
#
# Youngs Moduli (GPa) = 142.12956 71.60382 69.35954
#
# Poissons Ratio (x) = 0.21581 0.20289
# Poissons Ratio (y) = 0.42837 0.25963
# Poissons Ratio (z) = 0.41575 0.26803
#
# Static dielectric constant tensor:
#      x y z
#    x 1.773860 0.000000 0.000000 
#    y 0.000000 1.727510 0.000000 
#    z 0.000000 0.000000 1.827160 
# 
# From -- ./inp_files/22347.got.cif
#   From: 2010.05.17/outbox.cif.g08.bks.cpg/sg68_12_cif.got.tgz:22347.got - 2010.06.03 18:57:09.
