data_PCOD9507524
_publ_section_title
;
Structure prediction by ZEFSAII (Michael W. Deem and Ramdas Pophale) SiO2 
 PCOD9507524
Probable space group: C C C A
;
_chemical_formula_sum "Si O2"
_cell_formula_units_Z 100
_cell_length_a 16.373529
_cell_length_b 18.111684
_cell_length_c 19.386477
_cell_angle_alpha 90.000000
_cell_angle_beta 90.000000
_cell_angle_gamma 90.000000
_cell_volume 5749.102079
_symmetry_space_group_name_H-M "C C C A"
_symmetry_group_IT_number 68
_space_group.IT_coordinate_system_code '2'
_symmetry_cell_setting 'orthorhombic'
loop_
_space_group_symop_operation_xyz
x,y,z
-x,1/2-y,z
x,1/2-y,1/2-z
-x,y,1/2-z
-x,-y,-z
x,1/2+y,-z
-x,1/2+y,1/2+z
x,-y,1/2+z
1/2+x,1/2+y,z
1/2-x,-y,z
1/2+x,-y,1/2-z
1/2-x,1/2+y,1/2-z
1/2-x,1/2-y,-z
1/2+x,y,-z
1/2-x,y,1/2+z
1/2+x,1/2-y,1/2+z
loop_
_atom_site_type_symbol
_atom_site_label
_atom_site_fract_x
_atom_site_fract_y
_atom_site_fract_z
Si Si1 0.164857 0.667676 0.454739
Si Si2 0.673937 0.053755 0.173586
Si Si3 0.819780 0.338945 0.957363
Si Si4 0.894268 0.382967 0.688903
Si Si5 0.007519 0.384165 0.490058
Si Si6 0.491591 0.997574 0.880809
Si Si7 0.000000 0.750000 0.250000
O O1 0.185940 0.752740 0.440587
O O2 0.241025 0.637142 0.498256
O O3 0.155608 0.629439 0.380865
O O4 0.077945 0.658379 0.495124
O O5 0.679793 0.111794 0.111006
O O6 0.656725 0.098627 0.243334
O O7 0.596120 0.003861 0.154307
O O8 0.750000 0.000000 0.179363
O O9 0.905917 0.344995 0.997656
O O10 0.949533 0.454878 0.672137
O O11 0.947127 0.308060 0.704018
O O12 0.009491 0.423827 0.415675
O O13 0.008291 0.443934 0.552294
#
# Coordination Sequence:
#
# PCOD9507524 Si02
#       7
#    16  16  16  16  16  16   4
#     4  10  21  35  55  84 112 144 200 247 292 353
#     4  11  21  35  53  78 114 151 189 236 302 355
#     4  10  21  36  54  82 111 150 196 240 295 354
#     4  11  22  34  57  84 111 151 197 247 297 352
#     4   9  18  32  55  74 108 149 176 239 291 345
#     4   9  18  34  49  79 106 139 193 223 289 350
#     4  12  20  36  60  84 116 148 196 258 292 352
#
# _framework density 17.394020999999999
#
# number of rings (size 3 to 8) (size 9 to 14) (size 15 to 20)
#    0.000    1.920    1.600    2.400    4.480    2.560 
#    0.000    0.000    0.000    0.000    0.000    0.000 
#    0.000    7.680    0.000    0.000    0.000    0.000 
#
# Total GULP energy -278512.962678 kJ/mol
# GULP energy per Si atom -5570.259254 kJ/mol
# Density = 1.735443 g / cm^3
# Si number density = 17.394021 Si / 1000 Ang^3
#
#
#
# Elastic Constant Matrix: (Units=GPa)
#
#
# Indices 1 2 3 4 5 6 
#
# 1 115.7632 24.3869 67.7226 0.0000 0.0000 0.0000
# 2 24.3869 50.8147 45.6124 0.0000 0.0000 0.0000
# 3 67.7226 45.6124 120.2041 0.0000 0.0000 0.0000
# 4 0.0000 0.0000 0.0000 25.7156 0.0000 0.0000
# 5 0.0000 0.0000 0.0000 0.0000 29.0456 0.0000
# 6 0.0000 0.0000 0.0000 0.0000 0.0000 21.7367
#
#
#
# Elastic Compliance Matrix: (Units=1/GPa)
#
#
# Indices 1 2 3 4 5 6 
#
# 1 0.012894 0.000504 -0.007456 0.000000 0.000000 0.000000
# 2 0.000504 0.029864 -0.011617 0.000000 0.000000 0.000000
# 3 -0.007456 -0.011617 0.016928 0.000000 0.000000 0.000000
# 4 0.000000 0.000000 0.000000 0.038887 0.000000 0.000000
# 5 0.000000 0.000000 0.000000 0.000000 0.034429 0.000000
# 6 0.000000 0.000000 0.000000 0.000000 0.000000 0.046005
#
#
# Mechanical properties :
#
#
# Convention : Reuss Voigt Hill
#
# Bulk Modulus (GPa) = 44.34516 62.46950 53.40733
# Shear Modulus (GPa) = 22.35549 25.23693 23.79621
#
# Velocity S-wave (km/s) = 3.58891 3.81320 3.70275
# Velocity P-wave (km/s) = 6.53633 7.44175 7.00368
#
# Compressibility (1/GPa) = 0.02255038
#
# Stress axis : x y z
#
# Youngs Moduli (GPa) = 77.55723 33.48460 59.07488
#
# Poissons Ratio (x) = -0.01689 0.44044
# Poissons Ratio (y) = -0.03913 0.68624
# Poissons Ratio (z) = 0.57824 0.38897
#
# Static dielectric constant tensor:
#      x y z
#    x 1.619700 0.000000 0.000000 
#    y 0.000000 1.599470 0.000000 
#    z 0.000000 0.000000 1.587010 
# 
# From -- ./inp_files/31095.got.cif
#   From: 2010.05.17/outbox.cif.g08.bks.cpg/sg68_16_cif.got.tgz:31095.got - 2010.06.03 18:57:09.
