data_PCOD9507946
_publ_section_title
;
Structure prediction by ZEFSAII (Michael W. Deem and Ramdas Pophale) SiO2 
 PCOD9507946
Probable space group: C C C A
;
_chemical_formula_sum "Si O2"
_cell_formula_units_Z 40
_cell_length_a 5.282363
_cell_length_b 25.222769
_cell_length_c 13.492223
_cell_angle_alpha 90.000000
_cell_angle_beta 90.000000
_cell_angle_gamma 90.000000
_cell_volume 1797.647418
_symmetry_space_group_name_H-M "C C C A"
_symmetry_group_IT_number 68
_space_group.IT_coordinate_system_code '2'
_symmetry_cell_setting 'orthorhombic'
loop_
_space_group_symop_operation_xyz
x,y,z
-x,1/2-y,z
x,1/2-y,1/2-z
-x,y,1/2-z
-x,-y,-z
x,1/2+y,-z
-x,1/2+y,1/2+z
x,-y,1/2+z
1/2+x,1/2+y,z
1/2-x,-y,z
1/2+x,-y,1/2-z
1/2-x,1/2+y,1/2-z
1/2-x,1/2-y,-z
1/2+x,y,-z
1/2-x,y,1/2+z
1/2+x,1/2-y,1/2+z
loop_
_atom_site_type_symbol
_atom_site_label
_atom_site_fract_x
_atom_site_fract_y
_atom_site_fract_z
Si Si1 0.500000 0.467629 0.750000
Si Si2 0.253988 0.774517 0.360704
Si Si3 0.681825 0.393418 0.930436
O O1 0.250000 0.500000 0.785413
O O2 0.614069 0.434183 0.842253
O O3 0.500000 0.750000 0.407270
O O4 0.254643 0.750000 0.250000
O O5 0.283189 0.836978 0.374327
O O6 0.000000 0.750000 0.401215
O O7 0.443665 0.397958 0.006765
#
# Coordination Sequence:
#
# PCOD9507946 Si02
#       3
#     8  16  16
#     4  12  28  50  77 104 139 188 242 310 374 422
#     4  10  21  39  65  97 142 187 228 278 338 415
#     4  12  27  46  72 106 143 186 239 295 356 428
#
# _framework density 22.251304000000001
#
# number of rings (size 3 to 8) (size 9 to 14) (size 15 to 20)
#    0.000    0.800    0.000    7.200    0.000   16.000 
#    0.000    0.000    0.000    0.000    0.000    0.000 
#    0.000    0.000    0.000    0.000    0.000    0.000 
#
# Total GULP energy -111491.371947 kJ/mol
# GULP energy per Si atom -5574.568597 kJ/mol
# Density = 2.220066 g / cm^3
# Si number density = 22.251304 Si / 1000 Ang^3
#
#
#
# Elastic Constant Matrix: (Units=GPa)
#
#
# Indices 1 2 3 4 5 6 
#
# 1 241.8830 60.9788 47.6986 0.0000 0.0000 0.0000
# 2 60.9788 125.9969 45.2988 0.0000 0.0000 0.0000
# 3 47.6986 45.2988 180.2287 0.0000 0.0000 0.0000
# 4 0.0000 0.0000 0.0000 29.6988 0.0000 0.0000
# 5 0.0000 0.0000 0.0000 0.0000 -896.2102 0.0000
# 6 0.0000 0.0000 0.0000 0.0000 0.0000 43.3327
#
#
#
# Elastic Compliance Matrix: (Units=1/GPa)
#
#
# Indices 1 2 3 4 5 6 
#
# 1 0.004800 -0.002052 -0.000755 0.000000 0.000000 0.000000
# 2 -0.002052 0.009602 -0.001870 0.000000 0.000000 0.000000
# 3 -0.000755 -0.001870 0.006218 0.000000 0.000000 0.000000
# 4 0.000000 0.000000 0.000000 0.033671 0.000000 0.000000
# 5 0.000000 0.000000 0.000000 0.000000 -0.001116 0.000000
# 6 0.000000 0.000000 0.000000 0.000000 0.000000 0.023077
#
#
# Mechanical properties :
#
#
# Convention : Reuss Voigt Hill
#
# Bulk Modulus (GPa) = 88.75534 95.11788 91.93661
# Shear Modulus (GPa) = 55.95138 -138.36024 -41.20443
#
# Velocity S-wave (km/s) = 5.01994 -7.89403 -4.30790
# Velocity P-wave (km/s) = 8.57753 6.34411 4.08205
#
# Compressibility (1/GPa) = 0.01126693
#
# Stress axis : x y z
#
# Youngs Moduli (GPa) = 208.31854 104.14274 160.81445
#
# Poissons Ratio (x) = 0.21369 0.12137
# Poissons Ratio (y) = 0.42745 0.30078
# Poissons Ratio (z) = 0.15722 0.19479
#
# Static dielectric constant tensor:
#      x y z
#    x 1.823720 0.000000 0.000000 
#    y 0.000000 1.865960 0.000000 
#    z 0.000000 0.000000 1.766270 
# 
# From -- ./inp_files/18093.got.cif
#   From: 2010.05.17/outbox.cif.g08.bks.cpg/sg68_10_cif.got.tgz:18093.got - 2010.06.03 18:57:09.
