data_PCOD9507538
_publ_section_title
;
Structure prediction by ZEFSAII (Michael W. Deem and Ramdas Pophale) SiO2 
 PCOD9507538
Probable space group: C C C A
;
_chemical_formula_sum "Si O2"
_cell_formula_units_Z 72
_cell_length_a 8.742894
_cell_length_b 17.803244
_cell_length_c 20.507797
_cell_angle_alpha 90.000000
_cell_angle_beta 90.000000
_cell_angle_gamma 90.000000
_cell_volume 3192.077058
_symmetry_space_group_name_H-M "C C C A"
_symmetry_group_IT_number 68
_space_group.IT_coordinate_system_code '2'
_symmetry_cell_setting 'orthorhombic'
loop_
_space_group_symop_operation_xyz
x,y,z
-x,1/2-y,z
x,1/2-y,1/2-z
-x,y,1/2-z
-x,-y,-z
x,1/2+y,-z
-x,1/2+y,1/2+z
x,-y,1/2+z
1/2+x,1/2+y,z
1/2-x,-y,z
1/2+x,-y,1/2-z
1/2-x,1/2+y,1/2-z
1/2-x,1/2-y,-z
1/2+x,y,-z
1/2-x,y,1/2+z
1/2+x,1/2-y,1/2+z
loop_
_atom_site_type_symbol
_atom_site_label
_atom_site_fract_x
_atom_site_fract_y
_atom_site_fract_z
Si Si1 0.403488 0.015200 0.081579
Si Si2 0.165928 0.209641 0.874578
Si Si3 0.500000 0.750000 0.395690
Si Si4 0.452512 0.371000 0.002938
Si Si5 0.119826 0.554166 0.193150
O O1 0.413146 0.098231 0.050173
O O2 0.545957 0.012995 0.129794
O O3 0.250000 0.000000 0.121052
O O4 0.395958 0.950576 0.026333
O O5 0.329062 0.251529 0.863809
O O6 0.150960 0.179896 0.949778
O O7 0.173902 0.134909 0.831368
O O8 0.000000 0.250000 0.861958
O O9 0.497598 0.822585 0.442077
O O10 0.250000 0.500000 0.217632
O O11 0.000000 0.565626 0.250000
#
# Coordination Sequence:
#
# PCOD9507538 Si02
#       5
#    16  16   8  16  16
#     4  10  21  37  64  96 136 176 221 283 332 404
#     4  11  25  42  68 103 142 183 222 279 347 418
#     4  12  22  38  64  99 143 180 222 264 336 432
#     4  10  21  35  61 102 143 179 220 263 344 411
#     4  11  25  48  70  95 127 176 237 294 346 404
#
# _framework density 22.555845999999999
#
# number of rings (size 3 to 8) (size 9 to 14) (size 15 to 20)
#    0.000    1.333    1.111    4.000    6.222    6.667 
#    4.000    0.000    0.000    0.000    0.000    0.000 
#    0.000    0.000    0.000    0.000    0.000    0.000 
#
# Total GULP energy -200734.999819 kJ/mol
# GULP energy per Si atom -5575.972217 kJ/mol
# Density = 2.250451 g / cm^3
# Si number density = 22.555846 Si / 1000 Ang^3
#
#
#
# Elastic Constant Matrix: (Units=GPa)
#
#
# Indices 1 2 3 4 5 6 
#
# 1 155.3686 40.1634 11.3976 0.0000 0.0000 0.0000
# 2 40.1634 80.1650 0.7750 0.0000 0.0000 0.0000
# 3 11.3976 0.7750 43.3899 0.0000 0.0000 0.0000
# 4 0.0000 0.0000 0.0000 -8.8442 0.0000 0.0000
# 5 0.0000 0.0000 0.0000 0.0000 11.3060 0.0000
# 6 0.0000 0.0000 0.0000 0.0000 0.0000 30.3093
#
#
#
# Elastic Compliance Matrix: (Units=1/GPa)
#
#
# Indices 1 2 3 4 5 6 
#
# 1 0.007550 -0.003764 -0.001916 0.000000 0.000000 0.000000
# 2 -0.003764 0.014353 0.000732 0.000000 0.000000 0.000000
# 3 -0.001916 0.000732 0.023537 0.000000 0.000000 0.000000
# 4 0.000000 0.000000 0.000000 -0.113068 0.000000 0.000000
# 5 0.000000 0.000000 0.000000 0.000000 0.088448 0.000000
# 6 0.000000 0.000000 0.000000 0.000000 0.000000 0.032993
#
#
# Mechanical properties :
#
#
# Convention : Reuss Voigt Hill
#
# Bulk Modulus (GPa) = 28.13360 42.62172 35.37766
# Shear Modulus (GPa) = 66.17527 21.66005 43.91766
#
# Velocity S-wave (km/s) = 5.42237 3.10221 4.41734
# Velocity P-wave (km/s) = 7.19046 5.63637 6.46032
#
# Compressibility (1/GPa) = 0.03554469
#
# Stress axis : x y z
#
# Youngs Moduli (GPa) = 132.45248 69.67178 42.48618
#
# Poissons Ratio (x) = 0.26225 0.08140
# Poissons Ratio (y) = 0.49856 -0.03112
# Poissons Ratio (z) = 0.25377 -0.05103
#
# Static dielectric constant tensor:
#      x y z
#    x 2.081170 0.000000 0.000000 
#    y 0.000000 1.824610 0.000000 
#    z 0.000000 0.000000 1.815890 
# 
# From -- ./inp_files/42900.got.cif
#   From: 2010.05.17/outbox.cif.g08.bks.cpg/sg68_22_cif.got.tgz:42900.got - 2010.06.03 18:57:09.
