data_PCOD9507379
_publ_section_title
;
Structure prediction by ZEFSAII (Michael W. Deem and Ramdas Pophale) SiO2 
 PCOD9507379
Probable space group: C C C A
;
_chemical_formula_sum "Si O2"
_cell_formula_units_Z 96
_cell_length_a 13.608359
_cell_length_b 14.030279
_cell_length_c 22.234164
_cell_angle_alpha 90.000000
_cell_angle_beta 90.000000
_cell_angle_gamma 90.000000
_cell_volume 4245.148333
_symmetry_space_group_name_H-M "C C C A"
_symmetry_group_IT_number 68
_space_group.IT_coordinate_system_code '2'
_symmetry_cell_setting 'orthorhombic'
loop_
_space_group_symop_operation_xyz
x,y,z
-x,1/2-y,z
x,1/2-y,1/2-z
-x,y,1/2-z
-x,-y,-z
x,1/2+y,-z
-x,1/2+y,1/2+z
x,-y,1/2+z
1/2+x,1/2+y,z
1/2-x,-y,z
1/2+x,-y,1/2-z
1/2-x,1/2+y,1/2-z
1/2-x,1/2-y,-z
1/2+x,y,-z
1/2-x,y,1/2+z
1/2+x,1/2-y,1/2+z
loop_
_atom_site_type_symbol
_atom_site_label
_atom_site_fract_x
_atom_site_fract_y
_atom_site_fract_z
Si Si1 0.500000 0.250000 0.516625
Si Si2 0.514697 0.906134 0.681171
Si Si3 0.451433 0.375771 0.685889
Si Si4 0.750000 0.000000 0.007226
Si Si5 0.168637 0.873946 0.093786
Si Si6 0.122279 0.159742 0.929611
Si Si7 0.367141 0.287599 0.877552
O O1 0.473380 0.161489 0.473087
O O2 0.402666 0.254534 0.558375
O O3 0.500000 0.874738 0.750000
O O4 0.412540 0.901467 0.643490
O O5 0.588694 0.848522 0.639145
O O6 0.562032 0.011908 0.683295
O O7 0.500000 0.354225 0.750000
O O8 0.364473 0.303489 0.667458
O O9 0.538208 0.349678 0.640117
O O10 0.676421 0.947603 0.960945
O O11 0.804755 0.921158 0.047587
O O12 0.159293 0.767423 0.066708
O O13 0.276154 0.858534 0.123575
#
# Coordination Sequence:
#
# PCOD9507379 Si02
#       7
#     8  16  16   8  16  16  16
#     4  10  20  42  64 100 134 174 222 272 358 416
#     4  11  26  48  69  96 138 194 240 285 358 429
#     4   9  20  42  67  96 137 178 243 290 348 420
#     4  12  28  42  72 110 140 178 236 298 368 422
#     4  12  25  44  69 101 143 180 235 287 353 438
#     4  12  26  45  67 101 140 184 228 293 354 429
#     4  10  21  38  68 103 136 177 224 296 352 411
#
# _framework density 22.614049999999999
#
# number of rings (size 3 to 8) (size 9 to 14) (size 15 to 20)
#    0.000    1.333    3.333    2.500    4.667    3.333 
#    6.000    0.833    0.000    0.000    0.000    0.000 
#    0.000    0.000    0.000    0.000    0.000    0.000 
#
# Total GULP energy -267774.751685 kJ/mol
# GULP energy per Si atom -5578.640660 kJ/mol
# Density = 2.256258 g / cm^3
# Si number density = 22.614050 Si / 1000 Ang^3
#
#
#
# Elastic Constant Matrix: (Units=GPa)
#
#
# Indices 1 2 3 4 5 6 
#
# 1 37.4669 -8.5249 6.6447 0.0000 0.0000 0.0000
# 2 -8.5249 83.6031 24.1191 0.0000 0.0000 0.0000
# 3 6.6447 24.1191 147.8733 0.0000 0.0000 0.0000
# 4 0.0000 0.0000 0.0000 38.1298 0.0000 0.0000
# 5 0.0000 0.0000 0.0000 0.0000 9.4291 0.0000
# 6 0.0000 0.0000 0.0000 0.0000 0.0000 36.0604
#
#
#
# Elastic Compliance Matrix: (Units=1/GPa)
#
#
# Indices 1 2 3 4 5 6 
#
# 1 0.027770 0.003349 -0.001794 0.000000 0.000000 0.000000
# 2 0.003349 0.012956 -0.002264 0.000000 0.000000 0.000000
# 3 -0.001794 -0.002264 0.007212 0.000000 0.000000 0.000000
# 4 0.000000 0.000000 0.000000 0.026226 0.000000 0.000000
# 5 0.000000 0.000000 0.000000 0.000000 0.106055 0.000000
# 6 0.000000 0.000000 0.000000 0.000000 0.000000 0.027731
#
#
# Mechanical properties :
#
#
# Convention : Reuss Voigt Hill
#
# Bulk Modulus (GPa) = 21.49538 34.82458 28.15998
# Shear Modulus (GPa) = 22.23451 33.17080 27.70265
#
# Velocity S-wave (km/s) = 3.13903 3.83407 3.50382
# Velocity P-wave (km/s) = 4.76067 5.91887 5.37108
#
# Compressibility (1/GPa) = 0.04652163
#
# Stress axis : x y z
#
# Youngs Moduli (GPa) = 36.00950 77.18510 138.65030
#
# Poissons Ratio (x) = -0.25852 0.24876
# Poissons Ratio (y) = -0.12061 0.31386
# Poissons Ratio (z) = 0.06461 0.17472
#
# Static dielectric constant tensor:
#      x y z
#    x 1.835220 0.000000 0.000000 
#    y 0.000000 1.882510 0.000000 
#    z 0.000000 0.000000 2.028100 
# 
# From -- ./inp_files/38641.got.cif
#   From: 2010.05.17/outbox.cif.g08.bks.cpg/sg68_20_cif.got.tgz:38641.got - 2010.06.03 18:57:09.
