data_PCOD9507225
_publ_section_title
;
Structure prediction by ZEFSAII (Michael W. Deem and Ramdas Pophale) SiO2 
 PCOD9507225
Probable space group: C C C A
;
_chemical_formula_sum "Si O2"
_cell_formula_units_Z 72
_cell_length_a 13.911115
_cell_length_b 14.796853
_cell_length_c 14.261477
_cell_angle_alpha 90.000000
_cell_angle_beta 90.000000
_cell_angle_gamma 90.000000
_cell_volume 2935.592747
_symmetry_space_group_name_H-M "C C C A"
_symmetry_group_IT_number 68
_space_group.IT_coordinate_system_code '2'
_symmetry_cell_setting 'orthorhombic'
loop_
_space_group_symop_operation_xyz
x,y,z
-x,1/2-y,z
x,1/2-y,1/2-z
-x,y,1/2-z
-x,-y,-z
x,1/2+y,-z
-x,1/2+y,1/2+z
x,-y,1/2+z
1/2+x,1/2+y,z
1/2-x,-y,z
1/2+x,-y,1/2-z
1/2-x,1/2+y,1/2-z
1/2-x,1/2-y,-z
1/2+x,y,-z
1/2-x,y,1/2+z
1/2+x,1/2-y,1/2+z
loop_
_atom_site_type_symbol
_atom_site_label
_atom_site_fract_x
_atom_site_fract_y
_atom_site_fract_z
Si Si1 0.500000 0.250000 0.937552
Si Si2 0.873780 0.306648 0.599758
Si Si3 0.659546 0.888795 0.398141
Si Si4 0.750000 0.000000 0.747289
Si Si5 0.640399 0.591784 0.893737
Si Si6 0.000000 0.089477 0.750000
O O1 0.423257 0.313842 0.885304
O O2 0.563622 0.317299 0.004709
O O3 0.764555 0.340852 0.595054
O O4 0.876676 0.198534 0.606536
O O5 0.925057 0.350060 0.689739
O O6 0.645985 0.936113 0.499160
O O7 0.668964 0.963176 0.317674
O O8 0.731541 0.921288 0.672652
O O9 0.558297 0.542260 0.833406
#
# Coordination Sequence:
#
# PCOD9507225 Si02
#       6
#     8  16  16   8  16   8
#     4  10  20  39  68  99 128 174 242 306 349 411
#     4  11  20  39  74  99 126 178 248 303 337 425
#     4  11  24  42  68 102 140 186 240 300 365 421
#     4  12  26  40  64  98 152 198 222 288 376 442
#     4  11  22  41  65  99 133 179 239 289 350 429
#     4  12  19  38  74 102 118 171 248 293 336 420
#
# _framework density 24.526562999999999
#
# number of rings (size 3 to 8) (size 9 to 14) (size 15 to 20)
#    0.000    0.889    6.667    4.667    0.000    0.000 
#    0.000    8.889    0.000    5.333    0.000    0.000 
#    0.000    0.000    0.000    0.000    0.000    0.000 
#
# Total GULP energy -201077.809525 kJ/mol
# GULP energy per Si atom -5585.494709 kJ/mol
# Density = 2.447074 g / cm^3
# Si number density = 24.526563 Si / 1000 Ang^3
#
#
#
# Elastic Constant Matrix: (Units=GPa)
#
#
# Indices 1 2 3 4 5 6 
#
# 1 121.8298 33.5304 30.1500 0.0000 0.0000 0.0000
# 2 33.5304 47.1317 19.2696 0.0000 0.0000 0.0000
# 3 30.1500 19.2696 125.4826 0.0000 0.0000 0.0000
# 4 0.0000 0.0000 0.0000 13.8401 0.0000 0.0000
# 5 0.0000 0.0000 0.0000 0.0000 46.0239 0.0000
# 6 0.0000 0.0000 0.0000 0.0000 0.0000 25.2049
#
#
#
# Elastic Compliance Matrix: (Units=1/GPa)
#
#
# Indices 1 2 3 4 5 6 
#
# 1 0.010452 -0.006838 -0.001461 0.000000 0.000000 0.000000
# 2 -0.006838 0.027112 -0.002520 0.000000 0.000000 0.000000
# 3 -0.001461 -0.002520 0.008707 0.000000 0.000000 0.000000
# 4 0.000000 0.000000 0.000000 0.072254 0.000000 0.000000
# 5 0.000000 0.000000 0.000000 0.000000 0.021728 0.000000
# 6 0.000000 0.000000 0.000000 0.000000 0.000000 0.039675
#
#
# Mechanical properties :
#
#
# Convention : Reuss Voigt Hill
#
# Bulk Modulus (GPa) = 40.59773 51.14933 45.87353
# Shear Modulus (GPa) = 23.83469 31.11340 27.47404
#
# Velocity S-wave (km/s) = 3.12074 3.56555 3.35053
# Velocity P-wave (km/s) = 5.43818 6.15230 5.80623
#
# Compressibility (1/GPa) = 0.02463192
#
# Stress axis : x y z
#
# Youngs Moduli (GPa) = 95.67706 36.88341 114.84537
#
# Poissons Ratio (x) = 0.25222 0.16781
# Poissons Ratio (y) = 0.65426 0.28946
# Poissons Ratio (z) = 0.13980 0.09296
#
# Static dielectric constant tensor:
#      x y z
#    x 2.160570 0.000000 0.000000 
#    y 0.000000 1.934910 0.000000 
#    z 0.000000 0.000000 1.964200 
# 
# From -- ./inp_files/22070.got.cif
#   From: 2010.05.17/outbox.cif.g08.bks.cpg/sg68_12_cif.got.tgz:22070.got - 2010.06.03 18:57:09.
