data_PCOD9507194
_publ_section_title
;
Structure prediction by ZEFSAII (Michael W. Deem and Ramdas Pophale) SiO2 
 PCOD9507194
Probable space group: C C C A
;
_chemical_formula_sum "Si O2"
_cell_formula_units_Z 80
_cell_length_a 13.079804
_cell_length_b 26.600552
_cell_length_c 13.368702
_cell_angle_alpha 90.000000
_cell_angle_beta 90.000000
_cell_angle_gamma 90.000000
_cell_volume 4651.372573
_symmetry_space_group_name_H-M "C C C A"
_symmetry_group_IT_number 68
_space_group.IT_coordinate_system_code '2'
_symmetry_cell_setting 'orthorhombic'
loop_
_space_group_symop_operation_xyz
x,y,z
-x,1/2-y,z
x,1/2-y,1/2-z
-x,y,1/2-z
-x,-y,-z
x,1/2+y,-z
-x,1/2+y,1/2+z
x,-y,1/2+z
1/2+x,1/2+y,z
1/2-x,-y,z
1/2+x,-y,1/2-z
1/2-x,1/2+y,1/2-z
1/2-x,1/2-y,-z
1/2+x,y,-z
1/2-x,y,1/2+z
1/2+x,1/2-y,1/2+z
loop_
_atom_site_type_symbol
_atom_site_label
_atom_site_fract_x
_atom_site_fract_y
_atom_site_fract_z
Si Si1 0.191870 0.385030 0.880700
Si Si2 0.760048 0.056959 0.185432
Si Si3 0.510033 0.693641 0.631816
Si Si4 0.441195 0.051637 0.973994
Si Si5 0.373339 0.386663 0.028292
O O1 0.239989 0.404312 0.776195
O O2 0.114618 0.337951 0.880749
O O3 0.127055 0.430773 0.930852
O O4 0.282551 0.372165 0.955721
O O5 0.866112 0.055927 0.121759
O O6 0.672577 0.071616 0.104366
O O7 0.750000 0.000000 0.223728
O O8 0.500000 0.750000 0.589188
O O9 0.500000 0.697392 0.750000
O O10 0.419172 0.659337 0.589776
O O11 0.533308 0.090986 0.965252
O O12 0.500000 0.000000 0.000000
#
# Coordination Sequence:
#
# PCOD9507194 Si02
#       5
#    16  16  16  16  16
#     4  10  23  36  57  86 115 150 195 238 286 353
#     4  11  21  34  55  81 119 158 191 234 284 338
#     4  10  20  39  65  85 109 149 195 247 295 342
#     4  10  21  36  53  79 117 159 194 232 281 348
#     4  10  21  39  55  83 119 146 194 239 285 352
#
# _framework density 17.199223
#
# number of rings (size 3 to 8) (size 9 to 14) (size 15 to 20)
#    0.000    1.800    4.000    0.000    2.800    1.600 
#    0.000    0.000    0.000    0.000    0.000    1.400 
#    0.000    0.000    0.000    0.000    0.000    0.000 
#
# Total GULP energy -222718.507518 kJ/mol
# GULP energy per Si atom -5567.962688 kJ/mol
# Density = 1.716008 g / cm^3
# Si number density = 17.199223 Si / 1000 Ang^3
#
#
#
# Elastic Constant Matrix: (Units=GPa)
#
#
# Indices 1 2 3 4 5 6 
#
# 1 125.8683 59.5453 52.6386 0.0000 0.0000 0.0000
# 2 59.5453 114.1352 36.2551 0.0000 0.0000 0.0000
# 3 52.6386 36.2551 66.7790 0.0000 0.0000 0.0000
# 4 0.0000 0.0000 0.0000 14.3843 0.0000 0.0000
# 5 0.0000 0.0000 0.0000 0.0000 25.1629 0.0000
# 6 0.0000 0.0000 0.0000 0.0000 0.0000 10.4568
#
#
#
# Elastic Compliance Matrix: (Units=1/GPa)
#
#
# Indices 1 2 3 4 5 6 
#
# 1 0.013473 -0.004417 -0.008222 0.000000 0.000000 0.000000
# 2 -0.004417 0.012036 -0.003052 0.000000 0.000000 0.000000
# 3 -0.008222 -0.003052 0.023113 0.000000 0.000000 0.000000
# 4 0.000000 0.000000 0.000000 0.069520 0.000000 0.000000
# 5 0.000000 0.000000 0.000000 0.000000 0.039741 0.000000
# 6 0.000000 0.000000 0.000000 0.000000 0.000000 0.095632
#
#
# Mechanical properties :
#
#
# Convention : Reuss Voigt Hill
#
# Bulk Modulus (GPa) = 58.01005 67.07340 62.54172
# Shear Modulus (GPa) = 17.20321 20.55704 18.88012
#
# Velocity S-wave (km/s) = 3.16608 3.46096 3.31680
# Velocity P-wave (km/s) = 6.86782 7.41981 7.14914
#
# Compressibility (1/GPa) = 0.01723839
#
# Stress axis : x y z
#
# Youngs Moduli (GPa) = 74.22285 83.08647 43.26601
#
# Poissons Ratio (x) = 0.36702 0.35573
# Poissons Ratio (y) = 0.32786 0.13206
# Poissons Ratio (z) = 0.61025 0.25361
#
# Static dielectric constant tensor:
#      x y z
#    x 1.586980 0.000000 0.000000 
#    y 0.000000 1.626140 0.000000 
#    z 0.000000 0.000000 1.610580 
# 
# From -- ./inp_files/11930.got.cif
#   From: 2010.05.17/outbox.cif.g08.bks.cpg/sg68_6_cif.got.tgz:11930.got - 2010.06.03 18:57:09.
