data_PCOD9507149
_publ_section_title
;
Structure prediction by ZEFSAII (Michael W. Deem and Ramdas Pophale) SiO2 
 PCOD9507149
Probable space group: C C C A
;
_chemical_formula_sum "Si O2"
_cell_formula_units_Z 104
_cell_length_a 15.871182
_cell_length_b 17.923012
_cell_length_c 18.685008
_cell_angle_alpha 90.000000
_cell_angle_beta 90.000000
_cell_angle_gamma 90.000000
_cell_volume 5315.125893
_symmetry_space_group_name_H-M "C C C A"
_symmetry_group_IT_number 68
_space_group.IT_coordinate_system_code '2'
_symmetry_cell_setting 'orthorhombic'
loop_
_space_group_symop_operation_xyz
x,y,z
-x,1/2-y,z
x,1/2-y,1/2-z
-x,y,1/2-z
-x,-y,-z
x,1/2+y,-z
-x,1/2+y,1/2+z
x,-y,1/2+z
1/2+x,1/2+y,z
1/2-x,-y,z
1/2+x,-y,1/2-z
1/2-x,1/2+y,1/2-z
1/2-x,1/2-y,-z
1/2+x,y,-z
1/2-x,y,1/2+z
1/2+x,1/2-y,1/2+z
loop_
_atom_site_type_symbol
_atom_site_label
_atom_site_fract_x
_atom_site_fract_y
_atom_site_fract_z
Si Si1 0.211134 0.079068 0.230042
Si Si2 0.061639 0.942193 0.639470
Si Si3 0.268097 0.185318 0.442756
Si Si4 0.500000 0.434363 0.250000
Si Si5 0.142087 0.677538 0.207908
Si Si6 0.660640 0.465796 0.501527
Si Si7 0.623663 0.915024 0.118271
O O1 0.139303 0.102670 0.174289
O O2 0.282712 0.139267 0.246215
O O3 0.166308 0.065818 0.306291
O O4 0.250000 0.000000 0.206257
O O5 0.092291 0.970737 0.563112
O O6 0.974139 0.898681 0.631285
O O7 0.044086 0.011297 0.692662
O O8 0.250000 0.250000 0.500000
O O9 0.320465 0.200326 0.369598
O O10 0.319843 0.118869 0.480609
O O11 0.178972 0.149962 0.417285
O O12 0.432471 0.383113 0.208614
O O13 0.112251 0.750000 0.250000
O O14 0.750000 0.500000 0.526123
O O15 0.632832 0.513224 0.432727
#
# Coordination Sequence:
#
# PCOD9507149 Si02
#       7
#    16  16  16   8  16  16  16
#     4  11  19  37  64  90 124 167 212 262 322 385
#     4  12  21  35  65  98 124 157 213 272 317 386
#     4  10  23  43  65  85 130 178 219 259 326 396
#     4  12  23  40  64  98 137 160 214 278 341 380
#     4  11  25  41  64  93 133 176 213 269 331 399
#     4  10  22  37  62  92 124 163 216 268 321 384
#     4  10  20  39  60  92 124 162 208 275 327 371
#
# _framework density 19.566799
#
# number of rings (size 3 to 8) (size 9 to 14) (size 15 to 20)
#    0.000    1.231    3.077    4.385    2.154    1.231 
#    0.000    2.308    0.000    0.923    0.000    0.000 
#    0.000    0.000    0.000    0.000    0.000    0.000 
#
# Total GULP energy -290509.637848 kJ/mol
# GULP energy per Si atom -5586.723805 kJ/mol
# Density = 1.952226 g / cm^3
# Si number density = 19.566799 Si / 1000 Ang^3
#
#
#
# Elastic Constant Matrix: (Units=GPa)
#
#
# Indices 1 2 3 4 5 6 
#
# 1 96.1819 5.9173 19.1624 0.0000 0.0000 0.0000
# 2 5.9173 57.9696 32.4221 0.0000 0.0000 0.0000
# 3 19.1624 32.4221 77.7688 0.0000 0.0000 0.0000
# 4 0.0000 0.0000 0.0000 15.7595 0.0000 0.0000
# 5 0.0000 0.0000 0.0000 0.0000 33.6599 0.0000
# 6 0.0000 0.0000 0.0000 0.0000 0.0000 10.7546
#
#
#
# Elastic Compliance Matrix: (Units=1/GPa)
#
#
# Indices 1 2 3 4 5 6 
#
# 1 0.010945 0.000510 -0.002910 0.000000 0.000000 0.000000
# 2 0.000510 0.022520 -0.009514 0.000000 0.000000 0.000000
# 3 -0.002910 -0.009514 0.017542 0.000000 0.000000 0.000000
# 4 0.000000 0.000000 0.000000 0.063454 0.000000 0.000000
# 5 0.000000 0.000000 0.000000 0.000000 0.029709 0.000000
# 6 0.000000 0.000000 0.000000 0.000000 0.000000 0.092984
#
#
# Mechanical properties :
#
#
# Convention : Reuss Voigt Hill
#
# Bulk Modulus (GPa) = 36.79242 38.54709 37.66976
# Shear Modulus (GPa) = 18.51574 23.66271 21.08923
#
# Velocity S-wave (km/s) = 3.07951 3.48131 3.28656
# Velocity P-wave (km/s) = 5.61149 5.99186 5.80479
#
# Compressibility (1/GPa) = 0.02717951
#
# Stress axis : x y z
#
# Youngs Moduli (GPa) = 91.36368 44.40577 57.00583
#
# Poissons Ratio (x) = -0.02265 0.16586
# Poissons Ratio (y) = -0.04660 0.54236
# Poissons Ratio (z) = 0.26583 0.42249
#
# Static dielectric constant tensor:
#      x y z
#    x 1.717770 0.000000 0.000000 
#    y 0.000000 1.664070 0.000000 
#    z 0.000000 0.000000 1.682400 
# 
# From -- ./inp_files/32091.got.cif
#   From: 2010.05.17/outbox.cif.g08.bks.cpg/sg68_17_cif.got.tgz:32091.got - 2010.06.03 18:57:09.
