data_PCOD9507418
_publ_section_title
;
Structure prediction by ZEFSAII (Michael W. Deem and Ramdas Pophale) SiO2 
 PCOD9507418
Probable space group: C C C A
;
_chemical_formula_sum "Si O2"
_cell_formula_units_Z 88
_cell_length_a 19.945396
_cell_length_b 13.648510
_cell_length_c 15.092381
_cell_angle_alpha 90.000000
_cell_angle_beta 90.000000
_cell_angle_gamma 90.000000
_cell_volume 4108.522463
_symmetry_space_group_name_H-M "C C C A"
_symmetry_group_IT_number 68
_space_group.IT_coordinate_system_code '2'
_symmetry_cell_setting 'orthorhombic'
loop_
_space_group_symop_operation_xyz
x,y,z
-x,1/2-y,z
x,1/2-y,1/2-z
-x,y,1/2-z
-x,-y,-z
x,1/2+y,-z
-x,1/2+y,1/2+z
x,-y,1/2+z
1/2+x,1/2+y,z
1/2-x,-y,z
1/2+x,-y,1/2-z
1/2-x,1/2+y,1/2-z
1/2-x,1/2-y,-z
1/2+x,y,-z
1/2-x,y,1/2+z
1/2+x,1/2-y,1/2+z
loop_
_atom_site_type_symbol
_atom_site_label
_atom_site_fract_x
_atom_site_fract_y
_atom_site_fract_z
Si Si1 0.500000 0.250000 0.926972
Si Si2 0.905353 0.127329 0.953653
Si Si3 0.211045 0.399474 0.091001
Si Si4 0.458390 0.958685 0.159991
Si Si5 0.289076 0.726238 0.854197
Si Si6 0.691851 0.919073 0.288634
O O1 0.519704 0.150725 0.872716
O O2 0.557947 0.287898 0.991748
O O3 0.858394 0.175888 0.879440
O O4 0.956871 0.046333 0.913719
O O5 0.848956 0.089153 0.022158
O O6 0.250000 0.500000 0.091032
O O7 0.268196 0.316316 0.083768
O O8 0.182080 0.378138 0.189348
O O9 0.500000 0.981700 0.250000
O O10 0.379660 0.954865 0.181645
O O11 0.294517 0.750000 0.750000
O O12 0.224569 0.655545 0.857400
O O13 0.750000 0.000000 0.281445
#
# Coordination Sequence:
#
# PCOD9507418 Si02
#       6
#     8  16  16  16  16  16
#     4  12  29  48  65 104 148 198 242 306 371 452
#     4  12  26  44  70 102 141 188 244 302 365 429
#     4  10  23  38  69 106 139 172 226 303 365 422
#     4  12  27  47  76 102 146 199 250 295 373 447
#     4  10  22  41  69 106 140 187 235 298 368 432
#     4  10  20  43  70 102 138 180 239 290 352 439
#
# _framework density 21.418892
#
# number of rings (size 3 to 8) (size 9 to 14) (size 15 to 20)
#    0.000    1.091    1.818    3.545    5.091    4.364 
#    0.000    0.000    0.000    0.000    0.000    0.000 
#    0.000    0.000    0.000    0.000    0.000    0.000 
#
# Total GULP energy -245421.329979 kJ/mol
# GULP energy per Si atom -5577.757500 kJ/mol
# Density = 2.137014 g / cm^3
# Si number density = 21.418892 Si / 1000 Ang^3
#
#
#
# Elastic Constant Matrix: (Units=GPa)
#
#
# Indices 1 2 3 4 5 6 
#
# 1 87.7680 26.6341 26.4120 0.0000 0.0000 0.0000
# 2 26.6341 113.6236 42.1362 0.0000 0.0000 0.0000
# 3 26.4120 42.1362 90.5351 0.0000 0.0000 0.0000
# 4 0.0000 0.0000 0.0000 27.8918 0.0000 0.0000
# 5 0.0000 0.0000 0.0000 0.0000 46.1065 0.0000
# 6 0.0000 0.0000 0.0000 0.0000 0.0000 42.4039
#
#
#
# Elastic Compliance Matrix: (Units=1/GPa)
#
#
# Indices 1 2 3 4 5 6 
#
# 1 0.012841 -0.001959 -0.002834 0.000000 0.000000 0.000000
# 2 -0.001959 0.010936 -0.004518 0.000000 0.000000 0.000000
# 3 -0.002834 -0.004518 0.013975 0.000000 0.000000 0.000000
# 4 0.000000 0.000000 0.000000 0.035853 0.000000 0.000000
# 5 0.000000 0.000000 0.000000 0.000000 0.021689 0.000000
# 6 0.000000 0.000000 0.000000 0.000000 0.000000 0.023583
#
#
# Mechanical properties :
#
#
# Convention : Reuss Voigt Hill
#
# Bulk Modulus (GPa) = 52.27687 53.58793 52.93240
# Shear Modulus (GPa) = 34.75222 36.39674 35.57448
#
# Velocity S-wave (km/s) = 4.03240 4.12671 4.07983
# Velocity P-wave (km/s) = 6.79266 6.91228 6.85273
#
# Compressibility (1/GPa) = 0.01912892
#
# Stress axis : x y z
#
# Youngs Moduli (GPa) = 77.87498 91.44390 71.55568
#
# Poissons Ratio (x) = 0.17913 0.20282
# Poissons Ratio (y) = 0.15255 0.32330
# Poissons Ratio (z) = 0.22073 0.41315
#
# Static dielectric constant tensor:
#      x y z
#    x 1.685050 0.000000 0.000000 
#    y 0.000000 1.864370 0.000000 
#    z 0.000000 0.000000 1.865760 
# 
# From -- ./inp_files/24395.got.cif
#   From: 2010.05.17/outbox.cif.g08.bks.cpg/sg68_13_cif.got.tgz:24395.got - 2010.06.03 18:57:09.
