data_PCOD9507228
_publ_section_title
;
Structure prediction by ZEFSAII (Michael W. Deem and Ramdas Pophale) SiO2 
 PCOD9507228
Probable space group: C C C A
;
_chemical_formula_sum "Si O2"
_cell_formula_units_Z 52
_cell_length_a 8.042029
_cell_length_b 14.699497
_cell_length_c 17.327206
_cell_angle_alpha 90.000000
_cell_angle_beta 90.000000
_cell_angle_gamma 90.000000
_cell_volume 2048.314538
_symmetry_space_group_name_H-M "C C C A"
_symmetry_group_IT_number 68
_space_group.IT_coordinate_system_code '2'
_symmetry_cell_setting 'orthorhombic'
loop_
_space_group_symop_operation_xyz
x,y,z
-x,1/2-y,z
x,1/2-y,1/2-z
-x,y,1/2-z
-x,-y,-z
x,1/2+y,-z
-x,1/2+y,1/2+z
x,-y,1/2+z
1/2+x,1/2+y,z
1/2-x,-y,z
1/2+x,-y,1/2-z
1/2-x,1/2+y,1/2-z
1/2-x,1/2-y,-z
1/2+x,y,-z
1/2-x,y,1/2+z
1/2+x,1/2-y,1/2+z
loop_
_atom_site_type_symbol
_atom_site_label
_atom_site_fract_x
_atom_site_fract_y
_atom_site_fract_z
Si Si1 0.500000 0.750000 0.250000
Si Si2 0.042739 0.897106 0.471193
Si Si3 0.077841 0.052264 0.674756
Si Si4 0.888325 0.374794 0.381617
O O1 0.389139 0.809795 0.307973
O O2 0.219229 0.883276 0.430473
O O3 0.915067 0.883339 0.400177
O O4 0.020108 0.846670 0.551820
O O5 0.000000 0.000000 0.500000
O O6 0.000000 0.097669 0.750000
O O7 0.250000 0.000000 0.687169
O O8 0.948262 0.971370 0.653324
#
# Coordination Sequence:
#
# PCOD9507228 Si02
#       4
#     4  16  16  16
#     4  12  28  44  68  90 154 204 238 270 340 452
#     4  10  20  39  70 100 131 166 237 305 367 406
#     4  11  20  35  66 105 133 165 221 305 374 410
#     4  11  23  43  66 101 137 191 230 284 358 432
#
# _framework density 25.386727
#
# number of rings (size 3 to 8) (size 9 to 14) (size 15 to 20)
#    0.000    1.231    1.538    9.231    0.000    1.231 
#    0.000    0.000    0.000    3.692    0.000    0.000 
#    0.000    0.000    0.000    0.000    0.000    0.000 
#
# Total GULP energy -145233.481511 kJ/mol
# GULP energy per Si atom -5585.903135 kJ/mol
# Density = 2.532895 g / cm^3
# Si number density = 25.386727 Si / 1000 Ang^3
#
#
#
# Elastic Constant Matrix: (Units=GPa)
#
#
# Indices 1 2 3 4 5 6 
#
# 1 159.3452 5.4602 60.6918 0.0000 0.0000 0.0000
# 2 5.4602 59.7679 29.1429 0.0000 0.0000 0.0000
# 3 60.6918 29.1429 245.7048 0.0000 0.0000 0.0000
# 4 0.0000 0.0000 0.0000 34.7853 0.0000 0.0000
# 5 0.0000 0.0000 0.0000 0.0000 32.0860 0.0000
# 6 0.0000 0.0000 0.0000 0.0000 0.0000 -0.4803
#
#
#
# Elastic Compliance Matrix: (Units=1/GPa)
#
#
# Indices 1 2 3 4 5 6 
#
# 1 0.006930 0.000214 -0.001737 0.000000 0.000000 0.000000
# 2 0.000214 0.017765 -0.002160 0.000000 0.000000 0.000000
# 3 -0.001737 -0.002160 0.004755 0.000000 0.000000 0.000000
# 4 0.000000 0.000000 0.000000 0.028748 0.000000 0.000000
# 5 0.000000 0.000000 0.000000 0.000000 0.031166 0.000000
# 6 0.000000 0.000000 0.000000 0.000000 0.000000 -2.082024
#
#
# Mechanical properties :
#
#
# Convention : Reuss Voigt Hill
#
# Bulk Modulus (GPa) = 45.28183 72.82307 59.05245
# Shear Modulus (GPa) = -2.52789 37.91306 17.69258
#
# Velocity S-wave (km/s) = -0.99896 3.86867 2.64279
# Velocity P-wave (km/s) = 4.06755 6.97877 5.71175
#
# Compressibility (1/GPa) = 0.02208392
#
# Stress axis : x y z
#
# Youngs Moduli (GPa) = 144.29998 56.29035 210.29547
#
# Poissons Ratio (x) = -0.01204 0.36532
# Poissons Ratio (y) = -0.03087 0.45423
# Poissons Ratio (z) = 0.25067 0.12158
#
# Static dielectric constant tensor:
#      x y z
#    x 2.089390 0.000000 0.000000 
#    y 0.000000 2.124830 0.000000 
#    z 0.000000 0.000000 2.097270 
# 
# From -- ./inp_files/27604.got.cif
#   From: 2010.05.17/outbox.cif.g08.bks.cpg/sg68_14_cif.got.tgz:27604.got - 2010.06.03 18:57:09.
