data_PCOD9507899
_publ_section_title
;
Structure prediction by ZEFSAII (Michael W. Deem and Ramdas Pophale) SiO2 
 PCOD9507899
Probable space group: C C C A
;
_chemical_formula_sum "Si O2"
_cell_formula_units_Z 56
_cell_length_a 4.967535
_cell_length_b 24.324081
_cell_length_c 22.784859
_cell_angle_alpha 90.000000
_cell_angle_beta 90.000000
_cell_angle_gamma 90.000000
_cell_volume 2753.111003
_symmetry_space_group_name_H-M "C C C A"
_symmetry_group_IT_number 68
_space_group.IT_coordinate_system_code '2'
_symmetry_cell_setting 'orthorhombic'
loop_
_space_group_symop_operation_xyz
x,y,z
-x,1/2-y,z
x,1/2-y,1/2-z
-x,y,1/2-z
-x,-y,-z
x,1/2+y,-z
-x,1/2+y,1/2+z
x,-y,1/2+z
1/2+x,1/2+y,z
1/2-x,-y,z
1/2+x,-y,1/2-z
1/2-x,1/2+y,1/2-z
1/2-x,1/2-y,-z
1/2+x,y,-z
1/2-x,y,1/2+z
1/2+x,1/2-y,1/2+z
loop_
_atom_site_type_symbol
_atom_site_label
_atom_site_fract_x
_atom_site_fract_y
_atom_site_fract_z
Si Si1 0.697296 0.897898 0.868712
Si Si2 0.750000 0.000000 0.456621
Si Si3 0.805684 0.937045 0.692948
Si Si4 0.989290 0.184247 0.537711
O O1 0.490989 0.911142 0.815356
O O2 0.591313 0.845880 0.904411
O O3 0.002214 0.898339 0.846165
O O4 0.703686 0.948122 0.914590
O O5 0.500000 0.000000 0.500000
O O6 0.000000 0.944210 0.750000
O O7 0.750000 0.000000 0.672583
O O8 0.193273 0.168963 0.484722
O O9 0.000000 0.250000 0.545227
#
# Coordination Sequence:
#
# PCOD9507899 Si02
#       4
#    16   8  16  16
#     4  12  22  38  59  87 120 156 200 246 306 360
#     4  12  22  34  52  84 124 152 184 236 304 366
#     4  12  23  40  59  85 117 158 207 252 300 367
#     4  10  21  39  62  88 119 160 203 242 294 371
#
# _framework density 20.340627000000001
#
# number of rings (size 3 to 8) (size 9 to 14) (size 15 to 20)
#    0.000    0.571    2.857    7.714    0.000    0.000 
#    0.000    0.000    0.000    5.143    0.000    0.000 
#    0.000    0.000    0.000    0.000    0.000    0.000 
#
# Total GULP energy -156178.774732 kJ/mol
# GULP energy per Si atom -5577.813383 kJ/mol
# Density = 2.029433 g / cm^3
# Si number density = 20.340627 Si / 1000 Ang^3
#
#
#
# Elastic Constant Matrix: (Units=GPa)
#
#
# Indices 1 2 3 4 5 6 
#
# 1 145.5304 18.7197 26.7982 0.0000 0.0000 0.0000
# 2 18.7197 52.7004 19.5969 0.0000 0.0000 0.0000
# 3 26.7982 19.5969 54.4544 0.0000 0.0000 0.0000
# 4 0.0000 0.0000 0.0000 9.7392 0.0000 0.0000
# 5 0.0000 0.0000 0.0000 0.0000 12.9882 0.0000
# 6 0.0000 0.0000 0.0000 0.0000 0.0000 25.3169
#
#
#
# Elastic Compliance Matrix: (Units=1/GPa)
#
#
# Indices 1 2 3 4 5 6 
#
# 1 0.007661 -0.001523 -0.003222 0.000000 0.000000 0.000000
# 2 -0.001523 0.022210 -0.007243 0.000000 0.000000 0.000000
# 3 -0.003222 -0.007243 0.022556 0.000000 0.000000 0.000000
# 4 0.000000 0.000000 0.000000 0.102678 0.000000 0.000000
# 5 0.000000 0.000000 0.000000 0.000000 0.076993 0.000000
# 6 0.000000 0.000000 0.000000 0.000000 0.000000 0.039499
#
#
# Mechanical properties :
#
#
# Convention : Reuss Voigt Hill
#
# Bulk Modulus (GPa) = 35.14915 42.54610 38.84763
# Shear Modulus (GPa) = 16.39044 22.11356 19.25200
#
# Velocity S-wave (km/s) = 2.84174 3.30079 3.07983
# Velocity P-wave (km/s) = 5.29954 5.95728 5.63801
#
# Compressibility (1/GPa) = 0.02845019
#
# Stress axis : x y z
#
# Youngs Moduli (GPa) = 130.53804 45.02550 44.33373
#
# Poissons Ratio (x) = 0.06858 0.14284
# Poissons Ratio (y) = 0.19882 0.32112
# Poissons Ratio (z) = 0.42057 0.32613
#
# Static dielectric constant tensor:
#      x y z
#    x 1.707540 0.000000 0.000000 
#    y 0.000000 1.672300 0.000000 
#    z 0.000000 0.000000 1.746670 
# 
# From -- ./inp_files/34902.got.cif
#   From: 2010.05.17/outbox.cif.g08.bks.cpg/sg68_18_cif.got.tgz:34902.got - 2010.06.03 18:57:09.
