data_PCOD9507801
_publ_section_title
;
Structure prediction by ZEFSAII (Michael W. Deem and Ramdas Pophale) SiO2 
 PCOD9507801
Probable space group: C C C A
;
_chemical_formula_sum "Si O2"
_cell_formula_units_Z 104
_cell_length_a 21.201297
_cell_length_b 14.950765
_cell_length_c 16.262573
_cell_angle_alpha 90.000000
_cell_angle_beta 90.000000
_cell_angle_gamma 90.000000
_cell_volume 5154.838983
_symmetry_space_group_name_H-M "C C C A"
_symmetry_group_IT_number 68
_space_group.IT_coordinate_system_code '2'
_symmetry_cell_setting 'orthorhombic'
loop_
_space_group_symop_operation_xyz
x,y,z
-x,1/2-y,z
x,1/2-y,1/2-z
-x,y,1/2-z
-x,-y,-z
x,1/2+y,-z
-x,1/2+y,1/2+z
x,-y,1/2+z
1/2+x,1/2+y,z
1/2-x,-y,z
1/2+x,-y,1/2-z
1/2-x,1/2+y,1/2-z
1/2-x,1/2-y,-z
1/2+x,y,-z
1/2-x,y,1/2+z
1/2+x,1/2-y,1/2+z
loop_
_atom_site_type_symbol
_atom_site_label
_atom_site_fract_x
_atom_site_fract_y
_atom_site_fract_z
Si Si1 0.250000 0.500000 0.828723
Si Si2 0.873420 0.926588 0.391229
Si Si3 0.068247 0.113498 0.784948
Si Si4 0.424347 0.760924 0.925334
Si Si5 0.159992 0.849656 0.737629
Si Si6 0.573952 0.115880 0.921662
Si Si7 0.544843 0.420069 0.831509
O O1 0.199758 0.449845 0.886253
O O2 0.212128 0.573555 0.775270
O O3 0.893578 0.917089 0.295032
O O4 0.892051 0.834727 0.433337
O O5 0.910430 0.010669 0.428835
O O6 0.095816 0.191939 0.839984
O O7 0.000000 0.140360 0.750000
O O8 0.057549 0.025688 0.841474
O O9 0.500000 0.750000 0.920983
O O10 0.409717 0.826592 0.999782
O O11 0.185744 0.750000 0.750000
O O12 0.116469 0.852702 0.655478
O O13 0.110427 0.872991 0.810241
O O14 0.499534 0.122583 0.900344
O O15 0.500000 0.415740 0.750000
#
# Coordination Sequence:
#
# PCOD9507801 Si02
#       7
#     8  16  16  16  16  16  16
#     4  10  22  44  66  88 120 170 230 268 304 360
#     4  11  22  43  64  87 129 171 212 267 313 377
#     4  11  18  38  61  91 127 163 205 257 325 383
#     4  12  25  34  62 101 129 163 207 260 329 405
#     4  10  21  38  64  91 121 166 214 256 317 375
#     4  10  22  40  58  96 134 162 197 258 331 383
#     4   9  16  34  61  86 123 162 192 251 319 380
#
# _framework density 20.175217
#
# number of rings (size 3 to 8) (size 9 to 14) (size 15 to 20)
#    0.000    1.538    7.692    0.462    2.154    5.846 
#    0.000    3.077    0.000    4.615    0.000    0.000 
#    0.000    0.000    0.000    0.000    0.000    0.000 
#
# Total GULP energy -290530.263296 kJ/mol
# GULP energy per Si atom -5587.120448 kJ/mol
# Density = 2.012930 g / cm^3
# Si number density = 20.175217 Si / 1000 Ang^3
#
#
#
# Elastic Constant Matrix: (Units=GPa)
#
#
# Indices 1 2 3 4 5 6 
#
# 1 101.3292 48.0823 22.1824 0.0000 0.0000 0.0000
# 2 48.0823 170.7107 54.4217 0.0000 0.0000 0.0000
# 3 22.1824 54.4217 70.7246 0.0000 0.0000 0.0000
# 4 0.0000 0.0000 0.0000 28.5942 0.0000 0.0000
# 5 0.0000 0.0000 0.0000 0.0000 4.1367 0.0000
# 6 0.0000 0.0000 0.0000 0.0000 0.0000 19.2870
#
#
#
# Elastic Compliance Matrix: (Units=1/GPa)
#
#
# Indices 1 2 3 4 5 6 
#
# 1 0.011507 -0.002770 -0.001478 0.000000 0.000000 0.000000
# 2 -0.002770 0.008429 -0.005617 0.000000 0.000000 0.000000
# 3 -0.001478 -0.005617 0.018925 0.000000 0.000000 0.000000
# 4 0.000000 0.000000 0.000000 0.034972 0.000000 0.000000
# 5 0.000000 0.000000 0.000000 0.000000 0.241738 0.000000
# 6 0.000000 0.000000 0.000000 0.000000 0.000000 0.051848
#
#
# Mechanical properties :
#
#
# Convention : Reuss Voigt Hill
#
# Bulk Modulus (GPa) = 52.27025 65.79304 59.03164
# Shear Modulus (GPa) = 12.70567 24.94212 18.82389
#
# Velocity S-wave (km/s) = 2.51224 3.51988 3.05785
# Velocity P-wave (km/s) = 5.86340 7.01435 6.46454
#
# Compressibility (1/GPa) = 0.01913134
#
# Stress axis : x y z
#
# Youngs Moduli (GPa) = 86.90625 118.64211 52.84006
#
# Poissons Ratio (x) = 0.32863 0.07808
# Poissons Ratio (y) = 0.24072 0.29680
# Poissons Ratio (z) = 0.12841 0.66642
#
# Static dielectric constant tensor:
#      x y z
#    x 1.714550 0.000000 0.000000 
#    y 0.000000 1.757510 0.000000 
#    z 0.000000 0.000000 1.748960 
# 
# From -- ./inp_files/33002.got.cif
#   From: 2010.05.17/outbox.cif.g08.bks.cpg/sg68_17_cif.got.tgz:33002.got - 2010.06.03 18:57:09.
