data_PCOD9507518
_publ_section_title
;
Structure prediction by ZEFSAII (Michael W. Deem and Ramdas Pophale) SiO2 
 PCOD9507518
Probable space group: C C C A
;
_chemical_formula_sum "Si O2"
_cell_formula_units_Z 88
_cell_length_a 14.185620
_cell_length_b 24.538632
_cell_length_c 12.957461
_cell_angle_alpha 90.000000
_cell_angle_beta 90.000000
_cell_angle_gamma 90.000000
_cell_volume 4510.436572
_symmetry_space_group_name_H-M "C C C A"
_symmetry_group_IT_number 68
_space_group.IT_coordinate_system_code '2'
_symmetry_cell_setting 'orthorhombic'
loop_
_space_group_symop_operation_xyz
x,y,z
-x,1/2-y,z
x,1/2-y,1/2-z
-x,y,1/2-z
-x,-y,-z
x,1/2+y,-z
-x,1/2+y,1/2+z
x,-y,1/2+z
1/2+x,1/2+y,z
1/2-x,-y,z
1/2+x,-y,1/2-z
1/2-x,1/2+y,1/2-z
1/2-x,1/2-y,-z
1/2+x,y,-z
1/2-x,y,1/2+z
1/2+x,1/2-y,1/2+z
loop_
_atom_site_type_symbol
_atom_site_label
_atom_site_fract_x
_atom_site_fract_y
_atom_site_fract_z
Si Si1 0.250000 0.000000 0.643987
Si Si2 0.638935 0.612315 0.466571
Si Si3 0.832852 0.388636 0.032335
Si Si4 0.491451 0.079250 0.370046
Si Si5 0.909136 0.471220 0.301242
Si Si6 0.016820 0.188273 0.129090
O O1 0.210327 0.946920 0.578166
O O2 0.160735 0.002845 0.723490
O O3 0.737996 0.638348 0.491939
O O4 0.587432 0.588177 0.567485
O O5 0.648898 0.566730 0.377591
O O6 0.565565 0.654498 0.423007
O O7 0.888133 0.347086 0.107337
O O8 0.906037 0.397087 0.938536
O O9 0.500000 0.097488 0.250000
O O10 0.464886 0.015907 0.366503
O O11 0.000000 0.440825 0.250000
O O12 0.000000 0.250000 0.089720
O O13 0.000000 0.190236 0.250000
#
# Coordination Sequence:
#
# PCOD9507518 Si02
#       6
#     8  16  16  16  16  16
#     4  12  22  34  58  92 124 158 198 244 304 370
#     4  11  21  36  59  84 116 154 196 245 299 351
#     4  11  22  37  59  87 120 152 195 246 301 361
#     4  10  21  35  52  81 122 164 200 235 285 358
#     4  11  20  33  54  84 125 162 196 234 290 365
#     4  10  23  43  64  85 111 149 200 252 301 357
#
# _framework density 19.510306
#
# number of rings (size 3 to 8) (size 9 to 14) (size 15 to 20)
#    0.000    1.273    0.000    8.727    0.000    2.182 
#    0.000    0.000    0.000    8.727    0.000    0.000 
#    0.000    0.000    0.000    0.000    0.000    0.000 
#
# Total GULP energy -245015.941682 kJ/mol
# GULP energy per Si atom -5568.544129 kJ/mol
# Density = 1.946590 g / cm^3
# Si number density = 19.510306 Si / 1000 Ang^3
#
#
#
# Elastic Constant Matrix: (Units=GPa)
#
#
# Indices 1 2 3 4 5 6 
#
# 1 161.6342 28.4840 43.7933 0.0000 0.0000 0.0000
# 2 28.4840 78.0752 36.5393 0.0000 0.0000 0.0000
# 3 43.7933 36.5393 99.6958 0.0000 0.0000 0.0000
# 4 0.0000 0.0000 0.0000 29.3129 0.0000 0.0000
# 5 0.0000 0.0000 0.0000 0.0000 23.3383 0.0000
# 6 0.0000 0.0000 0.0000 0.0000 0.0000 11.5531
#
#
#
# Elastic Compliance Matrix: (Units=1/GPa)
#
#
# Indices 1 2 3 4 5 6 
#
# 1 0.007142 -0.001373 -0.002634 0.000000 0.000000 0.000000
# 2 -0.001373 0.015724 -0.005160 0.000000 0.000000 0.000000
# 3 -0.002634 -0.005160 0.013079 0.000000 0.000000 0.000000
# 4 0.000000 0.000000 0.000000 0.034115 0.000000 0.000000
# 5 0.000000 0.000000 0.000000 0.000000 0.042848 0.000000
# 6 0.000000 0.000000 0.000000 0.000000 0.000000 0.086557
#
#
# Mechanical properties :
#
#
# Convention : Reuss Voigt Hill
#
# Bulk Modulus (GPa) = 56.78258 61.89318 59.33788
# Shear Modulus (GPa) = 22.35447 28.21344 25.28395
#
# Velocity S-wave (km/s) = 3.38861 3.80686 3.60381
# Velocity P-wave (km/s) = 6.66913 7.14948 6.91348
#
# Compressibility (1/GPa) = 0.01761104
#
# Stress axis : x y z
#
# Youngs Moduli (GPa) = 140.00718 63.59767 76.45965
#
# Poissons Ratio (x) = 0.08732 0.20142
# Poissons Ratio (y) = 0.19222 0.39452
# Poissons Ratio (z) = 0.36882 0.32815
#
# Static dielectric constant tensor:
#      x y z
#    x 1.825030 0.000000 0.000000 
#    y 0.000000 1.754880 0.000000 
#    z 0.000000 0.000000 1.786130 
# 
# From -- ./inp_files/13470.got.cif
#   From: 2010.05.17/outbox.cif.g08.bks.cpg/sg68_7_cif.got.tgz:13470.got - 2010.06.03 18:57:09.
