data_PCOD9507573
_publ_section_title
;
Structure prediction by ZEFSAII (Michael W. Deem and Ramdas Pophale) SiO2 
 PCOD9507573
Probable space group: C C C A
;
_chemical_formula_sum "Si O2"
_cell_formula_units_Z 108
_cell_length_a 27.067077
_cell_length_b 33.031532
_cell_length_c 5.213752
_cell_angle_alpha 90.000000
_cell_angle_beta 90.000000
_cell_angle_gamma 90.000000
_cell_volume 4661.443714
_symmetry_space_group_name_H-M "C C C A"
_symmetry_group_IT_number 68
_space_group.IT_coordinate_system_code '2'
_symmetry_cell_setting 'orthorhombic'
loop_
_space_group_symop_operation_xyz
x,y,z
-x,1/2-y,z
x,1/2-y,1/2-z
-x,y,1/2-z
-x,-y,-z
x,1/2+y,-z
-x,1/2+y,1/2+z
x,-y,1/2+z
1/2+x,1/2+y,z
1/2-x,-y,z
1/2+x,-y,1/2-z
1/2-x,1/2+y,1/2-z
1/2-x,1/2-y,-z
1/2+x,y,-z
1/2-x,y,1/2+z
1/2+x,1/2-y,1/2+z
loop_
_atom_site_type_symbol
_atom_site_label
_atom_site_fract_x
_atom_site_fract_y
_atom_site_fract_z
Si Si1 0.467147 0.108084 0.004510
Si Si2 0.554387 0.190930 0.626662
Si Si3 0.563221 0.519905 0.417835
Si Si4 0.215209 0.700728 0.474416
Si Si5 0.500000 0.750000 0.750000
Si Si6 0.865734 0.250000 0.250000
Si Si7 0.319545 0.478073 0.588342
Si Si8 0.281591 0.110934 0.938481
O O1 0.500000 0.118441 0.250000
O O2 0.500000 0.103872 0.750000
O O3 0.431090 0.146073 0.961121
O O4 0.444671 0.063993 0.036713
O O5 0.500000 0.186022 0.750000
O O6 0.537945 0.221566 0.404385
O O7 0.596260 0.212653 0.795608
O O8 0.545168 0.487230 0.627040
O O9 0.621914 0.515838 0.395548
O O10 0.243885 0.704590 0.204106
O O11 0.171374 0.732264 0.534668
O O12 0.194604 0.654761 0.503494
O O13 0.300903 0.508057 0.366334
O O14 0.309541 0.431297 0.523345
O O15 0.263121 0.110717 0.644722
#
# Coordination Sequence:
#
# PCOD9507573 Si02
#       8
#    16  16  16  16   4   8  16  16
#     4  11  24  41  63  92 126 164 208 265 320 372
#     4  11  24  42  62 100 134 166 217 282 324 397
#     4  10  22  40  61  88 125 164 207 261 308 374
#     4  10  24  45  64  97 136 164 220 282 314 387
#     4  12  18  44  66  82 148 162 206 288 330 380
#     4  12  23  42  73  94 122 189 213 256 350 404
#     4  10  21  36  57  87 123 158 203 258 307 374
#     4  10  21  38  60  86 123 162 200 260 319 366
#
# _framework density 23.168790000000001
#
# number of rings (size 3 to 8) (size 9 to 14) (size 15 to 20)
#    0.000    1.481    2.222    2.222    2.074    4.741 
#    0.000    0.000    3.259    0.000    0.000    0.000 
#    0.000    0.000    0.000    0.000    0.000    0.000 
#
# Total GULP energy -301417.642375 kJ/mol
# GULP energy per Si atom -5581.808192 kJ/mol
# Density = 2.311606 g / cm^3
# Si number density = 23.168790 Si / 1000 Ang^3
#
#
#
# Elastic Constant Matrix: (Units=GPa)
#
#
# Indices 1 2 3 4 5 6 
#
# 1 70.6266 -1.7415 15.2955 0.0000 0.0000 0.0000
# 2 -1.7415 132.9793 28.0746 0.0000 0.0000 0.0000
# 3 15.2955 28.0746 81.1169 0.0000 0.0000 0.0000
# 4 0.0000 0.0000 0.0000 54.4768 0.0000 0.0000
# 5 0.0000 0.0000 0.0000 0.0000 -43.0876 0.0000
# 6 0.0000 0.0000 0.0000 0.0000 0.0000 21.6237
#
#
#
# Elastic Compliance Matrix: (Units=1/GPa)
#
#
# Indices 1 2 3 4 5 6 
#
# 1 0.014850 0.000848 -0.003093 0.000000 0.000000 0.000000
# 2 0.000848 0.008161 -0.002984 0.000000 0.000000 0.000000
# 3 -0.003093 -0.002984 0.013944 0.000000 0.000000 0.000000
# 4 0.000000 0.000000 0.000000 0.018356 0.000000 0.000000
# 5 0.000000 0.000000 0.000000 0.000000 -0.023209 0.000000
# 6 0.000000 0.000000 0.000000 0.000000 0.000000 0.046246
#
#
# Mechanical properties :
#
#
# Convention : Reuss Voigt Hill
#
# Bulk Modulus (GPa) = 37.74367 40.88666 39.31517
# Shear Modulus (GPa) = 51.20827 22.80887 37.00857
#
# Velocity S-wave (km/s) = 4.70640 3.14102 4.00102
# Velocity P-wave (km/s) = 6.77198 5.55341 6.19274
#
# Compressibility (1/GPa) = 0.02649451
#
# Stress axis : x y z
#
# Youngs Moduli (GPa) = 67.34088 122.53201 71.71498
#
# Poissons Ratio (x) = -0.10385 0.22185
# Poissons Ratio (y) = -0.05708 0.21403
# Poissons Ratio (z) = 0.20832 0.36568
#
# Static dielectric constant tensor:
#      x y z
#    x 1.880190 0.000000 0.000000 
#    y 0.000000 1.933210 0.000000 
#    z 0.000000 0.000000 1.920060 
# 
# From -- ./inp_files/2959.got.cif
#   From: 2010.05.17/outbox.cif.g08.bks.cpg/sg68_2_cif.got.tgz:2959.got - 2010.06.03 18:57:09.
