data_PCOD9507118
_publ_section_title
;
Structure prediction by ZEFSAII (Michael W. Deem and Ramdas Pophale) SiO2 
 PCOD9507118
Probable space group: C C C A
;
_chemical_formula_sum "Si O2"
_cell_formula_units_Z 72
_cell_length_a 23.763382
_cell_length_b 8.285642
_cell_length_c 18.327120
_cell_angle_alpha 90.000000
_cell_angle_beta 90.000000
_cell_angle_gamma 90.000000
_cell_volume 3608.516019
_symmetry_space_group_name_H-M "C C C A"
_symmetry_group_IT_number 68
_space_group.IT_coordinate_system_code '2'
_symmetry_cell_setting 'orthorhombic'
loop_
_space_group_symop_operation_xyz
x,y,z
-x,1/2-y,z
x,1/2-y,1/2-z
-x,y,1/2-z
-x,-y,-z
x,1/2+y,-z
-x,1/2+y,1/2+z
x,-y,1/2+z
1/2+x,1/2+y,z
1/2-x,-y,z
1/2+x,-y,1/2-z
1/2-x,1/2+y,1/2-z
1/2-x,1/2-y,-z
1/2+x,y,-z
1/2-x,y,1/2+z
1/2+x,1/2-y,1/2+z
loop_
_atom_site_type_symbol
_atom_site_label
_atom_site_fract_x
_atom_site_fract_y
_atom_site_fract_z
Si Si1 0.348419 0.703935 0.102434
Si Si2 0.265504 0.811501 0.581250
Si Si3 0.907952 0.250000 0.250000
Si Si4 0.879310 0.159976 0.553454
Si Si5 0.000000 0.750000 0.381996
Si Si6 0.500000 0.012026 0.250000
O O1 0.282010 0.709331 0.122090
O O2 0.375603 0.771751 0.175189
O O3 0.367313 0.523702 0.078729
O O4 0.366476 0.813955 0.032730
O O5 0.250000 0.750000 0.500000
O O6 0.330731 0.768861 0.592546
O O7 0.250000 0.000000 0.588227
O O8 0.946745 0.402674 0.264796
O O9 0.943253 0.211096 0.572638
O O10 0.988200 0.891618 0.324015
#
# Coordination Sequence:
#
# PCOD9507118 Si02
#       6
#    16  16   8  16   8   8
#     4  11  23  42  67 100 131 173 220 274 331 387
#     4  10  20  38  66  95 130 170 212 274 328 375
#     4  11  24  44  66  92 138 175 216 266 338 399
#     4  11  23  41  68  99 132 170 228 272 318 390
#     4  11  24  42  68  97 128 176 224 267 326 396
#     4  10  24  44  62  90 140 182 204 268 344 392
#
# _framework density 19.9528
#
# number of rings (size 3 to 8) (size 9 to 14) (size 15 to 20)
#    0.000    1.333    2.222    6.000    6.222    2.667 
#    0.000    4.444    0.000    0.000    0.000    0.000 
#    0.000    0.000    0.000    0.000    0.000    0.000 
#
# Total GULP energy -200596.495075 kJ/mol
# GULP energy per Si atom -5572.124863 kJ/mol
# Density = 1.990739 g / cm^3
# Si number density = 19.952800 Si / 1000 Ang^3
#
#
#
# Elastic Constant Matrix: (Units=GPa)
#
#
# Indices 1 2 3 4 5 6 
#
# 1 135.5305 10.7085 19.3800 0.0000 0.0000 0.0000
# 2 10.7085 71.1206 -1.2797 0.0000 0.0000 0.0000
# 3 19.3800 -1.2797 69.6690 0.0000 0.0000 0.0000
# 4 0.0000 0.0000 0.0000 48.7794 0.0000 0.0000
# 5 0.0000 0.0000 0.0000 0.0000 -11.8573 0.0000
# 6 0.0000 0.0000 0.0000 0.0000 0.0000 24.9815
#
#
#
# Elastic Compliance Matrix: (Units=1/GPa)
#
#
# Indices 1 2 3 4 5 6 
#
# 1 0.007787 -0.001212 -0.002188 0.000000 0.000000 0.000000
# 2 -0.001212 0.014254 0.000599 0.000000 0.000000 0.000000
# 3 -0.002188 0.000599 0.014973 0.000000 0.000000 0.000000
# 4 0.000000 0.000000 0.000000 0.020500 0.000000 0.000000
# 5 0.000000 0.000000 0.000000 0.000000 -0.084336 0.000000
# 6 0.000000 0.000000 0.000000 0.000000 0.000000 0.040030
#
#
# Mechanical properties :
#
#
# Convention : Reuss Voigt Hill
#
# Bulk Modulus (GPa) = 31.83538 37.10419 34.46979
# Shear Modulus (GPa) = 170.75449 28.88146 99.81797
#
# Velocity S-wave (km/s) = 9.26094 3.80872 7.08065
# Velocity P-wave (km/s) = 11.41680 6.16264 9.17391
#
# Compressibility (1/GPa) = 0.03141160
#
# Stress axis : x y z
#
# Youngs Moduli (GPa) = 128.41759 70.15641 66.78532
#
# Poissons Ratio (x) = 0.08502 0.14615
# Poissons Ratio (y) = 0.15562 -0.04000
# Poissons Ratio (z) = 0.28103 -0.04202
#
# Static dielectric constant tensor:
#      x y z
#    x 1.894830 0.000000 0.000000 
#    y 0.000000 1.911440 0.000000 
#    z 0.000000 0.000000 1.515470 
# 
# From -- ./inp_files/33455.got.cif
#   From: 2010.05.17/outbox.cif.g08.bks.cpg/sg68_17_cif.got.tgz:33455.got - 2010.06.03 18:57:09.
