data_PCOD9507452
_publ_section_title
;
Structure prediction by ZEFSAII (Michael W. Deem and Ramdas Pophale) SiO2 
 PCOD9507452
Probable space group: C C C A
;
_chemical_formula_sum "Si O2"
_cell_formula_units_Z 72
_cell_length_a 25.033871
_cell_length_b 14.463743
_cell_length_c 9.224707
_cell_angle_alpha 90.000000
_cell_angle_beta 90.000000
_cell_angle_gamma 90.000000
_cell_volume 3340.113980
_symmetry_space_group_name_H-M "C C C A"
_symmetry_group_IT_number 68
_space_group.IT_coordinate_system_code '2'
_symmetry_cell_setting 'orthorhombic'
loop_
_space_group_symop_operation_xyz
x,y,z
-x,1/2-y,z
x,1/2-y,1/2-z
-x,y,1/2-z
-x,-y,-z
x,1/2+y,-z
-x,1/2+y,1/2+z
x,-y,1/2+z
1/2+x,1/2+y,z
1/2-x,-y,z
1/2+x,-y,1/2-z
1/2-x,1/2+y,1/2-z
1/2-x,1/2-y,-z
1/2+x,y,-z
1/2-x,y,1/2+z
1/2+x,1/2-y,1/2+z
loop_
_atom_site_type_symbol
_atom_site_label
_atom_site_fract_x
_atom_site_fract_y
_atom_site_fract_z
Si Si1 0.767340 0.820836 0.120631
Si Si2 0.128712 0.909596 0.518795
Si Si3 0.573562 0.723308 0.498829
Si Si4 0.000000 0.250000 0.750000
Si Si5 0.153225 0.095167 0.361456
Si Si6 0.500000 0.750000 0.250000
O O1 0.779074 0.750000 0.250000
O O2 0.717468 0.890832 0.143692
O O3 0.750000 0.750000 0.000000
O O4 0.819085 0.872951 0.065308
O O5 0.082327 0.834234 0.491178
O O6 0.136946 0.910326 0.692508
O O7 0.126175 0.011235 0.450157
O O8 0.540670 0.696347 0.641836
O O9 0.630348 0.682310 0.452510
O O10 0.537783 0.696213 0.360214
#
# Coordination Sequence:
#
# PCOD9507452 Si02
#       6
#    16  16  16   4  16   4
#     4  12  24  43  71 101 141 187 228 274 338 407
#     4  12  27  43  72 104 144 184 231 280 347 416
#     4  11  23  49  70  98 138 176 233 285 359 405
#     4  10  28  42  78 104 124 180 236 298 350 416
#     4  12  26  45  69 105 142 187 227 284 345 416
#     4  10  20  46  78  84 128 188 220 298 346 408
#
# _framework density 21.556152000000001
#
# number of rings (size 3 to 8) (size 9 to 14) (size 15 to 20)
#    0.000    0.444    6.667    0.667    7.778    1.778 
#    0.000    6.667    0.000    0.000    0.000    0.000 
#    0.000    0.000    0.000    0.000    0.000    0.000 
#
# Total GULP energy -200679.826477 kJ/mol
# GULP energy per Si atom -5574.439624 kJ/mol
# Density = 2.150709 g / cm^3
# Si number density = 21.556152 Si / 1000 Ang^3
#
#
#
# Elastic Constant Matrix: (Units=GPa)
#
#
# Indices 1 2 3 4 5 6 
#
# 1 90.5543 3.5699 30.5935 0.0000 0.0000 0.0000
# 2 3.5699 74.0343 23.8896 0.0000 0.0000 0.0000
# 3 30.5935 23.8896 168.0208 0.0000 0.0000 0.0000
# 4 0.0000 0.0000 0.0000 29.8969 0.0000 0.0000
# 5 0.0000 0.0000 0.0000 0.0000 34.0247 0.0000
# 6 0.0000 0.0000 0.0000 0.0000 0.0000 8.2135
#
#
#
# Elastic Compliance Matrix: (Units=1/GPa)
#
#
# Indices 1 2 3 4 5 6 
#
# 1 0.011768 0.000130 -0.002161 0.000000 0.000000 0.000000
# 2 0.000130 0.014158 -0.002037 0.000000 0.000000 0.000000
# 3 -0.002161 -0.002037 0.006635 0.000000 0.000000 0.000000
# 4 0.000000 0.000000 0.000000 0.033448 0.000000 0.000000
# 5 0.000000 0.000000 0.000000 0.000000 0.029390 0.000000
# 6 0.000000 0.000000 0.000000 0.000000 0.000000 0.121750
#
#
# Mechanical properties :
#
#
# Convention : Reuss Voigt Hill
#
# Bulk Modulus (GPa) = 40.94155 49.85729 45.39942
# Shear Modulus (GPa) = 21.41988 32.73077 27.07533
#
# Velocity S-wave (km/s) = 3.15569 3.90089 3.54791
# Velocity P-wave (km/s) = 5.68437 6.59306 6.15551
#
# Compressibility (1/GPa) = 0.02442507
#
# Stress axis : x y z
#
# Youngs Moduli (GPa) = 84.97519 70.63049 150.72161
#
# Poissons Ratio (x) = -0.00918 0.32575
# Poissons Ratio (y) = -0.01104 0.30698
# Poissons Ratio (z) = 0.18365 0.14385
#
# Static dielectric constant tensor:
#      x y z
#    x 1.858570 0.000000 0.000000 
#    y 0.000000 1.825860 0.000000 
#    z 0.000000 0.000000 1.734270 
# 
# From -- ./inp_files/5249.got.cif
#   From: 2010.05.17/outbox.cif.g08.bks.cpg/sg68_3_cif.got.tgz:5249.got - 2010.06.03 18:57:09.
