data_PCOD9507758
_publ_section_title
;
Structure prediction by ZEFSAII (Michael W. Deem and Ramdas Pophale) SiO2 
 PCOD9507758
Probable space group: C C C A
;
_chemical_formula_sum "Si O2"
_cell_formula_units_Z 80
_cell_length_a 11.380070
_cell_length_b 13.692445
_cell_length_c 25.414677
_cell_angle_alpha 90.000000
_cell_angle_beta 90.000000
_cell_angle_gamma 90.000000
_cell_volume 3960.139942
_symmetry_space_group_name_H-M "C C C A"
_symmetry_group_IT_number 68
_space_group.IT_coordinate_system_code '2'
_symmetry_cell_setting 'orthorhombic'
loop_
_space_group_symop_operation_xyz
x,y,z
-x,1/2-y,z
x,1/2-y,1/2-z
-x,y,1/2-z
-x,-y,-z
x,1/2+y,-z
-x,1/2+y,1/2+z
x,-y,1/2+z
1/2+x,1/2+y,z
1/2-x,-y,z
1/2+x,-y,1/2-z
1/2-x,1/2+y,1/2-z
1/2-x,1/2-y,-z
1/2+x,y,-z
1/2-x,y,1/2+z
1/2+x,1/2-y,1/2+z
loop_
_atom_site_type_symbol
_atom_site_label
_atom_site_fract_x
_atom_site_fract_y
_atom_site_fract_z
Si Si1 0.036567 0.855123 0.654230
Si Si2 0.048474 0.146351 0.529383
Si Si3 0.622201 0.529637 0.724426
Si Si4 0.882414 0.026152 0.070978
Si Si5 0.721375 0.388145 0.117631
O O1 0.154078 0.836560 0.620545
O O2 0.000000 0.750000 0.674207
O O3 0.946399 0.915211 0.617890
O O4 0.077417 0.928307 0.699417
O O5 0.110835 0.093024 0.480926
O O6 0.138606 0.163110 0.576642
O O7 0.000000 0.250000 0.511557
O O8 0.953078 0.071640 0.554135
O O9 0.500000 0.569306 0.750000
O O10 0.750000 0.500000 0.751349
O O11 0.661417 0.597324 0.674901
O O12 0.750000 0.000000 0.085045
O O13 0.750000 0.500000 0.099960
#
# Coordination Sequence:
#
# PCOD9507758 Si02
#       5
#    16  16  16  16  16
#     4  10  21  38  61  88 117 152 197 244 292 348
#     4  11  23  38  58  82 118 159 198 243 292 346
#     4   9  19  38  63  89 116 156 192 238 304 356
#     4  11  24  37  55  88 118 156 204 242 292 344
#     4   9  18  40  60  79 115 158 189 234 301 347
#
# _framework density 20.201305999999999
#
# number of rings (size 3 to 8) (size 9 to 14) (size 15 to 20)
#    0.000    2.400    4.000    1.200    5.600    2.000 
#    0.000    0.000    0.000    5.400    0.000    0.000 
#    0.000    0.000    0.000    0.000    0.000    0.000 
#
# Total GULP energy -222937.454676 kJ/mol
# GULP energy per Si atom -5573.436367 kJ/mol
# Density = 2.015533 g / cm^3
# Si number density = 20.201306 Si / 1000 Ang^3
#
#
#
# Elastic Constant Matrix: (Units=GPa)
#
#
# Indices 1 2 3 4 5 6 
#
# 1 154.7960 20.1241 44.5052 0.0000 0.0000 0.0000
# 2 20.1241 54.5599 11.6240 0.0000 0.0000 0.0000
# 3 44.5052 11.6240 31.4099 0.0000 0.0000 0.0000
# 4 0.0000 0.0000 0.0000 -8.5079 0.0000 0.0000
# 5 0.0000 0.0000 0.0000 0.0000 7.5828 0.0000
# 6 0.0000 0.0000 0.0000 0.0000 0.0000 6.1790
#
#
#
# Elastic Compliance Matrix: (Units=1/GPa)
#
#
# Indices 1 2 3 4 5 6 
#
# 1 0.010933 -0.000795 -0.015196 0.000000 0.000000 0.000000
# 2 -0.000795 0.019955 -0.006259 0.000000 0.000000 0.000000
# 3 -0.015196 -0.006259 0.055685 0.000000 0.000000 0.000000
# 4 0.000000 0.000000 0.000000 -0.117538 0.000000 0.000000
# 5 0.000000 0.000000 0.000000 0.000000 0.131878 0.000000
# 6 0.000000 0.000000 0.000000 0.000000 0.000000 0.161839
#
#
# Mechanical properties :
#
#
# Convention : Reuss Voigt Hill
#
# Bulk Modulus (GPa) = 23.76810 43.69693 33.73252
# Shear Modulus (GPa) = 15.56298 12.01828 13.79063
#
# Velocity S-wave (km/s) = 2.77861 2.44176 2.61561
# Velocity P-wave (km/s) = 4.69951 5.44309 5.08491
#
# Compressibility (1/GPa) = 0.04207320
#
# Stress axis : x y z
#
# Youngs Moduli (GPa) = 91.47016 50.11262 17.95807
#
# Poissons Ratio (x) = 0.03983 0.27290
# Poissons Ratio (y) = 0.07270 0.11239
# Poissons Ratio (z) = 1.39001 0.31364
#
# Static dielectric constant tensor:
#      x y z
#    x 1.793540 0.000000 0.000000 
#    y 0.000000 0.586840 0.000000 
#    z 0.000000 0.000000 1.743000 
# 
# From -- ./inp_files/50118.got.cif
#   From: 2010.05.17/outbox.cif.g08.bks.cpg/sg68_26_cif.got.tgz:50118.got - 2010.06.03 18:57:09.
