data_PCOD9507136
_publ_section_title
;
Structure prediction by ZEFSAII (Michael W. Deem and Ramdas Pophale) SiO2 
 PCOD9507136
Probable space group: C C C A
;
_chemical_formula_sum "Si O2"
_cell_formula_units_Z 116
_cell_length_a 25.791369
_cell_length_b 13.284549
_cell_length_c 17.086340
_cell_angle_alpha 90.000000
_cell_angle_beta 90.000000
_cell_angle_gamma 90.000000
_cell_volume 5854.236379
_symmetry_space_group_name_H-M "C C C A"
_symmetry_group_IT_number 68
_space_group.IT_coordinate_system_code '2'
_symmetry_cell_setting 'orthorhombic'
loop_
_space_group_symop_operation_xyz
x,y,z
-x,1/2-y,z
x,1/2-y,1/2-z
-x,y,1/2-z
-x,-y,-z
x,1/2+y,-z
-x,1/2+y,1/2+z
x,-y,1/2+z
1/2+x,1/2+y,z
1/2-x,-y,z
1/2+x,-y,1/2-z
1/2-x,1/2+y,1/2-z
1/2-x,1/2-y,-z
1/2+x,y,-z
1/2-x,y,1/2+z
1/2+x,1/2-y,1/2+z
loop_
_atom_site_type_symbol
_atom_site_label
_atom_site_fract_x
_atom_site_fract_y
_atom_site_fract_z
Si Si1 0.904952 0.476215 0.425082
Si Si2 0.334928 0.648290 0.801398
Si Si3 0.303786 0.758747 0.951634
Si Si4 0.000000 0.250000 0.250000
Si Si5 0.573730 0.408112 0.095238
Si Si6 0.013826 0.391665 0.384923
Si Si7 0.420904 0.801413 0.973088
Si Si8 0.193895 0.460084 0.650953
O O1 0.898050 0.452298 0.517269
O O2 0.918416 0.596077 0.421607
O O3 0.852415 0.467180 0.376338
O O4 0.952029 0.404881 0.397542
O O5 0.341191 0.750000 0.750000
O O6 0.305905 0.674612 0.882726
O O7 0.389273 0.606189 0.831289
O O8 0.310734 0.569991 0.741507
O O9 0.307006 0.861392 0.902827
O O10 0.250000 0.750000 0.000000
O O11 0.361059 0.765819 0.993654
O O12 0.972220 0.172584 0.308686
O O13 0.532347 0.493042 0.114749
O O14 0.556669 0.296052 0.071013
O O15 0.043609 0.335158 0.454811
O O16 0.250000 0.500000 0.635939
#
# Coordination Sequence:
#
# PCOD9507136 Si02
#       8
#    16  16  16   4  16  16  16  16
#     4  10  22  39  66  93 124 165 217 270 319 386
#     4   9  20  40  60  89 132 163 202 276 323 371
#     4   9  19  38  64  90 124 162 213 266 327 375
#     4  12  28  44  52  90 140 172 194 264 312 410
#     4  10  20  38  69  95 120 168 216 258 325 381
#     4  11  24  42  64  89 133 171 208 259 332 388
#     4   9  19  39  65  98 117 157 213 279 309 373
#     4  10  22  39  59  89 126 165 209 266 322 377
#
# _framework density 19.814710999999999
#
# number of rings (size 3 to 8) (size 9 to 14) (size 15 to 20)
#    0.000    2.207    0.000    3.310    5.793    1.655 
#    7.448    0.000    3.034    0.000    0.000    0.000 
#    0.000    0.000    0.000    0.000    0.000    0.000 
#
# Total GULP energy -323035.526528 kJ/mol
# GULP energy per Si atom -5569.578044 kJ/mol
# Density = 1.976961 g / cm^3
# Si number density = 19.814711 Si / 1000 Ang^3
#
#
#
# Elastic Constant Matrix: (Units=GPa)
#
#
# Indices 1 2 3 4 5 6 
#
# 1 131.4520 29.2327 49.6942 0.0000 0.0000 0.0000
# 2 29.2327 86.0109 11.0436 0.0000 0.0000 0.0000
# 3 49.6942 11.0436 63.5952 0.0000 0.0000 0.0000
# 4 0.0000 0.0000 0.0000 2.2148 0.0000 0.0000
# 5 0.0000 0.0000 0.0000 0.0000 30.5548 0.0000
# 6 0.0000 0.0000 0.0000 0.0000 0.0000 23.0521
#
#
#
# Elastic Compliance Matrix: (Units=1/GPa)
#
#
# Indices 1 2 3 4 5 6 
#
# 1 0.011419 -0.002798 -0.008437 0.000000 0.000000 0.000000
# 2 -0.002798 0.012577 0.000002 0.000000 0.000000 0.000000
# 3 -0.008437 0.000002 0.022317 0.000000 0.000000 0.000000
# 4 0.000000 0.000000 0.000000 0.451507 0.000000 0.000000
# 5 0.000000 0.000000 0.000000 0.000000 0.032728 0.000000
# 6 0.000000 0.000000 0.000000 0.000000 0.000000 0.043380
#
#
# Mechanical properties :
#
#
# Convention : Reuss Voigt Hill
#
# Bulk Modulus (GPa) = 41.93300 51.22210 46.57755
# Shear Modulus (GPa) = 8.27344 23.90350 16.08847
#
# Velocity S-wave (km/s) = 2.04560 3.47702 2.85256
# Velocity P-wave (km/s) = 5.17569 6.48277 5.86575
#
# Compressibility (1/GPa) = 0.02384756
#
# Stress axis : x y z
#
# Youngs Moduli (GPa) = 87.57239 79.51006 44.80876
#
# Poissons Ratio (x) = 0.22245 0.37806
# Poissons Ratio (y) = 0.24500 -0.00010
# Poissons Ratio (z) = 0.73887 -0.00017
#
# Static dielectric constant tensor:
#      x y z
#    x 1.814300 0.000000 0.000000 
#    y 0.000000 1.762660 0.000000 
#    z 0.000000 0.000000 1.724980 
# 
# From -- ./inp_files/33702.got.cif
#   From: 2010.05.17/outbox.cif.g08.bks.cpg/sg68_17_cif.got.tgz:33702.got - 2010.06.03 18:57:09.
