data_PCOD9507866
_publ_section_title
;
Structure prediction by ZEFSAII (Michael W. Deem and Ramdas Pophale) SiO2 
 PCOD9507866
Probable space group: C C C A
;
_chemical_formula_sum "Si O2"
_cell_formula_units_Z 88
_cell_length_a 15.366144
_cell_length_b 9.403589
_cell_length_c 27.599642
_cell_angle_alpha 90.000000
_cell_angle_beta 90.000000
_cell_angle_gamma 90.000000
_cell_volume 3988.062784
_symmetry_space_group_name_H-M "C C C A"
_symmetry_group_IT_number 68
_space_group.IT_coordinate_system_code '2'
_symmetry_cell_setting 'orthorhombic'
loop_
_space_group_symop_operation_xyz
x,y,z
-x,1/2-y,z
x,1/2-y,1/2-z
-x,y,1/2-z
-x,-y,-z
x,1/2+y,-z
-x,1/2+y,1/2+z
x,-y,1/2+z
1/2+x,1/2+y,z
1/2-x,-y,z
1/2+x,-y,1/2-z
1/2-x,1/2+y,1/2-z
1/2-x,1/2-y,-z
1/2+x,y,-z
1/2-x,y,1/2+z
1/2+x,1/2-y,1/2+z
loop_
_atom_site_type_symbol
_atom_site_label
_atom_site_fract_x
_atom_site_fract_y
_atom_site_fract_z
Si Si1 0.182800 0.318513 0.106248
Si Si2 0.067883 0.046616 0.138039
Si Si3 0.804087 0.750000 0.750000
Si Si4 0.403828 0.473857 0.693459
Si Si5 0.833063 0.737504 0.164857
Si Si6 0.037630 0.408529 0.043876
O O1 0.129560 0.175108 0.120985
O O2 0.156591 0.425634 0.148737
O O3 0.283964 0.286664 0.115128
O O4 0.139884 0.381786 0.057225
O O5 0.004589 0.023511 0.092112
O O6 0.119257 0.907185 0.152515
O O7 0.000482 0.078326 0.181317
O O8 0.861228 0.611292 0.762446
O O9 0.742766 0.784254 0.795519
O O10 0.394816 0.643685 0.689790
O O11 0.000000 0.250000 0.038242
O O12 0.000000 0.500000 0.000000
#
# Coordination Sequence:
#
# PCOD9507866 Si02
#       6
#    16  16   8  16  16  16
#     4   9  19  37  59  85 117 156 194 237 303 368
#     4  10  21  39  63  88 117 158 201 251 309 369
#     4  10  22  38  54  80 120 154 192 246 297 362
#     4  10  21  39  59  84 113 154 202 244 298 364
#     4  11  22  39  61  87 116 153 201 256 308 358
#     4   9  19  36  59  90 123 159 203 247 299 370
#
# _framework density 22.065850999999999
#
# number of rings (size 3 to 8) (size 9 to 14) (size 15 to 20)
#    0.000    2.182    0.000    4.909    0.000    8.727 
#    0.000   17.273    0.000    6.545    0.000    3.818 
#    0.000    0.000    0.000    0.000    0.000    0.000 
#
# Total GULP energy -245495.956787 kJ/mol
# GULP energy per Si atom -5579.453563 kJ/mol
# Density = 2.201563 g / cm^3
# Si number density = 22.065851 Si / 1000 Ang^3
#
#
#
# Elastic Constant Matrix: (Units=GPa)
#
#
# Indices 1 2 3 4 5 6 
#
# 1 72.2111 46.0399 29.0856 0.0000 0.0000 0.0000
# 2 46.0399 139.1522 41.7196 0.0000 0.0000 0.0000
# 3 29.0856 41.7196 83.4620 0.0000 0.0000 0.0000
# 4 0.0000 0.0000 0.0000 26.9645 0.0000 0.0000
# 5 0.0000 0.0000 0.0000 0.0000 17.8997 0.0000
# 6 0.0000 0.0000 0.0000 0.0000 0.0000 -24.5586
#
#
#
# Elastic Compliance Matrix: (Units=1/GPa)
#
#
# Indices 1 2 3 4 5 6 
#
# 1 0.018627 -0.004960 -0.004012 0.000000 0.000000 0.000000
# 2 -0.004960 0.009774 -0.003157 0.000000 0.000000 0.000000
# 3 -0.004012 -0.003157 0.014958 0.000000 0.000000 0.000000
# 4 0.000000 0.000000 0.000000 0.037086 0.000000 0.000000
# 5 0.000000 0.000000 0.000000 0.000000 0.055867 0.000000
# 6 0.000000 0.000000 0.000000 0.000000 0.000000 -0.040719
#
#
# Mechanical properties :
#
#
# Convention : Reuss Voigt Hill
#
# Bulk Modulus (GPa) = 52.35516 58.72394 55.53955
# Shear Modulus (GPa) = 39.61435 15.92646 27.77040
#
# Velocity S-wave (km/s) = 4.24167 2.68949 3.55142
# Velocity P-wave (km/s) = 6.91139 6.02622 6.48393
#
# Compressibility (1/GPa) = 0.01910031
#
# Stress axis : x y z
#
# Youngs Moduli (GPa) = 53.68677 102.31231 66.85507
#
# Poissons Ratio (x) = 0.50747 0.26821
# Poissons Ratio (y) = 0.26629 0.21107
# Poissons Ratio (z) = 0.21538 0.32302
#
# Static dielectric constant tensor:
#      x y z
#    x 1.886850 0.000000 0.000000 
#    y 0.000000 1.835020 0.000000 
#    z 0.000000 0.000000 2.175460 
# 
# From -- ./inp_files/55581.got.cif
#   From: 2010.05.17/outbox.cif.g08.bks.cpg/sg68_28_cif.got.tgz:55581.got - 2010.06.03 18:57:09.
