data_PCOD9507818
_publ_section_title
;
Structure prediction by ZEFSAII (Michael W. Deem and Ramdas Pophale) SiO2 
 PCOD9507818
Probable space group: C C C A
;
_chemical_formula_sum "Si O2"
_cell_formula_units_Z 84
_cell_length_a 14.936575
_cell_length_b 21.252334
_cell_length_c 12.283512
_cell_angle_alpha 90.000000
_cell_angle_beta 90.000000
_cell_angle_gamma 90.000000
_cell_volume 3899.242190
_symmetry_space_group_name_H-M "C C C A"
_symmetry_group_IT_number 68
_space_group.IT_coordinate_system_code '2'
_symmetry_cell_setting 'orthorhombic'
loop_
_space_group_symop_operation_xyz
x,y,z
-x,1/2-y,z
x,1/2-y,1/2-z
-x,y,1/2-z
-x,-y,-z
x,1/2+y,-z
-x,1/2+y,1/2+z
x,-y,1/2+z
1/2+x,1/2+y,z
1/2-x,-y,z
1/2+x,-y,1/2-z
1/2-x,1/2+y,1/2-z
1/2-x,1/2-y,-z
1/2+x,y,-z
1/2-x,y,1/2+z
1/2+x,1/2-y,1/2+z
loop_
_atom_site_type_symbol
_atom_site_label
_atom_site_fract_x
_atom_site_fract_y
_atom_site_fract_z
Si Si1 0.351874 0.703500 0.121631
Si Si2 0.250000 0.000000 0.391963
Si Si3 0.500000 0.750000 0.250000
Si Si4 0.158937 0.640866 0.387358
Si Si5 0.407710 0.996631 0.562894
Si Si6 0.316529 0.250000 0.250000
Si Si7 0.834255 0.595082 0.724738
O O1 0.421851 0.757117 0.153983
O O2 0.252479 0.724358 0.157716
O O3 0.383214 0.646542 0.201707
O O4 0.351300 0.675913 0.001875
O O5 0.167818 0.988692 0.472729
O O6 0.225496 0.056911 0.312289
O O7 0.110781 0.573620 0.392527
O O8 0.129846 0.690995 0.296209
O O9 0.262911 0.626054 0.357995
O O10 0.500000 0.000000 0.500000
O O11 0.396041 0.046799 0.659583
#
# Coordination Sequence:
#
# PCOD9507818 Si02
#       7
#    16   8   4  16  16   8  16
#     4  10  21  38  65  92 122 168 227 274 328 398
#     4  12  20  44  64  94 138 178 214 274 344 410
#     4  10  24  40  60  94 126 172 218 282 322 386
#     4  11  20  41  65  93 131 172 223 276 338 409
#     4  12  25  38  65 105 138 177 225 281 350 414
#     4   9  22  37  66  91 117 174 228 266 329 403
#     4  11  21  40  67  96 130 175 224 277 342 411
#
# _framework density 21.542648
#
# number of rings (size 3 to 8) (size 9 to 14) (size 15 to 20)
#    0.000    1.143    5.714    0.571    2.667    0.762 
#    0.000    0.000    4.190    0.000    0.000    0.000 
#    0.000    0.000    0.000    0.000    0.000    0.000 
#
# Total GULP energy -234161.778452 kJ/mol
# GULP energy per Si atom -5575.280439 kJ/mol
# Density = 2.149362 g / cm^3
# Si number density = 21.542648 Si / 1000 Ang^3
#
#
#
# Elastic Constant Matrix: (Units=GPa)
#
#
# Indices 1 2 3 4 5 6 
#
# 1 60.8411 -11.2235 25.3024 0.0000 0.0000 0.0000
# 2 -11.2235 75.9430 33.4699 0.0000 0.0000 0.0000
# 3 25.3024 33.4699 85.4027 0.0000 0.0000 0.0000
# 4 0.0000 0.0000 0.0000 56.3197 0.0000 0.0000
# 5 0.0000 0.0000 0.0000 0.0000 -30.9200 0.0000
# 6 0.0000 0.0000 0.0000 0.0000 0.0000 -9.2130
#
#
#
# Elastic Compliance Matrix: (Units=1/GPa)
#
#
# Indices 1 2 3 4 5 6 
#
# 1 0.021630 0.007278 -0.009261 0.000000 0.000000 0.000000
# 2 0.007278 0.018366 -0.009354 0.000000 0.000000 0.000000
# 3 -0.009261 -0.009354 0.018119 0.000000 0.000000 0.000000
# 4 0.000000 0.000000 0.000000 0.017756 0.000000 0.000000
# 5 0.000000 0.000000 0.000000 0.000000 -0.032342 0.000000
# 6 0.000000 0.000000 0.000000 0.000000 0.000000 -0.108542
#
#
# Mechanical properties :
#
#
# Convention : Reuss Voigt Hill
#
# Bulk Modulus (GPa) = 28.21537 35.25383 31.73460
# Shear Modulus (GPa) = -163.79869 14.87987 -74.45941
#
# Velocity S-wave (km/s) = -8.72924 2.63100 -5.88547
# Velocity P-wave (km/s) = 9.40605 5.06258 5.60553
#
# Compressibility (1/GPa) = 0.03544167
#
# Stress axis : x y z
#
# Youngs Moduli (GPa) = 46.23157 54.44855 55.19108
#
# Poissons Ratio (x) = -0.39629 0.51111
# Poissons Ratio (y) = -0.33648 0.51626
# Poissons Ratio (z) = 0.42814 0.50932
#
# Static dielectric constant tensor:
#      x y z
#    x 1.780660 0.000000 0.000000 
#    y 0.000000 2.016850 0.000000 
#    z 0.000000 0.000000 1.754600 
# 
# From -- ./inp_files/14403.got.cif
#   From: 2010.05.17/outbox.cif.g08.bks.cpg/sg68_8_cif.got.tgz:14403.got - 2010.06.03 18:57:09.
