data_PCOD9507720
_publ_section_title
;
Structure prediction by ZEFSAII (Michael W. Deem and Ramdas Pophale) SiO2 
 PCOD9507720
Probable space group: C C C A
;
_chemical_formula_sum "Si O2"
_cell_formula_units_Z 112
_cell_length_a 27.794912
_cell_length_b 15.147657
_cell_length_c 14.235004
_cell_angle_alpha 90.000000
_cell_angle_beta 90.000000
_cell_angle_gamma 90.000000
_cell_volume 5993.332322
_symmetry_space_group_name_H-M "C C C A"
_symmetry_group_IT_number 68
_space_group.IT_coordinate_system_code '2'
_symmetry_cell_setting 'orthorhombic'
loop_
_space_group_symop_operation_xyz
x,y,z
-x,1/2-y,z
x,1/2-y,1/2-z
-x,y,1/2-z
-x,-y,-z
x,1/2+y,-z
-x,1/2+y,1/2+z
x,-y,1/2+z
1/2+x,1/2+y,z
1/2-x,-y,z
1/2+x,-y,1/2-z
1/2-x,1/2+y,1/2-z
1/2-x,1/2-y,-z
1/2+x,y,-z
1/2-x,y,1/2+z
1/2+x,1/2-y,1/2+z
loop_
_atom_site_type_symbol
_atom_site_label
_atom_site_fract_x
_atom_site_fract_y
_atom_site_fract_z
Si Si1 0.556851 0.947534 0.237388
Si Si2 0.801292 0.528512 0.114373
Si Si3 0.612574 0.600492 0.078929
Si Si4 0.201717 0.087995 0.398941
Si Si5 0.626003 0.065157 0.131371
Si Si6 0.383466 0.290263 0.647793
Si Si7 0.295272 0.653239 0.716355
O O1 0.500000 0.949476 0.250000
O O2 0.577209 0.933790 0.341471
O O3 0.576698 0.866528 0.170348
O O4 0.582575 0.034716 0.196871
O O5 0.750000 0.500000 0.151602
O O6 0.836204 0.443744 0.108677
O O7 0.814710 0.602064 0.190515
O O8 0.792449 0.565685 0.009169
O O9 0.605866 0.705927 0.083433
O O10 0.606337 0.566094 0.974006
O O11 0.165286 0.168595 0.390368
O O12 0.250544 0.109910 0.342347
O O13 0.168721 0.008363 0.358363
O O14 0.656847 0.152830 0.151445
O O15 0.373473 0.250000 0.750000
O O16 0.279958 0.750000 0.750000
#
# Coordination Sequence:
#
# PCOD9507720 Si02
#       7
#    16  16  16  16  16  16  16
#     4  10  21  40  66  93 119 150 200 253 312 373
#     4  11  23  37  57  80 118 164 200 239 289 350
#     4  10  21  38  62  87 123 161 196 247 304 357
#     4  10  21  38  56  84 119 158 201 239 288 351
#     4  10  21  41  60  86 121 161 199 244 304 365
#     4   9  20  35  59  88 120 154 189 250 299 350
#     4  12  25  36  58  86 119 161 206 249 286 353
#
# _framework density 18.687434
#
# number of rings (size 3 to 8) (size 9 to 14) (size 15 to 20)
#    0.000    1.714    1.429    3.429    8.000    3.714 
#    0.000    0.000    0.000    2.143    0.000    0.000 
#    0.000    0.000    0.000    0.000    0.000    0.000 
#
# Total GULP energy -311842.452776 kJ/mol
# GULP energy per Si atom -5568.615228 kJ/mol
# Density = 1.864490 g / cm^3
# Si number density = 18.687434 Si / 1000 Ang^3
#
#
#
# Elastic Constant Matrix: (Units=GPa)
#
#
# Indices 1 2 3 4 5 6 
#
# 1 135.3813 30.6900 45.6127 0.0000 0.0000 0.0000
# 2 30.6900 34.4789 18.4652 0.0000 0.0000 0.0000
# 3 45.6127 18.4652 66.0094 0.0000 0.0000 0.0000
# 4 0.0000 0.0000 0.0000 -5.1398 0.0000 0.0000
# 5 0.0000 0.0000 0.0000 0.0000 -94.9000 0.0000
# 6 0.0000 0.0000 0.0000 0.0000 0.0000 1.8095
#
#
#
# Elastic Compliance Matrix: (Units=1/GPa)
#
#
# Indices 1 2 3 4 5 6 
#
# 1 0.010765 -0.006585 -0.005597 0.000000 0.000000 0.000000
# 2 -0.006585 0.038142 -0.006120 0.000000 0.000000 0.000000
# 3 -0.005597 -0.006120 0.020728 0.000000 0.000000 0.000000
# 4 0.000000 0.000000 0.000000 -0.194561 0.000000 0.000000
# 5 0.000000 0.000000 0.000000 0.000000 -0.010537 0.000000
# 6 0.000000 0.000000 0.000000 0.000000 0.000000 0.552638
#
#
# Mechanical properties :
#
#
# Convention : Reuss Voigt Hill
#
# Bulk Modulus (GPa) = 30.27240 47.26725 38.76982
# Shear Modulus (GPa) = 10.75763 -10.23927 0.25918
#
# Velocity S-wave (km/s) = 2.40190 -2.34331 0.37282
# Velocity P-wave (km/s) = 4.89149 4.24582 4.58005
#
# Compressibility (1/GPa) = 0.03303339
#
# Stress axis : x y z
#
# Youngs Moduli (GPa) = 92.89508 26.21806 48.24277
#
# Poissons Ratio (x) = 0.17264 0.26999
# Poissons Ratio (y) = 0.61168 0.29523
# Poissons Ratio (z) = 0.51990 0.16044
#
# Static dielectric constant tensor:
#      x y z
#    x 1.665220 0.000000 0.000000 
#    y 0.000000 1.747520 0.000000 
#    z 0.000000 0.000000 1.655330 
# 
# From -- ./inp_files/26058.got.cif
#   From: 2010.05.17/outbox.cif.g08.bks.cpg/sg68_14_cif.got.tgz:26058.got - 2010.06.03 18:57:09.
