data_PCOD9507112
_publ_section_title
;
Structure prediction by ZEFSAII (Michael W. Deem and Ramdas Pophale) SiO2 
 PCOD9507112
Probable space group: C C C A
;
_chemical_formula_sum "Si O2"
_cell_formula_units_Z 72
_cell_length_a 15.907309
_cell_length_b 12.616434
_cell_length_c 16.730323
_cell_angle_alpha 90.000000
_cell_angle_beta 90.000000
_cell_angle_gamma 90.000000
_cell_volume 3357.667315
_symmetry_space_group_name_H-M "C C C A"
_symmetry_group_IT_number 68
_space_group.IT_coordinate_system_code '2'
_symmetry_cell_setting 'orthorhombic'
loop_
_space_group_symop_operation_xyz
x,y,z
-x,1/2-y,z
x,1/2-y,1/2-z
-x,y,1/2-z
-x,-y,-z
x,1/2+y,-z
-x,1/2+y,1/2+z
x,-y,1/2+z
1/2+x,1/2+y,z
1/2-x,-y,z
1/2+x,-y,1/2-z
1/2-x,1/2+y,1/2-z
1/2-x,1/2-y,-z
1/2+x,y,-z
1/2-x,y,1/2+z
1/2+x,1/2-y,1/2+z
loop_
_atom_site_type_symbol
_atom_site_label
_atom_site_fract_x
_atom_site_fract_y
_atom_site_fract_z
Si Si1 0.215934 0.618331 0.688872
Si Si2 0.080924 0.561160 0.583599
Si Si3 0.275342 0.329520 0.365760
Si Si4 0.750000 0.500000 0.009156
Si Si5 0.536228 0.136370 0.414015
O O1 0.250000 0.500000 0.681154
O O2 0.119548 0.621729 0.659464
O O3 0.265473 0.702490 0.632719
O O4 0.233277 0.643943 0.781133
O O5 0.165403 0.518718 0.539953
O O6 0.041428 0.628719 0.511213
O O7 0.020597 0.464763 0.608058
O O8 0.232950 0.397136 0.435520
O O9 0.371890 0.366092 0.373716
O O10 0.500000 0.250000 0.391119
#
# Coordination Sequence:
#
# PCOD9507112 Si02
#       5
#    16  16  16   8  16
#     4  11  21  40  64  95 124 172 216 263 313 403
#     4  10  22  37  65  92 126 165 214 263 326 376
#     4  10  23  39  66  90 129 168 216 262 323 386
#     4  10  20  38  66  92 120 168 218 268 304 392
#     4  10  22  40  61  95 129 167 204 275 326 380
#
# _framework density 21.443458
#
# number of rings (size 3 to 8) (size 9 to 14) (size 15 to 20)
#    0.000    1.778    2.222    1.333    3.111    1.778 
#    0.000    7.778    0.000    0.000    0.000    0.000 
#    0.000    0.000    0.000    0.000    0.000    0.000 
#
# Total GULP energy -200808.871051 kJ/mol
# GULP energy per Si atom -5578.024196 kJ/mol
# Density = 2.139465 g / cm^3
# Si number density = 21.443458 Si / 1000 Ang^3
#
#
#
# Elastic Constant Matrix: (Units=GPa)
#
#
# Indices 1 2 3 4 5 6 
#
# 1 76.1968 23.5122 23.2446 0.0000 0.0000 0.0000
# 2 23.5122 99.5230 20.6278 0.0000 0.0000 0.0000
# 3 23.2446 20.6278 76.6025 0.0000 0.0000 0.0000
# 4 0.0000 0.0000 0.0000 -1.7354 0.0000 0.0000
# 5 0.0000 0.0000 0.0000 0.0000 299.1224 0.0000
# 6 0.0000 0.0000 0.0000 0.0000 0.0000 41.1551
#
#
#
# Elastic Compliance Matrix: (Units=1/GPa)
#
#
# Indices 1 2 3 4 5 6 
#
# 1 0.015157 -0.002783 -0.003850 0.000000 0.000000 0.000000
# 2 -0.002783 0.011153 -0.002159 0.000000 0.000000 0.000000
# 3 -0.003850 -0.002159 0.014804 0.000000 0.000000 0.000000
# 4 0.000000 0.000000 0.000000 -0.576239 0.000000 0.000000
# 5 0.000000 0.000000 0.000000 0.000000 0.003343 0.000000
# 6 0.000000 0.000000 0.000000 0.000000 0.000000 0.024298
#
#
# Mechanical properties :
#
#
# Convention : Reuss Voigt Hill
#
# Bulk Modulus (GPa) = 42.49782 43.01013 42.75397
# Shear Modulus (GPa) = -10.37221 80.03760 34.83269
#
# Velocity S-wave (km/s) = -2.20171 6.11604 4.03475
# Velocity P-wave (km/s) = 3.66036 8.36514 6.45654
#
# Compressibility (1/GPa) = 0.02353062
#
# Stress axis : x y z
#
# Youngs Moduli (GPa) = 65.97570 89.66335 67.54936
#
# Poissons Ratio (x) = 0.24952 0.26006
# Poissons Ratio (y) = 0.18360 0.14583
# Poissons Ratio (z) = 0.25400 0.19357
#
# Static dielectric constant tensor:
#      x y z
#    x 1.782810 0.000000 0.000000 
#    y 0.000000 1.843480 0.000000 
#    z 0.000000 0.000000 1.873820 
# 
# From -- ./inp_files/31654.got.cif
#   From: 2010.05.17/outbox.cif.g08.bks.cpg/sg68_16_cif.got.tgz:31654.got - 2010.06.03 18:57:09.
