data_PCOD9507737
_publ_section_title
;
Structure prediction by ZEFSAII (Michael W. Deem and Ramdas Pophale) SiO2 
 PCOD9507737
Probable space group: C C C A
;
_chemical_formula_sum "Si O2"
_cell_formula_units_Z 80
_cell_length_a 24.328302
_cell_length_b 28.859795
_cell_length_c 4.982231
_cell_angle_alpha 90.000000
_cell_angle_beta 90.000000
_cell_angle_gamma 90.000000
_cell_volume 3498.073253
_symmetry_space_group_name_H-M "C C C A"
_symmetry_group_IT_number 68
_space_group.IT_coordinate_system_code '2'
_symmetry_cell_setting 'orthorhombic'
loop_
_space_group_symop_operation_xyz
x,y,z
-x,1/2-y,z
x,1/2-y,1/2-z
-x,y,1/2-z
-x,-y,-z
x,1/2+y,-z
-x,1/2+y,1/2+z
x,-y,1/2+z
1/2+x,1/2+y,z
1/2-x,-y,z
1/2+x,-y,1/2-z
1/2-x,1/2+y,1/2-z
1/2-x,1/2-y,-z
1/2+x,y,-z
1/2-x,y,1/2+z
1/2+x,1/2-y,1/2+z
loop_
_atom_site_type_symbol
_atom_site_label
_atom_site_fract_x
_atom_site_fract_y
_atom_site_fract_z
Si Si1 0.783482 0.831554 0.500918
Si Si2 0.289745 0.062658 0.906134
Si Si3 0.500000 0.668673 0.750000
Si Si4 0.078602 0.250000 0.750000
Si Si5 0.000000 0.104559 0.250000
Si Si6 0.645901 0.250000 0.750000
Si Si7 0.586368 0.029014 0.552289
O O1 0.771374 0.827932 0.185609
O O2 0.804560 0.882718 0.568015
O O3 0.819475 0.790033 0.608603
O O4 0.255101 0.053698 0.637904
O O5 0.348044 0.037533 0.924136
O O6 0.545110 0.705488 0.646387
O O7 0.482967 0.636533 0.501748
O O8 0.110775 0.269235 0.495179
O O9 0.050095 0.072180 0.350926
O O10 0.573108 0.013722 0.250582
#
# Coordination Sequence:
#
# PCOD9507737 Si02
#       7
#    16  16   8   8   8   8  16
#     4  10  21  38  59  92 135 174 220 267 321 390
#     4  10  23  41  64  99 135 177 220 269 328 402
#     4  11  26  47  66  97 134 173 218 273 334 395
#     4  11  26  41  64 101 134 167 224 277 316 395
#     4  12  26  48  76  97 134 179 222 276 342 404
#     4  12  22  38  66  95 132 177 218 272 336 378
#     4  12  26  45  71 103 134 171 223 284 341 404
#
# _framework density 22.869731000000002
#
# number of rings (size 3 to 8) (size 9 to 14) (size 15 to 20)
#    0.000    1.000    0.000    6.000    5.600    4.000 
#    0.000    0.000    0.000    0.000    0.000    0.000 
#    0.000    0.000    0.000    0.000    0.000    0.000 
#
# Total GULP energy -223785.618721 kJ/mol
# GULP energy per Si atom -5594.640468 kJ/mol
# Density = 2.281768 g / cm^3
# Si number density = 22.869731 Si / 1000 Ang^3
#
#
#
# Elastic Constant Matrix: (Units=GPa)
#
#
# Indices 1 2 3 4 5 6 
#
# 1 51.4596 19.5384 -13.3684 0.0000 0.0000 0.0000
# 2 19.5384 82.6378 -13.2462 0.0000 0.0000 0.0000
# 3 -13.3684 -13.2462 64.1731 0.0000 0.0000 0.0000
# 4 0.0000 0.0000 0.0000 13.0902 0.0000 0.0000
# 5 0.0000 0.0000 0.0000 0.0000 9.7104 0.0000
# 6 0.0000 0.0000 0.0000 0.0000 0.0000 9.8892
#
#
#
# Elastic Compliance Matrix: (Units=1/GPa)
#
#
# Indices 1 2 3 4 5 6 
#
# 1 0.022148 -0.004651 0.003654 0.000000 0.000000 0.000000
# 2 -0.004651 0.013492 0.001816 0.000000 0.000000 0.000000
# 3 0.003654 0.001816 0.016719 0.000000 0.000000 0.000000
# 4 0.000000 0.000000 0.000000 0.076393 0.000000 0.000000
# 5 0.000000 0.000000 0.000000 0.000000 0.102983 0.000000
# 6 0.000000 0.000000 0.000000 0.000000 0.000000 0.101120
#
#
# Mechanical properties :
#
#
# Convention : Reuss Voigt Hill
#
# Bulk Modulus (GPa) = 18.51980 20.45758 19.48869
# Shear Modulus (GPa) = 14.31782 20.22773 17.27278
#
# Velocity S-wave (km/s) = 2.50483 2.97724 2.75120
# Velocity P-wave (km/s) = 4.05969 4.55887 4.31650
#
# Compressibility (1/GPa) = 0.05399626
#
# Stress axis : x y z
#
# Youngs Moduli (GPa) = 45.15130 74.11964 59.81276
#
# Poissons Ratio (x) = 0.34472 -0.21854
# Poissons Ratio (y) = 0.20999 -0.10862
# Poissons Ratio (z) = -0.16497 -0.13460
#
# Static dielectric constant tensor:
#      x y z
#    x 1.885630 0.000000 0.000000 
#    y 0.000000 1.861010 0.000000 
#    z 0.000000 0.000000 1.784630 
# 
# From -- ./inp_files/2056.got.cif
#   From: 2010.05.17/outbox.cif.g08.bks.cpg/sg68_2_cif.got.tgz:2056.got - 2010.06.03 18:57:09.
