data_PCOD9507423
_publ_section_title
;
Structure prediction by ZEFSAII (Michael W. Deem and Ramdas Pophale) SiO2 
 PCOD9507423
Probable space group: C C C A
;
_chemical_formula_sum "Si O2"
_cell_formula_units_Z 72
_cell_length_a 26.640008
_cell_length_b 11.161772
_cell_length_c 11.979027
_cell_angle_alpha 90.000000
_cell_angle_beta 90.000000
_cell_angle_gamma 90.000000
_cell_volume 3561.960029
_symmetry_space_group_name_H-M "C C C A"
_symmetry_group_IT_number 68
_space_group.IT_coordinate_system_code '2'
_symmetry_cell_setting 'orthorhombic'
loop_
_space_group_symop_operation_xyz
x,y,z
-x,1/2-y,z
x,1/2-y,1/2-z
-x,y,1/2-z
-x,-y,-z
x,1/2+y,-z
-x,1/2+y,1/2+z
x,-y,1/2+z
1/2+x,1/2+y,z
1/2-x,-y,z
1/2+x,-y,1/2-z
1/2-x,1/2+y,1/2-z
1/2-x,1/2-y,-z
1/2+x,y,-z
1/2-x,y,1/2+z
1/2+x,1/2-y,1/2+z
loop_
_atom_site_type_symbol
_atom_site_label
_atom_site_fract_x
_atom_site_fract_y
_atom_site_fract_z
Si Si1 0.556000 0.220742 0.561025
Si Si2 0.685742 0.250000 0.750000
Si Si3 0.375662 0.342598 0.350781
Si Si4 0.239669 0.635177 0.422595
Si Si5 0.906416 0.906666 0.750609
O O1 0.500000 0.250000 0.523404
O O2 0.592629 0.201297 0.457365
O O3 0.556873 0.106211 0.645020
O O4 0.574456 0.325218 0.645985
O O5 0.721751 0.333043 0.676315
O O6 0.645999 0.151295 0.703936
O O7 0.377315 0.250000 0.250000
O O8 0.317969 0.361131 0.385890
O O9 0.397350 0.464824 0.300804
O O10 0.250000 0.500000 0.466645
O O11 0.250000 0.750000 0.500000
#
# Coordination Sequence:
#
# PCOD9507423 Si02
#       5
#    16   8  16  16  16
#     4  10  24  48  72  97 134 187 237 292 366 428
#     4  10  20  44  63  96 133 174 228 272 344 426
#     4  12  27  42  68 108 142 177 239 300 351 432
#     4  12  25  42  69 102 141 190 231 286 359 434
#     4  10  22  45  73  97 139 181 236 293 358 431
#
# _framework density 20.21359
#
# number of rings (size 3 to 8) (size 9 to 14) (size 15 to 20)
#    0.000    1.333    3.333    4.000    3.111    4.000 
#    4.000    0.000    0.000    0.000    0.000    0.000 
#    0.000    0.000    0.000    0.000    0.000    0.000 
#
# Total GULP energy -200752.690691 kJ/mol
# GULP energy per Si atom -5576.463630 kJ/mol
# Density = 2.016758 g / cm^3
# Si number density = 20.213590 Si / 1000 Ang^3
#
#
#
# Elastic Constant Matrix: (Units=GPa)
#
#
# Indices 1 2 3 4 5 6 
#
# 1 110.6968 28.6006 41.6109 0.0000 0.0000 0.0000
# 2 28.6006 123.5132 48.6679 0.0000 0.0000 0.0000
# 3 41.6109 48.6679 97.2267 0.0000 0.0000 0.0000
# 4 0.0000 0.0000 0.0000 22.9361 0.0000 0.0000
# 5 0.0000 0.0000 0.0000 0.0000 36.4388 0.0000
# 6 0.0000 0.0000 0.0000 0.0000 0.0000 14.2911
#
#
#
# Elastic Compliance Matrix: (Units=1/GPa)
#
#
# Indices 1 2 3 4 5 6 
#
# 1 0.010837 -0.000849 -0.004213 0.000000 0.000000 0.000000
# 2 -0.000849 0.010152 -0.004718 0.000000 0.000000 0.000000
# 3 -0.004213 -0.004718 0.014450 0.000000 0.000000 0.000000
# 4 0.000000 0.000000 0.000000 0.043599 0.000000 0.000000
# 5 0.000000 0.000000 0.000000 0.000000 0.027443 0.000000
# 6 0.000000 0.000000 0.000000 0.000000 0.000000 0.069974
#
#
# Mechanical properties :
#
#
# Convention : Reuss Voigt Hill
#
# Bulk Modulus (GPa) = 62.97979 63.24392 63.11186
# Shear Modulus (GPa) = 24.83751 28.90370 26.87060
#
# Velocity S-wave (km/s) = 3.50916 3.78552 3.64996
# Velocity P-wave (km/s) = 6.90244 7.10371 7.00380
#
# Compressibility (1/GPa) = 0.01587811
#
# Stress axis : x y z
#
# Youngs Moduli (GPa) = 92.27905 98.50177 69.20452
#
# Poissons Ratio (x) = 0.08367 0.29154
# Poissons Ratio (y) = 0.07838 0.32652
# Poissons Ratio (z) = 0.38874 0.46475
#
# Static dielectric constant tensor:
#      x y z
#    x 1.783430 0.000000 0.000000 
#    y 0.000000 1.743840 0.000000 
#    z 0.000000 0.000000 1.703160 
# 
# From -- ./inp_files/11838.got.cif
#   From: 2010.05.17/outbox.cif.g08.bks.cpg/sg68_6_cif.got.tgz:11838.got - 2010.06.03 18:57:09.
