data_PCOD9507942
_publ_section_title
;
Structure prediction by ZEFSAII (Michael W. Deem and Ramdas Pophale) SiO2 
 PCOD9507942
Probable space group: C C C A
;
_chemical_formula_sum "Si O2"
_cell_formula_units_Z 116
_cell_length_a 14.979908
_cell_length_b 13.177374
_cell_length_c 26.623681
_cell_angle_alpha 90.000000
_cell_angle_beta 90.000000
_cell_angle_gamma 90.000000
_cell_volume 5255.404146
_symmetry_space_group_name_H-M "C C C A"
_symmetry_group_IT_number 68
_space_group.IT_coordinate_system_code '2'
_symmetry_cell_setting 'orthorhombic'
loop_
_space_group_symop_operation_xyz
x,y,z
-x,1/2-y,z
x,1/2-y,1/2-z
-x,y,1/2-z
-x,-y,-z
x,1/2+y,-z
-x,1/2+y,1/2+z
x,-y,1/2+z
1/2+x,1/2+y,z
1/2-x,-y,z
1/2+x,-y,1/2-z
1/2-x,1/2+y,1/2-z
1/2-x,1/2-y,-z
1/2+x,y,-z
1/2-x,y,1/2+z
1/2+x,1/2-y,1/2+z
loop_
_atom_site_type_symbol
_atom_site_label
_atom_site_fract_x
_atom_site_fract_y
_atom_site_fract_z
Si Si1 0.898446 0.289029 0.553553
Si Si2 0.142517 0.509226 0.916229
Si Si3 0.500000 0.750000 0.250000
Si Si4 0.366575 0.289671 0.666627
Si Si5 0.858940 0.488489 0.803461
Si Si6 0.354079 0.536438 0.808317
Si Si7 0.896480 0.775172 0.947233
Si Si8 0.162204 0.768100 0.338519
O O1 0.897867 0.408637 0.561116
O O2 0.857444 0.267842 0.498910
O O3 0.845395 0.243509 0.601170
O O4 0.000000 0.250000 0.556881
O O5 0.250000 0.500000 0.914647
O O6 0.110094 0.516211 0.858555
O O7 0.117746 0.605557 0.947894
O O8 0.574869 0.774387 0.293888
O O9 0.393679 0.408437 0.671208
O O10 0.368656 0.260111 0.608177
O O11 0.263245 0.277473 0.680805
O O12 0.750000 0.500000 0.806284
O O13 0.889975 0.491804 0.745841
O O14 0.882443 0.376090 0.824118
O O15 0.250000 0.500000 0.806568
O O16 0.367102 0.658104 0.816845
O O17 0.000000 0.750000 0.949735
#
# Coordination Sequence:
#
# PCOD9507942 Si02
#       8
#    16  16   4  16  16  16  16  16
#     4  10  24  44  67  95 131 178 228 288 344 394
#     4  10  22  40  65  98 130 179 235 275 336 419
#     4  12  28  40  64 100 140 180 204 300 330 420
#     4  11  24  40  60  98 136 171 228 269 344 407
#     4   9  20  33  58  91 124 169 213 272 328 382
#     4   9  17  32  59  92 121 168 220 268 318 398
#     4  11  24  42  65  96 135 179 223 284 346 404
#     4  10  21  39  65  93 130 179 225 279 333 409
#
# _framework density 22.072517000000001
#
# number of rings (size 3 to 8) (size 9 to 14) (size 15 to 20)
#    0.000    1.931    0.690    2.897    7.724    6.621 
#    0.000    1.379    0.000    3.310    0.000    0.000 
#    0.000    0.000    0.000    0.000    0.000    0.000 
#
# Total GULP energy -323355.336239 kJ/mol
# GULP energy per Si atom -5575.092004 kJ/mol
# Density = 2.202228 g / cm^3
# Si number density = 22.072517 Si / 1000 Ang^3
#
#
#
# Elastic Constant Matrix: (Units=GPa)
#
#
# Indices 1 2 3 4 5 6 
#
# 1 59.4360 5.1728 0.8257 0.0000 0.0000 0.0000
# 2 5.1728 114.0156 63.4320 0.0000 0.0000 0.0000
# 3 0.8257 63.4320 129.3050 0.0000 0.0000 0.0000
# 4 0.0000 0.0000 0.0000 21.1470 0.0000 0.0000
# 5 0.0000 0.0000 0.0000 0.0000 22.6050 0.0000
# 6 0.0000 0.0000 0.0000 0.0000 0.0000 20.8081
#
#
#
# Elastic Compliance Matrix: (Units=1/GPa)
#
#
# Indices 1 2 3 4 5 6 
#
# 1 0.016904 -0.000972 0.000369 0.000000 0.000000 0.000000
# 2 -0.000972 0.012119 -0.005939 0.000000 0.000000 0.000000
# 3 0.000369 -0.005939 0.010645 0.000000 0.000000 0.000000
# 4 0.000000 0.000000 0.000000 0.047288 0.000000 0.000000
# 5 0.000000 0.000000 0.000000 0.000000 0.044238 0.000000
# 6 0.000000 0.000000 0.000000 0.000000 0.000000 0.048058
#
#
# Mechanical properties :
#
#
# Convention : Reuss Voigt Hill
#
# Bulk Modulus (GPa) = 37.61701 49.06860 43.34281
# Shear Modulus (GPa) = 24.85120 28.46709 26.65915
#
# Velocity S-wave (km/s) = 3.35907 3.59515 3.47911
# Velocity P-wave (km/s) = 5.66780 6.28588 5.98482
#
# Compressibility (1/GPa) = 0.02658372
#
# Stress axis : x y z
#
# Youngs Moduli (GPa) = 59.15650 82.51593 93.94384
#
# Poissons Ratio (x) = 0.08022 -0.03466
# Poissons Ratio (y) = 0.05751 0.55792
# Poissons Ratio (z) = -0.02183 0.49005
#
# Static dielectric constant tensor:
#      x y z
#    x 1.850500 0.000000 0.000000 
#    y 0.000000 1.821740 0.000000 
#    z 0.000000 0.000000 1.820870 
# 
# From -- ./inp_files/51517.got.cif
#   From: 2010.05.17/outbox.cif.g08.bks.cpg/sg68_26_cif.got.tgz:51517.got - 2010.06.03 18:57:09.
