data_PCOD9507448
_publ_section_title
;
Structure prediction by ZEFSAII (Michael W. Deem and Ramdas Pophale) SiO2 
 PCOD9507448
Probable space group: C C C A
;
_chemical_formula_sum "Si O2"
_cell_formula_units_Z 104
_cell_length_a 30.669530
_cell_length_b 18.208759
_cell_length_c 8.054926
_cell_angle_alpha 90.000000
_cell_angle_beta 90.000000
_cell_angle_gamma 90.000000
_cell_volume 4498.306292
_symmetry_space_group_name_H-M "C C C A"
_symmetry_group_IT_number 68
_space_group.IT_coordinate_system_code '2'
_symmetry_cell_setting 'orthorhombic'
loop_
_space_group_symop_operation_xyz
x,y,z
-x,1/2-y,z
x,1/2-y,1/2-z
-x,y,1/2-z
-x,-y,-z
x,1/2+y,-z
-x,1/2+y,1/2+z
x,-y,1/2+z
1/2+x,1/2+y,z
1/2-x,-y,z
1/2+x,-y,1/2-z
1/2-x,1/2+y,1/2-z
1/2-x,1/2-y,-z
1/2+x,y,-z
1/2-x,y,1/2+z
1/2+x,1/2-y,1/2+z
loop_
_atom_site_type_symbol
_atom_site_label
_atom_site_fract_x
_atom_site_fract_y
_atom_site_fract_z
Si Si1 0.348964 0.364297 0.479674
Si Si2 0.000000 0.250000 0.750000
Si Si3 0.000000 0.750000 0.750000
Si Si4 0.278863 0.666842 0.268232
Si Si5 0.384990 0.033225 0.509656
Si Si6 0.055744 0.839469 0.000638
Si Si7 0.193367 0.129164 0.865298
Si Si8 0.549972 0.977062 0.198085
O O1 0.317398 0.349321 0.636053
O O2 0.364326 0.450520 0.470676
O O3 0.393784 0.321411 0.503410
O O4 0.329067 0.340647 0.302811
O O5 0.031528 0.304626 0.846644
O O6 0.968939 0.802447 0.649858
O O7 0.261528 0.750000 0.250000
O O8 0.240562 0.609948 0.217121
O O9 0.292784 0.666184 0.460640
O O10 0.343089 0.075376 0.441733
O O11 0.413463 0.054959 0.673202
O O12 0.422770 0.045357 0.370316
O O13 0.048692 0.925552 0.966475
O O14 0.500000 0.985814 0.250000
#
# Coordination Sequence:
#
# PCOD9507448 Si02
#       8
#    16   4   4  16  16  16  16  16
#     4  11  26  48  71 110 146 195 246 303 376 454
#     4  10  24  46  68 104 146 198 248 302 366 458
#     4  10  20  46  68 100 142 198 252 298 358 446
#     4  12  28  49  76 109 144 196 251 307 379 451
#     4  11  24  47  69 107 145 190 244 302 376 446
#     4  10  23  43  69 102 145 189 250 300 366 437
#     4  12  25  48  75 101 150 188 246 312 367 448
#     4  11  22  43  70 105 143 188 244 300 373 444
#
# _framework density 23.119812
#
# number of rings (size 3 to 8) (size 9 to 14) (size 15 to 20)
#    0.000    0.923    3.846    2.769    1.077    3.077 
#    8.308    0.000    0.000    0.000    0.000    0.000 
#    0.000    0.000    0.000    0.000    0.000    0.000 
#
# Total GULP energy -289561.682963 kJ/mol
# GULP energy per Si atom -5568.493903 kJ/mol
# Density = 2.306719 g / cm^3
# Si number density = 23.119812 Si / 1000 Ang^3
#
#
#
# Elastic Constant Matrix: (Units=GPa)
#
#
# Indices 1 2 3 4 5 6 
#
# 1 210.9191 37.4027 78.0803 0.0000 0.0000 0.0000
# 2 37.4027 30.6850 11.9107 0.0000 0.0000 0.0000
# 3 78.0803 11.9107 158.2483 0.0000 0.0000 0.0000
# 4 0.0000 0.0000 0.0000********** 0.0000 0.0000
# 5 0.0000 0.0000 0.0000 0.0000 51.4005 0.0000
# 6 0.0000 0.0000 0.0000 0.0000 0.0000 34.2788
#
#
#
# Elastic Compliance Matrix: (Units=1/GPa)
#
#
# Indices 1 2 3 4 5 6 
#
# 1 0.007193 -0.007612 -0.002976 0.000000 0.000000 0.000000
# 2 -0.007612 0.041626 0.000623 0.000000 0.000000 0.000000
# 3 -0.002976 0.000623 0.007741 0.000000 0.000000 0.000000
# 4 0.000000 0.000000 0.000000 -0.000086 0.000000 0.000000
# 5 0.000000 0.000000 0.000000 0.000000 0.019455 0.000000
# 6 0.000000 0.000000 0.000000 0.000000 0.000000 0.029173
#
#
# Mechanical properties :
#
#
# Convention : Reuss Voigt Hill
#
# Bulk Modulus (GPa) = 27.30085 72.73774 50.01930
# Shear Modulus (GPa) = 36.43216 -2285.99232 -1124.78008
#
# Velocity S-wave (km/s) = 3.97394 -31.47865 -22.08069
# Velocity P-wave (km/s) = 5.73501 35.91209 25.06778
#
# Compressibility (1/GPa) = 0.03662890
#
# Stress axis : x y z
#
# Youngs Moduli (GPa) = 139.02943 24.02333 129.18800
#
# Poissons Ratio (x) = 0.18287 0.38446
# Poissons Ratio (y) = 1.05832 -0.08047
# Poissons Ratio (z) = 0.41375 -0.01496
#
# Static dielectric constant tensor:
#      x y z
#    x 1.853070 0.000000 0.000000 
#    y 0.000000 2.032860 0.000000 
#    z 0.000000 0.000000 1.907520 
# 
# From -- ./inp_files/9030.got.cif
#   From: 2010.05.17/outbox.cif.g08.bks.cpg/sg68_5_cif.got.tgz:9030.got - 2010.06.03 18:57:09.
