data_PCOD9507708
_publ_section_title
;
Structure prediction by ZEFSAII (Michael W. Deem and Ramdas Pophale) SiO2 
 PCOD9507708
Probable space group: C C C A
;
_chemical_formula_sum "Si O2"
_cell_formula_units_Z 72
_cell_length_a 17.058224
_cell_length_b 16.498750
_cell_length_c 14.214294
_cell_angle_alpha 90.000000
_cell_angle_beta 90.000000
_cell_angle_gamma 90.000000
_cell_volume 4000.461994
_symmetry_space_group_name_H-M "C C C A"
_symmetry_group_IT_number 68
_space_group.IT_coordinate_system_code '2'
_symmetry_cell_setting 'orthorhombic'
loop_
_space_group_symop_operation_xyz
x,y,z
-x,1/2-y,z
x,1/2-y,1/2-z
-x,y,1/2-z
-x,-y,-z
x,1/2+y,-z
-x,1/2+y,1/2+z
x,-y,1/2+z
1/2+x,1/2+y,z
1/2-x,-y,z
1/2+x,-y,1/2-z
1/2-x,1/2+y,1/2-z
1/2-x,1/2-y,-z
1/2+x,y,-z
1/2-x,y,1/2+z
1/2+x,1/2-y,1/2+z
loop_
_atom_site_type_symbol
_atom_site_label
_atom_site_fract_x
_atom_site_fract_y
_atom_site_fract_z
Si Si1 0.374662 0.181561 0.331013
Si Si2 0.924584 0.595351 0.695429
Si Si3 0.500000 0.440884 0.250000
Si Si4 0.805286 0.172810 0.179063
Si Si5 0.909504 0.227456 0.457179
O O1 0.379841 0.250000 0.250000
O O2 0.437979 0.113763 0.304646
O O3 0.284970 0.151254 0.335135
O O4 0.392944 0.217126 0.433268
O O5 0.854118 0.602927 0.769464
O O6 0.901456 0.644335 0.602771
O O7 0.000000 0.634934 0.750000
O O8 0.952893 0.503340 0.682407
O O9 0.807658 0.250000 0.250000
O O10 0.851567 0.205818 0.088118
O O11 0.000000 0.250000 0.444562
#
# Coordination Sequence:
#
# PCOD9507708 Si02
#       5
#    16  16   8  16  16
#     4  11  23  37  53  83 119 155 181 228 290 346
#     4   9  19  36  57  85 104 143 192 237 278 321
#     4  10  21  38  53  76 120 150 186 224 287 338
#     4   9  19  35  59  85 112 139 191 241 278 328
#     4  11  18  33  62  84 110 145 193 236 281 342
#
# _framework density 17.997921000000002
#
# number of rings (size 3 to 8) (size 9 to 14) (size 15 to 20)
#    0.667    1.333    2.222    2.333    0.000    1.778 
#    0.000    0.000    0.000    8.000    0.000    0.000 
#    0.000    0.000    0.000    0.000    0.000    0.000 
#
# Total GULP energy -200579.398365 kJ/mol
# GULP energy per Si atom -5571.649955 kJ/mol
# Density = 1.795696 g / cm^3
# Si number density = 17.997921 Si / 1000 Ang^3
#
#
#
# Elastic Constant Matrix: (Units=GPa)
#
#
# Indices 1 2 3 4 5 6 
#
# 1 143.9060 60.7680 49.4425 0.0000 0.0000 0.0000
# 2 60.7680 65.4360 42.9307 0.0000 0.0000 0.0000
# 3 49.4425 42.9307 131.8300 0.0000 0.0000 0.0000
# 4 0.0000 0.0000 0.0000 6.7178 0.0000 0.0000
# 5 0.0000 0.0000 0.0000 0.0000 18.8554 0.0000
# 6 0.0000 0.0000 0.0000 0.0000 0.0000 24.7968
#
#
#
# Elastic Compliance Matrix: (Units=1/GPa)
#
#
# Indices 1 2 3 4 5 6 
#
# 1 0.011549 -0.010025 -0.001067 0.000000 0.000000 0.000000
# 2 -0.010025 0.028137 -0.005403 0.000000 0.000000 0.000000
# 3 -0.001067 -0.005403 0.009745 0.000000 0.000000 0.000000
# 4 0.000000 0.000000 0.000000 0.148859 0.000000 0.000000
# 5 0.000000 0.000000 0.000000 0.000000 0.053035 0.000000
# 6 0.000000 0.000000 0.000000 0.000000 0.000000 0.040328
#
#
# Mechanical properties :
#
#
# Convention : Reuss Voigt Hill
#
# Bulk Modulus (GPa) = 60.82265 71.93939 66.38102
# Shear Modulus (GPa) = 15.14588 22.60938 18.87763
#
# Velocity S-wave (km/s) = 2.90407 3.54817 3.24215
# Velocity P-wave (km/s) = 6.71658 7.53948 7.13989
#
# Compressibility (1/GPa) = 0.01644124
#
# Stress axis : x y z
#
# Youngs Moduli (GPa) = 86.58877 35.54061 102.61639
#
# Poissons Ratio (x) = 0.35630 0.10945
# Poissons Ratio (y) = 0.86807 0.55443
# Poissons Ratio (z) = 0.09236 0.19202
#
# Static dielectric constant tensor:
#      x y z
#    x 1.640880 0.000000 0.000000 
#    y 0.000000 1.619640 0.000000 
#    z 0.000000 0.000000 1.602710 
# 
# From -- ./inp_files/14224.got.cif
#   From: 2010.05.17/outbox.cif.g08.bks.cpg/sg68_8_cif.got.tgz:14224.got - 2010.06.03 18:57:09.
