data_PCOD9507410
_publ_section_title
;
Structure prediction by ZEFSAII (Michael W. Deem and Ramdas Pophale) SiO2 
 PCOD9507410
Probable space group: C C C A
;
_chemical_formula_sum "Si O2"
_cell_formula_units_Z 116
_cell_length_a 18.569020
_cell_length_b 19.860442
_cell_length_c 12.818092
_cell_angle_alpha 90.000000
_cell_angle_beta 90.000000
_cell_angle_gamma 90.000000
_cell_volume 4727.170622
_symmetry_space_group_name_H-M "C C C A"
_symmetry_group_IT_number 68
_space_group.IT_coordinate_system_code '2'
_symmetry_cell_setting 'orthorhombic'
loop_
_space_group_symop_operation_xyz
x,y,z
-x,1/2-y,z
x,1/2-y,1/2-z
-x,y,1/2-z
-x,-y,-z
x,1/2+y,-z
-x,1/2+y,1/2+z
x,-y,1/2+z
1/2+x,1/2+y,z
1/2-x,-y,z
1/2+x,-y,1/2-z
1/2-x,1/2+y,1/2-z
1/2-x,1/2-y,-z
1/2+x,y,-z
1/2-x,y,1/2+z
1/2+x,1/2-y,1/2+z
loop_
_atom_site_type_symbol
_atom_site_label
_atom_site_fract_x
_atom_site_fract_y
_atom_site_fract_z
Si Si1 0.000000 0.750000 0.250000
Si Si2 0.327447 0.529907 0.430317
Si Si3 0.648192 0.320084 0.630125
Si Si4 0.087210 0.127174 0.777257
Si Si5 0.777234 0.433589 0.859195
Si Si6 0.966260 0.059244 0.906389
Si Si7 0.506127 0.619189 0.371422
Si Si8 0.164245 0.175962 0.375402
O O1 0.053434 0.698597 0.189929
O O2 0.250000 0.500000 0.403556
O O3 0.324678 0.608686 0.408104
O O4 0.326068 0.529150 0.554957
O O5 0.401442 0.495757 0.390773
O O6 0.561742 0.330670 0.619448
O O7 0.674526 0.250720 0.579469
O O8 0.671423 0.318954 0.750375
O O9 0.169732 0.115460 0.799003
O O10 0.074702 0.121128 0.652810
O O11 0.040666 0.068850 0.838823
O O12 0.750000 0.500000 0.799940
O O13 0.715344 0.385717 0.906637
O O14 0.012454 0.930883 0.972048
O O15 0.500000 0.592451 0.250000
O O16 0.580887 0.657329 0.385128
#
# Coordination Sequence:
#
# PCOD9507410 Si02
#       8
#     4  16  16  16  16  16  16  16
#     4   8  20  48  68 104 142 180 256 284 364 430
#     4  11  25  44  67 101 144 186 244 293 367 437
#     4  10  23  41  67  96 138 186 241 293 358 433
#     4  10  24  47  73 106 142 194 242 304 354 440
#     4  11  25  43  70 102 145 185 239 301 363 439
#     4  10  23  45  70 106 139 185 247 292 362 428
#     4  10  20  42  71 101 141 183 231 303 358 431
#     4  10  23  43  62 106 138 182 236 292 372 425
#
# _framework density 24.538992
#
# number of rings (size 3 to 8) (size 9 to 14) (size 15 to 20)
#    0.000    1.931    0.000    2.897    3.862    6.621 
#   22.345    0.000    0.000    0.000    0.000    0.000 
#    0.000    0.000    0.000    0.000    0.000    0.000 
#
# Total GULP energy -322899.156612 kJ/mol
# GULP energy per Si atom -5567.226838 kJ/mol
# Density = 2.448314 g / cm^3
# Si number density = 24.538992 Si / 1000 Ang^3
#
#
#
# Elastic Constant Matrix: (Units=GPa)
#
#
# Indices 1 2 3 4 5 6 
#
# 1 151.1263 91.1307 20.3873 0.0000 0.0000 0.0000
# 2 91.1307 181.3735 23.8156 0.0000 0.0000 0.0000
# 3 20.3873 23.8156 84.4844 0.0000 0.0000 0.0000
# 4 0.0000 0.0000 0.0000 20.0175 0.0000 0.0000
# 5 0.0000 0.0000 0.0000 0.0000 16.7022 0.0000
# 6 0.0000 0.0000 0.0000 0.0000 0.0000 343.2473
#
#
#
# Elastic Compliance Matrix: (Units=1/GPa)
#
#
# Indices 1 2 3 4 5 6 
#
# 1 0.009572 -0.004680 -0.000991 0.000000 0.000000 0.000000
# 2 -0.004680 0.008013 -0.001130 0.000000 0.000000 0.000000
# 3 -0.000991 -0.001130 0.012394 0.000000 0.000000 0.000000
# 4 0.000000 0.000000 0.000000 0.049956 0.000000 0.000000
# 5 0.000000 0.000000 0.000000 0.000000 0.059872 0.000000
# 6 0.000000 0.000000 0.000000 0.000000 0.000000 0.002913
#
#
# Mechanical properties :
#
#
# Convention : Reuss Voigt Hill
#
# Bulk Modulus (GPa) = 61.05161 76.40570 68.72865
# Shear Modulus (GPa) = 30.90591 94.77010 62.83800
#
# Velocity S-wave (km/s) = 3.55274 6.22126 5.06587
# Velocity P-wave (km/s) = 6.46241 9.09997 7.89215
#
# Compressibility (1/GPa) = 0.01637958
#
# Stress axis : x y z
#
# Youngs Moduli (GPa) = 104.46623 124.79656 80.68404
#
# Poissons Ratio (x) = 0.58399 0.07994
# Poissons Ratio (y) = 0.48886 0.09114
# Poissons Ratio (z) = 0.10351 0.14097
#
# Static dielectric constant tensor:
#      x y z
#    x 1.976230 0.000000 0.000000 
#    y 0.000000 2.121560 0.000000 
#    z 0.000000 0.000000 2.040740 
# 
# From -- ./inp_files/32171.got.cif
#   From: 2010.05.17/outbox.cif.g08.bks.cpg/sg68_17_cif.got.tgz:32171.got - 2010.06.03 18:57:09.
