data_PCOD9507989
_publ_section_title
;
Structure prediction by ZEFSAII (Michael W. Deem and Ramdas Pophale) SiO2 
 PCOD9507989
Probable space group: C C C A
;
_chemical_formula_sum "Si O2"
_cell_formula_units_Z 88
_cell_length_a 10.371991
_cell_length_b 18.676302
_cell_length_c 19.625669
_cell_angle_alpha 90.000000
_cell_angle_beta 90.000000
_cell_angle_gamma 90.000000
_cell_volume 3801.696904
_symmetry_space_group_name_H-M "C C C A"
_symmetry_group_IT_number 68
_space_group.IT_coordinate_system_code '2'
_symmetry_cell_setting 'orthorhombic'
loop_
_space_group_symop_operation_xyz
x,y,z
-x,1/2-y,z
x,1/2-y,1/2-z
-x,y,1/2-z
-x,-y,-z
x,1/2+y,-z
-x,1/2+y,1/2+z
x,-y,1/2+z
1/2+x,1/2+y,z
1/2-x,-y,z
1/2+x,-y,1/2-z
1/2-x,1/2+y,1/2-z
1/2-x,1/2-y,-z
1/2+x,y,-z
1/2-x,y,1/2+z
1/2+x,1/2-y,1/2+z
loop_
_atom_site_type_symbol
_atom_site_label
_atom_site_fract_x
_atom_site_fract_y
_atom_site_fract_z
Si Si1 0.500000 0.950699 0.750000
Si Si2 0.178146 0.332193 0.764643
Si Si3 0.919636 0.542652 0.630474
Si Si4 0.586580 0.178261 0.674123
Si Si5 0.134770 0.792980 0.967822
Si Si6 0.856999 0.599949 0.087744
O O1 0.603729 0.893200 0.721519
O O2 0.413633 0.002929 0.703878
O O3 0.143978 0.250000 0.750000
O O4 0.327875 0.337472 0.740829
O O5 0.141349 0.351550 0.842949
O O6 0.950522 0.469568 0.589521
O O7 0.790176 0.572168 0.596253
O O8 0.010464 0.609557 0.645406
O O9 0.500000 0.250000 0.680257
O O10 0.677522 0.194132 0.609845
O O11 0.000000 0.750000 0.966449
O O12 0.250000 0.750000 0.000000
O O13 0.118082 0.859774 0.017900
#
# Coordination Sequence:
#
# PCOD9507989 Si02
#       6
#     8  16  16  16  16  16
#     4  10  23  40  61  92 134 172 212 278 341 396
#     4  11  22  38  63  94 125 167 221 270 326 395
#     4  10  21  40  61  90 128 169 218 267 329 394
#     4  11  24  42  67  97 129 173 227 278 331 400
#     4  11  24  44  69  98 137 178 222 280 342 400
#     4  10  22  39  63  92 131 173 211 270 334 394
#
# _framework density 23.147556999999999
#
# number of rings (size 3 to 8) (size 9 to 14) (size 15 to 20)
#    0.000    1.455    0.000    5.727    0.000   10.545 
#    0.000    4.545    0.000    0.000    0.000    0.000 
#    0.000    0.000    0.000    0.000    0.000    0.000 
#
# Total GULP energy -245072.465376 kJ/mol
# GULP energy per Si atom -5569.828759 kJ/mol
# Density = 2.309487 g / cm^3
# Si number density = 23.147557 Si / 1000 Ang^3
#
#
#
# Elastic Constant Matrix: (Units=GPa)
#
#
# Indices 1 2 3 4 5 6 
#
# 1 57.4668 17.0474 -3.7780 0.0000 0.0000 0.0000
# 2 17.0474 135.2819 12.5706 0.0000 0.0000 0.0000
# 3 -3.7780 12.5706 96.2994 0.0000 0.0000 0.0000
# 4 0.0000 0.0000 0.0000 13.7285 0.0000 0.0000
# 5 0.0000 0.0000 0.0000 0.0000 26.1477 0.0000
# 6 0.0000 0.0000 0.0000 0.0000 0.0000 40.5220
#
#
#
# Elastic Compliance Matrix: (Units=1/GPa)
#
#
# Indices 1 2 3 4 5 6 
#
# 1 0.018176 -0.002386 0.001025 0.000000 0.000000 0.000000
# 2 -0.002386 0.007796 -0.001111 0.000000 0.000000 0.000000
# 3 0.001025 -0.001111 0.010570 0.000000 0.000000 0.000000
# 4 0.000000 0.000000 0.000000 0.072841 0.000000 0.000000
# 5 0.000000 0.000000 0.000000 0.000000 0.038244 0.000000
# 6 0.000000 0.000000 0.000000 0.000000 0.000000 0.024678
#
#
# Mechanical properties :
#
#
# Convention : Reuss Voigt Hill
#
# Bulk Modulus (GPa) = 31.64859 37.85867 34.75363
# Shear Modulus (GPa) = 26.62656 33.62685 30.12670
#
# Velocity S-wave (km/s) = 3.39528 3.81559 3.61155
# Velocity P-wave (km/s) = 5.39192 5.98352 5.69541
#
# Compressibility (1/GPa) = 0.03159698
#
# Stress axis : x y z
#
# Youngs Moduli (GPa) = 55.01637 128.27324 94.61156
#
# Poissons Ratio (x) = 0.30602 -0.09693
# Poissons Ratio (y) = 0.13125 0.10514
# Poissons Ratio (z) = -0.05636 0.14254
#
# Static dielectric constant tensor:
#      x y z
#    x 1.948490 0.000000 0.000000 
#    y 0.000000 1.912070 0.000000 
#    z 0.000000 0.000000 1.966910 
# 
# From -- ./inp_files/37473.got.cif
#   From: 2010.05.17/outbox.cif.g08.bks.cpg/sg68_19_cif.got.tgz:37473.got - 2010.06.03 18:57:09.
