data_PCOD9507775
_publ_section_title
;
Structure prediction by ZEFSAII (Michael W. Deem and Ramdas Pophale) SiO2 
 PCOD9507775
Probable space group: C C C A
;
_chemical_formula_sum "Si O2"
_cell_formula_units_Z 72
_cell_length_a 18.081539
_cell_length_b 10.993143
_cell_length_c 16.776534
_cell_angle_alpha 90.000000
_cell_angle_beta 90.000000
_cell_angle_gamma 90.000000
_cell_volume 3334.721051
_symmetry_space_group_name_H-M "C C C A"
_symmetry_group_IT_number 68
_space_group.IT_coordinate_system_code '2'
_symmetry_cell_setting 'orthorhombic'
loop_
_space_group_symop_operation_xyz
x,y,z
-x,1/2-y,z
x,1/2-y,1/2-z
-x,y,1/2-z
-x,-y,-z
x,1/2+y,-z
-x,1/2+y,1/2+z
x,-y,1/2+z
1/2+x,1/2+y,z
1/2-x,-y,z
1/2+x,-y,1/2-z
1/2-x,1/2+y,1/2-z
1/2-x,1/2-y,-z
1/2+x,y,-z
1/2-x,y,1/2+z
1/2+x,1/2-y,1/2+z
loop_
_atom_site_type_symbol
_atom_site_label
_atom_site_fract_x
_atom_site_fract_y
_atom_site_fract_z
Si Si1 0.312114 0.593588 0.031256
Si Si2 0.453255 0.367717 0.620267
Si Si3 0.121073 0.250000 0.750000
Si Si4 0.846447 0.250000 0.250000
Si Si5 0.000000 0.543319 0.250000
Si Si6 0.261313 0.189702 0.125974
O O1 0.250000 0.500000 0.062239
O O2 0.397268 0.574202 0.055806
O O3 0.288044 0.721242 0.071092
O O4 0.299978 0.600251 0.936380
O O5 0.500000 0.250000 0.591702
O O6 0.398609 0.320647 0.689892
O O7 0.502233 0.463197 0.669359
O O8 0.070547 0.368950 0.749713
O O9 0.172492 0.244989 0.827701
O O10 0.794450 0.341369 0.198554
#
# Coordination Sequence:
#
# PCOD9507775 Si02
#       6
#    16  16   8   8   8  16
#     4  10  21  38  62  89 125 161 208 261 318 381
#     4  11  20  38  62  94 123 164 210 262 322 389
#     4  10  22  39  57  88 116 162 208 262 308 380
#     4   9  17  35  67  83 113 154 208 262 307 363
#     4  11  21  36  60  82 125 157 208 252 316 377
#     4   9  20  39  59  84 119 153 206 260 308 372
#
# _framework density 21.591011000000002
#
# number of rings (size 3 to 8) (size 9 to 14) (size 15 to 20)
#    0.000    2.000    2.222    1.333    0.000    1.778 
#    8.000    3.333    0.000    0.000    0.000    0.000 
#    0.000    0.000    0.000    0.000    0.000    0.000 
#
# Total GULP energy -200617.269570 kJ/mol
# GULP energy per Si atom -5572.701933 kJ/mol
# Density = 2.154187 g / cm^3
# Si number density = 21.591011 Si / 1000 Ang^3
#
#
#
# Elastic Constant Matrix: (Units=GPa)
#
#
# Indices 1 2 3 4 5 6 
#
# 1 98.9678 18.8811 29.8837 0.0000 0.0000 0.0000
# 2 18.8811 41.1773 6.1251 0.0000 0.0000 0.0000
# 3 29.8837 6.1251 77.5901 0.0000 0.0000 0.0000
# 4 0.0000 0.0000 0.0000 18.1408 0.0000 0.0000
# 5 0.0000 0.0000 0.0000 0.0000 -8.6109 0.0000
# 6 0.0000 0.0000 0.0000 0.0000 0.0000 67.3935
#
#
#
# Elastic Compliance Matrix: (Units=1/GPa)
#
#
# Indices 1 2 3 4 5 6 
#
# 1 0.012384 -0.005028 -0.004373 0.000000 0.000000 0.000000
# 2 -0.005028 0.026615 -0.000165 0.000000 0.000000 0.000000
# 3 -0.004373 -0.000165 0.014585 0.000000 0.000000 0.000000
# 4 0.000000 0.000000 0.000000 0.055124 0.000000 0.000000
# 5 0.000000 0.000000 0.000000 0.000000 -0.116131 0.000000
# 6 0.000000 0.000000 0.000000 0.000000 0.000000 0.014838
#
#
# Mechanical properties :
#
#
# Convention : Reuss Voigt Hill
#
# Bulk Modulus (GPa) = 29.02422 36.39055 32.70738
# Shear Modulus (GPa) = 131.47244 26.24101 78.85673
#
# Velocity S-wave (km/s) = 7.81181 3.48999 6.04998
# Velocity P-wave (km/s) = 9.73847 5.75597 7.99903
#
# Compressibility (1/GPa) = 0.03445399
#
# Stress axis : x y z
#
# Youngs Moduli (GPa) = 80.75006 37.57256 68.56184
#
# Poissons Ratio (x) = 0.18891 0.29980
# Poissons Ratio (y) = 0.40601 0.01128
# Poissons Ratio (z) = 0.35310 0.00618
#
# Static dielectric constant tensor:
#      x y z
#    x 1.815470 0.000000 0.000000 
#    y 0.000000 1.850430 0.000000 
#    z 0.000000 0.000000 1.833760 
# 
# From -- ./inp_files/29435.got.cif
#   From: 2010.05.17/outbox.cif.g08.bks.cpg/sg68_15_cif.got.tgz:29435.got - 2010.06.03 18:57:09.
