data_PCOD9507702
_publ_section_title
;
Structure prediction by ZEFSAII (Michael W. Deem and Ramdas Pophale) SiO2 
 PCOD9507702
Probable space group: C C C A
;
_chemical_formula_sum "Si O2"
_cell_formula_units_Z 64
_cell_length_a 13.870751
_cell_length_b 8.985936
_cell_length_c 19.189241
_cell_angle_alpha 90.000000
_cell_angle_beta 90.000000
_cell_angle_gamma 90.000000
_cell_volume 2391.779251
_symmetry_space_group_name_H-M "C C C A"
_symmetry_group_IT_number 68
_space_group.IT_coordinate_system_code '2'
_symmetry_cell_setting 'orthorhombic'
loop_
_space_group_symop_operation_xyz
x,y,z
-x,1/2-y,z
x,1/2-y,1/2-z
-x,y,1/2-z
-x,-y,-z
x,1/2+y,-z
-x,1/2+y,1/2+z
x,-y,1/2+z
1/2+x,1/2+y,z
1/2-x,-y,z
1/2+x,-y,1/2-z
1/2-x,1/2+y,1/2-z
1/2-x,1/2-y,-z
1/2+x,y,-z
1/2-x,y,1/2+z
1/2+x,1/2-y,1/2+z
loop_
_atom_site_type_symbol
_atom_site_label
_atom_site_fract_x
_atom_site_fract_y
_atom_site_fract_z
Si Si1 0.604663 0.600529 0.416105
Si Si2 0.600490 0.175643 0.359434
Si Si3 0.622346 0.418756 0.541830
Si Si4 0.644788 0.539442 0.775790
O O1 0.642924 0.462302 0.462263
O O2 0.492389 0.596138 0.439587
O O3 0.654907 0.754689 0.437414
O O4 0.612827 0.578416 0.333713
O O5 0.500000 0.250000 0.385001
O O6 0.581128 0.070004 0.292281
O O7 0.654805 0.310598 0.322190
O O8 0.648429 0.068339 0.415420
O O9 0.750000 0.500000 0.747898
#
# Coordination Sequence:
#
# PCOD9507702 Si02
#       4
#    16  16  16  16
#     4  10  21  38  62 100 130 164 212 270 324 391
#     4  11  23  43  70  95 128 179 223 271 324 392
#     4  10  21  37  67  96 126 164 218 272 317 380
#     4  11  24  41  63  93 133 175 213 268 332 392
#
# _framework density 26.758320999999999
#
# number of rings (size 3 to 8) (size 9 to 14) (size 15 to 20)
#    0.000    1.500    2.500    3.000    3.500    5.000 
#    0.000    8.750    0.000    0.000    0.000    0.000 
#    0.000    0.000    0.000    0.000    0.000    0.000 
#
# Total GULP energy -178953.182516 kJ/mol
# GULP energy per Si atom -5592.286954 kJ/mol
# Density = 2.669742 g / cm^3
# Si number density = 26.758321 Si / 1000 Ang^3
#
#
#
# Elastic Constant Matrix: (Units=GPa)
#
#
# Indices 1 2 3 4 5 6 
#
# 1 67.3812 3.5675 -19.4658 0.0000 0.0000 0.0000
# 2 3.5675 129.2435 21.9629 0.0000 0.0000 0.0000
# 3 -19.4658 21.9629 132.6134 0.0000 0.0000 0.0000
# 4 0.0000 0.0000 0.0000 46.3357 0.0000 0.0000
# 5 0.0000 0.0000 0.0000 0.0000 6.6298 0.0000
# 6 0.0000 0.0000 0.0000 0.0000 0.0000 35.9593
#
#
#
# Elastic Compliance Matrix: (Units=1/GPa)
#
#
# Indices 1 2 3 4 5 6 
#
# 1 0.015587 -0.000843 0.002428 0.000000 0.000000 0.000000
# 2 -0.000843 0.008007 -0.001450 0.000000 0.000000 0.000000
# 3 0.002428 -0.001450 0.008137 0.000000 0.000000 0.000000
# 4 0.000000 0.000000 0.000000 0.021582 0.000000 0.000000
# 5 0.000000 0.000000 0.000000 0.000000 0.150835 0.000000
# 6 0.000000 0.000000 0.000000 0.000000 0.000000 0.027809
#
#
# Mechanical properties :
#
#
# Convention : Reuss Voigt Hill
#
# Bulk Modulus (GPa) = 31.24916 37.92970 34.58943
# Shear Modulus (GPa) = 20.63102 39.32987 29.98045
#
# Velocity S-wave (km/s) = 2.77972 3.83798 3.35089
# Velocity P-wave (km/s) = 4.69107 5.81772 5.28450
#
# Compressibility (1/GPa) = 0.03200086
#
# Stress axis : x y z
#
# Youngs Moduli (GPa) = 64.15673 124.89133 122.89319
#
# Poissons Ratio (x) = 0.10525 -0.29832
# Poissons Ratio (y) = 0.05407 0.17817
# Poissons Ratio (z) = -0.15574 0.18107
#
# Static dielectric constant tensor:
#      x y z
#    x 2.206100 0.000000 0.000000 
#    y 0.000000 2.138580 0.000000 
#    z 0.000000 0.000000 2.031480 
# 
# From -- ./inp_files/39133.got.cif
#   From: 2010.05.17/outbox.cif.g08.bks.cpg/sg68_20_cif.got.tgz:39133.got - 2010.06.03 18:57:09.
