data_PCOD9507324
_publ_section_title
;
Structure prediction by ZEFSAII (Michael W. Deem and Ramdas Pophale) SiO2 
 PCOD9507324
Probable space group: C C C A
;
_chemical_formula_sum "Si O2"
_cell_formula_units_Z 112
_cell_length_a 12.590236
_cell_length_b 15.114200
_cell_length_c 25.336520
_cell_angle_alpha 90.000000
_cell_angle_beta 90.000000
_cell_angle_gamma 90.000000
_cell_volume 4821.320467
_symmetry_space_group_name_H-M "C C C A"
_symmetry_group_IT_number 68
_space_group.IT_coordinate_system_code '2'
_symmetry_cell_setting 'orthorhombic'
loop_
_space_group_symop_operation_xyz
x,y,z
-x,1/2-y,z
x,1/2-y,1/2-z
-x,y,1/2-z
-x,-y,-z
x,1/2+y,-z
-x,1/2+y,1/2+z
x,-y,1/2+z
1/2+x,1/2+y,z
1/2-x,-y,z
1/2+x,-y,1/2-z
1/2-x,1/2+y,1/2-z
1/2-x,1/2-y,-z
1/2+x,y,-z
1/2-x,y,1/2+z
1/2+x,1/2-y,1/2+z
loop_
_atom_site_type_symbol
_atom_site_label
_atom_site_fract_x
_atom_site_fract_y
_atom_site_fract_z
Si Si1 0.562974 0.119360 0.953582
Si Si2 0.957893 0.374293 0.883208
Si Si3 0.131606 0.112823 0.166597
Si Si4 0.126711 0.985630 0.956851
Si Si5 0.282851 0.394579 0.192139
Si Si6 0.000000 0.750000 0.475005
Si Si7 0.124914 0.911600 0.197380
Si Si8 0.867218 0.750000 0.750000
O O1 0.601065 0.124664 0.894110
O O2 0.434397 0.107203 0.958828
O O3 0.587922 0.206874 0.987117
O O4 0.608218 0.037575 0.987874
O O5 0.937653 0.470421 0.908263
O O6 0.841043 0.355105 0.859369
O O7 0.013672 0.327053 0.932277
O O8 0.037297 0.361324 0.835326
O O9 0.259356 0.114188 0.174423
O O10 0.082918 0.185635 0.205770
O O11 0.102534 0.014678 0.185912
O O12 0.250000 0.000000 0.945759
O O13 0.250000 0.500000 0.185537
O O14 0.366393 0.398529 0.240534
O O15 0.197518 0.323824 0.214499
#
# Coordination Sequence:
#
# PCOD9507324 Si02
#       8
#    16  16  16  16  16   8  16   8
#     4  10  22  44  67  93 136 173 226 286 344 403
#     4  11  23  41  65  94 137 182 224 279 347 409
#     4  10  20  40  71  98 132 179 218 289 347 402
#     4  10  22  41  67  98 126 175 231 281 337 416
#     4  11  22  42  66 100 141 180 227 285 348 414
#     4  10  26  44  59 101 136 170 238 280 330 430
#     4  10  20  40  68  99 131 178 234 276 338 429
#     4  10  22  42  67 105 144 172 238 280 344 440
#
# _framework density 23.230150999999999
#
# number of rings (size 3 to 8) (size 9 to 14) (size 15 to 20)
#    0.000    1.714    4.286    0.857    6.000    0.000 
#    5.143    2.143    0.000    0.857    0.000    0.000 
#    0.000    0.000    0.000    0.000    0.000    0.000 
#
# Total GULP energy -311832.722364 kJ/mol
# GULP energy per Si atom -5568.441471 kJ/mol
# Density = 2.317728 g / cm^3
# Si number density = 23.230151 Si / 1000 Ang^3
#
#
#
# Elastic Constant Matrix: (Units=GPa)
#
#
# Indices 1 2 3 4 5 6 
#
# 1 41.9461 24.4243 20.1509 0.0000 0.0000 0.0000
# 2 24.4243 85.2632 25.9040 0.0000 0.0000 0.0000
# 3 20.1509 25.9040 159.9935 0.0000 0.0000 0.0000
# 4 0.0000 0.0000 0.0000 1.0469 0.0000 0.0000
# 5 0.0000 0.0000 0.0000 0.0000 23.7252 0.0000
# 6 0.0000 0.0000 0.0000 0.0000 0.0000 9.6601
#
#
#
# Elastic Compliance Matrix: (Units=1/GPa)
#
#
# Indices 1 2 3 4 5 6 
#
# 1 0.029512 -0.007704 -0.002470 0.000000 0.000000 0.000000
# 2 -0.007704 0.014346 -0.001352 0.000000 0.000000 0.000000
# 3 -0.002470 -0.001352 0.006780 0.000000 0.000000 0.000000
# 4 0.000000 0.000000 0.000000 0.955227 0.000000 0.000000
# 5 0.000000 0.000000 0.000000 0.000000 0.042149 0.000000
# 6 0.000000 0.000000 0.000000 0.000000 0.000000 0.103518
#
#
# Mechanical properties :
#
#
# Convention : Reuss Voigt Hill
#
# Bulk Modulus (GPa) = 36.24913 47.57346 41.91129
# Shear Modulus (GPa) = 4.22375 21.33468 12.77922
#
# Velocity S-wave (km/s) = 1.34988 3.03381 2.34799
# Velocity P-wave (km/s) = 4.25062 5.72675 5.04299
#
# Compressibility (1/GPa) = 0.02758687
#
# Stress axis : x y z
#
# Youngs Moduli (GPa) = 33.88421 69.70558 147.48636
#
# Poissons Ratio (x) = 0.53699 0.36425
# Poissons Ratio (y) = 0.26103 0.19947
# Poissons Ratio (z) = 0.08369 0.09427
#
# Static dielectric constant tensor:
#      x y z
#    x 2.123010 0.000000 0.000000 
#    y 0.000000 2.015530 0.000000 
#    z 0.000000 0.000000 1.892020 
# 
# From -- ./inp_files/51036.got.cif
#   From: 2010.05.17/outbox.cif.g08.bks.cpg/sg68_26_cif.got.tgz:51036.got - 2010.06.03 18:57:09.
