data_PCOD9507824
_publ_section_title
;
Structure prediction by ZEFSAII (Michael W. Deem and Ramdas Pophale) SiO2 
 PCOD9507824
Probable space group: C C C A
;
_chemical_formula_sum "Si O2"
_cell_formula_units_Z 112
_cell_length_a 15.500080
_cell_length_b 14.494579
_cell_length_c 23.327420
_cell_angle_alpha 90.000000
_cell_angle_beta 90.000000
_cell_angle_gamma 90.000000
_cell_volume 5240.904597
_symmetry_space_group_name_H-M "C C C A"
_symmetry_group_IT_number 68
_space_group.IT_coordinate_system_code '2'
_symmetry_cell_setting 'orthorhombic'
loop_
_space_group_symop_operation_xyz
x,y,z
-x,1/2-y,z
x,1/2-y,1/2-z
-x,y,1/2-z
-x,-y,-z
x,1/2+y,-z
-x,1/2+y,1/2+z
x,-y,1/2+z
1/2+x,1/2+y,z
1/2-x,-y,z
1/2+x,-y,1/2-z
1/2-x,1/2+y,1/2-z
1/2-x,1/2-y,-z
1/2+x,y,-z
1/2-x,y,1/2+z
1/2+x,1/2-y,1/2+z
loop_
_atom_site_type_symbol
_atom_site_label
_atom_site_fract_x
_atom_site_fract_y
_atom_site_fract_z
Si Si1 0.593833 0.533907 0.322200
Si Si2 0.701186 0.713424 0.306550
Si Si3 0.661918 0.949724 0.562336
Si Si4 0.500000 0.099678 0.250000
Si Si5 0.821564 0.241576 0.913753
Si Si6 0.056651 0.831996 0.642604
Si Si7 0.696904 0.919702 0.439205
Si Si8 0.000000 0.750000 0.149981
O O1 0.669983 0.607815 0.310759
O O2 0.603682 0.480345 0.383619
O O3 0.579644 0.466453 0.268385
O O4 0.507609 0.595060 0.329664
O O5 0.747525 0.750000 0.250000
O O6 0.761778 0.736259 0.359280
O O7 0.616867 0.778744 0.312225
O O8 0.671196 0.840248 0.556325
O O9 0.653906 0.971020 0.494541
O O10 0.750000 0.000000 0.578451
O O11 0.497464 0.164131 0.194171
O O12 0.769871 0.161099 0.946788
O O13 0.918055 0.227852 0.890332
O O14 0.119777 0.878315 0.597405
O O15 0.000000 0.750000 0.614589
O O16 0.750000 0.000000 0.407218
#
# Coordination Sequence:
#
# PCOD9507824 Si02
#       8
#    16  16  16   8  16  16  16   8
#     4  11  21  39  67  90 129 167 214 270 324 393
#     4  10  21  38  65  96 125 171 218 269 328 399
#     4  11  22  42  66  94 124 171 221 272 333 391
#     4  11  24  38  59  90 130 166 207 264 324 391
#     4  11  23  44  64  91 134 170 219 273 334 399
#     4   9  21  41  62  96 133 165 219 276 331 395
#     4  10  24  42  67  94 128 172 221 283 332 393
#     4  11  26  42  60  88 136 172 208 264 331 410
#
# _framework density 21.370356999999998
#
# number of rings (size 3 to 8) (size 9 to 14) (size 15 to 20)
#    0.000    1.571    2.857    1.286    4.000    2.571 
#    1.286    0.000    0.000    0.000    0.000    0.000 
#    0.000    0.000    0.000    0.000    0.000    0.000 
#
# Total GULP energy -311838.139410 kJ/mol
# GULP energy per Si atom -5568.538204 kJ/mol
# Density = 2.132172 g / cm^3
# Si number density = 21.370357 Si / 1000 Ang^3
#
#
#
# Elastic Constant Matrix: (Units=GPa)
#
#
# Indices 1 2 3 4 5 6 
#
# 1 52.9186 9.8757 13.9535 0.0000 0.0000 0.0000
# 2 9.8757 88.2406 14.4689 0.0000 0.0000 0.0000
# 3 13.9535 14.4689 73.8456 0.0000 0.0000 0.0000
# 4 0.0000 0.0000 0.0000 28.7784 0.0000 0.0000
# 5 0.0000 0.0000 0.0000 0.0000 39.1053 0.0000
# 6 0.0000 0.0000 0.0000 0.0000 0.0000 18.7604
#
#
#
# Elastic Compliance Matrix: (Units=1/GPa)
#
#
# Indices 1 2 3 4 5 6 
#
# 1 0.020127 -0.001683 -0.003473 0.000000 0.000000 0.000000
# 2 -0.001683 0.011850 -0.002004 0.000000 0.000000 0.000000
# 3 -0.003473 -0.002004 0.014591 0.000000 0.000000 0.000000
# 4 0.000000 0.000000 0.000000 0.034748 0.000000 0.000000
# 5 0.000000 0.000000 0.000000 0.000000 0.025572 0.000000
# 6 0.000000 0.000000 0.000000 0.000000 0.000000 0.053304
#
#
# Mechanical properties :
#
#
# Convention : Reuss Voigt Hill
#
# Bulk Modulus (GPa) = 31.01065 32.40011 31.70538
# Shear Modulus (GPa) = 26.98906 29.10926 28.04916
#
# Velocity S-wave (km/s) = 3.55761 3.69471 3.62681
# Velocity P-wave (km/s) = 5.60518 5.77887 5.69269
#
# Compressibility (1/GPa) = 0.03224698
#
# Stress axis : x y z
#
# Youngs Moduli (GPa) = 49.68476 84.39126 68.53689
#
# Poissons Ratio (x) = 0.14203 0.23805
# Poissons Ratio (y) = 0.08362 0.13733
# Poissons Ratio (z) = 0.17257 0.16910
#
# Static dielectric constant tensor:
#      x y z
#    x 1.779770 0.000000 0.000000 
#    y 0.000000 1.820940 0.000000 
#    z 0.000000 0.000000 1.872320 
# 
# From -- ./inp_files/51031.got.cif
#   From: 2010.05.17/outbox.cif.g08.bks.cpg/sg68_26_cif.got.tgz:51031.got - 2010.06.03 18:57:09.
