data_PCOD9507810
_publ_section_title
;
Structure prediction by ZEFSAII (Michael W. Deem and Ramdas Pophale) SiO2 
 PCOD9507810
Probable space group: C C C A
;
_chemical_formula_sum "Si O2"
_cell_formula_units_Z 116
_cell_length_a 17.273115
_cell_length_b 26.663142
_cell_length_c 11.056228
_cell_angle_alpha 90.000000
_cell_angle_beta 90.000000
_cell_angle_gamma 90.000000
_cell_volume 5092.006814
_symmetry_space_group_name_H-M "C C C A"
_symmetry_group_IT_number 68
_space_group.IT_coordinate_system_code '2'
_symmetry_cell_setting 'orthorhombic'
loop_
_space_group_symop_operation_xyz
x,y,z
-x,1/2-y,z
x,1/2-y,1/2-z
-x,y,1/2-z
-x,-y,-z
x,1/2+y,-z
-x,1/2+y,1/2+z
x,-y,1/2+z
1/2+x,1/2+y,z
1/2-x,-y,z
1/2+x,-y,1/2-z
1/2-x,1/2+y,1/2-z
1/2-x,1/2-y,-z
1/2+x,y,-z
1/2-x,y,1/2+z
1/2+x,1/2-y,1/2+z
loop_
_atom_site_type_symbol
_atom_site_label
_atom_site_fract_x
_atom_site_fract_y
_atom_site_fract_z
Si Si1 0.000000 0.250000 0.750000
Si Si2 0.755272 0.054154 0.884284
Si Si3 0.585985 0.417133 0.243791
Si Si4 0.339406 0.888558 0.280392
Si Si5 0.873799 0.241027 0.546372
Si Si6 0.086157 0.151136 0.519187
Si Si7 0.803023 0.865162 0.081023
Si Si8 0.552950 0.814889 0.361647
O O1 0.936557 0.230462 0.651986
O O2 0.839897 0.056650 0.821449
O O3 0.689210 0.059838 0.779695
O O4 0.750000 0.000000 0.946168
O O5 0.735580 0.099636 0.977006
O O6 0.500000 0.442341 0.250000
O O7 0.621261 0.394531 0.368020
O O8 0.572018 0.372810 0.148271
O O9 0.382532 0.884446 0.410025
O O10 0.257238 0.863035 0.308030
O O11 0.388823 0.857826 0.183143
O O12 0.858982 0.300575 0.546266
O O13 0.818056 0.192962 0.551633
O O14 0.906133 0.233889 0.411239
O O15 0.003530 0.167640 0.467704
O O16 0.500000 0.805151 0.250000
#
# Coordination Sequence:
#
# PCOD9507810 Si02
#       8
#     4  16  16  16  16  16  16  16
#     4  12  24  40  58 104 140 212 246 282 352 448
#     4  11  25  51  79 101 138 189 240 306 390 449
#     4  11  25  45  74 107 143 186 245 304 360 436
#     4  10  23  44  66 102 138 186 239 298 366 435
#     4  12  23  38  66  99 148 190 248 279 354 430
#     4  11  22  40  68 105 147 193 235 295 355 436
#     4  11  24  44  70 103 145 187 244 300 366 437
#     4  10  21  38  64  97 140 190 239 286 347 425
#
# _framework density 22.780801
#
# number of rings (size 3 to 8) (size 9 to 14) (size 15 to 20)
#    0.000    1.103    4.138    1.655    1.931    6.621 
#    0.000    5.517    0.000    0.000    0.000    0.000 
#    0.000    0.000    0.000    0.000    0.000    0.000 
#
# Total GULP energy -322929.494674 kJ/mol
# GULP energy per Si atom -5567.749908 kJ/mol
# Density = 2.272895 g / cm^3
# Si number density = 22.780801 Si / 1000 Ang^3
#
#
#
# Elastic Constant Matrix: (Units=GPa)
#
#
# Indices 1 2 3 4 5 6 
#
# 1 100.4394 29.1347 26.1958 0.0000 0.0000 0.0000
# 2 29.1347 84.3994 31.5770 0.0000 0.0000 0.0000
# 3 26.1958 31.5770 93.3596 0.0000 0.0000 0.0000
# 4 0.0000 0.0000 0.0000 4.8605 0.0000 0.0000
# 5 0.0000 0.0000 0.0000 0.0000 47.2561 0.0000
# 6 0.0000 0.0000 0.0000 0.0000 0.0000 9.9608
#
#
#
# Elastic Compliance Matrix: (Units=1/GPa)
#
#
# Indices 1 2 3 4 5 6 
#
# 1 0.011427 -0.003143 -0.002143 0.000000 0.000000 0.000000
# 2 -0.003143 0.014429 -0.003999 0.000000 0.000000 0.000000
# 3 -0.002143 -0.003999 0.012665 0.000000 0.000000 0.000000
# 4 0.000000 0.000000 0.000000 0.205739 0.000000 0.000000
# 5 0.000000 0.000000 0.000000 0.000000 0.021161 0.000000
# 6 0.000000 0.000000 0.000000 0.000000 0.000000 0.100393
#
#
# Mechanical properties :
#
#
# Convention : Reuss Voigt Hill
#
# Bulk Modulus (GPa) = 50.12009 50.22370 50.17189
# Shear Modulus (GPa) = 12.78658 25.16821 18.97740
#
# Velocity S-wave (km/s) = 2.37172 3.32746 2.88938
# Velocity P-wave (km/s) = 5.43589 6.07100 5.76220
#
# Compressibility (1/GPa) = 0.01995208
#
# Stress axis : x y z
#
# Youngs Moduli (GPa) = 87.51320 69.30341 78.95700
#
# Poissons Ratio (x) = 0.21780 0.16923
# Poissons Ratio (y) = 0.27502 0.31572
# Poissons Ratio (z) = 0.18757 0.27712
#
# Static dielectric constant tensor:
#      x y z
#    x 1.968210 0.000000 0.000000 
#    y 0.000000 1.883830 0.000000 
#    z 0.000000 0.000000 1.866110 
# 
# From -- ./inp_files/14844.got.cif
#   From: 2010.05.17/outbox.cif.g08.bks.cpg/sg68_8_cif.got.tgz:14844.got - 2010.06.03 18:57:09.
