data_PCOD9507776
_publ_section_title
;
Structure prediction by ZEFSAII (Michael W. Deem and Ramdas Pophale) SiO2 
 PCOD9507776
Probable space group: C C C A
;
_chemical_formula_sum "Si O2"
_cell_formula_units_Z 48
_cell_length_a 4.794645
_cell_length_b 16.814966
_cell_length_c 24.779249
_cell_angle_alpha 90.000000
_cell_angle_beta 90.000000
_cell_angle_gamma 90.000000
_cell_volume 1997.747475
_symmetry_space_group_name_H-M "C C C A"
_symmetry_group_IT_number 68
_space_group.IT_coordinate_system_code '2'
_symmetry_cell_setting 'orthorhombic'
loop_
_space_group_symop_operation_xyz
x,y,z
-x,1/2-y,z
x,1/2-y,1/2-z
-x,y,1/2-z
-x,-y,-z
x,1/2+y,-z
-x,1/2+y,1/2+z
x,-y,1/2+z
1/2+x,1/2+y,z
1/2-x,-y,z
1/2+x,-y,1/2-z
1/2-x,1/2+y,1/2-z
1/2-x,1/2-y,-z
1/2+x,y,-z
1/2-x,y,1/2+z
1/2+x,1/2-y,1/2+z
loop_
_atom_site_type_symbol
_atom_site_label
_atom_site_fract_x
_atom_site_fract_y
_atom_site_fract_z
Si Si1 0.387904 0.339936 0.693779
Si Si2 0.068840 0.338701 0.538018
Si Si3 0.144511 0.412320 0.859119
O O1 0.500000 0.250000 0.697551
O O2 0.500000 0.377672 0.750000
O O3 0.563098 0.367700 0.642554
O O4 0.071707 0.366965 0.681570
O O5 0.377760 0.344611 0.515241
O O6 0.000000 0.250000 0.561178
O O7 0.990733 0.403726 0.582332
O O8 0.250000 0.500000 0.843915
#
# Coordination Sequence:
#
# PCOD9507776 Si02
#       3
#    16  16  16
#     4  11  24  44  69  94 126 174 229 278 329 403
#     4  10  21  38  62  91 126 172 222 270 325 398
#     4  12  25  41  65  99 136 171 214 278 348 406
#
# _framework density 24.027059999999999
#
# number of rings (size 3 to 8) (size 9 to 14) (size 15 to 20)
#    0.000    1.000    0.000    7.000    0.000    9.333 
#    0.000    0.000    0.000    0.000    0.000    0.000 
#    0.000    0.000    0.000    0.000    0.000    0.000 
#
# Total GULP energy -133855.089962 kJ/mol
# GULP energy per Si atom -5577.295415 kJ/mol
# Density = 2.397237 g / cm^3
# Si number density = 24.027060 Si / 1000 Ang^3
#
#
#
# Elastic Constant Matrix: (Units=GPa)
#
#
# Indices 1 2 3 4 5 6 
#
# 1 120.7645 28.7165 17.9488 0.0000 0.0000 0.0000
# 2 28.7165 103.0722 17.7864 0.0000 0.0000 0.0000
# 3 17.9488 17.7864 73.5597 0.0000 0.0000 0.0000
# 4 0.0000 0.0000 0.0000 28.4061 0.0000 0.0000
# 5 0.0000 0.0000 0.0000 0.0000 20.9033 0.0000
# 6 0.0000 0.0000 0.0000 0.0000 0.0000 28.4454
#
#
#
# Elastic Compliance Matrix: (Units=1/GPa)
#
#
# Indices 1 2 3 4 5 6 
#
# 1 0.009061 -0.002236 -0.001670 0.000000 0.000000 0.000000
# 2 -0.002236 0.010676 -0.002036 0.000000 0.000000 0.000000
# 3 -0.001670 -0.002036 0.014494 0.000000 0.000000 0.000000
# 4 0.000000 0.000000 0.000000 0.035204 0.000000 0.000000
# 5 0.000000 0.000000 0.000000 0.000000 0.047839 0.000000
# 6 0.000000 0.000000 0.000000 0.000000 0.000000 0.035155
#
#
# Mechanical properties :
#
#
# Convention : Reuss Voigt Hill
#
# Bulk Modulus (GPa) = 44.74918 47.36665 46.05791
# Shear Modulus (GPa) = 29.11000 31.08059 30.09530
#
# Velocity S-wave (km/s) = 3.48451 3.60052 3.54299
# Velocity P-wave (km/s) = 5.90373 6.08619 5.99565
#
# Compressibility (1/GPa) = 0.02234678
#
# Stress axis : x y z
#
# Youngs Moduli (GPa) = 110.36884 93.66592 68.99327
#
# Poissons Ratio (x) = 0.20945 0.11523
# Poissons Ratio (y) = 0.24680 0.14046
# Poissons Ratio (z) = 0.18433 0.19069
#
# Static dielectric constant tensor:
#      x y z
#    x 1.598790 0.000000 0.000000 
#    y 0.000000 1.647260 0.000000 
#    z 0.000000 0.000000 1.939940 
# 
# From -- ./inp_files/41882.got.cif
#   From: 2010.05.17/outbox.cif.g08.bks.cpg/sg68_21_cif.got.tgz:41882.got - 2010.06.03 18:57:09.
