data_PCOD9507967
_publ_section_title
;
Structure prediction by ZEFSAII (Michael W. Deem and Ramdas Pophale) SiO2 
 PCOD9507967
Probable space group: C C C A
;
_chemical_formula_sum "Si O2"
_cell_formula_units_Z 52
_cell_length_a 7.747493
_cell_length_b 16.646105
_cell_length_c 17.113428
_cell_angle_alpha 90.000000
_cell_angle_beta 90.000000
_cell_angle_gamma 90.000000
_cell_volume 2207.043201
_symmetry_space_group_name_H-M "C C C A"
_symmetry_group_IT_number 68
_space_group.IT_coordinate_system_code '2'
_symmetry_cell_setting 'orthorhombic'
loop_
_space_group_symop_operation_xyz
x,y,z
-x,1/2-y,z
x,1/2-y,1/2-z
-x,y,1/2-z
-x,-y,-z
x,1/2+y,-z
-x,1/2+y,1/2+z
x,-y,1/2+z
1/2+x,1/2+y,z
1/2-x,-y,z
1/2+x,-y,1/2-z
1/2-x,1/2+y,1/2-z
1/2-x,1/2-y,-z
1/2+x,y,-z
1/2-x,y,1/2+z
1/2+x,1/2-y,1/2+z
loop_
_atom_site_type_symbol
_atom_site_label
_atom_site_fract_x
_atom_site_fract_y
_atom_site_fract_z
Si Si1 0.943698 0.465463 0.669381
Si Si2 0.496943 0.867226 0.379447
Si Si3 0.500000 0.250000 0.750000
Si Si4 0.824998 0.908262 0.038567
O O1 0.750000 0.500000 0.668425
O O2 0.000000 0.424917 0.750000
O O3 0.047845 0.549222 0.663258
O O4 0.007902 0.416422 0.594528
O O5 0.580147 0.810573 0.313837
O O6 0.312415 0.849344 0.419942
O O7 0.619412 0.880477 0.453182
O O8 0.750000 0.000000 0.030265
#
# Coordination Sequence:
#
# PCOD9507967 Si02
#       4
#    16  16   4  16
#     4  11  20  35  66 103 128 155 201 272 331 372
#     4  11  22  42  61  94 126 172 207 258 314 382
#     4  12  28  40  64  82 134 180 218 250 304 376
#     4  10  21  39  67  96 123 157 209 269 327 369
#
# _framework density 23.560936999999999
#
# number of rings (size 3 to 8) (size 9 to 14) (size 15 to 20)
#    0.000    1.231    1.538    9.231    0.000    1.231 
#    0.000    0.000    0.000    3.692    0.000    0.000 
#    0.000    0.000    0.000    0.000    0.000    0.000 
#
# Total GULP energy -144905.838801 kJ/mol
# GULP energy per Si atom -5573.301492 kJ/mol
# Density = 2.350731 g / cm^3
# Si number density = 23.560937 Si / 1000 Ang^3
#
#
#
# Elastic Constant Matrix: (Units=GPa)
#
#
# Indices 1 2 3 4 5 6 
#
# 1 131.6993 -3.6153 67.1069 0.0000 0.0000 0.0000
# 2 -3.6153 37.2575 40.0274 0.0000 0.0000 0.0000
# 3 67.1069 40.0274 235.2367 0.0000 0.0000 0.0000
# 4 0.0000 0.0000 0.0000 52.6352 0.0000 0.0000
# 5 0.0000 0.0000 0.0000 0.0000 27.9503 0.0000
# 6 0.0000 0.0000 0.0000 0.0000 0.0000 -2.8990
#
#
#
# Elastic Compliance Matrix: (Units=1/GPa)
#
#
# Indices 1 2 3 4 5 6 
#
# 1 0.009512 0.004697 -0.003513 0.000000 0.000000 0.000000
# 2 0.004697 0.035164 -0.007323 0.000000 0.000000 0.000000
# 3 -0.003513 -0.007323 0.006499 0.000000 0.000000 0.000000
# 4 0.000000 0.000000 0.000000 0.018999 0.000000 0.000000
# 5 0.000000 0.000000 0.000000 0.000000 0.035778 0.000000
# 6 0.000000 0.000000 0.000000 0.000000 0.000000 -0.344949
#
#
# Mechanical properties :
#
#
# Convention : Reuss Voigt Hill
#
# Bulk Modulus (GPa) = 25.70925 67.91462 46.81194
# Shear Modulus (GPa) = -23.39139 35.58226 6.09543
#
# Velocity S-wave (km/s) = -3.15430 3.89037 1.61019
# Velocity P-wave (km/s) = 1.52664 7.00483 4.83410
#
# Compressibility (1/GPa) = 0.03889650
#
# Stress axis : x y z
#
# Youngs Moduli (GPa) = 105.13176 28.43845 153.86434
#
# Poissons Ratio (x) = -0.13357 0.54048
# Poissons Ratio (y) = -0.49379 1.12679
# Poissons Ratio (z) = 0.36930 0.20826
#
# Static dielectric constant tensor:
#      x y z
#    x 2.015430 0.000000 0.000000 
#    y 0.000000 1.982570 0.000000 
#    z 0.000000 0.000000 1.910270 
# 
# From -- ./inp_files/18955.got.cif
#   From: 2010.05.17/outbox.cif.g08.bks.cpg/sg68_10_cif.got.tgz:18955.got - 2010.06.03 18:57:09.
