data_PCOD9507247
_publ_section_title
;
Structure prediction by ZEFSAII (Michael W. Deem and Ramdas Pophale) SiO2 
 PCOD9507247
Probable space group: C C C A
;
_chemical_formula_sum "Si O2"
_cell_formula_units_Z 64
_cell_length_a 19.106358
_cell_length_b 15.583043
_cell_length_c 9.299956
_cell_angle_alpha 90.000000
_cell_angle_beta 90.000000
_cell_angle_gamma 90.000000
_cell_volume 2768.924244
_symmetry_space_group_name_H-M "C C C A"
_symmetry_group_IT_number 68
_space_group.IT_coordinate_system_code '2'
_symmetry_cell_setting 'orthorhombic'
loop_
_space_group_symop_operation_xyz
x,y,z
-x,1/2-y,z
x,1/2-y,1/2-z
-x,y,1/2-z
-x,-y,-z
x,1/2+y,-z
-x,1/2+y,1/2+z
x,-y,1/2+z
1/2+x,1/2+y,z
1/2-x,-y,z
1/2+x,-y,1/2-z
1/2-x,1/2+y,1/2-z
1/2-x,1/2-y,-z
1/2+x,y,-z
1/2-x,y,1/2+z
1/2+x,1/2-y,1/2+z
loop_
_atom_site_type_symbol
_atom_site_label
_atom_site_fract_x
_atom_site_fract_y
_atom_site_fract_z
Si Si1 0.360274 0.274518 0.095364
Si Si2 0.591266 0.047101 0.662555
Si Si3 0.459678 0.103263 0.528777
Si Si4 0.213899 0.669428 0.636806
O O1 0.389487 0.250000 0.250000
O O2 0.297060 0.342507 0.124430
O O3 0.420509 0.308093 0.992294
O O4 0.316735 0.200845 0.015627
O O5 0.542570 0.105700 0.555661
O O6 0.566702 0.058667 0.825597
O O7 0.669523 0.084209 0.666851
O O8 0.569132 0.954332 0.602547
O O9 0.202551 0.750000 0.750000
#
# Coordination Sequence:
#
# PCOD9507247 Si02
#       4
#    16  16  16  16
#     4  10  22  38  61  91 124 155 200 254 303 362
#     4  10  22  40  63  84 122 160 202 253 299 365
#     4  10  22  41  60  89 120 160 204 249 305 356
#     4  10  20  40  61  87 122 159 200 251 304 361
#
# _framework density 23.113671
#
# number of rings (size 3 to 8) (size 9 to 14) (size 15 to 20)
#    0.000    2.000    2.500    0.000    3.500    2.000 
#    0.000    3.750    0.000    0.000    0.000    0.000 
#    0.000    0.000    0.000    0.000    0.000    0.000 
#
# Total GULP energy -178431.413755 kJ/mol
# GULP energy per Si atom -5575.981680 kJ/mol
# Density = 2.306106 g / cm^3
# Si number density = 23.113671 Si / 1000 Ang^3
#
#
#
# Elastic Constant Matrix: (Units=GPa)
#
#
# Indices 1 2 3 4 5 6 
#
# 1 87.9974 9.0531 -18.5493 0.0000 0.0000 0.0000
# 2 9.0531 31.7976 -1.9715 0.0000 0.0000 0.0000
# 3 -18.5493 -1.9715 95.5950 0.0000 0.0000 0.0000
# 4 0.0000 0.0000 0.0000 26.4723 0.0000 0.0000
# 5 0.0000 0.0000 0.0000 0.0000 17.9440 0.0000
# 6 0.0000 0.0000 0.0000 0.0000 0.0000 30.1471
#
#
#
# Elastic Compliance Matrix: (Units=1/GPa)
#
#
# Indices 1 2 3 4 5 6 
#
# 1 0.012191 -0.003328 0.002297 0.000000 0.000000 0.000000
# 2 -0.003328 0.032398 0.000022 0.000000 0.000000 0.000000
# 3 0.002297 0.000022 0.010907 0.000000 0.000000 0.000000
# 4 0.000000 0.000000 0.000000 0.037775 0.000000 0.000000
# 5 0.000000 0.000000 0.000000 0.000000 0.055729 0.000000
# 6 0.000000 0.000000 0.000000 0.000000 0.000000 0.033171
#
#
# Mechanical properties :
#
#
# Convention : Reuss Voigt Hill
#
# Bulk Modulus (GPa) = 18.69968 21.38387 20.04177
# Shear Modulus (GPa) = 24.75071 30.03653 27.39362
#
# Velocity S-wave (km/s) = 3.27590 3.60879 3.44636
# Velocity P-wave (km/s) = 4.73461 5.16102 4.95241
#
# Compressibility (1/GPa) = 0.05347686
#
# Stress axis : x y z
#
# Youngs Moduli (GPa) = 82.03082 30.86621 91.68485
#
# Poissons Ratio (x) = 0.10273 -0.21058
# Poissons Ratio (y) = 0.27303 -0.00205
# Poissons Ratio (z) = -0.18841 -0.00069
#
# Static dielectric constant tensor:
#      x y z
#    x 1.936150 0.000000 0.000000 
#    y 0.000000 1.948190 0.000000 
#    z 0.000000 0.000000 1.851890 
# 
# From -- ./inp_files/4977.got.cif
#   From: 2010.05.17/outbox.cif.g08.bks.cpg/sg68_3_cif.got.tgz:4977.got - 2010.06.03 18:57:09.
