data_PCOD9507738
_publ_section_title
;
Structure prediction by ZEFSAII (Michael W. Deem and Ramdas Pophale) SiO2 
 PCOD9507738
Probable space group: C C C A
;
_chemical_formula_sum "Si O2"
_cell_formula_units_Z 88
_cell_length_a 26.189637
_cell_length_b 19.609800
_cell_length_c 8.870679
_cell_angle_alpha 90.000000
_cell_angle_beta 90.000000
_cell_angle_gamma 90.000000
_cell_volume 4555.746049
_symmetry_space_group_name_H-M "C C C A"
_symmetry_group_IT_number 68
_space_group.IT_coordinate_system_code '2'
_symmetry_cell_setting 'orthorhombic'
loop_
_space_group_symop_operation_xyz
x,y,z
-x,1/2-y,z
x,1/2-y,1/2-z
-x,y,1/2-z
-x,-y,-z
x,1/2+y,-z
-x,1/2+y,1/2+z
x,-y,1/2+z
1/2+x,1/2+y,z
1/2-x,-y,z
1/2+x,-y,1/2-z
1/2-x,1/2+y,1/2-z
1/2-x,1/2-y,-z
1/2+x,y,-z
1/2-x,y,1/2+z
1/2+x,1/2-y,1/2+z
loop_
_atom_site_type_symbol
_atom_site_label
_atom_site_fract_x
_atom_site_fract_y
_atom_site_fract_z
Si Si1 0.355050 0.750000 0.750000
Si Si2 0.305740 0.115384 0.800358
Si Si3 0.698422 0.859010 0.542645
Si Si4 0.139104 0.026711 0.789619
Si Si5 0.534317 0.454261 0.890966
Si Si6 0.388314 0.865966 0.541217
O O1 0.320719 0.707045 0.633368
O O2 0.388009 0.803177 0.654304
O O3 0.300031 0.148992 0.636579
O O4 0.253542 0.120850 0.892553
O O5 0.322549 0.036719 0.776363
O O6 0.350622 0.147336 0.901695
O O7 0.659755 0.920174 0.586722
O O8 0.134566 0.069814 0.635612
O O9 0.083686 0.996876 0.833131
O O10 0.500000 0.433804 0.750000
O O11 0.500000 0.500000 0.000000
O O12 0.557569 0.390332 0.979633
#
# Coordination Sequence:
#
# PCOD9507738 Si02
#       6
#     8  16  16  16  16  16
#     4  10  24  44  60  85 124 168 217 240 306 368
#     4  11  22  36  60  92 122 161 207 256 308 359
#     4  11  23  37  60  86 128 168 203 254 298 375
#     4  10  21  38  59  95 126 156 199 256 324 361
#     4  11  21  37  66  99 122 153 199 261 323 377
#     4  10  22  40  62  91 124 165 207 256 306 377
#
# _framework density 19.316265999999999
#
# number of rings (size 3 to 8) (size 9 to 14) (size 15 to 20)
#    0.000    1.455    1.818    4.909    2.545    5.091 
#    0.000    0.000    0.000    8.727    9.455    0.000 
#    0.000    0.000    0.000    0.000    0.000    0.000 
#
# Total GULP energy -245974.485577 kJ/mol
# GULP energy per Si atom -5590.329218 kJ/mol
# Density = 1.927230 g / cm^3
# Si number density = 19.316266 Si / 1000 Ang^3
#
#
#
# Elastic Constant Matrix: (Units=GPa)
#
#
# Indices 1 2 3 4 5 6 
#
# 1 120.2929 48.2358 59.4959 0.0000 0.0000 0.0000
# 2 48.2358 101.5077 53.9889 0.0000 0.0000 0.0000
# 3 59.4959 53.9889 163.3784 0.0000 0.0000 0.0000
# 4 0.0000 0.0000 0.0000 23.2813 0.0000 0.0000
# 5 0.0000 0.0000 0.0000 0.0000 36.1192 0.0000
# 6 0.0000 0.0000 0.0000 0.0000 0.0000 6.1297
#
#
#
# Elastic Compliance Matrix: (Units=1/GPa)
#
#
# Indices 1 2 3 4 5 6 
#
# 1 0.011253 -0.003843 -0.002828 0.000000 0.000000 0.000000
# 2 -0.003843 0.013265 -0.002984 0.000000 0.000000 0.000000
# 3 -0.002828 -0.002984 0.008137 0.000000 0.000000 0.000000
# 4 0.000000 0.000000 0.000000 0.042953 0.000000 0.000000
# 5 0.000000 0.000000 0.000000 0.000000 0.027686 0.000000
# 6 0.000000 0.000000 0.000000 0.000000 0.000000 0.163140
#
#
# Mechanical properties :
#
#
# Convention : Reuss Voigt Hill
#
# Bulk Modulus (GPa) = 74.93808 78.73559 76.83684
# Shear Modulus (GPa) = 17.23002 28.00326 22.61664
#
# Velocity S-wave (km/s) = 2.98987 3.81166 3.42549
# Velocity P-wave (km/s) = 7.12732 7.76024 7.45050
#
# Compressibility (1/GPa) = 0.01334435
#
# Stress axis : x y z
#
# Youngs Moduli (GPa) = 88.86744 75.38783 122.90218
#
# Poissons Ratio (x) = 0.28973 0.34754
# Poissons Ratio (y) = 0.34153 0.36672
# Poissons Ratio (z) = 0.25130 0.22494
#
# Static dielectric constant tensor:
#      x y z
#    x 1.644220 0.000000 0.000000 
#    y 0.000000 1.675740 0.000000 
#    z 0.000000 0.000000 1.693950 
# 
# From -- ./inp_files/7991.got.cif
#   From: 2010.05.17/outbox.cif.g08.bks.cpg/sg68_4_cif.got.tgz:7991.got - 2010.06.03 18:57:09.
