data_PCOD9507373
_publ_section_title
;
Structure prediction by ZEFSAII (Michael W. Deem and Ramdas Pophale) SiO2 
 PCOD9507373
Probable space group: C C C A
;
_chemical_formula_sum "Si O2"
_cell_formula_units_Z 64
_cell_length_a 14.662346
_cell_length_b 14.580773
_cell_length_c 12.028800
_cell_angle_alpha 90.000000
_cell_angle_beta 90.000000
_cell_angle_gamma 90.000000
_cell_volume 2571.617168
_symmetry_space_group_name_H-M "C C C A"
_symmetry_group_IT_number 68
_space_group.IT_coordinate_system_code '2'
_symmetry_cell_setting 'orthorhombic'
loop_
_space_group_symop_operation_xyz
x,y,z
-x,1/2-y,z
x,1/2-y,1/2-z
-x,y,1/2-z
-x,-y,-z
x,1/2+y,-z
-x,1/2+y,1/2+z
x,-y,1/2+z
1/2+x,1/2+y,z
1/2-x,-y,z
1/2+x,-y,1/2-z
1/2-x,1/2+y,1/2-z
1/2-x,1/2-y,-z
1/2+x,y,-z
1/2-x,y,1/2+z
1/2+x,1/2-y,1/2+z
loop_
_atom_site_type_symbol
_atom_site_label
_atom_site_fract_x
_atom_site_fract_y
_atom_site_fract_z
Si Si1 0.382601 0.584744 0.628930
Si Si2 0.702667 0.250000 0.250000
Si Si3 0.531870 0.855303 0.022148
Si Si4 0.240289 0.853218 0.042682
Si Si5 0.500000 0.546804 0.250000
O O1 0.361439 0.683836 0.679561
O O2 0.478807 0.587614 0.569332
O O3 0.308900 0.582674 0.527542
O O4 0.406037 0.512176 0.726495
O O5 0.753812 0.327738 0.174045
O O6 0.500000 0.750000 0.011289
O O7 0.499551 0.888942 0.142151
O O8 0.637320 0.873863 0.995357
O O9 0.250000 0.750000 0.000000
#
# Coordination Sequence:
#
# PCOD9507373 Si02
#       5
#    16   8  16  16   8
#     4  11  25  47  74 108 151 199 265 326 397 490
#     4  10  20  41  78 109 142 206 260 317 400 473
#     4  12  24  47  74 107 155 205 272 329 396 501
#     4  10  22  41  73 112 142 195 267 319 388 481
#     4  12  29  43  70 110 156 210 250 335 417 440
#
# _framework density 24.887060999999999
#
# number of rings (size 3 to 8) (size 9 to 14) (size 15 to 20)
#    0.000    1.000    5.000    2.625    0.000    6.000 
#    0.000    2.500    0.000    0.000    0.000    0.000 
#    0.000    0.000    0.000    0.000    0.000    0.000 
#
# Total GULP energy -178330.798569 kJ/mol
# GULP energy per Si atom -5572.837455 kJ/mol
# Density = 2.483042 g / cm^3
# Si number density = 24.887061 Si / 1000 Ang^3
#
#
#
# Elastic Constant Matrix: (Units=GPa)
#
#
# Indices 1 2 3 4 5 6 
#
# 1 163.0779 27.1071 37.6258 0.0000 0.0000 0.0000
# 2 27.1071 95.3634 21.4423 0.0000 0.0000 0.0000
# 3 37.6258 21.4423 128.6960 0.0000 0.0000 0.0000
# 4 0.0000 0.0000 0.0000 44.1094 0.0000 0.0000
# 5 0.0000 0.0000 0.0000 0.0000 -42.2103 0.0000
# 6 0.0000 0.0000 0.0000 0.0000 0.0000 1.9876
#
#
#
# Elastic Compliance Matrix: (Units=1/GPa)
#
#
# Indices 1 2 3 4 5 6 
#
# 1 0.006787 -0.001541 -0.001727 0.000000 0.000000 0.000000
# 2 -0.001541 0.011244 -0.001423 0.000000 0.000000 0.000000
# 3 -0.001727 -0.001423 0.008512 0.000000 0.000000 0.000000
# 4 0.000000 0.000000 0.000000 0.022671 0.000000 0.000000
# 5 0.000000 0.000000 0.000000 0.000000 -0.023691 0.000000
# 6 0.000000 0.000000 0.000000 0.000000 0.000000 0.503120
#
#
# Mechanical properties :
#
#
# Convention : Reuss Voigt Hill
#
# Bulk Modulus (GPa) = 58.27195 62.16528 60.21862
# Shear Modulus (GPa) = 9.19547 20.84149 15.01848
#
# Velocity S-wave (km/s) = 1.92429 2.89700 2.45922
# Velocity P-wave (km/s) = 5.32941 6.01858 5.68445
#
# Compressibility (1/GPa) = 0.01716091
#
# Stress axis : x y z
#
# Youngs Moduli (GPa) = 147.34686 88.93555 117.47595
#
# Poissons Ratio (x) = 0.13702 0.20294
# Poissons Ratio (y) = 0.22702 0.16716
# Poissons Ratio (z) = 0.25454 0.12655
#
# Static dielectric constant tensor:
#      x y z
#    x 1.955910 0.000000 0.000000 
#    y 0.000000 2.005000 0.000000 
#    z 0.000000 0.000000 3.005700 
# 
# From -- ./inp_files/12857.got.cif
#   From: 2010.05.17/outbox.cif.g08.bks.cpg/sg68_7_cif.got.tgz:12857.got - 2010.06.03 18:57:09.
