data_PCOD9507155
_publ_section_title
;
Structure prediction by ZEFSAII (Michael W. Deem and Ramdas Pophale) SiO2 
 PCOD9507155
Probable space group: C C C A
;
_chemical_formula_sum "Si O2"
_cell_formula_units_Z 80
_cell_length_a 10.815096
_cell_length_b 13.463648
_cell_length_c 24.944866
_cell_angle_alpha 90.000000
_cell_angle_beta 90.000000
_cell_angle_gamma 90.000000
_cell_volume 3632.238043
_symmetry_space_group_name_H-M "C C C A"
_symmetry_group_IT_number 68
_space_group.IT_coordinate_system_code '2'
_symmetry_cell_setting 'orthorhombic'
loop_
_space_group_symop_operation_xyz
x,y,z
-x,1/2-y,z
x,1/2-y,1/2-z
-x,y,1/2-z
-x,-y,-z
x,1/2+y,-z
-x,1/2+y,1/2+z
x,-y,1/2+z
1/2+x,1/2+y,z
1/2-x,-y,z
1/2+x,-y,1/2-z
1/2-x,1/2+y,1/2-z
1/2-x,1/2-y,-z
1/2+x,y,-z
1/2-x,y,1/2+z
1/2+x,1/2-y,1/2+z
loop_
_atom_site_type_symbol
_atom_site_label
_atom_site_fract_x
_atom_site_fract_y
_atom_site_fract_z
Si Si1 0.682032 0.105698 0.104777
Si Si2 0.613901 0.389874 0.281378
Si Si3 0.636449 0.704604 0.123081
Si Si4 0.136828 0.113094 0.236289
Si Si5 0.625096 0.315211 0.506092
O O1 0.589737 0.107541 0.155329
O O2 0.772110 0.201262 0.113350
O O3 0.625303 0.113839 0.045503
O O4 0.750000 0.000000 0.109785
O O5 0.500000 0.345749 0.250000
O O6 0.750407 0.345993 0.271925
O O7 0.627522 0.498288 0.254098
O O8 0.500000 0.750000 0.131261
O O9 0.665594 0.637076 0.174477
O O10 0.631962 0.644316 0.066808
O O11 0.000000 0.150471 0.250000
O O12 0.500000 0.250000 0.503543
O O13 0.750000 0.250000 0.500000
#
# Coordination Sequence:
#
# PCOD9507155 Si02
#       5
#    16  16  16  16  16
#     4  11  22  42  64  93 133 172 207 269 334 380
#     4  10  22  38  58  90 134 160 209 257 319 379
#     4  10  22  39  67  91 120 166 220 259 310 382
#     4  10  20  39  61  89 125 163 210 263 306 372
#     4   9  21  43  65  91 124 165 216 265 318 389
#
# _framework density 22.024988
#
# number of rings (size 3 to 8) (size 9 to 14) (size 15 to 20)
#    0.000    2.000    2.000    1.200    2.800    6.000 
#    3.600   10.000    0.000    0.000    0.000    0.000 
#    0.000    0.000    0.000    0.000    0.000    0.000 
#
# Total GULP energy -222967.518258 kJ/mol
# GULP energy per Si atom -5574.187956 kJ/mol
# Density = 2.197486 g / cm^3
# Si number density = 22.024988 Si / 1000 Ang^3
#
#
#
# Elastic Constant Matrix: (Units=GPa)
#
#
# Indices 1 2 3 4 5 6 
#
# 1 104.0867 -9.9018 12.8804 0.0000 0.0000 0.0000
# 2 -9.9018 91.3394 31.2286 0.0000 0.0000 0.0000
# 3 12.8804 31.2286 236.8636 0.0000 0.0000 0.0000
# 4 0.0000 0.0000 0.0000 32.6658 0.0000 0.0000
# 5 0.0000 0.0000 0.0000 0.0000 39.6311 0.0000
# 6 0.0000 0.0000 0.0000 0.0000 0.0000 -25.9810
#
#
#
# Elastic Compliance Matrix: (Units=1/GPa)
#
#
# Indices 1 2 3 4 5 6 
#
# 1 0.009819 0.001306 -0.000706 0.000000 0.000000 0.000000
# 2 0.001306 0.011639 -0.001605 0.000000 0.000000 0.000000
# 3 -0.000706 -0.001605 0.004472 0.000000 0.000000 0.000000
# 4 0.000000 0.000000 0.000000 0.030613 0.000000 0.000000
# 5 0.000000 0.000000 0.000000 0.000000 0.025233 0.000000
# 6 0.000000 0.000000 0.000000 0.000000 0.000000 -0.038490
#
#
# Mechanical properties :
#
#
# Convention : Reuss Voigt Hill
#
# Bulk Modulus (GPa) = 41.80936 55.63378 48.72157
# Shear Modulus (GPa) = 93.86167 35.80200 64.83183
#
# Velocity S-wave (km/s) = 6.53517 4.03614 5.43134
# Velocity P-wave (km/s) = 8.71600 6.85820 7.84230
#
# Compressibility (1/GPa) = 0.02391809
#
# Stress axis : x y z
#
# Youngs Moduli (GPa) = 101.84355 85.92058 223.61823
#
# Poissons Ratio (x) = -0.11220 0.15790
# Poissons Ratio (y) = -0.13299 0.35901
# Poissons Ratio (z) = 0.07191 0.13794
#
# Static dielectric constant tensor:
#      x y z
#    x 1.830690 0.000000 0.000000 
#    y 0.000000 1.664670 0.000000 
#    z 0.000000 0.000000 1.846860 
# 
# From -- ./inp_files/44118.got.cif
#   From: 2010.05.17/outbox.cif.g08.bks.cpg/sg68_23_cif.got.tgz:44118.got - 2010.06.03 18:57:09.
