data_PCOD9507975
_publ_section_title
;
Structure prediction by ZEFSAII (Michael W. Deem and Ramdas Pophale) SiO2 
 PCOD9507975
Probable space group: C C C A
;
_chemical_formula_sum "Si O2"
_cell_formula_units_Z 64
_cell_length_a 16.602650
_cell_length_b 20.151351
_cell_length_c 8.293119
_cell_angle_alpha 90.000000
_cell_angle_beta 90.000000
_cell_angle_gamma 90.000000
_cell_volume 2774.594222
_symmetry_space_group_name_H-M "C C C A"
_symmetry_group_IT_number 68
_space_group.IT_coordinate_system_code '2'
_symmetry_cell_setting 'orthorhombic'
loop_
_space_group_symop_operation_xyz
x,y,z
-x,1/2-y,z
x,1/2-y,1/2-z
-x,y,1/2-z
-x,-y,-z
x,1/2+y,-z
-x,1/2+y,1/2+z
x,-y,1/2+z
1/2+x,1/2+y,z
1/2-x,-y,z
1/2+x,-y,1/2-z
1/2-x,1/2+y,1/2-z
1/2-x,1/2-y,-z
1/2+x,y,-z
1/2-x,y,1/2+z
1/2+x,1/2-y,1/2+z
loop_
_atom_site_type_symbol
_atom_site_label
_atom_site_fract_x
_atom_site_fract_y
_atom_site_fract_z
Si Si1 0.661950 0.968992 0.947931
Si Si2 0.645960 0.697619 0.004286
Si Si3 0.824227 0.832695 0.621592
Si Si4 0.578315 0.925491 0.642893
O O1 0.649797 0.941688 0.768456
O O2 0.750000 0.000000 0.961145
O O3 0.654904 0.905821 0.064089
O O4 0.596441 0.024166 0.997230
O O5 0.730472 0.683866 0.913346
O O6 0.582474 0.649183 0.922199
O O7 0.658410 0.675817 0.190086
O O8 0.629929 0.776020 0.017500
O O9 0.500000 0.936491 0.750000
#
# Coordination Sequence:
#
# PCOD9507975 Si02
#       4
#    16  16  16  16
#     4  12  24  41  67  99 132 183 238 289 339 425
#     4  10  21  40  65 102 134 175 224 293 350 409
#     4  10  21  39  69  99 133 169 235 290 341 405
#     4  12  26  43  66 100 145 186 229 288 362 418
#
# _framework density 23.066434000000001
#
# number of rings (size 3 to 8) (size 9 to 14) (size 15 to 20)
#    0.000    1.000    2.500    4.500    0.000    3.000 
#    0.000    2.500    0.000    3.000    0.000    0.000 
#    0.000    0.000    0.000    0.000    0.000    0.000 
#
# Total GULP energy -179165.162636 kJ/mol
# GULP energy per Si atom -5598.911332 kJ/mol
# Density = 2.301393 g / cm^3
# Si number density = 23.066434 Si / 1000 Ang^3
#
#
#
# Elastic Constant Matrix: (Units=GPa)
#
#
# Indices 1 2 3 4 5 6 
#
# 1 50.7417 43.0833 21.3850 0.0000 0.0000 0.0000
# 2 43.0833 143.6528 26.3406 0.0000 0.0000 0.0000
# 3 21.3850 26.3406 76.8093 0.0000 0.0000 0.0000
# 4 0.0000 0.0000 0.0000 44.5203 0.0000 0.0000
# 5 0.0000 0.0000 0.0000 0.0000 14.6626 0.0000
# 6 0.0000 0.0000 0.0000 0.0000 0.0000 13.7192
#
#
#
# Elastic Compliance Matrix: (Units=1/GPa)
#
#
# Indices 1 2 3 4 5 6 
#
# 1 0.028333 -0.007524 -0.005308 0.000000 0.000000 0.000000
# 2 -0.007524 0.009426 -0.001138 0.000000 0.000000 0.000000
# 3 -0.005308 -0.001138 0.014887 0.000000 0.000000 0.000000
# 4 0.000000 0.000000 0.000000 0.022462 0.000000 0.000000
# 5 0.000000 0.000000 0.000000 0.000000 0.068201 0.000000
# 6 0.000000 0.000000 0.000000 0.000000 0.000000 0.072890
#
#
# Mechanical properties :
#
#
# Convention : Reuss Voigt Hill
#
# Bulk Modulus (GPa) = 40.47467 50.31352 45.39410
# Shear Modulus (GPa) = 19.81172 26.60676 23.20924
#
# Velocity S-wave (km/s) = 2.93388 3.39998 3.17549
# Velocity P-wave (km/s) = 5.39091 6.10516 5.75912
#
# Compressibility (1/GPa) = 0.02470681
#
# Stress axis : x y z
#
# Youngs Moduli (GPa) = 35.29405 106.08427 67.17121
#
# Poissons Ratio (x) = 0.79820 0.35656
# Poissons Ratio (y) = 0.26556 0.07643
# Poissons Ratio (z) = 0.18735 0.12070
#
# Static dielectric constant tensor:
#      x y z
#    x 1.876560 0.000000 0.000000 
#    y 0.000000 1.889170 0.000000 
#    z 0.000000 0.000000 1.844140 
# 
# From -- ./inp_files/5820.got.cif
#   From: 2010.05.17/outbox.cif.g08.bks.cpg/sg68_3_cif.got.tgz:5820.got - 2010.06.03 18:57:09.
