data_PCOD9507979
_publ_section_title
;
Structure prediction by ZEFSAII (Michael W. Deem and Ramdas Pophale) SiO2 
 PCOD9507979
Probable space group: C C C A
;
_chemical_formula_sum "Si O2"
_cell_formula_units_Z 68
_cell_length_a 5.187065
_cell_length_b 31.756642
_cell_length_c 23.028847
_cell_angle_alpha 90.000000
_cell_angle_beta 90.000000
_cell_angle_gamma 90.000000
_cell_volume 3793.398410
_symmetry_space_group_name_H-M "C C C A"
_symmetry_group_IT_number 68
_space_group.IT_coordinate_system_code '2'
_symmetry_cell_setting 'orthorhombic'
loop_
_space_group_symop_operation_xyz
x,y,z
-x,1/2-y,z
x,1/2-y,1/2-z
-x,y,1/2-z
-x,-y,-z
x,1/2+y,-z
-x,1/2+y,1/2+z
x,-y,1/2+z
1/2+x,1/2+y,z
1/2-x,-y,z
1/2+x,-y,1/2-z
1/2-x,1/2+y,1/2-z
1/2-x,1/2-y,-z
1/2+x,y,-z
1/2-x,y,1/2+z
1/2+x,1/2-y,1/2+z
loop_
_atom_site_type_symbol
_atom_site_label
_atom_site_fract_x
_atom_site_fract_y
_atom_site_fract_z
Si Si1 0.199151 0.703073 0.024494
Si Si2 0.000000 0.750000 0.250000
Si Si3 0.389445 0.185634 0.344949
Si Si4 0.751670 0.545924 0.708608
Si Si5 0.594545 0.865236 0.316986
O O1 0.114146 0.704774 0.090911
O O2 0.250000 0.750000 0.000000
O O3 0.475430 0.682101 0.013577
O O4 0.840700 0.720156 0.294315
O O5 0.665452 0.165500 0.329132
O O6 0.163215 0.151087 0.347415
O O7 0.500000 0.552079 0.750000
O O8 0.750000 0.500000 0.678663
O O9 0.802036 0.587646 0.671182
O O10 0.000000 0.542929 0.750000
O O11 0.500000 0.864643 0.250000
#
# Coordination Sequence:
#
# PCOD9507979 Si02
#       5
#    16   4  16  16  16
#     4  10  21  40  57  73  96 137 191 248 275 306
#     4  12  24  38  48  82 108 154 184 216 280 346
#     4  12  24  36  57  77 111 149 188 229 283 330
#     4   9  17  30  53  76 107 153 185 209 259 335
#     4  11  20  37  50  82 118 144 176 226 275 335
#
# _framework density 17.925878999999998
#
# number of rings (size 3 to 8) (size 9 to 14) (size 15 to 20)
#    0.000    1.412    2.353    5.647    0.000    3.765 
#    0.000    0.000    0.000    0.000    0.000    0.000 
#    0.000   18.824    0.000    0.000    0.000    0.000 
#
# Total GULP energy -189358.203629 kJ/mol
# GULP energy per Si atom -5569.358930 kJ/mol
# Density = 1.788508 g / cm^3
# Si number density = 17.925879 Si / 1000 Ang^3
#
#
#
# Elastic Constant Matrix: (Units=GPa)
#
#
# Indices 1 2 3 4 5 6 
#
# 1 140.8863 24.6633 21.4050 0.0000 0.0000 0.0000
# 2 24.6633 79.6991 43.4288 0.0000 0.0000 0.0000
# 3 21.4050 43.4288 99.5499 0.0000 0.0000 0.0000
# 4 0.0000 0.0000 0.0000 2.5776 0.0000 0.0000
# 5 0.0000 0.0000 0.0000 0.0000 15.9827 0.0000
# 6 0.0000 0.0000 0.0000 0.0000 0.0000 20.8944
#
#
#
# Elastic Compliance Matrix: (Units=1/GPa)
#
#
# Indices 1 2 3 4 5 6 
#
# 1 0.007552 -0.001905 -0.000793 0.000000 0.000000 0.000000
# 2 -0.001905 0.016941 -0.006981 0.000000 0.000000 0.000000
# 3 -0.000793 -0.006981 0.013261 0.000000 0.000000 0.000000
# 4 0.000000 0.000000 0.000000 0.387962 0.000000 0.000000
# 5 0.000000 0.000000 0.000000 0.000000 0.062568 0.000000
# 6 0.000000 0.000000 0.000000 0.000000 0.000000 0.047860
#
#
# Mechanical properties :
#
#
# Convention : Reuss Voigt Hill
#
# Bulk Modulus (GPa) = 54.35810 55.45883 54.90847
# Shear Modulus (GPa) = 8.90263 23.26682 16.08472
#
# Velocity S-wave (km/s) = 2.23095 3.60661 2.99873
# Velocity P-wave (km/s) = 6.08489 6.95331 6.53354
#
# Compressibility (1/GPa) = 0.01839652
#
# Stress axis : x y z
#
# Youngs Moduli (GPa) = 132.41792 59.02990 75.40899
#
# Poissons Ratio (x) = 0.11245 0.05978
# Poissons Ratio (y) = 0.25226 0.52641
# Poissons Ratio (z) = 0.10497 0.41207
#
# Static dielectric constant tensor:
#      x y z
#    x 1.553970 0.000000 0.000000 
#    y 0.000000 1.307420 0.000000 
#    z 0.000000 0.000000 1.638450 
# 
# From -- ./inp_files/35194.got.cif
#   From: 2010.05.17/outbox.cif.g08.bks.cpg/sg68_18_cif.got.tgz:35194.got - 2010.06.03 18:57:09.
