data_PCOD9507442
_publ_section_title
;
Structure prediction by ZEFSAII (Michael W. Deem and Ramdas Pophale) SiO2 
 PCOD9507442
Probable space group: C C C A
;
_chemical_formula_sum "Si O2"
_cell_formula_units_Z 108
_cell_length_a 25.528806
_cell_length_b 15.167078
_cell_length_c 13.732529
_cell_angle_alpha 90.000000
_cell_angle_beta 90.000000
_cell_angle_gamma 90.000000
_cell_volume 5317.199412
_symmetry_space_group_name_H-M "C C C A"
_symmetry_group_IT_number 68
_space_group.IT_coordinate_system_code '2'
_symmetry_cell_setting 'orthorhombic'
loop_
_space_group_symop_operation_xyz
x,y,z
-x,1/2-y,z
x,1/2-y,1/2-z
-x,y,1/2-z
-x,-y,-z
x,1/2+y,-z
-x,1/2+y,1/2+z
x,-y,1/2+z
1/2+x,1/2+y,z
1/2-x,-y,z
1/2+x,-y,1/2-z
1/2-x,1/2+y,1/2-z
1/2-x,1/2-y,-z
1/2+x,y,-z
1/2-x,y,1/2+z
1/2+x,1/2-y,1/2+z
loop_
_atom_site_type_symbol
_atom_site_label
_atom_site_fract_x
_atom_site_fract_y
_atom_site_fract_z
Si Si1 0.898766 0.553009 0.677113
Si Si2 0.734499 0.187053 0.087111
Si Si3 0.580958 0.609537 0.804521
Si Si4 0.848166 0.856113 0.636157
Si Si5 0.152933 0.537954 0.026035
Si Si6 0.556382 0.228647 0.865481
Si Si7 0.660724 0.250000 0.250000
Si Si8 0.500000 0.250000 0.250000
O O1 0.928170 0.474760 0.734756
O O2 0.867434 0.604886 0.761214
O O3 0.860412 0.531661 0.587859
O O4 0.937106 0.624269 0.629605
O O5 0.788600 0.174456 0.144992
O O6 0.703851 0.098572 0.050942
O O7 0.694858 0.239297 0.154975
O O8 0.750000 0.250000 0.000000
O O9 0.605974 0.579909 0.907246
O O10 0.625520 0.663384 0.746786
O O11 0.535114 0.681690 0.812350
O O12 0.891614 0.783435 0.602364
O O13 0.843866 0.938339 0.563526
O O14 0.500000 0.250000 0.910914
O O15 0.553421 0.250000 0.750000
#
# Coordination Sequence:
#
# PCOD9507442 Si02
#       8
#    16  16  16  16  16  16   8   4
#     4  10  21  39  67  86 127 164 210 262 321 379
#     4  11  23  36  62  91 125 167 210 263 319 390
#     4   9  21  42  63  91 125 169 209 264 309 393
#     4  10  22  39  61  90 126 162 211 260 320 396
#     4  10  22  41  58  93 127 160 213 266 320 381
#     4   9  19  37  61  90 120 156 199 257 319 369
#     4   9  22  39  58  88 127 160 209 250 316 372
#     4  10  20  44  72  88 130 178 214 256 338 368
#
# _framework density 20.311444000000002
#
# number of rings (size 3 to 8) (size 9 to 14) (size 15 to 20)
#    0.000    2.222    0.000    1.333    7.259    3.556 
#    4.000    2.963    0.000    0.000    0.000    0.000 
#    0.000    0.000    0.000    0.000    0.000    0.000 
#
# Total GULP energy -300894.877894 kJ/mol
# GULP energy per Si atom -5572.127368 kJ/mol
# Density = 2.026521 g / cm^3
# Si number density = 20.311444 Si / 1000 Ang^3
#
#
#
# Elastic Constant Matrix: (Units=GPa)
#
#
# Indices 1 2 3 4 5 6 
#
# 1 94.8149 41.4400 14.7453 0.0000 0.0000 0.0000
# 2 41.4400 105.4231 30.4965 0.0000 0.0000 0.0000
# 3 14.7453 30.4965 52.1440 0.0000 0.0000 0.0000
# 4 0.0000 0.0000 0.0000 16.5302 0.0000 0.0000
# 5 0.0000 0.0000 0.0000 0.0000 90.1262 0.0000
# 6 0.0000 0.0000 0.0000 0.0000 0.0000 18.9146
#
#
#
# Elastic Compliance Matrix: (Units=1/GPa)
#
#
# Indices 1 2 3 4 5 6 
#
# 1 0.012763 -0.004782 -0.000812 0.000000 0.000000 0.000000
# 2 -0.004782 0.013209 -0.006373 0.000000 0.000000 0.000000
# 3 -0.000812 -0.006373 0.023135 0.000000 0.000000 0.000000
# 4 0.000000 0.000000 0.000000 0.060495 0.000000 0.000000
# 5 0.000000 0.000000 0.000000 0.000000 0.011096 0.000000
# 6 0.000000 0.000000 0.000000 0.000000 0.000000 0.052869
#
#
# Mechanical properties :
#
#
# Convention : Reuss Voigt Hill
#
# Bulk Modulus (GPa) = 39.72675 47.30505 43.51590
# Shear Modulus (GPa) = 24.28456 36.16089 30.22272
#
# Velocity S-wave (km/s) = 3.46151 4.22396 3.86160
# Velocity P-wave (km/s) = 5.96467 6.86510 6.43066
#
# Compressibility (1/GPa) = 0.02517196
#
# Stress axis : x y z
#
# Youngs Moduli (GPa) = 78.35004 75.70680 43.22520
#
# Poissons Ratio (x) = 0.36203 0.03512
# Poissons Ratio (y) = 0.37467 0.27547
# Poissons Ratio (z) = 0.06365 0.48248
#
# Static dielectric constant tensor:
#      x y z
#    x 1.780780 0.000000 0.000000 
#    y 0.000000 1.765800 0.000000 
#    z 0.000000 0.000000 1.713940 
# 
# From -- ./inp_files/25527.got.cif
#   From: 2010.05.17/outbox.cif.g08.bks.cpg/sg68_13_cif.got.tgz:25527.got - 2010.06.03 18:57:09.
