data_PCOD9507232
_publ_section_title
;
Structure prediction by ZEFSAII (Michael W. Deem and Ramdas Pophale) SiO2 
 PCOD9507232
Probable space group: C C C A
;
_chemical_formula_sum "Si O2"
_cell_formula_units_Z 80
_cell_length_a 21.862894
_cell_length_b 8.478835
_cell_length_c 22.909792
_cell_angle_alpha 90.000000
_cell_angle_beta 90.000000
_cell_angle_gamma 90.000000
_cell_volume 4246.831004
_symmetry_space_group_name_H-M "C C C A"
_symmetry_group_IT_number 68
_space_group.IT_coordinate_system_code '2'
_symmetry_cell_setting 'orthorhombic'
loop_
_space_group_symop_operation_xyz
x,y,z
-x,1/2-y,z
x,1/2-y,1/2-z
-x,y,1/2-z
-x,-y,-z
x,1/2+y,-z
-x,1/2+y,1/2+z
x,-y,1/2+z
1/2+x,1/2+y,z
1/2-x,-y,z
1/2+x,-y,1/2-z
1/2-x,1/2+y,1/2-z
1/2-x,1/2-y,-z
1/2+x,y,-z
1/2-x,y,1/2+z
1/2+x,1/2-y,1/2+z
loop_
_atom_site_type_symbol
_atom_site_label
_atom_site_fract_x
_atom_site_fract_y
_atom_site_fract_z
Si Si1 0.438981 0.850578 0.033972
Si Si2 0.750000 0.000000 0.856432
Si Si3 0.838213 0.740615 0.186123
Si Si4 0.561320 0.293910 0.088328
Si Si5 0.750000 0.500000 0.364265
Si Si6 0.800087 0.755493 0.553623
O O1 0.500000 0.750000 0.053978
O O2 0.371443 0.775900 0.042366
O O3 0.437661 0.028210 0.060540
O O4 0.441770 0.834942 0.963800
O O5 0.800719 0.078943 0.816961
O O6 0.721705 0.126227 0.900233
O O7 0.867334 0.750000 0.250000
O O8 0.882485 0.732718 0.130807
O O9 0.789077 0.878961 0.174126
O O10 0.500000 0.250000 0.123139
O O11 0.795073 0.415495 0.410030
O O12 0.750000 0.750000 0.500000
#
# Coordination Sequence:
#
# PCOD9507232 Si02
#       6
#    16   8  16  16   8  16
#     4  11  23  39  64  94 128 166 202 257 319 392
#     4  10  20  40  56  92 122 157 207 256 316 364
#     4  11  23  42  64  88 122 166 216 259 307 371
#     4  11  24  40  64  90 125 166 207 257 316 377
#     4  10  24  36  60  92 124 161 205 258 314 374
#     4  11  22  35  62  93 130 159 199 257 321 379
#
# _framework density 18.837575000000001
#
# number of rings (size 3 to 8) (size 9 to 14) (size 15 to 20)
#    0.000    1.200    2.000    6.000    8.400    0.400 
#    0.000    0.000    0.000    0.000    0.000    0.000 
#    0.000    0.000    0.000    0.000    0.000    0.000 
#
# Total GULP energy -222730.529733 kJ/mol
# GULP energy per Si atom -5568.263243 kJ/mol
# Density = 1.879470 g / cm^3
# Si number density = 18.837575 Si / 1000 Ang^3
#
#
#
# Elastic Constant Matrix: (Units=GPa)
#
#
# Indices 1 2 3 4 5 6 
#
# 1 112.2961 24.2377 28.5779 0.0000 0.0000 0.0000
# 2 24.2377 67.2446 36.2699 0.0000 0.0000 0.0000
# 3 28.5779 36.2699 86.5902 0.0000 0.0000 0.0000
# 4 0.0000 0.0000 0.0000 1.9934 0.0000 0.0000
# 5 0.0000 0.0000 0.0000 0.0000 -7.4291 0.0000
# 6 0.0000 0.0000 0.0000 0.0000 0.0000 30.5679
#
#
#
# Elastic Compliance Matrix: (Units=1/GPa)
#
#
# Indices 1 2 3 4 5 6 
#
# 1 0.010003 -0.002357 -0.002314 0.000000 0.000000 0.000000
# 2 -0.002357 0.019767 -0.007502 0.000000 0.000000 0.000000
# 3 -0.002314 -0.007502 0.015455 0.000000 0.000000 0.000000
# 4 0.000000 0.000000 0.000000 0.501656 0.000000 0.000000
# 5 0.000000 0.000000 0.000000 0.000000 -0.134606 0.000000
# 6 0.000000 0.000000 0.000000 0.000000 0.000000 0.032714
#
#
# Mechanical properties :
#
#
# Convention : Reuss Voigt Hill
#
# Bulk Modulus (GPa) = 47.89651 49.36688 48.63169
# Shear Modulus (GPa) = 10.49773 16.82947 13.66360
#
# Velocity S-wave (km/s) = 2.36323 2.99222 2.69613
# Velocity P-wave (km/s) = 5.73827 6.18072 5.96360
#
# Compressibility (1/GPa) = 0.02087835
#
# Stress axis : x y z
#
# Youngs Moduli (GPa) = 99.97333 50.58935 64.70593
#
# Poissons Ratio (x) = 0.11926 0.14972
# Poissons Ratio (y) = 0.23567 0.48541
# Poissons Ratio (z) = 0.23132 0.37951
#
# Static dielectric constant tensor:
#      x y z
#    x 1.773390 0.000000 0.000000 
#    y 0.000000 1.833010 0.000000 
#    z 0.000000 0.000000 1.645720 
# 
# From -- ./inp_files/40665.got.cif
#   From: 2010.05.17/outbox.cif.g08.bks.cpg/sg68_21_cif.got.tgz:40665.got - 2010.06.03 18:57:09.
