data_PCOD9507114
_publ_section_title
;
Structure prediction by ZEFSAII (Michael W. Deem and Ramdas Pophale) SiO2 
 PCOD9507114
Probable space group: C C C A
;
_chemical_formula_sum "Si O2"
_cell_formula_units_Z 80
_cell_length_a 10.574944
_cell_length_b 12.417326
_cell_length_c 25.741764
_cell_angle_alpha 90.000000
_cell_angle_beta 90.000000
_cell_angle_gamma 90.000000
_cell_volume 3380.216082
_symmetry_space_group_name_H-M "C C C A"
_symmetry_group_IT_number 68
_space_group.IT_coordinate_system_code '2'
_symmetry_cell_setting 'orthorhombic'
loop_
_space_group_symop_operation_xyz
x,y,z
-x,1/2-y,z
x,1/2-y,1/2-z
-x,y,1/2-z
-x,-y,-z
x,1/2+y,-z
-x,1/2+y,1/2+z
x,-y,1/2+z
1/2+x,1/2+y,z
1/2-x,-y,z
1/2+x,-y,1/2-z
1/2-x,1/2+y,1/2-z
1/2-x,1/2-y,-z
1/2+x,y,-z
1/2-x,y,1/2+z
1/2+x,1/2-y,1/2+z
loop_
_atom_site_type_symbol
_atom_site_label
_atom_site_fract_x
_atom_site_fract_y
_atom_site_fract_z
Si Si1 0.127166 0.678268 0.512889
Si Si2 0.939753 0.363513 0.594052
Si Si3 0.558496 0.915068 0.118551
Si Si4 0.638505 0.585737 0.268187
Si Si5 0.293681 0.625865 0.341067
O O1 0.250000 0.750000 0.500000
O O2 0.110014 0.599734 0.462804
O O3 0.134645 0.616632 0.567564
O O4 0.000000 0.750000 0.519126
O O5 0.828322 0.327283 0.632507
O O6 0.000000 0.250000 0.582452
O O7 0.028467 0.456443 0.617384
O O8 0.621488 0.878149 0.172496
O O9 0.416716 0.865802 0.122873
O O10 0.500000 0.541342 0.250000
O O11 0.750000 0.500000 0.270944
O O12 0.673679 0.656983 0.217757
O O13 0.250000 0.500000 0.339462
#
# Coordination Sequence:
#
# PCOD9507114 Si02
#       5
#    16  16  16  16  16
#     4  11  24  41  62  91 130 171 220 271 321 389
#     4  10  21  38  64 100 131 166 216 275 330 386
#     4  10  20  38  66  93 127 175 215 262 326 392
#     4   9  18  34  62  93 123 166 213 257 315 383
#     4   8  16  35  63  90 126 168 208 255 322 390
#
# _framework density 23.667124000000001
#
# number of rings (size 3 to 8) (size 9 to 14) (size 15 to 20)
#    0.000    2.400    0.000    3.000    0.000    3.200 
#    0.000    7.000    0.000   70.800    0.000    0.000 
#    0.000    0.000    0.000    0.000    0.000    0.000 
#
# Total GULP energy -223229.830072 kJ/mol
# GULP energy per Si atom -5580.745752 kJ/mol
# Density = 2.361326 g / cm^3
# Si number density = 23.667124 Si / 1000 Ang^3
#
#
#
# Elastic Constant Matrix: (Units=GPa)
#
#
# Indices 1 2 3 4 5 6 
#
# 1 100.4405 27.1633 65.9756 0.0000 0.0000 0.0000
# 2 27.1633 58.3974 36.3585 0.0000 0.0000 0.0000
# 3 65.9756 36.3585 193.4579 0.0000 0.0000 0.0000
# 4 0.0000 0.0000 0.0000 33.4249 0.0000 0.0000
# 5 0.0000 0.0000 0.0000 0.0000 12.0950 0.0000
# 6 0.0000 0.0000 0.0000 0.0000 0.0000 19.1269
#
#
#
# Elastic Compliance Matrix: (Units=1/GPa)
#
#
# Indices 1 2 3 4 5 6 
#
# 1 0.013566 -0.003884 -0.003896 0.000000 0.000000 0.000000
# 2 -0.003884 0.020505 -0.002529 0.000000 0.000000 0.000000
# 3 -0.003896 -0.002529 0.006973 0.000000 0.000000 0.000000
# 4 0.000000 0.000000 0.000000 0.029918 0.000000 0.000000
# 5 0.000000 0.000000 0.000000 0.000000 0.082679 0.000000
# 6 0.000000 0.000000 0.000000 0.000000 0.000000 0.052282
#
#
# Mechanical properties :
#
#
# Convention : Reuss Voigt Hill
#
# Bulk Modulus (GPa) = 48.95950 67.92115 58.44033
# Shear Modulus (GPa) = 21.42688 27.78260 24.60474
#
# Velocity S-wave (km/s) = 3.01216 3.42992 3.22781
# Velocity P-wave (km/s) = 5.72967 6.66683 6.21594
#
# Compressibility (1/GPa) = 0.02042504
#
# Stress axis : x y z
#
# Youngs Moduli (GPa) = 73.71347 48.76759 143.40547
#
# Poissons Ratio (x) = 0.18942 0.55878
# Poissons Ratio (y) = 0.28632 0.36269
# Poissons Ratio (z) = 0.28722 0.12334
#
# Static dielectric constant tensor:
#      x y z
#    x 1.908770 0.000000 0.000000 
#    y 0.000000 2.010910 0.000000 
#    z 0.000000 0.000000 1.936780 
# 
# From -- ./inp_files/44077.got.cif
#   From: 2010.05.17/outbox.cif.g08.bks.cpg/sg68_23_cif.got.tgz:44077.got - 2010.06.03 18:57:09.
