data_PCOD9507319
_publ_section_title
;
Structure prediction by ZEFSAII (Michael W. Deem and Ramdas Pophale) SiO2 
 PCOD9507319
Probable space group: C C C A
;
_chemical_formula_sum "Si O2"
_cell_formula_units_Z 44
_cell_length_a 5.112544
_cell_length_b 29.726167
_cell_length_c 13.342301
_cell_angle_alpha 90.000000
_cell_angle_beta 90.000000
_cell_angle_gamma 90.000000
_cell_volume 2027.714030
_symmetry_space_group_name_H-M "C C C A"
_symmetry_group_IT_number 68
_space_group.IT_coordinate_system_code '2'
_symmetry_cell_setting 'orthorhombic'
loop_
_space_group_symop_operation_xyz
x,y,z
-x,1/2-y,z
x,1/2-y,1/2-z
-x,y,1/2-z
-x,-y,-z
x,1/2+y,-z
-x,1/2+y,1/2+z
x,-y,1/2+z
1/2+x,1/2+y,z
1/2-x,-y,z
1/2+x,-y,1/2-z
1/2-x,1/2+y,1/2-z
1/2-x,1/2-y,-z
1/2+x,y,-z
1/2-x,y,1/2+z
1/2+x,1/2-y,1/2+z
loop_
_atom_site_type_symbol
_atom_site_label
_atom_site_fract_x
_atom_site_fract_y
_atom_site_fract_z
Si Si1 0.500000 0.250000 0.250000
Si Si2 0.500000 0.028859 0.750000
Si Si3 0.778303 0.418379 0.059633
Si Si4 0.759088 0.163090 0.814973
O O1 0.666499 0.284215 0.181560
O O2 0.619048 0.058011 0.840270
O O3 0.750000 0.000000 0.714218
O O4 0.775406 0.365096 0.084728
O O5 0.487027 0.430189 0.025935
O O6 0.500000 0.159105 0.750000
O O7 0.000000 0.142630 0.750000
#
# Coordination Sequence:
#
# PCOD9507319 Si02
#       4
#     4   8  16  16
#     4   8  22  34  74  92 138 182 234 278 334 392
#     4  12  28  47  74 101 138 181 226 287 352 408
#     4  12  26  44  72 104 139 180 231 280 344 418
#     4  10  20  40  68  95 134 187 223 278 339 391
#
# _framework density 21.699311999999999
#
# number of rings (size 3 to 8) (size 9 to 14) (size 15 to 20)
#    1.091    0.000    1.818    4.909    2.545    4.364 
#    0.000    1.818    0.000    0.000    0.000    0.000 
#    0.000    0.000    0.000    0.000    0.000    0.000 
#
# Total GULP energy -122797.247633 kJ/mol
# GULP energy per Si atom -5581.693074 kJ/mol
# Density = 2.164992 g / cm^3
# Si number density = 21.699312 Si / 1000 Ang^3
#
#
#
# Elastic Constant Matrix: (Units=GPa)
#
#
# Indices 1 2 3 4 5 6 
#
# 1 148.1606 27.9533 19.1368 0.0000 0.0000 0.0000
# 2 27.9533 90.8056 32.7650 0.0000 0.0000 0.0000
# 3 19.1368 32.7650 63.2876 0.0000 0.0000 0.0000
# 4 0.0000 0.0000 0.0000 10.5837 0.0000 0.0000
# 5 0.0000 0.0000 0.0000 0.0000 37.2836 0.0000
# 6 0.0000 0.0000 0.0000 0.0000 0.0000 351.0346
#
#
#
# Elastic Compliance Matrix: (Units=1/GPa)
#
#
# Indices 1 2 3 4 5 6 
#
# 1 0.007248 -0.001771 -0.001275 0.000000 0.000000 0.000000
# 2 -0.001771 0.013975 -0.006700 0.000000 0.000000 0.000000
# 3 -0.001275 -0.006700 0.019655 0.000000 0.000000 0.000000
# 4 0.000000 0.000000 0.000000 0.094484 0.000000 0.000000
# 5 0.000000 0.000000 0.000000 0.000000 0.026821 0.000000
# 6 0.000000 0.000000 0.000000 0.000000 0.000000 0.002849
#
#
# Mechanical properties :
#
#
# Convention : Reuss Voigt Hill
#
# Bulk Modulus (GPa) = 46.75716 51.32933 49.04324
# Shear Modulus (GPa) = 26.08881 94.60699 60.34790
#
# Velocity S-wave (km/s) = 3.47116 6.61012 5.27933
# Velocity P-wave (km/s) = 6.13676 9.05342 7.73383
#
# Compressibility (1/GPa) = 0.02138710
#
# Stress axis : x y z
#
# Youngs Moduli (GPa) = 137.96400 71.55531 50.87816
#
# Poissons Ratio (x) = 0.12675 0.06485
# Poissons Ratio (y) = 0.24438 0.34086
# Poissons Ratio (z) = 0.17586 0.47939
#
# Static dielectric constant tensor:
#      x y z
#    x 1.760980 0.000000 0.000000 
#    y 0.000000 1.850480 0.000000 
#    z 0.000000 0.000000 1.770960 
# 
# From -- ./inp_files/18263.got.cif
#   From: 2010.05.17/outbox.cif.g08.bks.cpg/sg68_10_cif.got.tgz:18263.got - 2010.06.03 18:57:09.
