data_PCOD9507742
_publ_section_title
;
Structure prediction by ZEFSAII (Michael W. Deem and Ramdas Pophale) SiO2 
 PCOD9507742
Probable space group: C C C A
;
_chemical_formula_sum "Si O2"
_cell_formula_units_Z 60
_cell_length_a 21.542793
_cell_length_b 24.154871
_cell_length_c 5.152376
_cell_angle_alpha 90.000000
_cell_angle_beta 90.000000
_cell_angle_gamma 90.000000
_cell_volume 2681.107821
_symmetry_space_group_name_H-M "C C C A"
_symmetry_group_IT_number 68
_space_group.IT_coordinate_system_code '2'
_symmetry_cell_setting 'orthorhombic'
loop_
_space_group_symop_operation_xyz
x,y,z
-x,1/2-y,z
x,1/2-y,1/2-z
-x,y,1/2-z
-x,-y,-z
x,1/2+y,-z
-x,1/2+y,1/2+z
x,-y,1/2+z
1/2+x,1/2+y,z
1/2-x,-y,z
1/2+x,-y,1/2-z
1/2-x,1/2+y,1/2-z
1/2-x,1/2-y,-z
1/2+x,y,-z
1/2-x,y,1/2+z
1/2+x,1/2-y,1/2+z
loop_
_atom_site_type_symbol
_atom_site_label
_atom_site_fract_x
_atom_site_fract_y
_atom_site_fract_z
Si Si1 0.120230 0.379124 0.845751
Si Si2 0.116316 0.307000 0.359296
Si Si3 0.319518 0.019457 0.313143
Si Si4 0.000000 0.041276 0.750000
Si Si5 0.500000 0.750000 0.250000
O O1 0.136218 0.334357 0.624993
O O2 0.176389 0.422417 0.828735
O O3 0.059762 0.417182 0.776907
O O4 0.114581 0.349983 0.122348
O O5 0.146630 0.250000 0.250000
O O6 0.045605 0.287547 0.415036
O O7 0.349724 0.020721 0.598008
O O8 0.250000 0.000000 0.368816
O O9 0.000000 0.000000 0.500000
#
# Coordination Sequence:
#
# PCOD9507742 Si02
#       5
#    16  16  16   8   4
#     4  12  21  37  58  85 118 164 197 238 308 345
#     4  10  22  35  57  83 118 159 200 248 277 356
#     4  10  21  38  60  87 115 149 202 255 296 359
#     4  12  24  35  51  82 123 158 191 242 292 356
#     4   8  20  36  52  78 128 150 210 226 288 320
#
# _framework density 22.378809
#
# number of rings (size 3 to 8) (size 9 to 14) (size 15 to 20)
#    0.800    0.533    0.000    7.200    0.000    1.067 
#    0.000    0.000    0.000    0.000    0.000   74.667 
#    0.000    0.000    0.000    0.000    0.000    0.000 
#
# Total GULP energy -167141.582002 kJ/mol
# GULP energy per Si atom -5571.386067 kJ/mol
# Density = 2.232787 g / cm^3
# Si number density = 22.378809 Si / 1000 Ang^3
#
#
#
# Elastic Constant Matrix: (Units=GPa)
#
#
# Indices 1 2 3 4 5 6 
#
# 1 45.7444 14.4112 -12.4630 0.0000 0.0000 0.0000
# 2 14.4112 81.9813 10.9328 0.0000 0.0000 0.0000
# 3 -12.4630 10.9328 136.1679 0.0000 0.0000 0.0000
# 4 0.0000 0.0000 0.0000 28.3196 0.0000 0.0000
# 5 0.0000 0.0000 0.0000 0.0000 11.6227 0.0000
# 6 0.0000 0.0000 0.0000 0.0000 0.0000 35.5684
#
#
#
# Elastic Compliance Matrix: (Units=1/GPa)
#
#
# Indices 1 2 3 4 5 6 
#
# 1 0.023995 -0.004560 0.002562 0.000000 0.000000 0.000000
# 2 -0.004560 0.013196 -0.001477 0.000000 0.000000 0.000000
# 3 0.002562 -0.001477 0.007697 0.000000 0.000000 0.000000
# 4 0.000000 0.000000 0.000000 0.035311 0.000000 0.000000
# 5 0.000000 0.000000 0.000000 0.000000 0.086039 0.000000
# 6 0.000000 0.000000 0.000000 0.000000 0.000000 0.028115
#
#
# Mechanical properties :
#
#
# Convention : Reuss Voigt Hill
#
# Bulk Modulus (GPa) = 26.35742 32.18393 29.27068
# Shear Modulus (GPa) = 23.37009 31.83631 27.60320
#
# Velocity S-wave (km/s) = 3.23506 3.77584 3.51586
# Velocity P-wave (km/s) = 5.07519 5.78117 5.43965
#
# Compressibility (1/GPa) = 0.03793998
#
# Stress axis : x y z
#
# Youngs Moduli (GPa) = 41.67507 75.77829 129.92122
#
# Poissons Ratio (x) = 0.34553 -0.33290
# Poissons Ratio (y) = 0.19003 0.19188
# Poissons Ratio (z) = -0.10678 0.11191
#
# Static dielectric constant tensor:
#      x y z
#    x 1.972350 0.000000 0.000000 
#    y 0.000000 1.889330 0.000000 
#    z 0.000000 0.000000 1.385600 
# 
# From -- ./inp_files/1420.got.cif
#   From: 2010.05.17/outbox.cif.g08.bks.cpg/sg68_1_cif.got.tgz:1420.got - 2010.06.03 18:57:09.
