data_PCOD9507131
_publ_section_title
;
Structure prediction by ZEFSAII (Michael W. Deem and Ramdas Pophale) SiO2 
 PCOD9507131
Probable space group: C C C A
;
_chemical_formula_sum "Si O2"
_cell_formula_units_Z 104
_cell_length_a 20.977174
_cell_length_b 8.307779
_cell_length_c 28.833451
_cell_angle_alpha 90.000000
_cell_angle_beta 90.000000
_cell_angle_gamma 90.000000
_cell_volume 5024.912929
_symmetry_space_group_name_H-M "C C C A"
_symmetry_group_IT_number 68
_space_group.IT_coordinate_system_code '2'
_symmetry_cell_setting 'orthorhombic'
loop_
_space_group_symop_operation_xyz
x,y,z
-x,1/2-y,z
x,1/2-y,1/2-z
-x,y,1/2-z
-x,-y,-z
x,1/2+y,-z
-x,1/2+y,1/2+z
x,-y,1/2+z
1/2+x,1/2+y,z
1/2-x,-y,z
1/2+x,-y,1/2-z
1/2-x,1/2+y,1/2-z
1/2-x,1/2-y,-z
1/2+x,y,-z
1/2-x,y,1/2+z
1/2+x,1/2-y,1/2+z
loop_
_atom_site_type_symbol
_atom_site_label
_atom_site_fract_x
_atom_site_fract_y
_atom_site_fract_z
Si Si1 0.000000 0.995533 0.250000
Si Si2 0.883640 0.250000 0.750000
Si Si3 0.750000 0.500000 0.879769
Si Si4 0.712255 0.831816 0.833227
Si Si5 0.052352 0.370816 0.988356
Si Si6 0.509011 0.069788 0.644612
Si Si7 0.882650 0.009118 0.900451
Si Si8 0.122943 0.634692 0.586668
O O1 0.934129 0.895724 0.248187
O O2 0.996768 0.077435 0.199836
O O3 0.837350 0.216329 0.793036
O O4 0.745451 0.662576 0.847952
O O5 0.811450 0.536197 0.911822
O O6 0.750000 0.000000 0.819893
O O7 0.672245 0.888259 0.877629
O O8 0.103379 0.434234 0.952157
O O9 0.000000 0.250000 0.966797
O O10 0.088474 0.339054 0.036926
O O11 0.000000 0.500000 0.000000
O O12 0.500000 0.250000 0.625289
O O13 0.449938 0.967280 0.626294
O O14 0.577008 0.033822 0.621876
O O15 0.866366 0.819133 0.896392
#
# Coordination Sequence:
#
# PCOD9507131 Si02
#       8
#     8   8   8  16  16  16  16  16
#     4  11  21  40  64 104 139 167 234 299 362 421
#     4  11  26  42  68  98 134 179 236 292 352 431
#     4  12  28  46  72 100 140 200 236 292 350 440
#     4  12  27  51  71 101 143 192 242 294 361 428
#     4  12  23  40  70 106 140 182 236 295 363 430
#     4  10  20  38  68  98 139 180 228 300 362 418
#     4  11  23  45  71 100 144 187 232 308 358 422
#     4  11  23  45  66 105 146 188 248 288 363 435
#
# _framework density 20.696874999999999
#
# number of rings (size 3 to 8) (size 9 to 14) (size 15 to 20)
#    0.000    0.769    6.154    1.615    3.231    1.231 
#    1.385    1.538    0.000    0.000    0.000    0.000 
#    0.000    0.000    0.000    0.000    0.000    0.000 
#
# Total GULP energy -289506.056993 kJ/mol
# GULP energy per Si atom -5567.424173 kJ/mol
# Density = 2.064977 g / cm^3
# Si number density = 20.696875 Si / 1000 Ang^3
#
#
#
# Elastic Constant Matrix: (Units=GPa)
#
#
# Indices 1 2 3 4 5 6 
#
# 1 109.0897 37.9086 34.8608 0.0000 0.0000 0.0000
# 2 37.9086 80.6899 23.9538 0.0000 0.0000 0.0000
# 3 34.8608 23.9538 108.0362 0.0000 0.0000 0.0000
# 4 0.0000 0.0000 0.0000 47.1888 0.0000 0.0000
# 5 0.0000 0.0000 0.0000 0.0000 16.7449 0.0000
# 6 0.0000 0.0000 0.0000 0.0000 0.0000 23.4461
#
#
#
# Elastic Compliance Matrix: (Units=1/GPa)
#
#
# Indices 1 2 3 4 5 6 
#
# 1 0.011661 -0.004669 -0.002728 0.000000 0.000000 0.000000
# 2 -0.004669 0.015135 -0.001849 0.000000 0.000000 0.000000
# 3 -0.002728 -0.001849 0.010546 0.000000 0.000000 0.000000
# 4 0.000000 0.000000 0.000000 0.021191 0.000000 0.000000
# 5 0.000000 0.000000 0.000000 0.000000 0.059720 0.000000
# 6 0.000000 0.000000 0.000000 0.000000 0.000000 0.042651
#
#
# Mechanical properties :
#
#
# Convention : Reuss Voigt Hill
#
# Bulk Modulus (GPa) = 53.04617 54.58467 53.81542
# Shear Modulus (GPa) = 26.92815 30.88214 28.90514
#
# Velocity S-wave (km/s) = 3.61095 3.86698 3.74116
# Velocity P-wave (km/s) = 6.56285 6.80946 6.68729
#
# Compressibility (1/GPa) = 0.01885150
#
# Stress axis : x y z
#
# Youngs Moduli (GPa) = 85.75815 66.07003 94.81992
#
# Poissons Ratio (x) = 0.30845 0.25862
# Poissons Ratio (y) = 0.40037 0.17536
# Poissons Ratio (z) = 0.23391 0.12219
#
# Static dielectric constant tensor:
#      x y z
#    x 1.714800 0.000000 0.000000 
#    y 0.000000 1.767800 0.000000 
#    z 0.000000 0.000000 1.716930 
# 
# From -- ./inp_files/51895.got.cif
#   From: 2010.05.17/outbox.cif.g08.bks.cpg/sg68_26_cif.got.tgz:51895.got - 2010.06.03 18:57:09.
