data_PCOD9507840
_publ_section_title
;
Structure prediction by ZEFSAII (Michael W. Deem and Ramdas Pophale) SiO2 
 PCOD9507840
Probable space group: C C C A
;
_chemical_formula_sum "Si O2"
_cell_formula_units_Z 80
_cell_length_a 13.836811
_cell_length_b 12.147539
_cell_length_c 23.041788
_cell_angle_alpha 90.000000
_cell_angle_beta 90.000000
_cell_angle_gamma 90.000000
_cell_volume 3872.937490
_symmetry_space_group_name_H-M "C C C A"
_symmetry_group_IT_number 68
_space_group.IT_coordinate_system_code '2'
_symmetry_cell_setting 'orthorhombic'
loop_
_space_group_symop_operation_xyz
x,y,z
-x,1/2-y,z
x,1/2-y,1/2-z
-x,y,1/2-z
-x,-y,-z
x,1/2+y,-z
-x,1/2+y,1/2+z
x,-y,1/2+z
1/2+x,1/2+y,z
1/2-x,-y,z
1/2+x,-y,1/2-z
1/2-x,1/2+y,1/2-z
1/2-x,1/2-y,-z
1/2+x,y,-z
1/2-x,y,1/2+z
1/2+x,1/2-y,1/2+z
loop_
_atom_site_type_symbol
_atom_site_label
_atom_site_fract_x
_atom_site_fract_y
_atom_site_fract_z
Si Si1 0.767068 0.369730 0.280693
Si Si2 0.358770 0.959465 0.964160
Si Si3 0.471611 0.868410 0.063204
Si Si4 0.572701 0.349635 0.351398
Si Si5 0.025662 0.586004 0.683831
O O1 0.788624 0.250000 0.250000
O O2 0.750000 0.500000 0.255826
O O3 0.667572 0.343090 0.312441
O O4 0.860351 0.387816 0.321736
O O5 0.388328 0.869052 0.916453
O O6 0.250000 0.000000 0.956822
O O7 0.436519 0.054740 0.950669
O O8 0.380991 0.916003 0.028609
O O9 0.500000 0.750000 0.040149
O O10 0.462002 0.862021 0.132841
O O11 0.500000 0.250000 0.347902
O O12 0.516106 0.456557 0.328152
O O13 0.000000 0.613247 0.750000
#
# Coordination Sequence:
#
# PCOD9507840 Si02
#       5
#    16  16  16  16  16
#     4  10  23  40  63  97 132 174 226 276 338 404
#     4  10  21  43  65  92 131 168 217 278 335 387
#     4  10  22  39  64  91 122 170 222 261 331 408
#     4  10  21  38  67  93 126 176 222 275 329 401
#     4  10  23  40  61  91 134 173 212 280 337 394
#
# _framework density 20.656157
#
# number of rings (size 3 to 8) (size 9 to 14) (size 15 to 20)
#    0.000    2.000    0.000    3.600    8.400    0.800 
#    0.000    9.000    0.000    0.000    0.000    0.000 
#    0.000    0.000    0.000    0.000    0.000    0.000 
#
# Total GULP energy -222801.490196 kJ/mol
# GULP energy per Si atom -5570.037255 kJ/mol
# Density = 2.060914 g / cm^3
# Si number density = 20.656157 Si / 1000 Ang^3
#
#
#
# Elastic Constant Matrix: (Units=GPa)
#
#
# Indices 1 2 3 4 5 6 
#
# 1 87.2855 45.2950 17.6816 0.0000 0.0000 0.0000
# 2 45.2950 139.7255 35.6817 0.0000 0.0000 0.0000
# 3 17.6816 35.6817 101.1760 0.0000 0.0000 0.0000
# 4 0.0000 0.0000 0.0000 -20.3029 0.0000 0.0000
# 5 0.0000 0.0000 0.0000 0.0000 23.3969 0.0000
# 6 0.0000 0.0000 0.0000 0.0000 0.0000 37.6002
#
#
#
# Elastic Compliance Matrix: (Units=1/GPa)
#
#
# Indices 1 2 3 4 5 6 
#
# 1 0.013851 -0.004255 -0.000920 0.000000 0.000000 0.000000
# 2 -0.004255 0.009172 -0.002491 0.000000 0.000000 0.000000
# 3 -0.000920 -0.002491 0.010923 0.000000 0.000000 0.000000
# 4 0.000000 0.000000 0.000000 -0.049254 0.000000 0.000000
# 5 0.000000 0.000000 0.000000 0.000000 0.042741 0.000000
# 6 0.000000 0.000000 0.000000 0.000000 0.000000 0.026596
#
#
# Mechanical properties :
#
#
# Convention : Reuss Voigt Hill
#
# Bulk Modulus (GPa) = 53.72299 58.38927 56.05613
# Shear Modulus (GPa) = 66.16685 23.44075 44.80380
#
# Velocity S-wave (km/s) = 5.66587 3.37234 4.66234
# Velocity P-wave (km/s) = 8.29864 6.59486 7.49532
#
# Compressibility (1/GPa) = 0.01861401
#
# Stress axis : x y z
#
# Youngs Moduli (GPa) = 72.19605 109.02168 91.54897
#
# Poissons Ratio (x) = 0.46391 0.08422
# Poissons Ratio (y) = 0.30721 0.22807
# Poissons Ratio (z) = 0.06642 0.27160
#
# Static dielectric constant tensor:
#      x y z
#    x 1.693490 0.000000 0.000000 
#    y 0.000000 1.799700 0.000000 
#    z 0.000000 0.000000 1.810570 
# 
# From -- ./inp_files/45194.got.cif
#   From: 2010.05.17/outbox.cif.g08.bks.cpg/sg68_23_cif.got.tgz:45194.got - 2010.06.03 18:57:09.
