data_PCOD9507881
_publ_section_title
;
Structure prediction by ZEFSAII (Michael W. Deem and Ramdas Pophale) SiO2 
 PCOD9507881
Probable space group: C C C A
;
_chemical_formula_sum "Si O2"
_cell_formula_units_Z 80
_cell_length_a 17.698560
_cell_length_b 9.294481
_cell_length_c 23.924720
_cell_angle_alpha 90.000000
_cell_angle_beta 90.000000
_cell_angle_gamma 90.000000
_cell_volume 3935.590832
_symmetry_space_group_name_H-M "C C C A"
_symmetry_group_IT_number 68
_space_group.IT_coordinate_system_code '2'
_symmetry_cell_setting 'orthorhombic'
loop_
_space_group_symop_operation_xyz
x,y,z
-x,1/2-y,z
x,1/2-y,1/2-z
-x,y,1/2-z
-x,-y,-z
x,1/2+y,-z
-x,1/2+y,1/2+z
x,-y,1/2+z
1/2+x,1/2+y,z
1/2-x,-y,z
1/2+x,-y,1/2-z
1/2-x,1/2+y,1/2-z
1/2-x,1/2-y,-z
1/2+x,y,-z
1/2-x,y,1/2+z
1/2+x,1/2-y,1/2+z
loop_
_atom_site_type_symbol
_atom_site_label
_atom_site_fract_x
_atom_site_fract_y
_atom_site_fract_z
Si Si1 0.605786 0.862510 0.554035
Si Si2 0.528460 0.403852 0.813103
Si Si3 0.549842 0.075788 0.406493
Si Si4 0.818288 0.596582 0.869504
Si Si5 0.814159 0.123446 0.441038
O O1 0.517271 0.905467 0.547824
O O2 0.596113 0.724410 0.594051
O O3 0.657500 0.819210 0.501457
O O4 0.644669 0.000362 0.581319
O O5 0.500000 0.250000 0.835840
O O6 0.500000 0.417069 0.750000
O O7 0.493267 0.530554 0.850312
O O8 0.617980 0.393949 0.822128
O O9 0.609750 0.953909 0.419917
O O10 0.750000 0.500000 0.848337
O O11 0.795477 0.747359 0.898247
O O12 0.750000 0.000000 0.445810
#
# Coordination Sequence:
#
# PCOD9507881 Si02
#       5
#    16  16  16  16  16
#     4  10  22  37  60  90 134 170 215 257 316 383
#     4  10  21  43  73  91 117 166 218 272 334 394
#     4  10  21  39  60  93 122 166 219 270 312 388
#     4  11  23  40  63  97 135 168 211 273 324 381
#     4  12  23  37  60  91 134 181 217 254 320 389
#
# _framework density 20.327316
#
# number of rings (size 3 to 8) (size 9 to 14) (size 15 to 20)
#    0.000    1.400    2.000    3.600    0.000    7.200 
#    0.000    9.000    4.400    0.000    0.000    0.000 
#    0.000    0.000    0.000    0.000    0.000    0.000 
#
# Total GULP energy -223148.148983 kJ/mol
# GULP energy per Si atom -5578.703725 kJ/mol
# Density = 2.028105 g / cm^3
# Si number density = 20.327316 Si / 1000 Ang^3
#
#
#
# Elastic Constant Matrix: (Units=GPa)
#
#
# Indices 1 2 3 4 5 6 
#
# 1 142.6075 43.5529 35.5507 0.0000 0.0000 0.0000
# 2 43.5529 126.3930 40.3793 0.0000 0.0000 0.0000
# 3 35.5507 40.3793 72.7603 0.0000 0.0000 0.0000
# 4 0.0000 0.0000 0.0000 34.0788 0.0000 0.0000
# 5 0.0000 0.0000 0.0000 0.0000 13.2897 0.0000
# 6 0.0000 0.0000 0.0000 0.0000 0.0000 40.7174
#
#
#
# Elastic Compliance Matrix: (Units=1/GPa)
#
#
# Indices 1 2 3 4 5 6 
#
# 1 0.008349 -0.001913 -0.003018 0.000000 0.000000 0.000000
# 2 -0.001913 0.010055 -0.004646 0.000000 0.000000 0.000000
# 3 -0.003018 -0.004646 0.017796 0.000000 0.000000 0.000000
# 4 0.000000 0.000000 0.000000 0.029344 0.000000 0.000000
# 5 0.000000 0.000000 0.000000 0.000000 0.075246 0.000000
# 6 0.000000 0.000000 0.000000 0.000000 0.000000 0.024560
#
#
# Mechanical properties :
#
#
# Convention : Reuss Voigt Hill
#
# Bulk Modulus (GPa) = 58.65782 64.52518 61.59150
# Shear Modulus (GPa) = 26.29029 32.43572 29.36301
#
# Velocity S-wave (km/s) = 3.60022 3.99892 3.80479
# Velocity P-wave (km/s) = 6.79716 7.28929 7.04752
#
# Compressibility (1/GPa) = 0.01704802
#
# Stress axis : x y z
#
# Youngs Moduli (GPa) = 119.77927 99.45208 56.19131
#
# Poissons Ratio (x) = 0.19023 0.16957
# Poissons Ratio (y) = 0.22911 0.26104
# Poissons Ratio (z) = 0.36145 0.46202
#
# Static dielectric constant tensor:
#      x y z
#    x 1.783710 0.000000 0.000000 
#    y 0.000000 1.752630 0.000000 
#    z 0.000000 0.000000 1.714780 
# 
# From -- ./inp_files/49154.got.cif
#   From: 2010.05.17/outbox.cif.g08.bks.cpg/sg68_25_cif.got.tgz:49154.got - 2010.06.03 18:57:09.
