data_PCOD9507856
_publ_section_title
;
Structure prediction by ZEFSAII (Michael W. Deem and Ramdas Pophale) SiO2 
 PCOD9507856
Probable space group: C C C A
;
_chemical_formula_sum "Si O2"
_cell_formula_units_Z 96
_cell_length_a 10.713471
_cell_length_b 19.707343
_cell_length_c 18.990981
_cell_angle_alpha 90.000000
_cell_angle_beta 90.000000
_cell_angle_gamma 90.000000
_cell_volume 4009.642689
_symmetry_space_group_name_H-M "C C C A"
_symmetry_group_IT_number 68
_space_group.IT_coordinate_system_code '2'
_symmetry_cell_setting 'orthorhombic'
loop_
_space_group_symop_operation_xyz
x,y,z
-x,1/2-y,z
x,1/2-y,1/2-z
-x,y,1/2-z
-x,-y,-z
x,1/2+y,-z
-x,1/2+y,1/2+z
x,-y,1/2+z
1/2+x,1/2+y,z
1/2-x,-y,z
1/2+x,-y,1/2-z
1/2-x,1/2+y,1/2-z
1/2-x,1/2-y,-z
1/2+x,y,-z
1/2-x,y,1/2+z
1/2+x,1/2-y,1/2+z
loop_
_atom_site_type_symbol
_atom_site_label
_atom_site_fract_x
_atom_site_fract_y
_atom_site_fract_z
Si Si1 0.641863 0.231014 0.901439
Si Si2 0.257615 0.918897 0.841314
Si Si3 0.253871 0.140201 0.480417
Si Si4 0.988745 0.445182 0.172736
Si Si5 0.128277 0.549243 0.417379
Si Si6 0.234835 0.140213 0.697237
O O1 0.500000 0.250000 0.884800
O O2 0.699583 0.293455 0.943679
O O3 0.725673 0.213038 0.833182
O O4 0.659082 0.166637 0.955534
O O5 0.315660 0.901384 0.916662
O O6 0.307871 0.875751 0.776045
O O7 0.109815 0.900487 0.842120
O O8 0.250000 0.000000 0.827714
O O9 0.144418 0.093190 0.512728
O O10 0.975570 0.497281 0.108721
O O11 0.864859 0.401205 0.184633
O O12 0.000000 0.480275 0.250000
O O13 0.250000 0.500000 0.418478
O O14 0.139153 0.604409 0.355406
#
# Coordination Sequence:
#
# PCOD9507856 Si02
#       6
#    16  16  16  16  16  16
#     4  10  21  39  57  75 105 146 189 230 266 314
#     4  11  21  33  51  82 114 137 173 225 277 334
#     4  10  22  35  52  80 108 142 185 223 274 329
#     4   9  17  30  51  79 107 139 179 219 268 324
#     4   9  17  33  53  74 106 143 175 219 275 325
#     4   9  18  34  55  76 104 139 179 226 272 319
#
# _framework density 23.942284000000001
#
# number of rings (size 3 to 8) (size 9 to 14) (size 15 to 20)
#    0.000    2.333    0.000    4.000    0.000    2.667 
#    0.000    0.833    0.000    0.000    0.000   10.500 
#    0.000    0.000    0.000    0.000    0.000    0.000 
#
# Total GULP energy -267829.762162 kJ/mol
# GULP energy per Si atom -5579.786712 kJ/mol
# Density = 2.388779 g / cm^3
# Si number density = 23.942284 Si / 1000 Ang^3
#
#
#
# Elastic Constant Matrix: (Units=GPa)
#
#
# Indices 1 2 3 4 5 6 
#
# 1 11.3278 -0.9566 -10.7351 0.0000 0.0000 0.0000
# 2 -0.9566 79.4320 52.3754 0.0000 0.0000 0.0000
# 3 -10.7351 52.3754 166.0413 0.0000 0.0000 0.0000
# 4 0.0000 0.0000 0.0000 39.0846 0.0000 0.0000
# 5 0.0000 0.0000 0.0000 0.0000 20.3010 0.0000
# 6 0.0000 0.0000 0.0000 0.0000 0.0000 28.7453
#
#
#
# Elastic Compliance Matrix: (Units=1/GPa)
#
#
# Indices 1 2 3 4 5 6 
#
# 1 0.094877 -0.003664 0.007290 0.000000 0.000000 0.000000
# 2 -0.003664 0.016037 -0.005296 0.000000 0.000000 0.000000
# 3 0.007290 -0.005296 0.008164 0.000000 0.000000 0.000000
# 4 0.000000 0.000000 0.000000 0.025586 0.000000 0.000000
# 5 0.000000 0.000000 0.000000 0.000000 0.049259 0.000000
# 6 0.000000 0.000000 0.000000 0.000000 0.000000 0.034788
#
#
# Mechanical properties :
#
#
# Convention : Reuss Voigt Hill
#
# Bulk Modulus (GPa) = 8.64013 37.57430 23.10722
# Shear Modulus (GPa) = 18.47538 32.03402 25.25470
#
# Velocity S-wave (km/s) = 2.78090 3.66179 3.25132
# Velocity P-wave (km/s) = 3.73199 5.79707 4.87513
#
# Compressibility (1/GPa) = 0.11573896
#
# Stress axis : x y z
#
# Youngs Moduli (GPa) = 10.53993 62.35574 122.48400
#
# Poissons Ratio (x) = 0.22849 -0.89291
# Poissons Ratio (y) = 0.03862 0.64862
# Poissons Ratio (z) = -0.07684 0.33021
#
# Static dielectric constant tensor:
#      x y z
#    x 1.966300 0.000000 0.000000 
#    y 0.000000 1.956440 0.000000 
#    z 0.000000 0.000000 1.971500 
# 
# From -- ./inp_files/29811.got.cif
#   From: 2010.05.17/outbox.cif.g08.bks.cpg/sg68_15_cif.got.tgz:29811.got - 2010.06.03 18:57:09.
