data_PCOD9507151
_publ_section_title
;
Structure prediction by ZEFSAII (Michael W. Deem and Ramdas Pophale) SiO2 
 PCOD9507151
Probable space group: C C C A
;
_chemical_formula_sum "Si O2"
_cell_formula_units_Z 72
_cell_length_a 18.429791
_cell_length_b 9.563677
_cell_length_c 18.660844
_cell_angle_alpha 90.000000
_cell_angle_beta 90.000000
_cell_angle_gamma 90.000000
_cell_volume 3289.096325
_symmetry_space_group_name_H-M "C C C A"
_symmetry_group_IT_number 68
_space_group.IT_coordinate_system_code '2'
_symmetry_cell_setting 'orthorhombic'
loop_
_space_group_symop_operation_xyz
x,y,z
-x,1/2-y,z
x,1/2-y,1/2-z
-x,y,1/2-z
-x,-y,-z
x,1/2+y,-z
-x,1/2+y,1/2+z
x,-y,1/2+z
1/2+x,1/2+y,z
1/2-x,-y,z
1/2+x,-y,1/2-z
1/2-x,1/2+y,1/2-z
1/2-x,1/2-y,-z
1/2+x,y,-z
1/2-x,y,1/2+z
1/2+x,1/2-y,1/2+z
loop_
_atom_site_type_symbol
_atom_site_label
_atom_site_fract_x
_atom_site_fract_y
_atom_site_fract_z
Si Si1 0.388237 0.028999 0.723395
Si Si2 0.515645 0.407316 0.114612
Si Si3 0.329484 0.710614 0.150963
Si Si4 0.698742 0.250000 0.250000
Si Si5 0.068185 0.637619 0.532679
O O1 0.380481 0.113629 0.797508
O O2 0.345390 0.129239 0.669365
O O3 0.462320 0.999995 0.681830
O O4 0.350090 0.880382 0.729368
O O5 0.500000 0.250000 0.139099
O O6 0.455136 0.491742 0.070056
O O7 0.575719 0.386494 0.052069
O O8 0.249441 0.694248 0.184358
O O9 0.358405 0.684530 0.071678
O O10 0.000000 0.750000 0.542386
#
# Coordination Sequence:
#
# PCOD9507151 Si02
#       5
#    16  16  16   8  16
#     4  10  21  39  59  84 120 153 196 243 293 342
#     4  10  22  38  58  89 122 153 189 248 294 346
#     4  10  20  39  62  81 115 159 195 237 295 349
#     4  10  22  40  58  88 118 150 202 258 280 332
#     4  10  20  39  61  85 121 154 196 235 298 359
#
# _framework density 21.890511
#
# number of rings (size 3 to 8) (size 9 to 14) (size 15 to 20)
#    0.000    2.222    2.222    2.667    3.111    0.889 
#    0.000    1.111    0.000    8.000    0.000    1.556 
#    0.000    0.000    0.000    0.000    0.000    0.000 
#
# Total GULP energy -200618.761646 kJ/mol
# GULP energy per Si atom -5572.743379 kJ/mol
# Density = 2.184069 g / cm^3
# Si number density = 21.890511 Si / 1000 Ang^3
#
#
#
# Elastic Constant Matrix: (Units=GPa)
#
#
# Indices 1 2 3 4 5 6 
#
# 1 28.1587 6.7269 11.2991 0.0000 0.0000 0.0000
# 2 6.7269 109.8689 -1.7684 0.0000 0.0000 0.0000
# 3 11.2991 -1.7684 79.1076 0.0000 0.0000 0.0000
# 4 0.0000 0.0000 0.0000 20.2181 0.0000 0.0000
# 5 0.0000 0.0000 0.0000 0.0000 -5.0855 0.0000
# 6 0.0000 0.0000 0.0000 0.0000 0.0000 1359.2650
#
#
#
# Elastic Compliance Matrix: (Units=1/GPa)
#
#
# Indices 1 2 3 4 5 6 
#
# 1 0.038312 -0.002435 -0.005527 0.000000 0.000000 0.000000
# 2 -0.002435 0.009260 0.000555 0.000000 0.000000 0.000000
# 3 -0.005527 0.000555 0.013443 0.000000 0.000000 0.000000
# 4 0.000000 0.000000 0.000000 0.049461 0.000000 0.000000
# 5 0.000000 0.000000 0.000000 0.000000 -0.196637 0.000000
# 6 0.000000 0.000000 0.000000 0.000000 0.000000 0.000736
#
#
# Mechanical properties :
#
#
# Convention : Reuss Voigt Hill
#
# Bulk Modulus (GPa) = 21.64422 27.73890 24.69156
# Shear Modulus (GPa) = -90.56006 288.27136 98.85565
#
# Velocity S-wave (km/s) = -6.43889 11.48798 6.72734
# Velocity P-wave (km/s) = 6.73574 13.73550 8.46445
#
# Compressibility (1/GPa) = 0.04620172
#
# Stress axis : x y z
#
# Youngs Moduli (GPa) = 26.10127 107.99423 74.38929
#
# Poissons Ratio (x) = 0.26293 0.41112
# Poissons Ratio (y) = 0.06355 -0.04127
# Poissons Ratio (z) = 0.14425 -0.05991
#
# Static dielectric constant tensor:
#      x y z
#    x 2.875280 0.000000 0.000000 
#    y 0.000000 1.791710 0.000000 
#    z 0.000000 0.000000 1.831490 
# 
# From -- ./inp_files/40081.got.cif
#   From: 2010.05.17/outbox.cif.g08.bks.cpg/sg68_21_cif.got.tgz:40081.got - 2010.06.03 18:57:09.
