data_PCOD9507793
_publ_section_title
;
Structure prediction by ZEFSAII (Michael W. Deem and Ramdas Pophale) SiO2 
 PCOD9507793
Probable space group: C C C A
;
_chemical_formula_sum "Si O2"
_cell_formula_units_Z 80
_cell_length_a 12.846506
_cell_length_b 28.110360
_cell_length_c 10.337350
_cell_angle_alpha 90.000000
_cell_angle_beta 90.000000
_cell_angle_gamma 90.000000
_cell_volume 3733.022885
_symmetry_space_group_name_H-M "C C C A"
_symmetry_group_IT_number 68
_space_group.IT_coordinate_system_code '2'
_symmetry_cell_setting 'orthorhombic'
loop_
_space_group_symop_operation_xyz
x,y,z
-x,1/2-y,z
x,1/2-y,1/2-z
-x,y,1/2-z
-x,-y,-z
x,1/2+y,-z
-x,1/2+y,1/2+z
x,-y,1/2+z
1/2+x,1/2+y,z
1/2-x,-y,z
1/2+x,-y,1/2-z
1/2-x,1/2+y,1/2-z
1/2-x,1/2-y,-z
1/2+x,y,-z
1/2-x,y,1/2+z
1/2+x,1/2-y,1/2+z
loop_
_atom_site_type_symbol
_atom_site_label
_atom_site_fract_x
_atom_site_fract_y
_atom_site_fract_z
Si Si1 0.899169 0.423956 0.028395
Si Si2 0.911738 0.078317 0.856958
Si Si3 0.250000 0.500000 0.888276
Si Si4 0.151172 0.801063 0.804290
Si Si5 0.000000 0.877096 0.750000
Si Si6 0.250266 0.842968 0.543257
O O1 0.821042 0.466970 0.022854
O O2 0.838858 0.376913 0.979001
O O3 0.919138 0.410183 0.177595
O O4 0.011508 0.436116 0.973304
O O5 0.831027 0.036197 0.817977
O O6 0.842346 0.121831 0.908867
O O7 0.000000 0.089633 0.750000
O O8 0.116684 0.750000 0.750000
O O9 0.060771 0.839218 0.838153
O O10 0.208900 0.821117 0.676938
O O11 0.218584 0.804325 0.935024
#
# Coordination Sequence:
#
# PCOD9507793 Si02
#       6
#    16  16   8  16   8  16
#     4  10  21  40  60  86 125 165 208 263 313 392
#     4  11  22  40  62  89 129 171 214 273 323 390
#     4  10  24  38  58  96 118 170 220 266 318 384
#     4  11  21  39  64  94 124 162 214 268 320 396
#     4  10  21  38  64  82 122 168 206 252 327 382
#     4  10  22  39  63  94 125 170 212 258 340 388
#
# _framework density 21.430354000000001
#
# number of rings (size 3 to 8) (size 9 to 14) (size 15 to 20)
#    0.000    1.600    2.000    2.700    1.400    0.800 
#    0.000    0.000    0.000    1.200    0.000    0.000 
#    0.000    0.000    0.000    0.000    0.000    0.000 
#
# Total GULP energy -222716.055491 kJ/mol
# GULP energy per Si atom -5567.901387 kJ/mol
# Density = 2.138158 g / cm^3
# Si number density = 21.430354 Si / 1000 Ang^3
#
#
#
# Elastic Constant Matrix: (Units=GPa)
#
#
# Indices 1 2 3 4 5 6 
#
# 1 118.7428 48.7063 20.9336 0.0000 0.0000 0.0000
# 2 48.7063 92.8822 36.9909 0.0000 0.0000 0.0000
# 3 20.9336 36.9909 58.9511 0.0000 0.0000 0.0000
# 4 0.0000 0.0000 0.0000 -10.4900 0.0000 0.0000
# 5 0.0000 0.0000 0.0000 0.0000 25.8020 0.0000
# 6 0.0000 0.0000 0.0000 0.0000 0.0000 19.1281
#
#
#
# Elastic Compliance Matrix: (Units=1/GPa)
#
#
# Indices 1 2 3 4 5 6 
#
# 1 0.010736 -0.005481 -0.000373 0.000000 0.000000 0.000000
# 2 -0.005481 0.017152 -0.008816 0.000000 0.000000 0.000000
# 3 -0.000373 -0.008816 0.022628 0.000000 0.000000 0.000000
# 4 0.000000 0.000000 0.000000 -0.095329 0.000000 0.000000
# 5 0.000000 0.000000 0.000000 0.000000 0.038757 0.000000
# 6 0.000000 0.000000 0.000000 0.000000 0.000000 0.052279
#
#
# Mechanical properties :
#
#
# Convention : Reuss Voigt Hill
#
# Bulk Modulus (GPa) = 47.22625 53.75975 50.49300
# Shear Modulus (GPa) = 60.51845 17.81771 39.16808
#
# Velocity S-wave (km/s) = 5.31986 2.88657 4.27979
# Velocity P-wave (km/s) = 7.73430 6.02080 6.93071
#
# Compressibility (1/GPa) = 0.02117466
#
# Stress axis : x y z
#
# Youngs Moduli (GPa) = 93.14849 58.30382 44.19394
#
# Poissons Ratio (x) = 0.31957 0.01648
# Poissons Ratio (y) = 0.51055 0.38961
# Poissons Ratio (z) = 0.03474 0.51401
#
# Static dielectric constant tensor:
#      x y z
#    x 1.854160 0.000000 0.000000 
#    y 0.000000 1.794330 0.000000 
#    z 0.000000 0.000000 1.865500 
# 
# From -- ./inp_files/11981.got.cif
#   From: 2010.05.17/outbox.cif.g08.bks.cpg/sg68_6_cif.got.tgz:11981.got - 2010.06.03 18:57:09.
