data_PCOD9507190
_publ_section_title
;
Structure prediction by ZEFSAII (Michael W. Deem and Ramdas Pophale) SiO2 
 PCOD9507190
Probable space group: C C C A
;
_chemical_formula_sum "Si O2"
_cell_formula_units_Z 64
_cell_length_a 19.057633
_cell_length_b 17.411594
_cell_length_c 8.953095
_cell_angle_alpha 90.000000
_cell_angle_beta 90.000000
_cell_angle_gamma 90.000000
_cell_volume 2970.849722
_symmetry_space_group_name_H-M "C C C A"
_symmetry_group_IT_number 68
_space_group.IT_coordinate_system_code '2'
_symmetry_cell_setting 'orthorhombic'
loop_
_space_group_symop_operation_xyz
x,y,z
-x,1/2-y,z
x,1/2-y,1/2-z
-x,y,1/2-z
-x,-y,-z
x,1/2+y,-z
-x,1/2+y,1/2+z
x,-y,1/2+z
1/2+x,1/2+y,z
1/2-x,-y,z
1/2+x,-y,1/2-z
1/2-x,1/2+y,1/2-z
1/2-x,1/2-y,-z
1/2+x,y,-z
1/2-x,y,1/2+z
1/2+x,1/2-y,1/2+z
loop_
_atom_site_type_symbol
_atom_site_label
_atom_site_fract_x
_atom_site_fract_y
_atom_site_fract_z
Si Si1 0.537885 0.617075 0.092864
Si Si2 0.182319 0.833948 0.690941
Si Si3 0.793108 0.079832 0.000523
Si Si4 0.058657 0.440711 0.879594
O O1 0.500000 0.620577 0.250000
O O2 0.607410 0.665824 0.106948
O O3 0.560630 0.528745 0.059386
O O4 0.475898 0.627789 0.975857
O O5 0.198137 0.750000 0.750000
O O6 0.181113 0.891861 0.835200
O O7 0.239076 0.861345 0.572300
O O8 0.750000 0.000000 0.014368
O O9 0.858348 0.075293 0.883377
O O10 0.000000 0.446316 0.750000
#
# Coordination Sequence:
#
# PCOD9507190 Si02
#       4
#    16  16  16  16
#     4  10  20  39  64  94 129 170 220 273 326 394
#     4  12  27  44  67  99 143 178 218 280 351 405
#     4  12  25  44  71 102 129 181 231 277 329 405
#     4  10  22  39  68 101 129 165 229 285 320 381
#
# _framework density 21.542657999999999
#
# number of rings (size 3 to 8) (size 9 to 14) (size 15 to 20)
#    0.000    1.000    5.000    1.500    3.500    0.500 
#    0.000    0.000    0.000    0.000    0.000    0.000 
#    0.000    0.000    0.000    0.000    0.000    0.000 
#
# Total GULP energy -178217.005207 kJ/mol
# GULP energy per Si atom -5569.281413 kJ/mol
# Density = 2.149363 g / cm^3
# Si number density = 21.542658 Si / 1000 Ang^3
#
#
#
# Elastic Constant Matrix: (Units=GPa)
#
#
# Indices 1 2 3 4 5 6 
#
# 1 123.6934 8.8213 1.3929 0.0000 0.0000 0.0000
# 2 8.8213 55.7947 -1.0274 0.0000 0.0000 0.0000
# 3 1.3929 -1.0274 38.8480 0.0000 0.0000 0.0000
# 4 0.0000 0.0000 0.0000 14.0154 0.0000 0.0000
# 5 0.0000 0.0000 0.0000 0.0000 20.0382 0.0000
# 6 0.0000 0.0000 0.0000 0.0000 0.0000 9.9401
#
#
#
# Elastic Compliance Matrix: (Units=1/GPa)
#
#
# Indices 1 2 3 4 5 6 
#
# 1 0.008181 -0.001299 -0.000328 0.000000 0.000000 0.000000
# 2 -0.001299 0.018138 0.000526 0.000000 0.000000 0.000000
# 3 -0.000328 0.000526 0.025767 0.000000 0.000000 0.000000
# 4 0.000000 0.000000 0.000000 0.071350 0.000000 0.000000
# 5 0.000000 0.000000 0.000000 0.000000 0.049905 0.000000
# 6 0.000000 0.000000 0.000000 0.000000 0.000000 0.100602
#
#
# Mechanical properties :
#
#
# Convention : Reuss Voigt Hill
#
# Bulk Modulus (GPa) = 20.04644 26.30108 23.17376
# Shear Modulus (GPa) = 17.07808 22.74202 19.91005
#
# Velocity S-wave (km/s) = 2.81865 3.25264 3.04339
# Velocity P-wave (km/s) = 4.46304 5.13240 4.80938
#
# Compressibility (1/GPa) = 0.04988417
#
# Stress axis : x y z
#
# Youngs Moduli (GPa) = 122.23647 55.13292 38.80926
#
# Poissons Ratio (x) = 0.07164 0.01272
# Poissons Ratio (y) = 0.15884 -0.02042
# Poissons Ratio (z) = 0.04006 -0.02902
#
# Static dielectric constant tensor:
#      x y z
#    x 1.837250 0.000000 0.000000 
#    y 0.000000 1.774130 0.000000 
#    z 0.000000 0.000000 1.872740 
# 
# From -- ./inp_files/5812.got.cif
#   From: 2010.05.17/outbox.cif.g08.bks.cpg/sg68_3_cif.got.tgz:5812.got - 2010.06.03 18:57:09.
