data_PCOD9507369
_publ_section_title
;
Structure prediction by ZEFSAII (Michael W. Deem and Ramdas Pophale) SiO2 
 PCOD9507369
Probable space group: C C C A
;
_chemical_formula_sum "Si O2"
_cell_formula_units_Z 64
_cell_length_a 4.906474
_cell_length_b 22.923424
_cell_length_c 25.293895
_cell_angle_alpha 90.000000
_cell_angle_beta 90.000000
_cell_angle_gamma 90.000000
_cell_volume 2844.884903
_symmetry_space_group_name_H-M "C C C A"
_symmetry_group_IT_number 68
_space_group.IT_coordinate_system_code '2'
_symmetry_cell_setting 'orthorhombic'
loop_
_space_group_symop_operation_xyz
x,y,z
-x,1/2-y,z
x,1/2-y,1/2-z
-x,y,1/2-z
-x,-y,-z
x,1/2+y,-z
-x,1/2+y,1/2+z
x,-y,1/2+z
1/2+x,1/2+y,z
1/2-x,-y,z
1/2+x,-y,1/2-z
1/2-x,1/2+y,1/2-z
1/2-x,1/2-y,-z
1/2+x,y,-z
1/2-x,y,1/2+z
1/2+x,1/2-y,1/2+z
loop_
_atom_site_type_symbol
_atom_site_label
_atom_site_fract_x
_atom_site_fract_y
_atom_site_fract_z
Si Si1 0.306959 0.127825 0.538035
Si Si2 0.443764 0.817629 0.360003
Si Si3 0.930768 0.878505 0.311330
Si Si4 0.750000 0.000000 0.286255
Si Si5 0.750000 0.000000 0.959969
O O1 0.509411 0.133803 0.487709
O O2 0.432871 0.169697 0.581899
O O3 0.290367 0.063344 0.565497
O O4 0.500000 0.750000 0.349082
O O5 0.142980 0.843971 0.349168
O O6 0.634814 0.853168 0.320946
O O7 0.000000 0.869320 0.250000
O O8 0.898552 0.948316 0.318005
O O9 0.500000 0.975748 0.250000
O O10 0.500000 0.000000 0.000000
#
# Coordination Sequence:
#
# PCOD9507369 Si02
#       5
#    16  16  16   8   8
#     4  10  21  40  63  89 126 166 209 270 327 377
#     4  12  26  41  63  97 130 174 228 258 310 400
#     4  11  24  44  67  94 131 169 212 274 330 381
#     4  10  20  41  70  99 128 164 216 271 338 405
#     4   8  16  33  58  85 114 152 198 247 312 379
#
# _framework density 22.496516
#
# number of rings (size 3 to 8) (size 9 to 14) (size 15 to 20)
#    0.000    1.500    0.000    6.000    0.000    5.000 
#    0.000    7.500    0.000    0.000    0.000    0.000 
#    0.000    0.000    0.000    0.000    0.000    0.000 
#
# Total GULP energy -178426.884434 kJ/mol
# GULP energy per Si atom -5575.840139 kJ/mol
# Density = 2.244531 g / cm^3
# Si number density = 22.496516 Si / 1000 Ang^3
#
#
#
# Elastic Constant Matrix: (Units=GPa)
#
#
# Indices 1 2 3 4 5 6 
#
# 1 113.7001 3.2162 -10.0194 0.0000 0.0000 0.0000
# 2 3.2162 117.4029 -2.5347 0.0000 0.0000 0.0000
# 3 -10.0194 -2.5347 69.1310 0.0000 0.0000 0.0000
# 4 0.0000 0.0000 0.0000 16.4504 0.0000 0.0000
# 5 0.0000 0.0000 0.0000 0.0000 26.9898 0.0000
# 6 0.0000 0.0000 0.0000 0.0000 0.0000 27.5795
#
#
#
# Elastic Compliance Matrix: (Units=1/GPa)
#
#
# Indices 1 2 3 4 5 6 
#
# 1 0.008914 -0.000216 0.001284 0.000000 0.000000 0.000000
# 2 -0.000216 0.008530 0.000281 0.000000 0.000000 0.000000
# 3 0.001284 0.000281 0.014662 0.000000 0.000000 0.000000
# 4 0.000000 0.000000 0.000000 0.060789 0.000000 0.000000
# 5 0.000000 0.000000 0.000000 0.000000 0.037051 0.000000
# 6 0.000000 0.000000 0.000000 0.000000 0.000000 0.036259
#
#
# Mechanical properties :
#
#
# Convention : Reuss Voigt Hill
#
# Bulk Modulus (GPa) = 28.73265 31.28424 30.00845
# Shear Modulus (GPa) = 28.55384 34.84206 31.69795
#
# Velocity S-wave (km/s) = 3.56653 3.93972 3.75776
# Velocity P-wave (km/s) = 5.45527 5.88486 5.67413
#
# Compressibility (1/GPa) = 0.03480361
#
# Stress axis : x y z
#
# Youngs Moduli (GPa) = 112.17873 117.23765 68.20485
#
# Poissons Ratio (x) = 0.02538 -0.08758
# Poissons Ratio (y) = 0.02428 -0.01919
# Poissons Ratio (z) = -0.14404 -0.03299
#
# Static dielectric constant tensor:
#      x y z
#    x 1.783160 0.000000 0.000000 
#    y 0.000000 1.969800 0.000000 
#    z 0.000000 0.000000 1.854680 
# 
# From -- ./inp_files/42155.got.cif
#   From: 2010.05.17/outbox.cif.g08.bks.cpg/sg68_22_cif.got.tgz:42155.got - 2010.06.03 18:57:09.
