data_PCOD9507366
_publ_section_title
;
Structure prediction by ZEFSAII (Michael W. Deem and Ramdas Pophale) SiO2 
 PCOD9507366
Probable space group: C C C A
;
_chemical_formula_sum "Si O2"
_cell_formula_units_Z 36
_cell_length_a 12.306074
_cell_length_b 7.263970
_cell_length_c 16.367642
_cell_angle_alpha 90.000000
_cell_angle_beta 90.000000
_cell_angle_gamma 90.000000
_cell_volume 1463.119106
_symmetry_space_group_name_H-M "C C C A"
_symmetry_group_IT_number 68
_space_group.IT_coordinate_system_code '2'
_symmetry_cell_setting 'orthorhombic'
loop_
_space_group_symop_operation_xyz
x,y,z
-x,1/2-y,z
x,1/2-y,1/2-z
-x,y,1/2-z
-x,-y,-z
x,1/2+y,-z
-x,1/2+y,1/2+z
x,-y,1/2+z
1/2+x,1/2+y,z
1/2-x,-y,z
1/2+x,-y,1/2-z
1/2-x,1/2+y,1/2-z
1/2-x,1/2-y,-z
1/2+x,y,-z
1/2-x,y,1/2+z
1/2+x,1/2-y,1/2+z
loop_
_atom_site_type_symbol
_atom_site_label
_atom_site_fract_x
_atom_site_fract_y
_atom_site_fract_z
Si Si1 0.410530 0.024508 0.108682
Si Si2 0.000000 0.250000 0.750000
Si Si3 0.851743 0.127830 0.067463
O O1 0.348516 0.829834 0.106936
O O2 0.536211 0.968270 0.093310
O O3 0.420320 0.131056 0.192699
O O4 0.367765 0.140946 0.031121
O O5 0.750000 0.000000 0.086284
#
# Coordination Sequence:
#
# PCOD9507366 Si02
#       3
#    16   4  16
#     4  10  22  38  64  96 132 181 228 284 352 413
#     4  12  24  42  56  92 156 190 220 282 356 424
#     4  10  20  41  70  96 123 176 246 292 333 409
#
# _framework density 24.604966000000001
#
# number of rings (size 3 to 8) (size 9 to 14) (size 15 to 20)
#    0.000    1.778    0.000    6.667    0.000    3.556 
#    0.000    6.667    0.000    0.000    0.000    0.000 
#    0.000    0.000    0.000    8.000    0.000    0.000 
#
# Total GULP energy -100898.227581 kJ/mol
# GULP energy per Si atom -5605.457088 kJ/mol
# Density = 2.454896 g / cm^3
# Si number density = 24.604966 Si / 1000 Ang^3
#
#
#
# Elastic Constant Matrix: (Units=GPa)
#
#
# Indices 1 2 3 4 5 6 
#
# 1 123.5084 60.7891 41.0072 0.0000 0.0000 0.0000
# 2 60.7891 208.5534 101.4164 0.0000 0.0000 0.0000
# 3 41.0072 101.4164 151.2483 0.0000 0.0000 0.0000
# 4 0.0000 0.0000 0.0000 42.8192 0.0000 0.0000
# 5 0.0000 0.0000 0.0000 0.0000 18.5319 0.0000
# 6 0.0000 0.0000 0.0000 0.0000 0.0000 39.3741
#
#
#
# Elastic Compliance Matrix: (Units=1/GPa)
#
#
# Indices 1 2 3 4 5 6 
#
# 1 0.009569 -0.002267 -0.001075 0.000000 0.000000 0.000000
# 2 -0.002267 0.007652 -0.004516 0.000000 0.000000 0.000000
# 3 -0.001075 -0.004516 0.009931 0.000000 0.000000 0.000000
# 4 0.000000 0.000000 0.000000 0.023354 0.000000 0.000000
# 5 0.000000 0.000000 0.000000 0.000000 0.053961 0.000000
# 6 0.000000 0.000000 0.000000 0.000000 0.000000 0.025397
#
#
# Mechanical properties :
#
#
# Convention : Reuss Voigt Hill
#
# Bulk Modulus (GPa) = 87.43375 98.85951 93.14663
# Shear Modulus (GPa) = 33.46912 38.81821 36.14366
#
# Velocity S-wave (km/s) = 3.69217 3.97628 3.83686
# Velocity P-wave (km/s) = 7.33405 7.83243 7.58733
#
# Compressibility (1/GPa) = 0.01143723
#
# Stress axis : x y z
#
# Youngs Moduli (GPa) = 104.50418 130.68874 100.69252
#
# Poissons Ratio (x) = 0.29622 0.10820
# Poissons Ratio (y) = 0.23687 0.45475
# Poissons Ratio (z) = 0.11230 0.59022
#
# Static dielectric constant tensor:
#      x y z
#    x 1.996710 0.000000 0.000000 
#    y 0.000000 1.999960 0.000000 
#    z 0.000000 0.000000 1.931560 
# 
# From -- ./inp_files/21355.got.cif
#   From: 2010.05.17/outbox.cif.g08.bks.cpg/sg68_11_cif.got.tgz:21355.got - 2010.06.03 18:57:09.
