data_PCOD9507333
_publ_section_title
;
Structure prediction by ZEFSAII (Michael W. Deem and Ramdas Pophale) SiO2 
 PCOD9507333
Probable space group: C C C A
;
_chemical_formula_sum "Si O2"
_cell_formula_units_Z 60
_cell_length_a 12.036233
_cell_length_b 13.169353
_cell_length_c 14.315741
_cell_angle_alpha 90.000000
_cell_angle_beta 90.000000
_cell_angle_gamma 90.000000
_cell_volume 2269.179533
_symmetry_space_group_name_H-M "C C C A"
_symmetry_group_IT_number 68
_space_group.IT_coordinate_system_code '2'
_symmetry_cell_setting 'orthorhombic'
loop_
_space_group_symop_operation_xyz
x,y,z
-x,1/2-y,z
x,1/2-y,1/2-z
-x,y,1/2-z
-x,-y,-z
x,1/2+y,-z
-x,1/2+y,1/2+z
x,-y,1/2+z
1/2+x,1/2+y,z
1/2-x,-y,z
1/2+x,-y,1/2-z
1/2-x,1/2+y,1/2-z
1/2-x,1/2-y,-z
1/2+x,y,-z
1/2-x,y,1/2+z
1/2+x,1/2-y,1/2+z
loop_
_atom_site_type_symbol
_atom_site_label
_atom_site_fract_x
_atom_site_fract_y
_atom_site_fract_z
Si Si1 0.000000 0.250000 0.250000
Si Si2 0.271394 0.619987 0.089014
Si Si3 0.500000 0.417681 0.250000
Si Si4 0.635003 0.180074 0.411954
Si Si5 0.337648 0.599927 0.293922
O O1 0.937159 0.173476 0.318580
O O2 0.250000 0.500000 0.080149
O O3 0.173323 0.702817 0.073333
O O4 0.293980 0.643871 0.196714
O O5 0.371863 0.639970 0.017270
O O6 0.463438 0.349687 0.339720
O O7 0.394872 0.495502 0.257279
O O8 0.743246 0.117439 0.370847
#
# Coordination Sequence:
#
# PCOD9507333 Si02
#       5
#     4  16   8  16  16
#     4  10  20  40  70  94 126 192 252 276 366 454
#     4  11  23  43  76 105 150 203 247 314 380 456
#     4  11  24  41  76 108 144 199 251 321 381 448
#     4  11  24  46  73 111 156 194 254 320 383 450
#     4  11  22  44  73 101 146 196 250 306 373 454
#
# _framework density 26.441275999999998
#
# number of rings (size 3 to 8) (size 9 to 14) (size 15 to 20)
#    0.000    1.067    2.667    4.000    0.000    1.067 
#    0.000   17.333    5.867    0.000    0.000    0.000 
#    0.000    0.000    0.000    0.000    0.000    0.000 
#
# Total GULP energy -167034.948847 kJ/mol
# GULP energy per Si atom -5567.831628 kJ/mol
# Density = 2.638109 g / cm^3
# Si number density = 26.441276 Si / 1000 Ang^3
#
#
#
# Elastic Constant Matrix: (Units=GPa)
#
#
# Indices 1 2 3 4 5 6 
#
# 1 84.7498 33.0507 27.5327 0.0000 0.0000 0.0000
# 2 33.0507 188.5066 37.8507 0.0000 0.0000 0.0000
# 3 27.5327 37.8507 131.5075 0.0000 0.0000 0.0000
# 4 0.0000 0.0000 0.0000 37.0944 0.0000 0.0000
# 5 0.0000 0.0000 0.0000 0.0000 63.6091 0.0000
# 6 0.0000 0.0000 0.0000 0.0000 0.0000 51.2443
#
#
#
# Elastic Compliance Matrix: (Units=1/GPa)
#
#
# Indices 1 2 3 4 5 6 
#
# 1 0.013257 -0.001875 -0.002236 0.000000 0.000000 0.000000
# 2 -0.001875 0.005896 -0.001304 0.000000 0.000000 0.000000
# 3 -0.002236 -0.001304 0.008448 0.000000 0.000000 0.000000
# 4 0.000000 0.000000 0.000000 0.026958 0.000000 0.000000
# 5 0.000000 0.000000 0.000000 0.000000 0.015721 0.000000
# 6 0.000000 0.000000 0.000000 0.000000 0.000000 0.019514
#
#
# Mechanical properties :
#
#
# Convention : Reuss Voigt Hill
#
# Bulk Modulus (GPa) = 59.63222 66.84803 63.24012
# Shear Modulus (GPa) = 47.07452 50.81156 48.94304
#
# Velocity S-wave (km/s) = 4.22399 4.38845 4.30700
# Velocity P-wave (km/s) = 6.81110 7.14245 6.97874
#
# Compressibility (1/GPa) = 0.01676946
#
# Stress axis : x y z
#
# Youngs Moduli (GPa) = 75.43101 169.61941 118.37691
#
# Poissons Ratio (x) = 0.31811 0.26466
# Poissons Ratio (y) = 0.14147 0.15439
# Poissons Ratio (z) = 0.16865 0.22122
#
# Static dielectric constant tensor:
#      x y z
#    x 2.329160 0.000000 0.000000 
#    y 0.000000 2.171600 0.000000 
#    z 0.000000 0.000000 2.019310 
# 
# From -- ./inp_files/13088.got.cif
#   From: 2010.05.17/outbox.cif.g08.bks.cpg/sg68_7_cif.got.tgz:13088.got - 2010.06.03 18:57:09.
