data_PCOD9507781
_publ_section_title
;
Structure prediction by ZEFSAII (Michael W. Deem and Ramdas Pophale) SiO2 
 PCOD9507781
Probable space group: C C C A
;
_chemical_formula_sum "Si O2"
_cell_formula_units_Z 80
_cell_length_a 8.458440
_cell_length_b 15.864286
_cell_length_c 29.996839
_cell_angle_alpha 90.000000
_cell_angle_beta 90.000000
_cell_angle_gamma 90.000000
_cell_volume 4025.189173
_symmetry_space_group_name_H-M "C C C A"
_symmetry_group_IT_number 68
_space_group.IT_coordinate_system_code '2'
_symmetry_cell_setting 'orthorhombic'
loop_
_space_group_symop_operation_xyz
x,y,z
-x,1/2-y,z
x,1/2-y,1/2-z
-x,y,1/2-z
-x,-y,-z
x,1/2+y,-z
-x,1/2+y,1/2+z
x,-y,1/2+z
1/2+x,1/2+y,z
1/2-x,-y,z
1/2+x,-y,1/2-z
1/2-x,1/2+y,1/2-z
1/2-x,1/2-y,-z
1/2+x,y,-z
1/2-x,y,1/2+z
1/2+x,1/2-y,1/2+z
loop_
_atom_site_type_symbol
_atom_site_label
_atom_site_fract_x
_atom_site_fract_y
_atom_site_fract_z
Si Si1 0.682842 0.592214 0.707414
Si Si2 0.316302 0.407158 0.888243
Si Si3 0.811936 0.741226 0.050058
Si Si4 0.626249 0.671016 0.798146
Si Si5 0.123805 0.171755 0.376955
O O1 0.750000 0.500000 0.717736
O O2 0.760467 0.621393 0.661236
O O3 0.703080 0.654551 0.749494
O O4 0.494966 0.592345 0.697999
O O5 0.250000 0.500000 0.895126
O O6 0.247854 0.344323 0.925587
O O7 0.505893 0.405376 0.885399
O O8 0.731991 0.812805 0.080264
O O9 0.000000 0.750000 0.051551
O O10 0.750000 0.750000 0.000000
O O11 0.500000 0.750000 0.802228
O O12 0.760578 0.670404 0.834908
O O13 0.000000 0.250000 0.373296
#
# Coordination Sequence:
#
# PCOD9507781 Si02
#       5
#    16  16  16  16  16
#     4  10  22  38  56  85 125 163 202 255 310 363
#     4  10  22  41  63  91 126 161 206 259 313 376
#     4  11  22  42  67  91 121 160 204 255 315 377
#     4  11  22  39  62  89 122 167 218 261 307 372
#     4  10  21  38  62  92 123 159 207 259 315 371
#
# _framework density 19.874842000000001
#
# number of rings (size 3 to 8) (size 9 to 14) (size 15 to 20)
#    0.000    1.600    0.000    7.200    0.000    8.000 
#    0.000   12.000    0.000    0.000    0.000    0.000 
#    0.000    0.000    0.000    0.000    0.000    0.000 
#
# Total GULP energy -223122.542521 kJ/mol
# GULP energy per Si atom -5578.063563 kJ/mol
# Density = 1.982961 g / cm^3
# Si number density = 19.874842 Si / 1000 Ang^3
#
#
#
# Elastic Constant Matrix: (Units=GPa)
#
#
# Indices 1 2 3 4 5 6 
#
# 1 167.8510 60.5928 100.1329 0.0000 0.0000 0.0000
# 2 60.5928 97.4315 47.7911 0.0000 0.0000 0.0000
# 3 100.1329 47.7911 202.8599 0.0000 0.0000 0.0000
# 4 0.0000 0.0000 0.0000 22.3292 0.0000 0.0000
# 5 0.0000 0.0000 0.0000 0.0000 47.0108 0.0000
# 6 0.0000 0.0000 0.0000 0.0000 0.0000 41.2800
#
#
#
# Elastic Compliance Matrix: (Units=1/GPa)
#
#
# Indices 1 2 3 4 5 6 
#
# 1 0.009753 -0.004188 -0.003827 0.000000 0.000000 0.000000
# 2 -0.004188 0.013403 -0.001090 0.000000 0.000000 0.000000
# 3 -0.003827 -0.001090 0.007076 0.000000 0.000000 0.000000
# 4 0.000000 0.000000 0.000000 0.044784 0.000000 0.000000
# 5 0.000000 0.000000 0.000000 0.000000 0.021272 0.000000
# 6 0.000000 0.000000 0.000000 0.000000 0.000000 0.024225
#
#
# Mechanical properties :
#
#
# Convention : Reuss Voigt Hill
#
# Bulk Modulus (GPa) = 83.19507 98.35289 90.77398
# Shear Modulus (GPa) = 35.03117 39.43238 37.23177
#
# Velocity S-wave (km/s) = 4.20287 4.45908 4.33287
# Velocity P-wave (km/s) = 8.09337 8.72381 8.41449
#
# Compressibility (1/GPa) = 0.01201994
#
# Stress axis : x y z
#
# Youngs Moduli (GPa) = 102.53557 74.61073 141.33031
#
# Poissons Ratio (x) = 0.31246 0.54093
# Poissons Ratio (y) = 0.42940 0.15411
# Poissons Ratio (z) = 0.39244 0.08136
#
# Static dielectric constant tensor:
#      x y z
#    x 1.729390 0.000000 0.000000 
#    y 0.000000 1.816530 0.000000 
#    z 0.000000 0.000000 1.704770 
# 
# From -- ./inp_files/53983.got.cif
#   From: 2010.05.17/outbox.cif.g08.bks.cpg/sg68_27_cif.got.tgz:53983.got - 2010.06.03 18:57:09.
