data_PCOD9507408
_publ_section_title
;
Structure prediction by ZEFSAII (Michael W. Deem and Ramdas Pophale) SiO2 
 PCOD9507408
Probable space group: C C C A
;
_chemical_formula_sum "Si O2"
_cell_formula_units_Z 64
_cell_length_a 13.106758
_cell_length_b 24.685190
_cell_length_c 9.282691
_cell_angle_alpha 90.000000
_cell_angle_beta 90.000000
_cell_angle_gamma 90.000000
_cell_volume 3003.347945
_symmetry_space_group_name_H-M "C C C A"
_symmetry_group_IT_number 68
_space_group.IT_coordinate_system_code '2'
_symmetry_cell_setting 'orthorhombic'
loop_
_space_group_symop_operation_xyz
x,y,z
-x,1/2-y,z
x,1/2-y,1/2-z
-x,y,1/2-z
-x,-y,-z
x,1/2+y,-z
-x,1/2+y,1/2+z
x,-y,1/2+z
1/2+x,1/2+y,z
1/2-x,-y,z
1/2+x,-y,1/2-z
1/2-x,1/2+y,1/2-z
1/2-x,1/2-y,-z
1/2+x,y,-z
1/2-x,y,1/2+z
1/2+x,1/2-y,1/2+z
loop_
_atom_site_type_symbol
_atom_site_label
_atom_site_fract_x
_atom_site_fract_y
_atom_site_fract_z
Si Si1 0.229200 0.750000 0.250000
Si Si2 0.250000 0.000000 0.050462
Si Si3 0.796196 0.075041 0.197225
Si Si4 0.901207 0.674813 0.669606
Si Si5 0.899774 0.145875 0.653604
O O1 0.309949 0.718152 0.351721
O O2 0.157773 0.797619 0.309390
O O3 0.190577 0.038710 0.160660
O O4 0.314099 0.038597 0.943459
O O5 0.861057 0.128519 0.221642
O O6 0.679987 0.097380 0.184361
O O7 0.925227 0.649447 0.514957
O O8 0.000000 0.696244 0.750000
O O9 0.000000 0.140713 0.750000
#
# Coordination Sequence:
#
# PCOD9507408 Si02
#       5
#     8   8  16  16  16
#     4  10  24  42  68  90 126 170 210 256 314 372
#     4  10  20  42  70  88 124 172 208 258 314 372
#     4  10  22  42  66  92 128 166 210 258 314 368
#     4  11  24  41  64  96 129 165 209 259 313 376
#     4  11  24  41  64  96 129 165 209 259 313 376
#
# _framework density 21.309552
#
# number of rings (size 3 to 8) (size 9 to 14) (size 15 to 20)
#    0.000    1.500    2.500    1.500    3.500    6.000 
#    0.000    7.500    0.000    0.000    0.000    0.000 
#    0.000    0.000    0.000    0.000    0.000    0.000 
#
# Total GULP energy -178576.334576 kJ/mol
# GULP energy per Si atom -5580.510455 kJ/mol
# Density = 2.126105 g / cm^3
# Si number density = 21.309552 Si / 1000 Ang^3
#
#
#
# Elastic Constant Matrix: (Units=GPa)
#
#
# Indices 1 2 3 4 5 6 
#
# 1 106.6113 34.2175 42.6007 0.0000 0.0000 0.0000
# 2 34.2175 104.7387 19.4881 0.0000 0.0000 0.0000
# 3 42.6007 19.4881 115.4038 0.0000 0.0000 0.0000
# 4 0.0000 0.0000 0.0000 7.5585 0.0000 0.0000
# 5 0.0000 0.0000 0.0000 0.0000 15.3851 0.0000
# 6 0.0000 0.0000 0.0000 0.0000 0.0000 3.9336
#
#
#
# Elastic Compliance Matrix: (Units=1/GPa)
#
#
# Indices 1 2 3 4 5 6 
#
# 1 0.011949 -0.003183 -0.003874 0.000000 0.000000 0.000000
# 2 -0.003183 0.010705 -0.000633 0.000000 0.000000 0.000000
# 3 -0.003874 -0.000633 0.010202 0.000000 0.000000 0.000000
# 4 0.000000 0.000000 0.000000 0.132301 0.000000 0.000000
# 5 0.000000 0.000000 0.000000 0.000000 0.064998 0.000000
# 6 0.000000 0.000000 0.000000 0.000000 0.000000 0.254219
#
#
# Mechanical properties :
#
#
# Convention : Reuss Voigt Hill
#
# Bulk Modulus (GPa) = 57.21540 57.70739 57.46140
# Shear Modulus (GPa) = 9.88965 20.73860 15.31413
#
# Velocity S-wave (km/s) = 2.15662 3.12301 2.68367
# Velocity P-wave (km/s) = 5.75407 6.33590 6.05198
#
# Compressibility (1/GPa) = 0.01747781
#
# Stress axis : x y z
#
# Youngs Moduli (GPa) = 83.68692 93.41271 98.02029
#
# Poissons Ratio (x) = 0.29734 0.37968
# Poissons Ratio (y) = 0.26638 0.06202
# Poissons Ratio (z) = 0.32416 0.05911
#
# Static dielectric constant tensor:
#      x y z
#    x 1.742850 0.000000 0.000000 
#    y 0.000000 1.798170 0.000000 
#    z 0.000000 0.000000 1.750930 
# 
# From -- ./inp_files/5052.got.cif
#   From: 2010.05.17/outbox.cif.g08.bks.cpg/sg68_3_cif.got.tgz:5052.got - 2010.06.03 18:57:09.
