data_PCOD9507804
_publ_section_title
;
Structure prediction by ZEFSAII (Michael W. Deem and Ramdas Pophale) SiO2 
 PCOD9507804
Probable space group: C C C A
;
_chemical_formula_sum "Si O2"
_cell_formula_units_Z 72
_cell_length_a 22.704105
_cell_length_b 9.263250
_cell_length_c 15.186934
_cell_angle_alpha 90.000000
_cell_angle_beta 90.000000
_cell_angle_gamma 90.000000
_cell_volume 3194.021810
_symmetry_space_group_name_H-M "C C C A"
_symmetry_group_IT_number 68
_space_group.IT_coordinate_system_code '2'
_symmetry_cell_setting 'orthorhombic'
loop_
_space_group_symop_operation_xyz
x,y,z
-x,1/2-y,z
x,1/2-y,1/2-z
-x,y,1/2-z
-x,-y,-z
x,1/2+y,-z
-x,1/2+y,1/2+z
x,-y,1/2+z
1/2+x,1/2+y,z
1/2-x,-y,z
1/2+x,-y,1/2-z
1/2-x,1/2+y,1/2-z
1/2-x,1/2-y,-z
1/2+x,y,-z
1/2-x,y,1/2+z
1/2+x,1/2-y,1/2+z
loop_
_atom_site_type_symbol
_atom_site_label
_atom_site_fract_x
_atom_site_fract_y
_atom_site_fract_z
Si Si1 0.670274 0.750000 0.250000
Si Si2 0.876522 0.972518 0.982642
Si Si3 0.469876 0.593650 0.626404
Si Si4 0.912925 0.015095 0.800086
Si Si5 0.197366 0.203062 0.438214
O O1 0.626515 0.616230 0.233835
O O2 0.709456 0.721948 0.335477
O O3 0.881359 0.062963 0.891249
O O4 0.857388 0.811274 0.957109
O O5 0.934256 0.963903 0.043036
O O6 0.825225 0.044833 0.039269
O O7 0.500000 0.750000 0.611554
O O8 0.427050 0.604539 0.711708
O O9 0.522050 0.486717 0.658261
O O10 0.250000 0.250000 0.500000
#
# Coordination Sequence:
#
# PCOD9507804 Si02
#       5
#     8  16  16  16  16
#     4  10  22  45  66  94 130 178 223 282 340 414
#     4  11  23  43  67  97 138 174 229 282 341 404
#     4  11  22  39  62  99 140 176 221 268 337 413
#     4  10  21  38  64  93 135 173 217 263 340 407
#     4  11  24  46  68  96 128 178 233 290 346 398
#
# _framework density 22.542111999999999
#
# number of rings (size 3 to 8) (size 9 to 14) (size 15 to 20)
#    0.000    1.333    2.222    4.000    0.000    1.778 
#    8.000    2.222    0.000    0.000    0.000    0.000 
#    0.000    0.000    0.000    0.000    0.000    0.000 
#
# Total GULP energy -200860.300916 kJ/mol
# GULP energy per Si atom -5579.452803 kJ/mol
# Density = 2.249081 g / cm^3
# Si number density = 22.542112 Si / 1000 Ang^3
#
#
#
# Elastic Constant Matrix: (Units=GPa)
#
#
# Indices 1 2 3 4 5 6 
#
# 1 59.0612 0.3164 41.4889 0.0000 0.0000 0.0000
# 2 0.3164 37.5837 20.8074 0.0000 0.0000 0.0000
# 3 41.4889 20.8074 174.7658 0.0000 0.0000 0.0000
# 4 0.0000 0.0000 0.0000 24.7297 0.0000 0.0000
# 5 0.0000 0.0000 0.0000 0.0000 47.8406 0.0000
# 6 0.0000 0.0000 0.0000 0.0000 0.0000 22.0269
#
#
#
# Elastic Compliance Matrix: (Units=1/GPa)
#
#
# Indices 1 2 3 4 5 6 
#
# 1 0.020575 0.002710 -0.005207 0.000000 0.000000 0.000000
# 2 0.002710 0.028842 -0.004077 0.000000 0.000000 0.000000
# 3 -0.005207 -0.004077 0.007443 0.000000 0.000000 0.000000
# 4 0.000000 0.000000 0.000000 0.040437 0.000000 0.000000
# 5 0.000000 0.000000 0.000000 0.000000 0.020903 0.000000
# 6 0.000000 0.000000 0.000000 0.000000 0.000000 0.045399
#
#
# Mechanical properties :
#
#
# Convention : Reuss Voigt Hill
#
# Bulk Modulus (GPa) = 22.87763 44.07068 33.47416
# Shear Modulus (GPa) = 26.13445 32.83930 29.48688
#
# Velocity S-wave (km/s) = 3.40863 3.82094 3.62066
# Velocity P-wave (km/s) = 5.06582 6.24972 5.68865
#
# Compressibility (1/GPa) = 0.04371082
#
# Stress axis : x y z
#
# Youngs Moduli (GPa) = 48.60309 34.67209 134.34584
#
# Poissons Ratio (x) = -0.09394 0.69954
# Poissons Ratio (y) = -0.13169 0.54774
# Poissons Ratio (z) = 0.25308 0.14136
#
# Static dielectric constant tensor:
#      x y z
#    x 1.846710 0.000000 0.000000 
#    y 0.000000 1.856810 0.000000 
#    z 0.000000 0.000000 1.896480 
# 
# From -- ./inp_files/25845.got.cif
#   From: 2010.05.17/outbox.cif.g08.bks.cpg/sg68_13_cif.got.tgz:25845.got - 2010.06.03 18:57:09.
