data_PCOD9507993
_publ_section_title
;
Structure prediction by ZEFSAII (Michael W. Deem and Ramdas Pophale) SiO2 
 PCOD9507993
Probable space group: C C C A
;
_chemical_formula_sum "Si O2"
_cell_formula_units_Z 68
_cell_length_a 16.670382
_cell_length_b 8.174906
_cell_length_c 19.440592
_cell_angle_alpha 90.000000
_cell_angle_beta 90.000000
_cell_angle_gamma 90.000000
_cell_volume 2649.340662
_symmetry_space_group_name_H-M "C C C A"
_symmetry_group_IT_number 68
_space_group.IT_coordinate_system_code '2'
_symmetry_cell_setting 'orthorhombic'
loop_
_space_group_symop_operation_xyz
x,y,z
-x,1/2-y,z
x,1/2-y,1/2-z
-x,y,1/2-z
-x,-y,-z
x,1/2+y,-z
-x,1/2+y,1/2+z
x,-y,1/2+z
1/2+x,1/2+y,z
1/2-x,-y,z
1/2+x,-y,1/2-z
1/2-x,1/2+y,1/2-z
1/2-x,1/2-y,-z
1/2+x,y,-z
1/2-x,y,1/2+z
1/2+x,1/2-y,1/2+z
loop_
_atom_site_type_symbol
_atom_site_label
_atom_site_fract_x
_atom_site_fract_y
_atom_site_fract_z
Si Si1 0.000000 0.750000 0.910001
Si Si2 0.357242 0.433867 0.964445
Si Si3 0.792536 0.731163 0.409939
Si Si4 0.000000 0.250000 0.750000
Si Si5 0.250000 0.500000 0.711657
Si Si6 0.577782 0.954680 0.205188
O O1 0.946293 0.871217 0.954022
O O2 0.937286 0.649359 0.862524
O O3 0.293569 0.305484 0.931972
O O4 0.346194 0.608632 0.927361
O O5 0.328932 0.415610 0.043444
O O6 0.777608 0.651795 0.336141
O O7 0.943351 0.353858 0.800178
O O8 0.335800 0.444263 0.742574
O O9 0.500000 0.910045 0.250000
#
# Coordination Sequence:
#
# PCOD9507993 Si02
#       6
#     8  16  16   4   8  16
#     4  12  23  44  69 106 136 191 223 294 362 412
#     4  10  22  38  65  98 146 182 231 279 333 427
#     4  10  21  40  62 101 139 185 234 273 335 430
#     4   8  24  50  66  96 134 168 232 316 348 406
#     4  12  22  46  76  96 138 196 224 294 366 410
#     4  10  25  47  68 103 136 173 241 297 351 426
#
# _framework density 25.666764000000001
#
# number of rings (size 3 to 8) (size 9 to 14) (size 15 to 20)
#    0.706    0.941    2.353    3.176    3.294    0.941 
#    4.235    2.353    0.000    0.000    0.000    0.000 
#    0.000    0.000    0.000    0.000    0.000    0.000 
#
# Total GULP energy -189610.060450 kJ/mol
# GULP energy per Si atom -5576.766484 kJ/mol
# Density = 2.560834 g / cm^3
# Si number density = 25.666764 Si / 1000 Ang^3
#
#
#
# Elastic Constant Matrix: (Units=GPa)
#
#
# Indices 1 2 3 4 5 6 
#
# 1 211.0983 41.8081 28.2390 0.0000 0.0000 0.0000
# 2 41.8081 130.3600 13.2835 0.0000 0.0000 0.0000
# 3 28.2390 13.2835 25.8557 0.0000 0.0000 0.0000
# 4 0.0000 0.0000 0.0000 18.9684 0.0000 0.0000
# 5 0.0000 0.0000 0.0000 0.0000 16.6364 0.0000
# 6 0.0000 0.0000 0.0000 0.0000 0.0000 42.4303
#
#
#
# Elastic Compliance Matrix: (Units=1/GPa)
#
#
# Indices 1 2 3 4 5 6 
#
# 1 0.005740 -0.001268 -0.005617 0.000000 0.000000 0.000000
# 2 -0.001268 0.008375 -0.002917 0.000000 0.000000 0.000000
# 3 -0.005617 -0.002917 0.046310 0.000000 0.000000 0.000000
# 4 0.000000 0.000000 0.000000 0.052719 0.000000 0.000000
# 5 0.000000 0.000000 0.000000 0.000000 0.060109 0.000000
# 6 0.000000 0.000000 0.000000 0.000000 0.000000 0.023568
#
#
# Mechanical properties :
#
#
# Convention : Reuss Voigt Hill
#
# Bulk Modulus (GPa) = 24.49850 59.33058 41.91454
# Shear Modulus (GPa) = 21.73595 34.53924 28.13760
#
# Velocity S-wave (km/s) = 2.91323 3.67233 3.31458
# Velocity P-wave (km/s) = 4.56962 6.41461 5.56905
#
# Compressibility (1/GPa) = 0.04081882
#
# Stress axis : x y z
#
# Youngs Moduli (GPa) = 174.22329 119.40090 21.59364
#
# Poissons Ratio (x) = 0.15145 0.12129
# Poissons Ratio (y) = 0.22099 0.06300
# Poissons Ratio (z) = 0.97864 0.34834
#
# Static dielectric constant tensor:
#      x y z
#    x 2.020650 0.000000 0.000000 
#    y 0.000000 2.170790 0.000000 
#    z 0.000000 0.000000 2.228360 
# 
# From -- ./inp_files/50681.got.cif
#   From: 2010.05.17/outbox.cif.g08.bks.cpg/sg68_26_cif.got.tgz:50681.got - 2010.06.03 18:57:09.
