data_PCOD9507755
_publ_section_title
;
Structure prediction by ZEFSAII (Michael W. Deem and Ramdas Pophale) SiO2 
 PCOD9507755
Probable space group: C C C A
;
_chemical_formula_sum "Si O2"
_cell_formula_units_Z 72
_cell_length_a 12.129413
_cell_length_b 8.531241
_cell_length_c 31.218995
_cell_angle_alpha 90.000000
_cell_angle_beta 90.000000
_cell_angle_gamma 90.000000
_cell_volume 3230.508682
_symmetry_space_group_name_H-M "C C C A"
_symmetry_group_IT_number 68
_space_group.IT_coordinate_system_code '2'
_symmetry_cell_setting 'orthorhombic'
loop_
_space_group_symop_operation_xyz
x,y,z
-x,1/2-y,z
x,1/2-y,1/2-z
-x,y,1/2-z
-x,-y,-z
x,1/2+y,-z
-x,1/2+y,1/2+z
x,-y,1/2+z
1/2+x,1/2+y,z
1/2-x,-y,z
1/2+x,-y,1/2-z
1/2-x,1/2+y,1/2-z
1/2-x,1/2-y,-z
1/2+x,y,-z
1/2-x,y,1/2+z
1/2+x,1/2-y,1/2+z
loop_
_atom_site_type_symbol
_atom_site_label
_atom_site_fract_x
_atom_site_fract_y
_atom_site_fract_z
Si Si1 0.500000 0.250000 0.027042
Si Si2 0.189772 0.224139 0.703397
Si Si3 0.872614 0.443820 0.455964
Si Si4 0.341170 0.141077 0.864107
Si Si5 0.504831 0.997454 0.202789
O O1 0.440787 0.393376 0.051933
O O2 0.581760 0.343699 0.995365
O O3 0.245058 0.250000 0.750000
O O4 0.275007 0.237304 0.664964
O O5 0.115109 0.072157 0.697540
O O6 0.097599 0.363556 0.704766
O O7 0.750000 0.500000 0.465986
O O8 0.870850 0.336984 0.413436
O O9 0.250000 0.000000 0.865588
O O10 0.449149 0.096720 0.837160
O O11 0.500000 0.924068 0.250000
#
# Coordination Sequence:
#
# PCOD9507755 Si02
#       5
#     8  16  16  16  16
#     4  10  22  40  60  84 112 146 184 232 294 352
#     4   8  14  26  44  67  99 137 173 213 259 309
#     4  10  21  38  61  85 113 146 186 234 287 345
#     4   9  17  28  48  77 103 136 180 222 265 322
#     4   8  14  26  44  67  99 136 172 210 256 310
#
# _framework density 22.287512
#
# number of rings (size 3 to 8) (size 9 to 14) (size 15 to 20)
#    0.000    3.111    0.000    2.000    0.000    5.333 
#    0.000    2.222    0.000    0.000    0.000    0.000 
#    0.000    0.000    0.000    0.000    0.000    0.000 
#
# Total GULP energy -200833.220520 kJ/mol
# GULP energy per Si atom -5578.700570 kJ/mol
# Density = 2.223678 g / cm^3
# Si number density = 22.287512 Si / 1000 Ang^3
#
#
#
# Elastic Constant Matrix: (Units=GPa)
#
#
# Indices 1 2 3 4 5 6 
#
# 1 90.2524 21.6646 48.2217 0.0000 0.0000 0.0000
# 2 21.6646 63.7656 9.7669 0.0000 0.0000 0.0000
# 3 48.2217 9.7669 87.5811 0.0000 0.0000 0.0000
# 4 0.0000 0.0000 0.0000 31.5968 0.0000 0.0000
# 5 0.0000 0.0000 0.0000 0.0000 14.6881 0.0000
# 6 0.0000 0.0000 0.0000 0.0000 0.0000 31.2467
#
#
#
# Elastic Compliance Matrix: (Units=1/GPa)
#
#
# Indices 1 2 3 4 5 6 
#
# 1 0.016815 -0.004370 -0.008771 0.000000 0.000000 0.000000
# 2 -0.004370 0.017090 0.000500 0.000000 0.000000 0.000000
# 3 -0.008771 0.000500 0.016192 0.000000 0.000000 0.000000
# 4 0.000000 0.000000 0.000000 0.031649 0.000000 0.000000
# 5 0.000000 0.000000 0.000000 0.000000 0.068082 0.000000
# 6 0.000000 0.000000 0.000000 0.000000 0.000000 0.032003
#
#
# Mechanical properties :
#
#
# Convention : Reuss Voigt Hill
#
# Bulk Modulus (GPa) = 40.29686 44.54505 42.42096
# Shear Modulus (GPa) = 23.21420 26.30271 24.75846
#
# Velocity S-wave (km/s) = 3.23085 3.43906 3.33658
# Velocity P-wave (km/s) = 5.66018 5.98327 5.82396
#
# Compressibility (1/GPa) = 0.02481583
#
# Stress axis : x y z
#
# Youngs Moduli (GPa) = 59.46946 58.51220 61.76046
#
# Poissons Ratio (x) = 0.25568 0.54171
# Poissons Ratio (y) = 0.25986 -0.03088
# Poissons Ratio (z) = 0.52162 -0.02925
#
# Static dielectric constant tensor:
#      x y z
#    x 1.818240 0.000000 0.000000 
#    y 0.000000 1.912510 0.000000 
#    z 0.000000 0.000000 1.816820 
# 
# From -- ./inp_files/54471.got.cif
#   From: 2010.05.17/outbox.cif.g08.bks.cpg/sg68_28_cif.got.tgz:54471.got - 2010.06.03 18:57:09.
