data_PCOD9507854
_publ_section_title
;
Structure prediction by ZEFSAII (Michael W. Deem and Ramdas Pophale) SiO2 
 PCOD9507854
Probable space group: C C C A
;
_chemical_formula_sum "Si O2"
_cell_formula_units_Z 80
_cell_length_a 8.233401
_cell_length_b 22.905966
_cell_length_c 17.363873
_cell_angle_alpha 90.000000
_cell_angle_beta 90.000000
_cell_angle_gamma 90.000000
_cell_volume 3274.722323
_symmetry_space_group_name_H-M "C C C A"
_symmetry_group_IT_number 68
_space_group.IT_coordinate_system_code '2'
_symmetry_cell_setting 'orthorhombic'
loop_
_space_group_symop_operation_xyz
x,y,z
-x,1/2-y,z
x,1/2-y,1/2-z
-x,y,1/2-z
-x,-y,-z
x,1/2+y,-z
-x,1/2+y,1/2+z
x,-y,1/2+z
1/2+x,1/2+y,z
1/2-x,-y,z
1/2+x,-y,1/2-z
1/2-x,1/2+y,1/2-z
1/2-x,1/2-y,-z
1/2+x,y,-z
1/2-x,y,1/2+z
1/2+x,1/2-y,1/2+z
loop_
_atom_site_type_symbol
_atom_site_label
_atom_site_fract_x
_atom_site_fract_y
_atom_site_fract_z
Si Si1 0.277700 0.829647 0.445803
Si Si2 0.965751 0.491426 0.590224
Si Si3 0.609208 0.383654 0.591225
Si Si4 0.000000 0.750000 0.443056
Si Si5 0.750000 0.000000 0.704895
Si Si6 0.128918 0.108675 0.692523
O O1 0.420404 0.865239 0.402423
O O2 0.178422 0.868210 0.507304
O O3 0.135338 0.792132 0.403538
O O4 0.388022 0.787995 0.499727
O O5 0.849366 0.547490 0.601143
O O6 0.954241 0.424574 0.619446
O O7 0.000000 0.500000 0.500000
O O8 0.104707 0.513527 0.648122
O O9 0.724175 0.354717 0.656235
O O10 0.698345 0.945038 0.756049
O O11 0.000000 0.137591 0.750000
#
# Coordination Sequence:
#
# PCOD9507854 Si02
#       6
#    16  16  16   8   8  16
#     4   9  19  32  61  90 123 158 188 270 313 408
#     4  11  23  34  56  81 122 168 215 270 312 361
#     4  11  20  34  55  88 120 153 225 253 309 367
#     4   8  16  38  54  86 135 151 178 238 370 386
#     4  10  22  38  54  72 114 190 204 250 320 374
#     4  10  21  39  53  76 125 176 213 259 315 373
#
# _framework density 24.429552999999999
#
# number of rings (size 3 to 8) (size 9 to 14) (size 15 to 20)
#    0.000    2.000    2.000    1.200    5.600    0.000 
#    3.600    0.000    0.000    0.000    0.000    0.700 
#   18.000    0.000    0.000    0.000    0.000    0.000 
#
# Total GULP energy -222715.310330 kJ/mol
# GULP energy per Si atom -5567.882758 kJ/mol
# Density = 2.437395 g / cm^3
# Si number density = 24.429553 Si / 1000 Ang^3
#
#
#
# Elastic Constant Matrix: (Units=GPa)
#
#
# Indices 1 2 3 4 5 6 
#
# 1 127.1516 34.8037 39.4220 0.0000 0.0000 0.0000
# 2 34.8037 67.0323 5.8241 0.0000 0.0000 0.0000
# 3 39.4220 5.8241 125.9010 0.0000 0.0000 0.0000
# 4 0.0000 0.0000 0.0000 12.4480 0.0000 0.0000
# 5 0.0000 0.0000 0.0000 0.0000 45.8833 0.0000
# 6 0.0000 0.0000 0.0000 0.0000 0.0000 54.6060
#
#
#
# Elastic Compliance Matrix: (Units=1/GPa)
#
#
# Indices 1 2 3 4 5 6 
#
# 1 0.010151 -0.005014 -0.002946 0.000000 0.000000 0.000000
# 2 -0.005014 0.017455 0.000763 0.000000 0.000000 0.000000
# 3 -0.002946 0.000763 0.008830 0.000000 0.000000 0.000000
# 4 0.000000 0.000000 0.000000 0.080334 0.000000 0.000000
# 5 0.000000 0.000000 0.000000 0.000000 0.021794 0.000000
# 6 0.000000 0.000000 0.000000 0.000000 0.000000 0.018313
#
#
# Mechanical properties :
#
#
# Convention : Reuss Voigt Hill
#
# Bulk Modulus (GPa) = 45.37233 53.35384 49.36308
# Shear Modulus (GPa) = 27.99235 38.58982 33.29108
#
# Velocity S-wave (km/s) = 3.38870 3.97878 3.69553
# Velocity P-wave (km/s) = 5.82444 6.55704 6.20157
#
# Compressibility (1/GPa) = 0.02203987
#
# Stress axis : x y z
#
# Youngs Moduli (GPa) = 98.51606 57.28890 113.24973
#
# Poissons Ratio (x) = 0.28726 0.33368
# Poissons Ratio (y) = 0.49399 -0.08636
# Poissons Ratio (z) = 0.29027 -0.04369
#
# Static dielectric constant tensor:
#      x y z
#    x 2.148080 0.000000 0.000000 
#    y 0.000000 2.023960 0.000000 
#    z 0.000000 0.000000 2.009880 
# 
# From -- ./inp_files/28481.got.cif
#   From: 2010.05.17/outbox.cif.g08.bks.cpg/sg68_15_cif.got.tgz:28481.got - 2010.06.03 18:57:09.
