data_PCOD9507342
_publ_section_title
;
Structure prediction by ZEFSAII (Michael W. Deem and Ramdas Pophale) SiO2 
 PCOD9507342
Probable space group: C C C A
;
_chemical_formula_sum "Si O2"
_cell_formula_units_Z 92
_cell_length_a 20.528322
_cell_length_b 25.775690
_cell_length_c 8.691151
_cell_angle_alpha 90.000000
_cell_angle_beta 90.000000
_cell_angle_gamma 90.000000
_cell_volume 4598.763192
_symmetry_space_group_name_H-M "C C C A"
_symmetry_group_IT_number 68
_space_group.IT_coordinate_system_code '2'
_symmetry_cell_setting 'orthorhombic'
loop_
_space_group_symop_operation_xyz
x,y,z
-x,1/2-y,z
x,1/2-y,1/2-z
-x,y,1/2-z
-x,-y,-z
x,1/2+y,-z
-x,1/2+y,1/2+z
x,-y,1/2+z
1/2+x,1/2+y,z
1/2-x,-y,z
1/2+x,-y,1/2-z
1/2-x,1/2+y,1/2-z
1/2-x,1/2-y,-z
1/2+x,y,-z
1/2-x,y,1/2+z
1/2+x,1/2-y,1/2+z
loop_
_atom_site_type_symbol
_atom_site_label
_atom_site_fract_x
_atom_site_fract_y
_atom_site_fract_z
Si Si1 0.600265 0.478105 0.545953
Si Si2 0.500000 0.750000 0.250000
Si Si3 0.000000 0.574912 0.750000
Si Si4 0.571583 0.897113 0.688471
Si Si5 0.912902 0.659378 0.632416
Si Si6 0.335418 0.410890 0.430161
Si Si7 0.697542 0.401404 0.720676
O O1 0.530086 0.462696 0.620401
O O2 0.600367 0.451244 0.378386
O O3 0.621931 0.537073 0.541658
O O4 0.654169 0.447745 0.647425
O O5 0.549429 0.787562 0.341517
O O6 0.057955 0.617876 0.740429
O O7 0.500000 0.905688 0.750000
O O8 0.570019 0.861621 0.536929
O O9 0.615843 0.876455 0.827347
O O10 0.835598 0.650920 0.650572
O O11 0.309656 0.395969 0.597205
O O12 0.270683 0.414428 0.327207
#
# Coordination Sequence:
#
# PCOD9507342 Si02
#       7
#    16   4   8  16  16  16  16
#     4  10  21  35  53  83 123 169 227 252 294 350
#     4  10  20  40  82  96 124 148 196 264 328 422
#     4   7  16  33  54  76 120 154 196 251 292 357
#     4  10  23  36  57  90 132 168 209 265 314 369
#     4   9  20  41  64  93 118 156 200 250 336 386
#     4  12  23  36  59  81 121 176 213 259 293 360
#     4  10  22  38  59  82 122 165 214 260 310 364
#
# _framework density 20.005379000000001
#
# number of rings (size 3 to 8) (size 9 to 14) (size 15 to 20)
#    0.000    2.435    0.000    3.652   13.391    2.087 
#    0.000    0.435    0.000    4.174    0.000    0.000 
#    0.000    0.000    0.000    0.000    0.000    0.000 
#
# Total GULP energy -256170.409253 kJ/mol
# GULP energy per Si atom -5568.921940 kJ/mol
# Density = 1.995985 g / cm^3
# Si number density = 20.005379 Si / 1000 Ang^3
#
#
#
# Elastic Constant Matrix: (Units=GPa)
#
#
# Indices 1 2 3 4 5 6 
#
# 1 98.4069 20.3742 49.8408 0.0000 0.0000 0.0000
# 2 20.3742 80.9683 26.2551 0.0000 0.0000 0.0000
# 3 49.8408 26.2551 129.2670 0.0000 0.0000 0.0000
# 4 0.0000 0.0000 0.0000 8.4092 0.0000 0.0000
# 5 0.0000 0.0000 0.0000 0.0000 36.0078 0.0000
# 6 0.0000 0.0000 0.0000 0.0000 0.0000 15.3238
#
#
#
# Elastic Compliance Matrix: (Units=1/GPa)
#
#
# Indices 1 2 3 4 5 6 
#
# 1 0.012853 -0.001742 -0.004602 0.000000 0.000000 0.000000
# 2 -0.001742 0.013457 -0.002062 0.000000 0.000000 0.000000
# 3 -0.004602 -0.002062 0.009929 0.000000 0.000000 0.000000
# 4 0.000000 0.000000 0.000000 0.118917 0.000000 0.000000
# 5 0.000000 0.000000 0.000000 0.000000 0.027772 0.000000
# 6 0.000000 0.000000 0.000000 0.000000 0.000000 0.065258
#
#
# Mechanical properties :
#
#
# Convention : Reuss Voigt Hill
#
# Bulk Modulus (GPa) = 51.47093 55.73137 53.60115
# Shear Modulus (GPa) = 18.41800 26.09300 22.25550
#
# Velocity S-wave (km/s) = 3.03752 3.61543 3.33900
# Velocity P-wave (km/s) = 6.17142 6.73402 6.45885
#
# Compressibility (1/GPa) = 0.01942844
#
# Stress axis : x y z
#
# Youngs Moduli (GPa) = 77.80072 74.30873 100.71502
#
# Poissons Ratio (x) = 0.12945 0.46349
# Poissons Ratio (y) = 0.13553 0.20764
# Poissons Ratio (z) = 0.35804 0.15320
#
# Static dielectric constant tensor:
#      x y z
#    x 1.772270 0.000000 0.000000 
#    y 0.000000 1.730320 0.000000 
#    z 0.000000 0.000000 1.754540 
# 
# From -- ./inp_files/7328.got.cif
#   From: 2010.05.17/outbox.cif.g08.bks.cpg/sg68_4_cif.got.tgz:7328.got - 2010.06.03 18:57:09.
