data_PCOD9507534
_publ_section_title
;
Structure prediction by ZEFSAII (Michael W. Deem and Ramdas Pophale) SiO2 
 PCOD9507534
Probable space group: C C C A
;
_chemical_formula_sum "Si O2"
_cell_formula_units_Z 44
_cell_length_a 16.282382
_cell_length_b 21.726964
_cell_length_c 5.265868
_cell_angle_alpha 90.000000
_cell_angle_beta 90.000000
_cell_angle_gamma 90.000000
_cell_volume 1862.888890
_symmetry_space_group_name_H-M "C C C A"
_symmetry_group_IT_number 68
_space_group.IT_coordinate_system_code '2'
_symmetry_cell_setting 'orthorhombic'
loop_
_space_group_symop_operation_xyz
x,y,z
-x,1/2-y,z
x,1/2-y,1/2-z
-x,y,1/2-z
-x,-y,-z
x,1/2+y,-z
-x,1/2+y,1/2+z
x,-y,1/2+z
1/2+x,1/2+y,z
1/2-x,-y,z
1/2+x,-y,1/2-z
1/2-x,1/2+y,1/2-z
1/2-x,1/2-y,-z
1/2+x,y,-z
1/2-x,y,1/2+z
1/2+x,1/2-y,1/2+z
loop_
_atom_site_type_symbol
_atom_site_label
_atom_site_fract_x
_atom_site_fract_y
_atom_site_fract_z
Si Si1 0.000000 0.250000 0.750000
Si Si2 0.804036 0.250000 0.250000
Si Si3 0.418595 0.350565 0.902366
Si Si4 0.599399 0.031024 0.219131
O O1 0.052548 0.294810 0.578852
O O2 0.750000 0.250000 0.500000
O O3 0.855475 0.313848 0.271425
O O4 0.500000 0.372767 0.750000
O O5 0.384664 0.404283 0.080857
O O6 0.500000 0.027749 0.250000
O O7 0.629028 0.018339 0.505992
#
# Coordination Sequence:
#
# PCOD9507534 Si02
#       4
#     4   8  16  16
#     4  12  20  36  64 100 124 170 218 272 322 398
#     4  12  28  44  63  95 136 174 218 272 336 398
#     4  12  23  40  67  95 131 171 219 273 332 403
#     4  10  21  35  59  97 130 160 207 275 334 381
#
# _framework density 23.619232
#
# number of rings (size 3 to 8) (size 9 to 14) (size 15 to 20)
#    0.000    0.727    5.455    4.364    0.000    0.000 
#    0.000    0.000    0.000    6.545    0.000    0.000 
#    0.000    0.000    0.000    0.000    0.000    0.000 
#
# Total GULP energy -123014.813839 kJ/mol
# GULP energy per Si atom -5591.582447 kJ/mol
# Density = 2.356547 g / cm^3
# Si number density = 23.619232 Si / 1000 Ang^3
#
#
#
# Elastic Constant Matrix: (Units=GPa)
#
#
# Indices 1 2 3 4 5 6 
#
# 1 44.7759 19.8132 25.6882 0.0000 0.0000 0.0000
# 2 19.8132 139.2462 33.2301 0.0000 0.0000 0.0000
# 3 25.6882 33.2301 135.4900 0.0000 0.0000 0.0000
# 4 0.0000 0.0000 0.0000 137.6187 0.0000 0.0000
# 5 0.0000 0.0000 0.0000 0.0000 40.1509 0.0000
# 6 0.0000 0.0000 0.0000 0.0000 0.0000 4.2858
#
#
#
# Elastic Compliance Matrix: (Units=1/GPa)
#
#
# Indices 1 2 3 4 5 6 
#
# 1 0.025965 -0.002676 -0.004267 0.000000 0.000000 0.000000
# 2 -0.002676 0.007904 -0.001431 0.000000 0.000000 0.000000
# 3 -0.004267 -0.001431 0.008541 0.000000 0.000000 0.000000
# 4 0.000000 0.000000 0.000000 0.007266 0.000000 0.000000
# 5 0.000000 0.000000 0.000000 0.000000 0.024906 0.000000
# 6 0.000000 0.000000 0.000000 0.000000 0.000000 0.233329
#
#
# Mechanical properties :
#
#
# Convention : Reuss Voigt Hill
#
# Bulk Modulus (GPa) = 38.96833 52.99726 45.98279
# Shear Modulus (GPa) = 15.00541 52.46311 33.73426
#
# Velocity S-wave (km/s) = 2.52326 4.71808 3.78332
# Velocity P-wave (km/s) = 5.00235 7.22269 6.21252
#
# Compressibility (1/GPa) = 0.02566186
#
# Stress axis : x y z
#
# Youngs Moduli (GPa) = 38.51265 126.52043 117.08910
#
# Poissons Ratio (x) = 0.33862 0.49956
# Poissons Ratio (y) = 0.10308 0.16756
# Poissons Ratio (z) = 0.16431 0.18106
#
# Static dielectric constant tensor:
#      x y z
#    x 3.513900 0.000000 0.000000 
#    y 0.000000 1.939530 0.000000 
#    z 0.000000 0.000000 1.895000 
# 
# From -- ./inp_files/862.got.cif
#   From: 2010.05.17/outbox.cif.g08.bks.cpg/sg68_1_cif.got.tgz:862.got - 2010.06.03 18:57:09.
