data_PCOD9507085
_publ_section_title
;
Structure prediction by ZEFSAII (Michael W. Deem and Ramdas Pophale) SiO2 
 PCOD9507085
Probable space group: C C C A
;
_chemical_formula_sum "Si O2"
_cell_formula_units_Z 104
_cell_length_a 26.202998
_cell_length_b 8.543938
_cell_length_c 24.424784
_cell_angle_alpha 90.000000
_cell_angle_beta 90.000000
_cell_angle_gamma 90.000000
_cell_volume 5468.142246
_symmetry_space_group_name_H-M "C C C A"
_symmetry_group_IT_number 68
_space_group.IT_coordinate_system_code '2'
_symmetry_cell_setting 'orthorhombic'
loop_
_space_group_symop_operation_xyz
x,y,z
-x,1/2-y,z
x,1/2-y,1/2-z
-x,y,1/2-z
-x,-y,-z
x,1/2+y,-z
-x,1/2+y,1/2+z
x,-y,1/2+z
1/2+x,1/2+y,z
1/2-x,-y,z
1/2+x,-y,1/2-z
1/2-x,1/2+y,1/2-z
1/2-x,1/2-y,-z
1/2+x,y,-z
1/2-x,y,1/2+z
1/2+x,1/2-y,1/2+z
loop_
_atom_site_type_symbol
_atom_site_label
_atom_site_fract_x
_atom_site_fract_y
_atom_site_fract_z
Si Si1 0.750000 0.500000 0.693633
Si Si2 0.825306 0.750000 0.750000
Si Si3 0.319048 0.729878 0.879275
Si Si4 0.716892 0.700217 0.434674
Si Si5 0.359051 0.945632 0.349454
Si Si6 0.500000 0.250000 0.017592
Si Si7 0.163248 0.515947 0.470960
Si Si8 0.569481 0.480334 0.949312
O O1 0.787273 0.616353 0.726503
O O2 0.712874 0.610751 0.658071
O O3 0.859434 0.843023 0.705380
O O4 0.275843 0.802533 0.919188
O O5 0.353525 0.629878 0.921236
O O6 0.346117 0.868724 0.846089
O O7 0.687888 0.628457 0.383046
O O8 0.701446 0.605844 0.488447
O O9 0.692944 0.871331 0.444479
O O10 0.406596 0.934440 0.391096
O O11 0.469872 0.377130 0.052974
O O12 0.540114 0.339131 0.978694
O O13 0.115946 0.472275 0.509837
#
# Coordination Sequence:
#
# PCOD9507085 Si02
#       8
#     8   8  16  16  16   8  16  16
#     4  12  24  38  56  78 114 158 222 236 292 314
#     4  12  24  42  58  79 110 162 204 267 280 330
#     4  12  21  36  52  83 116 163 200 242 276 339
#     4  11  21  34  48  81 116 166 197 238 273 335
#     4  11  23  38  59  80 117 152 211 246 291 335
#     4  10  20  38  64  87 126 147 180 226 322 384
#     4  11  20  33  53  81 125 153 198 229 289 348
#     4  10  21  37  58  92 116 156 183 238 295 383
#
# _framework density 19.019255999999999
#
# number of rings (size 3 to 8) (size 9 to 14) (size 15 to 20)
#    0.000    0.923    3.077    6.462    0.000    2.462 
#    0.000    0.000    0.000    0.462    0.000    0.000 
#    0.000    1.231    0.000    0.000    0.000    0.000 
#
# Total GULP energy -290577.515656 kJ/mol
# GULP energy per Si atom -5588.029147 kJ/mol
# Density = 1.897597 g / cm^3
# Si number density = 19.019256 Si / 1000 Ang^3
#
#
#
# Elastic Constant Matrix: (Units=GPa)
#
#
# Indices 1 2 3 4 5 6 
#
# 1 59.6515 17.0284 25.5907 0.0000 0.0000 0.0000
# 2 17.0284 103.1333 42.3791 0.0000 0.0000 0.0000
# 3 25.5907 42.3791 92.6391 0.0000 0.0000 0.0000
# 4 0.0000 0.0000 0.0000 31.7893 0.0000 0.0000
# 5 0.0000 0.0000 0.0000 0.0000 21.2273 0.0000
# 6 0.0000 0.0000 0.0000 0.0000 0.0000 24.0619
#
#
#
# Elastic Compliance Matrix: (Units=1/GPa)
#
#
# Indices 1 2 3 4 5 6 
#
# 1 0.019141 -0.001216 -0.004731 0.000000 0.000000 0.000000
# 2 -0.001216 0.012018 -0.005162 0.000000 0.000000 0.000000
# 3 -0.004731 -0.005162 0.014463 0.000000 0.000000 0.000000
# 4 0.000000 0.000000 0.000000 0.031457 0.000000 0.000000
# 5 0.000000 0.000000 0.000000 0.000000 0.047109 0.000000
# 6 0.000000 0.000000 0.000000 0.000000 0.000000 0.041560
#
#
# Mechanical properties :
#
#
# Convention : Reuss Voigt Hill
#
# Bulk Modulus (GPa) = 42.72888 47.26893 44.99891
# Shear Modulus (GPa) = 25.54053 26.77741 26.15897
#
# Velocity S-wave (km/s) = 3.66850 3.75628 3.71265
# Velocity P-wave (km/s) = 6.36072 6.61211 6.48764
#
# Compressibility (1/GPa) = 0.02340338
#
# Stress axis : x y z
#
# Youngs Moduli (GPa) = 52.24418 83.20779 69.14263
#
# Poissons Ratio (x) = 0.10121 0.32712
# Poissons Ratio (y) = 0.06354 0.35690
# Poissons Ratio (z) = 0.24717 0.42951
#
# Static dielectric constant tensor:
#      x y z
#    x 1.655520 0.000000 0.000000 
#    y 0.000000 1.747800 0.000000 
#    z 0.000000 0.000000 1.678540 
# 
# From -- ./inp_files/43505.got.cif
#   From: 2010.05.17/outbox.cif.g08.bks.cpg/sg68_22_cif.got.tgz:43505.got - 2010.06.03 18:57:09.
