data_PCOD9507749
_publ_section_title
;
Structure prediction by ZEFSAII (Michael W. Deem and Ramdas Pophale) SiO2 
 PCOD9507749
Probable space group: C C C A
;
_chemical_formula_sum "Si O2"
_cell_formula_units_Z 64
_cell_length_a 19.685299
_cell_length_b 5.167104
_cell_length_c 28.724794
_cell_angle_alpha 90.000000
_cell_angle_beta 90.000000
_cell_angle_gamma 90.000000
_cell_volume 2921.770779
_symmetry_space_group_name_H-M "C C C A"
_symmetry_group_IT_number 68
_space_group.IT_coordinate_system_code '2'
_symmetry_cell_setting 'orthorhombic'
loop_
_space_group_symop_operation_xyz
x,y,z
-x,1/2-y,z
x,1/2-y,1/2-z
-x,y,1/2-z
-x,-y,-z
x,1/2+y,-z
-x,1/2+y,1/2+z
x,-y,1/2+z
1/2+x,1/2+y,z
1/2-x,-y,z
1/2+x,-y,1/2-z
1/2-x,1/2+y,1/2-z
1/2-x,1/2-y,-z
1/2+x,y,-z
1/2-x,y,1/2+z
1/2+x,1/2-y,1/2+z
loop_
_atom_site_type_symbol
_atom_site_label
_atom_site_fract_x
_atom_site_fract_y
_atom_site_fract_z
Si Si1 0.750000 0.000000 0.807471
Si Si2 0.673938 0.098099 0.018492
Si Si3 0.343438 0.693571 0.879211
Si Si4 0.634027 0.250000 0.750000
Si Si5 0.922717 0.182280 0.150773
O O1 0.779755 0.212116 0.843591
O O2 0.686854 0.052797 0.773800
O O3 0.677261 0.234123 0.068589
O O4 0.750000 0.000000 0.005670
O O5 0.640109 0.313427 0.985015
O O6 0.374369 0.407979 0.870467
O O7 0.399810 0.904811 0.867254
O O8 0.589168 0.333927 0.793519
O O9 0.000000 0.250000 0.140452
#
# Coordination Sequence:
#
# PCOD9507749 Si02
#       5
#     8  16  16   8  16
#     4  10  22  36  64  98 130 164 206 258 342 374
#     4  10  22  37  62  95 130 159 194 248 320 391
#     4  11  24  39  66  92 129 164 201 266 310 381
#     4  10  21  38  60  92 125 166 204 268 304 374
#     4  11  24  42  63  88 123 174 220 255 299 359
#
# _framework density 21.904523000000001
#
# number of rings (size 3 to 8) (size 9 to 14) (size 15 to 20)
#    0.000    1.500    0.000    4.125   12.250    3.000 
#    0.000    5.000    0.000   15.000    0.000    0.000 
#    0.000    0.000    0.000    0.000    0.000    0.000 
#
# Total GULP energy -178426.192247 kJ/mol
# GULP energy per Si atom -5575.818508 kJ/mol
# Density = 2.185467 g / cm^3
# Si number density = 21.904523 Si / 1000 Ang^3
#
#
#
# Elastic Constant Matrix: (Units=GPa)
#
#
# Indices 1 2 3 4 5 6 
#
# 1 75.8825 13.1246 4.4325 0.0000 0.0000 0.0000
# 2 13.1246 88.6101 41.9961 0.0000 0.0000 0.0000
# 3 4.4325 41.9961 133.7019 0.0000 0.0000 0.0000
# 4 0.0000 0.0000 0.0000 -21.9027 0.0000 0.0000
# 5 0.0000 0.0000 0.0000 0.0000 -8.8555 0.0000
# 6 0.0000 0.0000 0.0000 0.0000 0.0000 33.6160
#
#
#
# Elastic Compliance Matrix: (Units=1/GPa)
#
#
# Indices 1 2 3 4 5 6 
#
# 1 0.013530 -0.002105 0.000213 0.000000 0.000000 0.000000
# 2 -0.002105 0.013587 -0.004198 0.000000 0.000000 0.000000
# 3 0.000213 -0.004198 0.008791 0.000000 0.000000 0.000000
# 4 0.000000 0.000000 0.000000 -0.045656 0.000000 0.000000
# 5 0.000000 0.000000 0.000000 0.000000 -0.112924 0.000000
# 6 0.000000 0.000000 0.000000 0.000000 0.000000 0.029748
#
#
# Mechanical properties :
#
#
# Convention : Reuss Voigt Hill
#
# Bulk Modulus (GPa) = 42.14542 46.36676 44.25609
# Shear Modulus (GPa) = -68.64750 16.48097 -26.08327
#
# Velocity S-wave (km/s) = -5.60424 2.74597 -3.45450
# Velocity P-wave (km/s) = 4.75335 5.59173 2.08244
#
# Compressibility (1/GPa) = 0.02372737
#
# Stress axis : x y z
#
# Youngs Moduli (GPa) = 73.91046 73.60155 113.75492
#
# Poissons Ratio (x) = 0.15491 -0.02418
# Poissons Ratio (y) = 0.15556 0.47752
# Poissons Ratio (z) = -0.01571 0.30897
#
# Static dielectric constant tensor:
#      x y z
#    x 1.869000 0.000000 0.000000 
#    y 0.000000 2.000400 0.000000 
#    z 0.000000 0.000000 1.835090 
# 
# From -- ./inp_files/51594.got.cif
#   From: 2010.05.17/outbox.cif.g08.bks.cpg/sg68_26_cif.got.tgz:51594.got - 2010.06.03 18:57:09.
