data_PCOD9507397
_publ_section_title
;
Structure prediction by ZEFSAII (Michael W. Deem and Ramdas Pophale) SiO2 
 PCOD9507397
Probable space group: C C C A
;
_chemical_formula_sum "Si O2"
_cell_formula_units_Z 112
_cell_length_a 14.242884
_cell_length_b 24.011350
_cell_length_c 13.705447
_cell_angle_alpha 90.000000
_cell_angle_beta 90.000000
_cell_angle_gamma 90.000000
_cell_volume 4687.137781
_symmetry_space_group_name_H-M "C C C A"
_symmetry_group_IT_number 68
_space_group.IT_coordinate_system_code '2'
_symmetry_cell_setting 'orthorhombic'
loop_
_space_group_symop_operation_xyz
x,y,z
-x,1/2-y,z
x,1/2-y,1/2-z
-x,y,1/2-z
-x,-y,-z
x,1/2+y,-z
-x,1/2+y,1/2+z
x,-y,1/2+z
1/2+x,1/2+y,z
1/2-x,-y,z
1/2+x,-y,1/2-z
1/2-x,1/2+y,1/2-z
1/2-x,1/2-y,-z
1/2+x,y,-z
1/2-x,y,1/2+z
1/2+x,1/2-y,1/2+z
loop_
_atom_site_type_symbol
_atom_site_label
_atom_site_fract_x
_atom_site_fract_y
_atom_site_fract_z
Si Si1 0.854288 0.501699 0.442465
Si Si2 0.230914 0.308677 0.894251
Si Si3 0.389855 0.731780 0.072340
Si Si4 0.390311 0.995481 0.729706
Si Si5 0.948295 0.118723 0.062132
Si Si6 0.925292 0.877230 0.336412
Si Si7 0.358031 0.589772 0.405164
O O1 0.750000 0.500000 0.483814
O O2 0.850840 0.523640 0.332767
O O3 0.900192 0.441402 0.434250
O O4 0.898460 0.548122 0.511013
O O5 0.320804 0.271933 0.868166
O O6 0.159677 0.334759 0.816270
O O7 0.278265 0.366643 0.936070
O O8 0.163809 0.273165 0.966995
O O9 0.500000 0.750000 0.066781
O O10 0.386268 0.667919 0.106934
O O11 0.500000 0.010416 0.750000
O O12 0.337317 0.047841 0.683449
O O13 0.392197 0.941653 0.661170
O O14 0.046672 0.122064 0.117375
O O15 0.960914 0.134010 0.946660
O O16 0.000000 0.873437 0.250000
#
# Coordination Sequence:
#
# PCOD9507397 Si02
#       7
#    16  16  16  16  16  16  16
#     4  12  25  38  60 100 136 182 230 282 354 432
#     4  10  23  38  71 104 133 186 238 293 357 419
#     4  10  20  42  67 102 132 181 248 294 346 424
#     4  11  23  39  63  96 141 183 222 274 353 431
#     4  11  21  41  68  93 134 187 229 287 354 416
#     4  10  21  39  63  98 139 178 230 286 353 425
#     4  12  22  40  65 100 141 175 232 285 349 434
#
# _framework density 23.895178999999999
#
# number of rings (size 3 to 8) (size 9 to 14) (size 15 to 20)
#    0.000    1.143    4.286    3.857    2.000    0.000 
#    0.000    0.000    0.000   11.143    0.000    0.000 
#    0.000    0.000    0.000    0.000    0.000    0.000 
#
# Total GULP energy -312456.576536 kJ/mol
# GULP energy per Si atom -5579.581724 kJ/mol
# Density = 2.384079 g / cm^3
# Si number density = 23.895179 Si / 1000 Ang^3
#
#
#
# Elastic Constant Matrix: (Units=GPa)
#
#
# Indices 1 2 3 4 5 6 
#
# 1 136.6301 42.2408 -3.2786 0.0000 0.0000 0.0000
# 2 42.2408 97.8311 23.0553 0.0000 0.0000 0.0000
# 3 -3.2786 23.0553 41.0554 0.0000 0.0000 0.0000
# 4 0.0000 0.0000 0.0000 10.8208 0.0000 0.0000
# 5 0.0000 0.0000 0.0000 0.0000 27.4117 0.0000
# 6 0.0000 0.0000 0.0000 0.0000 0.0000 45.0314
#
#
#
# Elastic Compliance Matrix: (Units=1/GPa)
#
#
# Indices 1 2 3 4 5 6 
#
# 1 0.008812 -0.004576 0.003274 0.000000 0.000000 0.000000
# 2 -0.004576 0.014157 -0.008316 0.000000 0.000000 0.000000
# 3 0.003274 -0.008316 0.029289 0.000000 0.000000 0.000000
# 4 0.000000 0.000000 0.000000 0.092414 0.000000 0.000000
# 5 0.000000 0.000000 0.000000 0.000000 0.036481 0.000000
# 6 0.000000 0.000000 0.000000 0.000000 0.000000 0.022207
#
#
# Mechanical properties :
#
#
# Convention : Reuss Voigt Hill
#
# Bulk Modulus (GPa) = 30.28333 44.39460 37.33896
# Shear Modulus (GPa) = 21.40369 30.88606 26.14488
#
# Velocity S-wave (km/s) = 2.99613 3.59913 3.31138
# Velocity P-wave (km/s) = 4.96688 5.99090 5.50276
#
# Compressibility (1/GPa) = 0.03302147
#
# Stress axis : x y z
#
# Youngs Moduli (GPa) = 113.47571 70.63435 34.14295
#
# Poissons Ratio (x) = 0.32326 -0.11178
# Poissons Ratio (y) = 0.51932 0.28393
# Poissons Ratio (z) = -0.37149 0.58738
#
# Static dielectric constant tensor:
#      x y z
#    x 2.043160 0.000000 0.000000 
#    y 0.000000 2.002880 0.000000 
#    z 0.000000 0.000000 1.917810 
# 
# From -- ./inp_files/22615.got.cif
#   From: 2010.05.17/outbox.cif.g08.bks.cpg/sg68_12_cif.got.tgz:22615.got - 2010.06.03 18:57:09.
