data_PCOD9507237
_publ_section_title
;
Structure prediction by ZEFSAII (Michael W. Deem and Ramdas Pophale) SiO2 
 PCOD9507237
Probable space group: C C C A
;
_chemical_formula_sum "Si O2"
_cell_formula_units_Z 88
_cell_length_a 22.380118
_cell_length_b 14.004991
_cell_length_c 15.117701
_cell_angle_alpha 90.000000
_cell_angle_beta 90.000000
_cell_angle_gamma 90.000000
_cell_volume 4738.391686
_symmetry_space_group_name_H-M "C C C A"
_symmetry_group_IT_number 68
_space_group.IT_coordinate_system_code '2'
_symmetry_cell_setting 'orthorhombic'
loop_
_space_group_symop_operation_xyz
x,y,z
-x,1/2-y,z
x,1/2-y,1/2-z
-x,y,1/2-z
-x,-y,-z
x,1/2+y,-z
-x,1/2+y,1/2+z
x,-y,1/2+z
1/2+x,1/2+y,z
1/2-x,-y,z
1/2+x,-y,1/2-z
1/2-x,1/2+y,1/2-z
1/2-x,1/2-y,-z
1/2+x,y,-z
1/2-x,y,1/2+z
1/2+x,1/2-y,1/2+z
loop_
_atom_site_type_symbol
_atom_site_label
_atom_site_fract_x
_atom_site_fract_y
_atom_site_fract_z
Si Si1 0.250000 0.000000 0.862076
Si Si2 0.000000 0.250000 0.891552
Si Si3 0.448187 0.445204 0.051154
Si Si4 0.098142 0.750000 0.250000
Si Si5 0.347249 0.490848 0.912648
Si Si6 0.254257 0.638804 0.976752
Si Si7 0.125990 0.540765 0.221557
O O1 0.188947 0.996536 0.808183
O O2 0.246172 0.088454 0.928633
O O3 0.971357 0.336870 0.943851
O O4 0.946524 0.215547 0.827634
O O5 0.427277 0.475566 0.150565
O O6 0.500000 0.500000 0.000000
O O7 0.390040 0.461051 0.992047
O O8 0.133482 0.656166 0.222170
O O9 0.314800 0.591980 0.936311
O O10 0.296697 0.407708 0.913551
O O11 0.382375 0.503224 0.821021
O O12 0.250000 0.750000 0.000000
#
# Coordination Sequence:
#
# PCOD9507237 Si02
#       7
#     8   8  16   8  16  16  16
#     4  10  20  40  58  90 122 156 196 248 296 368
#     4   9  20  38  58  91 112 152 214 245 304 371
#     4  11  22  39  62  84 120 160 194 257 309 357
#     4   9  20  34  62  90 114 154 200 261 302 362
#     4  10  22  39  59  92 120 160 202 254 301 363
#     4  10  21  39  63  88 125 165 202 242 308 370
#     4  11  21  39  60  90 124 150 207 248 307 366
#
# _framework density 18.571701999999998
#
# number of rings (size 3 to 8) (size 9 to 14) (size 15 to 20)
#    0.000    2.000    3.636    2.182    2.545    3.636 
#    0.000    0.000    0.000    1.091    0.000    0.000 
#    0.000    0.000    0.000    0.000    0.000    0.000 
#
# Total GULP energy -245134.738826 kJ/mol
# GULP energy per Si atom -5571.244064 kJ/mol
# Density = 1.852943 g / cm^3
# Si number density = 18.571702 Si / 1000 Ang^3
#
#
#
# Elastic Constant Matrix: (Units=GPa)
#
#
# Indices 1 2 3 4 5 6 
#
# 1 79.1410 39.5773 29.5726 0.0000 0.0000 0.0000
# 2 39.5773 124.7748 44.1189 0.0000 0.0000 0.0000
# 3 29.5726 44.1189 107.3955 0.0000 0.0000 0.0000
# 4 0.0000 0.0000 0.0000 15.1450 0.0000 0.0000
# 5 0.0000 0.0000 0.0000 0.0000 20.2143 0.0000
# 6 0.0000 0.0000 0.0000 0.0000 0.0000 14.8171
#
#
#
# Elastic Compliance Matrix: (Units=1/GPa)
#
#
# Indices 1 2 3 4 5 6 
#
# 1 0.015639 -0.004022 -0.002654 0.000000 0.000000 0.000000
# 2 -0.004022 0.010411 -0.003169 0.000000 0.000000 0.000000
# 3 -0.002654 -0.003169 0.011344 0.000000 0.000000 0.000000
# 4 0.000000 0.000000 0.000000 0.066029 0.000000 0.000000
# 5 0.000000 0.000000 0.000000 0.000000 0.049470 0.000000
# 6 0.000000 0.000000 0.000000 0.000000 0.000000 0.067490
#
#
# Mechanical properties :
#
#
# Convention : Reuss Voigt Hill
#
# Bulk Modulus (GPa) = 56.48765 59.76098 58.12432
# Shear Modulus (GPa) = 20.32739 23.23811 21.78275
#
# Velocity S-wave (km/s) = 3.31197 3.54116 3.42848
# Velocity P-wave (km/s) = 6.71621 6.99772 6.85841
#
# Compressibility (1/GPa) = 0.01770298
#
# Stress axis : x y z
#
# Youngs Moduli (GPa) = 63.94371 96.05383 88.15088
#
# Poissons Ratio (x) = 0.38633 0.23395
# Poissons Ratio (y) = 0.25718 0.27938
# Poissons Ratio (z) = 0.16971 0.30443
#
# Static dielectric constant tensor:
#      x y z
#    x 1.701220 0.000000 0.000000 
#    y 0.000000 1.643890 0.000000 
#    z 0.000000 0.000000 1.645230 
# 
# From -- ./inp_files/22512.got.cif
#   From: 2010.05.17/outbox.cif.g08.bks.cpg/sg68_12_cif.got.tgz:22512.got - 2010.06.03 18:57:09.
