data_PCOD9507914
_publ_section_title
;
Structure prediction by ZEFSAII (Michael W. Deem and Ramdas Pophale) SiO2 
 PCOD9507914
Probable space group: C C C A
;
_chemical_formula_sum "Si O2"
_cell_formula_units_Z 104
_cell_length_a 8.920503
_cell_length_b 18.453133
_cell_length_c 28.732314
_cell_angle_alpha 90.000000
_cell_angle_beta 90.000000
_cell_angle_gamma 90.000000
_cell_volume 4729.661499
_symmetry_space_group_name_H-M "C C C A"
_symmetry_group_IT_number 68
_space_group.IT_coordinate_system_code '2'
_symmetry_cell_setting 'orthorhombic'
loop_
_space_group_symop_operation_xyz
x,y,z
-x,1/2-y,z
x,1/2-y,1/2-z
-x,y,1/2-z
-x,-y,-z
x,1/2+y,-z
-x,1/2+y,1/2+z
x,-y,1/2+z
1/2+x,1/2+y,z
1/2-x,-y,z
1/2+x,-y,1/2-z
1/2-x,1/2+y,1/2-z
1/2-x,1/2-y,-z
1/2+x,y,-z
1/2-x,y,1/2+z
1/2+x,1/2-y,1/2+z
loop_
_atom_site_type_symbol
_atom_site_label
_atom_site_fract_x
_atom_site_fract_y
_atom_site_fract_z
Si Si1 0.060105 0.833050 0.044933
Si Si2 0.013281 0.663438 0.350596
Si Si3 0.763644 0.082594 0.521706
Si Si4 0.323437 0.881220 0.376666
Si Si5 0.000000 0.750000 0.844340
Si Si6 0.246373 0.180420 0.722368
Si Si7 0.121168 0.056840 0.285583
O O1 0.093475 0.844823 0.099488
O O2 0.000000 0.750000 0.039662
O O3 0.930684 0.890091 0.031506
O O4 0.195083 0.857026 0.012363
O O5 0.118828 0.640618 0.307917
O O6 0.000000 0.750000 0.344185
O O7 0.847322 0.629425 0.356973
O O8 0.683100 0.086187 0.572192
O O9 0.750000 0.000000 0.504120
O O10 0.402318 0.803471 0.375873
O O11 0.417507 0.926637 0.338923
O O12 0.120217 0.708448 0.811491
O O13 0.185381 0.250000 0.750000
O O14 0.319298 0.129685 0.761165
O O15 0.000000 0.028181 0.250000
O O16 0.250000 0.000000 0.287811
#
# Coordination Sequence:
#
# PCOD9507914 Si02
#       7
#    16  16  16  16   8  16  16
#     4  10  23  43  70  99 135 167 227 280 334 401
#     4  10  21  39  62  99 130 161 212 276 329 386
#     4  11  24  45  69 100 134 180 218 278 350 413
#     4  11  24  41  66  92 135 170 218 274 332 398
#     4  12  21  40  66  94 126 164 220 276 321 374
#     4  12  22  41  67  94 125 169 222 270 322 385
#     4  12  26  43  59  91 133 173 217 269 326 400
#
# _framework density 21.988887999999999
#
# number of rings (size 3 to 8) (size 9 to 14) (size 15 to 20)
#    0.000    0.923    4.615    1.615    3.231    2.769 
#    0.000    0.769    0.000    0.000    0.000    0.000 
#    0.000    0.000    0.000    0.000    0.000    0.000 
#
# Total GULP energy -290696.283882 kJ/mol
# GULP energy per Si atom -5590.313152 kJ/mol
# Density = 2.193884 g / cm^3
# Si number density = 21.988888 Si / 1000 Ang^3
#
#
#
# Elastic Constant Matrix: (Units=GPa)
#
#
# Indices 1 2 3 4 5 6 
#
# 1 42.3053 -2.3236 20.3328 0.0000 0.0000 0.0000
# 2 -2.3236 61.6815 -11.6163 0.0000 0.0000 0.0000
# 3 20.3328 -11.6163 74.5497 0.0000 0.0000 0.0000
# 4 0.0000 0.0000 0.0000 2.7640 0.0000 0.0000
# 5 0.0000 0.0000 0.0000 0.0000 10.9901 0.0000
# 6 0.0000 0.0000 0.0000 0.0000 0.0000 10.6416
#
#
#
# Elastic Compliance Matrix: (Units=1/GPa)
#
#
# Indices 1 2 3 4 5 6 
#
# 1 0.027213 -0.000384 -0.007482 0.000000 0.000000 0.000000
# 2 -0.000384 0.016708 0.002708 0.000000 0.000000 0.000000
# 3 -0.007482 0.002708 0.015876 0.000000 0.000000 0.000000
# 4 0.000000 0.000000 0.000000 0.361789 0.000000 0.000000
# 5 0.000000 0.000000 0.000000 0.000000 0.090991 0.000000
# 6 0.000000 0.000000 0.000000 0.000000 0.000000 0.093971
#
#
# Mechanical properties :
#
#
# Convention : Reuss Voigt Hill
#
# Bulk Modulus (GPa) = 20.20951 21.25803 20.73377
# Shear Modulus (GPa) = 7.89445 16.35540 12.12492
#
# Velocity S-wave (km/s) = 1.89684 2.73023 2.35076
# Velocity P-wave (km/s) = 3.74273 4.43029 4.10095
#
# Compressibility (1/GPa) = 0.04948165
#
# Stress axis : x y z
#
# Youngs Moduli (GPa) = 36.74780 59.85206 62.98641
#
# Poissons Ratio (x) = 0.02298 0.47125
# Poissons Ratio (y) = 0.01411 -0.17058
# Poissons Ratio (z) = 0.27494 -0.16209
#
# Static dielectric constant tensor:
#      x y z
#    x 1.861160 0.000000 0.000000 
#    y 0.000000 1.820450 0.000000 
#    z 0.000000 0.000000 1.913990 
# 
# From -- ./inp_files/54142.got.cif
#   From: 2010.05.17/outbox.cif.g08.bks.cpg/sg68_28_cif.got.tgz:54142.got - 2010.06.03 18:57:09.
