data_PCOD9507010
_publ_section_title
;
Structure prediction by ZEFSAII (Michael W. Deem and Ramdas Pophale) SiO2 
 PCOD9507010
Probable space group: C C C A
;
_chemical_formula_sum "Si O2"
_cell_formula_units_Z 96
_cell_length_a 23.675071
_cell_length_b 19.621646
_cell_length_c 9.849059
_cell_angle_alpha 90.000000
_cell_angle_beta 90.000000
_cell_angle_gamma 90.000000
_cell_volume 4575.319907
_symmetry_space_group_name_H-M "C C C A"
_symmetry_group_IT_number 68
_space_group.IT_coordinate_system_code '2'
_symmetry_cell_setting 'orthorhombic'
loop_
_space_group_symop_operation_xyz
x,y,z
-x,1/2-y,z
x,1/2-y,1/2-z
-x,y,1/2-z
-x,-y,-z
x,1/2+y,-z
-x,1/2+y,1/2+z
x,-y,1/2+z
1/2+x,1/2+y,z
1/2-x,-y,z
1/2+x,-y,1/2-z
1/2-x,1/2+y,1/2-z
1/2-x,1/2-y,-z
1/2+x,y,-z
1/2-x,y,1/2+z
1/2+x,1/2-y,1/2+z
loop_
_atom_site_type_symbol
_atom_site_label
_atom_site_fract_x
_atom_site_fract_y
_atom_site_fract_z
Si Si1 0.655588 0.600117 0.950810
Si Si2 0.683444 0.750000 0.524038
Si Si3 0.155588 0.399883 0.950810
Si Si4 0.889734 0.250000 0.250000
Si Si5 0.935486 0.955121 0.250000
Si Si6 0.750000 0.000000 0.000000
Si Si7 0.108555 0.602060 0.750000
O O1 0.599801 0.572419 0.878223
O O2 0.708032 0.550565 0.919677
O O3 0.667345 0.677964 0.909644
O O4 0.645953 0.597799 0.113381
O O5 0.750000 0.750000 0.500000
O O6 0.667345 0.677964 0.590356
O O7 0.650045 0.750000 0.381681
O O8 0.099801 0.427581 0.878223
O O9 0.208032 0.449435 0.919677
O O10 0.145953 0.402201 0.113381
O O11 0.920291 0.323121 0.250000
O O12 0.000000 0.932633 0.250000
O O13 0.931482 0.036891 0.250000
#
# Coordination Sequence:
#
# PCOD9507010 Si02
#       7
#    16  16  16   8  16   8  16
#     4  11  24  39  65  98 129 170 210 267 326 379
#     4  10  20  38  58  94 132 167 205 255 320 394
#     4  11  24  39  65  98 129 170 210 267 326 379
#     4   8  20  34  59  84 128 158 213 262 314 366
#     4  12  26  44  64  93 131 173 218 263 315 383
#     4  12  20  40  66 102 132 160 212 272 332 384
#     4  10  20  42  61  93 123 167 216 264 314 374
#
# _framework density 20.982139
#
# number of rings (size 3 to 8) (size 9 to 14) (size 15 to 20)
#    0.000    1.333    5.000    0.000    0.000    7.333 
#    0.000    2.083    0.000    6.000    0.000    0.000 
#    0.000    0.000    0.000    0.000    0.000    0.000 
#
# Total GULP energy -268001.747447 kJ/mol
# GULP energy per Si atom -5583.369738 kJ/mol
# Density = 2.093438 g / cm^3
# Si number density = 20.982139 Si / 1000 Ang^3
#
#
#
# Elastic Constant Matrix: (Units=GPa)
#
#
# Indices 1 2 3 4 5 6 
#
# 1 146.2495 76.5153 31.6186 0.0000 0.0000 0.0000
# 2 76.5153 224.1020 29.4587 0.0000 0.0000 0.0000
# 3 31.6186 29.4587 116.8418 0.0000 0.0000 0.0000
# 4 0.0000 0.0000 0.0000 23.1879 0.0000 0.0000
# 5 0.0000 0.0000 0.0000 0.0000 14.2038 0.0000
# 6 0.0000 0.0000 0.0000 0.0000 0.0000 8.6840
#
#
#
# Elastic Compliance Matrix: (Units=1/GPa)
#
#
# Indices 1 2 3 4 5 6 
#
# 1 0.008620 -0.002727 -0.001645 0.000000 0.000000 0.000000
# 2 -0.002727 0.005478 -0.000643 0.000000 0.000000 0.000000
# 3 -0.001645 -0.000643 0.009166 0.000000 0.000000 0.000000
# 4 0.000000 0.000000 0.000000 0.043126 0.000000 0.000000
# 5 0.000000 0.000000 0.000000 0.000000 0.070404 0.000000
# 6 0.000000 0.000000 0.000000 0.000000 0.000000 0.115155
#
#
# Mechanical properties :
#
#
# Convention : Reuss Voigt Hill
#
# Bulk Modulus (GPa) = 75.56658 84.70872 80.13765
# Shear Modulus (GPa) = 18.76950 32.52184 25.64567
#
# Velocity S-wave (km/s) = 2.99414 3.94125 3.49988
# Velocity P-wave (km/s) = 6.93153 7.82117 7.38975
#
# Compressibility (1/GPa) = 0.01323336
#
# Stress axis : x y z
#
# Youngs Moduli (GPa) = 116.01000 182.55393 109.09959
#
# Poissons Ratio (x) = 0.49780 0.17948
# Poissons Ratio (y) = 0.31634 0.07017
# Poissons Ratio (z) = 0.19085 0.11742
#
# Static dielectric constant tensor:
#      x y z
#    x 1.677170 0.000000 0.000000 
#    y 0.000000 1.809150 0.000000 
#    z 0.000000 0.000000 1.795920 
# 
# From -- ./inp_files/15621.got.cif
#   From: 2010.05.17/outbox.cif.g08.bks.cpg/sg68_8_cif.got.tgz:15621.got - 2010.06.03 18:57:09.
