data_PCOD9507620
_publ_section_title
;
Structure prediction by ZEFSAII (Michael W. Deem and Ramdas Pophale) SiO2 
 PCOD9507620
Probable space group: C C C A
;
_chemical_formula_sum "Si O2"
_cell_formula_units_Z 68
_cell_length_a 25.494213
_cell_length_b 20.284451
_cell_length_c 5.269059
_cell_angle_alpha 90.000000
_cell_angle_beta 90.000000
_cell_angle_gamma 90.000000
_cell_volume 2724.820698
_symmetry_space_group_name_H-M "C C C A"
_symmetry_group_IT_number 68
_space_group.IT_coordinate_system_code '2'
_symmetry_cell_setting 'orthorhombic'
loop_
_space_group_symop_operation_xyz
x,y,z
-x,1/2-y,z
x,1/2-y,1/2-z
-x,y,1/2-z
-x,-y,-z
x,1/2+y,-z
-x,1/2+y,1/2+z
x,-y,1/2+z
1/2+x,1/2+y,z
1/2-x,-y,z
1/2+x,-y,1/2-z
1/2-x,1/2+y,1/2-z
1/2-x,1/2-y,-z
1/2+x,y,-z
1/2-x,y,1/2+z
1/2+x,1/2-y,1/2+z
loop_
_atom_site_type_symbol
_atom_site_label
_atom_site_fract_x
_atom_site_fract_y
_atom_site_fract_z
Si Si1 0.060518 0.535386 0.807812
Si Si2 0.399023 0.172044 0.856795
Si Si3 0.669503 0.816142 0.644390
Si Si4 0.307850 0.468085 0.119792
Si Si5 0.000000 0.750000 0.750000
O O1 0.067559 0.475887 0.607454
O O2 0.092947 0.596984 0.716883
O O3 0.000000 0.553215 0.750000
O O4 0.363988 0.196106 0.612441
O O5 0.456837 0.204418 0.888657
O O6 0.369975 0.175018 0.122392
O O7 0.700268 0.750000 0.750000
O O8 0.696248 0.888411 0.612010
O O9 0.332978 0.497238 0.374815
O O10 0.250000 0.500000 0.125974
#
# Coordination Sequence:
#
# PCOD9507620 Si02
#       5
#    16  16  16  16   4
#     4  10  21  37  55  82 116 163 222 278 329 381
#     4  12  25  41  66  91 137 187 232 287 335 397
#     4  12  25  43  66 104 136 177 234 290 344 406
#     4  10  23  46  74 104 138 178 225 279 364 444
#     4  12  24  46  60  94 140 194 248 268 352 386
#
# _framework density 24.955770000000001
#
# number of rings (size 3 to 8) (size 9 to 14) (size 15 to 20)
#    0.000    0.941    3.529    2.824    0.000    7.529 
#    0.000    4.706    0.000    0.000    0.000    0.000 
#    0.000    0.000    0.000    0.000    0.000    0.000 
#
# Total GULP energy -189825.049673 kJ/mol
# GULP energy per Si atom -5583.089696 kJ/mol
# Density = 2.489897 g / cm^3
# Si number density = 24.955770 Si / 1000 Ang^3
#
#
#
# Elastic Constant Matrix: (Units=GPa)
#
#
# Indices 1 2 3 4 5 6 
#
# 1 74.5603 28.1359 25.2486 0.0000 0.0000 0.0000
# 2 28.1359 186.9025 43.6125 0.0000 0.0000 0.0000
# 3 25.2486 43.6125 179.5796 0.0000 0.0000 0.0000
# 4 0.0000 0.0000 0.0000 21.7424 0.0000 0.0000
# 5 0.0000 0.0000 0.0000 0.0000 96.4390 0.0000
# 6 0.0000 0.0000 0.0000 0.0000 0.0000 41.5805
#
#
#
# Elastic Compliance Matrix: (Units=1/GPa)
#
#
# Indices 1 2 3 4 5 6 
#
# 1 0.014649 -0.001828 -0.001616 0.000000 0.000000 0.000000
# 2 -0.001828 0.005900 -0.001176 0.000000 0.000000 0.000000
# 3 -0.001616 -0.001176 0.006081 0.000000 0.000000 0.000000
# 4 0.000000 0.000000 0.000000 0.045993 0.000000 0.000000
# 5 0.000000 0.000000 0.000000 0.000000 0.010369 0.000000
# 6 0.000000 0.000000 0.000000 0.000000 0.000000 0.024050
#
#
# Mechanical properties :
#
#
# Convention : Reuss Voigt Hill
#
# Bulk Modulus (GPa) = 57.50141 70.55961 64.03051
# Shear Modulus (GPa) = 40.95722 54.88874 47.92298
#
# Velocity S-wave (km/s) = 4.05556 4.69491 4.38690
# Velocity P-wave (km/s) = 6.70980 7.59768 7.16750
#
# Compressibility (1/GPa) = 0.01739088
#
# Stress axis : x y z
#
# Youngs Moduli (GPa) = 68.26422 169.49238 164.43933
#
# Poissons Ratio (x) = 0.30987 0.26567
# Poissons Ratio (y) = 0.12480 0.19335
# Poissons Ratio (z) = 0.11029 0.19929
#
# Static dielectric constant tensor:
#      x y z
#    x 3.211130 0.000000 0.000000 
#    y 0.000000 2.105130 0.000000 
#    z 0.000000 0.000000 2.005540 
# 
# From -- ./inp_files/2281.got.cif
#   From: 2010.05.17/outbox.cif.g08.bks.cpg/sg68_2_cif.got.tgz:2281.got - 2010.06.03 18:57:09.
