data_PCOD9507958
_publ_section_title
;
Structure prediction by ZEFSAII (Michael W. Deem and Ramdas Pophale) SiO2 
 PCOD9507958
Probable space group: C C C A
;
_chemical_formula_sum "Si O2"
_cell_formula_units_Z 104
_cell_length_a 19.876402
_cell_length_b 29.274725
_cell_length_c 8.952661
_cell_angle_alpha 90.000000
_cell_angle_beta 90.000000
_cell_angle_gamma 90.000000
_cell_volume 5209.340385
_symmetry_space_group_name_H-M "C C C A"
_symmetry_group_IT_number 68
_space_group.IT_coordinate_system_code '2'
_symmetry_cell_setting 'orthorhombic'
loop_
_space_group_symop_operation_xyz
x,y,z
-x,1/2-y,z
x,1/2-y,1/2-z
-x,y,1/2-z
-x,-y,-z
x,1/2+y,-z
-x,1/2+y,1/2+z
x,-y,1/2+z
1/2+x,1/2+y,z
1/2-x,-y,z
1/2+x,-y,1/2-z
1/2-x,1/2+y,1/2-z
1/2-x,1/2-y,-z
1/2+x,y,-z
1/2-x,y,1/2+z
1/2+x,1/2-y,1/2+z
loop_
_atom_site_type_symbol
_atom_site_label
_atom_site_fract_x
_atom_site_fract_y
_atom_site_fract_z
Si Si1 0.010473 0.303677 0.574979
Si Si2 0.731908 0.750000 0.750000
Si Si3 0.220219 0.684992 0.492285
Si Si4 0.403819 0.365877 0.603914
Si Si5 0.924603 0.042572 0.938730
Si Si6 0.413052 0.450083 0.096431
Si Si7 0.369153 0.644955 0.448041
O O1 0.085610 0.318148 0.533248
O O2 0.000000 0.250000 0.548585
O O3 0.000000 0.313817 0.750000
O O4 0.960376 0.334332 0.474222
O O5 0.773733 0.779587 0.630389
O O6 0.693547 0.713685 0.649139
O O7 0.167283 0.647448 0.533957
O O8 0.292490 0.662779 0.455428
O O9 0.414264 0.418003 0.559844
O O10 0.397137 0.357981 0.779726
O O11 0.895741 0.050023 0.772316
O O12 0.005550 0.045808 0.915607
O O13 0.894756 0.995843 0.005719
O O14 0.383334 0.404255 0.023247
#
# Coordination Sequence:
#
# PCOD9507958 Si02
#       7
#    16   8  16  16  16  16  16
#     4  11  27  41  62  91 130 169 213 269 327 379
#     4  10  24  46  64  92 122 182 222 274 308 394
#     4  11  26  42  69  92 130 170 231 264 325 380
#     4  12  25  42  64  97 130 170 214 269 322 387
#     4  10  21  39  66  95 129 169 212 262 322 386
#     4  10  21  39  66  95 129 169 212 262 322 386
#     4  12  25  42  64  97 130 170 214 269 322 387
#
# _framework density 19.964141000000001
#
# number of rings (size 3 to 8) (size 9 to 14) (size 15 to 20)
#    0.000    1.077    3.077    2.308    8.615    2.462 
#    0.000    0.769    0.000    3.692    0.000    0.000 
#    0.000    0.000    0.000    0.000    0.000    0.000 
#
# Total GULP energy -290456.276996 kJ/mol
# GULP energy per Si atom -5585.697635 kJ/mol
# Density = 1.991870 g / cm^3
# Si number density = 19.964141 Si / 1000 Ang^3
#
#
#
# Elastic Constant Matrix: (Units=GPa)
#
#
# Indices 1 2 3 4 5 6 
#
# 1 50.0126 16.5296 16.1081 0.0000 0.0000 0.0000
# 2 16.5296 96.2441 28.9775 0.0000 0.0000 0.0000
# 3 16.1081 28.9775 106.2787 0.0000 0.0000 0.0000
# 4 0.0000 0.0000 0.0000 28.3574 0.0000 0.0000
# 5 0.0000 0.0000 0.0000 0.0000 17.7195 0.0000
# 6 0.0000 0.0000 0.0000 0.0000 0.0000 -117.6380
#
#
#
# Elastic Compliance Matrix: (Units=1/GPa)
#
#
# Indices 1 2 3 4 5 6 
#
# 1 0.021785 -0.002993 -0.002486 0.000000 0.000000 0.000000
# 2 -0.002993 0.011731 -0.002745 0.000000 0.000000 0.000000
# 3 -0.002486 -0.002745 0.010534 0.000000 0.000000 0.000000
# 4 0.000000 0.000000 0.000000 0.035264 0.000000 0.000000
# 5 0.000000 0.000000 0.000000 0.000000 0.056435 0.000000
# 6 0.000000 0.000000 0.000000 0.000000 0.000000 -0.008501
#
#
# Mechanical properties :
#
#
# Convention : Reuss Voigt Hill
#
# Bulk Modulus (GPa) = 36.22837 41.75177 38.99007
# Shear Modulus (GPa) = 32.70187 -1.58421 15.55883
#
# Velocity S-wave (km/s) = 4.05165 -0.89177 2.79469
# Velocity P-wave (km/s) = 6.33040 4.46077 5.47596
#
# Compressibility (1/GPa) = 0.02760268
#
# Stress axis : x y z
#
# Youngs Moduli (GPa) = 45.90358 85.24638 94.92749
#
# Poissons Ratio (x) = 0.25515 0.23596
# Poissons Ratio (y) = 0.13739 0.26056
# Poissons Ratio (z) = 0.11410 0.23398
#
# Static dielectric constant tensor:
#      x y z
#    x 1.717290 0.000000 0.000000 
#    y 0.000000 1.701170 0.000000 
#    z 0.000000 0.000000 1.717550 
# 
# From -- ./inp_files/7384.got.cif
#   From: 2010.05.17/outbox.cif.g08.bks.cpg/sg68_4_cif.got.tgz:7384.got - 2010.06.03 18:57:09.
