data_PCOD9507575
_publ_section_title
;
Structure prediction by ZEFSAII (Michael W. Deem and Ramdas Pophale) SiO2 
 PCOD9507575
Probable space group: C C C A
;
_chemical_formula_sum "Si O2"
_cell_formula_units_Z 88
_cell_length_a 12.138539
_cell_length_b 10.285971
_cell_length_c 34.263092
_cell_angle_alpha 90.000000
_cell_angle_beta 90.000000
_cell_angle_gamma 90.000000
_cell_volume 4277.975233
_symmetry_space_group_name_H-M "C C C A"
_symmetry_group_IT_number 68
_space_group.IT_coordinate_system_code '2'
_symmetry_cell_setting 'orthorhombic'
loop_
_space_group_symop_operation_xyz
x,y,z
-x,1/2-y,z
x,1/2-y,1/2-z
-x,y,1/2-z
-x,-y,-z
x,1/2+y,-z
-x,1/2+y,1/2+z
x,-y,1/2+z
1/2+x,1/2+y,z
1/2-x,-y,z
1/2+x,-y,1/2-z
1/2-x,1/2+y,1/2-z
1/2-x,1/2-y,-z
1/2+x,y,-z
1/2-x,y,1/2+z
1/2+x,1/2-y,1/2+z
loop_
_atom_site_type_symbol
_atom_site_label
_atom_site_fract_x
_atom_site_fract_y
_atom_site_fract_z
Si Si1 0.250000 0.500000 0.165358
Si Si2 0.444890 0.104639 0.884513
Si Si3 0.369591 0.271614 0.206566
Si Si4 0.193875 0.639428 0.449143
Si Si5 0.641618 0.087588 0.366842
Si Si6 0.107769 0.663375 0.532853
O O1 0.331666 0.588890 0.139271
O O2 0.328273 0.410412 0.191646
O O3 0.500000 0.250000 0.883173
O O4 0.415624 0.072258 0.929886
O O5 0.534477 0.004454 0.867695
O O6 0.500000 0.250000 0.209826
O O7 0.322050 0.250000 0.250000
O O8 0.343132 0.173787 0.171367
O O9 0.250000 0.500000 0.444268
O O10 0.136368 0.667026 0.407754
O O11 0.124990 0.617896 0.488689
O O12 0.285646 0.749541 0.456422
O O13 0.750000 0.000000 0.367638
O O14 0.000000 0.750000 0.531135
#
# Coordination Sequence:
#
# PCOD9507575 Si02
#       6
#     8  16  16  16  16  16
#     4  12  24  46  72 102 134 180 218 276 338 410
#     4  11  23  41  67  98 134 178 228 274 329 408
#     4  11  25  46  69 101 136 170 223 280 337 406
#     4  10  21  36  57  87 124 169 216 270 329 387
#     4  11  22  42  68  94 135 175 222 281 339 401
#     4  10  21  37  55  87 127 165 222 270 317 396
#
# _framework density 20.570478000000001
#
# number of rings (size 3 to 8) (size 9 to 14) (size 15 to 20)
#    0.000    1.273    1.818    6.545    2.545    3.636 
#    3.273    0.000    0.000    0.000    0.000    0.000 
#    0.000    0.000    0.000    0.000    0.000    0.000 
#
# Total GULP energy -245437.182968 kJ/mol
# GULP energy per Si atom -5578.117795 kJ/mol
# Density = 2.052366 g / cm^3
# Si number density = 20.570478 Si / 1000 Ang^3
#
#
#
# Elastic Constant Matrix: (Units=GPa)
#
#
# Indices 1 2 3 4 5 6 
#
# 1 81.4847 16.9499 33.0418 0.0000 0.0000 0.0000
# 2 16.9499 54.8380 57.1480 0.0000 0.0000 0.0000
# 3 33.0418 57.1480 194.2909 0.0000 0.0000 0.0000
# 4 0.0000 0.0000 0.0000 145.6135 0.0000 0.0000
# 5 0.0000 0.0000 0.0000 0.0000 25.0031 0.0000
# 6 0.0000 0.0000 0.0000 0.0000 0.0000 17.8701
#
#
#
# Elastic Compliance Matrix: (Units=1/GPa)
#
#
# Indices 1 2 3 4 5 6 
#
# 1 0.013425 -0.002553 -0.001532 0.000000 0.000000 0.000000
# 2 -0.002553 0.026781 -0.007443 0.000000 0.000000 0.000000
# 3 -0.001532 -0.007443 0.007597 0.000000 0.000000 0.000000
# 4 0.000000 0.000000 0.000000 0.006867 0.000000 0.000000
# 5 0.000000 0.000000 0.000000 0.000000 0.039995 0.000000
# 6 0.000000 0.000000 0.000000 0.000000 0.000000 0.055959
#
#
# Mechanical properties :
#
#
# Convention : Reuss Voigt Hill
#
# Bulk Modulus (GPa) = 40.40976 60.54366 50.47671
# Shear Modulus (GPa) = 27.48315 52.59559 40.03937
#
# Velocity S-wave (km/s) = 3.65916 5.06201 4.41664
# Velocity P-wave (km/s) = 6.12698 7.97882 7.11342
#
# Compressibility (1/GPa) = 0.02474650
#
# Stress axis : x y z
#
# Youngs Moduli (GPa) = 74.49053 37.33944 131.63393
#
# Poissons Ratio (x) = 0.09531 0.20169
# Poissons Ratio (y) = 0.19015 0.97978
# Poissons Ratio (z) = 0.11413 0.27793
#
# Static dielectric constant tensor:
#      x y z
#    x 1.745490 0.000000 0.000000 
#    y 0.000000 1.750460 0.000000 
#    z 0.000000 0.000000 1.860330 
# 
# From -- ./inp_files/54610.got.cif
#   From: 2010.05.17/outbox.cif.g08.bks.cpg/sg68_28_cif.got.tgz:54610.got - 2010.06.03 18:57:09.
