data_PCOD9507644
_publ_section_title
;
Structure prediction by ZEFSAII (Michael W. Deem and Ramdas Pophale) SiO2 
 PCOD9507644
Probable space group: C C C A
;
_chemical_formula_sum "Si O2"
_cell_formula_units_Z 80
_cell_length_a 19.240700
_cell_length_b 13.077732
_cell_length_c 13.816227
_cell_angle_alpha 90.000000
_cell_angle_beta 90.000000
_cell_angle_gamma 90.000000
_cell_volume 3476.504224
_symmetry_space_group_name_H-M "C C C A"
_symmetry_group_IT_number 68
_space_group.IT_coordinate_system_code '2'
_symmetry_cell_setting 'orthorhombic'
loop_
_space_group_symop_operation_xyz
x,y,z
-x,1/2-y,z
x,1/2-y,1/2-z
-x,y,1/2-z
-x,-y,-z
x,1/2+y,-z
-x,1/2+y,1/2+z
x,-y,1/2+z
1/2+x,1/2+y,z
1/2-x,-y,z
1/2+x,-y,1/2-z
1/2-x,1/2+y,1/2-z
1/2-x,1/2-y,-z
1/2+x,y,-z
1/2-x,y,1/2+z
1/2+x,1/2-y,1/2+z
loop_
_atom_site_type_symbol
_atom_site_label
_atom_site_fract_x
_atom_site_fract_y
_atom_site_fract_z
Si Si1 0.750998 0.880309 0.911189
Si Si2 0.000000 0.939933 0.750000
Si Si3 0.440169 0.046960 0.429972
Si Si4 0.747150 0.250000 0.750000
Si Si5 0.163398 0.878807 0.900404
Si Si6 0.911360 0.186775 0.408567
O O1 0.711886 0.811559 0.831377
O O2 0.830799 0.846077 0.903050
O O3 0.750000 0.000000 0.890253
O O4 0.716955 0.857407 0.013776
O O5 0.962113 0.018587 0.677742
O O6 0.951931 0.869127 0.820771
O O7 0.364819 0.990757 0.428252
O O8 0.500000 0.000000 0.500000
O O9 0.433098 0.155120 0.483111
O O10 0.702154 0.340113 0.803652
O O11 0.093637 0.808856 0.900609
#
# Coordination Sequence:
#
# PCOD9507644 Si02
#       6
#    16   8  16   8  16  16
#     4  11  22  42  64  95 137 165 209 273 335 390
#     4  10  22  39  62  93 124 164 222 267 308 385
#     4  10  21  37  59  88 120 165 212 264 322 378
#     4  10  22  38  62  99 120 169 222 252 322 406
#     4  11  22  41  63  93 128 167 214 268 328 385
#     4  10  21  40  63  90 125 166 214 265 323 391
#
# _framework density 23.011621999999999
#
# number of rings (size 3 to 8) (size 9 to 14) (size 15 to 20)
#    0.000    1.600    2.000    4.800    0.000    4.800 
#   10.800    0.000    0.000    4.800    0.000    0.000 
#    0.000    0.000    0.000    0.000    0.000    0.000 
#
# Total GULP energy -222887.872405 kJ/mol
# GULP energy per Si atom -5572.196810 kJ/mol
# Density = 2.295925 g / cm^3
# Si number density = 23.011622 Si / 1000 Ang^3
#
#
#
# Elastic Constant Matrix: (Units=GPa)
#
#
# Indices 1 2 3 4 5 6 
#
# 1 65.2394 -8.6017 47.0034 0.0000 0.0000 0.0000
# 2 -8.6017 49.1348 32.2853 0.0000 0.0000 0.0000
# 3 47.0034 32.2853 152.9133 0.0000 0.0000 0.0000
# 4 0.0000 0.0000 0.0000 35.9532 0.0000 0.0000
# 5 0.0000 0.0000 0.0000 0.0000 40.3013 0.0000
# 6 0.0000 0.0000 0.0000 0.0000 0.0000 21.7599
#
#
#
# Elastic Compliance Matrix: (Units=1/GPa)
#
#
# Indices 1 2 3 4 5 6 
#
# 1 0.023430 0.010257 -0.009367 0.000000 0.000000 0.000000
# 2 0.010257 0.028121 -0.009090 0.000000 0.000000 0.000000
# 3 -0.009367 -0.009090 0.011338 0.000000 0.000000 0.000000
# 4 0.000000 0.000000 0.000000 0.027814 0.000000 0.000000
# 5 0.000000 0.000000 0.000000 0.000000 0.024813 0.000000
# 6 0.000000 0.000000 0.000000 0.000000 0.000000 0.045956
#
#
# Mechanical properties :
#
#
# Convention : Reuss Voigt Hill
#
# Bulk Modulus (GPa) = 21.51139 45.40686 33.45912
# Shear Modulus (GPa) = 25.85733 32.70956 29.28345
#
# Velocity S-wave (km/s) = 3.35575 3.77428 3.57115
# Velocity P-wave (km/s) = 4.93792 6.22644 5.61924
#
# Compressibility (1/GPa) = 0.04648699
#
# Stress axis : x y z
#
# Youngs Moduli (GPa) = 42.68119 35.56111 88.19662
#
# Poissons Ratio (x) = -0.36474 0.82618
# Poissons Ratio (y) = -0.43777 0.80171
# Poissons Ratio (z) = 0.39981 0.32325
#
# Static dielectric constant tensor:
#      x y z
#    x 1.942060 0.000000 0.000000 
#    y 0.000000 2.105260 0.000000 
#    z 0.000000 0.000000 1.924270 
# 
# From -- ./inp_files/16248.got.cif
#   From: 2010.05.17/outbox.cif.g08.bks.cpg/sg68_9_cif.got.tgz:16248.got - 2010.06.03 18:57:09.
