data_PCOD9507990
_publ_section_title
;
Structure prediction by ZEFSAII (Michael W. Deem and Ramdas Pophale) SiO2 
 PCOD9507990
Probable space group: C C C A
;
_chemical_formula_sum "Si O2"
_cell_formula_units_Z 120
_cell_length_a 19.225375
_cell_length_b 11.959651
_cell_length_c 23.568031
_cell_angle_alpha 90.000000
_cell_angle_beta 90.000000
_cell_angle_gamma 90.000000
_cell_volume 5418.968505
_symmetry_space_group_name_H-M "C C C A"
_symmetry_group_IT_number 68
_space_group.IT_coordinate_system_code '2'
_symmetry_cell_setting 'orthorhombic'
loop_
_space_group_symop_operation_xyz
x,y,z
-x,1/2-y,z
x,1/2-y,1/2-z
-x,y,1/2-z
-x,-y,-z
x,1/2+y,-z
-x,1/2+y,1/2+z
x,-y,1/2+z
1/2+x,1/2+y,z
1/2-x,-y,z
1/2+x,-y,1/2-z
1/2-x,1/2+y,1/2-z
1/2-x,1/2-y,-z
1/2+x,y,-z
1/2-x,y,1/2+z
1/2+x,1/2-y,1/2+z
loop_
_atom_site_type_symbol
_atom_site_label
_atom_site_fract_x
_atom_site_fract_y
_atom_site_fract_z
Si Si1 0.023100 0.622040 0.188910
Si Si2 0.606241 0.463792 0.137881
Si Si3 0.500000 0.250000 0.012366
Si Si4 0.173224 0.682404 0.874104
Si Si5 0.300275 0.674585 0.945449
Si Si6 0.114548 0.375800 0.590282
Si Si7 0.719301 0.123454 0.274984
Si Si8 0.121984 0.629752 0.555631
O O1 0.973073 0.566154 0.143280
O O2 0.000000 0.750000 0.191283
O O3 0.000000 0.573552 0.250000
O O4 0.097406 0.619508 0.157999
O O5 0.612020 0.594967 0.131614
O O6 0.644459 0.405433 0.085833
O O7 0.649703 0.416723 0.191981
O O8 0.446785 0.316587 0.053458
O O9 0.550053 0.326069 0.972594
O O10 0.223451 0.644188 0.925738
O O11 0.221794 0.660377 0.820255
O O12 0.142192 0.802372 0.887735
O O13 0.319365 0.796934 0.921054
O O14 0.318005 0.661774 0.010590
O O15 0.122399 0.499517 0.567239
O O16 0.703654 0.250000 0.250000
O O17 0.750000 0.000000 0.250416
#
# Coordination Sequence:
#
# PCOD9507990 Si02
#       8
#    16  16   8  16  16  16  16  16
#     4  11  22  38  64  95 122 158 206 270 319 361
#     4  10  21  40  65  88 126 164 210 250 315 388
#     4  10  22  40  61  90 123 172 208 252 322 386
#     4  10  23  42  60  90 126 168 208 255 317 392
#     4  10  21  40  61  91 124 162 209 259 305 376
#     4  11  22  41  60  93 127 155 215 270 308 377
#     4   9  20  41  64  90 118 166 212 268 322 379
#     4  11  24  37  63  92 125 173 205 255 320 378
#
# _framework density 22.144435000000001
#
# number of rings (size 3 to 8) (size 9 to 14) (size 15 to 20)
#    0.000    1.733    2.000    2.800    7.467    0.533 
#   12.000    0.000    0.000    0.800    0.000    0.000 
#    0.000    0.000    0.000    0.000    0.000    0.000 
#
# Total GULP energy -334628.740843 kJ/mol
# GULP energy per Si atom -5577.145681 kJ/mol
# Density = 2.209403 g / cm^3
# Si number density = 22.144435 Si / 1000 Ang^3
#
#
#
# Elastic Constant Matrix: (Units=GPa)
#
#
# Indices 1 2 3 4 5 6 
#
# 1 43.5708 6.3557 -2.4952 0.0000 0.0000 0.0000
# 2 6.3557 138.8530 23.2459 0.0000 0.0000 0.0000
# 3 -2.4952 23.2459 52.2159 0.0000 0.0000 0.0000
# 4 0.0000 0.0000 0.0000 -44.4708 0.0000 0.0000
# 5 0.0000 0.0000 0.0000 0.0000 2.0526 0.0000
# 6 0.0000 0.0000 0.0000 0.0000 0.0000 20.8784
#
#
#
# Elastic Compliance Matrix: (Units=1/GPa)
#
#
# Indices 1 2 3 4 5 6 
#
# 1 0.023246 -0.001351 0.001712 0.000000 0.000000 0.000000
# 2 -0.001351 0.007860 -0.003564 0.000000 0.000000 0.000000
# 3 0.001712 -0.003564 0.020820 0.000000 0.000000 0.000000
# 4 0.000000 0.000000 0.000000 -0.022487 0.000000 0.000000
# 5 0.000000 0.000000 0.000000 0.000000 0.487189 0.000000
# 6 0.000000 0.000000 0.000000 0.000000 0.000000 0.047896
#
#
# Mechanical properties :
#
#
# Convention : Reuss Voigt Hill
#
# Bulk Modulus (GPa) = 21.96770 32.09473 27.03122
# Shear Modulus (GPa) = 8.53091 9.52758 9.02925
#
# Velocity S-wave (km/s) = 1.96488 2.07649 2.02146
# Velocity P-wave (km/s) = 3.88451 4.50266 4.20496
#
# Compressibility (1/GPa) = 0.04552138
#
# Stress axis : x y z
#
# Youngs Moduli (GPa) = 43.01774 127.22120 48.03158
#
# Poissons Ratio (x) = 0.17184 -0.08224
# Poissons Ratio (y) = 0.05810 0.17118
# Poissons Ratio (z) = -0.07365 0.45340
#
# Static dielectric constant tensor:
#      x y z
#    x 1.839600 0.000000 0.000000 
#    y 0.000000 1.758870 0.000000 
#    z 0.000000 0.000000 1.885640 
# 
# From -- ./inp_files/40952.got.cif
#   From: 2010.05.17/outbox.cif.g08.bks.cpg/sg68_21_cif.got.tgz:40952.got - 2010.06.03 18:57:09.
