data_PCOD9507632
_publ_section_title
;
Structure prediction by ZEFSAII (Michael W. Deem and Ramdas Pophale) SiO2 
 PCOD9507632
Probable space group: C C C A
;
_chemical_formula_sum "Si O2"
_cell_formula_units_Z 72
_cell_length_a 24.421105
_cell_length_b 9.474609
_cell_length_c 13.656845
_cell_angle_alpha 90.000000
_cell_angle_beta 90.000000
_cell_angle_gamma 90.000000
_cell_volume 3159.926549
_symmetry_space_group_name_H-M "C C C A"
_symmetry_group_IT_number 68
_space_group.IT_coordinate_system_code '2'
_symmetry_cell_setting 'orthorhombic'
loop_
_space_group_symop_operation_xyz
x,y,z
-x,1/2-y,z
x,1/2-y,1/2-z
-x,y,1/2-z
-x,-y,-z
x,1/2+y,-z
-x,1/2+y,1/2+z
x,-y,1/2+z
1/2+x,1/2+y,z
1/2-x,-y,z
1/2+x,-y,1/2-z
1/2-x,1/2+y,1/2-z
1/2-x,1/2-y,-z
1/2+x,y,-z
1/2-x,y,1/2+z
1/2+x,1/2-y,1/2+z
loop_
_atom_site_type_symbol
_atom_site_label
_atom_site_fract_x
_atom_site_fract_y
_atom_site_fract_z
Si Si1 0.658787 0.655119 0.493112
Si Si2 0.162545 0.094579 0.874880
Si Si3 0.965381 0.382068 0.554435
Si Si4 0.750000 0.000000 0.877182
Si Si5 0.429903 0.750000 0.750000
Si Si6 0.254899 0.250000 0.750000
O O1 0.661698 0.820231 0.521058
O O2 0.666447 0.573032 0.390879
O O3 0.597309 0.611764 0.521722
O O4 0.705426 0.584226 0.560096
O O5 0.109310 0.149388 0.816193
O O6 0.214079 0.157016 0.818002
O O7 0.960251 0.353215 0.671930
O O8 0.000000 0.250000 0.518397
O O9 0.000000 0.500000 0.500000
O O10 0.780101 0.874901 0.815667
#
# Coordination Sequence:
#
# PCOD9507632 Si02
#       6
#    16  16  16   8   8   8
#     4  10  21  37  57  87 116 156 205 256 315 381
#     4   9  19  37  60  86 120 157 208 256 316 389
#     4  11  22  39  65  91 123 166 213 264 327 395
#     4  10  22  38  58  86 124 162 214 258 316 394
#     4   9  19  38  63  86 116 160 205 261 329 390
#     4   9  20  36  57  88 121 164 200 253 318 382
#
# _framework density 22.785339
#
# number of rings (size 3 to 8) (size 9 to 14) (size 15 to 20)
#    0.000    2.222    0.000    4.333    0.000    6.222 
#    0.000    0.000    0.000   26.667    0.000    0.000 
#    0.000    0.000    0.000    0.000    0.000    0.000 
#
# Total GULP energy -200590.183140 kJ/mol
# GULP energy per Si atom -5571.949532 kJ/mol
# Density = 2.273348 g / cm^3
# Si number density = 22.785339 Si / 1000 Ang^3
#
#
#
# Elastic Constant Matrix: (Units=GPa)
#
#
# Indices 1 2 3 4 5 6 
#
# 1 108.6732 12.5860 26.1555 0.0000 0.0000 0.0000
# 2 12.5860 107.8960 26.4440 0.0000 0.0000 0.0000
# 3 26.1555 26.4440 86.4843 0.0000 0.0000 0.0000
# 4 0.0000 0.0000 0.0000 36.7150 0.0000 0.0000
# 5 0.0000 0.0000 0.0000 0.0000 35.4658 0.0000
# 6 0.0000 0.0000 0.0000 0.0000 0.0000 36.0540
#
#
#
# Elastic Compliance Matrix: (Units=1/GPa)
#
#
# Indices 1 2 3 4 5 6 
#
# 1 0.009945 -0.000457 -0.002868 0.000000 0.000000 0.000000
# 2 -0.000457 0.010040 -0.002932 0.000000 0.000000 0.000000
# 3 -0.002868 -0.002932 0.013327 0.000000 0.000000 0.000000
# 4 0.000000 0.000000 0.000000 0.027237 0.000000 0.000000
# 5 0.000000 0.000000 0.000000 0.000000 0.028196 0.000000
# 6 0.000000 0.000000 0.000000 0.000000 0.000000 0.027736
#
#
# Mechanical properties :
#
#
# Convention : Reuss Voigt Hill
#
# Bulk Modulus (GPa) = 48.08111 48.15825 48.11968
# Shear Modulus (GPa) = 36.78446 37.50484 37.14465
#
# Velocity S-wave (km/s) = 4.02231 4.06150 4.04195
# Velocity P-wave (km/s) = 6.53602 6.57084 6.55345
#
# Compressibility (1/GPa) = 0.02079819
#
# Stress axis : x y z
#
# Youngs Moduli (GPa) = 100.55200 99.60135 75.03831
#
# Poissons Ratio (x) = 0.04554 0.21520
# Poissons Ratio (y) = 0.04597 0.21998
# Poissons Ratio (z) = 0.28837 0.29199
#
# Static dielectric constant tensor:
#      x y z
#    x 1.894710 0.000000 0.000000 
#    y 0.000000 1.773110 0.000000 
#    z 0.000000 0.000000 1.992680 
# 
# From -- ./inp_files/25862.got.cif
#   From: 2010.05.17/outbox.cif.g08.bks.cpg/sg68_13_cif.got.tgz:25862.got - 2010.06.03 18:57:09.
