data_PCOD9507240
_publ_section_title
;
Structure prediction by ZEFSAII (Michael W. Deem and Ramdas Pophale) SiO2 
 PCOD9507240
Probable space group: C C C A
;
_chemical_formula_sum "Si O2"
_cell_formula_units_Z 68
_cell_length_a 4.868755
_cell_length_b 20.929212
_cell_length_c 32.403266
_cell_angle_alpha 90.000000
_cell_angle_beta 90.000000
_cell_angle_gamma 90.000000
_cell_volume 3301.867063
_symmetry_space_group_name_H-M "C C C A"
_symmetry_group_IT_number 68
_space_group.IT_coordinate_system_code '2'
_symmetry_cell_setting 'orthorhombic'
loop_
_space_group_symop_operation_xyz
x,y,z
-x,1/2-y,z
x,1/2-y,1/2-z
-x,y,1/2-z
-x,-y,-z
x,1/2+y,-z
-x,1/2+y,1/2+z
x,-y,1/2+z
1/2+x,1/2+y,z
1/2-x,-y,z
1/2+x,-y,1/2-z
1/2-x,1/2+y,1/2-z
1/2-x,1/2-y,-z
1/2+x,y,-z
1/2-x,y,1/2+z
1/2+x,1/2-y,1/2+z
loop_
_atom_site_type_symbol
_atom_site_label
_atom_site_fract_x
_atom_site_fract_y
_atom_site_fract_z
Si Si1 0.000000 0.750000 0.803597
Si Si2 0.500000 0.544188 0.250000
Si Si3 0.384217 0.882044 0.332732
Si Si4 0.376867 0.928491 0.617880
Si Si5 0.245837 0.922424 0.025243
Si Si6 0.500000 0.750000 0.750000
O O1 0.154475 0.806556 0.827150
O O2 0.260181 0.717291 0.778400
O O3 0.750000 0.500000 0.234369
O O4 0.616468 0.585298 0.287852
O O5 0.681734 0.888691 0.352573
O O6 0.176755 0.919045 0.363037
O O7 0.354333 0.905076 0.570704
O O8 0.250000 0.000000 0.618932
O O9 0.250000 0.000000 0.025155
O O10 0.545577 0.901302 0.011503
#
# Coordination Sequence:
#
# PCOD9507240 Si02
#       6
#     8   8  16  16  16   4
#     4  11  24  40  60  84 110 155 210 257 302 340
#     4  12  24  38  56  81 114 151 190 232 290 352
#     4  12  24  39  58  83 117 157 199 245 288 347
#     4  11  22  37  58  87 120 151 187 238 301 359
#     4   9  17  31  53  82 114 145 180 227 289 360
#     4  10  20  40  60  78 104 138 200 268 300 332
#
# _framework density 20.594408000000001
#
# number of rings (size 3 to 8) (size 9 to 14) (size 15 to 20)
#    0.000    1.176    0.000    8.471    0.000    5.647 
#    0.000    0.000    0.000    0.000    0.000   16.471 
#    0.000    0.000    0.000    0.000    0.000    0.000 
#
# Total GULP energy -189530.395344 kJ/mol
# GULP energy per Si atom -5574.423392 kJ/mol
# Density = 2.054753 g / cm^3
# Si number density = 20.594408 Si / 1000 Ang^3
#
#
#
# Elastic Constant Matrix: (Units=GPa)
#
#
# Indices 1 2 3 4 5 6 
#
# 1 70.1251 -2.2144 -6.4926 0.0000 0.0000 0.0000
# 2 -2.2144 65.1966 17.4376 0.0000 0.0000 0.0000
# 3 -6.4926 17.4376 107.6077 0.0000 0.0000 0.0000
# 4 0.0000 0.0000 0.0000 14.5138 0.0000 0.0000
# 5 0.0000 0.0000 0.0000 0.0000 0.0934 0.0000
# 6 0.0000 0.0000 0.0000 0.0000 0.0000 20.7818
#
#
#
# Elastic Compliance Matrix: (Units=1/GPa)
#
#
# Indices 1 2 3 4 5 6 
#
# 1 0.014345 0.000267 0.000822 0.000000 0.000000 0.000000
# 2 0.000267 0.016038 -0.002583 0.000000 0.000000 0.000000
# 3 0.000822 -0.002583 0.009761 0.000000 0.000000 0.000000
# 4 0.000000 0.000000 0.000000 0.068900 0.000000 0.000000
# 5 0.000000 0.000000 0.000000 0.000000 10.707503 0.000000
# 6 0.000000 0.000000 0.000000 0.000000 0.000000 0.048119
#
#
# Mechanical properties :
#
#
# Convention : Reuss Voigt Hill
#
# Bulk Modulus (GPa) = 26.91252 28.93230 27.92241
# Shear Modulus (GPa) = 0.45956 22.69105 11.57530
#
# Velocity S-wave (km/s) = 0.47290 3.32295 2.37335
# Velocity P-wave (km/s) = 3.65984 5.36673 4.59327
#
# Compressibility (1/GPa) = 0.03715743
#
# Stress axis : x y z
#
# Youngs Moduli (GPa) = 69.71171 62.35150 102.44679
#
# Poissons Ratio (x) = -0.01667 -0.08423
# Poissons Ratio (y) = -0.01863 0.26460
# Poissons Ratio (z) = -0.05732 0.16104
#
# Static dielectric constant tensor:
#      x y z
#    x 1.712610 0.000000 0.000000 
#    y 0.000000 2.025060 0.000000 
#    z 0.000000 0.000000 1.761870 
# 
# From -- ./inp_files/53066.got.cif
#   From: 2010.05.17/outbox.cif.g08.bks.cpg/sg68_27_cif.got.tgz:53066.got - 2010.06.03 18:57:09.
