data_PCOD9507780
_publ_section_title
;
Structure prediction by ZEFSAII (Michael W. Deem and Ramdas Pophale) SiO2 
 PCOD9507780
Probable space group: C C C A
;
_chemical_formula_sum "Si O2"
_cell_formula_units_Z 64
_cell_length_a 24.540742
_cell_length_b 24.327461
_cell_length_c 5.207316
_cell_angle_alpha 90.000000
_cell_angle_beta 90.000000
_cell_angle_gamma 90.000000
_cell_volume 3108.840262
_symmetry_space_group_name_H-M "C C C A"
_symmetry_group_IT_number 68
_space_group.IT_coordinate_system_code '2'
_symmetry_cell_setting 'orthorhombic'
loop_
_space_group_symop_operation_xyz
x,y,z
-x,1/2-y,z
x,1/2-y,1/2-z
-x,y,1/2-z
-x,-y,-z
x,1/2+y,-z
-x,1/2+y,1/2+z
x,-y,1/2+z
1/2+x,1/2+y,z
1/2-x,-y,z
1/2+x,-y,1/2-z
1/2-x,1/2+y,1/2-z
1/2-x,1/2-y,-z
1/2+x,y,-z
1/2-x,y,1/2+z
1/2+x,1/2-y,1/2+z
loop_
_atom_site_type_symbol
_atom_site_label
_atom_site_fract_x
_atom_site_fract_y
_atom_site_fract_z
Si Si1 0.771155 0.312732 0.547350
Si Si2 0.563054 0.190178 0.826266
Si Si3 0.561687 0.536701 0.789446
Si Si4 0.888579 0.353097 0.665882
O O1 0.750000 0.250000 0.500000
O O2 0.768331 0.337689 0.263218
O O3 0.830609 0.322597 0.662799
O O4 0.585757 0.250000 0.750000
O O5 0.500000 0.189550 0.750000
O O6 0.590640 0.148967 0.626355
O O7 0.574289 0.178084 0.122887
O O8 0.500000 0.560803 0.750000
O O9 0.565698 0.490862 0.567673
O O10 0.606319 0.583884 0.751857
#
# Coordination Sequence:
#
# PCOD9507780 Si02
#       4
#    16  16  16  16
#     4  10  23  39  60  88 119 159 217 267 306 367
#     4  11  24  37  56  91 130 165 203 244 309 403
#     4  10  21  38  62  92 123 158 208 260 311 384
#     4  12  23  39  66  86 126 172 206 259 325 373
#
# _framework density 20.586455999999998
#
# number of rings (size 3 to 8) (size 9 to 14) (size 15 to 20)
#    0.000    1.250    0.000    6.000   10.500    4.000 
#    0.000    0.000    0.000    4.500    0.000    0.000 
#    0.000    0.000    0.000    0.000    0.000    0.000 
#
# Total GULP energy -178514.544345 kJ/mol
# GULP energy per Si atom -5578.579511 kJ/mol
# Density = 2.053960 g / cm^3
# Si number density = 20.586456 Si / 1000 Ang^3
#
#
#
# Elastic Constant Matrix: (Units=GPa)
#
#
# Indices 1 2 3 4 5 6 
#
# 1 92.2272 25.9625 20.9645 0.0000 0.0000 0.0000
# 2 25.9625 51.3256 -5.1016 0.0000 0.0000 0.0000
# 3 20.9645 -5.1016 110.8229 0.0000 0.0000 0.0000
# 4 0.0000 0.0000 0.0000 26.2800 0.0000 0.0000
# 5 0.0000 0.0000 0.0000 0.0000 29.1819 0.0000
# 6 0.0000 0.0000 0.0000 0.0000 0.0000 20.8746
#
#
#
# Elastic Compliance Matrix: (Units=1/GPa)
#
#
# Indices 1 2 3 4 5 6 
#
# 1 0.013501 -0.007116 -0.002882 0.000000 0.000000 0.000000
# 2 -0.007116 0.023323 0.002420 0.000000 0.000000 0.000000
# 3 -0.002882 0.002420 0.009680 0.000000 0.000000 0.000000
# 4 0.000000 0.000000 0.000000 0.038052 0.000000 0.000000
# 5 0.000000 0.000000 0.000000 0.000000 0.034268 0.000000
# 6 0.000000 0.000000 0.000000 0.000000 0.000000 0.047905
#
#
# Mechanical properties :
#
#
# Convention : Reuss Voigt Hill
#
# Bulk Modulus (GPa) = 31.89875 37.55850 34.72863
# Shear Modulus (GPa) = 25.99649 29.43732 27.71691
#
# Velocity S-wave (km/s) = 3.55744 3.78555 3.67327
# Velocity P-wave (km/s) = 5.69232 6.11483 5.90735
#
# Compressibility (1/GPa) = 0.03134919
#
# Stress axis : x y z
#
# Youngs Moduli (GPa) = 74.06899 42.87541 103.30677
#
# Poissons Ratio (x) = 0.30509 0.29768
# Poissons Ratio (y) = 0.52705 -0.24998
# Poissons Ratio (z) = 0.21343 -0.10375
#
# Static dielectric constant tensor:
#      x y z
#    x 1.785810 0.000000 0.000000 
#    y 0.000000 1.818050 0.000000 
#    z 0.000000 0.000000 1.551300 
# 
# From -- ./inp_files/1382.got.cif
#   From: 2010.05.17/outbox.cif.g08.bks.cpg/sg68_1_cif.got.tgz:1382.got - 2010.06.03 18:57:09.
