data_PCOD9507025
_publ_section_title
;
Structure prediction by ZEFSAII (Michael W. Deem and Ramdas Pophale) SiO2 
 PCOD9507025
Probable space group: C C C A
;
_chemical_formula_sum "Si O2"
_cell_formula_units_Z 96
_cell_length_a 23.422170
_cell_length_b 12.293582
_cell_length_c 15.992365
_cell_angle_alpha 90.000000
_cell_angle_beta 90.000000
_cell_angle_gamma 90.000000
_cell_volume 4604.879440
_symmetry_space_group_name_H-M "C C C A"
_symmetry_group_IT_number 68
_space_group.IT_coordinate_system_code '2'
_symmetry_cell_setting 'orthorhombic'
loop_
_space_group_symop_operation_xyz
x,y,z
-x,1/2-y,z
x,1/2-y,1/2-z
-x,y,1/2-z
-x,-y,-z
x,1/2+y,-z
-x,1/2+y,1/2+z
x,-y,1/2+z
1/2+x,1/2+y,z
1/2-x,-y,z
1/2+x,-y,1/2-z
1/2-x,1/2+y,1/2-z
1/2-x,1/2-y,-z
1/2+x,y,-z
1/2-x,y,1/2+z
1/2+x,1/2-y,1/2+z
loop_
_atom_site_type_symbol
_atom_site_label
_atom_site_fract_x
_atom_site_fract_y
_atom_site_fract_z
Si Si1 0.497604 0.625697 0.150354
Si Si2 0.375890 0.082724 0.924896
Si Si3 0.212499 0.890989 0.204426
Si Si4 0.387943 0.997487 0.608530
Si Si5 0.793782 0.600447 0.391817
Si Si6 0.196666 0.802414 0.572714
O O1 0.500000 0.750000 0.117102
O O2 0.500000 0.630693 0.250000
O O3 0.435164 0.592838 0.121681
O O4 0.548505 0.543311 0.124935
O O5 0.332325 0.184487 0.910209
O O6 0.351801 0.967252 0.895416
O O7 0.385995 0.072023 0.023720
O O8 0.149113 0.926077 0.174249
O O9 0.210077 0.652118 0.200296
O O10 0.249896 0.833856 0.131687
O O11 0.250000 0.000000 0.216889
O O12 0.350745 0.107030 0.596003
O O13 0.750000 0.500000 0.404013
O O14 0.790568 0.674049 0.474759
#
# Coordination Sequence:
#
# PCOD9507025 Si02
#       6
#    16  16  16  16  16  16
#     4  11  22  38  61  91 123 160 213 269 319 380
#     4  11  22  38  64  89 122 170 210 261 326 381
#     4   9  19  37  58  83 123 167 203 261 319 377
#     4  10  20  38  60  87 125 160 209 267 317 380
#     4  10  21  38  58  87 124 165 212 259 320 382
#     4  10  20  38  60  90 127 164 214 262 314 392
#
# _framework density 20.847451
#
# number of rings (size 3 to 8) (size 9 to 14) (size 15 to 20)
#    0.000    1.833    1.667    4.000    0.000    2.667 
#    0.000    7.500    0.000    0.000    0.000    1.167 
#    0.000    0.000    0.000    0.000    0.000    0.000 
#
# Total GULP energy -267756.904316 kJ/mol
# GULP energy per Si atom -5578.268840 kJ/mol
# Density = 2.080000 g / cm^3
# Si number density = 20.847451 Si / 1000 Ang^3
#
#
#
# Elastic Constant Matrix: (Units=GPa)
#
#
# Indices 1 2 3 4 5 6 
#
# 1 133.3483 55.7986 56.1743 0.0000 0.0000 0.0000
# 2 55.7986 86.8754 60.0078 0.0000 0.0000 0.0000
# 3 56.1743 60.0078 134.2347 0.0000 0.0000 0.0000
# 4 0.0000 0.0000 0.0000 22.1272 0.0000 0.0000
# 5 0.0000 0.0000 0.0000 0.0000 52.1758 0.0000
# 6 0.0000 0.0000 0.0000 0.0000 0.0000 117.6619
#
#
#
# Elastic Compliance Matrix: (Units=1/GPa)
#
#
# Indices 1 2 3 4 5 6 
#
# 1 0.010620 -0.005427 -0.002018 0.000000 0.000000 0.000000
# 2 -0.005427 0.019426 -0.006413 0.000000 0.000000 0.000000
# 3 -0.002018 -0.006413 0.011161 0.000000 0.000000 0.000000
# 4 0.000000 0.000000 0.000000 0.045193 0.000000 0.000000
# 5 0.000000 0.000000 0.000000 0.000000 0.019166 0.000000
# 6 0.000000 0.000000 0.000000 0.000000 0.000000 0.008499
#
#
# Mechanical properties :
#
#
# Convention : Reuss Voigt Hill
#
# Bulk Modulus (GPa) = 74.12518 77.60218 75.86368
# Shear Modulus (GPa) = 34.18107 50.55817 42.36962
#
# Velocity S-wave (km/s) = 4.05357 4.92992 4.51307
# Velocity P-wave (km/s) = 7.58563 8.34926 7.97659
#
# Compressibility (1/GPa) = 0.01349069
#
# Stress axis : x y z
#
# Youngs Moduli (GPa) = 94.15903 51.47663 89.59694
#
# Poissons Ratio (x) = 0.27937 0.18083
# Poissons Ratio (y) = 0.51102 0.57459
# Poissons Ratio (z) = 0.19003 0.33012
#
# Static dielectric constant tensor:
#      x y z
#    x 1.808610 0.000000 0.000000 
#    y 0.000000 1.818180 0.000000 
#    z 0.000000 0.000000 1.798060 
# 
# From -- ./inp_files/40245.got.cif
#   From: 2010.05.17/outbox.cif.g08.bks.cpg/sg68_21_cif.got.tgz:40245.got - 2010.06.03 18:57:09.
