data_PCOD9507295
_publ_section_title
;
Structure prediction by ZEFSAII (Michael W. Deem and Ramdas Pophale) SiO2 
 PCOD9507295
Probable space group: C C C A
;
_chemical_formula_sum "Si O2"
_cell_formula_units_Z 112
_cell_length_a 26.359875
_cell_length_b 15.863958
_cell_length_c 12.701773
_cell_angle_alpha 90.000000
_cell_angle_beta 90.000000
_cell_angle_gamma 90.000000
_cell_volume 5311.525182
_symmetry_space_group_name_H-M "C C C A"
_symmetry_group_IT_number 68
_space_group.IT_coordinate_system_code '2'
_symmetry_cell_setting 'orthorhombic'
loop_
_space_group_symop_operation_xyz
x,y,z
-x,1/2-y,z
x,1/2-y,1/2-z
-x,y,1/2-z
-x,-y,-z
x,1/2+y,-z
-x,1/2+y,1/2+z
x,-y,1/2+z
1/2+x,1/2+y,z
1/2-x,-y,z
1/2+x,-y,1/2-z
1/2-x,1/2+y,1/2-z
1/2-x,1/2-y,-z
1/2+x,y,-z
1/2-x,y,1/2+z
1/2+x,1/2-y,1/2+z
loop_
_atom_site_type_symbol
_atom_site_label
_atom_site_fract_x
_atom_site_fract_y
_atom_site_fract_z
Si Si1 0.744544 0.101125 0.148289
Si Si2 0.806860 0.103351 0.941729
Si Si3 0.393987 0.949814 0.396771
Si Si4 0.496902 0.847368 0.375681
Si Si5 0.151953 0.225977 0.859221
Si Si6 0.399905 0.879774 0.014883
Si Si7 0.324359 0.935236 0.192097
O O1 0.690826 0.147415 0.155604
O O2 0.782108 0.121633 0.246891
O O3 0.750000 0.000000 0.154764
O O4 0.762536 0.114668 0.027671
O O5 0.815051 0.192535 0.887632
O O6 0.804995 0.023988 0.860442
O O7 0.855040 0.085195 0.016465
O O8 0.445311 0.896096 0.402148
O O9 0.366201 0.949193 0.283747
O O10 0.401988 0.045729 0.430173
O O11 0.500000 0.750000 0.409774
O O12 0.500000 0.848925 0.250000
O O13 0.547715 0.886065 0.423371
O O14 0.125723 0.250000 0.750000
O O15 0.112388 0.204118 0.950094
O O16 0.353559 0.890695 0.096542
#
# Coordination Sequence:
#
# PCOD9507295 Si02
#       7
#    16  16  16  16  16  16  16
#     4  11  23  39  60  88 123 167 216 263 316 380
#     4  10  22  39  62  89 126 163 209 262 322 372
#     4  10  20  40  65  95 124 165 208 255 317 390
#     4  11  22  39  65  97 129 160 207 264 324 383
#     4  12  25  41  60  90 125 168 214 269 324 379
#     4  11  23  41  66  89 128 169 211 264 322 387
#     4  10  21  40  63  92 122 167 217 261 316 387
#
# _framework density 21.086223
#
# number of rings (size 3 to 8) (size 9 to 14) (size 15 to 20)
#    0.000    1.286    1.429    6.000    0.000    5.143 
#    0.000    0.000    0.000    0.857    0.000    0.000 
#    0.000    0.000    0.000    0.000    0.000    0.000 
#
# Total GULP energy -312708.767144 kJ/mol
# GULP energy per Si atom -5584.085128 kJ/mol
# Density = 2.103823 g / cm^3
# Si number density = 21.086223 Si / 1000 Ang^3
#
#
#
# Elastic Constant Matrix: (Units=GPa)
#
#
# Indices 1 2 3 4 5 6 
#
# 1 102.9162 18.5998 34.3599 0.0000 0.0000 0.0000
# 2 18.5998 58.8719 29.6936 0.0000 0.0000 0.0000
# 3 34.3599 29.6936 115.0810 0.0000 0.0000 0.0000
# 4 0.0000 0.0000 0.0000 25.7615 0.0000 0.0000
# 5 0.0000 0.0000 0.0000 0.0000 25.3050 0.0000
# 6 0.0000 0.0000 0.0000 0.0000 0.0000 21.5325
#
#
#
# Elastic Compliance Matrix: (Units=1/GPa)
#
#
# Indices 1 2 3 4 5 6 
#
# 1 0.011012 -0.002093 -0.002748 0.000000 0.000000 0.000000
# 2 -0.002093 0.019925 -0.004516 0.000000 0.000000 0.000000
# 3 -0.002748 -0.004516 0.010675 0.000000 0.000000 0.000000
# 4 0.000000 0.000000 0.000000 0.038818 0.000000 0.000000
# 5 0.000000 0.000000 0.000000 0.000000 0.039518 0.000000
# 6 0.000000 0.000000 0.000000 0.000000 0.000000 0.046442
#
#
# Mechanical properties :
#
#
# Convention : Reuss Voigt Hill
#
# Bulk Modulus (GPa) = 43.67152 49.13064 46.40108
# Shear Modulus (GPa) = 25.94205 27.46750 26.70478
#
# Velocity S-wave (km/s) = 3.51135 3.61311 3.56259
# Velocity P-wave (km/s) = 6.09879 6.38408 6.24307
#
# Compressibility (1/GPa) = 0.02289822
#
# Stress axis : x y z
#
# Youngs Moduli (GPa) = 90.80703 50.18765 93.67458
#
# Poissons Ratio (x) = 0.10505 0.25741
# Poissons Ratio (y) = 0.19008 0.42305
# Poissons Ratio (z) = 0.24953 0.22666
#
# Static dielectric constant tensor:
#      x y z
#    x 1.780430 0.000000 0.000000 
#    y 0.000000 1.787800 0.000000 
#    z 0.000000 0.000000 1.793190 
# 
# From -- ./inp_files/17785.got.cif
#   From: 2010.05.17/outbox.cif.g08.bks.cpg/sg68_9_cif.got.tgz:17785.got - 2010.06.03 18:57:09.
