data_PCOD9507463
_publ_section_title
;
Structure prediction by ZEFSAII (Michael W. Deem and Ramdas Pophale) SiO2 
 PCOD9507463
Probable space group: C C C A
;
_chemical_formula_sum "Si O2"
_cell_formula_units_Z 72
_cell_length_a 5.863420
_cell_length_b 27.504232
_cell_length_c 24.606324
_cell_angle_alpha 90.000000
_cell_angle_beta 90.000000
_cell_angle_gamma 90.000000
_cell_volume 3968.233919
_symmetry_space_group_name_H-M "C C C A"
_symmetry_group_IT_number 68
_space_group.IT_coordinate_system_code '2'
_symmetry_cell_setting 'orthorhombic'
loop_
_space_group_symop_operation_xyz
x,y,z
-x,1/2-y,z
x,1/2-y,1/2-z
-x,y,1/2-z
-x,-y,-z
x,1/2+y,-z
-x,1/2+y,1/2+z
x,-y,1/2+z
1/2+x,1/2+y,z
1/2-x,-y,z
1/2+x,-y,1/2-z
1/2-x,1/2+y,1/2-z
1/2-x,1/2-y,-z
1/2+x,y,-z
1/2-x,y,1/2+z
1/2+x,1/2-y,1/2+z
loop_
_atom_site_type_symbol
_atom_site_label
_atom_site_fract_x
_atom_site_fract_y
_atom_site_fract_z
Si Si1 0.119508 0.565815 0.374335
Si Si2 0.888034 0.852623 0.074799
Si Si3 0.750000 0.500000 0.932687
Si Si4 0.500000 0.750000 0.531760
Si Si5 0.001923 0.093367 0.039357
Si Si6 0.750000 0.000000 0.279713
O O1 0.303643 0.573858 0.421241
O O2 0.227614 0.546744 0.319267
O O3 0.989841 0.617253 0.375321
O O4 0.939041 0.525394 0.394865
O O5 0.979986 0.799009 0.066954
O O6 0.619612 0.863401 0.073814
O O7 0.946840 0.880878 0.017725
O O8 0.852489 0.544179 0.967521
O O9 0.750000 0.750000 0.500000
O O10 0.500000 0.997399 0.250000
#
# Coordination Sequence:
#
# PCOD9507463 Si02
#       6
#    16  16   8   8  16   8
#     4  11  22  40  55  84 119 157 206 248 296 376
#     4  11  23  34  57  84 126 166 203 239 295 352
#     4  10  21  31  52  74 118 154 201 235 288 344
#     4  12  22  40  56  86 129 176 209 246 282 354
#     4  11  19  34  51  83 118 168 194 237 285 353
#     4  12  27  45  64  86 118 158 201 261 318 362
#
# _framework density 18.144092000000001
#
# number of rings (size 3 to 8) (size 9 to 14) (size 15 to 20)
#    0.000    0.889    6.667    0.667    3.111    4.444 
#    0.000    0.000    0.000    0.000    0.000    0.778 
#    0.000    0.000    0.000    0.000    0.000    0.000 
#
# Total GULP energy -200435.392349 kJ/mol
# GULP energy per Si atom -5567.649787 kJ/mol
# Density = 1.810280 g / cm^3
# Si number density = 18.144092 Si / 1000 Ang^3
#
#
#
# Elastic Constant Matrix: (Units=GPa)
#
#
# Indices 1 2 3 4 5 6 
#
# 1 104.7477 38.3558 41.3459 0.0000 0.0000 0.0000
# 2 38.3558 137.7386 26.2876 0.0000 0.0000 0.0000
# 3 41.3459 26.2876 69.8503 0.0000 0.0000 0.0000
# 4 0.0000 0.0000 0.0000 14.4490 0.0000 0.0000
# 5 0.0000 0.0000 0.0000 0.0000 21.7019 0.0000
# 6 0.0000 0.0000 0.0000 0.0000 0.0000 26.7332
#
#
#
# Elastic Compliance Matrix: (Units=1/GPa)
#
#
# Indices 1 2 3 4 5 6 
#
# 1 0.013122 -0.002340 -0.006887 0.000000 0.000000 0.000000
# 2 -0.002340 0.008239 -0.001716 0.000000 0.000000 0.000000
# 3 -0.006887 -0.001716 0.019038 0.000000 0.000000 0.000000
# 4 0.000000 0.000000 0.000000 0.069209 0.000000 0.000000
# 5 0.000000 0.000000 0.000000 0.000000 0.046079 0.000000
# 6 0.000000 0.000000 0.000000 0.000000 0.000000 0.037407
#
#
# Mechanical properties :
#
#
# Convention : Reuss Voigt Hill
#
# Bulk Modulus (GPa) = 54.00980 58.25726 56.13353
# Shear Modulus (GPa) = 22.60915 26.33331 24.47123
#
# Velocity S-wave (km/s) = 3.53383 3.81378 3.67647
# Velocity P-wave (km/s) = 6.81780 7.18130 7.00191
#
# Compressibility (1/GPa) = 0.01851516
#
# Stress axis : x y z
#
# Youngs Moduli (GPa) = 76.20948 121.37212 52.52553
#
# Poissons Ratio (x) = 0.28397 0.36172
# Poissons Ratio (y) = 0.17831 0.09012
# Poissons Ratio (z) = 0.52482 0.20825
#
# Static dielectric constant tensor:
#      x y z
#    x 1.993940 0.000000 0.000000 
#    y 0.000000 1.642250 0.000000 
#    z 0.000000 0.000000 1.593790 
# 
# From -- ./inp_files/48410.got.cif
#   From: 2010.05.17/outbox.cif.g08.bks.cpg/sg68_25_cif.got.tgz:48410.got - 2010.06.03 18:57:09.
