data_PCOD9507485
_publ_section_title
;
Structure prediction by ZEFSAII (Michael W. Deem and Ramdas Pophale) SiO2 
 PCOD9507485
Probable space group: C C C A
;
_chemical_formula_sum "Si O2"
_cell_formula_units_Z 60
_cell_length_a 13.230544
_cell_length_b 21.343614
_cell_length_c 12.068170
_cell_angle_alpha 90.000000
_cell_angle_beta 90.000000
_cell_angle_gamma 90.000000
_cell_volume 3407.901854
_symmetry_space_group_name_H-M "C C C A"
_symmetry_group_IT_number 68
_space_group.IT_coordinate_system_code '2'
_symmetry_cell_setting 'orthorhombic'
loop_
_space_group_symop_operation_xyz
x,y,z
-x,1/2-y,z
x,1/2-y,1/2-z
-x,y,1/2-z
-x,-y,-z
x,1/2+y,-z
-x,1/2+y,1/2+z
x,-y,1/2+z
1/2+x,1/2+y,z
1/2-x,-y,z
1/2+x,-y,1/2-z
1/2-x,1/2+y,1/2-z
1/2-x,1/2-y,-z
1/2+x,y,-z
1/2-x,y,1/2+z
1/2+x,1/2-y,1/2+z
loop_
_atom_site_type_symbol
_atom_site_label
_atom_site_fract_x
_atom_site_fract_y
_atom_site_fract_z
Si Si1 0.000000 0.550431 0.250000
Si Si2 0.615542 0.364723 0.660735
Si Si3 0.000000 0.750000 0.750000
Si Si4 0.071634 0.436565 0.110486
Si Si5 0.692495 0.433530 0.113440
O O1 0.957230 0.504854 0.345921
O O2 0.900598 0.580826 0.196454
O O3 0.572202 0.295506 0.678714
O O4 0.612173 0.398275 0.782386
O O5 0.534196 0.401777 0.585786
O O6 0.726023 0.378164 0.616765
O O7 0.146119 0.439034 0.008669
O O8 0.750000 0.500000 0.141011
#
# Coordination Sequence:
#
# PCOD9507485 Si02
#       5
#     8  16   4  16  16
#     4  10  21  34  44  82 122 147 174 214 266 364
#     4   9  20  38  55  79 102 152 189 231 277 319
#     4   8  18  44  64  66 112 144 208 230 256 342
#     4   9  19  33  48  79 113 142 181 215 270 348
#     4  12  21  30  56  82 119 146 177 228 289 333
#
# _framework density 17.606141999999998
#
# number of rings (size 3 to 8) (size 9 to 14) (size 15 to 20)
#    0.000    2.667    5.333    0.800    3.733    0.000 
#    0.000    5.333    0.000    0.800    0.000    0.000 
#    0.000    0.000    0.000    0.000    0.000    0.000 
#
# Total GULP energy -167105.480377 kJ/mol
# GULP energy per Si atom -5570.182679 kJ/mol
# Density = 1.756607 g / cm^3
# Si number density = 17.606142 Si / 1000 Ang^3
#
#
#
# Elastic Constant Matrix: (Units=GPa)
#
#
# Indices 1 2 3 4 5 6 
#
# 1 137.4293 36.8104 53.2559 0.0000 0.0000 0.0000
# 2 36.8104 59.1734 17.1063 0.0000 0.0000 0.0000
# 3 53.2559 17.1063 37.9777 0.0000 0.0000 0.0000
# 4 0.0000 0.0000 0.0000 4.1781 0.0000 0.0000
# 5 0.0000 0.0000 0.0000 0.0000 43.8435 0.0000
# 6 0.0000 0.0000 0.0000 0.0000 0.0000 19.1993
#
#
#
# Elastic Compliance Matrix: (Units=1/GPa)
#
#
# Indices 1 2 3 4 5 6 
#
# 1 0.016791 -0.004183 -0.021662 0.000000 0.000000 0.000000
# 2 -0.004183 0.020472 -0.003355 0.000000 0.000000 0.000000
# 3 -0.021662 -0.003355 0.058219 0.000000 0.000000 0.000000
# 4 0.000000 0.000000 0.000000 0.239341 0.000000 0.000000
# 5 0.000000 0.000000 0.000000 0.000000 0.022808 0.000000
# 6 0.000000 0.000000 0.000000 0.000000 0.000000 0.052085
#
#
# Mechanical properties :
#
#
# Convention : Reuss Voigt Hill
#
# Bulk Modulus (GPa) = 26.96762 49.88063 38.42413
# Shear Modulus (GPa) = 10.40628 21.93802 16.17215
#
# Velocity S-wave (km/s) = 2.43381 3.53376 3.03405
# Velocity P-wave (km/s) = 4.82165 6.71140 5.84342
#
# Compressibility (1/GPa) = 0.03708150
#
# Stress axis : x y z
#
# Youngs Moduli (GPa) = 59.55431 48.84799 17.17644
#
# Poissons Ratio (x) = 0.20434 0.37208
# Poissons Ratio (y) = 0.24913 0.05763
# Poissons Ratio (z) = 1.29008 0.16388
#
# Static dielectric constant tensor:
#      x y z
#    x 1.663800 0.000000 0.000000 
#    y 0.000000 1.600920 0.000000 
#    z 0.000000 0.000000 1.618900 
# 
# From -- ./inp_files/11560.got.cif
#   From: 2010.05.17/outbox.cif.g08.bks.cpg/sg68_6_cif.got.tgz:11560.got - 2010.06.03 18:57:09.
