data_PCOD9507827
_publ_section_title
;
Structure prediction by ZEFSAII (Michael W. Deem and Ramdas Pophale) SiO2 
 PCOD9507827
Probable space group: C C C A
;
_chemical_formula_sum "Si O2"
_cell_formula_units_Z 120
_cell_length_a 19.979561
_cell_length_b 11.187020
_cell_length_c 22.996465
_cell_angle_alpha 90.000000
_cell_angle_beta 90.000000
_cell_angle_gamma 90.000000
_cell_volume 5139.980101
_symmetry_space_group_name_H-M "C C C A"
_symmetry_group_IT_number 68
_space_group.IT_coordinate_system_code '2'
_symmetry_cell_setting 'orthorhombic'
loop_
_space_group_symop_operation_xyz
x,y,z
-x,1/2-y,z
x,1/2-y,1/2-z
-x,y,1/2-z
-x,-y,-z
x,1/2+y,-z
-x,1/2+y,1/2+z
x,-y,1/2+z
1/2+x,1/2+y,z
1/2-x,-y,z
1/2+x,-y,1/2-z
1/2-x,1/2+y,1/2-z
1/2-x,1/2-y,-z
1/2+x,y,-z
1/2-x,y,1/2+z
1/2+x,1/2-y,1/2+z
loop_
_atom_site_type_symbol
_atom_site_label
_atom_site_fract_x
_atom_site_fract_y
_atom_site_fract_z
Si Si1 0.194092 0.902436 0.019851
Si Si2 0.969908 0.372564 0.844323
Si Si3 0.904268 0.128301 0.345975
Si Si4 0.286534 0.732793 0.094593
Si Si5 0.500000 0.575844 0.250000
Si Si6 0.952283 0.508135 0.055349
Si Si7 0.316260 0.927583 0.703907
Si Si8 0.321108 0.150148 0.331478
O O1 0.181753 0.819220 0.964074
O O2 0.250000 0.000000 0.003557
O O3 0.231592 0.828191 0.070680
O O4 0.123842 0.958790 0.038694
O O5 0.892530 0.360530 0.862014
O O6 0.000000 0.250000 0.817923
O O7 0.972227 0.482670 0.798847
O O8 0.014179 0.398124 0.900725
O O9 0.842623 0.213098 0.362819
O O10 0.947159 0.110657 0.404491
O O11 0.874261 0.997894 0.328981
O O12 0.947950 0.151498 0.288932
O O13 0.243155 0.635051 0.128524
O O14 0.000000 0.500000 0.000000
O O15 0.315163 0.788860 0.688478
O O16 0.322757 0.929588 0.773663
O O17 0.250000 0.000000 0.688037
#
# Coordination Sequence:
#
# PCOD9507827 Si02
#       8
#    16  16  16  16   8  16  16  16
#     4  11  24  45  73 107 144 187 248 310 363 434
#     4  11  22  37  63  98 143 172 237 298 366 431
#     4  11  21  43  69 101 140 195 240 290 365 446
#     4  11  24  42  75 105 140 187 243 296 370 436
#     4  10  21  38  66 102 137 192 226 291 365 440
#     4  11  26  43  68 100 142 194 232 299 377 433
#     4  11  22  39  64  96 142 175 231 292 353 427
#     4  11  23  37  63 104 132 184 229 291 358 429
#
# _framework density 23.346392999999999
#
# number of rings (size 3 to 8) (size 9 to 14) (size 15 to 20)
#    0.000    1.067    4.000    3.400    3.733    1.600 
#    0.000    0.000    0.000    1.600    0.000    0.000 
#    0.000    0.000    0.000    0.000    0.000    0.000 
#
# Total GULP energy -335454.235538 kJ/mol
# GULP energy per Si atom -5590.903926 kJ/mol
# Density = 2.329326 g / cm^3
# Si number density = 23.346393 Si / 1000 Ang^3
#
#
#
# Elastic Constant Matrix: (Units=GPa)
#
#
# Indices 1 2 3 4 5 6 
#
# 1 157.5675 43.4438 85.5080 0.0000 0.0000 0.0000
# 2 43.4438 63.9076 40.0688 0.0000 0.0000 0.0000
# 3 85.5080 40.0688 153.9806 0.0000 0.0000 0.0000
# 4 0.0000 0.0000 0.0000 24.4774 0.0000 0.0000
# 5 0.0000 0.0000 0.0000 0.0000 40.9313 0.0000
# 6 0.0000 0.0000 0.0000 0.0000 0.0000 27.0362
#
#
#
# Elastic Compliance Matrix: (Units=1/GPa)
#
#
# Indices 1 2 3 4 5 6 
#
# 1 0.009834 -0.003897 -0.004447 0.000000 0.000000 0.000000
# 2 -0.003897 0.020243 -0.003103 0.000000 0.000000 0.000000
# 3 -0.004447 -0.003103 0.009771 0.000000 0.000000 0.000000
# 4 0.000000 0.000000 0.000000 0.040854 0.000000 0.000000
# 5 0.000000 0.000000 0.000000 0.000000 0.024431 0.000000
# 6 0.000000 0.000000 0.000000 0.000000 0.000000 0.036987
#
#
# Mechanical properties :
#
#
# Convention : Reuss Voigt Hill
#
# Bulk Modulus (GPa) = 58.98585 79.27745 69.13165
# Shear Modulus (GPa) = 29.29684 32.25132 30.77408
#
# Velocity S-wave (km/s) = 3.54627 3.72079 3.63457
# Velocity P-wave (km/s) = 6.48755 7.24498 6.87670
#
# Compressibility (1/GPa) = 0.01695322
#
# Stress axis : x y z
#
# Youngs Moduli (GPa) = 101.68539 49.40085 102.33936
#
# Poissons Ratio (x) = 0.19252 0.45511
# Poissons Ratio (y) = 0.39627 0.31760
# Poissons Ratio (z) = 0.45220 0.15331
#
# Static dielectric constant tensor:
#      x y z
#    x 1.924120 0.000000 0.000000 
#    y 0.000000 1.933390 0.000000 
#    z 0.000000 0.000000 1.923110 
# 
# From -- ./inp_files/46696.got.cif
#   From: 2010.05.17/outbox.cif.g08.bks.cpg/sg68_24_cif.got.tgz:46696.got - 2010.06.03 18:57:09.
