data_PCOD9507795
_publ_section_title
;
Structure prediction by ZEFSAII (Michael W. Deem and Ramdas Pophale) SiO2 
 PCOD9507795
Probable space group: C C C A
;
_chemical_formula_sum "Si O2"
_cell_formula_units_Z 88
_cell_length_a 9.528051
_cell_length_b 31.866064
_cell_length_c 13.241842
_cell_angle_alpha 90.000000
_cell_angle_beta 90.000000
_cell_angle_gamma 90.000000
_cell_volume 4020.507705
_symmetry_space_group_name_H-M "C C C A"
_symmetry_group_IT_number 68
_space_group.IT_coordinate_system_code '2'
_symmetry_cell_setting 'orthorhombic'
loop_
_space_group_symop_operation_xyz
x,y,z
-x,1/2-y,z
x,1/2-y,1/2-z
-x,y,1/2-z
-x,-y,-z
x,1/2+y,-z
-x,1/2+y,1/2+z
x,-y,1/2+z
1/2+x,1/2+y,z
1/2-x,-y,z
1/2+x,-y,1/2-z
1/2-x,1/2+y,1/2-z
1/2-x,1/2-y,-z
1/2+x,y,-z
1/2-x,y,1/2+z
1/2+x,1/2-y,1/2+z
loop_
_atom_site_type_symbol
_atom_site_label
_atom_site_fract_x
_atom_site_fract_y
_atom_site_fract_z
Si Si1 0.059313 0.795801 0.392474
Si Si2 0.810223 0.592293 0.370371
Si Si3 0.372379 0.894434 0.181199
Si Si4 0.723104 0.663634 0.521101
Si Si5 0.872804 0.971477 0.964235
Si Si6 0.500000 0.859757 0.750000
O O1 0.927363 0.820545 0.442549
O O2 0.105450 0.823168 0.293787
O O3 0.000000 0.750000 0.370504
O O4 0.185986 0.799156 0.471348
O O5 0.742189 0.589395 0.260896
O O6 0.726710 0.626688 0.437249
O O7 0.812421 0.550884 0.435754
O O8 0.968534 0.608321 0.343036
O O9 0.500000 0.879540 0.250000
O O10 0.305164 0.857915 0.113942
O O11 0.415015 0.933258 0.109445
O O12 0.750000 0.000000 0.917885
O O13 0.000000 0.000000 0.000000
#
# Coordination Sequence:
#
# PCOD9507795 Si02
#       6
#    16  16  16  16  16   8
#     4  11  21  38  62  95 128 163 199 263 318 365
#     4  10  22  40  64  87 121 166 214 253 311 377
#     4  11  22  40  67  89 122 172 215 259 318 379
#     4  10  22  39  64  92 127 163 215 253 305 389
#     4  11  26  42  60  94 131 158 211 275 322 381
#     4  10  21  38  64  86 116 166 222 240 298 394
#
# _framework density 21.887782000000001
#
# number of rings (size 3 to 8) (size 9 to 14) (size 15 to 20)
#    0.000    1.455    1.818    3.000    2.545    5.091 
#    0.000    0.000    0.000    1.091    0.000    0.000 
#    0.000    0.000    0.000    0.000    0.000    0.000 
#
# Total GULP energy -245129.472820 kJ/mol
# GULP energy per Si atom -5571.124382 kJ/mol
# Density = 2.183796 g / cm^3
# Si number density = 21.887782 Si / 1000 Ang^3
#
#
#
# Elastic Constant Matrix: (Units=GPa)
#
#
# Indices 1 2 3 4 5 6 
#
# 1 66.6984 -1.5853 7.3682 0.0000 0.0000 0.0000
# 2 -1.5853 66.7611 7.2277 0.0000 0.0000 0.0000
# 3 7.3682 7.2277 93.5949 0.0000 0.0000 0.0000
# 4 0.0000 0.0000 0.0000 19.9437 0.0000 0.0000
# 5 0.0000 0.0000 0.0000 0.0000 43.4046 0.0000
# 6 0.0000 0.0000 0.0000 0.0000 0.0000 28.8151
#
#
#
# Elastic Compliance Matrix: (Units=1/GPa)
#
#
# Indices 1 2 3 4 5 6 
#
# 1 0.015140 0.000493 -0.001230 0.000000 0.000000 0.000000
# 2 0.000493 0.015121 -0.001206 0.000000 0.000000 0.000000
# 3 -0.001230 -0.001206 0.010874 0.000000 0.000000 0.000000
# 4 0.000000 0.000000 0.000000 0.050141 0.000000 0.000000
# 5 0.000000 0.000000 0.000000 0.000000 0.023039 0.000000
# 6 0.000000 0.000000 0.000000 0.000000 0.000000 0.034704
#
#
# Mechanical properties :
#
#
# Convention : Reuss Voigt Hill
#
# Bulk Modulus (GPa) = 26.84686 28.11953 27.48320
# Shear Modulus (GPa) = 30.24370 32.70228 31.47299
#
# Velocity S-wave (km/s) = 3.72124 3.86954 3.79611
# Velocity P-wave (km/s) = 5.54579 5.73057 5.63894
#
# Compressibility (1/GPa) = 0.03724831
#
# Stress axis : x y z
#
# Youngs Moduli (GPa) = 66.04827 66.13278 91.95960
#
# Poissons Ratio (x) = -0.03258 0.11311
# Poissons Ratio (y) = -0.03254 0.11095
# Poissons Ratio (z) = 0.08124 0.07979
#
# Static dielectric constant tensor:
#      x y z
#    x 2.012230 0.000000 0.000000 
#    y 0.000000 1.825190 0.000000 
#    z 0.000000 0.000000 1.857050 
# 
# From -- ./inp_files/12064.got.cif
#   From: 2010.05.17/outbox.cif.g08.bks.cpg/sg68_7_cif.got.tgz:12064.got - 2010.06.03 18:57:09.
