data_PCOD9507456
_publ_section_title
;
Structure prediction by ZEFSAII (Michael W. Deem and Ramdas Pophale) SiO2 
 PCOD9507456
Probable space group: C C C A
;
_chemical_formula_sum "Si O2"
_cell_formula_units_Z 72
_cell_length_a 6.852642
_cell_length_b 17.613237
_cell_length_c 24.030748
_cell_angle_alpha 90.000000
_cell_angle_beta 90.000000
_cell_angle_gamma 90.000000
_cell_volume 2900.444181
_symmetry_space_group_name_H-M "C C C A"
_symmetry_group_IT_number 68
_space_group.IT_coordinate_system_code '2'
_symmetry_cell_setting 'orthorhombic'
loop_
_space_group_symop_operation_xyz
x,y,z
-x,1/2-y,z
x,1/2-y,1/2-z
-x,y,1/2-z
-x,-y,-z
x,1/2+y,-z
-x,1/2+y,1/2+z
x,-y,1/2+z
1/2+x,1/2+y,z
1/2-x,-y,z
1/2+x,-y,1/2-z
1/2-x,1/2+y,1/2-z
1/2-x,1/2-y,-z
1/2+x,y,-z
1/2-x,y,1/2+z
1/2+x,1/2-y,1/2+z
loop_
_atom_site_type_symbol
_atom_site_label
_atom_site_fract_x
_atom_site_fract_y
_atom_site_fract_z
Si Si1 0.488096 0.008385 0.670760
Si Si2 0.129991 0.823164 0.676860
Si Si3 0.684027 0.706566 0.557093
Si Si4 0.500000 0.120624 0.250000
Si Si5 0.554414 0.040817 0.444755
O O1 0.496623 0.099012 0.680259
O O2 0.250000 0.000000 0.679400
O O3 0.585737 0.942624 0.707834
O O4 0.558269 0.978060 0.610634
O O5 0.180055 0.811209 0.610429
O O6 0.329467 0.834449 0.714762
O O7 0.000000 0.750000 0.691705
O O8 0.500000 0.750000 0.582148
O O9 0.750000 0.750000 0.500000
O O10 0.595126 0.626444 0.539668
O O11 0.500000 0.000000 0.500000
O O12 0.750000 0.000000 0.428033
#
# Coordination Sequence:
#
# PCOD9507456 Si02
#       5
#    16  16  16   8  16
#     4   9  19  43  76 108 151 213 273 344 414 502
#     4  11  24  48  83 125 163 219 287 352 435 511
#     4  12  25  43  72 118 170 216 267 353 432 501
#     4  10  20  48  84 112 160 220 282 352 411 506
#     4  11  21  41  69 109 152 207 272 331 415 499
#
# _framework density 24.823782999999999
#
# number of rings (size 3 to 8) (size 9 to 14) (size 15 to 20)
#    0.000    1.333    6.667    2.000    3.111    0.000 
#    0.000   13.333    0.000    1.333    0.000    0.000 
#    0.000    0.000    0.000    0.000    0.000    0.000 
#
# Total GULP energy -200481.299794 kJ/mol
# GULP energy per Si atom -5568.924994 kJ/mol
# Density = 2.476728 g / cm^3
# Si number density = 24.823783 Si / 1000 Ang^3
#
#
#
# Elastic Constant Matrix: (Units=GPa)
#
#
# Indices 1 2 3 4 5 6 
#
# 1 98.3279 61.5022 46.3945 0.0000 0.0000 0.0000
# 2 61.5022 244.9615 72.9482 0.0000 0.0000 0.0000
# 3 46.3945 72.9482 240.6887 0.0000 0.0000 0.0000
# 4 0.0000 0.0000 0.0000 45.0055 0.0000 0.0000
# 5 0.0000 0.0000 0.0000 0.0000 30.3761 0.0000
# 6 0.0000 0.0000 0.0000 0.0000 0.0000 41.4965
#
#
#
# Elastic Compliance Matrix: (Units=1/GPa)
#
#
# Indices 1 2 3 4 5 6 
#
# 1 0.012613 -0.002685 -0.001617 0.000000 0.000000 0.000000
# 2 -0.002685 0.005059 -0.001016 0.000000 0.000000 0.000000
# 3 -0.001617 -0.001016 0.004774 0.000000 0.000000 0.000000
# 4 0.000000 0.000000 0.000000 0.022220 0.000000 0.000000
# 5 0.000000 0.000000 0.000000 0.000000 0.032921 0.000000
# 6 0.000000 0.000000 0.000000 0.000000 0.000000 0.024098
#
#
# Mechanical properties :
#
#
# Convention : Reuss Voigt Hill
#
# Bulk Modulus (GPa) = 84.67651 105.07421 94.87536
# Shear Modulus (GPa) = 43.00813 50.25116 46.62964
#
# Velocity S-wave (km/s) = 4.16689 4.50412 4.33878
# Velocity P-wave (km/s) = 7.57204 8.33483 7.96257
#
# Compressibility (1/GPa) = 0.01180965
#
# Stress axis : x y z
#
# Youngs Moduli (GPa) = 79.28581 197.67314 209.45263
#
# Poissons Ratio (x) = 0.53075 0.33877
# Poissons Ratio (y) = 0.21288 0.21274
# Poissons Ratio (z) = 0.12824 0.20078
#
# Static dielectric constant tensor:
#      x y z
#    x 1.138590 0.000000 0.000000 
#    y 0.000000 1.935810 0.000000 
#    z 0.000000 0.000000 1.737520 
# 
# From -- ./inp_files/42953.got.cif
#   From: 2010.05.17/outbox.cif.g08.bks.cpg/sg68_22_cif.got.tgz:42953.got - 2010.06.03 18:57:09.
