data_PCOD9507679
_publ_section_title
;
Structure prediction by ZEFSAII (Michael W. Deem and Ramdas Pophale) SiO2 
 PCOD9507679
Probable space group: C C C A
;
_chemical_formula_sum "Si O2"
_cell_formula_units_Z 96
_cell_length_a 21.255405
_cell_length_b 11.056798
_cell_length_c 19.003151
_cell_angle_alpha 90.000000
_cell_angle_beta 90.000000
_cell_angle_gamma 90.000000
_cell_volume 4466.058208
_symmetry_space_group_name_H-M "C C C A"
_symmetry_group_IT_number 68
_space_group.IT_coordinate_system_code '2'
_symmetry_cell_setting 'orthorhombic'
loop_
_space_group_symop_operation_xyz
x,y,z
-x,1/2-y,z
x,1/2-y,1/2-z
-x,y,1/2-z
-x,-y,-z
x,1/2+y,-z
-x,1/2+y,1/2+z
x,-y,1/2+z
1/2+x,1/2+y,z
1/2-x,-y,z
1/2+x,-y,1/2-z
1/2-x,1/2+y,1/2-z
1/2-x,1/2-y,-z
1/2+x,y,-z
1/2-x,y,1/2+z
1/2+x,1/2-y,1/2+z
loop_
_atom_site_type_symbol
_atom_site_label
_atom_site_fract_x
_atom_site_fract_y
_atom_site_fract_z
Si Si1 0.500000 0.250000 0.576946
Si Si2 0.305936 0.912636 0.532698
Si Si3 0.971884 0.983610 0.829048
Si Si4 0.750431 0.296665 0.892637
Si Si5 0.552019 0.590716 0.532702
Si Si6 0.250000 0.500000 0.208498
Si Si7 0.346980 0.352010 0.800251
O O1 0.499236 0.134538 0.629288
O O2 0.447727 0.290923 0.518255
O O3 0.280776 0.866117 0.457730
O O4 0.303398 0.795548 0.582280
O O5 0.376714 0.960509 0.528938
O O6 0.250000 0.000000 0.558783
O O7 0.899817 0.942284 0.824226
O O8 0.000000 0.000772 0.750000
O O9 0.970292 0.094053 0.885494
O O10 0.778393 0.396046 0.840633
O O11 0.694180 0.220800 0.856693
O O12 0.500000 0.500000 0.500000
O O13 0.299346 0.569230 0.255218
O O14 0.377105 0.250000 0.750000
#
# Coordination Sequence:
#
# PCOD9507679 Si02
#       7
#     8  16  16  16  16   8  16
#     4  10  21  44  65  90 132 170 224 270 325 402
#     4  11  22  40  69  98 133 170 224 282 332 406
#     4  11  22  40  66  97 122 173 223 274 323 398
#     4  10  22  39  62  97 125 173 218 272 336 395
#     4  10  24  41  66  97 136 178 218 281 342 398
#     4  10  22  40  56  92 134 168 212 272 338 406
#     4  10  21  37  63  88 127 164 212 270 328 396
#
# _framework density 21.495467000000001
#
# number of rings (size 3 to 8) (size 9 to 14) (size 15 to 20)
#    0.000    1.667    0.833    3.250    3.500    8.000 
#    3.000    0.417    0.000    0.000    0.000    0.000 
#    0.000    0.000    0.000    0.000    0.000    0.000 
#
# Total GULP energy -267371.548152 kJ/mol
# GULP energy per Si atom -5570.240587 kJ/mol
# Density = 2.144654 g / cm^3
# Si number density = 21.495467 Si / 1000 Ang^3
#
#
#
# Elastic Constant Matrix: (Units=GPa)
#
#
# Indices 1 2 3 4 5 6 
#
# 1 47.6510 14.3359 -17.7683 0.0000 0.0000 0.0000
# 2 14.3359 61.4692 33.3998 0.0000 0.0000 0.0000
# 3 -17.7683 33.3998 91.1906 0.0000 0.0000 0.0000
# 4 0.0000 0.0000 0.0000 47.8463 0.0000 0.0000
# 5 0.0000 0.0000 0.0000 0.0000 11.7210 0.0000
# 6 0.0000 0.0000 0.0000 0.0000 0.0000 22.1901
#
#
#
# Elastic Compliance Matrix: (Units=1/GPa)
#
#
# Indices 1 2 3 4 5 6 
#
# 1 0.028277 -0.011971 0.009894 0.000000 0.000000 0.000000
# 2 -0.011971 0.025378 -0.011627 0.000000 0.000000 0.000000
# 3 0.009894 -0.011627 0.017153 0.000000 0.000000 0.000000
# 4 0.000000 0.000000 0.000000 0.020900 0.000000 0.000000
# 5 0.000000 0.000000 0.000000 0.000000 0.085317 0.000000
# 6 0.000000 0.000000 0.000000 0.000000 0.000000 0.045065
#
#
# Mechanical properties :
#
#
# Convention : Reuss Voigt Hill
#
# Bulk Modulus (GPa) = 23.04199 28.91616 25.97907
# Shear Modulus (GPa) = 18.94197 27.70770 23.32484
#
# Velocity S-wave (km/s) = 2.97173 3.59416 3.29767
# Velocity P-wave (km/s) = 4.74528 5.54125 5.15864
#
# Compressibility (1/GPa) = 0.04339904
#
# Stress axis : x y z
#
# Youngs Moduli (GPa) = 35.36481 39.40419 58.30017
#
# Poissons Ratio (x) = 0.47170 -0.57683
# Poissons Ratio (y) = 0.42334 0.67789
# Poissons Ratio (z) = -0.34990 0.45817
#
# Static dielectric constant tensor:
#      x y z
#    x 1.718020 0.000000 0.000000 
#    y 0.000000 1.862110 0.000000 
#    z 0.000000 0.000000 2.367840 
# 
# From -- ./inp_files/40260.got.cif
#   From: 2010.05.17/outbox.cif.g08.bks.cpg/sg68_21_cif.got.tgz:40260.got - 2010.06.03 18:57:09.
