data_PCOD9507959
_publ_section_title
;
Structure prediction by ZEFSAII (Michael W. Deem and Ramdas Pophale) SiO2 
 PCOD9507959
Probable space group: C C C A
;
_chemical_formula_sum "Si O2"
_cell_formula_units_Z 88
_cell_length_a 27.042095
_cell_length_b 5.244965
_cell_length_c 27.208371
_cell_angle_alpha 90.000000
_cell_angle_beta 90.000000
_cell_angle_gamma 90.000000
_cell_volume 3859.094996
_symmetry_space_group_name_H-M "C C C A"
_symmetry_group_IT_number 68
_space_group.IT_coordinate_system_code '2'
_symmetry_cell_setting 'orthorhombic'
loop_
_space_group_symop_operation_xyz
x,y,z
-x,1/2-y,z
x,1/2-y,1/2-z
-x,y,1/2-z
-x,-y,-z
x,1/2+y,-z
-x,1/2+y,1/2+z
x,-y,1/2+z
1/2+x,1/2+y,z
1/2-x,-y,z
1/2+x,-y,1/2-z
1/2-x,1/2+y,1/2-z
1/2-x,1/2-y,-z
1/2+x,y,-z
1/2-x,y,1/2+z
1/2+x,1/2-y,1/2+z
loop_
_atom_site_type_symbol
_atom_site_label
_atom_site_fract_x
_atom_site_fract_y
_atom_site_fract_z
Si Si1 0.599361 0.121079 0.865823
Si Si2 0.190551 0.987848 0.471748
Si Si3 0.750000 0.500000 0.783776
Si Si4 0.944480 0.999158 0.771030
Si Si5 0.839066 0.613670 0.359136
Si Si6 0.059607 0.241343 0.027622
O O1 0.556297 0.027240 0.829238
O O2 0.618873 0.400007 0.850825
O O3 0.581348 0.145261 0.921229
O O4 0.640843 0.902920 0.858809
O O5 0.173064 0.755885 0.506116
O O6 0.178137 0.942190 0.415066
O O7 0.250000 0.000000 0.474840
O O8 0.759687 0.750000 0.750000
O O9 0.795911 0.432923 0.819762
O O10 0.918731 0.750000 0.750000
O O11 0.000000 0.000991 0.750000
O O12 0.919242 0.250000 0.750000
O O13 0.000000 0.250000 0.031799
O O14 0.073176 0.530154 0.013316
#
# Coordination Sequence:
#
# PCOD9507959 Si02
#       6
#    16  16   8  16  16  16
#     4  12  26  41  72 102 139 176 227 292 337 402
#     4  10  21  39  66  96 132 175 216 269 334 397
#     4  12  28  50  74  92 138 196 230 288 358 410
#     4  10  23  43  65  96 126 169 216 279 345 404
#     4  12  26  45  67 106 136 177 237 279 337 422
#     4  10  23  44  67 100 141 188 231 269 339 430
#
# _framework density 22.803276
#
# number of rings (size 3 to 8) (size 9 to 14) (size 15 to 20)
#    0.000    1.091    0.909    4.364    2.545    8.727 
#    6.545    0.000    0.000    0.000    0.000    0.000 
#    0.000    0.000    0.000    0.000    0.000    0.000 
#
# Total GULP energy -246209.089463 kJ/mol
# GULP energy per Si atom -5595.661124 kJ/mol
# Density = 2.275137 g / cm^3
# Si number density = 22.803276 Si / 1000 Ang^3
#
#
#
# Elastic Constant Matrix: (Units=GPa)
#
#
# Indices 1 2 3 4 5 6 
#
# 1 61.3335 10.6568 29.9699 0.0000 0.0000 0.0000
# 2 10.6568 149.1798 33.8564 0.0000 0.0000 0.0000
# 3 29.9699 33.8564 160.8383 0.0000 0.0000 0.0000
# 4 0.0000 0.0000 0.0000 40.1168 0.0000 0.0000
# 5 0.0000 0.0000 0.0000 0.0000 20.5878 0.0000
# 6 0.0000 0.0000 0.0000 0.0000 0.0000 29.3972
#
#
#
# Elastic Compliance Matrix: (Units=1/GPa)
#
#
# Indices 1 2 3 4 5 6 
#
# 1 0.017980 -0.000550 -0.003235 0.000000 0.000000 0.000000
# 2 -0.000550 0.007056 -0.001383 0.000000 0.000000 0.000000
# 3 -0.003235 -0.001383 0.007111 0.000000 0.000000 0.000000
# 4 0.000000 0.000000 0.000000 0.024927 0.000000 0.000000
# 5 0.000000 0.000000 0.000000 0.000000 0.048572 0.000000
# 6 0.000000 0.000000 0.000000 0.000000 0.000000 0.034017
#
#
# Mechanical properties :
#
#
# Convention : Reuss Voigt Hill
#
# Bulk Modulus (GPa) = 45.84494 57.81309 51.82902
# Shear Modulus (GPa) = 31.79224 37.81159 34.80192
#
# Velocity S-wave (km/s) = 3.73794 4.07647 3.91087
# Velocity P-wave (km/s) = 6.22718 6.89673 6.57049
#
# Compressibility (1/GPa) = 0.02181266
#
# Stress axis : x y z
#
# Youngs Moduli (GPa) = 55.61590 141.71386 140.62282
#
# Poissons Ratio (x) = 0.07799 0.45485
# Poissons Ratio (y) = 0.03061 0.19446
# Poissons Ratio (z) = 0.17989 0.19597
#
# Static dielectric constant tensor:
#      x y z
#    x 1.871260 0.000000 0.000000 
#    y 0.000000 1.907940 0.000000 
#    z 0.000000 0.000000 1.822950 
# 
# From -- ./inp_files/47475.got.cif
#   From: 2010.05.17/outbox.cif.g08.bks.cpg/sg68_24_cif.got.tgz:47475.got - 2010.06.03 18:57:09.
