data_PCOD9507829
_publ_section_title
;
Structure prediction by ZEFSAII (Michael W. Deem and Ramdas Pophale) SiO2 
 PCOD9507829
Probable space group: C C C A
;
_chemical_formula_sum "Si O2"
_cell_formula_units_Z 112
_cell_length_a 14.525099
_cell_length_b 31.428478
_cell_length_c 11.640164
_cell_angle_alpha 90.000000
_cell_angle_beta 90.000000
_cell_angle_gamma 90.000000
_cell_volume 5313.755287
_symmetry_space_group_name_H-M "C C C A"
_symmetry_group_IT_number 68
_space_group.IT_coordinate_system_code '2'
_symmetry_cell_setting 'orthorhombic'
loop_
_space_group_symop_operation_xyz
x,y,z
-x,1/2-y,z
x,1/2-y,1/2-z
-x,y,1/2-z
-x,-y,-z
x,1/2+y,-z
-x,1/2+y,1/2+z
x,-y,1/2+z
1/2+x,1/2+y,z
1/2-x,-y,z
1/2+x,-y,1/2-z
1/2-x,1/2+y,1/2-z
1/2-x,1/2-y,-z
1/2+x,y,-z
1/2-x,y,1/2+z
1/2+x,1/2-y,1/2+z
loop_
_atom_site_type_symbol
_atom_site_label
_atom_site_fract_x
_atom_site_fract_y
_atom_site_fract_z
Si Si1 0.405977 0.899681 0.320734
Si Si2 0.144385 0.632264 0.077616
Si Si3 0.108813 0.797288 0.232329
Si Si4 0.785642 0.427495 0.727667
Si Si5 0.021428 0.563136 0.000636
Si Si6 0.924284 0.503545 0.164941
Si Si7 0.824292 0.642870 0.037855
O O1 0.500000 0.888579 0.250000
O O2 0.324569 0.919013 0.241026
O O3 0.434396 0.933886 0.416796
O O4 0.365239 0.863848 0.408831
O O5 0.136865 0.669571 0.169195
O O6 0.180203 0.591774 0.151002
O O7 0.055451 0.611176 0.019851
O O8 0.215635 0.647807 0.983273
O O9 0.148393 0.750000 0.250000
O O10 0.133111 0.818604 0.110322
O O11 0.000000 0.794428 0.250000
O O12 0.832868 0.473555 0.711352
O O13 0.825237 0.398007 0.624002
O O14 0.986632 0.541856 0.115181
O O15 0.090606 0.530315 0.937932
O O16 0.000000 0.483541 0.250000
#
# Coordination Sequence:
#
# PCOD9507829 Si02
#       7
#    16  16  16  16  16  16  16
#     4  11  22  38  61  90 126 168 217 270 329 392
#     4  10  21  38  66  91 122 171 212 261 335 393
#     4  10  22  39  66 100 127 163 217 269 326 408
#     4  10  21  39  63  86 122 168 218 267 321 394
#     4  11  22  38  64  89 122 168 217 274 334 375
#     4  11  22  39  63  88 122 167 224 277 324 375
#     4  10  21  39  64  93 127 166 216 264 331 402
#
# _framework density 21.077373000000001
#
# number of rings (size 3 to 8) (size 9 to 14) (size 15 to 20)
#    0.000    1.571    2.857    2.143    2.000    0.571 
#    0.000    6.429    0.000    0.000    0.000    4.000 
#    0.000    0.000    0.000    0.000    0.000    0.000 
#
# Total GULP energy -311964.314680 kJ/mol
# GULP energy per Si atom -5570.791334 kJ/mol
# Density = 2.102940 g / cm^3
# Si number density = 21.077373 Si / 1000 Ang^3
#
#
#
# Elastic Constant Matrix: (Units=GPa)
#
#
# Indices 1 2 3 4 5 6 
#
# 1 78.8278 31.2660 36.3747 0.0000 0.0000 0.0000
# 2 31.2660 91.4613 28.9694 0.0000 0.0000 0.0000
# 3 36.3747 28.9694 88.0887 0.0000 0.0000 0.0000
# 4 0.0000 0.0000 0.0000 24.9831 0.0000 0.0000
# 5 0.0000 0.0000 0.0000 0.0000 49.0656 0.0000
# 6 0.0000 0.0000 0.0000 0.0000 0.0000 17.1980
#
#
#
# Elastic Compliance Matrix: (Units=1/GPa)
#
#
# Indices 1 2 3 4 5 6 
#
# 1 0.016875 -0.003976 -0.005661 0.000000 0.000000 0.000000
# 2 -0.003976 0.013142 -0.002680 0.000000 0.000000 0.000000
# 3 -0.005661 -0.002680 0.014571 0.000000 0.000000 0.000000
# 4 0.000000 0.000000 0.000000 0.040027 0.000000 0.000000
# 5 0.000000 0.000000 0.000000 0.000000 0.020381 0.000000
# 6 0.000000 0.000000 0.000000 0.000000 0.000000 0.058146
#
#
# Mechanical properties :
#
#
# Convention : Reuss Voigt Hill
#
# Bulk Modulus (GPa) = 50.11408 50.17756 50.14582
# Shear Modulus (GPa) = 25.71667 29.03386 27.37527
#
# Velocity S-wave (km/s) = 3.49679 3.71548 3.60779
# Velocity P-wave (km/s) = 6.33493 6.50111 6.41856
#
# Compressibility (1/GPa) = 0.01995447
#
# Stress axis : x y z
#
# Youngs Moduli (GPa) = 59.25960 76.09441 68.62901
#
# Poissons Ratio (x) = 0.30253 0.38849
# Poissons Ratio (y) = 0.23560 0.18393
# Poissons Ratio (z) = 0.33545 0.20394
#
# Static dielectric constant tensor:
#      x y z
#    x 1.865500 0.000000 0.000000 
#    y 0.000000 1.790690 0.000000 
#    z 0.000000 0.000000 1.854470 
# 
# From -- ./inp_files/13573.got.cif
#   From: 2010.05.17/outbox.cif.g08.bks.cpg/sg68_7_cif.got.tgz:13573.got - 2010.06.03 18:57:09.
