data_PCOD9507712
_publ_section_title
;
Structure prediction by ZEFSAII (Michael W. Deem and Ramdas Pophale) SiO2 
 PCOD9507712
Probable space group: C C C A
;
_chemical_formula_sum "Si O2"
_cell_formula_units_Z 112
_cell_length_a 27.100420
_cell_length_b 14.875823
_cell_length_c 12.797867
_cell_angle_alpha 90.000000
_cell_angle_beta 90.000000
_cell_angle_gamma 90.000000
_cell_volume 5159.345555
_symmetry_space_group_name_H-M "C C C A"
_symmetry_group_IT_number 68
_space_group.IT_coordinate_system_code '2'
_symmetry_cell_setting 'orthorhombic'
loop_
_space_group_symop_operation_xyz
x,y,z
-x,1/2-y,z
x,1/2-y,1/2-z
-x,y,1/2-z
-x,-y,-z
x,1/2+y,-z
-x,1/2+y,1/2+z
x,-y,1/2+z
1/2+x,1/2+y,z
1/2-x,-y,z
1/2+x,-y,1/2-z
1/2-x,1/2+y,1/2-z
1/2-x,1/2-y,-z
1/2+x,y,-z
1/2-x,y,1/2+z
1/2+x,1/2-y,1/2+z
loop_
_atom_site_type_symbol
_atom_site_label
_atom_site_fract_x
_atom_site_fract_y
_atom_site_fract_z
Si Si1 0.410520 0.643571 0.981320
Si Si2 0.443893 0.154048 0.787080
Si Si3 0.114470 0.689606 0.148527
Si Si4 0.094256 0.037314 0.719105
Si Si5 0.698909 0.854048 0.485546
Si Si6 0.194512 0.035048 0.213427
Si Si7 0.696385 0.649443 0.421873
O O1 0.413227 0.740998 0.927386
O O2 0.423852 0.571855 0.892615
O O3 0.440017 0.644662 0.088516
O O4 0.353187 0.627564 0.014194
O O5 0.421346 0.250000 0.750000
O O6 0.500000 0.153992 0.750000
O O7 0.419306 0.065067 0.739970
O O8 0.129019 0.750000 0.250000
O O9 0.080550 0.608396 0.190606
O O10 0.161140 0.656165 0.081100
O O11 0.153895 0.041875 0.726805
O O12 0.681636 0.921879 0.397622
O O13 0.701881 0.757292 0.427889
O O14 0.752745 0.883130 0.526128
O O15 0.190935 0.106439 0.307914
O O16 0.250000 0.000000 0.212465
#
# Coordination Sequence:
#
# PCOD9507712 Si02
#       7
#    16  16  16  16  16  16  16
#     4  10  22  42  70  96 134 176 224 281 346 402
#     4  11  27  48  70 102 134 168 228 292 347 416
#     4   9  21  41  63  98 134 177 224 278 330 404
#     4  11  24  40  70 100 134 183 226 275 346 414
#     4  10  22  35  59  85 128 185 229 276 328 391
#     4  12  24  34  55  94 137 174 229 282 327 399
#     4  10  21  38  55  85 129 178 232 275 330 398
#
# _framework density 21.708179000000001
#
# number of rings (size 3 to 8) (size 9 to 14) (size 15 to 20)
#    0.000    1.571    1.429    2.143    6.000    8.000 
#    0.000    1.429    0.000    3.000    0.000    0.000 
#    0.000    0.000    0.000    0.000    0.000    0.000 
#
# Total GULP energy -313015.763697 kJ/mol
# GULP energy per Si atom -5589.567209 kJ/mol
# Density = 2.165877 g / cm^3
# Si number density = 21.708179 Si / 1000 Ang^3
#
#
#
# Elastic Constant Matrix: (Units=GPa)
#
#
# Indices 1 2 3 4 5 6 
#
# 1 37.0540 24.8170 33.1591 0.0000 0.0000 0.0000
# 2 24.8170 125.4465 72.7104 0.0000 0.0000 0.0000
# 3 33.1591 72.7104 153.0917 0.0000 0.0000 0.0000
# 4 0.0000 0.0000 0.0000 27.5754 0.0000 0.0000
# 5 0.0000 0.0000 0.0000 0.0000 21.0399 0.0000
# 6 0.0000 0.0000 0.0000 0.0000 0.0000 15.0999
#
#
#
# Elastic Compliance Matrix: (Units=1/GPa)
#
#
# Indices 1 2 3 4 5 6 
#
# 1 0.034522 -0.003443 -0.005842 0.000000 0.000000 0.000000
# 2 -0.003443 0.011343 -0.004641 0.000000 0.000000 0.000000
# 3 -0.005842 -0.004641 0.010002 0.000000 0.000000 0.000000
# 4 0.000000 0.000000 0.000000 0.036264 0.000000 0.000000
# 5 0.000000 0.000000 0.000000 0.000000 0.047529 0.000000
# 6 0.000000 0.000000 0.000000 0.000000 0.000000 0.066226
#
#
# Mechanical properties :
#
#
# Convention : Reuss Voigt Hill
#
# Bulk Modulus (GPa) = 35.69770 64.10724 49.90247
# Shear Modulus (GPa) = 20.56970 25.07009 22.81989
#
# Velocity S-wave (km/s) = 3.08158 3.40202 3.24576
# Velocity P-wave (km/s) = 5.39829 6.71023 6.08969
#
# Compressibility (1/GPa) = 0.02801301
#
# Stress axis : x y z
#
# Youngs Moduli (GPa) = 28.96737 88.16015 99.98187
#
# Poissons Ratio (x) = 0.30357 0.58408
# Poissons Ratio (y) = 0.09975 0.46407
# Poissons Ratio (z) = 0.16922 0.40919
#
# Static dielectric constant tensor:
#      x y z
#    x 1.801560 0.000000 0.000000 
#    y 0.000000 1.822740 0.000000 
#    z 0.000000 0.000000 1.767920 
# 
# From -- ./inp_files/17778.got.cif
#   From: 2010.05.17/outbox.cif.g08.bks.cpg/sg68_9_cif.got.tgz:17778.got - 2010.06.03 18:57:09.
