data_PCOD9507746
_publ_section_title
;
Structure prediction by ZEFSAII (Michael W. Deem and Ramdas Pophale) SiO2 
 PCOD9507746
Probable space group: C C C A
;
_chemical_formula_sum "Si O2"
_cell_formula_units_Z 64
_cell_length_a 7.959874
_cell_length_b 21.503359
_cell_length_c 18.030577
_cell_angle_alpha 90.000000
_cell_angle_beta 90.000000
_cell_angle_gamma 90.000000
_cell_volume 3086.186190
_symmetry_space_group_name_H-M "C C C A"
_symmetry_group_IT_number 68
_space_group.IT_coordinate_system_code '2'
_symmetry_cell_setting 'orthorhombic'
loop_
_space_group_symop_operation_xyz
x,y,z
-x,1/2-y,z
x,1/2-y,1/2-z
-x,y,1/2-z
-x,-y,-z
x,1/2+y,-z
-x,1/2+y,1/2+z
x,-y,1/2+z
1/2+x,1/2+y,z
1/2-x,-y,z
1/2+x,-y,1/2-z
1/2-x,1/2+y,1/2-z
1/2-x,1/2-y,-z
1/2+x,y,-z
1/2-x,y,1/2+z
1/2+x,1/2-y,1/2+z
loop_
_atom_site_type_symbol
_atom_site_label
_atom_site_fract_x
_atom_site_fract_y
_atom_site_fract_z
Si Si1 0.340107 0.708941 0.434605
Si Si2 0.485086 0.576884 0.083053
Si Si3 0.670807 0.182339 0.285179
Si Si4 0.500000 0.604997 0.250000
Si Si5 0.250000 0.000000 0.501928
O O1 0.500000 0.750000 0.405927
O O2 0.250000 0.750000 0.500000
O O3 0.434478 0.642090 0.445441
O O4 0.196775 0.693198 0.373296
O O5 0.478978 0.572385 0.171354
O O6 0.307504 0.558661 0.047371
O O7 0.603833 0.522278 0.055088
O O8 0.681609 0.250000 0.250000
O O9 0.500000 0.154585 0.250000
O O10 0.832521 0.145024 0.259762
#
# Coordination Sequence:
#
# PCOD9507746 Si02
#       5
#    16  16  16   8   8
#     4  11  23  39  64 100 134 168 219 277 339 414
#     4  10  22  42  65  91 128 171 216 272 332 388
#     4  10  21  38  60  89 132 174 209 260 331 400
#     4  10  21  42  64  92 124 170 219 278 326 392
#     4  10  22  44  62  90 130 170 220 274 322 396
#
# _framework density 20.737566999999999
#
# number of rings (size 3 to 8) (size 9 to 14) (size 15 to 20)
#    0.000    1.750    0.000    4.875    3.500    1.000 
#   18.000    0.000    0.000    0.000    0.000    0.000 
#    0.000    0.000    0.000    0.000    0.000    0.000 
#
# Total GULP energy -178186.329924 kJ/mol
# GULP energy per Si atom -5568.322810 kJ/mol
# Density = 2.069037 g / cm^3
# Si number density = 20.737567 Si / 1000 Ang^3
#
#
#
# Elastic Constant Matrix: (Units=GPa)
#
#
# Indices 1 2 3 4 5 6 
#
# 1 92.1821 -1.0881 74.1120 0.0000 0.0000 0.0000
# 2 -1.0881 52.0619 47.0116 0.0000 0.0000 0.0000
# 3 74.1120 47.0116 168.8904 0.0000 0.0000 0.0000
# 4 0.0000 0.0000 0.0000 19.6604 0.0000 0.0000
# 5 0.0000 0.0000 0.0000 0.0000 24.8090 0.0000
# 6 0.0000 0.0000 0.0000 0.0000 0.0000 12.5510
#
#
#
# Elastic Compliance Matrix: (Units=1/GPa)
#
#
# Indices 1 2 3 4 5 6 
#
# 1 0.021026 0.011716 -0.012488 0.000000 0.000000 0.000000
# 2 0.011716 0.032185 -0.014100 0.000000 0.000000 0.000000
# 3 -0.012488 -0.014100 0.015326 0.000000 0.000000 0.000000
# 4 0.000000 0.000000 0.000000 0.050864 0.000000 0.000000
# 5 0.000000 0.000000 0.000000 0.000000 0.040308 0.000000
# 6 0.000000 0.000000 0.000000 0.000000 0.000000 0.079675
#
#
# Mechanical properties :
#
#
# Convention : Reuss Voigt Hill
#
# Bulk Modulus (GPa) = 25.77774 61.46727 43.62251
# Shear Modulus (GPa) = 17.72679 24.27733 21.00206
#
# Velocity S-wave (km/s) = 2.92689 3.42525 3.18583
# Velocity P-wave (km/s) = 4.88669 6.73409 5.88336
#
# Compressibility (1/GPa) = 0.03879315
#
# Stress axis : x y z
#
# Youngs Moduli (GPa) = 47.55928 31.07031 65.24954
#
# Poissons Ratio (x) = -0.36402 0.81483
# Poissons Ratio (y) = -0.55721 0.92002
# Poissons Ratio (z) = 0.59392 0.43809
#
# Static dielectric constant tensor:
#      x y z
#    x 1.924550 0.000000 0.000000 
#    y 0.000000 1.738720 0.000000 
#    z 0.000000 0.000000 1.809660 
# 
# From -- ./inp_files/27896.got.cif
#   From: 2010.05.17/outbox.cif.g08.bks.cpg/sg68_14_cif.got.tgz:27896.got - 2010.06.03 18:57:09.
