data_PCOD9507009
_publ_section_title
;
Structure prediction by ZEFSAII (Michael W. Deem and Ramdas Pophale) SiO2 
 PCOD9507009
Probable space group: C C C A
;
_chemical_formula_sum "Si O2"
_cell_formula_units_Z 72
_cell_length_a 7.968945
_cell_length_b 18.571410
_cell_length_c 23.313791
_cell_angle_alpha 90.000000
_cell_angle_beta 90.000000
_cell_angle_gamma 90.000000
_cell_volume 3450.313888
_symmetry_space_group_name_H-M "C C C A"
_symmetry_group_IT_number 68
_space_group.IT_coordinate_system_code '2'
_symmetry_cell_setting 'orthorhombic'
loop_
_space_group_symop_operation_xyz
x,y,z
-x,1/2-y,z
x,1/2-y,1/2-z
-x,y,1/2-z
-x,-y,-z
x,1/2+y,-z
-x,1/2+y,1/2+z
x,-y,1/2+z
1/2+x,1/2+y,z
1/2-x,-y,z
1/2+x,-y,1/2-z
1/2-x,1/2+y,1/2-z
1/2-x,1/2-y,-z
1/2+x,y,-z
1/2-x,y,1/2+z
1/2+x,1/2-y,1/2+z
loop_
_atom_site_type_symbol
_atom_site_label
_atom_site_fract_x
_atom_site_fract_y
_atom_site_fract_z
Si Si1 0.754450 0.080738 0.084868
Si Si2 0.000000 0.615711 0.250000
Si Si3 0.750000 0.500000 0.026354
Si Si4 0.056315 0.670205 0.375385
Si Si5 0.403433 0.088347 0.621089
Si Si6 0.750000 0.500000 0.722841
O O1 0.577975 0.118087 0.094721
O O2 0.911817 0.120612 0.113973
O O3 0.750000 0.000000 0.110361
O O4 0.785737 0.065394 0.017230
O O5 0.969772 0.660460 0.192948
O O6 0.844660 0.561104 0.257637
O O7 0.611062 0.529459 0.069853
O O8 0.246634 0.642857 0.386150
O O9 0.000000 0.750000 0.392197
O O10 0.373440 0.043607 0.679478
#
# Coordination Sequence:
#
# PCOD9507009 Si02
#       6
#    16   8   8  16  16   8
#     4  10  21  35  67  89 112 153 195 251 296 350
#     4  10  21  38  62  82 123 150 198 254 300 343
#     4   9  20  35  66  94 116 147 198 253 310 336
#     4  11  25  41  57  85 125 166 197 237 303 365
#     4  10  20  38  58  91 123 147 198 251 294 353
#     4   9  20  31  60  94 110 143 194 265 290 338
#
# _framework density 20.867667000000001
#
# number of rings (size 3 to 8) (size 9 to 14) (size 15 to 20)
#    0.667    1.333    0.000    5.000    7.778    0.889 
#    0.000    1.111    0.000    2.667    0.000    0.000 
#    0.000    0.000    0.000    0.000    0.000    0.000 
#
# Total GULP energy -200769.116435 kJ/mol
# GULP energy per Si atom -5576.919901 kJ/mol
# Density = 2.082017 g / cm^3
# Si number density = 20.867667 Si / 1000 Ang^3
#
#
#
# Elastic Constant Matrix: (Units=GPa)
#
#
# Indices 1 2 3 4 5 6 
#
# 1 120.8062 33.1799 12.7223 0.0000 0.0000 0.0000
# 2 33.1799 101.1082 3.5558 0.0000 0.0000 0.0000
# 3 12.7223 3.5558 53.7072 0.0000 0.0000 0.0000
# 4 0.0000 0.0000 0.0000 12.0981 0.0000 0.0000
# 5 0.0000 0.0000 0.0000 0.0000 0.2406 0.0000
# 6 0.0000 0.0000 0.0000 0.0000 0.0000 15.7768
#
#
#
# Elastic Compliance Matrix: (Units=1/GPa)
#
#
# Indices 1 2 3 4 5 6 
#
# 1 0.009309 -0.002984 -0.002008 0.000000 0.000000 0.000000
# 2 -0.002984 0.010870 -0.000013 0.000000 0.000000 0.000000
# 3 -0.002008 -0.000013 0.019096 0.000000 0.000000 0.000000
# 4 0.000000 0.000000 0.000000 0.082658 0.000000 0.000000
# 5 0.000000 0.000000 0.000000 0.000000 4.156345 0.000000
# 6 0.000000 0.000000 0.000000 0.000000 0.000000 0.063384
#
#
# Mechanical properties :
#
#
# Convention : Reuss Voigt Hill
#
# Bulk Modulus (GPa) = 34.16956 41.61531 37.89243
# Shear Modulus (GPa) = 1.14641 20.70067 10.92354
#
# Velocity S-wave (km/s) = 0.74200 3.15302 2.29042
# Velocity P-wave (km/s) = 4.14054 5.76551 5.01922
#
# Compressibility (1/GPa) = 0.02926582
#
# Stress axis : x y z
#
# Youngs Moduli (GPa) = 107.42582 91.99516 52.36733
#
# Poissons Ratio (x) = 0.27453 0.10513
# Poissons Ratio (y) = 0.32058 0.00067
# Poissons Ratio (z) = 0.21566 0.00118
#
# Static dielectric constant tensor:
#      x y z
#    x 1.852400 0.000000 0.000000 
#    y 0.000000 1.737250 0.000000 
#    z 0.000000 0.000000 1.770780 
# 
# From -- ./inp_files/43035.got.cif
#   From: 2010.05.17/outbox.cif.g08.bks.cpg/sg68_22_cif.got.tgz:43035.got - 2010.06.03 18:57:09.
