data_PCOD9507163
_publ_section_title
;
Structure prediction by ZEFSAII (Michael W. Deem and Ramdas Pophale) SiO2 
 PCOD9507163
Probable space group: C C C A
;
_chemical_formula_sum "Si O2"
_cell_formula_units_Z 76
_cell_length_a 28.805205
_cell_length_b 8.451978
_cell_length_c 16.179501
_cell_angle_alpha 90.000000
_cell_angle_beta 90.000000
_cell_angle_gamma 90.000000
_cell_volume 3939.076829
_symmetry_space_group_name_H-M "C C C A"
_symmetry_group_IT_number 68
_space_group.IT_coordinate_system_code '2'
_symmetry_cell_setting 'orthorhombic'
loop_
_space_group_symop_operation_xyz
x,y,z
-x,1/2-y,z
x,1/2-y,1/2-z
-x,y,1/2-z
-x,-y,-z
x,1/2+y,-z
-x,1/2+y,1/2+z
x,-y,1/2+z
1/2+x,1/2+y,z
1/2-x,-y,z
1/2+x,-y,1/2-z
1/2-x,1/2+y,1/2-z
1/2-x,1/2-y,-z
1/2+x,y,-z
1/2-x,y,1/2+z
1/2+x,1/2-y,1/2+z
loop_
_atom_site_type_symbol
_atom_site_label
_atom_site_fract_x
_atom_site_fract_y
_atom_site_fract_z
Si Si1 0.950623 0.051199 0.608257
Si Si2 0.801087 0.671473 0.005407
Si Si3 0.283364 0.750000 0.750000
Si Si4 0.000000 0.750000 0.967917
Si Si5 0.250000 0.500000 0.368968
Si Si6 0.341720 0.564623 0.615566
Si Si7 0.000000 0.250000 0.750000
O O1 0.963404 0.163252 0.529511
O O2 0.895963 0.032294 0.622284
O O3 0.970742 0.137910 0.688989
O O4 0.975266 0.884820 0.586614
O O5 0.793771 0.529590 0.071886
O O6 0.835011 0.795617 0.047794
O O7 0.750000 0.750000 0.000000
O O8 0.816531 0.589901 0.921356
O O9 0.251195 0.651631 0.811312
O O10 0.315839 0.631649 0.696745
#
# Coordination Sequence:
#
# PCOD9507163 Si02
#       7
#    16  16   8   8   8  16   4
#     4  10  20  39  62  91 119 156 198 249 309 369
#     4  11  21  37  59  83 114 159 204 247 296 341
#     4  10  25  34  56  83 120 158 200 247 298 349
#     4   9  20  38  64  89 116 154 196 249 308 372
#     4  10  22  36  54  78 112 160 202 236 298 346
#     4  11  22  37  60  88 119 154 206 250 290 362
#     4  10  22  38  68  82 132 160 184 246 332 380
#
# _framework density 19.293861
#
# number of rings (size 3 to 8) (size 9 to 14) (size 15 to 20)
#    0.000    1.684    2.105    1.895    5.895    0.421 
#    0.000    0.000    4.632    0.000    0.000    0.000 
#    0.000    0.000    0.000    0.000    0.000    0.000 
#
# Total GULP energy -212006.976268 kJ/mol
# GULP energy per Si atom -5579.130954 kJ/mol
# Density = 1.924995 g / cm^3
# Si number density = 19.293861 Si / 1000 Ang^3
#
#
#
# Elastic Constant Matrix: (Units=GPa)
#
#
# Indices 1 2 3 4 5 6 
#
# 1 119.4576 63.9446 54.0076 0.0000 0.0000 0.0000
# 2 63.9446 101.5744 60.8137 0.0000 0.0000 0.0000
# 3 54.0076 60.8137 114.8279 0.0000 0.0000 0.0000
# 4 0.0000 0.0000 0.0000 52.3743 0.0000 0.0000
# 5 0.0000 0.0000 0.0000 0.0000 10.8003 0.0000
# 6 0.0000 0.0000 0.0000 0.0000 0.0000 21.8225
#
#
#
# Elastic Compliance Matrix: (Units=1/GPa)
#
#
# Indices 1 2 3 4 5 6 
#
# 1 0.013149 -0.006699 -0.002637 0.000000 0.000000 0.000000
# 2 -0.006699 0.017829 -0.006292 0.000000 0.000000 0.000000
# 3 -0.002637 -0.006292 0.013281 0.000000 0.000000 0.000000
# 4 0.000000 0.000000 0.000000 0.019093 0.000000 0.000000
# 5 0.000000 0.000000 0.000000 0.000000 0.092590 0.000000
# 6 0.000000 0.000000 0.000000 0.000000 0.000000 0.045824
#
#
# Mechanical properties :
#
#
# Convention : Reuss Voigt Hill
#
# Bulk Modulus (GPa) = 76.89699 77.04352 76.97025
# Shear Modulus (GPa) = 21.06531 27.47234 24.26883
#
# Velocity S-wave (km/s) = 3.30785 3.77754 3.55047
# Velocity P-wave (km/s) = 7.38453 7.68406 7.53578
#
# Compressibility (1/GPa) = 0.01300441
#
# Stress axis : x y z
#
# Youngs Moduli (GPa) = 76.04973 56.08728 75.29666
#
# Poissons Ratio (x) = 0.37575 0.19852
# Poissons Ratio (y) = 0.50949 0.47374
# Poissons Ratio (z) = 0.20051 0.35288
#
# Static dielectric constant tensor:
#      x y z
#    x 1.634620 0.000000 0.000000 
#    y 0.000000 1.755580 0.000000 
#    z 0.000000 0.000000 1.711040 
# 
# From -- ./inp_files/28394.got.cif
#   From: 2010.05.17/outbox.cif.g08.bks.cpg/sg68_15_cif.got.tgz:28394.got - 2010.06.03 18:57:09.
