data_PCOD9507954
_publ_section_title
;
Structure prediction by ZEFSAII (Michael W. Deem and Ramdas Pophale) SiO2 
 PCOD9507954
Probable space group: C C C A
;
_chemical_formula_sum "Si O2"
_cell_formula_units_Z 80
_cell_length_a 16.886201
_cell_length_b 26.288972
_cell_length_c 8.867939
_cell_angle_alpha 90.000000
_cell_angle_beta 90.000000
_cell_angle_gamma 90.000000
_cell_volume 3936.663154
_symmetry_space_group_name_H-M "C C C A"
_symmetry_group_IT_number 68
_space_group.IT_coordinate_system_code '2'
_symmetry_cell_setting 'orthorhombic'
loop_
_space_group_symop_operation_xyz
x,y,z
-x,1/2-y,z
x,1/2-y,1/2-z
-x,y,1/2-z
-x,-y,-z
x,1/2+y,-z
-x,1/2+y,1/2+z
x,-y,1/2+z
1/2+x,1/2+y,z
1/2-x,-y,z
1/2+x,-y,1/2-z
1/2-x,1/2+y,1/2-z
1/2-x,1/2-y,-z
1/2+x,y,-z
1/2-x,y,1/2+z
1/2+x,1/2-y,1/2+z
loop_
_atom_site_type_symbol
_atom_site_label
_atom_site_fract_x
_atom_site_fract_y
_atom_site_fract_z
Si Si1 0.661687 0.693786 0.696011
Si Si2 0.421381 0.092182 0.675952
Si Si3 0.073332 0.398814 0.665437
Si Si4 0.711055 0.054107 0.019361
Si Si5 0.690379 0.848480 0.116121
O O1 0.642337 0.750000 0.750000
O O2 0.598142 0.652219 0.749821
O O3 0.670409 0.690056 0.517042
O O4 0.743547 0.675535 0.774917
O O5 0.500000 0.068756 0.750000
O O6 0.444640 0.112750 0.510017
O O7 0.344489 0.058599 0.629843
O O8 0.385112 0.133900 0.787855
O O9 0.148708 0.435865 0.654677
O O10 0.000000 0.423009 0.750000
O O11 0.771530 0.101372 0.034533
O O12 0.750000 0.000000 0.027591
#
# Coordination Sequence:
#
# PCOD9507954 Si02
#       5
#    16  16  16  16  16
#     4  11  21  36  63  94 130 179 229 277 331 399
#     4  10  21  39  66  93 128 172 215 276 343 398
#     4   9  20  40  62  96 133 172 222 278 342 398
#     4   9  21  39  65  92 126 174 227 275 345 410
#     4  11  20  40  60  95 132 169 227 282 333 406
#
# _framework density 20.321777999999998
#
# number of rings (size 3 to 8) (size 9 to 14) (size 15 to 20)
#    1.200    0.800    2.000    1.800    0.000    1.200 
#    0.000    2.000    0.000    7.800    0.000    0.000 
#    0.000    0.000    0.000    0.000    0.000    0.000 
#
# Total GULP energy -223054.639226 kJ/mol
# GULP energy per Si atom -5576.365981 kJ/mol
# Density = 2.027552 g / cm^3
# Si number density = 20.321778 Si / 1000 Ang^3
#
#
#
# Elastic Constant Matrix: (Units=GPa)
#
#
# Indices 1 2 3 4 5 6 
#
# 1 48.0220 -7.8760 25.0894 0.0000 0.0000 0.0000
# 2 -7.8760 34.3923 1.6902 0.0000 0.0000 0.0000
# 3 25.0894 1.6902 101.8996 0.0000 0.0000 0.0000
# 4 0.0000 0.0000 0.0000 33.0380 0.0000 0.0000
# 5 0.0000 0.0000 0.0000 0.0000 44.6666 0.0000
# 6 0.0000 0.0000 0.0000 0.0000 0.0000 5.4778
#
#
#
# Elastic Compliance Matrix: (Units=1/GPa)
#
#
# Indices 1 2 3 4 5 6 
#
# 1 0.025098 0.006056 -0.006280 0.000000 0.000000 0.000000
# 2 0.006056 0.030561 -0.001998 0.000000 0.000000 0.000000
# 3 -0.006280 -0.001998 0.011393 0.000000 0.000000 0.000000
# 4 0.000000 0.000000 0.000000 0.030268 0.000000 0.000000
# 5 0.000000 0.000000 0.000000 0.000000 0.022388 0.000000
# 6 0.000000 0.000000 0.000000 0.000000 0.000000 0.182557
#
#
# Mechanical properties :
#
#
# Convention : Reuss Voigt Hill
#
# Bulk Modulus (GPa) = 15.97219 24.68010 20.32615
# Shear Modulus (GPa) = 15.26351 27.66382 21.46367
#
# Velocity S-wave (km/s) = 2.74358 3.69357 3.25343
# Velocity P-wave (km/s) = 4.23237 5.51008 4.91294
#
# Compressibility (1/GPa) = 0.06260880
#
# Stress axis : x y z
#
# Youngs Moduli (GPa) = 39.84368 32.72099 87.77345
#
# Poissons Ratio (x) = -0.19817 0.55122
# Poissons Ratio (y) = -0.24130 0.17538
# Poissons Ratio (z) = 0.25022 0.06538
#
# Static dielectric constant tensor:
#      x y z
#    x 1.762190 0.000000 0.000000 
#    y 0.000000 1.680040 0.000000 
#    z 0.000000 0.000000 1.748390 
# 
# From -- ./inp_files/6245.got.cif
#   From: 2010.05.17/outbox.cif.g08.bks.cpg/sg68_4_cif.got.tgz:6245.got - 2010.06.03 18:57:09.
