data_PCOD9507802
_publ_section_title
;
Structure prediction by ZEFSAII (Michael W. Deem and Ramdas Pophale) SiO2 
 PCOD9507802
Probable space group: C C C A
;
_chemical_formula_sum "Si O2"
_cell_formula_units_Z 104
_cell_length_a 28.806043
_cell_length_b 18.162916
_cell_length_c 8.887620
_cell_angle_alpha 90.000000
_cell_angle_beta 90.000000
_cell_angle_gamma 90.000000
_cell_volume 4650.018242
_symmetry_space_group_name_H-M "C C C A"
_symmetry_group_IT_number 68
_space_group.IT_coordinate_system_code '2'
_symmetry_cell_setting 'orthorhombic'
loop_
_space_group_symop_operation_xyz
x,y,z
-x,1/2-y,z
x,1/2-y,1/2-z
-x,y,1/2-z
-x,-y,-z
x,1/2+y,-z
-x,1/2+y,1/2+z
x,-y,1/2+z
1/2+x,1/2+y,z
1/2-x,-y,z
1/2+x,-y,1/2-z
1/2-x,1/2+y,1/2-z
1/2-x,1/2-y,-z
1/2+x,y,-z
1/2-x,y,1/2+z
1/2+x,1/2-y,1/2+z
loop_
_atom_site_type_symbol
_atom_site_label
_atom_site_fract_x
_atom_site_fract_y
_atom_site_fract_z
Si Si1 0.000000 0.583146 0.250000
Si Si2 0.984291 0.665295 0.580229
Si Si3 0.397071 0.532264 0.741659
Si Si4 0.823267 0.617233 0.073239
Si Si5 0.670415 0.896442 0.243400
Si Si6 0.619488 0.345445 0.498850
Si Si7 0.340101 0.250000 0.250000
Si Si8 0.750000 0.000000 0.844338
O O1 0.997416 0.626424 0.415357
O O2 0.952280 0.536908 0.242166
O O3 0.928629 0.664042 0.582972
O O4 0.000000 0.750000 0.567737
O O5 0.000000 0.638502 0.750000
O O6 0.370899 0.579175 0.871010
O O7 0.373144 0.453185 0.737357
O O8 0.383554 0.577551 0.591676
O O9 0.811360 0.681111 0.189953
O O10 0.784939 0.553812 0.070080
O O11 0.829137 0.648906 0.908309
O O12 0.662876 0.849468 0.391147
O O13 0.715748 0.946640 0.255029
O O14 0.626978 0.281041 0.379938
#
# Coordination Sequence:
#
# PCOD9507802 Si02
#       8
#     8  16  16  16  16  16   8   8
#     4  10  21  38  64  92 138 183 220 296 358 388
#     4  10  23  37  60  93 130 183 242 279 336 430
#     4   9  20  39  61  94 131 176 216 271 342 410
#     4  10  22  39  69  95 133 172 219 278 337 413
#     4  11  22  41  69  98 129 171 228 272 339 413
#     4  10  23  41  63  95 133 173 221 283 339 404
#     4  10  24  44  65  96 136 176 218 283 352 398
#     4  10  22  44  70 102 132 178 218 274 348 430
#
# _framework density 22.365504000000001
#
# number of rings (size 3 to 8) (size 9 to 14) (size 15 to 20)
#    0.000    2.000    0.000    2.538    8.615    4.308 
#    1.385    5.385    0.000    0.000    0.000    0.000 
#    0.000    0.000    0.000    0.000    0.000    0.000 
#
# Total GULP energy -290141.780687 kJ/mol
# GULP energy per Si atom -5579.649629 kJ/mol
# Density = 2.231460 g / cm^3
# Si number density = 22.365504 Si / 1000 Ang^3
#
#
#
# Elastic Constant Matrix: (Units=GPa)
#
#
# Indices 1 2 3 4 5 6 
#
# 1 110.8775 13.5015 47.5133 0.0000 0.0000 0.0000
# 2 13.5015 33.4388 12.4750 0.0000 0.0000 0.0000
# 3 47.5133 12.4750 142.3569 0.0000 0.0000 0.0000
# 4 0.0000 0.0000 0.0000 -6.1300 0.0000 0.0000
# 5 0.0000 0.0000 0.0000 0.0000 -55.1077 0.0000
# 6 0.0000 0.0000 0.0000 0.0000 0.0000 21.6702
#
#
#
# Elastic Compliance Matrix: (Units=1/GPa)
#
#
# Indices 1 2 3 4 5 6 
#
# 1 0.010831 -0.003127 -0.003341 0.000000 0.000000 0.000000
# 2 -0.003127 0.031819 -0.001745 0.000000 0.000000 0.000000
# 3 -0.003341 -0.001745 0.008293 0.000000 0.000000 0.000000
# 4 0.000000 0.000000 0.000000 -0.163133 0.000000 0.000000
# 5 0.000000 0.000000 0.000000 0.000000 -0.018146 0.000000
# 6 0.000000 0.000000 0.000000 0.000000 0.000000 0.046146
#
#
# Mechanical properties :
#
#
# Convention : Reuss Voigt Hill
#
# Bulk Modulus (GPa) = 28.97082 48.18362 38.57722
# Shear Modulus (GPa) = -88.87457 6.29873 -41.28792
#
# Velocity S-wave (km/s) = -6.31059 1.68000 -4.30123
# Velocity P-wave (km/s) = 6.33377 5.03524 2.71689
#
# Compressibility (1/GPa) = 0.03451749
#
# Stress axis : x y z
#
# Youngs Moduli (GPa) = 92.32365 31.42792 120.58904
#
# Poissons Ratio (x) = 0.09827 0.40290
# Poissons Ratio (y) = 0.28869 0.21039
# Poissons Ratio (z) = 0.30846 0.05483
#
# Static dielectric constant tensor:
#      x y z
#    x 1.778910 0.000000 0.000000 
#    y 0.000000 1.798500 0.000000 
#    z 0.000000 0.000000 1.910470 
# 
# From -- ./inp_files/9042.got.cif
#   From: 2010.05.17/outbox.cif.g08.bks.cpg/sg68_5_cif.got.tgz:9042.got - 2010.06.03 18:57:09.
