data_PCOD9507314
_publ_section_title
;
Structure prediction by ZEFSAII (Michael W. Deem and Ramdas Pophale) SiO2 
 PCOD9507314
Probable space group: C C C A
;
_chemical_formula_sum "Si O2"
_cell_formula_units_Z 64
_cell_length_a 13.146358
_cell_length_b 25.284562
_cell_length_c 8.954254
_cell_angle_alpha 90.000000
_cell_angle_beta 90.000000
_cell_angle_gamma 90.000000
_cell_volume 2976.393169
_symmetry_space_group_name_H-M "C C C A"
_symmetry_group_IT_number 68
_space_group.IT_coordinate_system_code '2'
_symmetry_cell_setting 'orthorhombic'
loop_
_space_group_symop_operation_xyz
x,y,z
-x,1/2-y,z
x,1/2-y,1/2-z
-x,y,1/2-z
-x,-y,-z
x,1/2+y,-z
-x,1/2+y,1/2+z
x,-y,1/2+z
1/2+x,1/2+y,z
1/2-x,-y,z
1/2+x,-y,1/2-z
1/2-x,1/2+y,1/2-z
1/2-x,1/2-y,-z
1/2+x,y,-z
1/2-x,y,1/2+z
1/2+x,1/2-y,1/2+z
loop_
_atom_site_type_symbol
_atom_site_label
_atom_site_fract_x
_atom_site_fract_y
_atom_site_fract_z
Si Si1 0.041206 0.926699 0.992101
Si Si2 0.000000 0.486524 0.750000
Si Si3 0.127612 0.655418 0.018727
Si Si4 0.500000 0.750000 0.015302
Si Si5 0.845075 0.330008 0.336303
O O1 0.101535 0.879341 0.917734
O O2 0.929116 0.901300 0.023634
O O3 0.074285 0.949602 0.152009
O O4 0.045401 0.974229 0.873529
O O5 0.146596 0.664577 0.841668
O O6 0.050774 0.701495 0.070679
O O7 0.229674 0.665847 0.109502
O O8 0.409785 0.720651 0.107919
#
# Coordination Sequence:
#
# PCOD9507314 Si02
#       5
#    16   8  16   8  16
#     4  10  21  41  63  86 123 157 201 242 304 346
#     4  10  20  40  68  84 114 166 200 246 294 360
#     4  11  22  39  62  91 122 158 199 245 296 356
#     4  10  21  42  65  84 123 166 195 238 301 358
#     4  11  22  39  62  91 122 158 199 245 296 356
#
# _framework density 21.502535999999999
#
# number of rings (size 3 to 8) (size 9 to 14) (size 15 to 20)
#    0.000    1.500    2.500    4.500    3.500    0.000 
#    0.000    8.750    0.000    0.000    0.000    0.000 
#    0.000    0.000    0.000    0.000    0.000    0.000 
#
# Total GULP energy -178473.634843 kJ/mol
# GULP energy per Si atom -5577.301089 kJ/mol
# Density = 2.145359 g / cm^3
# Si number density = 21.502536 Si / 1000 Ang^3
#
#
#
# Elastic Constant Matrix: (Units=GPa)
#
#
# Indices 1 2 3 4 5 6 
#
# 1 97.2495 19.4883 22.6824 0.0000 0.0000 0.0000
# 2 19.4883 107.3319 50.5898 0.0000 0.0000 0.0000
# 3 22.6824 50.5898 103.0287 0.0000 0.0000 0.0000
# 4 0.0000 0.0000 0.0000 1.1085 0.0000 0.0000
# 5 0.0000 0.0000 0.0000 0.0000 22.6799 0.0000
# 6 0.0000 0.0000 0.0000 0.0000 0.0000 4.7564
#
#
#
# Elastic Compliance Matrix: (Units=1/GPa)
#
#
# Indices 1 2 3 4 5 6 
#
# 1 0.010940 -0.001107 -0.001865 0.000000 0.000000 0.000000
# 2 -0.001107 0.012235 -0.005764 0.000000 0.000000 0.000000
# 3 -0.001865 -0.005764 0.012947 0.000000 0.000000 0.000000
# 4 0.000000 0.000000 0.000000 0.902111 0.000000 0.000000
# 5 0.000000 0.000000 0.000000 0.000000 0.044092 0.000000
# 6 0.000000 0.000000 0.000000 0.000000 0.000000 0.210244
#
#
# Mechanical properties :
#
#
# Convention : Reuss Voigt Hill
#
# Bulk Modulus (GPa) = 53.62107 54.79231 54.20669
# Shear Modulus (GPa) = 4.11098 20.03226 12.07162
#
# Velocity S-wave (km/s) = 1.38420 3.05556 2.37197
# Velocity P-wave (km/s) = 5.24842 6.16326 5.72414
#
# Compressibility (1/GPa) = 0.01864938
#
# Stress axis : x y z
#
# Youngs Moduli (GPa) = 91.41045 81.73511 77.23983
#
# Poissons Ratio (x) = 0.09052 0.14403
# Poissons Ratio (y) = 0.10123 0.44519
# Poissons Ratio (z) = 0.17045 0.47110
#
# Static dielectric constant tensor:
#      x y z
#    x 1.805160 0.000000 0.000000 
#    y 0.000000 1.842260 0.000000 
#    z 0.000000 0.000000 1.789840 
# 
# From -- ./inp_files/5020.got.cif
#   From: 2010.05.17/outbox.cif.g08.bks.cpg/sg68_3_cif.got.tgz:5020.got - 2010.06.03 18:57:09.
