data_PCOD9507541
_publ_section_title
;
Structure prediction by ZEFSAII (Michael W. Deem and Ramdas Pophale) SiO2 
 PCOD9507541
Probable space group: C C C A
;
_chemical_formula_sum "Si O2"
_cell_formula_units_Z 112
_cell_length_a 15.394464
_cell_length_b 27.293254
_cell_length_c 13.174063
_cell_angle_alpha 90.000000
_cell_angle_beta 90.000000
_cell_angle_gamma 90.000000
_cell_volume 5535.280393
_symmetry_space_group_name_H-M "C C C A"
_symmetry_group_IT_number 68
_space_group.IT_coordinate_system_code '2'
_symmetry_cell_setting 'orthorhombic'
loop_
_space_group_symop_operation_xyz
x,y,z
-x,1/2-y,z
x,1/2-y,1/2-z
-x,y,1/2-z
-x,-y,-z
x,1/2+y,-z
-x,1/2+y,1/2+z
x,-y,1/2+z
1/2+x,1/2+y,z
1/2-x,-y,z
1/2+x,-y,1/2-z
1/2-x,1/2+y,1/2-z
1/2-x,1/2-y,-z
1/2+x,y,-z
1/2-x,y,1/2+z
1/2+x,1/2-y,1/2+z
loop_
_atom_site_type_symbol
_atom_site_label
_atom_site_fract_x
_atom_site_fract_y
_atom_site_fract_z
Si Si1 0.858974 0.127982 0.927847
Si Si2 0.500000 0.129156 0.750000
Si Si3 0.470544 0.164149 0.364106
Si Si4 0.500000 0.750000 0.476638
Si Si5 0.845553 0.021063 0.991982
Si Si6 0.863511 0.308953 0.368228
Si Si7 0.316775 0.305558 0.237050
Si Si8 0.010414 0.034488 0.137558
O O1 0.825586 0.073211 0.938768
O O2 0.819307 0.163792 0.841626
O O3 0.961891 0.122790 0.897723
O O4 0.849831 0.156119 0.034175
O O5 0.576803 0.162252 0.710557
O O6 0.526273 0.092041 0.840053
O O7 0.500000 0.179105 0.250000
O O8 0.483652 0.204808 0.449143
O O9 0.369167 0.160346 0.343519
O O10 0.417079 0.762424 0.408643
O O11 0.750000 0.000000 0.019817
O O12 0.916935 0.029862 0.081725
O O13 0.906252 0.987698 0.918846
O O14 0.775409 0.296891 0.313082
O O15 0.354185 0.250000 0.250000
O O16 0.000000 0.011714 0.250000
#
# Coordination Sequence:
#
# PCOD9507541 Si02
#       8
#    16   8  16   8  16  16  16  16
#     4  10  22  44  64  95 132 169 216 264 340 392
#     4  10  22  45  62  84 130 176 209 272 328 398
#     4   9  18  38  63  88 126 168 213 274 328 382
#     4  10  21  35  64  88 126 184 214 270 332 398
#     4  11  23  43  70 103 131 170 225 277 331 415
#     4  11  24  41  62  92 129 174 223 261 336 396
#     4  11  24  39  64  96 131 168 229 281 316 390
#     4   9  22  45  68  94 133 171 214 277 341 397
#
# _framework density 20.233844000000001
#
# number of rings (size 3 to 8) (size 9 to 14) (size 15 to 20)
#    0.429    1.429    1.429    2.786    4.000    5.143 
#   10.286    0.000    0.000    0.000    0.000    0.000 
#    0.000    0.000    0.000    0.000    0.000    0.000 
#
# Total GULP energy -311945.010120 kJ/mol
# GULP energy per Si atom -5570.446609 kJ/mol
# Density = 2.018779 g / cm^3
# Si number density = 20.233844 Si / 1000 Ang^3
#
#
#
# Elastic Constant Matrix: (Units=GPa)
#
#
# Indices 1 2 3 4 5 6 
#
# 1 87.2508 8.8701 41.6787 0.0000 0.0000 0.0000
# 2 8.8701 54.7999 8.5390 0.0000 0.0000 0.0000
# 3 41.6787 8.5390 76.1529 0.0000 0.0000 0.0000
# 4 0.0000 0.0000 0.0000 12.6653 0.0000 0.0000
# 5 0.0000 0.0000 0.0000 0.0000 -428.3127 0.0000
# 6 0.0000 0.0000 0.0000 0.0000 0.0000 2.9136
#
#
#
# Elastic Compliance Matrix: (Units=1/GPa)
#
#
# Indices 1 2 3 4 5 6 
#
# 1 0.015598 -0.001216 -0.008400 0.000000 0.000000 0.000000
# 2 -0.001216 0.018667 -0.001428 0.000000 0.000000 0.000000
# 3 -0.008400 -0.001428 0.017889 0.000000 0.000000 0.000000
# 4 0.000000 0.000000 0.000000 0.078956 0.000000 0.000000
# 5 0.000000 0.000000 0.000000 0.000000 -0.002335 0.000000
# 6 0.000000 0.000000 0.000000 0.000000 0.000000 0.343218
#
#
# Mechanical properties :
#
#
# Convention : Reuss Voigt Hill
#
# Bulk Modulus (GPa) = 33.25963 37.37546 35.31755
# Shear Modulus (GPa) = 9.91861 -71.93904 -31.01022
#
# Velocity S-wave (km/s) = 2.21645 -5.96917 -3.91908
# Velocity P-wave (km/s) = 4.79828 5.38481 1.72810
#
# Compressibility (1/GPa) = 0.03006648
#
# Stress axis : x y z
#
# Youngs Moduli (GPa) = 64.11277 53.56916 55.90012
#
# Poissons Ratio (x) = 0.06513 0.46957
# Poissons Ratio (y) = 0.07794 0.07981
# Poissons Ratio (z) = 0.53856 0.07649
#
# Static dielectric constant tensor:
#      x y z
#    x 1.911610 0.000000 0.000000 
#    y 0.000000 1.728400 0.000000 
#    z 0.000000 0.000000 1.743890 
# 
# From -- ./inp_files/22780.got.cif
#   From: 2010.05.17/outbox.cif.g08.bks.cpg/sg68_12_cif.got.tgz:22780.got - 2010.06.03 18:57:09.
