data_PCOD9507313
_publ_section_title
;
Structure prediction by ZEFSAII (Michael W. Deem and Ramdas Pophale) SiO2 
 PCOD9507313
Probable space group: C C C A
;
_chemical_formula_sum "Si O2"
_cell_formula_units_Z 92
_cell_length_a 13.698177
_cell_length_b 14.904737
_cell_length_c 20.811488
_cell_angle_alpha 90.000000
_cell_angle_beta 90.000000
_cell_angle_gamma 90.000000
_cell_volume 4249.034171
_symmetry_space_group_name_H-M "C C C A"
_symmetry_group_IT_number 68
_space_group.IT_coordinate_system_code '2'
_symmetry_cell_setting 'orthorhombic'
loop_
_space_group_symop_operation_xyz
x,y,z
-x,1/2-y,z
x,1/2-y,1/2-z
-x,y,1/2-z
-x,-y,-z
x,1/2+y,-z
-x,1/2+y,1/2+z
x,-y,1/2+z
1/2+x,1/2+y,z
1/2-x,-y,z
1/2+x,-y,1/2-z
1/2-x,1/2+y,1/2-z
1/2-x,1/2-y,-z
1/2+x,y,-z
1/2-x,y,1/2+z
1/2+x,1/2-y,1/2+z
loop_
_atom_site_type_symbol
_atom_site_label
_atom_site_fract_x
_atom_site_fract_y
_atom_site_fract_z
Si Si1 0.000000 0.250000 0.750000
Si Si2 0.452227 0.133359 0.136385
Si Si3 0.293414 0.601553 0.969968
Si Si4 0.477087 0.145569 0.949097
Si Si5 0.624920 0.873686 0.545731
Si Si6 0.750000 0.500000 0.360230
Si Si7 0.457250 0.943327 0.318914
O O1 0.938678 0.188181 0.798180
O O2 0.355272 0.128593 0.092956
O O3 0.546368 0.168834 0.094865
O O4 0.489478 0.034804 0.157441
O O5 0.250000 0.500000 0.963231
O O6 0.372679 0.613615 0.026095
O O7 0.203654 0.663024 0.994325
O O8 0.500000 0.250000 0.963108
O O9 0.483196 0.127166 0.874217
O O10 0.550676 0.087290 0.992640
O O11 0.691898 0.932064 0.592981
O O12 0.660492 0.542094 0.319604
O O13 0.500000 0.919762 0.250000
#
# Coordination Sequence:
#
# PCOD9507313 Si02
#       7
#     4  16  16  16  16   8  16
#     4  12  24  52  64 104 142 182 226 300 356 428
#     4  10  24  41  72 100 139 185 228 295 355 435
#     4  11  20  41  73 104 135 178 238 294 360 430
#     4  11  25  41  66 108 145 184 233 303 364 418
#     4  10  20  40  69 101 135 171 230 291 355 413
#     4  10  20  40  68 102 126 178 238 296 346 434
#     4  11  22  44  66  94 139 194 237 281 357 444
#
# _framework density 21.651979000000001
#
# number of rings (size 3 to 8) (size 9 to 14) (size 15 to 20)
#    0.000    1.391    3.478    2.087    4.870    4.522 
#    4.696    0.000    0.000    0.000    0.000    0.000 
#    0.000    0.000    0.000    0.000    0.000    0.000 
#
# Total GULP energy -256238.507753 kJ/mol
# GULP energy per Si atom -5570.402342 kJ/mol
# Density = 2.160270 g / cm^3
# Si number density = 21.651979 Si / 1000 Ang^3
#
#
#
# Elastic Constant Matrix: (Units=GPa)
#
#
# Indices 1 2 3 4 5 6 
#
# 1 167.2078 35.1164 69.8897 0.0000 0.0000 0.0000
# 2 35.1164 95.3731 38.6772 0.0000 0.0000 0.0000
# 3 69.8897 38.6772 186.3292 0.0000 0.0000 0.0000
# 4 0.0000 0.0000 0.0000 7.0481 0.0000 0.0000
# 5 0.0000 0.0000 0.0000 0.0000 -5.3203 0.0000
# 6 0.0000 0.0000 0.0000 0.0000 0.0000 15.2428
#
#
#
# Elastic Compliance Matrix: (Units=1/GPa)
#
#
# Indices 1 2 3 4 5 6 
#
# 1 0.007346 -0.001733 -0.002396 0.000000 0.000000 0.000000
# 2 -0.001733 0.011858 -0.001811 0.000000 0.000000 0.000000
# 3 -0.002396 -0.001811 0.006641 0.000000 0.000000 0.000000
# 4 0.000000 0.000000 0.000000 0.141882 0.000000 0.000000
# 5 0.000000 0.000000 0.000000 0.000000 -0.187960 0.000000
# 6 0.000000 0.000000 0.000000 0.000000 0.000000 0.065605
#
#
# Mechanical properties :
#
#
# Convention : Reuss Voigt Hill
#
# Bulk Modulus (GPa) = 71.60803 81.80853 76.70828
# Shear Modulus (GPa) = 80.76693 23.74259 52.25476
#
# Velocity S-wave (km/s) = 6.11419 3.31502 4.91796
# Velocity P-wave (km/s) = 9.10980 7.24692 8.23123
#
# Compressibility (1/GPa) = 0.01396491
#
# Stress axis : x y z
#
# Youngs Moduli (GPa) = 136.13038 84.33231 150.57145
#
# Poissons Ratio (x) = 0.14617 0.36070
# Poissons Ratio (y) = 0.23595 0.27272
# Poissons Ratio (z) = 0.32611 0.15275
#
# Static dielectric constant tensor:
#      x y z
#    x 1.838590 0.000000 0.000000 
#    y 0.000000 1.885230 0.000000 
#    z 0.000000 0.000000 1.779640 
# 
# From -- ./inp_files/37520.got.cif
#   From: 2010.05.17/outbox.cif.g08.bks.cpg/sg68_19_cif.got.tgz:37520.got - 2010.06.03 18:57:09.
