data_PCOD9507744
_publ_section_title
;
Structure prediction by ZEFSAII (Michael W. Deem and Ramdas Pophale) SiO2 
 PCOD9507744
Probable space group: C C C A
;
_chemical_formula_sum "Si O2"
_cell_formula_units_Z 72
_cell_length_a 19.298777
_cell_length_b 8.315169
_cell_length_c 22.678940
_cell_angle_alpha 90.000000
_cell_angle_beta 90.000000
_cell_angle_gamma 90.000000
_cell_volume 3639.348291
_symmetry_space_group_name_H-M "C C C A"
_symmetry_group_IT_number 68
_space_group.IT_coordinate_system_code '2'
_symmetry_cell_setting 'orthorhombic'
loop_
_space_group_symop_operation_xyz
x,y,z
-x,1/2-y,z
x,1/2-y,1/2-z
-x,y,1/2-z
-x,-y,-z
x,1/2+y,-z
-x,1/2+y,1/2+z
x,-y,1/2+z
1/2+x,1/2+y,z
1/2-x,-y,z
1/2+x,-y,1/2-z
1/2-x,1/2+y,1/2-z
1/2-x,1/2-y,-z
1/2+x,y,-z
1/2-x,y,1/2+z
1/2+x,1/2-y,1/2+z
loop_
_atom_site_type_symbol
_atom_site_label
_atom_site_fract_x
_atom_site_fract_y
_atom_site_fract_z
Si Si1 0.637859 0.704535 0.916015
Si Si2 0.500000 0.250000 0.350360
Si Si3 0.819963 0.108178 0.032726
Si Si4 0.271230 0.188186 0.638895
Si Si5 0.500000 0.990280 0.250000
Si Si6 0.128698 0.250000 0.250000
O O1 0.567555 0.765883 0.889365
O O2 0.628744 0.523322 0.939781
O O3 0.698642 0.714220 0.866800
O O4 0.660584 0.817168 0.970421
O O5 0.504460 0.402077 0.307861
O O6 0.809221 0.253003 0.079036
O O7 0.750000 0.000000 0.027712
O O8 0.320380 0.234537 0.693532
O O9 0.250000 0.000000 0.640147
O O10 0.572760 0.894560 0.250942
#
# Coordination Sequence:
#
# PCOD9507744 Si02
#       6
#    16   8  16  16   8   8
#     4  11  22  38  61  89 123 161 202 247 301 359
#     4  11  24  42  62  86 122 165 204 250 302 361
#     4  10  21  38  60  89 124 157 195 253 307 351
#     4  11  22  38  63  91 119 155 203 251 300 359
#     4  10  24  44  60  86 126 158 194 254 314 350
#     4  11  24  42  66  89 118 160 202 249 304 368
#
# _framework density 19.783761999999999
#
# number of rings (size 3 to 8) (size 9 to 14) (size 15 to 20)
#    0.000    1.333    0.000    7.333    0.000    7.111 
#    0.000    2.222    0.000    0.000    0.000    0.000 
#    0.000    0.000    0.000    0.000    0.000    0.000 
#
# Total GULP energy -201005.969012 kJ/mol
# GULP energy per Si atom -5583.499139 kJ/mol
# Density = 1.973873 g / cm^3
# Si number density = 19.783762 Si / 1000 Ang^3
#
#
#
# Elastic Constant Matrix: (Units=GPa)
#
#
# Indices 1 2 3 4 5 6 
#
# 1 124.7747 25.3553 94.3763 0.0000 0.0000 0.0000
# 2 25.3553 87.8240 53.8040 0.0000 0.0000 0.0000
# 3 94.3763 53.8040 156.3023 0.0000 0.0000 0.0000
# 4 0.0000 0.0000 0.0000 31.5582 0.0000 0.0000
# 5 0.0000 0.0000 0.0000 0.0000 -142.1383 0.0000
# 6 0.0000 0.0000 0.0000 0.0000 0.0000 -10.6291
#
#
#
# Elastic Compliance Matrix: (Units=1/GPa)
#
#
# Indices 1 2 3 4 5 6 
#
# 1 0.014913 0.001535 -0.009533 0.000000 0.000000 0.000000
# 2 0.001535 0.014587 -0.005948 0.000000 0.000000 0.000000
# 3 -0.009533 -0.005948 0.014201 0.000000 0.000000 0.000000
# 4 0.000000 0.000000 0.000000 0.031687 0.000000 0.000000
# 5 0.000000 0.000000 0.000000 0.000000 -0.007035 0.000000
# 6 0.000000 0.000000 0.000000 0.000000 0.000000 -0.094082
#
#
# Mechanical properties :
#
#
# Convention : Reuss Voigt Hill
#
# Bulk Modulus (GPa) = 63.25416 79.55245 71.40330
# Shear Modulus (GPa) = 672.57027 -11.21747 330.67640
#
# Velocity S-wave (km/s) = 18.45803 -2.38377 12.94250
# Velocity P-wave (km/s) = 22.05237 5.72030 16.10945
#
# Compressibility (1/GPa) = 0.01580924
#
# Stress axis : x y z
#
# Youngs Moduli (GPa) = 67.05571 68.55273 70.41594
#
# Poissons Ratio (x) = -0.10521 0.67126
# Poissons Ratio (y) = -0.10291 0.41884
# Poissons Ratio (z) = 0.63923 0.40775
#
# Static dielectric constant tensor:
#      x y z
#    x 1.693110 0.000000 0.000000 
#    y 0.000000 1.743030 0.000000 
#    z 0.000000 0.000000 1.671170 
# 
# From -- ./inp_files/45925.got.cif
#   From: 2010.05.17/outbox.cif.g08.bks.cpg/sg68_23_cif.got.tgz:45925.got - 2010.06.03 18:57:09.
