data_PCOD9507292
_publ_section_title
;
Structure prediction by ZEFSAII (Michael W. Deem and Ramdas Pophale) SiO2 
 PCOD9507292
Probable space group: C C C A
;
_chemical_formula_sum "Si O2"
_cell_formula_units_Z 72
_cell_length_a 16.385591
_cell_length_b 14.583384
_cell_length_c 14.718278
_cell_angle_alpha 90.000000
_cell_angle_beta 90.000000
_cell_angle_gamma 90.000000
_cell_volume 3517.040937
_symmetry_space_group_name_H-M "C C C A"
_symmetry_group_IT_number 68
_space_group.IT_coordinate_system_code '2'
_symmetry_cell_setting 'orthorhombic'
loop_
_space_group_symop_operation_xyz
x,y,z
-x,1/2-y,z
x,1/2-y,1/2-z
-x,y,1/2-z
-x,-y,-z
x,1/2+y,-z
-x,1/2+y,1/2+z
x,-y,1/2+z
1/2+x,1/2+y,z
1/2-x,-y,z
1/2+x,-y,1/2-z
1/2-x,1/2+y,1/2-z
1/2-x,1/2-y,-z
1/2+x,y,-z
1/2-x,y,1/2+z
1/2+x,1/2-y,1/2+z
loop_
_atom_site_type_symbol
_atom_site_label
_atom_site_fract_x
_atom_site_fract_y
_atom_site_fract_z
Si Si1 0.538980 0.851241 0.988833
Si Si2 0.692834 0.750000 0.250000
Si Si3 0.429392 0.884684 0.824918
Si Si4 0.422129 0.412387 0.686693
Si Si5 0.194570 0.766561 0.090554
O O1 0.500000 0.750000 0.005188
O O2 0.480845 0.898652 0.916732
O O3 0.625995 0.836968 0.941186
O O4 0.550316 0.900269 0.083322
O O5 0.640828 0.668445 0.293568
O O6 0.745407 0.704444 0.170196
O O7 0.500000 0.855941 0.750000
O O8 0.358857 0.814368 0.858330
O O9 0.393771 0.983083 0.796120
O O10 0.500000 0.397377 0.750000
O O11 0.250000 0.750000 0.000000
#
# Coordination Sequence:
#
# PCOD9507292 Si02
#       5
#    16   8  16  16  16
#     4  10  20  40  65  92 124 168 220 265 316 397
#     4  12  23  40  65  90 136 170 212 270 335 402
#     4  10  23  42  66  94 130 170 225 272 316 396
#     4  11  23  39  65  95 126 168 221 273 322 386
#     4  11  23  41  66  98 130 174 218 268 340 392
#
# _framework density 20.471755000000002
#
# number of rings (size 3 to 8) (size 9 to 14) (size 15 to 20)
#    0.000    1.333    2.222    3.667    3.111    4.000 
#    0.000    0.000    0.000    0.000    0.000    0.000 
#    0.000    0.000    0.000    0.000    0.000    0.000 
#
# Total GULP energy -200784.229734 kJ/mol
# GULP energy per Si atom -5577.339715 kJ/mol
# Density = 2.042516 g / cm^3
# Si number density = 20.471755 Si / 1000 Ang^3
#
#
#
# Elastic Constant Matrix: (Units=GPa)
#
#
# Indices 1 2 3 4 5 6 
#
# 1 68.1755 24.9279 31.0597 0.0000 0.0000 0.0000
# 2 24.9279 85.9851 22.9731 0.0000 0.0000 0.0000
# 3 31.0597 22.9731 134.2889 0.0000 0.0000 0.0000
# 4 0.0000 0.0000 0.0000 45.4936 0.0000 0.0000
# 5 0.0000 0.0000 0.0000 0.0000 46.1431 0.0000
# 6 0.0000 0.0000 0.0000 0.0000 0.0000 17.6076
#
#
#
# Elastic Compliance Matrix: (Units=1/GPa)
#
#
# Indices 1 2 3 4 5 6 
#
# 1 0.017761 -0.004246 -0.003382 0.000000 0.000000 0.000000
# 2 -0.004246 0.013202 -0.001277 0.000000 0.000000 0.000000
# 3 -0.003382 -0.001277 0.008447 0.000000 0.000000 0.000000
# 4 0.000000 0.000000 0.000000 0.021981 0.000000 0.000000
# 5 0.000000 0.000000 0.000000 0.000000 0.021672 0.000000
# 6 0.000000 0.000000 0.000000 0.000000 0.000000 0.056794
#
#
# Mechanical properties :
#
#
# Convention : Reuss Voigt Hill
#
# Bulk Modulus (GPa) = 46.29097 49.59680 47.94388
# Shear Modulus (GPa) = 30.32787 35.81477 33.07132
#
# Velocity S-wave (km/s) = 3.85314 4.18721 4.02364
# Velocity P-wave (km/s) = 6.51588 6.90337 6.71242
#
# Compressibility (1/GPa) = 0.02160249
#
# Stress axis : x y z
#
# Youngs Moduli (GPa) = 56.30302 75.74712 118.38315
#
# Poissons Ratio (x) = 0.32159 0.40033
# Poissons Ratio (y) = 0.23904 0.15112
# Poissons Ratio (z) = 0.19040 0.09669
#
# Static dielectric constant tensor:
#      x y z
#    x 1.720870 0.000000 0.000000 
#    y 0.000000 1.747000 0.000000 
#    z 0.000000 0.000000 1.726200 
# 
# From -- ./inp_files/21999.got.cif
#   From: 2010.05.17/outbox.cif.g08.bks.cpg/sg68_11_cif.got.tgz:21999.got - 2010.06.03 18:57:09.
