data_PCOD9507382
_publ_section_title
;
Structure prediction by ZEFSAII (Michael W. Deem and Ramdas Pophale) SiO2 
 PCOD9507382
Probable space group: C C C A
;
_chemical_formula_sum "Si O2"
_cell_formula_units_Z 104
_cell_length_a 19.704446
_cell_length_b 15.312530
_cell_length_c 17.414387
_cell_angle_alpha 90.000000
_cell_angle_beta 90.000000
_cell_angle_gamma 90.000000
_cell_volume 5254.354533
_symmetry_space_group_name_H-M "C C C A"
_symmetry_group_IT_number 68
_space_group.IT_coordinate_system_code '2'
_symmetry_cell_setting 'orthorhombic'
loop_
_space_group_symop_operation_xyz
x,y,z
-x,1/2-y,z
x,1/2-y,1/2-z
-x,y,1/2-z
-x,-y,-z
x,1/2+y,-z
-x,1/2+y,1/2+z
x,-y,1/2+z
1/2+x,1/2+y,z
1/2-x,-y,z
1/2+x,-y,1/2-z
1/2-x,1/2+y,1/2-z
1/2-x,1/2-y,-z
1/2+x,y,-z
1/2-x,y,1/2+z
1/2+x,1/2-y,1/2+z
loop_
_atom_site_type_symbol
_atom_site_label
_atom_site_fract_x
_atom_site_fract_y
_atom_site_fract_z
Si Si1 0.451864 0.480424 0.322697
Si Si2 0.137226 0.473193 0.556862
Si Si3 0.250000 0.000000 0.568417
Si Si4 0.250000 0.500000 0.167613
Si Si5 0.455981 0.372034 0.615709
Si Si6 0.493879 0.652044 0.553949
Si Si7 0.100231 0.750000 0.750000
Si Si8 0.179802 0.912913 0.697840
O O1 0.500000 0.455588 0.250000
O O2 0.482080 0.571545 0.352561
O O3 0.462838 0.411388 0.390657
O O4 0.374888 0.506916 0.304963
O O5 0.181592 0.503543 0.483158
O O6 0.196195 0.448548 0.615777
O O7 0.101564 0.556132 0.596981
O O8 0.079442 0.398515 0.546368
O O9 0.268593 0.077961 0.627015
O O10 0.217403 0.429056 0.222916
O O11 0.475713 0.339764 0.531440
O O12 0.437350 0.304798 0.682788
O O13 0.500000 0.750000 0.586746
O O14 0.143440 0.820973 0.703409
#
# Coordination Sequence:
#
# PCOD9507382 Si02
#       8
#    16  16   8   8  16  16   8  16
#     4  11  21  41  66  92 130 178 217 274 355 411
#     4  10  20  44  64  90 126 185 219 260 347 413
#     4  10  22  36  70  86 126 186 218 258 328 432
#     4  10  20  42  64  84 130 182 220 256 318 416
#     4  11  23  39  64  95 133 164 216 287 353 397
#     4  11  25  40  66 100 136 168 222 293 343 411
#     4  12  24  39  66 104 128 162 223 292 338 386
#     4  11  22  39  61  98 128 171 222 274 331 404
#
# _framework density 19.793108
#
# number of rings (size 3 to 8) (size 9 to 14) (size 15 to 20)
#    0.000    1.231    3.077    4.615    4.308    0.923 
#    0.000    5.385    0.000    0.000    0.000    0.000 
#    0.000    0.000    0.000    0.000    0.000    0.000 
#
# Total GULP energy -289882.908470 kJ/mol
# GULP energy per Si atom -5574.671317 kJ/mol
# Density = 1.974806 g / cm^3
# Si number density = 19.793108 Si / 1000 Ang^3
#
#
#
# Elastic Constant Matrix: (Units=GPa)
#
#
# Indices 1 2 3 4 5 6 
#
# 1 93.1221 44.4090 31.8853 0.0000 0.0000 0.0000
# 2 44.4090 128.8035 41.3521 0.0000 0.0000 0.0000
# 3 31.8853 41.3521 106.4738 0.0000 0.0000 0.0000
# 4 0.0000 0.0000 0.0000 22.7161 0.0000 0.0000
# 5 0.0000 0.0000 0.0000 0.0000 34.4489 0.0000
# 6 0.0000 0.0000 0.0000 0.0000 0.0000 8.1178
#
#
#
# Elastic Compliance Matrix: (Units=1/GPa)
#
#
# Indices 1 2 3 4 5 6 
#
# 1 0.013427 -0.003814 -0.002540 0.000000 0.000000 0.000000
# 2 -0.003814 0.009953 -0.002723 0.000000 0.000000 0.000000
# 3 -0.002540 -0.002723 0.011210 0.000000 0.000000 0.000000
# 4 0.000000 0.000000 0.000000 0.044022 0.000000 0.000000
# 5 0.000000 0.000000 0.000000 0.000000 0.029029 0.000000
# 6 0.000000 0.000000 0.000000 0.000000 0.000000 0.123185
#
#
# Mechanical properties :
#
#
# Convention : Reuss Voigt Hill
#
# Bulk Modulus (GPa) = 60.84128 62.63247 61.73687
# Shear Modulus (GPa) = 19.64955 27.10678 23.37816
#
# Velocity S-wave (km/s) = 3.15421 3.70470 3.44048
# Velocity P-wave (km/s) = 6.63858 7.07192 6.85867
#
# Compressibility (1/GPa) = 0.01643621
#
# Stress axis : x y z
#
# Youngs Moduli (GPa) = 74.47654 100.47110 89.20424
#
# Poissons Ratio (x) = 0.38320 0.22655
# Poissons Ratio (y) = 0.28406 0.24294
# Poissons Ratio (z) = 0.18914 0.27362
#
# Static dielectric constant tensor:
#      x y z
#    x 1.768360 0.000000 0.000000 
#    y 0.000000 1.687830 0.000000 
#    z 0.000000 0.000000 1.745550 
# 
# From -- ./inp_files/33047.got.cif
#   From: 2010.05.17/outbox.cif.g08.bks.cpg/sg68_17_cif.got.tgz:33047.got - 2010.06.03 18:57:09.
