data_PCOD9507065
_publ_section_title
;
Structure prediction by ZEFSAII (Michael W. Deem and Ramdas Pophale) SiO2 
 PCOD9507065
Probable space group: C C C A
;
_chemical_formula_sum "Si O2"
_cell_formula_units_Z 96
_cell_length_a 15.810697
_cell_length_b 29.563445
_cell_length_c 8.837528
_cell_angle_alpha 90.000000
_cell_angle_beta 90.000000
_cell_angle_gamma 90.000000
_cell_volume 4130.825594
_symmetry_space_group_name_H-M "C C C A"
_symmetry_group_IT_number 68
_space_group.IT_coordinate_system_code '2'
_symmetry_cell_setting 'orthorhombic'
loop_
_space_group_symop_operation_xyz
x,y,z
-x,1/2-y,z
x,1/2-y,1/2-z
-x,y,1/2-z
-x,-y,-z
x,1/2+y,-z
-x,1/2+y,1/2+z
x,-y,1/2+z
1/2+x,1/2+y,z
1/2-x,-y,z
1/2+x,-y,1/2-z
1/2-x,1/2+y,1/2-z
1/2-x,1/2-y,-z
1/2+x,y,-z
1/2-x,y,1/2+z
1/2+x,1/2-y,1/2+z
loop_
_atom_site_type_symbol
_atom_site_label
_atom_site_fract_x
_atom_site_fract_y
_atom_site_fract_z
Si Si1 0.847053 0.252380 0.566493
Si Si2 0.358444 0.995955 0.749804
Si Si3 0.685070 0.161391 0.602004
Si Si4 0.947071 0.938507 0.992585
Si Si5 0.133877 0.839018 0.544441
Si Si6 0.648959 0.438245 0.992235
O O1 0.846844 0.250000 0.750000
O O2 0.750000 0.250000 0.500000
O O3 0.867118 0.300965 0.492402
O O4 0.901775 0.210778 0.498922
O O5 0.411457 0.962261 0.857341
O O6 0.312832 0.961005 0.639495
O O7 0.411640 0.030366 0.642963
O O8 0.314760 0.031575 0.859022
O O9 0.785755 0.161819 0.569546
O O10 0.664611 0.163494 0.780556
O O11 0.663185 0.113408 0.533166
O O12 0.917298 0.885974 0.976339
O O13 0.047611 0.942687 0.994459
#
# Coordination Sequence:
#
# PCOD9507065 Si02
#       6
#    16  16  16  16  16  16
#     4  10  20  38  63  84 113 153 194 232 286 357
#     4  10  21  38  61  86 117 158 201 238 281 346
#     4  11  23  39  61  88 120 152 191 240 292 348
#     4  11  21  38  63  88 115 155 201 241 284 338
#     4  11  23  39  61  88 120 152 191 240 292 348
#     4  11  21  38  63  88 115 155 201 241 284 338
#
# _framework density 23.239906999999999
#
# number of rings (size 3 to 8) (size 9 to 14) (size 15 to 20)
#    0.000    1.333    1.667    8.500    4.667    0.000 
#    0.000    5.833    0.000    3.000    0.000    0.000 
#    0.000    0.000    0.000    0.000    0.000    0.000 
#
# Total GULP energy -268021.592950 kJ/mol
# GULP energy per Si atom -5583.783186 kJ/mol
# Density = 2.318701 g / cm^3
# Si number density = 23.239907 Si / 1000 Ang^3
#
#
#
# Elastic Constant Matrix: (Units=GPa)
#
#
# Indices 1 2 3 4 5 6 
#
# 1 48.1077 29.6101 29.0199 0.0000 0.0000 0.0000
# 2 29.6101 250.6295 83.9446 0.0000 0.0000 0.0000
# 3 29.0199 83.9446 155.7584 0.0000 0.0000 0.0000
# 4 0.0000 0.0000 0.0000 -3.6228 0.0000 0.0000
# 5 0.0000 0.0000 0.0000 0.0000 34.6408 0.0000
# 6 0.0000 0.0000 0.0000 0.0000 0.0000 23.0602
#
#
#
# Elastic Compliance Matrix: (Units=1/GPa)
#
#
# Indices 1 2 3 4 5 6 
#
# 1 0.023952 -0.001629 -0.003585 0.000000 0.000000 0.000000
# 2 -0.001629 0.004980 -0.002380 0.000000 0.000000 0.000000
# 3 -0.003585 -0.002380 0.008371 0.000000 0.000000 0.000000
# 4 0.000000 0.000000 0.000000 -0.276030 0.000000 0.000000
# 5 0.000000 0.000000 0.000000 0.000000 0.028868 0.000000
# 6 0.000000 0.000000 0.000000 0.000000 0.000000 0.043365
#
#
# Mechanical properties :
#
#
# Convention : Reuss Voigt Hill
#
# Bulk Modulus (GPa) = 45.21928 82.18275 63.70102
# Shear Modulus (GPa) = -34.73756 31.61039 -1.56359
#
# Velocity S-wave (km/s) = -3.87038 3.69206 -0.82113
# Velocity P-wave (km/s) = 0.68794 7.32220 5.15467
#
# Compressibility (1/GPa) = 0.02211446
#
# Stress axis : x y z
#
# Youngs Moduli (GPa) = 41.75068 200.81779 119.46247
#
# Poissons Ratio (x) = 0.32716 0.42821
# Poissons Ratio (y) = 0.06802 0.28434
# Poissons Ratio (z) = 0.14966 0.47799
#
# Static dielectric constant tensor:
#      x y z
#    x 1.988800 0.000000 0.000000 
#    y 0.000000 2.027860 0.000000 
#    z 0.000000 0.000000 1.874690 
# 
# From -- ./inp_files/7309.got.cif
#   From: 2010.05.17/outbox.cif.g08.bks.cpg/sg68_4_cif.got.tgz:7309.got - 2010.06.03 18:57:09.
