data_PCOD9507683
_publ_section_title
;
Structure prediction by ZEFSAII (Michael W. Deem and Ramdas Pophale) SiO2 
 PCOD9507683
Probable space group: C C C A
;
_chemical_formula_sum "Si O2"
_cell_formula_units_Z 116
_cell_length_a 24.133228
_cell_length_b 18.249335
_cell_length_c 13.457085
_cell_angle_alpha 90.000000
_cell_angle_beta 90.000000
_cell_angle_gamma 90.000000
_cell_volume 5926.706967
_symmetry_space_group_name_H-M "C C C A"
_symmetry_group_IT_number 68
_space_group.IT_coordinate_system_code '2'
_symmetry_cell_setting 'orthorhombic'
loop_
_space_group_symop_operation_xyz
x,y,z
-x,1/2-y,z
x,1/2-y,1/2-z
-x,y,1/2-z
-x,-y,-z
x,1/2+y,-z
-x,1/2+y,1/2+z
x,-y,1/2+z
1/2+x,1/2+y,z
1/2-x,-y,z
1/2+x,-y,1/2-z
1/2-x,1/2+y,1/2-z
1/2-x,1/2-y,-z
1/2+x,y,-z
1/2-x,y,1/2+z
1/2+x,1/2-y,1/2+z
loop_
_atom_site_type_symbol
_atom_site_label
_atom_site_fract_x
_atom_site_fract_y
_atom_site_fract_z
Si Si1 0.500000 0.750000 0.750000
Si Si2 0.099605 0.321371 0.630105
Si Si3 0.696325 0.628740 0.726469
Si Si4 0.185017 0.171716 0.301219
Si Si5 0.138015 0.478731 0.282774
Si Si6 0.432101 0.445154 0.431080
Si Si7 0.449221 0.968956 0.879110
Si Si8 0.349031 0.815967 0.532175
O O1 0.542770 0.792847 0.679006
O O2 0.142455 0.337323 0.719667
O O3 0.083381 0.398069 0.580987
O O4 0.129219 0.264915 0.556846
O O5 0.749971 0.654853 0.785409
O O6 0.685895 0.540948 0.728466
O O7 0.697082 0.659403 0.613507
O O8 0.172065 0.250000 0.250000
O O9 0.156128 0.102635 0.245833
O O10 0.169059 0.173669 0.418136
O O11 0.111545 0.495332 0.389872
O O12 0.088049 0.502231 0.210079
O O13 0.450464 0.467025 0.540533
O O14 0.487229 0.445262 0.364658
O O15 0.399974 0.369280 0.438572
#
# Coordination Sequence:
#
# PCOD9507683 Si02
#       8
#     4  16  16  16  16  16  16  16
#     4  12  20  36  64 100 130 152 202 284 342 356
#     4  11  22  35  64  96 125 153 203 270 329 377
#     4  10  23  44  64  91 122 161 216 270 314 369
#     4  12  26  42  64  89 131 178 209 257 323 386
#     4  10  22  42  63  91 128 159 217 263 314 375
#     4  10  21  39  64  89 123 165 206 262 309 381
#     4  10  21  37  63  92 119 163 211 254 321 377
#     4  11  22  43  62  94 130 159 212 267 319 392
#
# _framework density 19.572420000000001
#
# number of rings (size 3 to 8) (size 9 to 14) (size 15 to 20)
#    0.000    1.379    2.759    2.483    5.793    2.207 
#    2.483    1.379    0.000    1.655    0.000    0.000 
#    0.000    0.000    0.000    0.000    0.000    0.000 
#
# Total GULP energy -323540.145619 kJ/mol
# GULP energy per Si atom -5578.278373 kJ/mol
# Density = 1.952787 g / cm^3
# Si number density = 19.572420 Si / 1000 Ang^3
#
#
#
# Elastic Constant Matrix: (Units=GPa)
#
#
# Indices 1 2 3 4 5 6 
#
# 1 98.2413 39.8615 31.4589 0.0000 0.0000 0.0000
# 2 39.8615 123.5153 32.6042 0.0000 0.0000 0.0000
# 3 31.4589 32.6042 59.0613 0.0000 0.0000 0.0000
# 4 0.0000 0.0000 0.0000 25.5292 0.0000 0.0000
# 5 0.0000 0.0000 0.0000 0.0000 18.8117 0.0000
# 6 0.0000 0.0000 0.0000 0.0000 0.0000 23.9347
#
#
#
# Elastic Compliance Matrix: (Units=1/GPa)
#
#
# Indices 1 2 3 4 5 6 
#
# 1 0.013040 -0.002780 -0.005411 0.000000 0.000000 0.000000
# 2 -0.002780 0.010070 -0.004078 0.000000 0.000000 0.000000
# 3 -0.005411 -0.004078 0.022065 0.000000 0.000000 0.000000
# 4 0.000000 0.000000 0.000000 0.039171 0.000000 0.000000
# 5 0.000000 0.000000 0.000000 0.000000 0.053158 0.000000
# 6 0.000000 0.000000 0.000000 0.000000 0.000000 0.041780
#
#
# Mechanical properties :
#
#
# Convention : Reuss Voigt Hill
#
# Bulk Modulus (GPa) = 48.45811 54.29633 51.37722
# Shear Modulus (GPa) = 23.73030 25.44801 24.58916
#
# Velocity S-wave (km/s) = 3.48578 3.60974 3.54830
# Velocity P-wave (km/s) = 6.40414 6.72124 6.56461
#
# Compressibility (1/GPa) = 0.02063638
#
# Stress axis : x y z
#
# Youngs Moduli (GPa) = 76.68912 99.30647 45.32054
#
# Poissons Ratio (x) = 0.27606 0.24523
# Poissons Ratio (y) = 0.21319 0.18483
# Poissons Ratio (z) = 0.41496 0.40500
#
# Static dielectric constant tensor:
#      x y z
#    x 1.693770 0.000000 0.000000 
#    y 0.000000 1.704550 0.000000 
#    z 0.000000 0.000000 1.680480 
# 
# From -- ./inp_files/25618.got.cif
#   From: 2010.05.17/outbox.cif.g08.bks.cpg/sg68_13_cif.got.tgz:25618.got - 2010.06.03 18:57:09.
