data_PCOD9507642
_publ_section_title
;
Structure prediction by ZEFSAII (Michael W. Deem and Ramdas Pophale) SiO2 
 PCOD9507642
Probable space group: C C C A
;
_chemical_formula_sum "Si O2"
_cell_formula_units_Z 64
_cell_length_a 24.055705
_cell_length_b 8.052457
_cell_length_c 13.729878
_cell_angle_alpha 90.000000
_cell_angle_beta 90.000000
_cell_angle_gamma 90.000000
_cell_volume 2659.580756
_symmetry_space_group_name_H-M "C C C A"
_symmetry_group_IT_number 68
_space_group.IT_coordinate_system_code '2'
_symmetry_cell_setting 'orthorhombic'
loop_
_space_group_symop_operation_xyz
x,y,z
-x,1/2-y,z
x,1/2-y,1/2-z
-x,y,1/2-z
-x,-y,-z
x,1/2+y,-z
-x,1/2+y,1/2+z
x,-y,1/2+z
1/2+x,1/2+y,z
1/2-x,-y,z
1/2+x,-y,1/2-z
1/2-x,1/2+y,1/2-z
1/2-x,1/2-y,-z
1/2+x,y,-z
1/2-x,y,1/2+z
1/2+x,1/2-y,1/2+z
loop_
_atom_site_type_symbol
_atom_site_label
_atom_site_fract_x
_atom_site_fract_y
_atom_site_fract_z
Si Si1 0.000000 0.495929 0.750000
Si Si2 0.378222 0.732817 0.984954
Si Si3 0.685423 0.473405 0.875153
Si Si4 0.384016 0.941236 0.709249
Si Si5 0.500000 0.250000 0.066588
O O1 0.936340 0.554409 0.741216
O O2 0.998489 0.399846 0.854885
O O3 0.349519 0.881486 0.927316
O O4 0.376691 0.582659 0.905084
O O5 0.444292 0.756963 0.996922
O O6 0.341835 0.688969 0.078070
O O7 0.750000 0.500000 0.893735
O O8 0.670500 0.493944 0.762280
O O9 0.396573 0.750000 0.750000
#
# Coordination Sequence:
#
# PCOD9507642 Si02
#       5
#     8  16  16  16   8
#     4   9  10  28  56  80  99 131 200 232 261 329
#     4  10  21  37  59  87 114 150 194 240 286 334
#     4  11  22  37  56  86 118 155 192 231 280 351
#     4   9  16  33  56  80 104 149 193 232 275 331
#     4   9  14  30  58  84 107 138 192 241 276 332
#
# _framework density 24.063943999999999
#
# number of rings (size 3 to 8) (size 9 to 14) (size 15 to 20)
#    0.000    2.250    7.500    0.750    0.000    2.000 
#    0.000    3.750    0.000    0.000    0.000    0.000 
#    0.000    0.000    0.000    0.000    0.000    0.000 
#
# Total GULP energy -178446.748797 kJ/mol
# GULP energy per Si atom -5576.460900 kJ/mol
# Density = 2.400917 g / cm^3
# Si number density = 24.063944 Si / 1000 Ang^3
#
#
#
# Elastic Constant Matrix: (Units=GPa)
#
#
# Indices 1 2 3 4 5 6 
#
# 1 160.3986 12.4946 29.8846 0.0000 0.0000 0.0000
# 2 12.4946 44.4270 4.6578 0.0000 0.0000 0.0000
# 3 29.8846 4.6578 60.2079 0.0000 0.0000 0.0000
# 4 0.0000 0.0000 0.0000 17.7018 0.0000 0.0000
# 5 0.0000 0.0000 0.0000 0.0000 -13.2052 0.0000
# 6 0.0000 0.0000 0.0000 0.0000 0.0000 8.7153
#
#
#
# Elastic Compliance Matrix: (Units=1/GPa)
#
#
# Indices 1 2 3 4 5 6 
#
# 1 0.006983 -0.001614 -0.003341 0.000000 0.000000 0.000000
# 2 -0.001614 0.023066 -0.000984 0.000000 0.000000 0.000000
# 3 -0.003341 -0.000984 0.018344 0.000000 0.000000 0.000000
# 4 0.000000 0.000000 0.000000 0.056491 0.000000 0.000000
# 5 0.000000 0.000000 0.000000 0.000000 -0.075728 0.000000
# 6 0.000000 0.000000 0.000000 0.000000 0.000000 0.114740
#
#
# Mechanical properties :
#
#
# Convention : Reuss Voigt Hill
#
# Bulk Modulus (GPa) = 27.38543 39.90082 33.64313
# Shear Modulus (GPa) = 29.77182 17.17550 23.47366
#
# Velocity S-wave (km/s) = 3.52120 2.67450 3.12664
# Velocity P-wave (km/s) = 5.28552 5.11414 5.20054
#
# Compressibility (1/GPa) = 0.03651577
#
# Stress axis : x y z
#
# Youngs Moduli (GPa) = 143.21227 43.35436 54.51506
#
# Poissons Ratio (x) = 0.06995 0.18214
# Poissons Ratio (y) = 0.23107 0.05362
# Poissons Ratio (z) = 0.47848 0.04264
#
# Static dielectric constant tensor:
#      x y z
#    x 1.862010 0.000000 0.000000 
#    y 0.000000 2.343930 0.000000 
#    z 0.000000 0.000000 1.917630 
# 
# From -- ./inp_files/33388.got.cif
#   From: 2010.05.17/outbox.cif.g08.bks.cpg/sg68_17_cif.got.tgz:33388.got - 2010.06.03 18:57:09.
