data_PCOD9507289
_publ_section_title
;
Structure prediction by ZEFSAII (Michael W. Deem and Ramdas Pophale) SiO2 
 PCOD9507289
Probable space group: C C C A
;
_chemical_formula_sum "Si O2"
_cell_formula_units_Z 72
_cell_length_a 22.651742
_cell_length_b 8.541008
_cell_length_c 16.660907
_cell_angle_alpha 90.000000
_cell_angle_beta 90.000000
_cell_angle_gamma 90.000000
_cell_volume 3223.364179
_symmetry_space_group_name_H-M "C C C A"
_symmetry_group_IT_number 68
_space_group.IT_coordinate_system_code '2'
_symmetry_cell_setting 'orthorhombic'
loop_
_space_group_symop_operation_xyz
x,y,z
-x,1/2-y,z
x,1/2-y,1/2-z
-x,y,1/2-z
-x,-y,-z
x,1/2+y,-z
-x,1/2+y,1/2+z
x,-y,1/2+z
1/2+x,1/2+y,z
1/2-x,-y,z
1/2+x,-y,1/2-z
1/2-x,1/2+y,1/2-z
1/2-x,1/2-y,-z
1/2+x,y,-z
1/2-x,y,1/2+z
1/2+x,1/2-y,1/2+z
loop_
_atom_site_type_symbol
_atom_site_label
_atom_site_fract_x
_atom_site_fract_y
_atom_site_fract_z
Si Si1 0.250000 0.000000 0.235451
Si Si2 0.062669 0.197486 0.612420
Si Si3 0.060437 0.660836 0.940367
Si Si4 0.842911 0.750000 0.250000
Si Si5 0.687127 0.295467 0.601911
Si Si6 0.750000 0.500000 0.970141
O O1 0.198803 0.895466 0.274462
O O2 0.284691 0.877319 0.178667
O O3 0.072189 0.306556 0.534561
O O4 0.115796 0.206033 0.675055
O O5 0.000000 0.250000 0.649057
O O6 0.056081 0.022060 0.578759
O O7 0.117267 0.723594 0.893130
O O8 0.000000 0.750000 0.920119
O O9 0.717841 0.132805 0.580554
O O10 0.703274 0.413166 0.528495
#
# Coordination Sequence:
#
# PCOD9507289 Si02
#       6
#     8  16  16   8  16   8
#     4  11  26  49  66  96 141 187 246 290 365 447
#     4  11  24  46  76 106 146 191 240 299 362 428
#     4  11  22  42  73 112 144 181 243 301 353 425
#     4  12  27  52  70 102 147 194 240 298 370 446
#     4  10  20  40  65 104 137 182 232 293 354 423
#     4   9  20  31  66 102 135 175 230 288 355 413
#
# _framework density 22.336912000000002
#
# number of rings (size 3 to 8) (size 9 to 14) (size 15 to 20)
#    0.000    1.333    2.222    4.333    6.222    0.889 
#    8.000    0.000    0.000    5.333    0.000    0.000 
#    0.000    0.000    0.000    0.000    0.000    0.000 
#
# Total GULP energy -201604.232361 kJ/mol
# GULP energy per Si atom -5600.117566 kJ/mol
# Density = 2.228607 g / cm^3
# Si number density = 22.336912 Si / 1000 Ang^3
#
#
#
# Elastic Constant Matrix: (Units=GPa)
#
#
# Indices 1 2 3 4 5 6 
#
# 1 172.1454 63.1300 56.6067 0.0000 0.0000 0.0000
# 2 63.1300 162.9927 65.5505 0.0000 0.0000 0.0000
# 3 56.6067 65.5505 68.0497 0.0000 0.0000 0.0000
# 4 0.0000 0.0000 0.0000 29.9860 0.0000 0.0000
# 5 0.0000 0.0000 0.0000 0.0000 14.6523 0.0000
# 6 0.0000 0.0000 0.0000 0.0000 0.0000 30.7087
#
#
#
# Elastic Compliance Matrix: (Units=1/GPa)
#
#
# Indices 1 2 3 4 5 6 
#
# 1 0.008044 -0.000693 -0.006024 0.000000 0.000000 0.000000
# 2 -0.000693 0.010075 -0.009128 0.000000 0.000000 0.000000
# 3 -0.006024 -0.009128 0.028499 0.000000 0.000000 0.000000
# 4 0.000000 0.000000 0.000000 0.033349 0.000000 0.000000
# 5 0.000000 0.000000 0.000000 0.000000 0.068249 0.000000
# 6 0.000000 0.000000 0.000000 0.000000 0.000000 0.032564
#
#
# Mechanical properties :
#
#
# Convention : Reuss Voigt Hill
#
# Bulk Modulus (GPa) = 66.98992 85.97360 76.48176
# Shear Modulus (GPa) = 22.99430 29.59612 26.29521
#
# Velocity S-wave (km/s) = 3.21195 3.64399 3.43477
# Velocity P-wave (km/s) = 6.61901 7.50186 7.07422
#
# Compressibility (1/GPa) = 0.01492762
#
# Stress axis : x y z
#
# Youngs Moduli (GPa) = 124.31646 99.25785 35.08895
#
# Poissons Ratio (x) = 0.06879 0.21137
# Poissons Ratio (y) = 0.08615 0.32030
# Poissons Ratio (z) = 0.74885 0.90605
#
# Static dielectric constant tensor:
#      x y z
#    x 1.827330 0.000000 0.000000 
#    y 0.000000 1.804450 0.000000 
#    z 0.000000 0.000000 1.832910 
# 
# From -- ./inp_files/33456.got.cif
#   From: 2010.05.17/outbox.cif.g08.bks.cpg/sg68_17_cif.got.tgz:33456.got - 2010.06.03 18:57:09.
