data_PCOD9507851
_publ_section_title
;
Structure prediction by ZEFSAII (Michael W. Deem and Ramdas Pophale) SiO2 
 PCOD9507851
Probable space group: C C C A
;
_chemical_formula_sum "Si O2"
_cell_formula_units_Z 64
_cell_length_a 9.059247
_cell_length_b 17.308139
_cell_length_c 17.559561
_cell_angle_alpha 90.000000
_cell_angle_beta 90.000000
_cell_angle_gamma 90.000000
_cell_volume 2753.316448
_symmetry_space_group_name_H-M "C C C A"
_symmetry_group_IT_number 68
_space_group.IT_coordinate_system_code '2'
_symmetry_cell_setting 'orthorhombic'
loop_
_space_group_symop_operation_xyz
x,y,z
-x,1/2-y,z
x,1/2-y,1/2-z
-x,y,1/2-z
-x,-y,-z
x,1/2+y,-z
-x,1/2+y,1/2+z
x,-y,1/2+z
1/2+x,1/2+y,z
1/2-x,-y,z
1/2+x,-y,1/2-z
1/2-x,1/2+y,1/2-z
1/2-x,1/2-y,-z
1/2+x,y,-z
1/2-x,y,1/2+z
1/2+x,1/2-y,1/2+z
loop_
_atom_site_type_symbol
_atom_site_label
_atom_site_fract_x
_atom_site_fract_y
_atom_site_fract_z
Si Si1 0.507666 0.868350 0.494275
Si Si2 0.828186 0.926215 0.273231
Si Si3 0.768368 0.296735 0.603011
Si Si4 0.252272 0.888129 0.392247
O O1 0.619744 0.826374 0.437083
O O2 0.397809 0.814647 0.543037
O O3 0.394690 0.912947 0.440011
O O4 0.609098 0.909164 0.557449
O O5 0.805336 0.849499 0.323944
O O6 0.745568 0.917276 0.192967
O O7 0.000000 0.935975 0.250000
O O8 0.750000 0.000000 0.312913
O O9 0.755696 0.205587 0.615612
#
# Coordination Sequence:
#
# PCOD9507851 Si02
#       4
#    16  16  16  16
#     4  10  21  38  69 106 131 156 205 272 325 374
#     4  12  29  47  62  88 132 177 216 261 313 379
#     4  11  21  41  71 100 128 163 211 265 321 376
#     4  11  21  41  71 100 128 163 211 265 321 376
#
# _framework density 23.244695
#
# number of rings (size 3 to 8) (size 9 to 14) (size 15 to 20)
#    0.000    1.000    2.500    6.750    3.500    1.000 
#    0.000   10.000    0.000    0.000    0.000    0.000 
#    0.000    0.000    0.000    0.000    0.000    0.000 
#
# Total GULP energy -179021.358595 kJ/mol
# GULP energy per Si atom -5594.417456 kJ/mol
# Density = 2.319179 g / cm^3
# Si number density = 23.244695 Si / 1000 Ang^3
#
#
#
# Elastic Constant Matrix: (Units=GPa)
#
#
# Indices 1 2 3 4 5 6 
#
# 1 116.0795 25.3364 19.1931 0.0000 0.0000 0.0000
# 2 25.3364 146.0043 31.0858 0.0000 0.0000 0.0000
# 3 19.1931 31.0858 108.4364 0.0000 0.0000 0.0000
# 4 0.0000 0.0000 0.0000 -39.8796 0.0000 0.0000
# 5 0.0000 0.0000 0.0000 0.0000 14.7941 0.0000
# 6 0.0000 0.0000 0.0000 0.0000 0.0000 -2.0624
#
#
#
# Elastic Compliance Matrix: (Units=1/GPa)
#
#
# Indices 1 2 3 4 5 6 
#
# 1 0.009106 -0.001317 -0.001234 0.000000 0.000000 0.000000
# 2 -0.001317 0.007485 -0.001913 0.000000 0.000000 0.000000
# 3 -0.001234 -0.001913 0.009989 0.000000 0.000000 0.000000
# 4 0.000000 0.000000 0.000000 -0.025075 0.000000 0.000000
# 5 0.000000 0.000000 0.000000 0.000000 0.067595 0.000000
# 6 0.000000 0.000000 0.000000 0.000000 0.000000 -0.484868
#
#
# Mechanical properties :
#
#
# Convention : Reuss Voigt Hill
#
# Bulk Modulus (GPa) = 56.65166 57.97231 57.31199
# Shear Modulus (GPa) = -12.47017 14.23074 0.88029
#
# Velocity S-wave (km/s) = -2.31870 2.47698 0.61606
# Velocity P-wave (km/s) = 4.15407 5.75975 5.02150
#
# Compressibility (1/GPa) = 0.01765173
#
# Stress axis : x y z
#
# Youngs Moduli (GPa) = 109.81279 133.60161 100.11301
#
# Poissons Ratio (x) = 0.17602 0.12355
# Poissons Ratio (y) = 0.14468 0.19147
# Poissons Ratio (z) = 0.13552 0.25552
#
# Static dielectric constant tensor:
#      x y z
#    x 1.878110 0.000000 0.000000 
#    y 0.000000 1.919720 0.000000 
#    z 0.000000 0.000000 1.838010 
# 
# From -- ./inp_files/5808.got.cif
#   From: 2010.05.17/outbox.cif.g08.bks.cpg/sg68_3_cif.got.tgz:5808.got - 2010.06.03 18:57:09.
