data_PCOD9507132
_publ_section_title
;
Structure prediction by ZEFSAII (Michael W. Deem and Ramdas Pophale) SiO2 
 PCOD9507132
Probable space group: C C C A
;
_chemical_formula_sum "Si O2"
_cell_formula_units_Z 48
_cell_length_a 9.076222
_cell_length_b 11.856679
_cell_length_c 19.102878
_cell_angle_alpha 90.000000
_cell_angle_beta 90.000000
_cell_angle_gamma 90.000000
_cell_volume 2055.734263
_symmetry_space_group_name_H-M "C C C A"
_symmetry_group_IT_number 68
_space_group.IT_coordinate_system_code '2'
_symmetry_cell_setting 'orthorhombic'
loop_
_space_group_symop_operation_xyz
x,y,z
-x,1/2-y,z
x,1/2-y,1/2-z
-x,y,1/2-z
-x,-y,-z
x,1/2+y,-z
-x,1/2+y,1/2+z
x,-y,1/2+z
1/2+x,1/2+y,z
1/2-x,-y,z
1/2+x,-y,1/2-z
1/2-x,1/2+y,1/2-z
1/2-x,1/2-y,-z
1/2+x,y,-z
1/2-x,y,1/2+z
1/2+x,1/2-y,1/2+z
loop_
_atom_site_type_symbol
_atom_site_label
_atom_site_fract_x
_atom_site_fract_y
_atom_site_fract_z
Si Si1 0.282140 0.250327 0.083649
Si Si2 0.474928 0.945443 0.924217
Si Si3 0.881400 0.404952 0.189319
O O1 0.409929 0.156540 0.085089
O O2 0.324806 0.380704 0.092924
O O3 0.183350 0.204377 0.148004
O O4 0.250000 0.250000 0.000000
O O5 0.520681 0.037914 0.870147
O O6 0.500000 0.000000 0.000000
O O7 0.750000 0.500000 0.206037
O O8 0.000000 0.383839 0.250000
#
# Coordination Sequence:
#
# PCOD9507132 Si02
#       3
#    16  16  16
#     4  10  20  38  69 106 135 181 254 304 362 459
#     4  10  20  38  69 101 140 187 239 311 374 438
#     4  10  22  44  69 100 149 198 242 308 392 458
#
# _framework density 23.349322000000001
#
# number of rings (size 3 to 8) (size 9 to 14) (size 15 to 20)
#    0.000    2.000    3.333    0.000    0.000    0.000 
#    6.000   13.333   14.667    0.000    0.000    0.000 
#    0.000    0.000    0.000    0.000    0.000    0.000 
#
# Total GULP energy -133706.630289 kJ/mol
# GULP energy per Si atom -5571.109595 kJ/mol
# Density = 2.329618 g / cm^3
# Si number density = 23.349322 Si / 1000 Ang^3
#
#
#
# Elastic Constant Matrix: (Units=GPa)
#
#
# Indices 1 2 3 4 5 6 
#
# 1 100.7110 65.6231 83.5761 0.0000 0.0000 0.0000
# 2 65.6231 153.1887 71.8404 0.0000 0.0000 0.0000
# 3 83.5761 71.8404 185.9726 0.0000 0.0000 0.0000
# 4 0.0000 0.0000 0.0000 33.8441 0.0000 0.0000
# 5 0.0000 0.0000 0.0000 0.0000 47.8688 0.0000
# 6 0.0000 0.0000 0.0000 0.0000 0.0000 40.5208
#
#
#
# Elastic Compliance Matrix: (Units=1/GPa)
#
#
# Indices 1 2 3 4 5 6 
#
# 1 0.018419 -0.004895 -0.006386 0.000000 0.000000 0.000000
# 2 -0.004895 0.009273 -0.001382 0.000000 0.000000 0.000000
# 3 -0.006386 -0.001382 0.008781 0.000000 0.000000 0.000000
# 4 0.000000 0.000000 0.000000 0.029547 0.000000 0.000000
# 5 0.000000 0.000000 0.000000 0.000000 0.020890 0.000000
# 6 0.000000 0.000000 0.000000 0.000000 0.000000 0.024679
#
#
# Mechanical properties :
#
#
# Convention : Reuss Voigt Hill
#
# Bulk Modulus (GPa) = 89.72362 97.99464 93.85913
# Shear Modulus (GPa) = 35.55354 39.03560 37.29457
#
# Velocity S-wave (km/s) = 3.90639 4.09321 4.00089
# Velocity P-wave (km/s) = 7.67180 8.02491 7.85034
#
# Compressibility (1/GPa) = 0.01114534
#
# Stress axis : x y z
#
# Youngs Moduli (GPa) = 54.29150 107.83788 113.87997
#
# Poissons Ratio (x) = 0.52790 0.72729
# Poissons Ratio (y) = 0.26577 0.15741
# Poissons Ratio (z) = 0.34673 0.14906
#
# Static dielectric constant tensor:
#      x y z
#    x 2.170630 0.000000 0.000000 
#    y 0.000000 1.853470 0.000000 
#    z 0.000000 0.000000 1.820580 
# 
# From -- ./inp_files/28799.got.cif
#   From: 2010.05.17/outbox.cif.g08.bks.cpg/sg68_15_cif.got.tgz:28799.got - 2010.06.03 18:57:09.
