data_PCOD9507175
_publ_section_title
;
Structure prediction by ZEFSAII (Michael W. Deem and Ramdas Pophale) SiO2 
 PCOD9507175
Probable space group: C C C A
;
_chemical_formula_sum "Si O2"
_cell_formula_units_Z 112
_cell_length_a 10.489265
_cell_length_b 32.593430
_cell_length_c 14.001231
_cell_angle_alpha 90.000000
_cell_angle_beta 90.000000
_cell_angle_gamma 90.000000
_cell_volume 4786.756599
_symmetry_space_group_name_H-M "C C C A"
_symmetry_group_IT_number 68
_space_group.IT_coordinate_system_code '2'
_symmetry_cell_setting 'orthorhombic'
loop_
_space_group_symop_operation_xyz
x,y,z
-x,1/2-y,z
x,1/2-y,1/2-z
-x,y,1/2-z
-x,-y,-z
x,1/2+y,-z
-x,1/2+y,1/2+z
x,-y,1/2+z
1/2+x,1/2+y,z
1/2-x,-y,z
1/2+x,-y,1/2-z
1/2-x,1/2+y,1/2-z
1/2-x,1/2-y,-z
1/2+x,y,-z
1/2-x,y,1/2+z
1/2+x,1/2-y,1/2+z
loop_
_atom_site_type_symbol
_atom_site_label
_atom_site_fract_x
_atom_site_fract_y
_atom_site_fract_z
Si Si1 0.887110 0.486778 0.173818
Si Si2 0.912203 0.907107 0.949447
Si Si3 0.284554 0.361966 0.336473
Si Si4 0.986884 0.070265 0.864381
Si Si5 0.391025 0.628256 0.171445
Si Si6 0.631316 0.727687 0.623435
Si Si7 0.619023 0.721392 0.394593
O O1 0.750000 0.500000 0.217602
O O2 0.867973 0.446155 0.111801
O O3 0.932337 0.525413 0.109946
O O4 0.000000 0.478855 0.250000
O O5 0.830817 0.867921 0.912986
O O6 0.059199 0.898255 0.917421
O O7 0.903474 0.918097 0.060549
O O8 0.391652 0.391994 0.373493
O O9 0.236564 0.377745 0.232873
O O10 0.336354 0.316001 0.330019
O O11 0.000000 0.066708 0.750000
O O12 0.500000 0.620489 0.250000
O O13 0.393791 0.675857 0.144236
O O14 0.500000 0.750000 0.649555
O O15 0.622749 0.719238 0.509640
O O16 0.750237 0.757767 0.638432
O O17 0.500000 0.750000 0.367165
#
# Coordination Sequence:
#
# PCOD9507175 Si02
#       7
#    16  16  16  16  16  16  16
#     4  11  23  47  76 113 150 188 238 296 352 430
#     4  11  23  45  71  99 141 193 240 291 359 423
#     4  11  23  42  64  98 139 183 241 290 357 432
#     4  11  26  43  66 104 140 184 238 296 354 431
#     4  10  22  38  67  96 125 177 236 289 339 415
#     4  10  23  39  62  93 136 178 221 288 355 416
#     4  10  20  39  63  92 123 174 237 280 338 416
#
# _framework density 23.397888999999999
#
# number of rings (size 3 to 8) (size 9 to 14) (size 15 to 20)
#    0.000    1.429    1.429    4.286    0.000    7.714 
#    2.571    1.429    0.000    0.000    0.000    0.000 
#    0.000    0.000    0.000    0.286    0.000    0.000 
#
# Total GULP energy -313005.213820 kJ/mol
# GULP energy per Si atom -5589.378818 kJ/mol
# Density = 2.334463 g / cm^3
# Si number density = 23.397889 Si / 1000 Ang^3
#
#
#
# Elastic Constant Matrix: (Units=GPa)
#
#
# Indices 1 2 3 4 5 6 
#
# 1 107.4489 30.1499 24.8632 0.0000 0.0000 0.0000
# 2 30.1499 109.4772 26.4052 0.0000 0.0000 0.0000
# 3 24.8632 26.4052 112.9610 0.0000 0.0000 0.0000
# 4 0.0000 0.0000 0.0000 78.9262 0.0000 0.0000
# 5 0.0000 0.0000 0.0000 0.0000 -3.1444 0.0000
# 6 0.0000 0.0000 0.0000 0.0000 0.0000 33.8078
#
#
#
# Elastic Compliance Matrix: (Units=1/GPa)
#
#
# Indices 1 2 3 4 5 6 
#
# 1 0.010390 -0.002448 -0.001715 0.000000 0.000000 0.000000
# 2 -0.002448 0.010257 -0.001859 0.000000 0.000000 0.000000
# 3 -0.001715 -0.001859 0.009665 0.000000 0.000000 0.000000
# 4 0.000000 0.000000 0.000000 0.012670 0.000000 0.000000
# 5 0.000000 0.000000 0.000000 0.000000 -0.318026 0.000000
# 6 0.000000 0.000000 0.000000 0.000000 0.000000 0.029579
#
#
# Mechanical properties :
#
#
# Convention : Reuss Voigt Hill
#
# Bulk Modulus (GPa) = 54.73804 54.74708 54.74256
# Shear Modulus (GPa) = -21.99418 38.48250 8.24416
#
# Velocity S-wave (km/s) = -3.06928 4.05989 1.87913
# Velocity P-wave (km/s) = 3.29918 6.73988 5.30616
#
# Compressibility (1/GPa) = 0.01826883
#
# Stress axis : x y z
#
# Youngs Moduli (GPa) = 96.24250 97.49625 103.47106
#
# Poissons Ratio (x) = 0.23866 0.17743
# Poissons Ratio (y) = 0.23559 0.19233
# Poissons Ratio (z) = 0.16503 0.18122
#
# Static dielectric constant tensor:
#      x y z
#    x 1.942590 0.000000 0.000000 
#    y 0.000000 1.836620 0.000000 
#    z 0.000000 0.000000 1.931390 
# 
# From -- ./inp_files/21254.got.cif
#   From: 2010.05.17/outbox.cif.g08.bks.cpg/sg68_11_cif.got.tgz:21254.got - 2010.06.03 18:57:09.
