data_PCOD9507828
_publ_section_title
;
Structure prediction by ZEFSAII (Michael W. Deem and Ramdas Pophale) SiO2 
 PCOD9507828
Probable space group: C C C A
;
_chemical_formula_sum "Si O2"
_cell_formula_units_Z 64
_cell_length_a 7.284193
_cell_length_b 17.347698
_cell_length_c 20.127349
_cell_angle_alpha 90.000000
_cell_angle_beta 90.000000
_cell_angle_gamma 90.000000
_cell_volume 2543.371933
_symmetry_space_group_name_H-M "C C C A"
_symmetry_group_IT_number 68
_space_group.IT_coordinate_system_code '2'
_symmetry_cell_setting 'orthorhombic'
loop_
_space_group_symop_operation_xyz
x,y,z
-x,1/2-y,z
x,1/2-y,1/2-z
-x,y,1/2-z
-x,-y,-z
x,1/2+y,-z
-x,1/2+y,1/2+z
x,-y,1/2+z
1/2+x,1/2+y,z
1/2-x,-y,z
1/2+x,-y,1/2-z
1/2-x,1/2+y,1/2-z
1/2-x,1/2-y,-z
1/2+x,y,-z
1/2-x,y,1/2+z
1/2+x,1/2-y,1/2+z
loop_
_atom_site_type_symbol
_atom_site_label
_atom_site_fract_x
_atom_site_fract_y
_atom_site_fract_z
Si Si1 0.284088 0.412121 0.754518
Si Si2 0.255513 0.677761 0.628502
Si Si3 0.819330 0.854874 0.894701
Si Si4 0.865416 0.563012 0.469387
O O1 0.500000 0.396793 0.750000
O O2 0.250000 0.500000 0.734255
O O3 0.202048 0.350369 0.703133
O O4 0.241601 0.401971 0.832094
O O5 0.253161 0.768229 0.614964
O O6 0.393320 0.633221 0.579869
O O7 0.044339 0.651410 0.610633
O O8 0.781734 0.895166 0.965112
O O9 0.750000 0.500000 0.427372
O O10 0.000000 0.500000 0.500000
#
# Coordination Sequence:
#
# PCOD9507828 Si02
#       4
#    16  16  16  16
#     4  10  21  38  66  91 122 162 210 261 316 376
#     4  10  21  39  63  91 127 164 210 262 313 380
#     4  10  21  39  62  93 123 167 212 255 317 382
#     4  12  23  39  63  92 127 166 209 259 317 375
#
# _framework density 25.163443000000001
#
# number of rings (size 3 to 8) (size 9 to 14) (size 15 to 20)
#    0.000    1.500    2.500    3.000    3.500    3.000 
#    0.000    0.000    0.000    1.500    0.000    0.000 
#    0.000    0.000    0.000    0.000    0.000    0.000 
#
# Total GULP energy -178711.173790 kJ/mol
# GULP energy per Si atom -5584.724181 kJ/mol
# Density = 2.510617 g / cm^3
# Si number density = 25.163443 Si / 1000 Ang^3
#
#
#
# Elastic Constant Matrix: (Units=GPa)
#
#
# Indices 1 2 3 4 5 6 
#
# 1 48.2691 19.1738 15.9042 0.0000 0.0000 0.0000
# 2 19.1738 190.1368 78.1460 0.0000 0.0000 0.0000
# 3 15.9042 78.1460 189.8354 0.0000 0.0000 0.0000
# 4 0.0000 0.0000 0.0000 53.5083 0.0000 0.0000
# 5 0.0000 0.0000 0.0000 0.0000 32.0940 0.0000
# 6 0.0000 0.0000 0.0000 0.0000 0.0000 46.3526
#
#
#
# Elastic Compliance Matrix: (Units=1/GPa)
#
#
# Indices 1 2 3 4 5 6 
#
# 1 0.021774 -0.001740 -0.001108 0.000000 0.000000 0.000000
# 2 -0.001740 0.006470 -0.002517 0.000000 0.000000 0.000000
# 3 -0.001108 -0.002517 0.006397 0.000000 0.000000 0.000000
# 4 0.000000 0.000000 0.000000 0.018689 0.000000 0.000000
# 5 0.000000 0.000000 0.000000 0.000000 0.031158 0.000000
# 6 0.000000 0.000000 0.000000 0.000000 0.000000 0.021574
#
#
# Mechanical properties :
#
#
# Convention : Reuss Voigt Hill
#
# Bulk Modulus (GPa) = 41.82556 72.74326 57.28441
# Shear Modulus (GPa) = 40.07651 47.39214 43.73432
#
# Velocity S-wave (km/s) = 3.99513 4.34449 4.17347
# Velocity P-wave (km/s) = 6.15947 7.35780 6.78514
#
# Compressibility (1/GPa) = 0.02390882
#
# Stress axis : x y z
#
# Youngs Moduli (GPa) = 45.92735 154.57097 156.32800
#
# Poissons Ratio (x) = 0.26902 0.17317
# Poissons Ratio (y) = 0.07993 0.39354
# Poissons Ratio (z) = 0.05087 0.38911
#
# Static dielectric constant tensor:
#      x y z
#    x 1.882290 0.000000 0.000000 
#    y 0.000000 1.853760 0.000000 
#    z 0.000000 0.000000 1.948660 
# 
# From -- ./inp_files/35749.got.cif
#   From: 2010.05.17/outbox.cif.g08.bks.cpg/sg68_18_cif.got.tgz:35749.got - 2010.06.03 18:57:09.
