data_PCOD9507476
_publ_section_title
;
Structure prediction by ZEFSAII (Michael W. Deem and Ramdas Pophale) SiO2 
 PCOD9507476
Probable space group: C C C A
;
_chemical_formula_sum "Si O2"
_cell_formula_units_Z 80
_cell_length_a 24.124496
_cell_length_b 15.224946
_cell_length_c 11.357671
_cell_angle_alpha 90.000000
_cell_angle_beta 90.000000
_cell_angle_gamma 90.000000
_cell_volume 4171.606103
_symmetry_space_group_name_H-M "C C C A"
_symmetry_group_IT_number 68
_space_group.IT_coordinate_system_code '2'
_symmetry_cell_setting 'orthorhombic'
loop_
_space_group_symop_operation_xyz
x,y,z
-x,1/2-y,z
x,1/2-y,1/2-z
-x,y,1/2-z
-x,-y,-z
x,1/2+y,-z
-x,1/2+y,1/2+z
x,-y,1/2+z
1/2+x,1/2+y,z
1/2-x,-y,z
1/2+x,-y,1/2-z
1/2-x,1/2+y,1/2-z
1/2-x,1/2-y,-z
1/2+x,y,-z
1/2-x,y,1/2+z
1/2+x,1/2-y,1/2+z
loop_
_atom_site_type_symbol
_atom_site_label
_atom_site_fract_x
_atom_site_fract_y
_atom_site_fract_z
Si Si1 0.233330 0.403595 0.800783
Si Si2 0.347460 0.074655 0.402820
Si Si3 0.436139 0.147214 0.222304
Si Si4 0.637553 0.116723 0.486833
Si Si5 0.305905 0.722132 0.427678
O O1 0.250000 0.500000 0.844975
O O2 0.209697 0.416324 0.670780
O O3 0.182621 0.373593 0.882064
O O4 0.281657 0.333076 0.817772
O O5 0.396751 0.093829 0.311252
O O6 0.341311 0.150302 0.499500
O O7 0.355752 0.978836 0.457115
O O8 0.426034 0.250000 0.250000
O O9 0.500000 0.127915 0.250000
O O10 0.419082 0.129017 0.086635
O O11 0.654867 0.192751 0.578025
O O12 0.250000 0.750000 0.500000
#
# Coordination Sequence:
#
# PCOD9507476 Si02
#       5
#    16  16  16  16  16
#     4  10  21  33  52  80 118 159 194 232 293 356
#     4  11  22  38  56  85 120 156 202 249 291 375
#     4  10  21  40  65  89 114 152 206 267 316 364
#     4  10  21  38  58  86 116 157 203 248 308 360
#     4  10  21  35  52  81 119 155 195 236 295 355
#
# _framework density 19.177264999999998
#
# number of rings (size 3 to 8) (size 9 to 14) (size 15 to 20)
#    0.000    1.800    4.000    0.000    5.600    0.800 
#    0.000    0.000    0.000    0.000    0.000    1.400 
#    0.000    0.000    0.000    0.000    0.000    0.000 
#
# Total GULP energy -223150.391253 kJ/mol
# GULP energy per Si atom -5578.759781 kJ/mol
# Density = 1.913362 g / cm^3
# Si number density = 19.177265 Si / 1000 Ang^3
#
#
#
# Elastic Constant Matrix: (Units=GPa)
#
#
# Indices 1 2 3 4 5 6 
#
# 1 79.6490 46.1669 42.9231 0.0000 0.0000 0.0000
# 2 46.1669 147.0919 48.0722 0.0000 0.0000 0.0000
# 3 42.9231 48.0722 72.5223 0.0000 0.0000 0.0000
# 4 0.0000 0.0000 0.0000 33.7542 0.0000 0.0000
# 5 0.0000 0.0000 0.0000 0.0000 22.3844 0.0000
# 6 0.0000 0.0000 0.0000 0.0000 0.0000 19.9329
#
#
#
# Elastic Compliance Matrix: (Units=1/GPa)
#
#
# Indices 1 2 3 4 5 6 
#
# 1 0.019410 -0.002984 -0.009510 0.000000 0.000000 0.000000
# 2 -0.002984 0.009137 -0.004291 0.000000 0.000000 0.000000
# 3 -0.009510 -0.004291 0.022261 0.000000 0.000000 0.000000
# 4 0.000000 0.000000 0.000000 0.029626 0.000000 0.000000
# 5 0.000000 0.000000 0.000000 0.000000 0.044674 0.000000
# 6 0.000000 0.000000 0.000000 0.000000 0.000000 0.050168
#
#
# Mechanical properties :
#
#
# Convention : Reuss Voigt Hill
#
# Bulk Modulus (GPa) = 58.00654 63.73196 60.86925
# Shear Modulus (GPa) = 23.30004 26.02102 24.66053
#
# Velocity S-wave (km/s) = 3.48944 3.68757 3.58987
# Velocity P-wave (km/s) = 6.82262 7.17189 6.99944
#
# Compressibility (1/GPa) = 0.01723944
#
# Stress axis : x y z
#
# Youngs Moduli (GPa) = 51.52109 109.44143 44.92075
#
# Poissons Ratio (x) = 0.32657 0.42719
# Poissons Ratio (y) = 0.15374 0.19274
# Poissons Ratio (z) = 0.48995 0.46958
#
# Static dielectric constant tensor:
#      x y z
#    x 1.679320 0.000000 0.000000 
#    y 0.000000 1.677260 0.000000 
#    z 0.000000 0.000000 1.731540 
# 
# From -- ./inp_files/13179.got.cif
#   From: 2010.05.17/outbox.cif.g08.bks.cpg/sg68_7_cif.got.tgz:13179.got - 2010.06.03 18:57:09.
