data_PCOD9507484
_publ_section_title
;
Structure prediction by ZEFSAII (Michael W. Deem and Ramdas Pophale) SiO2 
 PCOD9507484
Probable space group: C C C A
;
_chemical_formula_sum "Si O2"
_cell_formula_units_Z 96
_cell_length_a 19.868920
_cell_length_b 19.510382
_cell_length_c 9.078322
_cell_angle_alpha 90.000000
_cell_angle_beta 90.000000
_cell_angle_gamma 90.000000
_cell_volume 3519.213513
_symmetry_space_group_name_H-M "C C C A"
_symmetry_group_IT_number 68
_space_group.IT_coordinate_system_code '2'
_symmetry_cell_setting 'orthorhombic'
loop_
_space_group_symop_operation_xyz
x,y,z
-x,1/2-y,z
x,1/2-y,1/2-z
-x,y,1/2-z
-x,-y,-z
x,1/2+y,-z
-x,1/2+y,1/2+z
x,-y,1/2+z
1/2+x,1/2+y,z
1/2-x,-y,z
1/2+x,-y,1/2-z
1/2-x,1/2+y,1/2-z
1/2-x,1/2-y,-z
1/2+x,y,-z
1/2-x,y,1/2+z
1/2+x,1/2-y,1/2+z
loop_
_atom_site_type_symbol
_atom_site_label
_atom_site_fract_x
_atom_site_fract_y
_atom_site_fract_z
Si Si1 0.227726 0.657491 0.034777
Si Si2 0.126033 0.034743 0.893968
Si Si3 0.190060 0.446002 0.887478
Si Si4 0.904281 0.754574 0.073717
Si Si5 0.048743 0.381050 0.394389
Si Si6 0.136802 0.821684 0.825260
O O1 0.225092 0.627596 0.403208
O O2 0.171237 0.716032 0.039904
O O3 0.284919 0.678223 0.148105
O O4 0.184784 0.590914 0.077730
O O5 0.061305 0.059075 0.986356
O O6 0.158114 0.965166 0.954264
O O7 0.126847 0.040846 0.719605
O O8 0.250000 0.500000 0.850583
O O9 0.914410 0.750000 0.250000
O O10 0.951790 0.812270 0.996981
O O11 0.903140 0.683637 0.980735
O O12 0.117594 0.375827 0.298886
O O13 0.000000 0.385272 0.250000
O O14 0.115313 0.750000 0.750000
#
# Coordination Sequence:
#
# PCOD9507484 Si02
#       6
#    16  16  16  16  16  16
#     4  10  21  33  62  94 143 168 207 271 347 422
#     4  10  23  37  63  90 126 175 228 279 342 413
#     4  10  21  37  59  96 133 176 221 277 349 421
#     4  10  22  38  64 101 134 176 225 283 345 420
#     4  10  24  46  65  86 130 187 235 289 353 406
#     4  10  22  36  60  91 132 179 217 272 341 418
#
# _framework density 27.278824
#
# number of rings (size 3 to 8) (size 9 to 14) (size 15 to 20)
#    0.000    2.000    0.000    2.500   16.333    3.000 
#    0.000    2.500    0.000    0.000    0.000    0.000 
#    0.000    0.000    0.000    0.000    0.000    0.000 
#
# Total GULP energy -267759.709514 kJ/mol
# GULP energy per Si atom -5578.327282 kJ/mol
# Density = 2.721674 g / cm^3
# Si number density = 27.278824 Si / 1000 Ang^3
#
#
#
# Elastic Constant Matrix: (Units=GPa)
#
#
# Indices 1 2 3 4 5 6 
#
# 1 87.2294 12.8543 23.6475 0.0000 0.0000 0.0000
# 2 12.8543 73.0024 30.1086 0.0000 0.0000 0.0000
# 3 23.6475 30.1086 170.9904 0.0000 0.0000 0.0000
# 4 0.0000 0.0000 0.0000 34.8426 0.0000 0.0000
# 5 0.0000 0.0000 0.0000 0.0000 23.5345 0.0000
# 6 0.0000 0.0000 0.0000 0.0000 0.0000 19.5986
#
#
#
# Elastic Compliance Matrix: (Units=1/GPa)
#
#
# Indices 1 2 3 4 5 6 
#
# 1 0.012071 -0.001549 -0.001397 0.000000 0.000000 0.000000
# 2 -0.001549 0.014970 -0.002422 0.000000 0.000000 0.000000
# 3 -0.001397 -0.002422 0.006468 0.000000 0.000000 0.000000
# 4 0.000000 0.000000 0.000000 0.028700 0.000000 0.000000
# 5 0.000000 0.000000 0.000000 0.000000 0.042491 0.000000
# 6 0.000000 0.000000 0.000000 0.000000 0.000000 0.051024
#
#
# Mechanical properties :
#
#
# Convention : Reuss Voigt Hill
#
# Bulk Modulus (GPa) = 43.91118 51.60475 47.75797
# Shear Modulus (GPa) = 28.72734 33.23595 30.98164
#
# Velocity S-wave (km/s) = 3.24867 3.49432 3.37373
# Velocity P-wave (km/s) = 5.49581 5.93624 5.72026
#
# Compressibility (1/GPa) = 0.02277324
#
# Stress axis : x y z
#
# Youngs Moduli (GPa) = 82.84349 66.80131 154.61135
#
# Poissons Ratio (x) = 0.10351 0.21592
# Poissons Ratio (y) = 0.12836 0.37441
# Poissons Ratio (z) = 0.11569 0.16177
#
# Static dielectric constant tensor:
#      x y z
#    x 2.167810 0.000000 0.000000 
#    y 0.000000 2.194070 0.000000 
#    z 0.000000 0.000000 2.276580 
# 
# From -- ./inp_files/8120.got.cif
#   From: 2010.05.17/outbox.cif.g08.bks.cpg/sg68_5_cif.got.tgz:8120.got - 2010.06.03 18:57:09.
