data_PCOD9507486
_publ_section_title
;
Structure prediction by ZEFSAII (Michael W. Deem and Ramdas Pophale) SiO2 
 PCOD9507486
Probable space group: C C C A
;
_chemical_formula_sum "Si O2"
_cell_formula_units_Z 64
_cell_length_a 6.423575
_cell_length_b 22.660091
_cell_length_c 14.563239
_cell_angle_alpha 90.000000
_cell_angle_beta 90.000000
_cell_angle_gamma 90.000000
_cell_volume 2119.807506
_symmetry_space_group_name_H-M "C C C A"
_symmetry_group_IT_number 68
_space_group.IT_coordinate_system_code '2'
_symmetry_cell_setting 'orthorhombic'
loop_
_space_group_symop_operation_xyz
x,y,z
-x,1/2-y,z
x,1/2-y,1/2-z
-x,y,1/2-z
-x,-y,-z
x,1/2+y,-z
-x,1/2+y,1/2+z
x,-y,1/2+z
1/2+x,1/2+y,z
1/2-x,-y,z
1/2+x,-y,1/2-z
1/2-x,1/2+y,1/2-z
1/2-x,1/2-y,-z
1/2+x,y,-z
1/2-x,y,1/2+z
1/2+x,1/2-y,1/2+z
loop_
_atom_site_type_symbol
_atom_site_label
_atom_site_fract_x
_atom_site_fract_y
_atom_site_fract_z
Si Si1 0.014818 0.007009 0.355643
Si Si2 0.260437 0.261725 0.388734
Si Si3 0.617516 0.637289 0.378883
Si Si4 0.405514 0.615697 0.904716
O O1 0.997655 0.077891 0.349143
O O2 0.000000 0.987425 0.250000
O O3 0.250000 0.000000 0.392647
O O4 0.880934 0.955180 0.403500
O O5 0.500000 0.250000 0.362388
O O6 0.250000 0.250000 0.500000
O O7 0.125120 0.206630 0.351357
O O8 0.250171 0.332469 0.368383
O O9 0.581364 0.633710 0.488729
O O10 0.864967 0.623337 0.361753
#
# Coordination Sequence:
#
# PCOD9507486 Si02
#       4
#    16  16  16  16
#     4  10  21  34  48  71 106 145 185 227 273 330
#     4   8  14  26  46  72  99 126 160 209 264 315
#     4   9  17  30  50  76 104 133 175 228 277 327
#     4   9  17  30  50  76 102 133 176 224 275 328
#
# _framework density 30.191421999999999
#
# number of rings (size 3 to 8) (size 9 to 14) (size 15 to 20)
#    0.000    3.000    0.000    0.750    0.000    2.000 
#    0.000    0.000    0.000   18.750    0.000    1.750 
#    0.000    0.000    0.000    0.750    0.000   21.500 
#
# Total GULP energy -178600.075980 kJ/mol
# GULP energy per Si atom -5581.252374 kJ/mol
# Density = 3.012270 g / cm^3
# Si number density = 30.191422 Si / 1000 Ang^3
#
#
#
# Elastic Constant Matrix: (Units=GPa)
#
#
# Indices 1 2 3 4 5 6 
#
# 1 123.6658 145.6025 -0.1824 0.0000 0.0000 0.0000
# 2 145.6025 460.3037 42.6587 0.0000 0.0000 0.0000
# 3 -0.1824 42.6587 78.1819 0.0000 0.0000 0.0000
# 4 0.0000 0.0000 0.0000 -39.8490 0.0000 0.0000
# 5 0.0000 0.0000 0.0000 0.0000 3.5732 0.0000
# 6 0.0000 0.0000 0.0000 0.0000 0.0000 108.5812
#
#
#
# Elastic Compliance Matrix: (Units=1/GPa)
#
#
# Indices 1 2 3 4 5 6 
#
# 1 0.013317 -0.004440 0.002454 0.000000 0.000000 0.000000
# 2 -0.004440 0.003768 -0.002067 0.000000 0.000000 0.000000
# 3 0.002454 -0.002067 0.013924 0.000000 0.000000 0.000000
# 4 0.000000 0.000000 0.000000 -0.025095 0.000000 0.000000
# 5 0.000000 0.000000 0.000000 0.000000 0.279860 0.000000
# 6 0.000000 0.000000 0.000000 0.000000 0.000000 0.009210
#
#
# Mechanical properties :
#
#
# Convention : Reuss Voigt Hill
#
# Bulk Modulus (GPa) = 43.66013 115.36769 79.51391
# Shear Modulus (GPa) = 16.09137 46.06593 31.07865
#
# Velocity S-wave (km/s) = 2.31114 3.91038 3.21189
# Velocity P-wave (km/s) = 4.64912 7.66049 6.33630
#
# Compressibility (1/GPa) = 0.02290419
#
# Stress axis : x y z
#
# Youngs Moduli (GPa) = 75.08935 265.36222 71.81856
#
# Poissons Ratio (x) = 1.17820 -0.17622
# Poissons Ratio (y) = 0.33339 0.14842
# Poissons Ratio (z) = -0.18424 0.54838
#
# Static dielectric constant tensor:
#      x y z
#    x 2.521750 0.000000 0.000000 
#    y 0.000000 2.239800 0.000000 
#    z 0.000000 0.000000 2.317450 
# 
# From -- ./inp_files/35959.got.cif
#   From: 2010.05.17/outbox.cif.g08.bks.cpg/sg68_18_cif.got.tgz:35959.got - 2010.06.03 18:57:09.
