data_PCOD9507487
_publ_section_title
;
Structure prediction by ZEFSAII (Michael W. Deem and Ramdas Pophale) SiO2 
 PCOD9507487
Probable space group: C C C A
;
_chemical_formula_sum "Si O2"
_cell_formula_units_Z 56
_cell_length_a 5.193655
_cell_length_b 14.290717
_cell_length_c 33.753493
_cell_angle_alpha 90.000000
_cell_angle_beta 90.000000
_cell_angle_gamma 90.000000
_cell_volume 2505.219820
_symmetry_space_group_name_H-M "C C C A"
_symmetry_group_IT_number 68
_space_group.IT_coordinate_system_code '2'
_symmetry_cell_setting 'orthorhombic'
loop_
_space_group_symop_operation_xyz
x,y,z
-x,1/2-y,z
x,1/2-y,1/2-z
-x,y,1/2-z
-x,-y,-z
x,1/2+y,-z
-x,1/2+y,1/2+z
x,-y,1/2+z
1/2+x,1/2+y,z
1/2-x,-y,z
1/2+x,-y,1/2-z
1/2-x,1/2+y,1/2-z
1/2-x,1/2-y,-z
1/2+x,y,-z
1/2-x,y,1/2+z
1/2+x,1/2-y,1/2+z
loop_
_atom_site_type_symbol
_atom_site_label
_atom_site_fract_x
_atom_site_fract_y
_atom_site_fract_z
Si Si1 0.255287 0.353882 0.731966
Si Si2 0.752781 0.887265 0.141173
Si Si3 0.000000 0.750000 0.471416
Si Si4 0.757601 0.612488 0.093404
O O1 0.253742 0.250000 0.750000
O O2 0.500000 0.403330 0.750000
O O3 0.285463 0.349221 0.684971
O O4 0.000000 0.397033 0.750000
O O5 0.530018 0.860825 0.108946
O O6 0.042797 0.864770 0.128323
O O7 0.750000 0.000000 0.143476
O O8 0.750000 0.750000 0.500000
O O9 0.901929 0.834294 0.442593
O O10 0.750000 0.500000 0.085795
#
# Coordination Sequence:
#
# PCOD9507487 Si02
#       4
#    16  16   8  16
#     4  10  21  34  51  81 117 155 203 255 313 362
#     4  10  21  39  61  85 118 164 214 260 309 372
#     4  12  26  42  66 100 129 158 197 250 320 392
#     4  10  23  43  66  91 122 163 208 255 310 378
#
# _framework density 22.353325999999999
#
# number of rings (size 3 to 8) (size 9 to 14) (size 15 to 20)
#    0.000    1.714    0.000    3.429    0.000    9.143 
#    0.000    0.000    0.000    0.000    0.000    0.000 
#    0.000    0.000    0.000    0.000    0.000    0.000 
#
# Total GULP energy -156028.977415 kJ/mol
# GULP energy per Si atom -5572.463479 kJ/mol
# Density = 2.230245 g / cm^3
# Si number density = 22.353326 Si / 1000 Ang^3
#
#
#
# Elastic Constant Matrix: (Units=GPa)
#
#
# Indices 1 2 3 4 5 6 
#
# 1 201.6466 25.1496 46.6007 0.0000 0.0000 0.0000
# 2 25.1496 126.2662 40.5133 0.0000 0.0000 0.0000
# 3 46.6007 40.5133 132.7692 0.0000 0.0000 0.0000
# 4 0.0000 0.0000 0.0000 32.0980 0.0000 0.0000
# 5 0.0000 0.0000 0.0000 0.0000 49.3773 0.0000
# 6 0.0000 0.0000 0.0000 0.0000 0.0000 -8.5333
#
#
#
# Elastic Compliance Matrix: (Units=1/GPa)
#
#
# Indices 1 2 3 4 5 6 
#
# 1 0.005428 -0.000521 -0.001746 0.000000 0.000000 0.000000
# 2 -0.000521 0.008829 -0.002511 0.000000 0.000000 0.000000
# 3 -0.001746 -0.002511 0.008911 0.000000 0.000000 0.000000
# 4 0.000000 0.000000 0.000000 0.031155 0.000000 0.000000
# 5 0.000000 0.000000 0.000000 0.000000 0.020252 0.000000
# 6 0.000000 0.000000 0.000000 0.000000 0.000000 -0.117188
#
#
# Mechanical properties :
#
#
# Convention : Reuss Voigt Hill
#
# Bulk Modulus (GPa) = 73.46798 76.13434 74.80116
# Shear Modulus (GPa) = -175.31991 37.81628 -68.75181
#
# Velocity S-wave (km/s) = -8.86575 4.11755 -5.55190
# Velocity P-wave (km/s) = 8.47726 7.53254 2.74999
#
# Compressibility (1/GPa) = 0.01361137
#
# Stress axis : x y z
#
# Youngs Moduli (GPa) = 184.24142 113.25920 112.22000
#
# Poissons Ratio (x) = 0.05899 0.19595
# Poissons Ratio (y) = 0.09596 0.28183
# Poissons Ratio (z) = 0.32171 0.28444
#
# Static dielectric constant tensor:
#      x y z
#    x 1.831500 0.000000 0.000000 
#    y 0.000000 1.829910 0.000000 
#    z 0.000000 0.000000 1.830650 
# 
# From -- ./inp_files/52765.got.cif
#   From: 2010.05.17/outbox.cif.g08.bks.cpg/sg68_27_cif.got.tgz:52765.got - 2010.06.03 18:57:09.
