data_PCOD9507083
_publ_section_title
;
Structure prediction by ZEFSAII (Michael W. Deem and Ramdas Pophale) SiO2 
 PCOD9507083
Probable space group: C C C A
;
_chemical_formula_sum "Si O2"
_cell_formula_units_Z 88
_cell_length_a 16.459650
_cell_length_b 27.130970
_cell_length_c 8.615743
_cell_angle_alpha 90.000000
_cell_angle_beta 90.000000
_cell_angle_gamma 90.000000
_cell_volume 3847.500218
_symmetry_space_group_name_H-M "C C C A"
_symmetry_group_IT_number 68
_space_group.IT_coordinate_system_code '2'
_symmetry_cell_setting 'orthorhombic'
loop_
_space_group_symop_operation_xyz
x,y,z
-x,1/2-y,z
x,1/2-y,1/2-z
-x,y,1/2-z
-x,-y,-z
x,1/2+y,-z
-x,1/2+y,1/2+z
x,-y,1/2+z
1/2+x,1/2+y,z
1/2-x,-y,z
1/2+x,-y,1/2-z
1/2-x,1/2+y,1/2-z
1/2-x,1/2-y,-z
1/2+x,y,-z
1/2-x,y,1/2+z
1/2+x,1/2-y,1/2+z
loop_
_atom_site_type_symbol
_atom_site_label
_atom_site_fract_x
_atom_site_fract_y
_atom_site_fract_z
Si Si1 0.296891 0.600213 0.311353
Si Si2 0.568010 0.922717 0.062389
Si Si3 0.599471 0.034921 0.990596
Si Si4 0.332940 0.189891 0.461259
Si Si5 0.794895 0.250000 0.250000
Si Si6 0.109339 0.387535 0.742527
O O1 0.365571 0.601112 0.177553
O O2 0.318767 0.551106 0.406140
O O3 0.305112 0.643578 0.435910
O O4 0.206013 0.604409 0.255845
O O5 0.598301 0.977045 0.011255
O O6 0.474875 0.938330 0.101896
O O7 0.569739 0.888033 0.910772
O O8 0.586170 0.062483 0.153102
O O9 0.266206 0.212541 0.342230
O O10 0.346170 0.228272 0.604151
O O11 0.400346 0.163450 0.353050
#
# Coordination Sequence:
#
# PCOD9507083 Si02
#       6
#    16  16  16  16   8  16
#     4  11  22  36  58  91 126 152 209 263 309 348
#     4  11  22  38  60  80 129 175 216 248 285 367
#     4  10  23  39  55  87 120 180 221 238 293 359
#     4  10  21  35  59  93 122 149 190 245 325 365
#     4  10  20  38  64  86 132 150 184 254 318 402
#     4  11  22  36  58  91 126 152 209 263 309 348
#
# _framework density 22.871991999999999
#
# number of rings (size 3 to 8) (size 9 to 14) (size 15 to 20)
#    0.000    1.455    1.818    4.364    0.000    7.273 
#    0.000    0.000    0.000    0.000    0.000   61.091 
#    0.000    0.000    0.000    0.000    0.000    0.000 
#
# Total GULP energy -245078.261996 kJ/mol
# GULP energy per Si atom -5569.960500 kJ/mol
# Density = 2.281993 g / cm^3
# Si number density = 22.871992 Si / 1000 Ang^3
#
#
#
# Elastic Constant Matrix: (Units=GPa)
#
#
# Indices 1 2 3 4 5 6 
#
# 1 77.7231 30.4908 22.9568 0.0000 0.0000 0.0000
# 2 30.4908 85.1519 37.6693 0.0000 0.0000 0.0000
# 3 22.9568 37.6693 108.0995 0.0000 0.0000 0.0000
# 4 0.0000 0.0000 0.0000 2.8362 0.0000 0.0000
# 5 0.0000 0.0000 0.0000 0.0000 21.9062 0.0000
# 6 0.0000 0.0000 0.0000 0.0000 0.0000 3.5744
#
#
#
# Elastic Compliance Matrix: (Units=1/GPa)
#
#
# Indices 1 2 3 4 5 6 
#
# 1 0.015192 -0.004744 -0.001573 0.000000 0.000000 0.000000
# 2 -0.004744 0.015365 -0.004347 0.000000 0.000000 0.000000
# 3 -0.001573 -0.004347 0.011100 0.000000 0.000000 0.000000
# 4 0.000000 0.000000 0.000000 0.352580 0.000000 0.000000
# 5 0.000000 0.000000 0.000000 0.000000 0.045649 0.000000
# 6 0.000000 0.000000 0.000000 0.000000 0.000000 0.279765
#
#
# Mechanical properties :
#
#
# Convention : Reuss Voigt Hill
#
# Bulk Modulus (GPa) = 49.19104 50.35647 49.77376
# Shear Modulus (GPa) = 6.68668 17.65388 12.17028
#
# Velocity S-wave (km/s) = 1.71169 2.78124 2.30924
# Velocity P-wave (km/s) = 5.04582 5.69018 5.37766
#
# Compressibility (1/GPa) = 0.02032890
#
# Stress axis : x y z
#
# Youngs Moduli (GPa) = 65.82460 65.08146 90.09351
#
# Poissons Ratio (x) = 0.30874 0.14173
# Poissons Ratio (y) = 0.31227 0.39163
# Poissons Ratio (z) = 0.10355 0.28290
#
# Static dielectric constant tensor:
#      x y z
#    x 1.931830 0.000000 0.000000 
#    y 0.000000 1.861060 0.000000 
#    z 0.000000 0.000000 2.011650 
# 
# From -- ./inp_files/6408.got.cif
#   From: 2010.05.17/outbox.cif.g08.bks.cpg/sg68_4_cif.got.tgz:6408.got - 2010.06.03 18:57:09.
