data_PCOD9507251
_publ_section_title
;
Structure prediction by ZEFSAII (Michael W. Deem and Ramdas Pophale) SiO2 
 PCOD9507251
Probable space group: C C C A
;
_chemical_formula_sum "Si O2"
_cell_formula_units_Z 96
_cell_length_a 20.101604
_cell_length_b 25.780369
_cell_length_c 8.140500
_cell_angle_alpha 90.000000
_cell_angle_beta 90.000000
_cell_angle_gamma 90.000000
_cell_volume 4218.625010
_symmetry_space_group_name_H-M "C C C A"
_symmetry_group_IT_number 68
_space_group.IT_coordinate_system_code '2'
_symmetry_cell_setting 'orthorhombic'
loop_
_space_group_symop_operation_xyz
x,y,z
-x,1/2-y,z
x,1/2-y,1/2-z
-x,y,1/2-z
-x,-y,-z
x,1/2+y,-z
-x,1/2+y,1/2+z
x,-y,1/2+z
1/2+x,1/2+y,z
1/2-x,-y,z
1/2+x,-y,1/2-z
1/2-x,1/2+y,1/2-z
1/2-x,1/2-y,-z
1/2+x,y,-z
1/2-x,y,1/2+z
1/2+x,1/2-y,1/2+z
loop_
_atom_site_type_symbol
_atom_site_label
_atom_site_fract_x
_atom_site_fract_y
_atom_site_fract_z
Si Si1 0.922072 0.945658 0.263556
Si Si2 0.089822 0.750000 0.250000
Si Si3 0.190617 0.640035 0.800420
Si Si4 0.874114 0.951089 0.637180
Si Si5 0.000000 0.108746 0.250000
Si Si6 0.200481 0.299152 0.975868
Si Si7 0.933087 0.345131 0.957516
O O1 0.893229 0.941998 0.447383
O O2 0.924533 0.890704 0.174072
O O3 0.000000 0.963478 0.250000
O O4 0.876389 0.987723 0.169987
O O5 0.138669 0.782479 0.132163
O O6 0.054990 0.708593 0.132990
O O7 0.184937 0.583028 0.717197
O O8 0.179356 0.679804 0.651665
O O9 0.260020 0.655121 0.882613
O O10 0.134533 0.652693 0.935697
O O11 0.935966 0.927105 0.737943
O O12 0.991605 0.141949 0.414359
O O13 0.250000 0.250000 0.000000
#
# Coordination Sequence:
#
# PCOD9507251 Si02
#       7
#    16   8  16  16   8  16  16
#     4  12  22  42  70 102 137 185 225 269 326 420
#     4  12  24  42  71  96 126 185 234 284 336 396
#     4  11  23  40  69 103 129 169 225 291 335 396
#     4  11  22  38  70 102 139 172 222 274 341 398
#     4  10  20  40  62 101 132 179 216 280 328 412
#     4  12  21  41  69  98 126 172 236 281 333 403
#     4  11  24  40  68  96 139 175 234 276 343 398
#
# _framework density 22.756229000000001
#
# number of rings (size 3 to 8) (size 9 to 14) (size 15 to 20)
#    0.000    0.667    5.833    3.500    0.000    0.000 
#    0.000    0.417    3.667   21.000    0.000    0.000 
#    0.000    0.000    0.000    0.000    0.000    0.000 
#
# Total GULP energy -268591.342422 kJ/mol
# GULP energy per Si atom -5595.652967 kJ/mol
# Density = 2.270443 g / cm^3
# Si number density = 22.756229 Si / 1000 Ang^3
#
#
#
# Elastic Constant Matrix: (Units=GPa)
#
#
# Indices 1 2 3 4 5 6 
#
# 1 26.8457 26.4063 13.0213 0.0000 0.0000 0.0000
# 2 26.4063 151.2427 56.8028 0.0000 0.0000 0.0000
# 3 13.0213 56.8028 132.3290 0.0000 0.0000 0.0000
# 4 0.0000 0.0000 0.0000 35.1461 0.0000 0.0000
# 5 0.0000 0.0000 0.0000 0.0000 27.8976 0.0000
# 6 0.0000 0.0000 0.0000 0.0000 0.0000 28.3241
#
#
#
# Elastic Compliance Matrix: (Units=1/GPa)
#
#
# Indices 1 2 3 4 5 6 
#
# 1 0.045150 -0.007409 -0.001263 0.000000 0.000000 0.000000
# 2 -0.007409 0.009098 -0.003177 0.000000 0.000000 0.000000
# 3 -0.001263 -0.003177 0.009045 0.000000 0.000000 0.000000
# 4 0.000000 0.000000 0.000000 0.028453 0.000000 0.000000
# 5 0.000000 0.000000 0.000000 0.000000 0.035845 0.000000
# 6 0.000000 0.000000 0.000000 0.000000 0.000000 0.035306
#
#
# Mechanical properties :
#
#
# Convention : Reuss Voigt Hill
#
# Bulk Modulus (GPa) = 25.25428 55.87533 40.56480
# Shear Modulus (GPa) = 25.02612 32.55268 28.78940
#
# Velocity S-wave (km/s) = 3.31984 3.78629 3.56071
# Velocity P-wave (km/s) = 5.08104 6.61225 5.89656
#
# Compressibility (1/GPa) = 0.03959725
#
# Stress axis : x y z
#
# Youngs Moduli (GPa) = 22.14853 109.90891 110.56210
#
# Poissons Ratio (x) = 0.81429 0.13959
# Poissons Ratio (y) = 0.16409 0.35120
# Poissons Ratio (z) = 0.02796 0.34913
#
# Static dielectric constant tensor:
#      x y z
#    x 1.867400 0.000000 0.000000 
#    y 0.000000 1.870220 0.000000 
#    z 0.000000 0.000000 1.832580 
# 
# From -- ./inp_files/8188.got.cif
#   From: 2010.05.17/outbox.cif.g08.bks.cpg/sg68_5_cif.got.tgz:8188.got - 2010.06.03 18:57:09.
