data_PCOD9507441
_publ_section_title
;
Structure prediction by ZEFSAII (Michael W. Deem and Ramdas Pophale) SiO2 
 PCOD9507441
Probable space group: C C C A
;
_chemical_formula_sum "Si O2"
_cell_formula_units_Z 72
_cell_length_a 11.531753
_cell_length_b 9.833236
_cell_length_c 29.835346
_cell_angle_alpha 90.000000
_cell_angle_beta 90.000000
_cell_angle_gamma 90.000000
_cell_volume 3383.162613
_symmetry_space_group_name_H-M "C C C A"
_symmetry_group_IT_number 68
_space_group.IT_coordinate_system_code '2'
_symmetry_cell_setting 'orthorhombic'
loop_
_space_group_symop_operation_xyz
x,y,z
-x,1/2-y,z
x,1/2-y,1/2-z
-x,y,1/2-z
-x,-y,-z
x,1/2+y,-z
-x,1/2+y,1/2+z
x,-y,1/2+z
1/2+x,1/2+y,z
1/2-x,-y,z
1/2+x,-y,1/2-z
1/2-x,1/2+y,1/2-z
1/2-x,1/2-y,-z
1/2+x,y,-z
1/2-x,y,1/2+z
1/2+x,1/2-y,1/2+z
loop_
_atom_site_type_symbol
_atom_site_label
_atom_site_fract_x
_atom_site_fract_y
_atom_site_fract_z
Si Si1 0.750000 0.500000 0.409669
Si Si2 0.439010 0.435367 0.702511
Si Si3 0.619639 0.049068 0.364688
Si Si4 0.481973 0.592844 0.543138
Si Si5 0.277727 0.315912 0.173009
O O1 0.643498 0.452199 0.439149
O O2 0.764670 0.374107 0.375306
O O3 0.500000 0.435792 0.750000
O O4 0.534884 0.450438 0.663305
O O5 0.359957 0.570771 0.695548
O O6 0.344705 0.313611 0.698816
O O7 0.563303 0.073306 0.413134
O O8 0.642949 0.185674 0.335734
O O9 0.750000 0.000000 0.371339
O O10 0.500000 0.750000 0.530297
O O11 0.500000 0.500000 0.500000
#
# Coordination Sequence:
#
# PCOD9507441 Si02
#       5
#     8  16  16  16  16
#     4  10  20  44  72  86 132 182 232 276 350 424
#     4  10  22  43  69 100 132 178 239 284 344 415
#     4  12  25  42  66 101 139 186 230 283 358 424
#     4  12  26  46  71 103 138 182 238 298 362 433
#     4  10  21  43  72  90 134 190 225 283 345 422
#
# _framework density 21.281863000000001
#
# number of rings (size 3 to 8) (size 9 to 14) (size 15 to 20)
#    0.000    1.333    6.667    0.667    4.667    5.333 
#    0.000    1.111    0.000    0.000    0.000    0.000 
#    0.000    0.000    0.000    0.000    0.000    0.000 
#
# Total GULP energy -200980.123490 kJ/mol
# GULP energy per Si atom -5582.781208 kJ/mol
# Density = 2.123342 g / cm^3
# Si number density = 21.281863 Si / 1000 Ang^3
#
#
#
# Elastic Constant Matrix: (Units=GPa)
#
#
# Indices 1 2 3 4 5 6 
#
# 1 176.6656 50.5832 72.5072 0.0000 0.0000 0.0000
# 2 50.5832 53.1493 48.7523 0.0000 0.0000 0.0000
# 3 72.5072 48.7523 155.2583 0.0000 0.0000 0.0000
# 4 0.0000 0.0000 0.0000 34.1976 0.0000 0.0000
# 5 0.0000 0.0000 0.0000 0.0000 47.9544 0.0000
# 6 0.0000 0.0000 0.0000 0.0000 0.0000 14.5300
#
#
#
# Elastic Compliance Matrix: (Units=1/GPa)
#
#
# Indices 1 2 3 4 5 6 
#
# 1 0.008173 -0.006008 -0.001930 0.000000 0.000000 0.000000
# 2 -0.006008 0.030842 -0.006879 0.000000 0.000000 0.000000
# 3 -0.001930 -0.006879 0.009502 0.000000 0.000000 0.000000
# 4 0.000000 0.000000 0.000000 0.029242 0.000000 0.000000
# 5 0.000000 0.000000 0.000000 0.000000 0.020853 0.000000
# 6 0.000000 0.000000 0.000000 0.000000 0.000000 0.068823
#
#
# Mechanical properties :
#
#
# Convention : Reuss Voigt Hill
#
# Bulk Modulus (GPa) = 52.95605 80.97317 66.96461
# Shear Modulus (GPa) = 24.58639 33.55177 29.06908
#
# Velocity S-wave (km/s) = 3.40262 3.97488 3.69983
# Velocity P-wave (km/s) = 6.35408 7.69394 7.05589
#
# Compressibility (1/GPa) = 0.01888358
#
# Stress axis : x y z
#
# Youngs Moduli (GPa) = 122.35786 32.42284 105.23553
#
# Poissons Ratio (x) = 0.19478 0.20314
# Poissons Ratio (y) = 0.73507 0.72394
# Poissons Ratio (z) = 0.23619 0.22304
#
# Static dielectric constant tensor:
#      x y z
#    x 1.790200 0.000000 0.000000 
#    y 0.000000 1.766640 0.000000 
#    z 0.000000 0.000000 1.752550 
# 
# From -- ./inp_files/50029.got.cif
#   From: 2010.05.17/outbox.cif.g08.bks.cpg/sg68_26_cif.got.tgz:50029.got - 2010.06.03 18:57:09.
