data_PCOD9507843
_publ_section_title
;
Structure prediction by ZEFSAII (Michael W. Deem and Ramdas Pophale) SiO2 
 PCOD9507843
Probable space group: C C C A
;
_chemical_formula_sum "Si O2"
_cell_formula_units_Z 112
_cell_length_a 11.795968
_cell_length_b 33.298807
_cell_length_c 13.571661
_cell_angle_alpha 90.000000
_cell_angle_beta 90.000000
_cell_angle_gamma 90.000000
_cell_volume 5330.835278
_symmetry_space_group_name_H-M "C C C A"
_symmetry_group_IT_number 68
_space_group.IT_coordinate_system_code '2'
_symmetry_cell_setting 'orthorhombic'
loop_
_space_group_symop_operation_xyz
x,y,z
-x,1/2-y,z
x,1/2-y,1/2-z
-x,y,1/2-z
-x,-y,-z
x,1/2+y,-z
-x,1/2+y,1/2+z
x,-y,1/2+z
1/2+x,1/2+y,z
1/2-x,-y,z
1/2+x,-y,1/2-z
1/2-x,1/2+y,1/2-z
1/2-x,1/2-y,-z
1/2+x,y,-z
1/2-x,y,1/2+z
1/2+x,1/2-y,1/2+z
loop_
_atom_site_type_symbol
_atom_site_label
_atom_site_fract_x
_atom_site_fract_y
_atom_site_fract_z
Si Si1 0.875576 0.498229 0.052342
Si Si2 0.925693 0.911426 0.945111
Si Si3 0.253409 0.360717 0.335140
Si Si4 0.951772 0.078803 0.858081
Si Si5 0.406051 0.636526 0.165402
Si Si6 0.682559 0.731197 0.648477
Si Si7 0.397803 0.777913 0.433729
O O1 0.750000 0.500000 0.001322
O O2 0.880983 0.453530 0.097455
O O3 0.883131 0.538019 0.118188
O O4 0.000000 0.500000 0.000000
O O5 0.839203 0.876501 0.914008
O O6 0.046741 0.900393 0.897415
O O7 0.949435 0.915762 0.060684
O O8 0.368801 0.383113 0.361022
O O9 0.207121 0.372170 0.226541
O O10 0.267046 0.313059 0.333630
O O11 0.000000 0.075457 0.750000
O O12 0.500000 0.644372 0.250000
O O13 0.403423 0.675973 0.098576
O O14 0.635931 0.750000 0.750000
O O15 0.605333 0.725818 0.552113
O O16 0.783454 0.760176 0.612674
O O17 0.500000 0.750000 0.396349
#
# Coordination Sequence:
#
# PCOD9507843 Si02
#       7
#    16  16  16  16  16  16  16
#     4  10  21  45  72 101 142 184 232 290 357 431
#     4  10  22  42  68  97 132 177 230 275 351 423
#     4  11  22  42  67  91 134 169 226 292 347 417
#     4  11  25  42  63 102 137 180 224 285 355 428
#     4  10  21  38  67  99 122 173 232 285 339 416
#     4  11  24  42  61  94 129 171 220 290 347 420
#     4  11  23  40  65  92 125 174 227 278 354 412
#
# _framework density 21.009840000000001
#
# number of rings (size 3 to 8) (size 9 to 14) (size 15 to 20)
#    0.000    1.429    2.857    2.571    0.000    4.286 
#    7.714    0.714    0.000    0.000    0.000    0.000 
#    0.000    0.000    0.000    0.000    0.000    0.000 
#
# Total GULP energy -312387.316723 kJ/mol
# GULP energy per Si atom -5578.344941 kJ/mol
# Density = 2.096202 g / cm^3
# Si number density = 21.009840 Si / 1000 Ang^3
#
#
#
# Elastic Constant Matrix: (Units=GPa)
#
#
# Indices 1 2 3 4 5 6 
#
# 1 58.9176 8.2593 22.6595 0.0000 0.0000 0.0000
# 2 8.2593 114.1767 28.1631 0.0000 0.0000 0.0000
# 3 22.6595 28.1631 113.2066 0.0000 0.0000 0.0000
# 4 0.0000 0.0000 0.0000 16.4989 0.0000 0.0000
# 5 0.0000 0.0000 0.0000 0.0000 22.2974 0.0000
# 6 0.0000 0.0000 0.0000 0.0000 0.0000 26.2646
#
#
#
# Elastic Compliance Matrix: (Units=1/GPa)
#
#
# Indices 1 2 3 4 5 6 
#
# 1 0.018410 -0.000450 -0.003573 0.000000 0.000000 0.000000
# 2 -0.000450 0.009342 -0.002234 0.000000 0.000000 0.000000
# 3 -0.003573 -0.002234 0.010104 0.000000 0.000000 0.000000
# 4 0.000000 0.000000 0.000000 0.060610 0.000000 0.000000
# 5 0.000000 0.000000 0.000000 0.000000 0.044848 0.000000
# 6 0.000000 0.000000 0.000000 0.000000 0.000000 0.038074
#
#
# Mechanical properties :
#
#
# Convention : Reuss Voigt Hill
#
# Bulk Modulus (GPa) = 39.46039 44.94053 42.20046
# Shear Modulus (GPa) = 24.70955 28.16009 26.43482
#
# Velocity S-wave (km/s) = 3.43314 3.66502 3.55098
# Velocity P-wave (km/s) = 5.87690 6.27268 6.07801
#
# Compressibility (1/GPa) = 0.02534187
#
# Stress axis : x y z
#
# Youngs Moduli (GPa) = 54.31790 107.04398 98.96773
#
# Poissons Ratio (x) = 0.04822 0.35360
# Poissons Ratio (y) = 0.02447 0.22108
# Poissons Ratio (z) = 0.19407 0.23913
#
# Static dielectric constant tensor:
#      x y z
#    x 1.827890 0.000000 0.000000 
#    y 0.000000 1.745100 0.000000 
#    z 0.000000 0.000000 1.776560 
# 
# From -- ./inp_files/21253.got.cif
#   From: 2010.05.17/outbox.cif.g08.bks.cpg/sg68_11_cif.got.tgz:21253.got - 2010.06.03 18:57:09.
