data_PCOD9507976
_publ_section_title
;
Structure prediction by ZEFSAII (Michael W. Deem and Ramdas Pophale) SiO2 
 PCOD9507976
Probable space group: C C C A
;
_chemical_formula_sum "Si O2"
_cell_formula_units_Z 112
_cell_length_a 14.155141
_cell_length_b 15.794727
_cell_length_c 23.183144
_cell_angle_alpha 90.000000
_cell_angle_beta 90.000000
_cell_angle_gamma 90.000000
_cell_volume 5183.208229
_symmetry_space_group_name_H-M "C C C A"
_symmetry_group_IT_number 68
_space_group.IT_coordinate_system_code '2'
_symmetry_cell_setting 'orthorhombic'
loop_
_space_group_symop_operation_xyz
x,y,z
-x,1/2-y,z
x,1/2-y,1/2-z
-x,y,1/2-z
-x,-y,-z
x,1/2+y,-z
-x,1/2+y,1/2+z
x,-y,1/2+z
1/2+x,1/2+y,z
1/2-x,-y,z
1/2+x,-y,1/2-z
1/2-x,1/2+y,1/2-z
1/2-x,1/2-y,-z
1/2+x,y,-z
1/2-x,y,1/2+z
1/2+x,1/2-y,1/2+z
loop_
_atom_site_type_symbol
_atom_site_label
_atom_site_fract_x
_atom_site_fract_y
_atom_site_fract_z
Si Si1 0.640724 0.239249 0.162535
Si Si2 0.854284 0.776339 0.812584
Si Si3 0.511256 0.602955 0.686026
Si Si4 0.855299 0.539024 0.634348
Si Si5 0.626626 0.804091 0.065267
Si Si6 0.545622 0.914285 0.480914
Si Si7 0.825732 0.688130 0.456785
O O1 0.745202 0.245474 0.186978
O O2 0.587363 0.149445 0.169354
O O3 0.580519 0.315520 0.188307
O O4 0.651488 0.254174 0.093661
O O5 0.893232 0.750000 0.750000
O O6 0.860611 0.876708 0.825764
O O7 0.891876 0.729618 0.870506
O O8 0.500000 0.567034 0.750000
O O9 0.564663 0.530875 0.649661
O O10 0.750000 0.500000 0.638859
O O11 0.878518 0.568488 0.569386
O O12 0.535662 0.851871 0.042331
O O13 0.726152 0.854132 0.060609
O O14 0.659360 0.731572 0.019470
O O15 0.592744 0.879584 0.538734
O O16 0.500000 0.000000 0.500000
#
# Coordination Sequence:
#
# PCOD9507976 Si02
#       7
#    16  16  16  16  16  16  16
#     4  10  21  39  70 104 131 186 234 292 360 421
#     4  11  23  46  76 100 138 198 240 294 360 440
#     4  11  23  40  65 100 142 176 240 296 348 424
#     4  12  27  44  67 107 146 186 241 300 369 425
#     4  10  24  43  67 102 133 180 241 286 351 439
#     4  12  27  41  69 100 143 186 232 296 365 438
#     4  10  22  41  68  96 139 173 226 298 345 427
#
# _framework density 21.608239000000001
#
# number of rings (size 3 to 8) (size 9 to 14) (size 15 to 20)
#    0.000    1.143    2.857    3.000    8.000    1.143 
#    0.000    0.714    0.000    0.000    0.000    0.000 
#    0.000    0.000    0.000    0.000    0.000    0.000 
#
# Total GULP energy -312397.111845 kJ/mol
# GULP energy per Si atom -5578.519854 kJ/mol
# Density = 2.155906 g / cm^3
# Si number density = 21.608239 Si / 1000 Ang^3
#
#
#
# Elastic Constant Matrix: (Units=GPa)
#
#
# Indices 1 2 3 4 5 6 
#
# 1 114.9010 44.2382 17.1682 0.0000 0.0000 0.0000
# 2 44.2382 88.6575 33.2549 0.0000 0.0000 0.0000
# 3 17.1682 33.2549 138.2943 0.0000 0.0000 0.0000
# 4 0.0000 0.0000 0.0000 30.8284 0.0000 0.0000
# 5 0.0000 0.0000 0.0000 0.0000 12.0451 0.0000
# 6 0.0000 0.0000 0.0000 0.0000 0.0000 14.6589
#
#
#
# Elastic Compliance Matrix: (Units=1/GPa)
#
#
# Indices 1 2 3 4 5 6 
#
# 1 0.010773 -0.005357 -0.000049 0.000000 0.000000 0.000000
# 2 -0.005357 0.015061 -0.002957 0.000000 0.000000 0.000000
# 3 -0.000049 -0.002957 0.007948 0.000000 0.000000 0.000000
# 4 0.000000 0.000000 0.000000 0.032438 0.000000 0.000000
# 5 0.000000 0.000000 0.000000 0.000000 0.083021 0.000000
# 6 0.000000 0.000000 0.000000 0.000000 0.000000 0.068218
#
#
# Mechanical properties :
#
#
# Convention : Reuss Voigt Hill
#
# Bulk Modulus (GPa) = 58.62837 59.01950 58.82393
# Shear Modulus (GPa) = 20.84458 27.98593 24.41526
#
# Velocity S-wave (km/s) = 3.10927 3.60272 3.36505
# Velocity P-wave (km/s) = 6.33098 6.68423 6.51000
#
# Compressibility (1/GPa) = 0.01705659
#
# Stress axis : x y z
#
# Youngs Moduli (GPa) = 92.82451 66.39464 125.81704
#
# Poissons Ratio (x) = 0.35568 0.00619
# Poissons Ratio (y) = 0.49726 0.37201
# Poissons Ratio (z) = 0.00457 0.19631
#
# Static dielectric constant tensor:
#      x y z
#    x 1.940940 0.000000 0.000000 
#    y 0.000000 1.843540 0.000000 
#    z 0.000000 0.000000 1.840570 
# 
# From -- ./inp_files/45525.got.cif
#   From: 2010.05.17/outbox.cif.g08.bks.cpg/sg68_23_cif.got.tgz:45525.got - 2010.06.03 18:57:09.
