data_PCOD9507661
_publ_section_title
;
Structure prediction by ZEFSAII (Michael W. Deem and Ramdas Pophale) SiO2 
 PCOD9507661
Probable space group: C C C A
;
_chemical_formula_sum "Si O2"
_cell_formula_units_Z 88
_cell_length_a 8.855327
_cell_length_b 23.616469
_cell_length_c 20.564996
_cell_angle_alpha 90.000000
_cell_angle_beta 90.000000
_cell_angle_gamma 90.000000
_cell_volume 4300.789604
_symmetry_space_group_name_H-M "C C C A"
_symmetry_group_IT_number 68
_space_group.IT_coordinate_system_code '2'
_symmetry_cell_setting 'orthorhombic'
loop_
_space_group_symop_operation_xyz
x,y,z
-x,1/2-y,z
x,1/2-y,1/2-z
-x,y,1/2-z
-x,-y,-z
x,1/2+y,-z
-x,1/2+y,1/2+z
x,-y,1/2+z
1/2+x,1/2+y,z
1/2-x,-y,z
1/2+x,-y,1/2-z
1/2-x,1/2+y,1/2-z
1/2-x,1/2-y,-z
1/2+x,y,-z
1/2-x,y,1/2+z
1/2+x,1/2-y,1/2+z
loop_
_atom_site_type_symbol
_atom_site_label
_atom_site_fract_x
_atom_site_fract_y
_atom_site_fract_z
Si Si1 0.657042 0.203288 0.208395
Si Si2 0.191044 0.440715 0.438558
Si Si3 0.500000 0.250000 0.083426
Si Si4 0.992024 0.873049 0.464036
Si Si5 0.486009 0.523463 0.175641
Si Si6 0.813274 0.087198 0.653464
O O1 0.745809 0.250000 0.250000
O O2 0.500000 0.195605 0.250000
O O3 0.625683 0.230248 0.136962
O O4 0.716135 0.140318 0.200223
O O5 0.250000 0.500000 0.470753
O O6 0.336497 0.400669 0.439740
O O7 0.055706 0.406148 0.473354
O O8 0.126456 0.459734 0.368730
O O9 0.470103 0.194820 0.039234
O O10 0.123188 0.887353 0.412661
O O11 0.500000 0.541484 0.250000
O O12 0.340291 0.553651 0.145547
O O13 0.441883 0.457073 0.175792
#
# Coordination Sequence:
#
# PCOD9507661 Si02
#       6
#    16  16   8  16  16  16
#     4   8  15  31  58  88 120 161 215 253 309 374
#     4  12  25  41  64  94 127 170 207 262 323 382
#     4   8  19  36  58  96 117 166 214 264 318 370
#     4  11  23  41  68  91 130 163 217 264 317 388
#     4  11  25  38  58  93 129 165 211 254 323 380
#     4  10  21  37  61  87 126 163 205 265 313 379
#
# _framework density 20.461358000000001
#
# number of rings (size 3 to 8) (size 9 to 14) (size 15 to 20)
#    0.000    2.000    1.818    2.182    5.091    5.091 
#    0.000    0.000    0.000    4.909    0.000    0.000 
#    0.000    0.000    0.000    0.000    0.000    0.000 
#
# Total GULP energy -245047.226790 kJ/mol
# GULP energy per Si atom -5569.255154 kJ/mol
# Density = 2.041479 g / cm^3
# Si number density = 20.461358 Si / 1000 Ang^3
#
#
#
# Elastic Constant Matrix: (Units=GPa)
#
#
# Indices 1 2 3 4 5 6 
#
# 1 67.6228 38.4782 36.9145 0.0000 0.0000 0.0000
# 2 38.4782 184.8894 46.9409 0.0000 0.0000 0.0000
# 3 36.9145 46.9409 82.5712 0.0000 0.0000 0.0000
# 4 0.0000 0.0000 0.0000 10.8991 0.0000 0.0000
# 5 0.0000 0.0000 0.0000 0.0000 14.2204 0.0000
# 6 0.0000 0.0000 0.0000 0.0000 0.0000 16.0948
#
#
#
# Elastic Compliance Matrix: (Units=1/GPa)
#
#
# Indices 1 2 3 4 5 6 
#
# 1 0.020331 -0.002248 -0.007811 0.000000 0.000000 0.000000
# 2 -0.002248 0.006570 -0.002730 0.000000 0.000000 0.000000
# 3 -0.007811 -0.002730 0.017155 0.000000 0.000000 0.000000
# 4 0.000000 0.000000 0.000000 0.091751 0.000000 0.000000
# 5 0.000000 0.000000 0.000000 0.000000 0.070321 0.000000
# 6 0.000000 0.000000 0.000000 0.000000 0.000000 0.062132
#
#
# Mechanical properties :
#
#
# Convention : Reuss Voigt Hill
#
# Bulk Modulus (GPa) = 54.12041 64.41674 59.26858
# Shear Modulus (GPa) = 16.66685 22.42618 19.54651
#
# Velocity S-wave (km/s) = 2.85713 3.31422 3.09413
# Velocity P-wave (km/s) = 6.11488 6.79676 6.46481
#
# Compressibility (1/GPa) = 0.01847732
#
# Stress axis : x y z
#
# Youngs Moduli (GPa) = 49.18553 152.21810 58.29301
#
# Poissons Ratio (x) = 0.34219 0.45535
# Poissons Ratio (y) = 0.11057 0.15912
# Poissons Ratio (z) = 0.38420 0.41551
#
# Static dielectric constant tensor:
#      x y z
#    x 1.725510 0.000000 0.000000 
#    y 0.000000 1.799480 0.000000 
#    z 0.000000 0.000000 1.795220 
# 
# From -- ./inp_files/36273.got.cif
#   From: 2010.05.17/outbox.cif.g08.bks.cpg/sg68_19_cif.got.tgz:36273.got - 2010.06.03 18:57:09.
