data_PCOD9507588
_publ_section_title
;
Structure prediction by ZEFSAII (Michael W. Deem and Ramdas Pophale) SiO2 
 PCOD9507588
Probable space group: C C C A
;
_chemical_formula_sum "Si O2"
_cell_formula_units_Z 80
_cell_length_a 7.626473
_cell_length_b 18.362655
_cell_length_c 27.889345
_cell_angle_alpha 90.000000
_cell_angle_beta 90.000000
_cell_angle_gamma 90.000000
_cell_volume 3905.687812
_symmetry_space_group_name_H-M "C C C A"
_symmetry_group_IT_number 68
_space_group.IT_coordinate_system_code '2'
_symmetry_cell_setting 'orthorhombic'
loop_
_space_group_symop_operation_xyz
x,y,z
-x,1/2-y,z
x,1/2-y,1/2-z
-x,y,1/2-z
-x,-y,-z
x,1/2+y,-z
-x,1/2+y,1/2+z
x,-y,1/2+z
1/2+x,1/2+y,z
1/2-x,-y,z
1/2+x,-y,1/2-z
1/2-x,1/2+y,1/2-z
1/2-x,1/2-y,-z
1/2+x,y,-z
1/2-x,y,1/2+z
1/2+x,1/2-y,1/2+z
loop_
_atom_site_type_symbol
_atom_site_label
_atom_site_fract_x
_atom_site_fract_y
_atom_site_fract_z
Si Si1 0.453060 0.489884 0.837720
Si Si2 0.856806 0.161058 0.289089
Si Si3 0.318996 0.659845 0.054230
Si Si4 0.250000 0.000000 0.417000
Si Si5 0.500000 0.250000 0.866999
Si Si6 0.000000 0.750000 0.471241
Si Si7 0.500000 0.598446 0.750000
O O1 0.250000 0.500000 0.852181
O O2 0.440961 0.411042 0.813347
O O3 0.581487 0.500334 0.882105
O O4 0.516334 0.545912 0.796377
O O5 0.849565 0.220416 0.331423
O O6 0.673324 0.144112 0.263107
O O7 0.000000 0.179851 0.250000
O O8 0.270309 0.575164 0.053909
O O9 0.440280 0.684401 0.098509
O O10 0.145369 0.708776 0.058895
O O11 0.411214 0.689766 0.006074
#
# Coordination Sequence:
#
# PCOD9507588 Si02
#       7
#    16  16  16   8   8   8   8
#     4  10  21  36  60  92 126 168 219 267 320 367
#     4  11  21  39  60  86 128 175 218 262 311 376
#     4  10  23  43  72  94 131 167 210 266 336 401
#     4  12  22  40  68 104 124 164 218 274 318 380
#     4  11  23  42  61  92 132 172 213 276 323 381
#     4   9  22  48  67  96 130 170 199 258 348 419
#     4  10  22  36  63  83 126 180 218 266 322 363
#
# _framework density 20.482946999999999
#
# number of rings (size 3 to 8) (size 9 to 14) (size 15 to 20)
#    0.000    1.600    3.000    1.500    1.400    4.000 
#    3.600    1.000    0.000    0.000    0.000    0.000 
#    0.000    0.000    0.000    0.000    0.000    0.000 
#
# Total GULP energy -223230.143334 kJ/mol
# GULP energy per Si atom -5580.753583 kJ/mol
# Density = 2.043633 g / cm^3
# Si number density = 20.482947 Si / 1000 Ang^3
#
#
#
# Elastic Constant Matrix: (Units=GPa)
#
#
# Indices 1 2 3 4 5 6 
#
# 1 55.1217 32.4793 24.0957 0.0000 0.0000 0.0000
# 2 32.4793 120.7730 32.6530 0.0000 0.0000 0.0000
# 3 24.0957 32.6530 39.8572 0.0000 0.0000 0.0000
# 4 0.0000 0.0000 0.0000 -5.6206 0.0000 0.0000
# 5 0.0000 0.0000 0.0000 0.0000 165.1366 0.0000
# 6 0.0000 0.0000 0.0000 0.0000 0.0000 43.2346
#
#
#
# Elastic Compliance Matrix: (Units=1/GPa)
#
#
# Indices 1 2 3 4 5 6 
#
# 1 0.025754 -0.003489 -0.012711 0.000000 0.000000 0.000000
# 2 -0.003489 0.011109 -0.006991 0.000000 0.000000 0.000000
# 3 -0.012711 -0.006991 0.038502 0.000000 0.000000 0.000000
# 4 0.000000 0.000000 0.000000 -0.177918 0.000000 0.000000
# 5 0.000000 0.000000 0.000000 0.000000 0.006056 0.000000
# 6 0.000000 0.000000 0.000000 0.000000 0.000000 0.023130
#
#
# Mechanical properties :
#
#
# Convention : Reuss Voigt Hill
#
# Bulk Modulus (GPa) = 34.50524 43.80089 39.15307
# Shear Modulus (GPa) = -288.61245 48.98504 -119.81371
#
# Velocity S-wave (km/s) = -11.88317 4.89561 -7.65646
# Velocity P-wave (km/s) = 13.09187 7.30660 7.68149
#
# Compressibility (1/GPa) = 0.02898110
#
# Stress axis : x y z
#
# Youngs Moduli (GPa) = 38.82857 90.02054 25.97293
#
# Poissons Ratio (x) = 0.31412 0.33014
# Poissons Ratio (y) = 0.13549 0.18158
# Poissons Ratio (z) = 0.49355 0.62935
#
# Static dielectric constant tensor:
#      x y z
#    x 1.722280 0.000000 0.000000 
#    y 0.000000 1.645630 0.000000 
#    z 0.000000 0.000000 1.690490 
# 
# From -- ./inp_files/49214.got.cif
#   From: 2010.05.17/outbox.cif.g08.bks.cpg/sg68_25_cif.got.tgz:49214.got - 2010.06.03 18:57:09.
