data_PCOD9507955
_publ_section_title
;
Structure prediction by ZEFSAII (Michael W. Deem and Ramdas Pophale) SiO2 
 PCOD9507955
Probable space group: C C C A
;
_chemical_formula_sum "Si O2"
_cell_formula_units_Z 116
_cell_length_a 13.248777
_cell_length_b 17.917452
_cell_length_c 24.037323
_cell_angle_alpha 90.000000
_cell_angle_beta 90.000000
_cell_angle_gamma 90.000000
_cell_volume 5706.083718
_symmetry_space_group_name_H-M "C C C A"
_symmetry_group_IT_number 68
_space_group.IT_coordinate_system_code '2'
_symmetry_cell_setting 'orthorhombic'
loop_
_space_group_symop_operation_xyz
x,y,z
-x,1/2-y,z
x,1/2-y,1/2-z
-x,y,1/2-z
-x,-y,-z
x,1/2+y,-z
-x,1/2+y,1/2+z
x,-y,1/2+z
1/2+x,1/2+y,z
1/2-x,-y,z
1/2+x,-y,1/2-z
1/2-x,1/2+y,1/2-z
1/2-x,1/2-y,-z
1/2+x,y,-z
1/2-x,y,1/2+z
1/2+x,1/2-y,1/2+z
loop_
_atom_site_type_symbol
_atom_site_label
_atom_site_fract_x
_atom_site_fract_y
_atom_site_fract_z
Si Si1 0.884838 0.815233 0.646772
Si Si2 0.928876 0.820484 0.468312
Si Si3 0.304447 0.079899 0.187000
Si Si4 0.983980 0.408870 0.066786
Si Si5 0.000000 0.250000 0.250000
Si Si6 0.212486 0.824925 0.585719
Si Si7 0.208756 0.916583 0.312721
Si Si8 0.502984 0.931197 0.621418
O O1 0.848893 0.747553 0.606989
O O2 0.788547 0.866590 0.655349
O O3 0.974191 0.862307 0.619061
O O4 0.926761 0.792352 0.707111
O O5 0.810946 0.807054 0.452562
O O6 0.000000 0.750000 0.483155
O O7 0.944637 0.881131 0.516923
O O8 0.978236 0.858440 0.414432
O O9 0.253827 0.133745 0.141266
O O10 0.303316 0.111450 0.249371
O O11 0.417566 0.063386 0.168029
O O12 0.250000 0.000000 0.185276
O O13 0.868821 0.381051 0.057414
O O14 0.994408 0.495527 0.082358
O O15 0.107934 0.922085 0.348060
O O16 0.250000 0.000000 0.307926
#
# Coordination Sequence:
#
# PCOD9507955 Si02
#       8
#    16  16  16  16   4  16  16  16
#     4  12  24  40  65  98 138 170 224 279 336 399
#     4  11  26  44  69  94 131 182 227 283 344 399
#     4  10  21  39  66  93 130 178 215 267 333 402
#     4  12  24  44  67  99 129 175 228 284 336 404
#     4  12  24  40  68 104 134 180 222 288 334 408
#     4  11  23  44  67  95 134 177 223 282 339 408
#     4  11  23  38  62  96 134 173 213 270 335 398
#     4  11  23  44  65  97 133 173 228 280 333 410
#
# _framework density 20.329180000000001
#
# number of rings (size 3 to 8) (size 9 to 14) (size 15 to 20)
#    0.000    0.828    4.138    3.310    0.000    3.310 
#    0.000    0.000    0.000    2.483    0.000    0.000 
#    0.000    0.000    0.000    0.000    0.000    0.000 
#
# Total GULP energy -324080.913601 kJ/mol
# GULP energy per Si atom -5587.601959 kJ/mol
# Density = 2.028291 g / cm^3
# Si number density = 20.329180 Si / 1000 Ang^3
#
#
#
# Elastic Constant Matrix: (Units=GPa)
#
#
# Indices 1 2 3 4 5 6 
#
# 1 109.9117 19.2611 9.5366 0.0000 0.0000 0.0000
# 2 19.2611 47.8486 -16.5755 0.0000 0.0000 0.0000
# 3 9.5366 -16.5755 44.2090 0.0000 0.0000 0.0000
# 4 0.0000 0.0000 0.0000 7.6605 0.0000 0.0000
# 5 0.0000 0.0000 0.0000 0.0000 -19.8364 0.0000
# 6 0.0000 0.0000 0.0000 0.0000 0.0000 31.3324
#
#
#
# Elastic Compliance Matrix: (Units=1/GPa)
#
#
# Indices 1 2 3 4 5 6 
#
# 1 0.010490 -0.005754 -0.004420 0.000000 0.000000 0.000000
# 2 -0.005754 0.027175 0.011430 0.000000 0.000000 0.000000
# 3 -0.004420 0.011430 0.027859 0.000000 0.000000 0.000000
# 4 0.000000 0.000000 0.000000 0.130540 0.000000 0.000000
# 5 0.000000 0.000000 0.000000 0.000000 -0.050412 0.000000
# 6 0.000000 0.000000 0.000000 0.000000 0.000000 0.031916
#
#
# Mechanical properties :
#
#
# Convention : Reuss Voigt Hill
#
# Bulk Modulus (GPa) = 14.69816 25.15706 19.92761
# Shear Modulus (GPa) = 25.28643 16.48111 20.88377
#
# Velocity S-wave (km/s) = 3.53065 2.85039 3.20860
# Velocity P-wave (km/s) = 4.88533 4.82024 4.85289
#
# Compressibility (1/GPa) = 0.06803574
#
# Stress axis : x y z
#
# Youngs Moduli (GPa) = 95.32836 36.79854 35.89526
#
# Poissons Ratio (x) = 0.21174 0.15866
# Poissons Ratio (y) = 0.54851 -0.41028
# Poissons Ratio (z) = 0.42137 -0.42061
#
# Static dielectric constant tensor:
#      x y z
#    x 1.754230 0.000000 0.000000 
#    y 0.000000 1.716200 0.000000 
#    z 0.000000 0.000000 1.726970 
# 
# From -- ./inp_files/50355.got.cif
#   From: 2010.05.17/outbox.cif.g08.bks.cpg/sg68_26_cif.got.tgz:50355.got - 2010.06.03 18:57:09.
