data_PCOD9507013
_publ_section_title
;
Structure prediction by ZEFSAII (Michael W. Deem and Ramdas Pophale) SiO2 
 PCOD9507013
Probable space group: C C C A
;
_chemical_formula_sum "Si O2"
_cell_formula_units_Z 72
_cell_length_a 8.424598
_cell_length_b 16.507193
_cell_length_c 27.195157
_cell_angle_alpha 90.000000
_cell_angle_beta 90.000000
_cell_angle_gamma 90.000000
_cell_volume 3781.934353
_symmetry_space_group_name_H-M "C C C A"
_symmetry_group_IT_number 68
_space_group.IT_coordinate_system_code '2'
_symmetry_cell_setting 'orthorhombic'
loop_
_space_group_symop_operation_xyz
x,y,z
-x,1/2-y,z
x,1/2-y,1/2-z
-x,y,1/2-z
-x,-y,-z
x,1/2+y,-z
-x,1/2+y,1/2+z
x,-y,1/2+z
1/2+x,1/2+y,z
1/2-x,-y,z
1/2+x,-y,1/2-z
1/2-x,1/2+y,1/2-z
1/2-x,1/2-y,-z
1/2+x,y,-z
1/2-x,y,1/2+z
1/2+x,1/2-y,1/2+z
loop_
_atom_site_type_symbol
_atom_site_label
_atom_site_fract_x
_atom_site_fract_y
_atom_site_fract_z
Si Si1 0.500000 0.750000 0.495948
Si Si2 0.811288 0.907855 0.237793
Si Si3 0.872843 0.676772 0.847097
Si Si4 0.753431 0.206247 0.425944
Si Si5 0.182408 0.410385 0.342558
O O1 0.379543 0.791178 0.533122
O O2 0.409606 0.690759 0.458655
O O3 0.753656 0.848989 0.194132
O O4 0.721654 0.881152 0.287578
O O5 0.000000 0.908530 0.250000
O O6 0.750000 0.000000 0.227515
O O7 0.784432 0.709984 0.895851
O O8 0.000000 0.750000 0.835142
O O9 0.995305 0.601867 0.852536
O O10 0.729125 0.142043 0.383466
O O11 0.250000 0.500000 0.344883
#
# Coordination Sequence:
#
# PCOD9507013 Si02
#       5
#     8  16  16  16  16
#     4  10  20  40  62  82 112 152 204 248 308 346
#     4  11  23  38  62  91 128 165 197 243 304 364
#     4  10  21  41  61  90 121 164 198 245 297 354
#     4  10  21  38  64  83 115 154 199 249 298 353
#     4  10  20  38  59  86 123 158 190 241 301 357
#
# _framework density 19.037875
#
# number of rings (size 3 to 8) (size 9 to 14) (size 15 to 20)
#    0.000    1.778    3.333    3.333    3.111    6.222 
#    0.000    5.556    0.000    0.000    0.000    0.000 
#    0.000    0.000    0.000    0.000    0.000    0.000 
#
# Total GULP energy -200461.195324 kJ/mol
# GULP energy per Si atom -5568.366537 kJ/mol
# Density = 1.899454 g / cm^3
# Si number density = 19.037875 Si / 1000 Ang^3
#
#
#
# Elastic Constant Matrix: (Units=GPa)
#
#
# Indices 1 2 3 4 5 6 
#
# 1 59.0962 19.7354 16.1236 0.0000 0.0000 0.0000
# 2 19.7354 40.2238 31.0659 0.0000 0.0000 0.0000
# 3 16.1236 31.0659 130.9189 0.0000 0.0000 0.0000
# 4 0.0000 0.0000 0.0000 9.3089 0.0000 0.0000
# 5 0.0000 0.0000 0.0000 0.0000 15.0046 0.0000
# 6 0.0000 0.0000 0.0000 0.0000 0.0000 23.1175
#
#
#
# Elastic Compliance Matrix: (Units=1/GPa)
#
#
# Indices 1 2 3 4 5 6 
#
# 1 0.020240 -0.009802 -0.000167 0.000000 0.000000 0.000000
# 2 -0.009802 0.035186 -0.007142 0.000000 0.000000 0.000000
# 3 -0.000167 -0.007142 0.009354 0.000000 0.000000 0.000000
# 4 0.000000 0.000000 0.000000 0.107425 0.000000 0.000000
# 5 0.000000 0.000000 0.000000 0.000000 0.066646 0.000000
# 6 0.000000 0.000000 0.000000 0.000000 0.000000 0.043257
#
#
# Mechanical properties :
#
#
# Convention : Reuss Voigt Hill
#
# Bulk Modulus (GPa) = 32.72420 40.45428 36.58924
# Shear Modulus (GPa) = 15.31317 20.37380 17.84348
#
# Velocity S-wave (km/s) = 2.83919 3.27490 3.06480
# Velocity P-wave (km/s) = 5.28907 5.96619 5.63781
#
# Compressibility (1/GPa) = 0.03055842
#
# Stress axis : x y z
#
# Youngs Moduli (GPa) = 49.40602 28.42020 106.91006
#
# Poissons Ratio (x) = 0.27857 0.01784
# Poissons Ratio (y) = 0.48427 0.76358
# Poissons Ratio (z) = 0.00824 0.20298
#
# Static dielectric constant tensor:
#      x y z
#    x 1.749870 0.000000 0.000000 
#    y 0.000000 1.692110 0.000000 
#    z 0.000000 0.000000 1.642040 
# 
# From -- ./inp_files/45871.got.cif
#   From: 2010.05.17/outbox.cif.g08.bks.cpg/sg68_23_cif.got.tgz:45871.got - 2010.06.03 18:57:09.
