data_PCOD9507834
_publ_section_title
;
Structure prediction by ZEFSAII (Michael W. Deem and Ramdas Pophale) SiO2 
 PCOD9507834
Probable space group: C C C A
;
_chemical_formula_sum "Si O2"
_cell_formula_units_Z 48
_cell_length_a 7.727437
_cell_length_b 7.998148
_cell_length_c 31.339362
_cell_angle_alpha 90.000000
_cell_angle_beta 90.000000
_cell_angle_gamma 90.000000
_cell_volume 1936.935060
_symmetry_space_group_name_H-M "C C C A"
_symmetry_group_IT_number 68
_space_group.IT_coordinate_system_code '2'
_symmetry_cell_setting 'orthorhombic'
loop_
_space_group_symop_operation_xyz
x,y,z
-x,1/2-y,z
x,1/2-y,1/2-z
-x,y,1/2-z
-x,-y,-z
x,1/2+y,-z
-x,1/2+y,1/2+z
x,-y,1/2+z
1/2+x,1/2+y,z
1/2-x,-y,z
1/2+x,-y,1/2-z
1/2-x,1/2+y,1/2-z
1/2-x,1/2-y,-z
1/2+x,y,-z
1/2-x,y,1/2+z
1/2+x,1/2-y,1/2+z
loop_
_atom_site_type_symbol
_atom_site_label
_atom_site_fract_x
_atom_site_fract_y
_atom_site_fract_z
Si Si1 0.000000 0.250000 0.141554
Si Si2 0.697017 0.696940 0.799237
Si Si3 0.500000 0.750000 0.506899
Si Si4 0.427849 0.052247 0.567453
O O1 0.161911 0.212785 0.171275
O O2 0.953960 0.108257 0.106480
O O3 0.500000 0.750000 0.810909
O O4 0.719580 0.750000 0.750000
O O5 0.750000 0.500000 0.802534
O O6 0.498996 0.593706 0.538416
O O7 0.632086 0.809532 0.468627
O O8 0.250000 0.000000 0.588617
#
# Coordination Sequence:
#
# PCOD9507834 Si02
#       4
#     8  16   8  16
#     4  11  27  44  73 112 156 190 259 328 393 467
#     4  11  29  51  83 114 155 209 257 319 399 490
#     4   9  20  40  63  96 140 198 263 300 384 469
#     4  10  21  38  67 100 142 199 250 320 381 461
#
# _framework density 24.781420000000001
#
# number of rings (size 3 to 8) (size 9 to 14) (size 15 to 20)
#    0.000    1.667    0.000    1.500   14.000    2.667 
#    0.000    3.333    0.000    0.000    0.000    0.000 
#    0.000    0.000    0.000    0.000    0.000    0.000 
#
# Total GULP energy -133621.690342 kJ/mol
# GULP energy per Si atom -5567.570431 kJ/mol
# Density = 2.472502 g / cm^3
# Si number density = 24.781420 Si / 1000 Ang^3
#
#
#
# Elastic Constant Matrix: (Units=GPa)
#
#
# Indices 1 2 3 4 5 6 
#
# 1 125.8600 32.0348 96.7677 0.0000 0.0000 0.0000
# 2 32.0348 74.5581 37.6290 0.0000 0.0000 0.0000
# 3 96.7677 37.6290 176.6194 0.0000 0.0000 0.0000
# 4 0.0000 0.0000 0.0000 45.2514 0.0000 0.0000
# 5 0.0000 0.0000 0.0000 0.0000 171.6223 0.0000
# 6 0.0000 0.0000 0.0000 0.0000 0.0000 27.6598
#
#
#
# Elastic Compliance Matrix: (Units=1/GPa)
#
#
# Indices 1 2 3 4 5 6 
#
# 1 0.014108 -0.002421 -0.007214 0.000000 0.000000 0.000000
# 2 -0.002421 0.015444 -0.001964 0.000000 0.000000 0.000000
# 3 -0.007214 -0.001964 0.010033 0.000000 0.000000 0.000000
# 4 0.000000 0.000000 0.000000 0.022099 0.000000 0.000000
# 5 0.000000 0.000000 0.000000 0.000000 0.005827 0.000000
# 6 0.000000 0.000000 0.000000 0.000000 0.000000 0.036154
#
#
# Mechanical properties :
#
#
# Convention : Reuss Voigt Hill
#
# Bulk Modulus (GPa) = 61.02371 78.87782 69.95077
# Shear Modulus (GPa) = 37.78645 62.94711 50.36678
#
# Velocity S-wave (km/s) = 3.90909 5.04540 4.51315
# Velocity P-wave (km/s) = 6.71215 8.11418 7.44624
#
# Compressibility (1/GPa) = 0.01638707
#
# Stress axis : x y z
#
# Youngs Moduli (GPa) = 70.88280 64.75129 99.67483
#
# Poissons Ratio (x) = 0.15675 0.71903
# Poissons Ratio (y) = 0.17160 0.19576
# Poissons Ratio (z) = 0.51133 0.12717
#
# Static dielectric constant tensor:
#      x y z
#    x 2.191110 0.000000 0.000000 
#    y 0.000000 2.356850 0.000000 
#    z 0.000000 0.000000 1.815660 
# 
# From -- ./inp_files/53677.got.cif
#   From: 2010.05.17/outbox.cif.g08.bks.cpg/sg68_27_cif.got.tgz:53677.got - 2010.06.03 18:57:09.
