data_PCOD9507904
_publ_section_title
;
Structure prediction by ZEFSAII (Michael W. Deem and Ramdas Pophale) SiO2 
 PCOD9507904
Probable space group: C C C A
;
_chemical_formula_sum "Si O2"
_cell_formula_units_Z 56
_cell_length_a 34.921103
_cell_length_b 4.942539
_cell_length_c 14.701555
_cell_angle_alpha 90.000000
_cell_angle_beta 90.000000
_cell_angle_gamma 90.000000
_cell_volume 2537.472420
_symmetry_space_group_name_H-M "C C C A"
_symmetry_group_IT_number 68
_space_group.IT_coordinate_system_code '2'
_symmetry_cell_setting 'orthorhombic'
loop_
_space_group_symop_operation_xyz
x,y,z
-x,1/2-y,z
x,1/2-y,1/2-z
-x,y,1/2-z
-x,-y,-z
x,1/2+y,-z
-x,1/2+y,1/2+z
x,-y,1/2+z
1/2+x,1/2+y,z
1/2-x,-y,z
1/2+x,-y,1/2-z
1/2-x,1/2+y,1/2-z
1/2-x,1/2-y,-z
1/2+x,y,-z
1/2-x,y,1/2+z
1/2+x,1/2-y,1/2+z
loop_
_atom_site_type_symbol
_atom_site_label
_atom_site_fract_x
_atom_site_fract_y
_atom_site_fract_z
Si Si1 0.431421 0.012396 0.189382
Si Si2 0.000000 0.750000 0.430193
Si Si3 0.792349 0.001261 0.317857
Si Si4 0.863388 0.346645 0.058107
O O1 0.443509 0.750000 0.250000
O O2 0.400829 0.906995 0.117070
O O3 0.412922 0.250000 0.250000
O O4 0.465314 0.169028 0.136845
O O5 0.000000 0.500000 0.500000
O O6 0.798295 0.750000 0.250000
O O7 0.791691 0.250000 0.250000
O O8 0.750000 0.000000 0.362314
O O9 0.826099 0.055071 0.387958
O O10 0.863831 0.532559 0.968179
#
# Coordination Sequence:
#
# PCOD9507904 Si02
#       4
#    16   8  16  16
#     4  12  25  44  68  94 127 170 216 259 317 392
#     4  12  25  44  67  96 130 160 204 266 327 378
#     4  10  21  39  62  89 125 170 215 260 315 381
#     4  12  24  40  63  94 129 166 212 267 324 374
#
# _framework density 22.069206999999999
#
# number of rings (size 3 to 8) (size 9 to 14) (size 15 to 20)
#    0.000    0.571    0.000    9.000    0.000    2.286 
#    0.000    0.000    0.000    0.000    0.000    0.000 
#    0.000    0.000    0.000    0.000    0.000    0.000 
#
# Total GULP energy -156590.577715 kJ/mol
# GULP energy per Si atom -5592.520633 kJ/mol
# Density = 2.201898 g / cm^3
# Si number density = 22.069207 Si / 1000 Ang^3
#
#
#
# Elastic Constant Matrix: (Units=GPa)
#
#
# Indices 1 2 3 4 5 6 
#
# 1 137.4371 0.2598 42.4877 0.0000 0.0000 0.0000
# 2 0.2598 127.7649 8.2211 0.0000 0.0000 0.0000
# 3 42.4877 8.2211 58.9404 0.0000 0.0000 0.0000
# 4 0.0000 0.0000 0.0000 38.6573 0.0000 0.0000
# 5 0.0000 0.0000 0.0000 0.0000 45.8151 0.0000
# 6 0.0000 0.0000 0.0000 0.0000 0.0000 7.2326
#
#
#
# Elastic Compliance Matrix: (Units=1/GPa)
#
#
# Indices 1 2 3 4 5 6 
#
# 1 0.009385 0.000420 -0.006824 0.000000 0.000000 0.000000
# 2 0.000420 0.007917 -0.001407 0.000000 0.000000 0.000000
# 3 -0.006824 -0.001407 0.022081 0.000000 0.000000 0.000000
# 4 0.000000 0.000000 0.000000 0.025868 0.000000 0.000000
# 5 0.000000 0.000000 0.000000 0.000000 0.021827 0.000000
# 6 0.000000 0.000000 0.000000 0.000000 0.000000 0.138263
#
#
# Mechanical properties :
#
#
# Convention : Reuss Voigt Hill
#
# Bulk Modulus (GPa) = 42.08497 47.34219 44.71358
# Shear Modulus (GPa) = 20.08977 36.55259 28.32118
#
# Velocity S-wave (km/s) = 3.02040 4.07415 3.58619
# Velocity P-wave (km/s) = 5.59238 6.60529 6.11983
#
# Compressibility (1/GPa) = 0.02376145
#
# Stress axis : x y z
#
# Youngs Moduli (GPa) = 106.55599 126.31759 45.28699
#
# Poissons Ratio (x) = -0.05305 0.30902
# Poissons Ratio (y) = -0.04475 0.06372
# Poissons Ratio (z) = 0.72710 0.17772
#
# Static dielectric constant tensor:
#      x y z
#    x 1.849880 0.000000 0.000000 
#    y 0.000000 1.753380 0.000000 
#    z 0.000000 0.000000 1.295910 
# 
# From -- ./inp_files/26232.got.cif
#   From: 2010.05.17/outbox.cif.g08.bks.cpg/sg68_14_cif.got.tgz:26232.got - 2010.06.03 18:57:09.
