data_PCOD9507508
_publ_section_title
;
Structure prediction by ZEFSAII (Michael W. Deem and Ramdas Pophale) SiO2 
 PCOD9507508
Probable space group: C C C A
;
_chemical_formula_sum "Si O2"
_cell_formula_units_Z 68
_cell_length_a 23.082862
_cell_length_b 16.371008
_cell_length_c 8.300616
_cell_angle_alpha 90.000000
_cell_angle_beta 90.000000
_cell_angle_gamma 90.000000
_cell_volume 3136.717443
_symmetry_space_group_name_H-M "C C C A"
_symmetry_group_IT_number 68
_space_group.IT_coordinate_system_code '2'
_symmetry_cell_setting 'orthorhombic'
loop_
_space_group_symop_operation_xyz
x,y,z
-x,1/2-y,z
x,1/2-y,1/2-z
-x,y,1/2-z
-x,-y,-z
x,1/2+y,-z
-x,1/2+y,1/2+z
x,-y,1/2+z
1/2+x,1/2+y,z
1/2-x,-y,z
1/2+x,-y,1/2-z
1/2-x,1/2+y,1/2-z
1/2-x,1/2-y,-z
1/2+x,y,-z
1/2-x,y,1/2+z
1/2+x,1/2-y,1/2+z
loop_
_atom_site_type_symbol
_atom_site_label
_atom_site_fract_x
_atom_site_fract_y
_atom_site_fract_z
Si Si1 0.805140 0.918167 0.317035
Si Si2 0.290011 0.670899 0.500150
Si Si3 0.411743 0.372778 0.885045
Si Si4 0.121914 0.977027 0.903060
Si Si5 0.500000 0.250000 0.750000
O O1 0.747542 0.902884 0.421373
O O2 0.821579 0.994132 0.200320
O O3 0.855984 0.923221 0.448249
O O4 0.804714 0.847089 0.185475
O O5 0.250000 0.750000 0.500000
O O6 0.349813 0.673002 0.402742
O O7 0.414571 0.424598 0.720356
O O8 0.461094 0.306302 0.866708
O O9 0.408870 0.441781 0.025955
#
# Coordination Sequence:
#
# PCOD9507508 Si02
#       5
#    16  16  16  16   4
#     4  10  21  34  60  94 129 168 208 266 335 418
#     4  11  23  37  60  99 140 175 212 277 353 411
#     4  10  24  43  69  94 135 175 234 280 341 402
#     4   9  21  43  66  96 130 176 225 280 336 414
#     4  12  28  44  68 102 132 182 236 292 336 408
#
# _framework density 21.678713999999999
#
# number of rings (size 3 to 8) (size 9 to 14) (size 15 to 20)
#    0.000    1.882    0.000    2.118    6.588   16.941 
#    0.000    0.000    0.000   12.706    0.000    0.000 
#    0.000    0.000    0.000    0.000    0.000    0.000 
#
# Total GULP energy -189672.916261 kJ/mol
# GULP energy per Si atom -5578.615184 kJ/mol
# Density = 2.162937 g / cm^3
# Si number density = 21.678714 Si / 1000 Ang^3
#
#
#
# Elastic Constant Matrix: (Units=GPa)
#
#
# Indices 1 2 3 4 5 6 
#
# 1 101.1300 71.2075 28.7287 0.0000 0.0000 0.0000
# 2 71.2075 128.1216 57.4298 0.0000 0.0000 0.0000
# 3 28.7287 57.4298 126.0223 0.0000 0.0000 0.0000
# 4 0.0000 0.0000 0.0000 27.9627 0.0000 0.0000
# 5 0.0000 0.0000 0.0000 0.0000 16.5588 0.0000
# 6 0.0000 0.0000 0.0000 0.0000 0.0000 62.3356
#
#
#
# Elastic Compliance Matrix: (Units=1/GPa)
#
#
# Indices 1 2 3 4 5 6 
#
# 1 0.016273 -0.009276 0.000518 0.000000 0.000000 0.000000
# 2 -0.009276 0.015096 -0.004765 0.000000 0.000000 0.000000
# 3 0.000518 -0.004765 0.009989 0.000000 0.000000 0.000000
# 4 0.000000 0.000000 0.000000 0.035762 0.000000 0.000000
# 5 0.000000 0.000000 0.000000 0.000000 0.060391 0.000000
# 6 0.000000 0.000000 0.000000 0.000000 0.000000 0.016042
#
#
# Mechanical properties :
#
#
# Convention : Reuss Voigt Hill
#
# Bulk Modulus (GPa) = 69.87744 74.44510 72.16127
# Shear Modulus (GPa) = 26.97313 34.56528 30.76921
#
# Velocity S-wave (km/s) = 3.53118 3.99737 3.77148
# Velocity P-wave (km/s) = 6.99491 7.46458 7.23356
#
# Compressibility (1/GPa) = 0.01431077
#
# Stress axis : x y z
#
# Youngs Moduli (GPa) = 61.45278 66.24087 100.11436
#
# Poissons Ratio (x) = 0.61445 -0.05182
# Poissons Ratio (y) = 0.57004 0.47705
# Poissons Ratio (z) = -0.03181 0.31564
#
# Static dielectric constant tensor:
#      x y z
#    x 1.806910 0.000000 0.000000 
#    y 0.000000 1.897130 0.000000 
#    z 0.000000 0.000000 1.792000 
# 
# From -- ./inp_files/6825.got.cif
#   From: 2010.05.17/outbox.cif.g08.bks.cpg/sg68_4_cif.got.tgz:6825.got - 2010.06.03 18:57:09.
