data_PCOD9507971
_publ_section_title
;
Structure prediction by ZEFSAII (Michael W. Deem and Ramdas Pophale) SiO2 
 PCOD9507971
Probable space group: C C C A
;
_chemical_formula_sum "Si O2"
_cell_formula_units_Z 56
_cell_length_a 13.457523
_cell_length_b 5.610891
_cell_length_c 29.344949
_cell_angle_alpha 90.000000
_cell_angle_beta 90.000000
_cell_angle_gamma 90.000000
_cell_volume 2215.798795
_symmetry_space_group_name_H-M "C C C A"
_symmetry_group_IT_number 68
_space_group.IT_coordinate_system_code '2'
_symmetry_cell_setting 'orthorhombic'
loop_
_space_group_symop_operation_xyz
x,y,z
-x,1/2-y,z
x,1/2-y,1/2-z
-x,y,1/2-z
-x,-y,-z
x,1/2+y,-z
-x,1/2+y,1/2+z
x,-y,1/2+z
1/2+x,1/2+y,z
1/2-x,-y,z
1/2+x,-y,1/2-z
1/2-x,1/2+y,1/2-z
1/2-x,1/2-y,-z
1/2+x,y,-z
1/2-x,y,1/2+z
1/2+x,1/2-y,1/2+z
loop_
_atom_site_type_symbol
_atom_site_label
_atom_site_fract_x
_atom_site_fract_y
_atom_site_fract_z
Si Si1 0.147571 0.876255 0.386012
Si Si2 0.136791 0.724335 0.482241
Si Si3 0.000000 0.250000 0.158827
Si Si4 0.111176 0.138324 0.704014
O O1 0.124349 0.703250 0.427970
O O2 0.167758 0.733363 0.339798
O O3 0.250000 0.000000 0.399852
O O4 0.059756 0.061509 0.372719
O O5 0.097742 0.487103 0.505935
O O6 0.250000 0.750000 0.500000
O O7 0.917010 0.366241 0.192573
O O8 0.156057 0.250000 0.750000
O O9 0.000000 0.250000 0.702681
#
# Coordination Sequence:
#
# PCOD9507971 Si02
#       4
#    16  16   8  16
#     4  11  23  41  68 100 135 180 233 295 351 436
#     4  10  21  39  67  97 134 186 234 290 368 420
#     4  10  24  43  70  96 138 184 232 286 363 426
#     4   9  21  42  67  99 133 177 223 277 352 415
#
# _framework density 25.273050999999999
#
# number of rings (size 3 to 8) (size 9 to 14) (size 15 to 20)
#    0.000    2.000    2.857    0.000    4.000   10.286 
#    5.143    1.429    0.000    0.000    0.000    0.000 
#    0.000    0.000    0.000    0.000    0.000    0.000 
#
# Total GULP energy -156304.567984 kJ/mol
# GULP energy per Si atom -5582.305999 kJ/mol
# Density = 2.521553 g / cm^3
# Si number density = 25.273051 Si / 1000 Ang^3
#
#
#
# Elastic Constant Matrix: (Units=GPa)
#
#
# Indices 1 2 3 4 5 6 
#
# 1 94.9474 -4.7037 -6.0133 0.0000 0.0000 0.0000
# 2 -4.7037 87.4735 22.3922 0.0000 0.0000 0.0000
# 3 -6.0133 22.3922 190.2815 0.0000 0.0000 0.0000
# 4 0.0000 0.0000 0.0000 -14.3384 0.0000 0.0000
# 5 0.0000 0.0000 0.0000 0.0000 29.6030 0.0000
# 6 0.0000 0.0000 0.0000 0.0000 0.0000 -7.8786
#
#
#
# Elastic Compliance Matrix: (Units=1/GPa)
#
#
# Indices 1 2 3 4 5 6 
#
# 1 0.010574 0.000498 0.000276 0.000000 0.000000 0.000000
# 2 0.000498 0.011811 -0.001374 0.000000 0.000000 0.000000
# 3 0.000276 -0.001374 0.005426 0.000000 0.000000 0.000000
# 4 0.000000 0.000000 0.000000 -0.069743 0.000000 0.000000
# 5 0.000000 0.000000 0.000000 0.000000 0.033780 0.000000
# 6 0.000000 0.000000 0.000000 0.000000 0.000000 -0.126925
#
#
# Mechanical properties :
#
#
# Convention : Reuss Voigt Hill
#
# Bulk Modulus (GPa) = 37.58035 44.00586 40.79310
# Shear Modulus (GPa) = -39.99800 25.54566 -7.22617
#
# Velocity S-wave (km/s) = -3.98255 3.18274 -1.69276
# Velocity P-wave (km/s) = 2.49912 5.56385 3.51502
#
# Compressibility (1/GPa) = 0.02660965
#
# Stress axis : x y z
#
# Youngs Moduli (GPa) = 94.56912 84.66988 184.30507
#
# Poissons Ratio (x) = -0.04217 -0.05079
# Poissons Ratio (y) = -0.04710 0.25326
# Poissons Ratio (z) = -0.02606 0.11635
#
# Static dielectric constant tensor:
#      x y z
#    x 2.047000 0.000000 0.000000 
#    y 0.000000 2.102980 0.000000 
#    z 0.000000 0.000000 1.973900 
# 
# From -- ./inp_files/47994.got.cif
#   From: 2010.05.17/outbox.cif.g08.bks.cpg/sg68_24_cif.got.tgz:47994.got - 2010.06.03 18:57:09.
