data_PCOD9507159
_publ_section_title
;
Structure prediction by ZEFSAII (Michael W. Deem and Ramdas Pophale) SiO2 
 PCOD9507159
Probable space group: C C C A
;
_chemical_formula_sum "Si O2"
_cell_formula_units_Z 68
_cell_length_a 20.635103
_cell_length_b 5.153632
_cell_length_c 27.168543
_cell_angle_alpha 90.000000
_cell_angle_beta 90.000000
_cell_angle_gamma 90.000000
_cell_volume 2889.258461
_symmetry_space_group_name_H-M "C C C A"
_symmetry_group_IT_number 68
_space_group.IT_coordinate_system_code '2'
_symmetry_cell_setting 'orthorhombic'
loop_
_space_group_symop_operation_xyz
x,y,z
-x,1/2-y,z
x,1/2-y,1/2-z
-x,y,1/2-z
-x,-y,-z
x,1/2+y,-z
-x,1/2+y,1/2+z
x,-y,1/2+z
1/2+x,1/2+y,z
1/2-x,-y,z
1/2+x,-y,1/2-z
1/2-x,1/2+y,1/2-z
1/2-x,1/2-y,-z
1/2+x,y,-z
1/2-x,y,1/2+z
1/2+x,1/2-y,1/2+z
loop_
_atom_site_type_symbol
_atom_site_label
_atom_site_fract_x
_atom_site_fract_y
_atom_site_fract_z
Si Si1 0.609449 0.977374 0.880858
Si Si2 0.107043 0.476610 0.186255
Si Si3 0.500000 0.250000 0.250000
Si Si4 0.750000 0.000000 0.377998
Si Si5 0.928558 0.668378 0.519325
Si Si6 0.750000 0.500000 0.308628
O O1 0.601837 0.191794 0.837743
O O2 0.564751 0.056449 0.925932
O O3 0.604693 0.692950 0.857428
O O4 0.681461 0.004277 0.904210
O O5 0.047642 0.562833 0.219596
O O6 0.177437 0.497328 0.214082
O O7 0.749535 0.248058 0.342631
O O8 0.895835 0.450762 0.485160
O O9 0.000000 0.750000 0.500851
#
# Coordination Sequence:
#
# PCOD9507159 Si02
#       6
#    16  16   4   8  16   8
#     4  10  20  39  62  83 116 166 195 244 309 367
#     4  10  23  38  62  86 126 157 206 247 313 369
#     4  12  28  42  60 106 128 148 208 286 308 362
#     4   8  16  32  59  85 106 146 214 238 274 367
#     4  10  21  35  54  83 118 152 201 245 289 364
#     4   8  16  38  57  81 110 166 198 238 292 379
#
# _framework density 23.535450000000001
#
# number of rings (size 3 to 8) (size 9 to 14) (size 15 to 20)
#    0.000    2.353    0.000    1.412    3.294    1.882 
#    0.000    8.235    0.000    0.000    0.000    0.000 
#    0.000    0.000    0.000    0.000    0.000    0.000 
#
# Total GULP energy -189647.754807 kJ/mol
# GULP energy per Si atom -5577.875141 kJ/mol
# Density = 2.348188 g / cm^3
# Si number density = 23.535450 Si / 1000 Ang^3
#
#
#
# Elastic Constant Matrix: (Units=GPa)
#
#
# Indices 1 2 3 4 5 6 
#
# 1 120.7546 -7.7488 34.8695 0.0000 0.0000 0.0000
# 2 -7.7488 141.1510 5.8220 0.0000 0.0000 0.0000
# 3 34.8695 5.8220 53.6922 0.0000 0.0000 0.0000
# 4 0.0000 0.0000 0.0000 29.2607 0.0000 0.0000
# 5 0.0000 0.0000 0.0000 0.0000 136.1318 0.0000
# 6 0.0000 0.0000 0.0000 0.0000 0.0000 26.9989
#
#
#
# Elastic Compliance Matrix: (Units=1/GPa)
#
#
# Indices 1 2 3 4 5 6 
#
# 1 0.010292 0.000844 -0.006776 0.000000 0.000000 0.000000
# 2 0.000844 0.007186 -0.001328 0.000000 0.000000 0.000000
# 3 -0.006776 -0.001328 0.023169 0.000000 0.000000 0.000000
# 4 0.000000 0.000000 0.000000 0.034176 0.000000 0.000000
# 5 0.000000 0.000000 0.000000 0.000000 0.007346 0.000000
# 6 0.000000 0.000000 0.000000 0.000000 0.000000 0.037039
#
#
# Mechanical properties :
#
#
# Convention : Reuss Voigt Hill
#
# Bulk Modulus (GPa) = 38.27122 42.38702 40.32912
# Shear Modulus (GPa) = 35.10407 57.32194 46.21300
#
# Velocity S-wave (km/s) = 3.86624 4.94049 4.43600
# Velocity P-wave (km/s) = 6.01887 7.11291 6.58864
#
# Compressibility (1/GPa) = 0.02612930
#
# Stress axis : x y z
#
# Youngs Moduli (GPa) = 97.16311 139.16475 43.16132
#
# Poissons Ratio (x) = -0.11752 0.29244
# Poissons Ratio (y) = -0.08205 0.05730
# Poissons Ratio (z) = 0.65833 0.18475
#
# Static dielectric constant tensor:
#      x y z
#    x 2.008240 0.000000 0.000000 
#    y 0.000000 1.996890 0.000000 
#    z 0.000000 0.000000 1.851180 
# 
# From -- ./inp_files/48215.got.cif
#   From: 2010.05.17/outbox.cif.g08.bks.cpg/sg68_25_cif.got.tgz:48215.got - 2010.06.03 18:57:09.
