data_PCOD9507813
_publ_section_title
;
Structure prediction by ZEFSAII (Michael W. Deem and Ramdas Pophale) SiO2 
 PCOD9507813
Probable space group: C C C A
;
_chemical_formula_sum "Si O2"
_cell_formula_units_Z 80
_cell_length_a 11.689851
_cell_length_b 19.950220
_cell_length_c 16.499422
_cell_angle_alpha 90.000000
_cell_angle_beta 90.000000
_cell_angle_gamma 90.000000
_cell_volume 3847.914339
_symmetry_space_group_name_H-M "C C C A"
_symmetry_group_IT_number 68
_space_group.IT_coordinate_system_code '2'
_symmetry_cell_setting 'orthorhombic'
loop_
_space_group_symop_operation_xyz
x,y,z
-x,1/2-y,z
x,1/2-y,1/2-z
-x,y,1/2-z
-x,-y,-z
x,1/2+y,-z
-x,1/2+y,1/2+z
x,-y,1/2+z
1/2+x,1/2+y,z
1/2-x,-y,z
1/2+x,-y,1/2-z
1/2-x,1/2+y,1/2-z
1/2-x,1/2-y,-z
1/2+x,y,-z
1/2-x,y,1/2+z
1/2+x,1/2-y,1/2+z
loop_
_atom_site_type_symbol
_atom_site_label
_atom_site_fract_x
_atom_site_fract_y
_atom_site_fract_z
Si Si1 0.119344 0.376497 0.988503
Si Si2 0.608026 0.113940 0.294356
Si Si3 0.633929 0.909018 0.458225
Si Si4 0.793793 0.250000 0.750000
Si Si5 0.250000 0.000000 0.166239
Si Si6 0.626546 0.254872 0.600180
O O1 0.106321 0.373860 0.890948
O O2 0.242774 0.412241 0.006819
O O3 0.127572 0.302570 0.030329
O O4 0.998689 0.411456 0.013506
O O5 0.500000 0.083372 0.250000
O O6 0.631366 0.184275 0.254177
O O7 0.708788 0.061713 0.281642
O O8 0.642293 0.831110 0.429529
O O9 0.653036 0.966836 0.391162
O O10 0.718019 0.243442 0.669678
O O11 0.500000 0.250000 0.636807
#
# Coordination Sequence:
#
# PCOD9507813 Si02
#       6
#    16  16  16   8   8  16
#     4  10  22  41  68  96 132 174 221 285 338 400
#     4  11  26  43  66  99 137 175 229 284 347 406
#     4  10  21  39  67  93 131 177 219 275 330 413
#     4  12  22  40  66 100 130 176 224 294 332 414
#     4  10  22  50  60  90 142 180 220 286 342 410
#     4  10  21  38  64  99 131 169 226 278 339 401
#
# _framework density 20.790482000000001
#
# number of rings (size 3 to 8) (size 9 to 14) (size 15 to 20)
#    0.000    1.600    4.000    1.200    2.800    6.400 
#    7.200    1.000    0.000    0.000    0.000    0.000 
#    0.000    0.000    0.000    0.000    0.000    0.000 
#
# Total GULP energy -222697.544852 kJ/mol
# GULP energy per Si atom -5567.438621 kJ/mol
# Density = 2.074316 g / cm^3
# Si number density = 20.790482 Si / 1000 Ang^3
#
#
#
# Elastic Constant Matrix: (Units=GPa)
#
#
# Indices 1 2 3 4 5 6 
#
# 1 135.1934 11.9817 6.6178 0.0000 0.0000 0.0000
# 2 11.9817 87.2673 -4.1730 0.0000 0.0000 0.0000
# 3 6.6178 -4.1730 24.5302 0.0000 0.0000 0.0000
# 4 0.0000 0.0000 0.0000 15.8344 0.0000 0.0000
# 5 0.0000 0.0000 0.0000 0.0000 39.8438 0.0000
# 6 0.0000 0.0000 0.0000 0.0000 0.0000 13.6072
#
#
#
# Elastic Compliance Matrix: (Units=1/GPa)
#
#
# Indices 1 2 3 4 5 6 
#
# 1 0.007609 -0.001152 -0.002249 0.000000 0.000000 0.000000
# 2 -0.001152 0.011728 0.002306 0.000000 0.000000 0.000000
# 3 -0.002249 0.002306 0.041765 0.000000 0.000000 0.000000
# 4 0.000000 0.000000 0.000000 0.063154 0.000000 0.000000
# 5 0.000000 0.000000 0.000000 0.000000 0.025098 0.000000
# 6 0.000000 0.000000 0.000000 0.000000 0.000000 0.073490
#
#
# Mechanical properties :
#
#
# Convention : Reuss Voigt Hill
#
# Bulk Modulus (GPa) = 16.97465 30.64932 23.81198
# Shear Modulus (GPa) = 20.43560 29.36138 24.89849
#
# Velocity S-wave (km/s) = 3.13857 3.76207 3.46438
# Velocity P-wave (km/s) = 4.61698 5.80042 5.24221
#
# Compressibility (1/GPa) = 0.05891139
#
# Stress axis : x y z
#
# Youngs Moduli (GPa) = 131.42316 85.26955 23.94344
#
# Poissons Ratio (x) = 0.09825 0.05384
# Poissons Ratio (y) = 0.15143 -0.05521
# Poissons Ratio (z) = 0.29554 -0.19662
#
# Static dielectric constant tensor:
#      x y z
#    x 1.797180 0.000000 0.000000 
#    y 0.000000 1.758420 0.000000 
#    z 0.000000 0.000000 1.746450 
# 
# From -- ./inp_files/29577.got.cif
#   From: 2010.05.17/outbox.cif.g08.bks.cpg/sg68_15_cif.got.tgz:29577.got - 2010.06.03 18:57:09.
