data_PCOD9507752
_publ_section_title
;
Structure prediction by ZEFSAII (Michael W. Deem and Ramdas Pophale) SiO2 
 PCOD9507752
Probable space group: C C C A
;
_chemical_formula_sum "Si O2"
_cell_formula_units_Z 88
_cell_length_a 5.287947
_cell_length_b 25.757717
_cell_length_c 27.129666
_cell_angle_alpha 90.000000
_cell_angle_beta 90.000000
_cell_angle_gamma 90.000000
_cell_volume 3695.208158
_symmetry_space_group_name_H-M "C C C A"
_symmetry_group_IT_number 68
_space_group.IT_coordinate_system_code '2'
_symmetry_cell_setting 'orthorhombic'
loop_
_space_group_symop_operation_xyz
x,y,z
-x,1/2-y,z
x,1/2-y,1/2-z
-x,y,1/2-z
-x,-y,-z
x,1/2+y,-z
-x,1/2+y,1/2+z
x,-y,1/2+z
1/2+x,1/2+y,z
1/2-x,-y,z
1/2+x,-y,1/2-z
1/2-x,1/2+y,1/2-z
1/2-x,1/2-y,-z
1/2+x,y,-z
1/2-x,y,1/2+z
1/2+x,1/2-y,1/2+z
loop_
_atom_site_type_symbol
_atom_site_label
_atom_site_fract_x
_atom_site_fract_y
_atom_site_fract_z
Si Si1 0.212018 0.337125 0.528514
Si Si2 0.250000 0.000000 0.610485
Si Si3 0.392342 0.886581 0.323788
Si Si4 0.749329 0.717682 0.868573
Si Si5 0.858434 0.558446 0.929722
Si Si6 0.416914 0.942753 0.702719
O O1 0.483885 0.321694 0.506935
O O2 0.165112 0.311869 0.581590
O O3 0.238081 0.399714 0.534356
O O4 0.437318 0.976061 0.652001
O O5 0.156897 0.954972 0.574167
O O6 0.361668 0.825285 0.330995
O O7 0.344007 0.912579 0.377065
O O8 0.654197 0.911334 0.304438
O O9 0.149897 0.903753 0.293495
O O10 0.500000 0.750000 0.851910
O O11 0.000000 0.750000 0.881316
O O12 0.750000 0.500000 0.934481
O O13 0.500000 0.977896 0.750000
#
# Coordination Sequence:
#
# PCOD9507752 Si02
#       6
#    16   8  16  16  16  16
#     4  11  26  41  59  92 128 159 206 265 321 380
#     4  10  22  36  60  88 124 170 228 248 288 364
#     4  10  22  40  61  92 126 161 209 254 303 380
#     4  11  23  42  71  93 116 161 212 264 323 381
#     4  10  21  38  61  81 124 172 213 249 302 359
#     4  11  22  37  61  92 131 166 199 256 313 357
#
# _framework density 23.814627000000002
#
# number of rings (size 3 to 8) (size 9 to 14) (size 15 to 20)
#    0.000    1.455    1.818    2.727    2.545    8.727 
#    0.000    0.000    0.000    8.182    0.000    0.000 
#    0.000    0.000    0.000    0.000    0.000    0.000 
#
# Total GULP energy -245088.773631 kJ/mol
# GULP energy per Si atom -5570.199401 kJ/mol
# Density = 2.376042 g / cm^3
# Si number density = 23.814627 Si / 1000 Ang^3
#
#
#
# Elastic Constant Matrix: (Units=GPa)
#
#
# Indices 1 2 3 4 5 6 
#
# 1 127.2252 33.6766 28.1733 0.0000 0.0000 0.0000
# 2 33.6766 102.4333 3.5573 0.0000 0.0000 0.0000
# 3 28.1733 3.5573 38.0602 0.0000 0.0000 0.0000
# 4 0.0000 0.0000 0.0000 59.6131 0.0000 0.0000
# 5 0.0000 0.0000 0.0000 0.0000 22.9470 0.0000
# 6 0.0000 0.0000 0.0000 0.0000 0.0000 27.2153
#
#
#
# Elastic Compliance Matrix: (Units=1/GPa)
#
#
# Indices 1 2 3 4 5 6 
#
# 1 0.010317 -0.003137 -0.007343 0.000000 0.000000 0.000000
# 2 -0.003137 0.010748 0.001317 0.000000 0.000000 0.000000
# 3 -0.007343 0.001317 0.031587 0.000000 0.000000 0.000000
# 4 0.000000 0.000000 0.000000 0.016775 0.000000 0.000000
# 5 0.000000 0.000000 0.000000 0.000000 0.043579 0.000000
# 6 0.000000 0.000000 0.000000 0.000000 0.000000 0.036744
#
#
# Mechanical properties :
#
#
# Convention : Reuss Voigt Hill
#
# Bulk Modulus (GPa) = 29.13269 44.28146 36.70708
# Shear Modulus (GPa) = 27.85262 35.44251 31.64756
#
# Velocity S-wave (km/s) = 3.42359 3.86199 3.64938
# Velocity P-wave (km/s) = 5.28088 6.20655 5.76233
#
# Compressibility (1/GPa) = 0.03432570
#
# Stress axis : x y z
#
# Youngs Moduli (GPa) = 96.93192 93.04099 31.65879
#
# Poissons Ratio (x) = 0.29184 0.23248
# Poissons Ratio (y) = 0.30405 -0.04170
# Poissons Ratio (z) = 0.71181 -0.12257
#
# Static dielectric constant tensor:
#      x y z
#    x 1.941830 0.000000 0.000000 
#    y 0.000000 1.993160 0.000000 
#    z 0.000000 0.000000 1.987460 
# 
# From -- ./inp_files/53252.got.cif
#   From: 2010.05.17/outbox.cif.g08.bks.cpg/sg68_27_cif.got.tgz:53252.got - 2010.06.03 18:57:09.
