data_PCOD9507529
_publ_section_title
;
Structure prediction by ZEFSAII (Michael W. Deem and Ramdas Pophale) SiO2 
 PCOD9507529
Probable space group: C C C A
;
_chemical_formula_sum "Si O2"
_cell_formula_units_Z 52
_cell_length_a 5.272046
_cell_length_b 14.175518
_cell_length_c 29.399581
_cell_angle_alpha 90.000000
_cell_angle_beta 90.000000
_cell_angle_gamma 90.000000
_cell_volume 2197.147786
_symmetry_space_group_name_H-M "C C C A"
_symmetry_group_IT_number 68
_space_group.IT_coordinate_system_code '2'
_symmetry_cell_setting 'orthorhombic'
loop_
_space_group_symop_operation_xyz
x,y,z
-x,1/2-y,z
x,1/2-y,1/2-z
-x,y,1/2-z
-x,-y,-z
x,1/2+y,-z
-x,1/2+y,1/2+z
x,-y,1/2+z
1/2+x,1/2+y,z
1/2-x,-y,z
1/2+x,-y,1/2-z
1/2-x,1/2+y,1/2-z
1/2-x,1/2-y,-z
1/2+x,y,-z
1/2-x,y,1/2+z
1/2+x,1/2-y,1/2+z
loop_
_atom_site_type_symbol
_atom_site_label
_atom_site_fract_x
_atom_site_fract_y
_atom_site_fract_z
Si Si1 0.261544 0.613674 0.820626
Si Si2 0.000000 0.750000 0.750000
Si Si3 0.238860 0.612578 0.623552
Si Si4 0.230249 0.645364 0.019972
O O1 0.250000 0.500000 0.810105
O O2 0.538965 0.636193 0.840624
O O3 0.177418 0.679858 0.779315
O O4 0.042109 0.633814 0.858101
O O5 0.250000 0.500000 0.618128
O O6 0.293893 0.652365 0.573931
O O7 0.250000 0.750000 0.000000
O O8 0.493154 0.599833 0.005113
#
# Coordination Sequence:
#
# PCOD9507529 Si02
#       4
#    16   4  16  16
#     4  10  25  46  70 101 137 176 229 288 345 426
#     4  12  28  46  80 108 136 186 232 294 376 424
#     4  10  22  43  65  91 135 182 221 278 348 406
#     4  10  21  35  57  89 125 167 217 274 321 385
#
# _framework density 23.667045000000002
#
# number of rings (size 3 to 8) (size 9 to 14) (size 15 to 20)
#    0.000    1.846    0.000    1.846    0.000   16.000 
#    0.000    0.000    0.000    0.000    0.000    0.000 
#    0.000    0.000    0.000    0.000    0.000    0.000 
#
# Total GULP energy -145497.851571 kJ/mol
# GULP energy per Si atom -5596.071214 kJ/mol
# Density = 2.361318 g / cm^3
# Si number density = 23.667045 Si / 1000 Ang^3
#
#
#
# Elastic Constant Matrix: (Units=GPa)
#
#
# Indices 1 2 3 4 5 6 
#
# 1 154.7416 8.2765 24.8613 0.0000 0.0000 0.0000
# 2 8.2765 130.3101 49.4268 0.0000 0.0000 0.0000
# 3 24.8613 49.4268 136.2436 0.0000 0.0000 0.0000
# 4 0.0000 0.0000 0.0000 51.5114 0.0000 0.0000
# 5 0.0000 0.0000 0.0000 0.0000 32.8440 0.0000
# 6 0.0000 0.0000 0.0000 0.0000 0.0000 3.0590
#
#
#
# Elastic Compliance Matrix: (Units=1/GPa)
#
#
# Indices 1 2 3 4 5 6 
#
# 1 0.006658 0.000044 -0.001231 0.000000 0.000000 0.000000
# 2 0.000044 0.008899 -0.003236 0.000000 0.000000 0.000000
# 3 -0.001231 -0.003236 0.008738 0.000000 0.000000 0.000000
# 4 0.000000 0.000000 0.000000 0.019413 0.000000 0.000000
# 5 0.000000 0.000000 0.000000 0.000000 0.030447 0.000000
# 6 0.000000 0.000000 0.000000 0.000000 0.000000 0.326900
#
#
# Mechanical properties :
#
#
# Convention : Reuss Voigt Hill
#
# Bulk Modulus (GPa) = 64.73063 65.15828 64.94445
# Shear Modulus (GPa) = 12.04672 40.06493 26.05582
#
# Velocity S-wave (km/s) = 2.25857 4.11890 3.32163
# Velocity P-wave (km/s) = 5.84905 7.08600 6.49703
#
# Compressibility (1/GPa) = 0.01544864
#
# Stress axis : x y z
#
# Youngs Moduli (GPa) = 150.20008 112.37520 114.43628
#
# Poissons Ratio (x) = -0.00494 0.14085
# Poissons Ratio (y) = -0.00661 0.37036
# Poissons Ratio (z) = 0.18487 0.36368
#
# Static dielectric constant tensor:
#      x y z
#    x 1.788760 0.000000 0.000000 
#    y 0.000000 1.856770 0.000000 
#    z 0.000000 0.000000 1.838360 
# 
# From -- ./inp_files/51119.got.cif
#   From: 2010.05.17/outbox.cif.g08.bks.cpg/sg68_26_cif.got.tgz:51119.got - 2010.06.03 18:57:09.
