data_PCOD9507179
_publ_section_title
;
Structure prediction by ZEFSAII (Michael W. Deem and Ramdas Pophale) SiO2 
 PCOD9507179
Probable space group: C C C A
;
_chemical_formula_sum "Si O2"
_cell_formula_units_Z 100
_cell_length_a 32.108348
_cell_length_b 26.109088
_cell_length_c 5.453076
_cell_angle_alpha 90.000000
_cell_angle_beta 90.000000
_cell_angle_gamma 90.000000
_cell_volume 4571.420946
_symmetry_space_group_name_H-M "C C C A"
_symmetry_group_IT_number 68
_space_group.IT_coordinate_system_code '2'
_symmetry_cell_setting 'orthorhombic'
loop_
_space_group_symop_operation_xyz
x,y,z
-x,1/2-y,z
x,1/2-y,1/2-z
-x,y,1/2-z
-x,-y,-z
x,1/2+y,-z
-x,1/2+y,1/2+z
x,-y,1/2+z
1/2+x,1/2+y,z
1/2-x,-y,z
1/2+x,-y,1/2-z
1/2-x,1/2+y,1/2-z
1/2-x,1/2-y,-z
1/2+x,y,-z
1/2-x,y,1/2+z
1/2+x,1/2-y,1/2+z
loop_
_atom_site_type_symbol
_atom_site_label
_atom_site_fract_x
_atom_site_fract_y
_atom_site_fract_z
Si Si1 0.276561 0.155745 0.140050
Si Si2 0.907400 0.001796 0.057938
Si Si3 0.147410 0.395478 0.027320
Si Si4 0.615834 0.889155 0.533400
Si Si5 0.500000 0.750000 0.750000
Si Si6 0.892384 0.250000 0.250000
Si Si7 0.838533 0.750000 0.250000
Si Si8 0.457690 0.827957 0.118940
O O1 0.252738 0.156991 0.399688
O O2 0.306103 0.106676 0.079678
O O3 0.307733 0.204149 0.163223
O O4 0.877125 0.050956 0.056238
O O5 0.932373 0.000371 0.807777
O O6 0.879743 0.950271 0.057683
O O7 0.124138 0.367040 0.802640
O O8 0.144243 0.372464 0.302037
O O9 0.568414 0.875778 0.474216
O O10 0.471726 0.712766 0.585826
O O11 0.866221 0.240684 0.501676
O O12 0.924233 0.297493 0.284126
O O13 0.500000 0.842988 0.250000
#
# Coordination Sequence:
#
# PCOD9507179 Si02
#       8
#    16  16  16  16   4   8   8  16
#     4  12  24  40  60  90 129 166 204 258 327 378
#     4   8  16  33  60  87 116 149 202 262 306 355
#     4  10  20  39  63  94 119 162 212 265 308 380
#     4  10  21  37  65  91 118 165 214 256 309 376
#     4  12  24  44  56  86 138 178 200 260 328 386
#     4  12  23  41  62  88 118 166 219 255 304 361
#     4  12  25  41  63  88 123 166 221 262 299 375
#     4  12  25  40  61  91 132 170 206 264 321 378
#
# _framework density 21.875038
#
# number of rings (size 3 to 8) (size 9 to 14) (size 15 to 20)
#    0.000    1.280    1.600    4.800    2.240    0.000 
#    0.000    0.000    0.000   34.560    0.000    0.000 
#    0.000    0.000    0.000    0.000    0.000    0.000 
#
# Total GULP energy -278413.668159 kJ/mol
# GULP energy per Si atom -5568.273363 kJ/mol
# Density = 2.182525 g / cm^3
# Si number density = 21.875038 Si / 1000 Ang^3
#
#
#
# Elastic Constant Matrix: (Units=GPa)
#
#
# Indices 1 2 3 4 5 6 
#
# 1 83.5522 14.5658 29.8894 0.0000 0.0000 0.0000
# 2 14.5658 51.2571 8.6277 0.0000 0.0000 0.0000
# 3 29.8894 8.6277 194.5108 0.0000 0.0000 0.0000
# 4 0.0000 0.0000 0.0000 17.2159 0.0000 0.0000
# 5 0.0000 0.0000 0.0000 0.0000 34.6101 0.0000
# 6 0.0000 0.0000 0.0000 0.0000 0.0000 8.4048
#
#
#
# Elastic Compliance Matrix: (Units=1/GPa)
#
#
# Indices 1 2 3 4 5 6 
#
# 1 0.013243 -0.003446 -0.001882 0.000000 0.000000 0.000000
# 2 -0.003446 0.020553 -0.000382 0.000000 0.000000 0.000000
# 3 -0.001882 -0.000382 0.005447 0.000000 0.000000 0.000000
# 4 0.000000 0.000000 0.000000 0.058086 0.000000 0.000000
# 5 0.000000 0.000000 0.000000 0.000000 0.028893 0.000000
# 6 0.000000 0.000000 0.000000 0.000000 0.000000 0.118980
#
#
# Mechanical properties :
#
#
# Convention : Reuss Voigt Hill
#
# Bulk Modulus (GPa) = 35.94273 48.38733 42.16503
# Shear Modulus (GPa) = 18.80428 30.46197 24.63312
#
# Velocity S-wave (km/s) = 2.93511 3.73573 3.35936
# Velocity P-wave (km/s) = 5.28707 6.38557 5.86211
#
# Compressibility (1/GPa) = 0.02782204
#
# Stress axis : x y z
#
# Youngs Moduli (GPa) = 75.51349 48.65430 183.57868
#
# Poissons Ratio (x) = 0.16768 0.34551
# Poissons Ratio (y) = 0.26025 0.07014
# Poissons Ratio (z) = 0.14212 0.01859
#
# Static dielectric constant tensor:
#      x y z
#    x 1.782080 0.000000 0.000000 
#    y 0.000000 1.874250 0.000000 
#    z 0.000000 0.000000 1.936950 
# 
# From -- ./inp_files/2924.got.cif
#   From: 2010.05.17/outbox.cif.g08.bks.cpg/sg68_2_cif.got.tgz:2924.got - 2010.06.03 18:57:09.
