data_PCOD9507384
_publ_section_title
;
Structure prediction by ZEFSAII (Michael W. Deem and Ramdas Pophale) SiO2 
 PCOD9507384
Probable space group: C C C A
;
_chemical_formula_sum "Si O2"
_cell_formula_units_Z 68
_cell_length_a 13.402933
_cell_length_b 13.919040
_cell_length_c 14.567101
_cell_angle_alpha 90.000000
_cell_angle_beta 90.000000
_cell_angle_gamma 90.000000
_cell_volume 2717.579519
_symmetry_space_group_name_H-M "C C C A"
_symmetry_group_IT_number 68
_space_group.IT_coordinate_system_code '2'
_symmetry_cell_setting 'orthorhombic'
loop_
_space_group_symop_operation_xyz
x,y,z
-x,1/2-y,z
x,1/2-y,1/2-z
-x,y,1/2-z
-x,-y,-z
x,1/2+y,-z
-x,1/2+y,1/2+z
x,-y,1/2+z
1/2+x,1/2+y,z
1/2-x,-y,z
1/2+x,-y,1/2-z
1/2-x,1/2+y,1/2-z
1/2-x,1/2-y,-z
1/2+x,y,-z
1/2-x,y,1/2+z
1/2+x,1/2-y,1/2+z
loop_
_atom_site_type_symbol
_atom_site_label
_atom_site_fract_x
_atom_site_fract_y
_atom_site_fract_z
Si Si1 0.000000 0.750000 0.250000
Si Si2 0.396967 0.223148 0.528023
Si Si3 0.391477 0.603620 0.293079
Si Si4 0.330945 0.887438 0.678849
Si Si5 0.725567 0.607142 0.461796
O O1 0.078529 0.683789 0.304580
O O2 0.500000 0.250000 0.484749
O O3 0.407642 0.141635 0.603894
O O4 0.358639 0.321629 0.576345
O O5 0.321179 0.176179 0.456901
O O6 0.500000 0.627537 0.250000
O O7 0.371622 0.490130 0.287259
O O8 0.276055 0.639245 0.273866
O O9 0.305720 0.899390 0.569969
O O10 0.750000 0.500000 0.428622
#
# Coordination Sequence:
#
# PCOD9507384 Si02
#       5
#     4  16  16  16  16
#     4  12  24  36  66 104 126 180 230 266 356 412
#     4  10  22  37  63 100 121 174 219 267 337 383
#     4  10  20  42  68  93 135 174 219 281 337 395
#     4  10  21  40  64  99 134 176 219 278 340 405
#     4  10  20  42  64  90 141 171 215 275 331 403
#
# _framework density 25.022266999999999
#
# number of rings (size 3 to 8) (size 9 to 14) (size 15 to 20)
#    0.000    1.882    5.882    0.000    1.647    5.176 
#    0.000    0.000    5.176    0.000    0.000    0.000 
#    0.000    0.000    0.000    0.000    0.000    0.000 
#
# Total GULP energy -189676.767287 kJ/mol
# GULP energy per Si atom -5578.728450 kJ/mol
# Density = 2.496531 g / cm^3
# Si number density = 25.022267 Si / 1000 Ang^3
#
#
#
# Elastic Constant Matrix: (Units=GPa)
#
#
# Indices 1 2 3 4 5 6 
#
# 1 236.6521 55.6934 35.2183 0.0000 0.0000 0.0000
# 2 55.6934 146.5047 3.3232 0.0000 0.0000 0.0000
# 3 35.2183 3.3232 42.1521 0.0000 0.0000 0.0000
# 4 0.0000 0.0000 0.0000 10.1748 0.0000 0.0000
# 5 0.0000 0.0000 0.0000 0.0000 -62.2176 0.0000
# 6 0.0000 0.0000 0.0000 0.0000 0.0000 40.6218
#
#
#
# Elastic Compliance Matrix: (Units=1/GPa)
#
#
# Indices 1 2 3 4 5 6 
#
# 1 0.005317 -0.001924 -0.004291 0.000000 0.000000 0.000000
# 2 -0.001924 0.007534 0.001013 0.000000 0.000000 0.000000
# 3 -0.004291 0.001013 0.027229 0.000000 0.000000 0.000000
# 4 0.000000 0.000000 0.000000 0.098282 0.000000 0.000000
# 5 0.000000 0.000000 0.000000 0.000000 -0.016073 0.000000
# 6 0.000000 0.000000 0.000000 0.000000 0.000000 0.024617
#
#
# Mechanical properties :
#
#
# Convention : Reuss Voigt Hill
#
# Bulk Modulus (GPa) = 33.69562 68.19762 50.94662
# Shear Modulus (GPa) = 29.90416 19.78740 24.84578
#
# Velocity S-wave (km/s) = 3.46078 2.81515 3.15452
# Velocity P-wave (km/s) = 5.42815 6.15473 5.80282
#
# Compressibility (1/GPa) = 0.02967745
#
# Stress axis : x y z
#
# Youngs Moduli (GPa) = 188.07938 132.73005 36.72610
#
# Poissons Ratio (x) = 0.25536 0.15758
# Poissons Ratio (y) = 0.36184 -0.03722
# Poissons Ratio (z) = 0.80698 -0.13452
#
# Static dielectric constant tensor:
#      x y z
#    x 2.020280 0.000000 0.000000 
#    y 0.000000 1.962820 0.000000 
#    z 0.000000 0.000000 2.056040 
# 
# From -- ./inp_files/37229.got.cif
#   From: 2010.05.17/outbox.cif.g08.bks.cpg/sg68_19_cif.got.tgz:37229.got - 2010.06.03 18:57:09.
