data_PCOD9507480
_publ_section_title
;
Structure prediction by ZEFSAII (Michael W. Deem and Ramdas Pophale) SiO2 
 PCOD9507480
Probable space group: C C C A
;
_chemical_formula_sum "Si O2"
_cell_formula_units_Z 96
_cell_length_a 11.697390
_cell_length_b 19.860701
_cell_length_c 18.152185
_cell_angle_alpha 90.000000
_cell_angle_beta 90.000000
_cell_angle_gamma 90.000000
_cell_volume 4217.085945
_symmetry_space_group_name_H-M "C C C A"
_symmetry_group_IT_number 68
_space_group.IT_coordinate_system_code '2'
_symmetry_cell_setting 'orthorhombic'
loop_
_space_group_symop_operation_xyz
x,y,z
-x,1/2-y,z
x,1/2-y,1/2-z
-x,y,1/2-z
-x,-y,-z
x,1/2+y,-z
-x,1/2+y,1/2+z
x,-y,1/2+z
1/2+x,1/2+y,z
1/2-x,-y,z
1/2+x,-y,1/2-z
1/2-x,1/2+y,1/2-z
1/2-x,1/2-y,-z
1/2+x,y,-z
1/2-x,y,1/2+z
1/2+x,1/2-y,1/2+z
loop_
_atom_site_type_symbol
_atom_site_label
_atom_site_fract_x
_atom_site_fract_y
_atom_site_fract_z
Si Si1 0.151110 0.356448 0.026145
Si Si2 0.871192 0.994761 0.442482
Si Si3 0.613286 0.178638 0.790553
Si Si4 0.936847 0.966194 0.173798
Si Si5 0.212278 0.601642 0.677939
Si Si6 0.101918 0.347557 0.463387
O O1 0.158863 0.352128 0.114398
O O2 0.024739 0.328277 0.005089
O O3 0.148650 0.436423 0.003285
O O4 0.272125 0.328669 0.995071
O O5 0.969559 0.972445 0.388541
O O6 0.750000 0.000000 0.401273
O O7 0.898567 0.070499 0.467415
O O8 0.627524 0.250000 0.750000
O O9 0.500000 0.149687 0.750000
O O10 0.713361 0.132313 0.759266
O O11 0.603746 0.175957 0.877756
O O12 0.841021 0.912304 0.153900
O O13 0.000000 0.952265 0.250000
O O14 0.864155 0.034801 0.180180
#
# Coordination Sequence:
#
# PCOD9507480 Si02
#       6
#    16  16  16  16  16  16
#     4  11  22  36  61  94 139 166 205 260 331 401
#     4  10  21  33  57  89 135 171 205 243 327 403
#     4  11  23  45  72  89 118 173 241 281 318 371
#     4  11  23  33  57  92 135 166 207 263 337 397
#     4  11  23  38  61  93 129 169 217 276 324 400
#     4  11  22  38  66  96 132 171 217 269 322 403
#
# _framework density 22.764534999999999
#
# number of rings (size 3 to 8) (size 9 to 14) (size 15 to 20)
#    0.000    1.167    3.333    3.000   14.000    0.000 
#    0.000    0.833    0.000    0.500    0.000    1.167 
#    0.000    0.000    0.000    0.000    0.000    0.000 
#
# Total GULP energy -268003.419706 kJ/mol
# GULP energy per Si atom -5583.404577 kJ/mol
# Density = 2.271272 g / cm^3
# Si number density = 22.764535 Si / 1000 Ang^3
#
#
#
# Elastic Constant Matrix: (Units=GPa)
#
#
# Indices 1 2 3 4 5 6 
#
# 1 195.7539 28.2101 29.9071 0.0000 0.0000 0.0000
# 2 28.2101 40.7854 21.0813 0.0000 0.0000 0.0000
# 3 29.9071 21.0813 86.6488 0.0000 0.0000 0.0000
# 4 0.0000 0.0000 0.0000 13.3848 0.0000 0.0000
# 5 0.0000 0.0000 0.0000 0.0000 45.0592 0.0000
# 6 0.0000 0.0000 0.0000 0.0000 0.0000 2.3732
#
#
#
# Elastic Compliance Matrix: (Units=1/GPa)
#
#
# Indices 1 2 3 4 5 6 
#
# 1 0.005776 -0.003391 -0.001168 0.000000 0.000000 0.000000
# 2 -0.003391 0.030036 -0.006137 0.000000 0.000000 0.000000
# 3 -0.001168 -0.006137 0.013437 0.000000 0.000000 0.000000
# 4 0.000000 0.000000 0.000000 0.074712 0.000000 0.000000
# 5 0.000000 0.000000 0.000000 0.000000 0.022193 0.000000
# 6 0.000000 0.000000 0.000000 0.000000 0.000000 0.421374
#
#
# Mechanical properties :
#
#
# Convention : Reuss Voigt Hill
#
# Bulk Modulus (GPa) = 35.89917 53.50946 44.70431
# Shear Modulus (GPa) = 8.35831 28.42942 18.39387
#
# Velocity S-wave (km/s) = 1.91823 3.53774 2.84563
# Velocity P-wave (km/s) = 4.55084 6.34382 5.52061
#
# Compressibility (1/GPa) = 0.02785580
#
# Stress axis : x y z
#
# Youngs Moduli (GPa) = 173.14124 33.29317 74.41950
#
# Poissons Ratio (x) = 0.11289 0.08696
# Poissons Ratio (y) = 0.58710 0.45674
# Poissons Ratio (z) = 0.20231 0.20433
#
# Static dielectric constant tensor:
#      x y z
#    x 1.960630 0.000000 0.000000 
#    y 0.000000 1.898530 0.000000 
#    z 0.000000 0.000000 1.817280 
# 
# From -- ./inp_files/29809.got.cif
#   From: 2010.05.17/outbox.cif.g08.bks.cpg/sg68_15_cif.got.tgz:29809.got - 2010.06.03 18:57:09.
