data_PCOD9507042
_publ_section_title
;
Structure prediction by ZEFSAII (Michael W. Deem and Ramdas Pophale) SiO2 
 PCOD9507042
Probable space group: C C C A
;
_chemical_formula_sum "Si O2"
_cell_formula_units_Z 64
_cell_length_a 8.613954
_cell_length_b 16.213647
_cell_length_c 21.015488
_cell_angle_alpha 90.000000
_cell_angle_beta 90.000000
_cell_angle_gamma 90.000000
_cell_volume 2935.098908
_symmetry_space_group_name_H-M "C C C A"
_symmetry_group_IT_number 68
_space_group.IT_coordinate_system_code '2'
_symmetry_cell_setting 'orthorhombic'
loop_
_space_group_symop_operation_xyz
x,y,z
-x,1/2-y,z
x,1/2-y,1/2-z
-x,y,1/2-z
-x,-y,-z
x,1/2+y,-z
-x,1/2+y,1/2+z
x,-y,1/2+z
1/2+x,1/2+y,z
1/2-x,-y,z
1/2+x,-y,1/2-z
1/2-x,1/2+y,1/2-z
1/2-x,1/2-y,-z
1/2+x,y,-z
1/2-x,y,1/2+z
1/2+x,1/2-y,1/2+z
loop_
_atom_site_type_symbol
_atom_site_label
_atom_site_fract_x
_atom_site_fract_y
_atom_site_fract_z
Si Si1 0.627561 0.578213 0.694577
Si Si2 0.582946 0.101045 0.561673
Si Si3 0.574854 0.660222 0.187715
Si Si4 0.930857 0.595457 0.432883
O O1 0.500000 0.570268 0.750000
O O2 0.750000 0.500000 0.692214
O O3 0.743488 0.655492 0.701085
O O4 0.535955 0.594895 0.629475
O O5 0.472159 0.118947 0.621272
O O6 0.757789 0.131443 0.575320
O O7 0.514328 0.132560 0.494997
O O8 0.590966 0.002346 0.555043
O O9 0.500000 0.750000 0.183989
O O10 0.500000 0.618280 0.250000
#
# Coordination Sequence:
#
# PCOD9507042 Si02
#       4
#    16  16  16  16
#     4  12  24  39  67 101 132 173 229 284 339 398
#     4  10  20  38  61  94 132 175 215 275 334 392
#     4  11  24  44  65  92 136 178 220 276 338 405
#     4  10  21  35  64  94 130 166 222 280 331 384
#
# _framework density 21.805057000000001
#
# number of rings (size 3 to 8) (size 9 to 14) (size 15 to 20)
#    0.000    1.250    2.500    3.750    7.000    0.000 
#    0.000   13.750    0.000    0.000    0.000    0.000 
#    0.000    0.000    0.000    0.000    0.000    0.000 
#
# Total GULP energy -178555.997309 kJ/mol
# GULP energy per Si atom -5579.874916 kJ/mol
# Density = 2.175543 g / cm^3
# Si number density = 21.805057 Si / 1000 Ang^3
#
#
#
# Elastic Constant Matrix: (Units=GPa)
#
#
# Indices 1 2 3 4 5 6 
#
# 1 192.4546 24.0747 95.4123 0.0000 0.0000 0.0000
# 2 24.0747 41.8071 3.8037 0.0000 0.0000 0.0000
# 3 95.4123 3.8037 201.6914 0.0000 0.0000 0.0000
# 4 0.0000 0.0000 0.0000 10.6738 0.0000 0.0000
# 5 0.0000 0.0000 0.0000 0.0000 2.5638 0.0000
# 6 0.0000 0.0000 0.0000 0.0000 0.0000 23.8913
#
#
#
# Elastic Compliance Matrix: (Units=1/GPa)
#
#
# Indices 1 2 3 4 5 6 
#
# 1 0.007384 -0.003941 -0.003419 0.000000 0.000000 0.000000
# 2 -0.003941 0.026064 0.001373 0.000000 0.000000 0.000000
# 3 -0.003419 0.001373 0.006549 0.000000 0.000000 0.000000
# 4 0.000000 0.000000 0.000000 0.093687 0.000000 0.000000
# 5 0.000000 0.000000 0.000000 0.000000 0.390041 0.000000
# 6 0.000000 0.000000 0.000000 0.000000 0.000000 0.041856
#
#
# Mechanical properties :
#
#
# Convention : Reuss Voigt Hill
#
# Bulk Modulus (GPa) = 35.68446 75.83717 55.76082
# Shear Modulus (GPa) = 8.51938 28.26994 18.39466
#
# Velocity S-wave (km/s) = 1.97877 3.60458 2.90762
# Velocity P-wave (km/s) = 4.64989 7.22351 6.07456
#
# Compressibility (1/GPa) = 0.02802341
#
# Stress axis : x y z
#
# Youngs Moduli (GPa) = 135.42983 38.36726 152.68490
#
# Poissons Ratio (x) = 0.15120 0.52199
# Poissons Ratio (y) = 0.53373 -0.20960
# Poissons Ratio (z) = 0.46300 -0.05267
#
# Static dielectric constant tensor:
#      x y z
#    x 1.938080 0.000000 0.000000 
#    y 0.000000 1.876160 0.000000 
#    z 0.000000 0.000000 1.805460 
# 
# From -- ./inp_files/35735.got.cif
#   From: 2010.05.17/outbox.cif.g08.bks.cpg/sg68_18_cif.got.tgz:35735.got - 2010.06.03 18:57:09.
