data_PCOD9507602
_publ_section_title
;
Structure prediction by ZEFSAII (Michael W. Deem and Ramdas Pophale) SiO2 
 PCOD9507602
Probable space group: C C C A
;
_chemical_formula_sum "Si O2"
_cell_formula_units_Z 120
_cell_length_a 16.382924
_cell_length_b 17.704559
_cell_length_c 19.017601
_cell_angle_alpha 90.000000
_cell_angle_beta 90.000000
_cell_angle_gamma 90.000000
_cell_volume 5516.101660
_symmetry_space_group_name_H-M "C C C A"
_symmetry_group_IT_number 68
_space_group.IT_coordinate_system_code '2'
_symmetry_cell_setting 'orthorhombic'
loop_
_space_group_symop_operation_xyz
x,y,z
-x,1/2-y,z
x,1/2-y,1/2-z
-x,y,1/2-z
-x,-y,-z
x,1/2+y,-z
-x,1/2+y,1/2+z
x,-y,1/2+z
1/2+x,1/2+y,z
1/2-x,-y,z
1/2+x,-y,1/2-z
1/2-x,1/2+y,1/2-z
1/2-x,1/2-y,-z
1/2+x,y,-z
1/2-x,y,1/2+z
1/2+x,1/2-y,1/2+z
loop_
_atom_site_type_symbol
_atom_site_label
_atom_site_fract_x
_atom_site_fract_y
_atom_site_fract_z
Si Si1 0.302555 0.173036 0.068619
Si Si2 0.244587 0.088096 0.707654
Si Si3 0.371002 0.358052 0.572680
Si Si4 0.000000 0.250000 0.127492
Si Si5 0.864492 0.669408 0.480180
Si Si6 0.019816 0.560617 0.941794
Si Si7 0.069091 0.599021 0.802829
Si Si8 0.215736 0.915404 0.362011
O O1 0.292673 0.137414 0.144884
O O2 0.352351 0.252013 0.062505
O O3 0.348790 0.125528 0.008173
O O4 0.210754 0.176234 0.035836
O O5 0.339157 0.109244 0.724710
O O6 0.194876 0.094595 0.780534
O O7 0.250000 0.000000 0.687663
O O8 0.423019 0.282459 0.583999
O O9 0.433464 0.422007 0.595069
O O10 0.289886 0.359063 0.617517
O O11 0.964983 0.318974 0.173263
O O12 0.943352 0.635753 0.520134
O O13 0.848896 0.604900 0.421366
O O14 0.076582 0.548509 0.874141
O O15 0.000000 0.500000 0.000000
O O16 0.000000 0.568432 0.750000
O O17 0.250000 0.000000 0.370833
#
# Coordination Sequence:
#
# PCOD9507602 Si02
#       8
#    16  16  16   8  16  16  16  16
#     4  10  21  37  60  88 122 160 207 256 313 383
#     4  11  24  39  62  89 127 163 214 261 323 385
#     4  10  21  36  63  86 122 160 204 252 316 375
#     4  10  21  38  60  98 126 159 200 256 331 380
#     4  10  21  38  59  88 121 164 203 258 313 381
#     4  11  22  37  62  91 122 164 213 258 309 379
#     4  11  23  40  62  95 129 159 202 263 329 385
#     4  10  22  39  57  85 121 161 203 259 318 381
#
# _framework density 21.754494000000001
#
# number of rings (size 3 to 8) (size 9 to 14) (size 15 to 20)
#    0.000    1.600    1.333    4.200    5.600    3.733 
#    0.000    0.000    0.000    0.000    0.000    1.867 
#    0.000    0.000    0.000    0.000    0.000    0.000 
#
# Total GULP energy -334449.338442 kJ/mol
# GULP energy per Si atom -5574.155641 kJ/mol
# Density = 2.170498 g / cm^3
# Si number density = 21.754494 Si / 1000 Ang^3
#
#
#
# Elastic Constant Matrix: (Units=GPa)
#
#
# Indices 1 2 3 4 5 6 
#
# 1 58.8246 4.7353 1.7493 0.0000 0.0000 0.0000
# 2 4.7353 68.5397 33.9051 0.0000 0.0000 0.0000
# 3 1.7493 33.9051 127.2616 0.0000 0.0000 0.0000
# 4 0.0000 0.0000 0.0000 34.8775 0.0000 0.0000
# 5 0.0000 0.0000 0.0000 0.0000 32.5786 0.0000
# 6 0.0000 0.0000 0.0000 0.0000 0.0000 29.4423
#
#
#
# Elastic Compliance Matrix: (Units=1/GPa)
#
#
# Indices 1 2 3 4 5 6 
#
# 1 0.017096 -0.001227 0.000092 0.000000 0.000000 0.000000
# 2 -0.001227 0.016893 -0.004484 0.000000 0.000000 0.000000
# 3 0.000092 -0.004484 0.009051 0.000000 0.000000 0.000000
# 4 0.000000 0.000000 0.000000 0.028672 0.000000 0.000000
# 5 0.000000 0.000000 0.000000 0.000000 0.030695 0.000000
# 6 0.000000 0.000000 0.000000 0.000000 0.000000 0.033965
#
#
# Mechanical properties :
#
#
# Convention : Reuss Voigt Hill
#
# Bulk Modulus (GPa) = 31.44386 37.26725 34.35556
# Shear Modulus (GPa) = 31.60374 33.66207 32.63290
#
# Velocity S-wave (km/s) = 3.81562 3.93792 3.87725
# Velocity P-wave (km/s) = 5.82214 6.15177 5.98922
#
# Compressibility (1/GPa) = 0.03180271
#
# Stress axis : x y z
#
# Youngs Moduli (GPa) = 58.49423 59.19668 110.48339
#
# Poissons Ratio (x) = 0.07261 -0.01014
# Poissons Ratio (y) = 0.07174 0.49538
# Poissons Ratio (z) = -0.00537 0.26542
#
# Static dielectric constant tensor:
#      x y z
#    x 1.801560 0.000000 0.000000 
#    y 0.000000 1.868410 0.000000 
#    z 0.000000 0.000000 1.824650 
# 
# From -- ./inp_files/39778.got.cif
#   From: 2010.05.17/outbox.cif.g08.bks.cpg/sg68_20_cif.got.tgz:39778.got - 2010.06.03 18:57:09.
