data_PCOD9507668
_publ_section_title
;
Structure prediction by ZEFSAII (Michael W. Deem and Ramdas Pophale) SiO2 
 PCOD9507668
Probable space group: C C C A
;
_chemical_formula_sum "Si O2"
_cell_formula_units_Z 56
_cell_length_a 5.239540
_cell_length_b 32.063421
_cell_length_c 13.915109
_cell_angle_alpha 90.000000
_cell_angle_beta 90.000000
_cell_angle_gamma 90.000000
_cell_volume 2337.704594
_symmetry_space_group_name_H-M "C C C A"
_symmetry_group_IT_number 68
_space_group.IT_coordinate_system_code '2'
_symmetry_cell_setting 'orthorhombic'
loop_
_space_group_symop_operation_xyz
x,y,z
-x,1/2-y,z
x,1/2-y,1/2-z
-x,y,1/2-z
-x,-y,-z
x,1/2+y,-z
-x,1/2+y,1/2+z
x,-y,1/2+z
1/2+x,1/2+y,z
1/2-x,-y,z
1/2+x,-y,1/2-z
1/2-x,1/2+y,1/2-z
1/2-x,1/2-y,-z
1/2+x,y,-z
1/2-x,y,1/2+z
1/2+x,1/2-y,1/2+z
loop_
_atom_site_type_symbol
_atom_site_label
_atom_site_fract_x
_atom_site_fract_y
_atom_site_fract_z
Si Si1 0.500000 0.250000 0.932037
Si Si2 0.785192 0.868433 0.358639
Si Si3 0.340653 0.042368 0.066823
Si Si4 0.205240 0.334377 0.142697
O O1 0.429215 0.210327 0.866135
O O2 0.750000 0.250000 0.000000
O O3 0.846758 0.916761 0.367330
O O4 0.747130 0.851613 0.250343
O O5 0.505478 0.864047 0.404676
O O6 0.010771 0.839003 0.399104
O O7 0.250000 0.000000 0.120475
O O8 0.616153 0.043041 0.014497
#
# Coordination Sequence:
#
# PCOD9507668 Si02
#       4
#     8  16  16  16
#     4  12  26  43  64  93 126 160 210 274 336 395
#     4  10  21  40  64  89 126 169 212 259 314 388
#     4  10  21  37  61  95 132 168 208 259 317 377
#     4  10  23  41  61  90 122 165 211 261 325 388
#
# _framework density 23.955124999999999
#
# number of rings (size 3 to 8) (size 9 to 14) (size 15 to 20)
#    0.000    1.714    0.000    3.429    0.000    9.143 
#    0.000   11.429    0.000    0.000    0.000    0.000 
#    0.000    0.000    0.000    0.000    0.000    0.000 
#
# Total GULP energy -156025.169738 kJ/mol
# GULP energy per Si atom -5572.327491 kJ/mol
# Density = 2.390060 g / cm^3
# Si number density = 23.955125 Si / 1000 Ang^3
#
#
#
# Elastic Constant Matrix: (Units=GPa)
#
#
# Indices 1 2 3 4 5 6 
#
# 1 225.0042 30.3940 8.5945 0.0000 0.0000 0.0000
# 2 30.3940 187.1289 29.7650 0.0000 0.0000 0.0000
# 3 8.5945 29.7650 101.1266 0.0000 0.0000 0.0000
# 4 0.0000 0.0000 0.0000 46.0811 0.0000 0.0000
# 5 0.0000 0.0000 0.0000 0.0000 4.7209 0.0000
# 6 0.0000 0.0000 0.0000 0.0000 0.0000 36.6092
#
#
#
# Elastic Compliance Matrix: (Units=1/GPa)
#
#
# Indices 1 2 3 4 5 6 
#
# 1 0.004547 -0.000710 -0.000177 0.000000 0.000000 0.000000
# 2 -0.000710 0.005717 -0.001622 0.000000 0.000000 0.000000
# 3 -0.000177 -0.001622 0.010381 0.000000 0.000000 0.000000
# 4 0.000000 0.000000 0.000000 0.021701 0.000000 0.000000
# 5 0.000000 0.000000 0.000000 0.000000 0.211825 0.000000
# 6 0.000000 0.000000 0.000000 0.000000 0.000000 0.027316
#
#
# Mechanical properties :
#
#
# Convention : Reuss Voigt Hill
#
# Bulk Modulus (GPa) = 63.99858 72.30744 68.15301
# Shear Modulus (GPa) = 17.13995 47.11599 32.12797
#
# Velocity S-wave (km/s) = 2.67779 4.43972 3.66618
# Velocity P-wave (km/s) = 6.02783 7.51875 6.81419
#
# Compressibility (1/GPa) = 0.01562535
#
# Stress axis : x y z
#
# Youngs Moduli (GPa) = 219.92090 174.90612 96.32792
#
# Poissons Ratio (x) = 0.12424 0.01709
# Poissons Ratio (y) = 0.15622 0.15629
# Poissons Ratio (z) = 0.03901 0.28378
#
# Static dielectric constant tensor:
#      x y z
#    x 2.136910 0.000000 0.000000 
#    y 0.000000 2.035850 0.000000 
#    z 0.000000 0.000000 1.484920 
# 
# From -- ./inp_files/18347.got.cif
#   From: 2010.05.17/outbox.cif.g08.bks.cpg/sg68_10_cif.got.tgz:18347.got - 2010.06.03 18:57:09.
