data_PCOD9507837
_publ_section_title
;
Structure prediction by ZEFSAII (Michael W. Deem and Ramdas Pophale) SiO2 
 PCOD9507837
Probable space group: C C C A
;
_chemical_formula_sum "Si O2"
_cell_formula_units_Z 64
_cell_length_a 14.972909
_cell_length_b 9.256241
_cell_length_c 21.660596
_cell_angle_alpha 90.000000
_cell_angle_beta 90.000000
_cell_angle_gamma 90.000000
_cell_volume 3002.003823
_symmetry_space_group_name_H-M "C C C A"
_symmetry_group_IT_number 68
_space_group.IT_coordinate_system_code '2'
_symmetry_cell_setting 'orthorhombic'
loop_
_space_group_symop_operation_xyz
x,y,z
-x,1/2-y,z
x,1/2-y,1/2-z
-x,y,1/2-z
-x,-y,-z
x,1/2+y,-z
-x,1/2+y,1/2+z
x,-y,1/2+z
1/2+x,1/2+y,z
1/2-x,-y,z
1/2+x,-y,1/2-z
1/2-x,1/2+y,1/2-z
1/2-x,1/2-y,-z
1/2+x,y,-z
1/2-x,y,1/2+z
1/2+x,1/2-y,1/2+z
loop_
_atom_site_type_symbol
_atom_site_label
_atom_site_fract_x
_atom_site_fract_y
_atom_site_fract_z
Si Si1 0.929838 0.118642 0.362786
Si Si2 0.250000 0.500000 0.169381
Si Si3 0.582650 0.039370 0.080263
Si Si4 0.830715 0.750000 0.750000
Si Si5 0.647042 0.245585 0.979951
O O1 0.887081 0.144645 0.295799
O O2 0.860367 0.149608 0.417598
O O3 0.000000 0.250000 0.366666
O O4 0.990609 0.982758 0.382225
O O5 0.335480 0.462778 0.127974
O O6 0.225799 0.359316 0.208785
O O7 0.604512 0.899513 0.037395
O O8 0.591965 0.172580 0.034711
O O9 0.750000 0.250000 0.000000
#
# Coordination Sequence:
#
# PCOD9507837 Si02
#       5
#    16   8  16   8  16
#     4  10  21  38  67  92 123 181 222 264 331 415
#     4  12  24  42  66  96 128 174 228 280 338 416
#     4  11  22  40  65  97 130 171 224 273 345 405
#     4  12  23  46  70  93 132 180 232 279 342 404
#     4  11  19  38  62  96 132 167 213 279 330 399
#
# _framework density 21.319094
#
# number of rings (size 3 to 8) (size 9 to 14) (size 15 to 20)
#    0.000    1.000    7.500    1.125    0.000    0.000 
#    9.000    0.000    0.000    1.500    0.000    0.000 
#    0.000    0.000    0.000    0.000    0.000    0.000 
#
# Total GULP energy -178831.255880 kJ/mol
# GULP energy per Si atom -5588.476746 kJ/mol
# Density = 2.127057 g / cm^3
# Si number density = 21.319094 Si / 1000 Ang^3
#
#
#
# Elastic Constant Matrix: (Units=GPa)
#
#
# Indices 1 2 3 4 5 6 
#
# 1 115.1103 50.1099 75.1372 0.0000 0.0000 0.0000
# 2 50.1099 70.3593 65.5473 0.0000 0.0000 0.0000
# 3 75.1372 65.5473 160.3151 0.0000 0.0000 0.0000
# 4 0.0000 0.0000 0.0000 43.5776 0.0000 0.0000
# 5 0.0000 0.0000 0.0000 0.0000 17.0188 0.0000
# 6 0.0000 0.0000 0.0000 0.0000 0.0000 16.9977
#
#
#
# Elastic Compliance Matrix: (Units=1/GPa)
#
#
# Indices 1 2 3 4 5 6 
#
# 1 0.014032 -0.006246 -0.004023 0.000000 0.000000 0.000000
# 2 -0.006246 0.025737 -0.007596 0.000000 0.000000 0.000000
# 3 -0.004023 -0.007596 0.011229 0.000000 0.000000 0.000000
# 4 0.000000 0.000000 0.000000 0.022948 0.000000 0.000000
# 5 0.000000 0.000000 0.000000 0.000000 0.058759 0.000000
# 6 0.000000 0.000000 0.000000 0.000000 0.000000 0.058832
#
#
# Mechanical properties :
#
#
# Convention : Reuss Voigt Hill
#
# Bulk Modulus (GPa) = 65.49135 80.81928 73.15532
# Shear Modulus (GPa) = 21.51876 25.85149 23.68513
#
# Velocity S-wave (km/s) = 3.18050 3.48602 3.33676
# Velocity P-wave (km/s) = 6.65385 7.36171 7.01671
#
# Compressibility (1/GPa) = 0.01526919
#
# Stress axis : x y z
#
# Youngs Moduli (GPa) = 71.26436 38.85393 89.05643
#
# Poissons Ratio (x) = 0.24268 0.35827
# Poissons Ratio (y) = 0.44512 0.67645
# Poissons Ratio (z) = 0.28669 0.29512
#
# Static dielectric constant tensor:
#      x y z
#    x 1.821790 0.000000 0.000000 
#    y 0.000000 1.801020 0.000000 
#    z 0.000000 0.000000 1.803450 
# 
# From -- ./inp_files/35786.got.cif
#   From: 2010.05.17/outbox.cif.g08.bks.cpg/sg68_18_cif.got.tgz:35786.got - 2010.06.03 18:57:09.
