data_PCOD9507783
_publ_section_title
;
Structure prediction by ZEFSAII (Michael W. Deem and Ramdas Pophale) SiO2 
 PCOD9507783
Probable space group: C C C A
;
_chemical_formula_sum "Si O2"
_cell_formula_units_Z 48
_cell_length_a 20.731350
_cell_length_b 5.273621
_cell_length_c 17.492494
_cell_angle_alpha 90.000000
_cell_angle_beta 90.000000
_cell_angle_gamma 90.000000
_cell_volume 1912.441822
_symmetry_space_group_name_H-M "C C C A"
_symmetry_group_IT_number 68
_space_group.IT_coordinate_system_code '2'
_symmetry_cell_setting 'orthorhombic'
loop_
_space_group_symop_operation_xyz
x,y,z
-x,1/2-y,z
x,1/2-y,1/2-z
-x,y,1/2-z
-x,-y,-z
x,1/2+y,-z
-x,1/2+y,1/2+z
x,-y,1/2+z
1/2+x,1/2+y,z
1/2-x,-y,z
1/2+x,-y,1/2-z
1/2-x,1/2+y,1/2-z
1/2-x,1/2-y,-z
1/2+x,y,-z
1/2-x,y,1/2+z
1/2+x,1/2-y,1/2+z
loop_
_atom_site_type_symbol
_atom_site_label
_atom_site_fract_x
_atom_site_fract_y
_atom_site_fract_z
Si Si1 0.076623 0.279456 0.455864
Si Si2 0.429861 0.340547 0.337428
Si Si3 0.286074 0.246161 0.343194
O O1 0.100718 0.523626 0.503978
O O2 0.081300 0.368372 0.366300
O O3 0.000000 0.250000 0.464076
O O4 0.500000 0.250000 0.369227
O O5 0.433665 0.250000 0.250000
O O6 0.361356 0.225740 0.361102
O O7 0.281747 0.250000 0.250000
O O8 0.250000 0.500000 0.370338
O O9 0.250000 0.000000 0.372418
#
# Coordination Sequence:
#
# PCOD9507783 Si02
#       3
#    16  16  16
#     4  10  21  39  61  87 125 170 207 245 310 388
#     4  10  21  38  62  96 125 152 204 272 314 349
#     4   9  19  36  56  80 117 163 200 237 304 384
#
# _framework density 25.098800000000001
#
# number of rings (size 3 to 8) (size 9 to 14) (size 15 to 20)
#    0.000    2.333    0.000    3.000    0.000    5.333 
#    0.000   25.000    0.000    6.000    0.000    0.000 
#    0.000    0.000    0.000    0.000    0.000    0.000 
#
# Total GULP energy -133617.231490 kJ/mol
# GULP energy per Si atom -5567.384645 kJ/mol
# Density = 2.504167 g / cm^3
# Si number density = 25.098800 Si / 1000 Ang^3
#
#
#
# Elastic Constant Matrix: (Units=GPa)
#
#
# Indices 1 2 3 4 5 6 
#
# 1 201.0122 57.3184 -4.7672 0.0000 0.0000 0.0000
# 2 57.3184 197.7541 49.4627 0.0000 0.0000 0.0000
# 3 -4.7672 49.4627 136.9130 0.0000 0.0000 0.0000
# 4 0.0000 0.0000 0.0000 36.0121 0.0000 0.0000
# 5 0.0000 0.0000 0.0000 0.0000 -1.0170 0.0000
# 6 0.0000 0.0000 0.0000 0.0000 0.0000 30.0803
#
#
#
# Elastic Compliance Matrix: (Units=1/GPa)
#
#
# Indices 1 2 3 4 5 6 
#
# 1 0.005511 -0.001809 0.000845 0.000000 0.000000 0.000000
# 2 -0.001809 0.006153 -0.002286 0.000000 0.000000 0.000000
# 3 0.000845 -0.002286 0.008159 0.000000 0.000000 0.000000
# 4 0.000000 0.000000 0.000000 0.027768 0.000000 0.000000
# 5 0.000000 0.000000 0.000000 0.000000 -0.983312 0.000000
# 6 0.000000 0.000000 0.000000 0.000000 0.000000 0.033244
#
#
# Mechanical properties :
#
#
# Convention : Reuss Voigt Hill
#
# Bulk Modulus (GPa) = 75.05156 82.18967 78.62062
# Shear Modulus (GPa) = -5.60829 41.92612 18.15891
#
# Velocity S-wave (km/s) = -1.49644 4.09154 2.69271
# Velocity P-wave (km/s) = 5.19438 7.42553 6.40781
#
# Compressibility (1/GPa) = 0.01332417
#
# Stress axis : x y z
#
# Youngs Moduli (GPa) = 181.46828 162.52916 122.56216
#
# Poissons Ratio (x) = 0.29396 -0.10360
# Poissons Ratio (y) = 0.32821 0.28015
# Poissons Ratio (z) = -0.15339 0.37151
#
# Static dielectric constant tensor:
#      x y z
#    x 1.854920 0.000000 0.000000 
#    y 0.000000 0.916910 0.000000 
#    z 0.000000 0.000000 2.135150 
# 
# From -- ./inp_files/46239.got.cif
#   From: 2010.05.17/outbox.cif.g08.bks.cpg/sg68_24_cif.got.tgz:46239.got - 2010.06.03 18:57:09.
