data_PCOD9507659
_publ_section_title
;
Structure prediction by ZEFSAII (Michael W. Deem and Ramdas Pophale) SiO2 
 PCOD9507659
Probable space group: C C C A
;
_chemical_formula_sum "Si O2"
_cell_formula_units_Z 64
_cell_length_a 14.221043
_cell_length_b 5.557581
_cell_length_c 35.449177
_cell_angle_alpha 90.000000
_cell_angle_beta 90.000000
_cell_angle_gamma 90.000000
_cell_volume 2801.711467
_symmetry_space_group_name_H-M "C C C A"
_symmetry_group_IT_number 68
_space_group.IT_coordinate_system_code '2'
_symmetry_cell_setting 'orthorhombic'
loop_
_space_group_symop_operation_xyz
x,y,z
-x,1/2-y,z
x,1/2-y,1/2-z
-x,y,1/2-z
-x,-y,-z
x,1/2+y,-z
-x,1/2+y,1/2+z
x,-y,1/2+z
1/2+x,1/2+y,z
1/2-x,-y,z
1/2+x,-y,1/2-z
1/2-x,1/2+y,1/2-z
1/2-x,1/2-y,-z
1/2+x,y,-z
1/2-x,y,1/2+z
1/2+x,1/2-y,1/2+z
loop_
_atom_site_type_symbol
_atom_site_label
_atom_site_fract_x
_atom_site_fract_y
_atom_site_fract_z
Si Si1 0.902746 0.117581 0.334869
Si Si2 0.500000 0.750000 0.888416
Si Si3 0.650979 0.877974 0.091903
Si Si4 0.357270 0.201863 0.514498
Si Si5 0.750000 0.000000 0.273049
O O1 0.849593 0.284934 0.365269
O O2 0.000000 0.250000 0.323869
O O3 0.930641 0.891368 0.360427
O O4 0.839387 0.046433 0.299955
O O5 0.436303 0.938792 0.910691
O O6 0.750000 0.000000 0.083602
O O7 0.639639 0.676935 0.059751
O O8 0.398109 0.463193 0.504124
O O9 0.250000 0.250000 0.500000
O O10 0.763289 0.750000 0.250000
#
# Coordination Sequence:
#
# PCOD9507659 Si02
#       5
#    16   8  16  16   8
#     4  10  25  47  74 104 143 189 240 298 353 429
#     4  10  24  42  69 102 134 180 254 286 356 416
#     4  11  22  40  73  96 136 189 242 297 352 429
#     4  10  21  37  60  98 137 183 236 293 368 417
#     4  12  30  50  78 116 148 186 240 286 368 454
#
# _framework density 22.843181000000001
#
# number of rings (size 3 to 8) (size 9 to 14) (size 15 to 20)
#    0.000    1.500    2.500    1.500   12.250    2.500 
#    0.000    1.250    0.000    0.000    0.000    0.000 
#    0.000    0.000    0.000    0.000    0.000    0.000 
#
# Total GULP energy -178942.891682 kJ/mol
# GULP energy per Si atom -5591.965365 kJ/mol
# Density = 2.279119 g / cm^3
# Si number density = 22.843181 Si / 1000 Ang^3
#
#
#
# Elastic Constant Matrix: (Units=GPa)
#
#
# Indices 1 2 3 4 5 6 
#
# 1 85.0098 9.0300 61.4165 0.0000 0.0000 0.0000
# 2 9.0300 111.3984 49.5600 0.0000 0.0000 0.0000
# 3 61.4165 49.5600 141.5008 0.0000 0.0000 0.0000
# 4 0.0000 0.0000 0.0000 -74.9855 0.0000 0.0000
# 5 0.0000 0.0000 0.0000 0.0000 -14.2306 0.0000
# 6 0.0000 0.0000 0.0000 0.0000 0.0000 12.0155
#
#
#
# Elastic Compliance Matrix: (Units=1/GPa)
#
#
# Indices 1 2 3 4 5 6 
#
# 1 0.017638 0.002341 -0.008475 0.000000 0.000000 0.000000
# 2 0.002341 0.010944 -0.004849 0.000000 0.000000 0.000000
# 3 -0.008475 -0.004849 0.012444 0.000000 0.000000 0.000000
# 4 0.000000 0.000000 0.000000 -0.013336 0.000000 0.000000
# 5 0.000000 0.000000 0.000000 0.000000 -0.070271 0.000000
# 6 0.000000 0.000000 0.000000 0.000000 0.000000 0.083226
#
#
# Mechanical properties :
#
#
# Convention : Reuss Voigt Hill
#
# Bulk Modulus (GPa) = 52.46886 64.21356 58.34121
# Shear Modulus (GPa) = 72.50031 -0.91327 35.79352
#
# Velocity S-wave (km/s) = 5.63978 -0.63298 3.96273
# Velocity P-wave (km/s) = 8.08879 5.25713 6.82151
#
# Compressibility (1/GPa) = 0.01905892
#
# Stress axis : x y z
#
# Youngs Moduli (GPa) = 56.69634 91.37068 80.35911
#
# Poissons Ratio (x) = -0.21389 0.68107
# Poissons Ratio (y) = -0.13272 0.38968
# Poissons Ratio (z) = 0.48052 0.44308
#
# Static dielectric constant tensor:
#      x y z
#    x 1.838800 0.000000 0.000000 
#    y 0.000000 1.853720 0.000000 
#    z 0.000000 0.000000 1.796900 
# 
# From -- ./inp_files/55481.got.cif
#   From: 2010.05.17/outbox.cif.g08.bks.cpg/sg68_28_cif.got.tgz:55481.got - 2010.06.03 18:57:09.
