data_PCOD9507411
_publ_section_title
;
Structure prediction by ZEFSAII (Michael W. Deem and Ramdas Pophale) SiO2 
 PCOD9507411
Probable space group: C C C A
;
_chemical_formula_sum "Si O2"
_cell_formula_units_Z 112
_cell_length_a 15.140752
_cell_length_b 11.825516
_cell_length_c 28.482791
_cell_angle_alpha 90.000000
_cell_angle_beta 90.000000
_cell_angle_gamma 90.000000
_cell_volume 5099.764120
_symmetry_space_group_name_H-M "C C C A"
_symmetry_group_IT_number 68
_space_group.IT_coordinate_system_code '2'
_symmetry_cell_setting 'orthorhombic'
loop_
_space_group_symop_operation_xyz
x,y,z
-x,1/2-y,z
x,1/2-y,1/2-z
-x,y,1/2-z
-x,-y,-z
x,1/2+y,-z
-x,1/2+y,1/2+z
x,-y,1/2+z
1/2+x,1/2+y,z
1/2-x,-y,z
1/2+x,-y,1/2-z
1/2-x,1/2+y,1/2-z
1/2-x,1/2-y,-z
1/2+x,y,-z
1/2-x,y,1/2+z
1/2+x,1/2-y,1/2+z
loop_
_atom_site_type_symbol
_atom_site_label
_atom_site_fract_x
_atom_site_fract_y
_atom_site_fract_z
Si Si1 0.197325 0.378788 0.256629
Si Si2 0.666655 0.573800 0.483902
Si Si3 0.706255 0.620087 0.139038
Si Si4 0.396879 0.747149 0.081166
Si Si5 0.847854 0.556900 0.843186
Si Si6 0.557324 0.082223 0.081100
Si Si7 0.136546 0.322106 0.919194
O O1 0.238954 0.250000 0.250000
O O2 0.250000 0.500000 0.258531
O O3 0.163628 0.365357 0.309784
O O4 0.138336 0.403502 0.210561
O O5 0.750000 0.500000 0.468328
O O6 0.658818 0.697584 0.461106
O O7 0.582561 0.508762 0.459827
O O8 0.673125 0.601749 0.538402
O O9 0.750000 0.500000 0.138727
O O10 0.634156 0.632303 0.098757
O O11 0.792298 0.692103 0.122655
O O12 0.500000 0.750000 0.071830
O O13 0.367027 0.666426 0.124496
O O14 0.750000 0.500000 0.845744
O O15 0.908241 0.465293 0.869174
O O16 0.456867 0.117223 0.090037
O O17 0.609230 0.195471 0.066510
#
# Coordination Sequence:
#
# PCOD9507411 Si02
#       7
#    16  16  16  16  16  16  16
#     4  10  21  40  71 102 133 179 236 297 361 437
#     4  11  24  43  67  97 134 191 240 284 349 433
#     4  11  24  40  63  99 136 178 227 290 365 420
#     4  11  24  40  68  99 138 181 238 289 352 420
#     4  10  20  42  72  93 129 185 233 282 353 440
#     4  10  23  40  65  99 134 185 232 289 359 421
#     4  11  24  41  65  98 142 179 237 293 350 434
#
# _framework density 21.9618
#
# number of rings (size 3 to 8) (size 9 to 14) (size 15 to 20)
#    0.000    1.429    1.429    4.286    8.000    3.429 
#    0.000    1.429    3.143    0.000    0.000    0.000 
#    0.000    0.000    0.000    0.000    0.000    0.000 
#
# Total GULP energy -311757.021756 kJ/mol
# GULP energy per Si atom -5567.089674 kJ/mol
# Density = 2.191181 g / cm^3
# Si number density = 21.961800 Si / 1000 Ang^3
#
#
#
# Elastic Constant Matrix: (Units=GPa)
#
#
# Indices 1 2 3 4 5 6 
#
# 1 71.5004 10.0309 33.0876 0.0000 0.0000 0.0000
# 2 10.0309 99.0094 28.3818 0.0000 0.0000 0.0000
# 3 33.0876 28.3818 123.0846 0.0000 0.0000 0.0000
# 4 0.0000 0.0000 0.0000 37.5130 0.0000 0.0000
# 5 0.0000 0.0000 0.0000 0.0000 3.6723 0.0000
# 6 0.0000 0.0000 0.0000 0.0000 0.0000 34.2626
#
#
#
# Elastic Compliance Matrix: (Units=1/GPa)
#
#
# Indices 1 2 3 4 5 6 
#
# 1 0.015989 -0.000415 -0.004202 0.000000 0.000000 0.000000
# 2 -0.000415 0.010826 -0.002385 0.000000 0.000000 0.000000
# 3 -0.004202 -0.002385 0.009804 0.000000 0.000000 0.000000
# 4 0.000000 0.000000 0.000000 0.026657 0.000000 0.000000
# 5 0.000000 0.000000 0.000000 0.000000 0.272309 0.000000
# 6 0.000000 0.000000 0.000000 0.000000 0.000000 0.029186
#
#
# Mechanical properties :
#
#
# Convention : Reuss Voigt Hill
#
# Bulk Modulus (GPa) = 44.22018 48.51054 46.36536
# Shear Modulus (GPa) = 12.94285 29.89586 21.41935
#
# Velocity S-wave (km/s) = 2.43026 3.69354 3.12637
# Velocity P-wave (km/s) = 5.29657 6.35029 5.84721
#
# Compressibility (1/GPa) = 0.02261411
#
# Stress axis : x y z
#
# Youngs Moduli (GPa) = 62.54341 92.37279 101.99867
#
# Poissons Ratio (x) = 0.03836 0.42864
# Poissons Ratio (y) = 0.02597 0.24323
# Poissons Ratio (z) = 0.26283 0.22028
#
# Static dielectric constant tensor:
#      x y z
#    x 1.747050 0.000000 0.000000 
#    y 0.000000 1.832920 0.000000 
#    z 0.000000 0.000000 1.826830 
# 
# From -- ./inp_files/55248.got.cif
#   From: 2010.05.17/outbox.cif.g08.bks.cpg/sg68_28_cif.got.tgz:55248.got - 2010.06.03 18:57:09.
