data_PCOD9507850
_publ_section_title
;
Structure prediction by ZEFSAII (Michael W. Deem and Ramdas Pophale) SiO2 
 PCOD9507850
Probable space group: C C C A
;
_chemical_formula_sum "Si O2"
_cell_formula_units_Z 56
_cell_length_a 10.419460
_cell_length_b 10.632700
_cell_length_c 21.240686
_cell_angle_alpha 90.000000
_cell_angle_beta 90.000000
_cell_angle_gamma 90.000000
_cell_volume 2353.191717
_symmetry_space_group_name_H-M "C C C A"
_symmetry_group_IT_number 68
_space_group.IT_coordinate_system_code '2'
_symmetry_cell_setting 'orthorhombic'
loop_
_space_group_symop_operation_xyz
x,y,z
-x,1/2-y,z
x,1/2-y,1/2-z
-x,y,1/2-z
-x,-y,-z
x,1/2+y,-z
-x,1/2+y,1/2+z
x,-y,1/2+z
1/2+x,1/2+y,z
1/2-x,-y,z
1/2+x,-y,1/2-z
1/2-x,1/2+y,1/2-z
1/2-x,1/2-y,-z
1/2+x,y,-z
1/2-x,y,1/2+z
1/2+x,1/2-y,1/2+z
loop_
_atom_site_type_symbol
_atom_site_label
_atom_site_fract_x
_atom_site_fract_y
_atom_site_fract_z
Si Si1 0.130221 0.828981 0.922403
Si Si2 0.241215 0.863369 0.790958
Si Si3 0.000000 0.250000 0.651294
Si Si4 0.662256 0.111927 0.441091
O O1 0.160359 0.887317 0.854808
O O2 0.249679 0.735486 0.934469
O O3 0.000000 0.750000 0.919726
O O4 0.124498 0.910195 0.986225
O O5 0.181693 0.750000 0.750000
O O6 0.380524 0.806763 0.810429
O O7 0.250000 0.000000 0.758330
O O8 0.045427 0.138771 0.604768
O O9 0.750000 0.000000 0.418099
#
# Coordination Sequence:
#
# PCOD9507850 Si02
#       4
#    16  16   8  16
#     4  10  22  40  62 105 137 174 228 279 343 420
#     4  11  26  48  71  99 137 188 242 290 347 411
#     4  10  23  46  70 102 135 176 232 286 348 414
#     4  10  21  38  68  99 139 177 216 276 351 417
#
# _framework density 23.797467999999999
#
# number of rings (size 3 to 8) (size 9 to 14) (size 15 to 20)
#    0.000    1.714    1.429    1.286    4.000    6.286 
#    5.143    0.000    0.000    0.000    0.000    0.000 
#    0.000    0.000    0.000    0.000    0.000    0.000 
#
# Total GULP energy -156535.902184 kJ/mol
# GULP energy per Si atom -5590.567935 kJ/mol
# Density = 2.374330 g / cm^3
# Si number density = 23.797468 Si / 1000 Ang^3
#
#
#
# Elastic Constant Matrix: (Units=GPa)
#
#
# Indices 1 2 3 4 5 6 
#
# 1 81.3965 -7.8916 32.7305 0.0000 0.0000 0.0000
# 2 -7.8916 97.7301 44.5032 0.0000 0.0000 0.0000
# 3 32.7305 44.5032 106.2987 0.0000 0.0000 0.0000
# 4 0.0000 0.0000 0.0000 45.0284 0.0000 0.0000
# 5 0.0000 0.0000 0.0000 0.0000 115.9037 0.0000
# 6 0.0000 0.0000 0.0000 0.0000 0.0000 47.6404
#
#
#
# Elastic Compliance Matrix: (Units=1/GPa)
#
#
# Indices 1 2 3 4 5 6 
#
# 1 0.015285 0.004173 -0.006454 0.000000 0.000000 0.000000
# 2 0.004173 0.013782 -0.007055 0.000000 0.000000 0.000000
# 3 -0.006454 -0.007055 0.014348 0.000000 0.000000 0.000000
# 4 0.000000 0.000000 0.000000 0.022208 0.000000 0.000000
# 5 0.000000 0.000000 0.000000 0.000000 0.008628 0.000000
# 6 0.000000 0.000000 0.000000 0.000000 0.000000 0.020991
#
#
# Mechanical properties :
#
#
# Convention : Reuss Voigt Hill
#
# Bulk Modulus (GPa) = 40.41322 47.12327 43.76825
# Shear Modulus (GPa) = 40.92974 56.12005 48.52489
#
# Velocity S-wave (km/s) = 4.15169 4.86144 4.52051
# Velocity P-wave (km/s) = 6.32464 7.16632 6.75860
#
# Compressibility (1/GPa) = 0.02474438
#
# Stress axis : x y z
#
# Youngs Moduli (GPa) = 65.42289 72.55967 69.69541
#
# Poissons Ratio (x) = -0.30279 0.44978
# Poissons Ratio (y) = -0.27301 0.49169
# Poissons Ratio (z) = 0.42221 0.51189
#
# Static dielectric constant tensor:
#      x y z
#    x 1.878270 0.000000 0.000000 
#    y 0.000000 1.900790 0.000000 
#    z 0.000000 0.000000 1.971010 
# 
# From -- ./inp_files/36939.got.cif
#   From: 2010.05.17/outbox.cif.g08.bks.cpg/sg68_19_cif.got.tgz:36939.got - 2010.06.03 18:57:09.
