data_PCOD9507592
_publ_section_title
;
Structure prediction by ZEFSAII (Michael W. Deem and Ramdas Pophale) SiO2 
 PCOD9507592
Probable space group: C C C A
;
_chemical_formula_sum "Si O2"
_cell_formula_units_Z 112
_cell_length_a 14.594980
_cell_length_b 14.464068
_cell_length_c 30.699470
_cell_angle_alpha 90.000000
_cell_angle_beta 90.000000
_cell_angle_gamma 90.000000
_cell_volume 6480.743559
_symmetry_space_group_name_H-M "C C C A"
_symmetry_group_IT_number 68
_space_group.IT_coordinate_system_code '2'
_symmetry_cell_setting 'orthorhombic'
loop_
_space_group_symop_operation_xyz
x,y,z
-x,1/2-y,z
x,1/2-y,1/2-z
-x,y,1/2-z
-x,-y,-z
x,1/2+y,-z
-x,1/2+y,1/2+z
x,-y,1/2+z
1/2+x,1/2+y,z
1/2-x,-y,z
1/2+x,-y,1/2-z
1/2-x,1/2+y,1/2-z
1/2-x,1/2-y,-z
1/2+x,y,-z
1/2-x,y,1/2+z
1/2+x,1/2-y,1/2+z
loop_
_atom_site_type_symbol
_atom_site_label
_atom_site_fract_x
_atom_site_fract_y
_atom_site_fract_z
Si Si1 0.922923 0.171281 0.438175
Si Si2 0.995909 0.483909 0.896629
Si Si3 0.821910 0.574552 0.342098
Si Si4 0.672891 0.920140 0.842496
Si Si5 0.396436 0.360458 0.249133
Si Si6 0.576797 0.171356 0.037697
Si Si7 0.235128 0.745051 0.100495
O O1 0.900208 0.144521 0.488169
O O2 0.832305 0.217604 0.417108
O O3 0.000000 0.250000 0.438473
O O4 0.967402 0.082102 0.414439
O O5 0.078027 0.448754 0.865748
O O6 0.903189 0.476644 0.868342
O O7 0.968682 0.413873 0.935919
O O8 0.750000 0.500000 0.328247
O O9 0.858891 0.617523 0.298157
O O10 0.770446 0.651559 0.371118
O O11 0.656193 0.898717 0.791475
O O12 0.700719 0.827349 0.868225
O O13 0.750000 0.000000 0.847725
O O14 0.398372 0.250000 0.250000
O O15 0.500000 0.397078 0.250000
O O16 0.500000 0.250000 0.036736
O O17 0.664014 0.217651 0.061928
#
# Coordination Sequence:
#
# PCOD9507592 Si02
#       7
#    16  16  16  16  16  16  16
#     4  11  23  40  57  86 123 161 201 245 296 360
#     4  11  22  38  62  87 116 159 201 246 301 358
#     4  11  23  40  61  85 122 158 196 239 301 367
#     4  12  22  38  63  90 121 157 195 252 306 354
#     4  11  22  37  63  92 117 152 197 251 303 356
#     4  10  21  36  61  88 119 154 201 255 302 349
#     4  11  22  38  62  87 116 159 201 246 301 358
#
# _framework density 17.281967000000002
#
# number of rings (size 3 to 8) (size 9 to 14) (size 15 to 20)
#    0.000    1.000    5.714    2.143    0.000    0.000 
#    0.000    0.000    3.143    0.000    0.000    2.000 
#    0.000    0.000    0.000    0.000    0.000    0.000 
#
# Total GULP energy -312159.910689 kJ/mol
# GULP energy per Si atom -5574.284119 kJ/mol
# Density = 1.724263 g / cm^3
# Si number density = 17.281967 Si / 1000 Ang^3
#
#
#
# Elastic Constant Matrix: (Units=GPa)
#
#
# Indices 1 2 3 4 5 6 
#
# 1 82.2906 28.8723 29.9508 0.0000 0.0000 0.0000
# 2 28.8723 64.7769 21.1702 0.0000 0.0000 0.0000
# 3 29.9508 21.1702 107.8998 0.0000 0.0000 0.0000
# 4 0.0000 0.0000 0.0000 37.1641 0.0000 0.0000
# 5 0.0000 0.0000 0.0000 0.0000 7.3280 0.0000
# 6 0.0000 0.0000 0.0000 0.0000 0.0000 35.0135
#
#
#
# Elastic Compliance Matrix: (Units=1/GPa)
#
#
# Indices 1 2 3 4 5 6 
#
# 1 0.015325 -0.005813 -0.003113 0.000000 0.000000 0.000000
# 2 -0.005813 0.018700 -0.002055 0.000000 0.000000 0.000000
# 3 -0.003113 -0.002055 0.010535 0.000000 0.000000 0.000000
# 4 0.000000 0.000000 0.000000 0.026908 0.000000 0.000000
# 5 0.000000 0.000000 0.000000 0.000000 0.136463 0.000000
# 6 0.000000 0.000000 0.000000 0.000000 0.000000 0.028560
#
#
# Mechanical properties :
#
#
# Convention : Reuss Voigt Hill
#
# Bulk Modulus (GPa) = 44.25409 46.10600 45.18005
# Shear Modulus (GPa) = 18.79788 27.56605 23.18196
#
# Velocity S-wave (km/s) = 3.30163 3.99817 3.66648
# Velocity P-wave (km/s) = 6.34011 6.93184 6.64257
#
# Compressibility (1/GPa) = 0.02259678
#
# Stress axis : x y z
#
# Youngs Moduli (GPa) = 65.25398 53.47490 94.91869
#
# Poissons Ratio (x) = 0.31085 0.29551
# Poissons Ratio (y) = 0.37932 0.19510
# Poissons Ratio (z) = 0.20316 0.10992
#
# Static dielectric constant tensor:
#      x y z
#    x 1.584250 0.000000 0.000000 
#    y 0.000000 1.559950 0.000000 
#    z 0.000000 0.000000 1.582520 
# 
# From -- ./inp_files/54845.got.cif
#   From: 2010.05.17/outbox.cif.g08.bks.cpg/sg68_28_cif.got.tgz:54845.got - 2010.06.03 18:57:09.
