data_PCOD9507354
_publ_section_title
;
Structure prediction by ZEFSAII (Michael W. Deem and Ramdas Pophale) SiO2 
 PCOD9507354
Probable space group: C C C A
;
_chemical_formula_sum "Si O2"
_cell_formula_units_Z 80
_cell_length_a 30.031647
_cell_length_b 5.361039
_cell_length_c 21.645515
_cell_angle_alpha 90.000000
_cell_angle_beta 90.000000
_cell_angle_gamma 90.000000
_cell_volume 3484.945898
_symmetry_space_group_name_H-M "C C C A"
_symmetry_group_IT_number 68
_space_group.IT_coordinate_system_code '2'
_symmetry_cell_setting 'orthorhombic'
loop_
_space_group_symop_operation_xyz
x,y,z
-x,1/2-y,z
x,1/2-y,1/2-z
-x,y,1/2-z
-x,-y,-z
x,1/2+y,-z
-x,1/2+y,1/2+z
x,-y,1/2+z
1/2+x,1/2+y,z
1/2-x,-y,z
1/2+x,-y,1/2-z
1/2-x,1/2+y,1/2-z
1/2-x,1/2-y,-z
1/2+x,y,-z
1/2-x,y,1/2+z
1/2+x,1/2-y,1/2+z
loop_
_atom_site_type_symbol
_atom_site_label
_atom_site_fract_x
_atom_site_fract_y
_atom_site_fract_z
Si Si1 0.094157 0.221840 0.461982
Si Si2 0.633616 0.070231 0.142868
Si Si3 0.776899 0.248209 0.824657
Si Si4 0.612795 0.750000 0.250000
Si Si5 0.500000 0.250000 0.893876
Si Si6 0.448668 0.378343 0.316616
O O1 0.099474 0.500245 0.487971
O O2 0.043830 0.212032 0.434829
O O3 0.128509 0.139734 0.408806
O O4 0.675908 0.247361 0.139816
O O5 0.585965 0.210631 0.145202
O O6 0.639890 0.944018 0.210180
O O7 0.782146 0.250000 0.750000
O O8 0.750000 0.500000 0.840854
O O9 0.750000 0.000000 0.840523
O O10 0.580778 0.618126 0.201447
O O11 0.490168 0.494126 0.851361
O O12 0.455861 0.250000 0.250000
#
# Coordination Sequence:
#
# PCOD9507354 Si02
#       6
#    16  16  16   8   8  16
#     4  12  28  49  72  98 135 194 256 306 349 411
#     4  11  24  44  71  97 145 183 235 288 364 425
#     4  10  23  39  68 109 146 179 215 274 354 445
#     4  10  20  41  66 100 130 186 226 276 364 449
#     4  12  24  49  66  98 140 187 250 312 360 410
#     4  10  23  42  62  99 142 187 228 289 363 445
#
# _framework density 22.955880000000001
#
# number of rings (size 3 to 8) (size 9 to 14) (size 15 to 20)
#    0.000    1.200    2.000    3.600    7.000    2.800 
#    3.600    0.000    0.000    3.600    0.000    0.000 
#    0.000    0.000    0.000    0.000    0.000    0.000 
#
# Total GULP energy -223819.677119 kJ/mol
# GULP energy per Si atom -5595.491928 kJ/mol
# Density = 2.290363 g / cm^3
# Si number density = 22.955880 Si / 1000 Ang^3
#
#
#
# Elastic Constant Matrix: (Units=GPa)
#
#
# Indices 1 2 3 4 5 6 
#
# 1 111.9149 29.2641 21.2773 0.0000 0.0000 0.0000
# 2 29.2641 116.7316 18.1169 0.0000 0.0000 0.0000
# 3 21.2773 18.1169 54.9773 0.0000 0.0000 0.0000
# 4 0.0000 0.0000 0.0000 51.7320 0.0000 0.0000
# 5 0.0000 0.0000 0.0000 0.0000 11.4632 0.0000
# 6 0.0000 0.0000 0.0000 0.0000 0.0000 36.1719
#
#
#
# Elastic Compliance Matrix: (Units=1/GPa)
#
#
# Indices 1 2 3 4 5 6 
#
# 1 0.010080 -0.002025 -0.003234 0.000000 0.000000 0.000000
# 2 -0.002025 0.009435 -0.002326 0.000000 0.000000 0.000000
# 3 -0.003234 -0.002326 0.020207 0.000000 0.000000 0.000000
# 4 0.000000 0.000000 0.000000 0.019330 0.000000 0.000000
# 5 0.000000 0.000000 0.000000 0.000000 0.087235 0.000000
# 6 0.000000 0.000000 0.000000 0.000000 0.000000 0.027646
#
#
# Mechanical properties :
#
#
# Convention : Reuss Voigt Hill
#
# Bulk Modulus (GPa) = 40.72727 46.77116 43.74922
# Shear Modulus (GPa) = 25.34383 34.20445 29.77414
#
# Velocity S-wave (km/s) = 3.32629 3.86425 3.60532
# Velocity P-wave (km/s) = 5.70371 6.35047 6.03576
#
# Compressibility (1/GPa) = 0.02455357
#
# Stress axis : x y z
#
# Youngs Moduli (GPa) = 99.20952 105.98544 49.48733
#
# Poissons Ratio (x) = 0.21463 0.16003
# Poissons Ratio (y) = 0.20090 0.11508
# Poissons Ratio (z) = 0.32082 0.24647
#
# Static dielectric constant tensor:
#      x y z
#    x 1.885340 0.000000 0.000000 
#    y 0.000000 2.092310 0.000000 
#    z 0.000000 0.000000 1.871170 
# 
# From -- ./inp_files/47437.got.cif
#   From: 2010.05.17/outbox.cif.g08.bks.cpg/sg68_24_cif.got.tgz:47437.got - 2010.06.03 18:57:09.
