data_PCOD9507574
_publ_section_title
;
Structure prediction by ZEFSAII (Michael W. Deem and Ramdas Pophale) SiO2 
 PCOD9507574
Probable space group: C C C A
;
_chemical_formula_sum "Si O2"
_cell_formula_units_Z 72
_cell_length_a 26.382100
_cell_length_b 9.104246
_cell_length_c 12.731102
_cell_angle_alpha 90.000000
_cell_angle_beta 90.000000
_cell_angle_gamma 90.000000
_cell_volume 3057.872293
_symmetry_space_group_name_H-M "C C C A"
_symmetry_group_IT_number 68
_space_group.IT_coordinate_system_code '2'
_symmetry_cell_setting 'orthorhombic'
loop_
_space_group_symop_operation_xyz
x,y,z
-x,1/2-y,z
x,1/2-y,1/2-z
-x,y,1/2-z
-x,-y,-z
x,1/2+y,-z
-x,1/2+y,1/2+z
x,-y,1/2+z
1/2+x,1/2+y,z
1/2-x,-y,z
1/2+x,-y,1/2-z
1/2-x,1/2+y,1/2-z
1/2-x,1/2-y,-z
1/2+x,y,-z
1/2-x,y,1/2+z
1/2+x,1/2-y,1/2+z
loop_
_atom_site_type_symbol
_atom_site_label
_atom_site_fract_x
_atom_site_fract_y
_atom_site_fract_z
Si Si1 0.287332 0.389451 0.313457
Si Si2 0.500000 0.750000 0.511786
Si Si3 0.153552 0.053300 0.362807
Si Si4 0.038562 0.006494 0.349323
Si Si5 0.310939 0.785738 0.993470
O O1 0.264917 0.250000 0.250000
O O2 0.250000 0.500000 0.373204
O O3 0.310308 0.498166 0.228585
O O4 0.326169 0.312296 0.391571
O O5 0.526818 0.634718 0.433923
O O6 0.467002 0.647849 0.589063
O O7 0.097042 0.029054 0.322310
O O8 0.169769 0.945057 0.459399
O O9 0.163593 0.216829 0.404380
O O10 0.000000 0.012967 0.250000
O O11 0.250000 0.750000 0.000000
#
# Coordination Sequence:
#
# PCOD9507574 Si02
#       5
#    16   8  16  16  16
#     4  10  21  36  57  87 124 162 206 254 312 386
#     4  10  24  44  68  94 128 170 224 284 344 398
#     4  11  23  39  64  93 125 167 214 262 329 399
#     4  11  24  44  68  96 132 175 226 287 344 403
#     4  11  22  40  64  93 129 167 211 266 327 402
#
# _framework density 23.545784000000001
#
# number of rings (size 3 to 8) (size 9 to 14) (size 15 to 20)
#    0.000    1.333    0.000    6.667    0.000    8.889 
#    0.000    8.889    0.000    0.000    0.000    0.000 
#    0.000    0.000    0.000    0.000    0.000    0.000 
#
# Total GULP energy -201066.992492 kJ/mol
# GULP energy per Si atom -5585.194236 kJ/mol
# Density = 2.349219 g / cm^3
# Si number density = 23.545784 Si / 1000 Ang^3
#
#
#
# Elastic Constant Matrix: (Units=GPa)
#
#
# Indices 1 2 3 4 5 6 
#
# 1 111.0812 15.2223 21.2783 0.0000 0.0000 0.0000
# 2 15.2223 90.0621 24.9962 0.0000 0.0000 0.0000
# 3 21.2783 24.9962 80.6709 0.0000 0.0000 0.0000
# 4 0.0000 0.0000 0.0000 43.3806 0.0000 0.0000
# 5 0.0000 0.0000 0.0000 0.0000 24.9882 0.0000
# 6 0.0000 0.0000 0.0000 0.0000 0.0000 16.9208
#
#
#
# Elastic Compliance Matrix: (Units=1/GPa)
#
#
# Indices 1 2 3 4 5 6 
#
# 1 0.009564 -0.001003 -0.002212 0.000000 0.000000 0.000000
# 2 -0.001003 0.012253 -0.003532 0.000000 0.000000 0.000000
# 3 -0.002212 -0.003532 0.014074 0.000000 0.000000 0.000000
# 4 0.000000 0.000000 0.000000 0.023052 0.000000 0.000000
# 5 0.000000 0.000000 0.000000 0.000000 0.040019 0.000000
# 6 0.000000 0.000000 0.000000 0.000000 0.000000 0.059099
#
#
# Mechanical properties :
#
#
# Convention : Reuss Voigt Hill
#
# Bulk Modulus (GPa) = 44.64822 44.97865 44.81344
# Shear Modulus (GPa) = 27.92992 31.74574 29.83783
#
# Velocity S-wave (km/s) = 3.44786 3.67584 3.56367
# Velocity P-wave (km/s) = 5.90371 6.09589 6.00057
#
# Compressibility (1/GPa) = 0.02239731
#
# Stress axis : x y z
#
# Youngs Moduli (GPa) = 104.56405 81.61092 71.05315
#
# Poissons Ratio (x) = 0.08182 0.15716
# Poissons Ratio (y) = 0.10483 0.25098
# Poissons Ratio (z) = 0.23129 0.28827
#
# Static dielectric constant tensor:
#      x y z
#    x 1.977500 0.000000 0.000000 
#    y 0.000000 2.210110 0.000000 
#    z 0.000000 0.000000 1.933990 
# 
# From -- ./inp_files/25826.got.cif
#   From: 2010.05.17/outbox.cif.g08.bks.cpg/sg68_13_cif.got.tgz:25826.got - 2010.06.03 18:57:09.
