data_PCOD9507458
_publ_section_title
;
Structure prediction by ZEFSAII (Michael W. Deem and Ramdas Pophale) SiO2 
 PCOD9507458
Probable space group: C C C A
;
_chemical_formula_sum "Si O2"
_cell_formula_units_Z 112
_cell_length_a 5.261161
_cell_length_b 27.832299
_cell_length_c 35.213757
_cell_angle_alpha 90.000000
_cell_angle_beta 90.000000
_cell_angle_gamma 90.000000
_cell_volume 5156.357693
_symmetry_space_group_name_H-M "C C C A"
_symmetry_group_IT_number 68
_space_group.IT_coordinate_system_code '2'
_symmetry_cell_setting 'orthorhombic'
loop_
_space_group_symop_operation_xyz
x,y,z
-x,1/2-y,z
x,1/2-y,1/2-z
-x,y,1/2-z
-x,-y,-z
x,1/2+y,-z
-x,1/2+y,1/2+z
x,-y,1/2+z
1/2+x,1/2+y,z
1/2-x,-y,z
1/2+x,-y,1/2-z
1/2-x,1/2+y,1/2-z
1/2-x,1/2-y,-z
1/2+x,y,-z
1/2-x,y,1/2+z
1/2+x,1/2-y,1/2+z
loop_
_atom_site_type_symbol
_atom_site_label
_atom_site_fract_x
_atom_site_fract_y
_atom_site_fract_z
Si Si1 0.206248 0.066066 0.094411
Si Si2 0.543761 0.553379 0.514541
Si Si3 0.749681 0.195476 0.733255
Si Si4 0.212120 0.447599 0.638799
Si Si5 0.593068 0.697820 0.515384
Si Si6 0.762471 0.178495 0.400856
Si Si7 0.747855 0.167945 0.147090
O O1 0.336779 0.050469 0.055761
O O2 0.417711 0.054488 0.126283
O O3 0.193193 0.122871 0.089702
O O4 0.926726 0.047909 0.105467
O O5 0.500000 0.500000 0.500000
O O6 0.763254 0.575270 0.487997
O O7 0.749861 0.250000 0.750000
O O8 0.500000 0.171436 0.750000
O O9 0.747980 0.192428 0.688226
O O10 0.000000 0.171574 0.750000
O O11 0.250000 0.500000 0.659683
O O12 0.265559 0.391279 0.652108
O O13 0.500000 0.750000 0.500904
O O14 0.313415 0.674794 0.510336
O O15 0.691750 0.701423 0.558597
O O16 0.515811 0.180389 0.373862
O O17 0.020378 0.189600 0.377926
#
# Coordination Sequence:
#
# PCOD9507458 Si02
#       7
#    16  16  16  16  16  16  16
#     4  10  21  34  50  74 107 144 200 248 306 353
#     4  10  21  30  41  64  96 136 184 247 306 353
#     4  10  21  40  65  95 131 166 182 222 301 380
#     4  10  21  34  58  77 106 156 194 247 289 339
#     4  10  21  38  58  80 113 155 207 259 318 369
#     4  10  21  38  58  86 115 162 203 262 305 347
#     4  10  21  40  60  90 127 152 206 247 292 376
#
# _framework density 21.720759000000001
#
# number of rings (size 3 to 8) (size 9 to 14) (size 15 to 20)
#    0.000    2.000    0.000    3.000    6.000    1.143 
#    7.714    0.000    0.000    0.857    0.000    0.000 
#    0.000    0.000    0.000    0.000    0.000    0.000 
#
# Total GULP energy -311881.331205 kJ/mol
# GULP energy per Si atom -5569.309486 kJ/mol
# Density = 2.167132 g / cm^3
# Si number density = 21.720759 Si / 1000 Ang^3
#
#
#
# Elastic Constant Matrix: (Units=GPa)
#
#
# Indices 1 2 3 4 5 6 
#
# 1 190.9861 -5.1414 40.0876 0.0000 0.0000 0.0000
# 2 -5.1414 76.8098 10.1355 0.0000 0.0000 0.0000
# 3 40.0876 10.1355 114.1153 0.0000 0.0000 0.0000
# 4 0.0000 0.0000 0.0000 -5.4596 0.0000 0.0000
# 5 0.0000 0.0000 0.0000 0.0000 27.7996 0.0000
# 6 0.0000 0.0000 0.0000 0.0000 0.0000 -7.5494
#
#
#
# Elastic Compliance Matrix: (Units=1/GPa)
#
#
# Indices 1 2 3 4 5 6 
#
# 1 0.005685 0.000652 -0.002055 0.000000 0.000000 0.000000
# 2 0.000652 0.013248 -0.001406 0.000000 0.000000 0.000000
# 3 -0.002055 -0.001406 0.009610 0.000000 0.000000 0.000000
# 4 0.000000 0.000000 0.000000 -0.183164 0.000000 0.000000
# 5 0.000000 0.000000 0.000000 0.000000 0.035972 0.000000
# 6 0.000000 0.000000 0.000000 0.000000 0.000000 -0.132461
#
#
# Mechanical properties :
#
#
# Convention : Reuss Voigt Hill
#
# Bulk Modulus (GPa) = 43.62010 52.45273 48.03642
# Shear Modulus (GPa) = -21.02155 25.41343 2.19594
#
# Velocity S-wave (km/s) = -3.11434 3.42425 1.00657
# Velocity P-wave (km/s) = 2.68210 6.31150 4.84916
#
# Compressibility (1/GPa) = 0.02292521
#
# Stress axis : x y z
#
# Youngs Moduli (GPa) = 175.90614 75.48158 104.06062
#
# Poissons Ratio (x) = -0.04919 0.21384
# Poissons Ratio (y) = -0.11464 0.14627
# Poissons Ratio (z) = 0.36147 0.10610
#
# Static dielectric constant tensor:
#      x y z
#    x 1.950530 0.000000 0.000000 
#    y 0.000000 1.942230 0.000000 
#    z 0.000000 0.000000 1.777820 
# 
# From -- ./inp_files/53494.got.cif
#   From: 2010.05.17/outbox.cif.g08.bks.cpg/sg68_27_cif.got.tgz:53494.got - 2010.06.03 18:57:09.
