data_PCOD9507517
_publ_section_title
;
Structure prediction by ZEFSAII (Michael W. Deem and Ramdas Pophale) SiO2 
 PCOD9507517
Probable space group: C C C A
;
_chemical_formula_sum "Si O2"
_cell_formula_units_Z 96
_cell_length_a 21.022300
_cell_length_b 23.727437
_cell_length_c 10.745598
_cell_angle_alpha 90.000000
_cell_angle_beta 90.000000
_cell_angle_gamma 90.000000
_cell_volume 5359.961222
_symmetry_space_group_name_H-M "C C C A"
_symmetry_group_IT_number 68
_space_group.IT_coordinate_system_code '2'
_symmetry_cell_setting 'orthorhombic'
loop_
_space_group_symop_operation_xyz
x,y,z
-x,1/2-y,z
x,1/2-y,1/2-z
-x,y,1/2-z
-x,-y,-z
x,1/2+y,-z
-x,1/2+y,1/2+z
x,-y,1/2+z
1/2+x,1/2+y,z
1/2-x,-y,z
1/2+x,-y,1/2-z
1/2-x,1/2+y,1/2-z
1/2-x,1/2-y,-z
1/2+x,y,-z
1/2-x,y,1/2+z
1/2+x,1/2-y,1/2+z
loop_
_atom_site_type_symbol
_atom_site_label
_atom_site_fract_x
_atom_site_fract_y
_atom_site_fract_z
Si Si1 0.305483 0.411718 0.655710
Si Si2 0.007141 0.811545 0.547172
Si Si3 0.893651 0.501472 0.478375
Si Si4 0.011192 0.575618 0.390831
Si Si5 0.722619 0.937671 0.429088
Si Si6 0.393494 0.188964 0.753585
O O1 0.351021 0.464799 0.618119
O O2 0.268369 0.421881 0.785232
O O3 0.259176 0.403122 0.536695
O O4 0.349465 0.359292 0.691854
O O5 0.074327 0.820164 0.618623
O O6 0.000000 0.750000 0.482066
O O7 0.993544 0.867646 0.470584
O O8 0.952865 0.806917 0.652566
O O9 0.923092 0.456934 0.577138
O O10 0.851196 0.550787 0.539516
O O11 0.954431 0.531571 0.419011
O O12 0.000000 0.592001 0.250000
O O13 0.750000 0.000000 0.442638
O O14 0.360712 0.250000 0.750000
#
# Coordination Sequence:
#
# PCOD9507517 Si02
#       6
#    16  16  16  16  16  16
#     4  11  20  37  57  79 110 150 191 237 282 337
#     4   9  18  34  55  81 109 147 189 225 281 346
#     4  10  21  35  52  81 115 150 183 222 285 350
#     4  11  21  32  52  86 117 143 176 231 286 341
#     4  10  21  35  54  78 108 148 187 226 280 340
#     4   9  18  35  59  79 102 144 195 234 272 341
#
# _framework density 17.910578000000001
#
# number of rings (size 3 to 8) (size 9 to 14) (size 15 to 20)
#    0.000    2.000    1.667    4.500    0.000    3.000 
#    0.000    0.833    0.000    0.000    0.000    0.000 
#    0.000    0.000    0.000    0.000    0.000    0.000 
#
# Total GULP energy -267219.722620 kJ/mol
# GULP energy per Si atom -5567.077555 kJ/mol
# Density = 1.786981 g / cm^3
# Si number density = 17.910578 Si / 1000 Ang^3
#
#
#
# Elastic Constant Matrix: (Units=GPa)
#
#
# Indices 1 2 3 4 5 6 
#
# 1 55.0191 15.8209 21.9391 0.0000 0.0000 0.0000
# 2 15.8209 87.9385 29.3181 0.0000 0.0000 0.0000
# 3 21.9391 29.3181 93.5870 0.0000 0.0000 0.0000
# 4 0.0000 0.0000 0.0000 13.0623 0.0000 0.0000
# 5 0.0000 0.0000 0.0000 0.0000 19.8396 0.0000
# 6 0.0000 0.0000 0.0000 0.0000 0.0000 10.3584
#
#
#
# Elastic Compliance Matrix: (Units=1/GPa)
#
#
# Indices 1 2 3 4 5 6 
#
# 1 0.020467 -0.002325 -0.004069 0.000000 0.000000 0.000000
# 2 -0.002325 0.012962 -0.003515 0.000000 0.000000 0.000000
# 3 -0.004069 -0.003515 0.012741 0.000000 0.000000 0.000000
# 4 0.000000 0.000000 0.000000 0.076556 0.000000 0.000000
# 5 0.000000 0.000000 0.000000 0.000000 0.050404 0.000000
# 6 0.000000 0.000000 0.000000 0.000000 0.000000 0.096540
#
#
# Mechanical properties :
#
#
# Convention : Reuss Voigt Hill
#
# Bulk Modulus (GPa) = 37.95258 41.18898 39.57078
# Shear Modulus (GPa) = 16.76314 19.94983 18.35648
#
# Velocity S-wave (km/s) = 3.06262 3.34107 3.20487
# Velocity P-wave (km/s) = 5.80881 6.15878 5.98635
#
# Compressibility (1/GPa) = 0.02634867
#
# Stress axis : x y z
#
# Youngs Moduli (GPa) = 48.85933 77.14871 78.48979
#
# Poissons Ratio (x) = 0.17941 0.31941
# Poissons Ratio (y) = 0.11362 0.27593
# Poissons Ratio (z) = 0.19883 0.27121
#
# Static dielectric constant tensor:
#      x y z
#    x 1.679820 0.000000 0.000000 
#    y 0.000000 1.663870 0.000000 
#    z 0.000000 0.000000 1.638790 
# 
# From -- ./inp_files/8952.got.cif
#   From: 2010.05.17/outbox.cif.g08.bks.cpg/sg68_5_cif.got.tgz:8952.got - 2010.06.03 18:57:09.
