data_PCOD9507271
_publ_section_title
;
Structure prediction by ZEFSAII (Michael W. Deem and Ramdas Pophale) SiO2 
 PCOD9507271
Probable space group: C C C A
;
_chemical_formula_sum "Si O2"
_cell_formula_units_Z 44
_cell_length_a 6.898779
_cell_length_b 14.020311
_cell_length_c 16.641191
_cell_angle_alpha 90.000000
_cell_angle_beta 90.000000
_cell_angle_gamma 90.000000
_cell_volume 1609.586368
_symmetry_space_group_name_H-M "C C C A"
_symmetry_group_IT_number 68
_space_group.IT_coordinate_system_code '2'
_symmetry_cell_setting 'orthorhombic'
loop_
_space_group_symop_operation_xyz
x,y,z
-x,1/2-y,z
x,1/2-y,1/2-z
-x,y,1/2-z
-x,-y,-z
x,1/2+y,-z
-x,1/2+y,1/2+z
x,-y,1/2+z
1/2+x,1/2+y,z
1/2-x,-y,z
1/2+x,-y,1/2-z
1/2-x,1/2+y,1/2-z
1/2-x,1/2-y,-z
1/2+x,y,-z
1/2-x,y,1/2+z
1/2+x,1/2-y,1/2+z
loop_
_atom_site_type_symbol
_atom_site_label
_atom_site_fract_x
_atom_site_fract_y
_atom_site_fract_z
Si Si1 0.000000 0.750000 0.750000
Si Si2 0.000000 0.750000 0.033530
Si Si3 0.493590 0.615204 0.384368
Si Si4 0.469973 0.602056 0.845788
O O1 0.088223 0.674315 0.688205
O O2 0.083240 0.677432 0.100146
O O3 0.046279 0.832658 0.967376
O O4 0.528036 0.503443 0.374928
O O5 0.257842 0.621456 0.368668
O O6 0.500000 0.609465 0.750000
#
# Coordination Sequence:
#
# PCOD9507271 Si02
#       4
#     4   8  16  16
#     4  10  20  40  64  86 126 168 202 258 320 372
#     4  11  23  41  67  94 132 164 215 261 321 375
#     4  10  23  42  63  93 130 168 209 259 320 378
#     4  11  23  42  64  99 125 167 217 263 313 377
#
# _framework density 27.336214999999999
#
# number of rings (size 3 to 8) (size 9 to 14) (size 15 to 20)
#    0.000    1.455    1.818    2.727    5.091    0.000 
#    0.000    3.636    0.000    0.000    0.000    0.000 
#    0.000    0.000    0.000    0.000    0.000    0.000 
#
# Total GULP energy -122555.245293 kJ/mol
# GULP energy per Si atom -5570.692968 kJ/mol
# Density = 2.727400 g / cm^3
# Si number density = 27.336215 Si / 1000 Ang^3
#
#
#
# Elastic Constant Matrix: (Units=GPa)
#
#
# Indices 1 2 3 4 5 6 
#
# 1 159.1662 27.7830 48.8674 0.0000 0.0000 0.0000
# 2 27.7830 296.5324 162.7591 0.0000 0.0000 0.0000
# 3 48.8674 162.7591 297.4937 0.0000 0.0000 0.0000
# 4 0.0000 0.0000 0.0000 761.1460 0.0000 0.0000
# 5 0.0000 0.0000 0.0000 0.0000 3.9183 0.0000
# 6 0.0000 0.0000 0.0000 0.0000 0.0000 -36.5318
#
#
#
# Elastic Compliance Matrix: (Units=1/GPa)
#
#
# Indices 1 2 3 4 5 6 
#
# 1 0.006617 -0.000033 -0.001069 0.000000 0.000000 0.000000
# 2 -0.000033 0.004820 -0.002631 0.000000 0.000000 0.000000
# 3 -0.001069 -0.002631 0.004977 0.000000 0.000000 0.000000
# 4 0.000000 0.000000 0.000000 0.001314 0.000000 0.000000
# 5 0.000000 0.000000 0.000000 0.000000 0.255211 0.000000
# 6 0.000000 0.000000 0.000000 0.000000 0.000000 -0.027373
#
#
# Mechanical properties :
#
#
# Convention : Reuss Voigt Hill
#
# Bulk Modulus (GPa) = 111.77955 136.89015 124.33485
# Shear Modulus (GPa) = 19.53027 179.95867 99.74447
#
# Velocity S-wave (km/s) = 2.67581 8.12247 6.04709
# Velocity P-wave (km/s) = 7.10817 11.75377 9.71281
#
# Compressibility (1/GPa) = 0.00894618
#
# Stress axis : x y z
#
# Youngs Moduli (GPa) = 151.13371 207.47942 200.94063
#
# Poissons Ratio (x) = 0.00693 0.21473
# Poissons Ratio (y) = 0.00505 0.52876
# Poissons Ratio (z) = 0.16150 0.54596
#
# Static dielectric constant tensor:
#      x y z
#    x 2.476570 0.000000 0.000000 
#    y 0.000000 2.124190 0.000000 
#    z 0.000000 0.000000 1.982190 
# 
# From -- ./inp_files/19934.got.cif
#   From: 2010.05.17/outbox.cif.g08.bks.cpg/sg68_10_cif.got.tgz:19934.got - 2010.06.03 18:57:09.
