data_PCOD9507647
_publ_section_title
;
Structure prediction by ZEFSAII (Michael W. Deem and Ramdas Pophale) SiO2 
 PCOD9507647
Probable space group: C C C A
;
_chemical_formula_sum "Si O2"
_cell_formula_units_Z 96
_cell_length_a 18.107864
_cell_length_b 23.233964
_cell_length_c 12.274007
_cell_angle_alpha 90.000000
_cell_angle_beta 90.000000
_cell_angle_gamma 90.000000
_cell_volume 5163.889053
_symmetry_space_group_name_H-M "C C C A"
_symmetry_group_IT_number 68
_space_group.IT_coordinate_system_code '2'
_symmetry_cell_setting 'orthorhombic'
loop_
_space_group_symop_operation_xyz
x,y,z
-x,1/2-y,z
x,1/2-y,1/2-z
-x,y,1/2-z
-x,-y,-z
x,1/2+y,-z
-x,1/2+y,1/2+z
x,-y,1/2+z
1/2+x,1/2+y,z
1/2-x,-y,z
1/2+x,-y,1/2-z
1/2-x,1/2+y,1/2-z
1/2-x,1/2-y,-z
1/2+x,y,-z
1/2-x,y,1/2+z
1/2+x,1/2-y,1/2+z
loop_
_atom_site_type_symbol
_atom_site_label
_atom_site_fract_x
_atom_site_fract_y
_atom_site_fract_z
Si Si1 0.500000 0.966085 0.250000
Si Si2 0.155403 0.267997 0.589849
Si Si3 0.584480 0.831042 0.762608
Si Si4 0.170369 0.279603 0.135011
Si Si5 0.250000 0.000000 0.757413
Si Si6 0.362199 0.084095 0.878150
Si Si7 0.109605 0.547553 0.372849
O O1 0.565141 0.930423 0.192748
O O2 0.542908 0.004688 0.340449
O O3 0.119533 0.324018 0.643441
O O4 0.125615 0.213317 0.657558
O O5 0.136134 0.256090 0.465218
O O6 0.242074 0.273392 0.612831
O O7 0.500000 0.814706 0.750000
O O8 0.591140 0.893350 0.812100
O O9 0.152619 0.250000 0.250000
O O10 0.151459 0.347210 0.126724
O O11 0.208091 0.951246 0.829409
O O12 0.314589 0.974860 0.681196
O O13 0.377922 0.061345 0.000325
#
# Coordination Sequence:
#
# PCOD9507647 Si02
#       7
#     8  16  16  16   8  16  16
#     4  10  24  44  63  89 124 168 214 258 320 376
#     4  10  21  37  59  90 123 161 206 253 301 365
#     4  11  20  38  64  89 121 156 213 257 298 363
#     4  11  22  39  61  89 131 166 199 253 318 381
#     4  10  24  36  68  96 120 160 214 264 322 378
#     4  11  23  43  63  93 129 166 208 265 318 385
#     4  11  21  42  65  92 123 163 211 266 314 371
#
# _framework density 18.590637999999998
#
# number of rings (size 3 to 8) (size 9 to 14) (size 15 to 20)
#    0.000    1.333    4.167    3.000    0.000    0.000 
#    3.000    3.750    0.000    0.000    0.000    0.000 
#    0.000    0.000    0.000    0.000    0.000    0.000 
#
# Total GULP energy -267830.992722 kJ/mol
# GULP energy per Si atom -5579.812348 kJ/mol
# Density = 1.854833 g / cm^3
# Si number density = 18.590638 Si / 1000 Ang^3
#
#
#
# Elastic Constant Matrix: (Units=GPa)
#
#
# Indices 1 2 3 4 5 6 
#
# 1 96.3735 31.5086 34.7681 0.0000 0.0000 0.0000
# 2 31.5086 68.4129 51.1396 0.0000 0.0000 0.0000
# 3 34.7681 51.1396 161.8365 0.0000 0.0000 0.0000
# 4 0.0000 0.0000 0.0000 26.4508 0.0000 0.0000
# 5 0.0000 0.0000 0.0000 0.0000 21.3799 0.0000
# 6 0.0000 0.0000 0.0000 0.0000 0.0000 24.4906
#
#
#
# Elastic Compliance Matrix: (Units=1/GPa)
#
#
# Indices 1 2 3 4 5 6 
#
# 1 0.012369 -0.004858 -0.001122 0.000000 0.000000 0.000000
# 2 -0.004858 0.021046 -0.005607 0.000000 0.000000 0.000000
# 3 -0.001122 -0.005607 0.008192 0.000000 0.000000 0.000000
# 4 0.000000 0.000000 0.000000 0.037806 0.000000 0.000000
# 5 0.000000 0.000000 0.000000 0.000000 0.046773 0.000000
# 6 0.000000 0.000000 0.000000 0.000000 0.000000 0.040832
#
#
# Mechanical properties :
#
#
# Convention : Reuss Voigt Hill
#
# Bulk Modulus (GPa) = 54.25042 62.38394 58.31718
# Shear Modulus (GPa) = 25.46652 28.41135 26.93894
#
# Velocity S-wave (km/s) = 3.70517 3.91354 3.81078
# Velocity P-wave (km/s) = 6.89560 7.35191 7.12741
#
# Compressibility (1/GPa) = 0.01843304
#
# Stress axis : x y z
#
# Youngs Moduli (GPa) = 80.84418 47.51580 122.07245
#
# Poissons Ratio (x) = 0.23083 0.13700
# Poissons Ratio (y) = 0.39274 0.68442
# Poissons Ratio (z) = 0.09073 0.26640
#
# Static dielectric constant tensor:
#      x y z
#    x 1.611350 0.000000 0.000000 
#    y 0.000000 1.630520 0.000000 
#    z 0.000000 0.000000 1.635910 
# 
# From -- ./inp_files/14676.got.cif
#   From: 2010.05.17/outbox.cif.g08.bks.cpg/sg68_8_cif.got.tgz:14676.got - 2010.06.03 18:57:09.
