data_PCOD9507490
_publ_section_title
;
Structure prediction by ZEFSAII (Michael W. Deem and Ramdas Pophale) SiO2 
 PCOD9507490
Probable space group: C C C A
;
_chemical_formula_sum "Si O2"
_cell_formula_units_Z 68
_cell_length_a 5.332369
_cell_length_b 25.421587
_cell_length_c 25.114635
_cell_angle_alpha 90.000000
_cell_angle_beta 90.000000
_cell_angle_gamma 90.000000
_cell_volume 3404.471670
_symmetry_space_group_name_H-M "C C C A"
_symmetry_group_IT_number 68
_space_group.IT_coordinate_system_code '2'
_symmetry_cell_setting 'orthorhombic'
loop_
_space_group_symop_operation_xyz
x,y,z
-x,1/2-y,z
x,1/2-y,1/2-z
-x,y,1/2-z
-x,-y,-z
x,1/2+y,-z
-x,1/2+y,1/2+z
x,-y,1/2+z
1/2+x,1/2+y,z
1/2-x,-y,z
1/2+x,-y,1/2-z
1/2-x,1/2+y,1/2-z
1/2-x,1/2-y,-z
1/2+x,y,-z
1/2-x,y,1/2+z
1/2+x,1/2-y,1/2+z
loop_
_atom_site_type_symbol
_atom_site_label
_atom_site_fract_x
_atom_site_fract_y
_atom_site_fract_z
Si Si1 0.500000 0.250000 0.750000
Si Si2 0.737389 0.439742 0.691673
Si Si3 0.856034 0.800111 0.159939
Si Si4 0.250000 0.500000 0.535323
Si Si5 0.000000 0.363669 0.750000
Si Si6 0.243041 0.587498 0.125105
O O1 0.339868 0.216568 0.793426
O O2 0.750000 0.500000 0.707920
O O3 0.494546 0.427834 0.656729
O O4 0.770462 0.403788 0.743926
O O5 0.986887 0.428895 0.655706
O O6 0.762734 0.848033 0.122997
O O7 0.000000 0.750000 0.135551
O O8 0.052417 0.827913 0.199244
O O9 0.500000 0.500000 0.500000
O O10 0.247541 0.447576 0.572035
#
# Coordination Sequence:
#
# PCOD9507490 Si02
#       6
#     4  16  16   8   8  16
#     4  12  18  36  62  90 126 184 238 244 296 340
#     4  11  21  38  58  87 136 173 213 265 313 389
#     4  11  22  37  56  86 132 175 225 262 290 372
#     4  12  24  46  76  98 122 154 212 286 362 438
#     4  10  21  34  53  84 129 180 225 246 288 350
#     4  11  24  41  63  96 125 167 211 270 343 387
#
# _framework density 19.973731000000001
#
# number of rings (size 3 to 8) (size 9 to 14) (size 15 to 20)
#    0.000    0.941    4.706    2.824    3.294    6.588 
#    0.000    0.000    0.000    1.412    0.000    0.000 
#    0.000    0.000    0.000    0.000    0.000    0.000 
#
# Total GULP energy -189300.754520 kJ/mol
# GULP energy per Si atom -5567.669251 kJ/mol
# Density = 1.992827 g / cm^3
# Si number density = 19.973731 Si / 1000 Ang^3
#
#
#
# Elastic Constant Matrix: (Units=GPa)
#
#
# Indices 1 2 3 4 5 6 
#
# 1 144.1159 30.8439 50.2787 0.0000 0.0000 0.0000
# 2 30.8439 168.0607 39.8590 0.0000 0.0000 0.0000
# 3 50.2787 39.8590 92.6026 0.0000 0.0000 0.0000
# 4 0.0000 0.0000 0.0000 -10.5038 0.0000 0.0000
# 5 0.0000 0.0000 0.0000 0.0000 35.1027 0.0000
# 6 0.0000 0.0000 0.0000 0.0000 0.0000 23.9113
#
#
#
# Elastic Compliance Matrix: (Units=1/GPa)
#
#
# Indices 1 2 3 4 5 6 
#
# 1 0.008602 -0.000525 -0.004445 0.000000 0.000000 0.000000
# 2 -0.000525 0.006659 -0.002581 0.000000 0.000000 0.000000
# 3 -0.004445 -0.002581 0.014323 0.000000 0.000000 0.000000
# 4 0.000000 0.000000 0.000000 -0.095203 0.000000 0.000000
# 5 0.000000 0.000000 0.000000 0.000000 0.028488 0.000000
# 6 0.000000 0.000000 0.000000 0.000000 0.000000 0.041821
#
#
# Mechanical properties :
#
#
# Convention : Reuss Voigt Hill
#
# Bulk Modulus (GPa) = 69.04781 71.86028 70.45405
# Shear Modulus (GPa) = 203.10844 28.62188 115.86516
#
# Velocity S-wave (km/s) = 10.09498 3.78957 7.62461
# Velocity P-wave (km/s) = 13.05842 7.42989 10.62369
#
# Compressibility (1/GPa) = 0.01448272
#
# Stress axis : x y z
#
# Youngs Moduli (GPa) = 116.25586 150.17922 69.81743
#
# Poissons Ratio (x) = 0.07878 0.31031
# Poissons Ratio (y) = 0.06098 0.18022
# Poissons Ratio (z) = 0.51670 0.38766
#
# Static dielectric constant tensor:
#      x y z
#    x 1.324970 0.000000 0.000000 
#    y 0.000000 1.883580 0.000000 
#    z 0.000000 0.000000 2.207910 
# 
# From -- ./inp_files/48203.got.cif
#   From: 2010.05.17/outbox.cif.g08.bks.cpg/sg68_25_cif.got.tgz:48203.got - 2010.06.03 18:57:09.
