data_PCOD9507383
_publ_section_title
;
Structure prediction by ZEFSAII (Michael W. Deem and Ramdas Pophale) SiO2 
 PCOD9507383
Probable space group: C C C A
;
_chemical_formula_sum "Si O2"
_cell_formula_units_Z 56
_cell_length_a 9.840854
_cell_length_b 13.624019
_cell_length_c 19.066917
_cell_angle_alpha 90.000000
_cell_angle_beta 90.000000
_cell_angle_gamma 90.000000
_cell_volume 2556.339350
_symmetry_space_group_name_H-M "C C C A"
_symmetry_group_IT_number 68
_space_group.IT_coordinate_system_code '2'
_symmetry_cell_setting 'orthorhombic'
loop_
_space_group_symop_operation_xyz
x,y,z
-x,1/2-y,z
x,1/2-y,1/2-z
-x,y,1/2-z
-x,-y,-z
x,1/2+y,-z
-x,1/2+y,1/2+z
x,-y,1/2+z
1/2+x,1/2+y,z
1/2-x,-y,z
1/2+x,-y,1/2-z
1/2-x,1/2+y,1/2-z
1/2-x,1/2-y,-z
1/2+x,y,-z
1/2-x,y,1/2+z
1/2+x,1/2-y,1/2+z
loop_
_atom_site_type_symbol
_atom_site_label
_atom_site_fract_x
_atom_site_fract_y
_atom_site_fract_z
Si Si1 0.250000 0.000000 0.346785
Si Si2 0.191211 0.841235 0.575847
Si Si3 0.345625 0.865293 0.235962
Si Si4 0.609973 0.121571 0.543331
O O1 0.241116 0.911838 0.291070
O O2 0.363697 0.965352 0.401718
O O3 0.190430 0.879099 0.654964
O O4 0.315278 0.882867 0.530965
O O5 0.177741 0.721687 0.575874
O O6 0.050570 0.868372 0.537467
O O7 0.350668 0.750000 0.250000
O O8 0.500000 0.903403 0.250000
#
# Coordination Sequence:
#
# PCOD9507383 Si02
#       4
#     8  16  16  16
#     4  12  22  36  64  98 124 162 226 270 310 400
#     4  10  20  42  64  90 127 178 208 269 322 386
#     4  11  20  41  68  89 124 177 221 263 327 390
#     4  10  21  38  65  93 126 166 221 264 320 388
#
# _framework density 21.906326
#
# number of rings (size 3 to 8) (size 9 to 14) (size 15 to 20)
#    0.000    1.429    5.714    1.714    0.000    2.286 
#    5.143    0.000    0.000    0.857    0.000    0.000 
#    0.000    0.000    0.000    0.000    0.000    0.000 
#
# Total GULP energy -156241.040784 kJ/mol
# GULP energy per Si atom -5580.037171 kJ/mol
# Density = 2.185647 g / cm^3
# Si number density = 21.906326 Si / 1000 Ang^3
#
#
#
# Elastic Constant Matrix: (Units=GPa)
#
#
# Indices 1 2 3 4 5 6 
#
# 1 63.9666 29.7029 66.4125 0.0000 0.0000 0.0000
# 2 29.7029 58.0025 28.0519 0.0000 0.0000 0.0000
# 3 66.4125 28.0519 203.3796 0.0000 0.0000 0.0000
# 4 0.0000 0.0000 0.0000 20.8883 0.0000 0.0000
# 5 0.0000 0.0000 0.0000 0.0000 8.1868 0.0000
# 6 0.0000 0.0000 0.0000 0.0000 0.0000 22.1514
#
#
#
# Elastic Compliance Matrix: (Units=1/GPa)
#
#
# Indices 1 2 3 4 5 6 
#
# 1 0.028999 -0.011004 -0.007952 0.000000 0.000000 0.000000
# 2 -0.011004 0.022649 0.000470 0.000000 0.000000 0.000000
# 3 -0.007952 0.000470 0.007449 0.000000 0.000000 0.000000
# 4 0.000000 0.000000 0.000000 0.047874 0.000000 0.000000
# 5 0.000000 0.000000 0.000000 0.000000 0.122149 0.000000
# 6 0.000000 0.000000 0.000000 0.000000 0.000000 0.045144
#
#
# Mechanical properties :
#
#
# Convention : Reuss Voigt Hill
#
# Bulk Modulus (GPa) = 45.20128 63.74260 54.47194
# Shear Modulus (GPa) = 15.69318 23.65738 19.67528
#
# Velocity S-wave (km/s) = 2.67943 3.28980 3.00017
# Velocity P-wave (km/s) = 5.50010 6.60237 6.07628
#
# Compressibility (1/GPa) = 0.02212327
#
# Stress axis : x y z
#
# Youngs Moduli (GPa) = 34.48439 44.15226 134.25196
#
# Poissons Ratio (x) = 0.48587 1.06751
# Poissons Ratio (y) = 0.37948 -0.06303
# Poissons Ratio (z) = 0.27420 -0.02073
#
# Static dielectric constant tensor:
#      x y z
#    x 1.788050 0.000000 0.000000 
#    y 0.000000 1.907760 0.000000 
#    z 0.000000 0.000000 1.793080 
# 
# From -- ./inp_files/29002.got.cif
#   From: 2010.05.17/outbox.cif.g08.bks.cpg/sg68_15_cif.got.tgz:29002.got - 2010.06.03 18:57:09.
