data_PCOD9507092
_publ_section_title
;
Structure prediction by ZEFSAII (Michael W. Deem and Ramdas Pophale) SiO2 
 PCOD9507092
Probable space group: C C C A
;
_chemical_formula_sum "Si O2"
_cell_formula_units_Z 56
_cell_length_a 17.708572
_cell_length_b 11.245116
_cell_length_c 14.119138
_cell_angle_alpha 90.000000
_cell_angle_beta 90.000000
_cell_angle_gamma 90.000000
_cell_volume 2811.613788
_symmetry_space_group_name_H-M "C C C A"
_symmetry_group_IT_number 68
_space_group.IT_coordinate_system_code '2'
_symmetry_cell_setting 'orthorhombic'
loop_
_space_group_symop_operation_xyz
x,y,z
-x,1/2-y,z
x,1/2-y,1/2-z
-x,y,1/2-z
-x,-y,-z
x,1/2+y,-z
-x,1/2+y,1/2+z
x,-y,1/2+z
1/2+x,1/2+y,z
1/2-x,-y,z
1/2+x,-y,1/2-z
1/2-x,1/2+y,1/2-z
1/2-x,1/2-y,-z
1/2+x,y,-z
1/2-x,y,1/2+z
1/2+x,1/2-y,1/2+z
loop_
_atom_site_type_symbol
_atom_site_label
_atom_site_fract_x
_atom_site_fract_y
_atom_site_fract_z
Si Si1 0.105168 0.889707 0.975634
Si Si2 0.630785 0.328293 0.656385
Si Si3 0.007800 0.964965 0.146460
Si Si4 0.750000 0.000000 0.427778
O O1 0.113334 0.761847 0.928702
O O2 0.067797 0.981946 0.900850
O O3 0.185930 0.937674 0.009252
O O4 0.050272 0.888569 0.066754
O O5 0.637272 0.250000 0.750000
O O6 0.562283 0.421054 0.663335
O O7 0.705870 0.403145 0.634776
O O8 0.000000 0.908244 0.250000
#
# Coordination Sequence:
#
# PCOD9507092 Si02
#       4
#    16  16  16   8
#     4  10  21  37  63  91 129 159 212 262 318 374
#     4  11  21  38  66  90 125 169 215 257 324 382
#     4  10  20  38  64  94 119 168 217 265 309 379
#     4  10  24  40  58  92 128 168 204 264 324 384
#
# _framework density 19.917387999999999
#
# number of rings (size 3 to 8) (size 9 to 14) (size 15 to 20)
#    0.000    1.714    2.857    1.714    0.000    1.143 
#    0.000    0.000    0.000    6.857    0.000    0.000 
#    0.000    0.000    0.000    0.000    0.000    0.000 
#
# Total GULP energy -156541.671495 kJ/mol
# GULP energy per Si atom -5590.773982 kJ/mol
# Density = 1.987205 g / cm^3
# Si number density = 19.917388 Si / 1000 Ang^3
#
#
#
# Elastic Constant Matrix: (Units=GPa)
#
#
# Indices 1 2 3 4 5 6 
#
# 1 96.7245 35.0648 18.9575 0.0000 0.0000 0.0000
# 2 35.0648 84.7217 54.6093 0.0000 0.0000 0.0000
# 3 18.9575 54.6093 130.4855 0.0000 0.0000 0.0000
# 4 0.0000 0.0000 0.0000 35.0466 0.0000 0.0000
# 5 0.0000 0.0000 0.0000 0.0000 12.4437 0.0000
# 6 0.0000 0.0000 0.0000 0.0000 0.0000 24.2079
#
#
#
# Elastic Compliance Matrix: (Units=1/GPa)
#
#
# Indices 1 2 3 4 5 6 
#
# 1 0.012184 -0.005343 0.000466 0.000000 0.000000 0.000000
# 2 -0.005343 0.018507 -0.006969 0.000000 0.000000 0.000000
# 3 0.000466 -0.006969 0.010513 0.000000 0.000000 0.000000
# 4 0.000000 0.000000 0.000000 0.028533 0.000000 0.000000
# 5 0.000000 0.000000 0.000000 0.000000 0.080362 0.000000
# 6 0.000000 0.000000 0.000000 0.000000 0.000000 0.041309
#
#
# Mechanical properties :
#
#
# Convention : Reuss Voigt Hill
#
# Bulk Modulus (GPa) = 57.10602 58.79944 57.95273
# Shear Modulus (GPa) = 22.63082 27.89296 25.26189
#
# Velocity S-wave (km/s) = 3.37446 3.74630 3.56523
# Velocity P-wave (km/s) = 6.62694 6.94973 6.79025
#
# Compressibility (1/GPa) = 0.01751129
#
# Stress axis : x y z
#
# Youngs Moduli (GPa) = 82.07239 54.03401 95.12426
#
# Poissons Ratio (x) = 0.28872 -0.04433
# Poissons Ratio (y) = 0.43854 0.66292
# Poissons Ratio (z) = -0.03825 0.37656
#
# Static dielectric constant tensor:
#      x y z
#    x 1.681000 0.000000 0.000000 
#    y 0.000000 1.698190 0.000000 
#    z 0.000000 0.000000 1.721920 
# 
# From -- ./inp_files/13940.got.cif
#   From: 2010.05.17/outbox.cif.g08.bks.cpg/sg68_7_cif.got.tgz:13940.got - 2010.06.03 18:57:09.
