data_PCOD9507297
_publ_section_title
;
Structure prediction by ZEFSAII (Michael W. Deem and Ramdas Pophale) SiO2 
 PCOD9507297
Probable space group: C C C A
;
_chemical_formula_sum "Si O2"
_cell_formula_units_Z 76
_cell_length_a 14.932685
_cell_length_b 12.838730
_cell_length_c 18.768235
_cell_angle_alpha 90.000000
_cell_angle_beta 90.000000
_cell_angle_gamma 90.000000
_cell_volume 3598.184283
_symmetry_space_group_name_H-M "C C C A"
_symmetry_group_IT_number 68
_space_group.IT_coordinate_system_code '2'
_symmetry_cell_setting 'orthorhombic'
loop_
_space_group_symop_operation_xyz
x,y,z
-x,1/2-y,z
x,1/2-y,1/2-z
-x,y,1/2-z
-x,-y,-z
x,1/2+y,-z
-x,1/2+y,1/2+z
x,-y,1/2+z
1/2+x,1/2+y,z
1/2-x,-y,z
1/2+x,-y,1/2-z
1/2-x,1/2+y,1/2-z
1/2-x,1/2-y,-z
1/2+x,y,-z
1/2-x,y,1/2+z
1/2+x,1/2-y,1/2+z
loop_
_atom_site_type_symbol
_atom_site_label
_atom_site_fract_x
_atom_site_fract_y
_atom_site_fract_z
Si Si1 0.146826 0.597727 0.700134
Si Si2 0.416178 0.925197 0.697299
Si Si3 0.000000 0.250000 0.250000
Si Si4 0.485338 0.629677 0.951302
Si Si5 0.147230 0.485328 0.043314
Si Si6 0.795427 0.750000 0.250000
O O1 0.136836 0.522669 0.768904
O O2 0.062275 0.675082 0.703232
O O3 0.149078 0.531986 0.628344
O O4 0.232915 0.671071 0.706559
O O5 0.500000 0.910829 0.750000
O O6 0.453151 0.934615 0.618132
O O7 0.356188 0.822232 0.700811
O O8 0.500000 0.750000 0.933985
O O9 0.580600 0.580915 0.974185
O O10 0.406516 0.611119 0.008357
O O11 0.250000 0.500000 0.019027
#
# Coordination Sequence:
#
# PCOD9507297 Si02
#       6
#    16  16   4  16  16   8
#     4  11  23  42  68  99 134 174 228 276 337 399
#     4  12  22  43  68  96 136 169 221 280 327 398
#     4  10  20  40  66 102 126 184 220 284 340 392
#     4  11  26  45  69 101 132 184 225 274 347 402
#     4  11  25  46  67  96 140 178 223 284 336 403
#     4  11  25  37  67 102 132 174 223 277 341 385
#
# _framework density 21.121765
#
# number of rings (size 3 to 8) (size 9 to 14) (size 15 to 20)
#    0.000    0.842    3.158    3.474    4.421    2.526 
#    3.789    0.000    0.000    0.000    0.000    0.000 
#    0.000    0.000    0.000    0.000    0.000    0.000 
#
# Total GULP energy -212412.297481 kJ/mol
# GULP energy per Si atom -5589.797302 kJ/mol
# Density = 2.107369 g / cm^3
# Si number density = 21.121765 Si / 1000 Ang^3
#
#
#
# Elastic Constant Matrix: (Units=GPa)
#
#
# Indices 1 2 3 4 5 6 
#
# 1 144.1517 37.5393 11.0629 0.0000 0.0000 0.0000
# 2 37.5393 96.4848 9.5300 0.0000 0.0000 0.0000
# 3 11.0629 9.5300 59.4757 0.0000 0.0000 0.0000
# 4 0.0000 0.0000 0.0000 18.0152 0.0000 0.0000
# 5 0.0000 0.0000 0.0000 0.0000 14.1881 0.0000
# 6 0.0000 0.0000 0.0000 0.0000 0.0000 40.5776
#
#
#
# Elastic Compliance Matrix: (Units=1/GPa)
#
#
# Indices 1 2 3 4 5 6 
#
# 1 0.007775 -0.002928 -0.000977 0.000000 0.000000 0.000000
# 2 -0.002928 0.011634 -0.001319 0.000000 0.000000 0.000000
# 3 -0.000977 -0.001319 0.017207 0.000000 0.000000 0.000000
# 4 0.000000 0.000000 0.000000 0.055509 0.000000 0.000000
# 5 0.000000 0.000000 0.000000 0.000000 0.070482 0.000000
# 6 0.000000 0.000000 0.000000 0.000000 0.000000 0.024644
#
#
# Mechanical properties :
#
#
# Convention : Reuss Voigt Hill
#
# Bulk Modulus (GPa) = 38.21773 46.26408 42.24091
# Shear Modulus (GPa) = 24.22228 30.68818 27.45523
#
# Velocity S-wave (km/s) = 3.39011 3.81585 3.60926
# Velocity P-wave (km/s) = 5.78421 6.43159 6.11647
#
# Compressibility (1/GPa) = 0.02616586
#
# Stress axis : x y z
#
# Youngs Moduli (GPa) = 128.62213 85.95494 58.11684
#
# Poissons Ratio (x) = 0.25171 0.05678
# Poissons Ratio (y) = 0.37666 0.07668
# Poissons Ratio (z) = 0.12565 0.11341
#
# Static dielectric constant tensor:
#      x y z
#    x 1.793960 0.000000 0.000000 
#    y 0.000000 1.760540 0.000000 
#    z 0.000000 0.000000 1.736840 
# 
# From -- ./inp_files/38438.got.cif
#   From: 2010.05.17/outbox.cif.g08.bks.cpg/sg68_20_cif.got.tgz:38438.got - 2010.06.03 18:57:09.
