data_PCOD9507987
_publ_section_title
;
Structure prediction by ZEFSAII (Michael W. Deem and Ramdas Pophale) SiO2 
 PCOD9507987
Probable space group: C C C A
;
_chemical_formula_sum "Si O2"
_cell_formula_units_Z 60
_cell_length_a 9.639437
_cell_length_b 10.500559
_cell_length_c 26.713970
_cell_angle_alpha 90.000000
_cell_angle_beta 90.000000
_cell_angle_gamma 90.000000
_cell_volume 2703.974071
_symmetry_space_group_name_H-M "C C C A"
_symmetry_group_IT_number 68
_space_group.IT_coordinate_system_code '2'
_symmetry_cell_setting 'orthorhombic'
loop_
_space_group_symop_operation_xyz
x,y,z
-x,1/2-y,z
x,1/2-y,1/2-z
-x,y,1/2-z
-x,-y,-z
x,1/2+y,-z
-x,1/2+y,1/2+z
x,-y,1/2+z
1/2+x,1/2+y,z
1/2-x,-y,z
1/2+x,-y,1/2-z
1/2-x,1/2+y,1/2-z
1/2-x,1/2-y,-z
1/2+x,y,-z
1/2-x,y,1/2+z
1/2+x,1/2-y,1/2+z
loop_
_atom_site_type_symbol
_atom_site_label
_atom_site_fract_x
_atom_site_fract_y
_atom_site_fract_z
Si Si1 0.731235 0.195636 0.928004
Si Si2 0.553884 0.449378 0.911203
Si Si3 0.250000 0.000000 0.990745
Si Si4 0.113371 0.586864 0.337855
Si Si5 0.000000 0.250000 0.750000
O O1 0.657410 0.329273 0.914968
O O2 0.599196 0.099968 0.923418
O O3 0.843893 0.174657 0.884892
O O4 0.789598 0.128953 0.978643
O O5 0.619235 0.535198 0.954970
O O6 0.525135 0.513556 0.857510
O O7 0.250000 0.500000 0.330957
O O8 0.087227 0.662575 0.287535
#
# Coordination Sequence:
#
# PCOD9507987 Si02
#       5
#    16  16   8  16   4
#     4  10  21  40  60  92 141 180 215 269 326 402
#     4  10  22  38  61  94 137 180 216 268 334 395
#     4  12  20  36  64 102 138 186 226 256 322 422
#     4  10  24  48  65  97 134 162 229 291 338 406
#     4  12  28  44  80  96 116 180 232 296 352 406
#
# _framework density 22.189561999999999
#
# number of rings (size 3 to 8) (size 9 to 14) (size 15 to 20)
#    0.000    1.600    4.000    1.600    3.733    2.133 
#    0.000    0.000    0.000    0.000    0.000    0.000 
#    0.000    0.000    0.000    0.000    0.000    0.000 
#
# Total GULP energy -167090.110427 kJ/mol
# GULP energy per Si atom -5569.670348 kJ/mol
# Density = 2.213906 g / cm^3
# Si number density = 22.189562 Si / 1000 Ang^3
#
#
#
# Elastic Constant Matrix: (Units=GPa)
#
#
# Indices 1 2 3 4 5 6 
#
# 1 91.8246 37.5340 60.5059 0.0000 0.0000 0.0000
# 2 37.5340 87.6339 57.8480 0.0000 0.0000 0.0000
# 3 60.5059 57.8480 164.5374 0.0000 0.0000 0.0000
# 4 0.0000 0.0000 0.0000 7.9114 0.0000 0.0000
# 5 0.0000 0.0000 0.0000 0.0000 -11.0830 0.0000
# 6 0.0000 0.0000 0.0000 0.0000 0.0000 29.2926
#
#
#
# Elastic Compliance Matrix: (Units=1/GPa)
#
#
# Indices 1 2 3 4 5 6 
#
# 1 0.015233 -0.003681 -0.004308 0.000000 0.000000 0.000000
# 2 -0.003681 0.015749 -0.004183 0.000000 0.000000 0.000000
# 3 -0.004308 -0.004183 0.009133 0.000000 0.000000 0.000000
# 4 0.000000 0.000000 0.000000 0.126399 0.000000 0.000000
# 5 0.000000 0.000000 0.000000 0.000000 -0.090229 0.000000
# 6 0.000000 0.000000 0.000000 0.000000 0.000000 0.034138
#
#
# Mechanical properties :
#
#
# Convention : Reuss Voigt Hill
#
# Bulk Modulus (GPa) = 63.40798 72.86355 68.13576
# Shear Modulus (GPa) = 35.70780 17.76476 26.73628
#
# Velocity S-wave (km/s) = 4.01586 2.83254 3.47494
# Velocity P-wave (km/s) = 7.08099 6.60347 6.84640
#
# Compressibility (1/GPa) = 0.01577089
#
# Stress axis : x y z
#
# Youngs Moduli (GPa) = 65.64516 63.49507 109.49851
#
# Poissons Ratio (x) = 0.23373 0.47168
# Poissons Ratio (y) = 0.24164 0.45808
# Poissons Ratio (z) = 0.28278 0.26563
#
# Static dielectric constant tensor:
#      x y z
#    x 1.795570 0.000000 0.000000 
#    y 0.000000 2.002890 0.000000 
#    z 0.000000 0.000000 1.867980 
# 
# From -- ./inp_files/37068.got.cif
#   From: 2010.05.17/outbox.cif.g08.bks.cpg/sg68_19_cif.got.tgz:37068.got - 2010.06.03 18:57:09.
