data_PCOD9507715
_publ_section_title
;
Structure prediction by ZEFSAII (Michael W. Deem and Ramdas Pophale) SiO2 
 PCOD9507715
Probable space group: C C C A
;
_chemical_formula_sum "Si O2"
_cell_formula_units_Z 68
_cell_length_a 30.576709
_cell_length_b 5.230885
_cell_length_c 23.329173
_cell_angle_alpha 90.000000
_cell_angle_beta 90.000000
_cell_angle_gamma 90.000000
_cell_volume 3731.343713
_symmetry_space_group_name_H-M "C C C A"
_symmetry_group_IT_number 68
_space_group.IT_coordinate_system_code '2'
_symmetry_cell_setting 'orthorhombic'
loop_
_space_group_symop_operation_xyz
x,y,z
-x,1/2-y,z
x,1/2-y,1/2-z
-x,y,1/2-z
-x,-y,-z
x,1/2+y,-z
-x,1/2+y,1/2+z
x,-y,1/2+z
1/2+x,1/2+y,z
1/2-x,-y,z
1/2+x,-y,1/2-z
1/2-x,1/2+y,1/2-z
1/2-x,1/2-y,-z
1/2+x,y,-z
1/2-x,y,1/2+z
1/2+x,1/2-y,1/2+z
loop_
_atom_site_type_symbol
_atom_site_label
_atom_site_fract_x
_atom_site_fract_y
_atom_site_fract_z
Si Si1 0.723618 0.746919 0.180184
Si Si2 0.948260 0.754258 0.470561
Si Si3 0.500000 0.250000 0.250000
Si Si4 0.876432 0.842514 0.816077
Si Si5 0.927900 0.141175 0.659310
O O1 0.723651 0.750000 0.250000
O O2 0.750000 0.500000 0.160902
O O3 0.673165 0.705676 0.163711
O O4 0.750000 0.000000 0.161920
O O5 0.928877 0.511605 0.503421
O O6 0.943908 0.731935 0.402591
O O7 0.000000 0.750000 0.483586
O O8 0.533286 0.387998 0.293908
O O9 0.878268 0.750000 0.750000
O O10 0.906712 0.636897 0.847715
O O11 0.894314 0.132927 0.820606
#
# Coordination Sequence:
#
# PCOD9507715 Si02
#       5
#    16  16   4  16  16
#     4   9  17  30  49  71 103 144 177 206 258 325
#     4  10  21  38  56  74  98 141 192 238 269 298
#     4  12  24  38  52  82 112 162 176 216 264 334
#     4  11  21  34  51  80 114 144 176 223 266 325
#     4  12  23  37  54  79 114 145 191 219 264 324
#
# _framework density 18.223997000000001
#
# number of rings (size 3 to 8) (size 9 to 14) (size 15 to 20)
#    0.000    1.412    3.529    2.824    0.000    5.647 
#    0.000    0.000    0.000    0.000    0.000    0.000 
#    0.000   65.882    0.000    0.000    0.000    0.000 
#
# Total GULP energy -189506.698033 kJ/mol
# GULP energy per Si atom -5573.726413 kJ/mol
# Density = 1.818252 g / cm^3
# Si number density = 18.223997 Si / 1000 Ang^3
#
#
#
# Elastic Constant Matrix: (Units=GPa)
#
#
# Indices 1 2 3 4 5 6 
#
# 1 86.5429 38.3158 -5.0499 0.0000 0.0000 0.0000
# 2 38.3158 104.3146 21.5544 0.0000 0.0000 0.0000
# 3 -5.0499 21.5544 59.4103 0.0000 0.0000 0.0000
# 4 0.0000 0.0000 0.0000 23.5484 0.0000 0.0000
# 5 0.0000 0.0000 0.0000 0.0000 -2.3939 0.0000
# 6 0.0000 0.0000 0.0000 0.0000 0.0000 11.6654
#
#
#
# Elastic Compliance Matrix: (Units=1/GPa)
#
#
# Indices 1 2 3 4 5 6 
#
# 1 0.014407 -0.005994 0.003399 0.000000 0.000000 0.000000
# 2 -0.005994 0.012857 -0.005174 0.000000 0.000000 0.000000
# 3 0.003399 -0.005174 0.018998 0.000000 0.000000 0.000000
# 4 0.000000 0.000000 0.000000 0.042466 0.000000 0.000000
# 5 0.000000 0.000000 0.000000 0.000000 -0.417727 0.000000
# 6 0.000000 0.000000 0.000000 0.000000 0.000000 0.085723
#
#
# Mechanical properties :
#
#
# Convention : Reuss Voigt Hill
#
# Bulk Modulus (GPa) = 32.54730 39.98984 36.26857
# Shear Modulus (GPa) = -22.98897 19.59382 -1.69757
#
# Velocity S-wave (km/s) = -3.55557 3.28253 -0.96619
# Velocity P-wave (km/s) = 1.02092 6.02974 4.32436
#
# Compressibility (1/GPa) = 0.03072451
#
# Stress axis : x y z
#
# Youngs Moduli (GPa) = 69.40952 77.77676 52.63626
#
# Poissons Ratio (x) = 0.46622 -0.17893
# Poissons Ratio (y) = 0.41606 0.27235
# Poissons Ratio (z) = -0.23595 0.40244
#
# Static dielectric constant tensor:
#      x y z
#    x 1.652900 0.000000 0.000000 
#    y 0.000000 1.695530 0.000000 
#    z 0.000000 0.000000 1.611300 
# 
# From -- ./inp_files/1525.got.cif
#   From: 2010.05.17/outbox.cif.g08.bks.cpg/sg68_1_cif.got.tgz:1525.got - 2010.06.03 18:57:09.
