data_PCOD9507446
_publ_section_title
;
Structure prediction by ZEFSAII (Michael W. Deem and Ramdas Pophale) SiO2 
 PCOD9507446
Probable space group: C C C A
;
_chemical_formula_sum "Si O2"
_cell_formula_units_Z 88
_cell_length_a 19.135683
_cell_length_b 8.248201
_cell_length_c 26.770006
_cell_angle_alpha 90.000000
_cell_angle_beta 90.000000
_cell_angle_gamma 90.000000
_cell_volume 4225.242817
_symmetry_space_group_name_H-M "C C C A"
_symmetry_group_IT_number 68
_space_group.IT_coordinate_system_code '2'
_symmetry_cell_setting 'orthorhombic'
loop_
_space_group_symop_operation_xyz
x,y,z
-x,1/2-y,z
x,1/2-y,1/2-z
-x,y,1/2-z
-x,-y,-z
x,1/2+y,-z
-x,1/2+y,1/2+z
x,-y,1/2+z
1/2+x,1/2+y,z
1/2-x,-y,z
1/2+x,-y,1/2-z
1/2-x,1/2+y,1/2-z
1/2-x,1/2-y,-z
1/2+x,y,-z
1/2-x,y,1/2+z
1/2+x,1/2-y,1/2+z
loop_
_atom_site_type_symbol
_atom_site_label
_atom_site_fract_x
_atom_site_fract_y
_atom_site_fract_z
Si Si1 0.000000 0.250000 0.575067
Si Si2 0.167189 0.750000 0.750000
Si Si3 0.804757 0.107289 0.002429
Si Si4 0.365385 0.552146 0.892506
Si Si5 0.948801 0.593636 0.943484
Si Si6 0.250000 0.500000 0.816836
Si Si7 0.078434 0.215645 0.342620
O O1 0.931171 0.323779 0.602997
O O2 0.022861 0.412676 0.544472
O O3 0.211464 0.622625 0.780682
O O4 0.121380 0.670792 0.706070
O O5 0.828385 0.044366 0.947208
O O6 0.750000 0.000000 0.033921
O O7 0.750000 0.250000 0.000000
O O8 0.878510 0.134958 0.027560
O O9 0.304859 0.592526 0.852875
O O10 0.392915 0.377366 0.871778
O O11 0.927361 0.580877 0.885215
O O12 0.000000 0.750000 0.946097
O O13 0.000000 0.250000 0.325746
#
# Coordination Sequence:
#
# PCOD9507446 Si02
#       7
#     8   8  16  16  16   8  16
#     4  12  24  42  70 103 136 192 234 293 352 414
#     4  10  23  40  76  97 130 184 228 286 368 429
#     4  12  26  44  66 102 141 195 240 289 348 428
#     4  11  23  43  69 100 142 183 232 294 355 412
#     4  11  25  45  70 104 145 190 242 297 348 423
#     4  10  24  46  70 100 144 180 226 302 356 436
#     4  10  20  45  69  98 136 177 227 298 354 418
#
# _framework density 20.827203999999998
#
# number of rings (size 3 to 8) (size 9 to 14) (size 15 to 20)
#    0.000    1.091    4.545    2.455    3.818    2.182 
#    3.273    0.000    0.000    1.091    0.000    0.000 
#    0.000    0.000    0.000    0.000    0.000    0.000 
#
# Total GULP energy -245057.942031 kJ/mol
# GULP energy per Si atom -5569.498683 kJ/mol
# Density = 2.077980 g / cm^3
# Si number density = 20.827204 Si / 1000 Ang^3
#
#
#
# Elastic Constant Matrix: (Units=GPa)
#
#
# Indices 1 2 3 4 5 6 
#
# 1 176.7550 44.5712 72.6666 0.0000 0.0000 0.0000
# 2 44.5712 82.3610 11.2450 0.0000 0.0000 0.0000
# 3 72.6666 11.2450 124.3364 0.0000 0.0000 0.0000
# 4 0.0000 0.0000 0.0000 30.9965 0.0000 0.0000
# 5 0.0000 0.0000 0.0000 0.0000 50.4219 0.0000
# 6 0.0000 0.0000 0.0000 0.0000 0.0000 32.3031
#
#
#
# Elastic Compliance Matrix: (Units=1/GPa)
#
#
# Indices 1 2 3 4 5 6 
#
# 1 0.008581 -0.004009 -0.004653 0.000000 0.000000 0.000000
# 2 -0.004009 0.014166 0.001062 0.000000 0.000000 0.000000
# 3 -0.004653 0.001062 0.010666 0.000000 0.000000 0.000000
# 4 0.000000 0.000000 0.000000 0.032262 0.000000 0.000000
# 5 0.000000 0.000000 0.000000 0.000000 0.019833 0.000000
# 6 0.000000 0.000000 0.000000 0.000000 0.000000 0.030957
#
#
# Mechanical properties :
#
#
# Convention : Reuss Voigt Hill
#
# Bulk Modulus (GPa) = 54.90336 71.15754 63.03045
# Shear Modulus (GPa) = 36.30171 39.74227 38.02199
#
# Velocity S-wave (km/s) = 4.17945 4.37302 4.27733
# Velocity P-wave (km/s) = 7.05046 7.72901 7.39752
#
# Compressibility (1/GPa) = 0.01821382
#
# Stress axis : x y z
#
# Youngs Moduli (GPa) = 116.53503 70.59129 93.75758
#
# Poissons Ratio (x) = 0.28297 0.43621
# Poissons Ratio (y) = 0.46714 -0.09953
# Poissons Ratio (z) = 0.54219 -0.07494
#
# Static dielectric constant tensor:
#      x y z
#    x 1.779940 0.000000 0.000000 
#    y 0.000000 1.718040 0.000000 
#    z 0.000000 0.000000 1.758990 
# 
# From -- ./inp_files/55603.got.cif
#   From: 2010.05.17/outbox.cif.g08.bks.cpg/sg68_28_cif.got.tgz:55603.got - 2010.06.03 18:57:09.
