data_PCOD9507233
_publ_section_title
;
Structure prediction by ZEFSAII (Michael W. Deem and Ramdas Pophale) SiO2 
 PCOD9507233
Probable space group: C C C A
;
_chemical_formula_sum "Si O2"
_cell_formula_units_Z 108
_cell_length_a 26.173622
_cell_length_b 17.264942
_cell_length_c 12.074148
_cell_angle_alpha 90.000000
_cell_angle_beta 90.000000
_cell_angle_gamma 90.000000
_cell_volume 5456.139237
_symmetry_space_group_name_H-M "C C C A"
_symmetry_group_IT_number 68
_space_group.IT_coordinate_system_code '2'
_symmetry_cell_setting 'orthorhombic'
loop_
_space_group_symop_operation_xyz
x,y,z
-x,1/2-y,z
x,1/2-y,1/2-z
-x,y,1/2-z
-x,-y,-z
x,1/2+y,-z
-x,1/2+y,1/2+z
x,-y,1/2+z
1/2+x,1/2+y,z
1/2-x,-y,z
1/2+x,-y,1/2-z
1/2-x,1/2+y,1/2-z
1/2-x,1/2-y,-z
1/2+x,y,-z
1/2-x,y,1/2+z
1/2+x,1/2-y,1/2+z
loop_
_atom_site_type_symbol
_atom_site_label
_atom_site_fract_x
_atom_site_fract_y
_atom_site_fract_z
Si Si1 0.848450 0.593676 0.395444
Si Si2 0.000000 0.750000 0.750000
Si Si3 0.723927 0.916413 0.816098
Si Si4 0.558979 0.547396 0.747870
Si Si5 0.144039 0.750000 0.750000
Si Si6 0.424746 0.127853 0.825799
Si Si7 0.293678 0.704417 0.437271
Si Si8 0.128070 0.938561 0.033248
O O1 0.803142 0.589631 0.303765
O O2 0.902051 0.595486 0.327305
O O3 0.831730 0.661715 0.477967
O O4 0.854017 0.516059 0.468955
O O5 0.030378 0.809404 0.828583
O O6 0.766786 0.855527 0.852231
O O7 0.677781 0.907765 0.903563
O O8 0.750000 0.000000 0.824478
O O9 0.500000 0.573929 0.750000
O O10 0.559721 0.457899 0.788856
O O11 0.585049 0.546739 0.626842
O O12 0.111535 0.828585 0.737090
O O13 0.176313 0.737979 0.641254
O O14 0.396420 0.116754 0.941640
O O15 0.250000 0.750000 0.500000
#
# Coordination Sequence:
#
# PCOD9507233 Si02
#       8
#    16   4  16  16   8  16  16  16
#     4  10  23  37  61  95 126 164 209 265 316 385
#     4  10  20  40  56  96 114 172 204 258 318 402
#     4  11  23  37  62  91 130 161 217 259 313 379
#     4  10  21  41  65  95 124 156 210 275 328 379
#     4  11  24  39  60  86 128 164 207 254 301 384
#     4  10  21  38  61  86 130 154 207 259 317 380
#     4  12  24  41  61  93 125 178 209 255 321 380
#     4  10  21  39  61  94 120 162 205 267 319 376
#
# _framework density 19.794215999999999
#
# number of rings (size 3 to 8) (size 9 to 14) (size 15 to 20)
#    0.000    1.481    2.222    2.667    6.222    2.370 
#    5.333    0.000    0.000    0.000    0.000    0.000 
#    0.000    0.000    0.000    0.000    0.000    0.000 
#
# Total GULP energy -301207.346122 kJ/mol
# GULP energy per Si atom -5577.913817 kJ/mol
# Density = 1.974916 g / cm^3
# Si number density = 19.794216 Si / 1000 Ang^3
#
#
#
# Elastic Constant Matrix: (Units=GPa)
#
#
# Indices 1 2 3 4 5 6 
#
# 1 104.1610 36.8633 41.2750 0.0000 0.0000 0.0000
# 2 36.8633 64.7283 26.0933 0.0000 0.0000 0.0000
# 3 41.2750 26.0933 103.2439 0.0000 0.0000 0.0000
# 4 0.0000 0.0000 0.0000 25.8765 0.0000 0.0000
# 5 0.0000 0.0000 0.0000 0.0000 12.2493 0.0000
# 6 0.0000 0.0000 0.0000 0.0000 0.0000 23.9068
#
#
#
# Elastic Compliance Matrix: (Units=1/GPa)
#
#
# Indices 1 2 3 4 5 6 
#
# 1 0.013220 -0.006011 -0.003766 0.000000 0.000000 0.000000
# 2 -0.006011 0.019935 -0.002635 0.000000 0.000000 0.000000
# 3 -0.003766 -0.002635 0.011857 0.000000 0.000000 0.000000
# 4 0.000000 0.000000 0.000000 0.038645 0.000000 0.000000
# 5 0.000000 0.000000 0.000000 0.000000 0.081637 0.000000
# 6 0.000000 0.000000 0.000000 0.000000 0.000000 0.041829
#
#
# Mechanical properties :
#
#
# Convention : Reuss Voigt Hill
#
# Bulk Modulus (GPa) = 49.53392 53.39961 51.46677
# Shear Modulus (GPa) = 20.94882 23.59997 22.27439
#
# Velocity S-wave (km/s) = 3.25673 3.45667 3.35819
# Velocity P-wave (km/s) = 6.26262 6.55495 6.41045
#
# Compressibility (1/GPa) = 0.02018818
#
# Stress axis : x y z
#
# Youngs Moduli (GPa) = 75.64233 50.16384 84.33558
#
# Poissons Ratio (x) = 0.30152 0.31761
# Poissons Ratio (y) = 0.45467 0.22224
# Poissons Ratio (z) = 0.28487 0.13219
#
# Static dielectric constant tensor:
#      x y z
#    x 1.779040 0.000000 0.000000 
#    y 0.000000 1.676410 0.000000 
#    z 0.000000 0.000000 1.712750 
# 
# From -- ./inp_files/16590.got.cif
#   From: 2010.05.17/outbox.cif.g08.bks.cpg/sg68_9_cif.got.tgz:16590.got - 2010.06.03 18:57:09.
