data_PCOD9507663
_publ_section_title
;
Structure prediction by ZEFSAII (Michael W. Deem and Ramdas Pophale) SiO2 
 PCOD9507663
Probable space group: C C C A
;
_chemical_formula_sum "Si O2"
_cell_formula_units_Z 112
_cell_length_a 16.218320
_cell_length_b 12.186344
_cell_length_c 28.543781
_cell_angle_alpha 90.000000
_cell_angle_beta 90.000000
_cell_angle_gamma 90.000000
_cell_volume 5641.450724
_symmetry_space_group_name_H-M "C C C A"
_symmetry_group_IT_number 68
_space_group.IT_coordinate_system_code '2'
_symmetry_cell_setting 'orthorhombic'
loop_
_space_group_symop_operation_xyz
x,y,z
-x,1/2-y,z
x,1/2-y,1/2-z
-x,y,1/2-z
-x,-y,-z
x,1/2+y,-z
-x,1/2+y,1/2+z
x,-y,1/2+z
1/2+x,1/2+y,z
1/2-x,-y,z
1/2+x,-y,1/2-z
1/2-x,1/2+y,1/2-z
1/2-x,1/2-y,-z
1/2+x,y,-z
1/2-x,y,1/2+z
1/2+x,1/2-y,1/2+z
loop_
_atom_site_type_symbol
_atom_site_label
_atom_site_fract_x
_atom_site_fract_y
_atom_site_fract_z
Si Si1 0.098295 0.123503 0.241607
Si Si2 0.589709 0.547221 0.482406
Si Si3 0.839105 0.441060 0.138916
Si Si4 0.594116 0.777994 0.100508
Si Si5 0.845078 0.525534 0.835068
Si Si6 0.598022 0.130369 0.088970
Si Si7 0.096417 0.371365 0.920783
O O1 0.123124 0.250000 0.250000
O O2 0.128172 0.092176 0.189966
O O3 0.137044 0.044866 0.280812
O O4 0.000000 0.117394 0.250000
O O5 0.500000 0.500000 0.500000
O O6 0.586411 0.654807 0.448675
O O7 0.631362 0.452457 0.450928
O O8 0.631661 0.581837 0.530669
O O9 0.750000 0.500000 0.140380
O O10 0.853049 0.334077 0.105465
O O11 0.893841 0.538207 0.118487
O O12 0.500000 0.750000 0.113965
O O13 0.629601 0.864081 0.137727
O O14 0.750000 0.500000 0.842621
O O15 0.893251 0.428030 0.861112
O O16 0.502089 0.140869 0.075914
O O17 0.633886 0.252194 0.089344
#
# Coordination Sequence:
#
# PCOD9507663 Si02
#       7
#    16  16  16  16  16  16  16
#     4  11  22  42  71  98 126 165 233 286 330 402
#     4   9  19  35  63  97 122 168 229 283 319 388
#     4  12  26  41  62 100 140 173 214 286 349 403
#     4  11  22  40  71  96 131 174 234 280 330 393
#     4  11  23  40  65  94 129 172 213 273 340 407
#     4   9  20  37  60  89 122 167 218 270 322 391
#     4  10  21  37  61  88 129 170 218 270 325 397
#
# _framework density 19.853048999999999
#
# number of rings (size 3 to 8) (size 9 to 14) (size 15 to 20)
#    0.000    1.571    1.429    4.714    8.000    0.000 
#    0.000    4.286    0.000    2.571    0.000    0.000 
#    0.000    0.000    0.000    0.000    0.000    0.000 
#
# Total GULP energy -312277.948849 kJ/mol
# GULP energy per Si atom -5576.391944 kJ/mol
# Density = 1.980786 g / cm^3
# Si number density = 19.853049 Si / 1000 Ang^3
#
#
#
# Elastic Constant Matrix: (Units=GPa)
#
#
# Indices 1 2 3 4 5 6 
#
# 1 48.8368 23.6655 15.3664 0.0000 0.0000 0.0000
# 2 23.6655 172.5552 74.0609 0.0000 0.0000 0.0000
# 3 15.3664 74.0609 116.7865 0.0000 0.0000 0.0000
# 4 0.0000 0.0000 0.0000 115.7774 0.0000 0.0000
# 5 0.0000 0.0000 0.0000 0.0000 -206.6348 0.0000
# 6 0.0000 0.0000 0.0000 0.0000 0.0000 -0.6644
#
#
#
# Elastic Compliance Matrix: (Units=1/GPa)
#
#
# Indices 1 2 3 4 5 6 
#
# 1 0.022089 -0.002448 -0.001354 0.000000 0.000000 0.000000
# 2 -0.002448 0.008234 -0.004899 0.000000 0.000000 0.000000
# 3 -0.001354 -0.004899 0.011848 0.000000 0.000000 0.000000
# 4 0.000000 0.000000 0.000000 0.008637 0.000000 0.000000
# 5 0.000000 0.000000 0.000000 0.000000 -0.004839 0.000000
# 6 0.000000 0.000000 0.000000 0.000000 0.000000 -1.505137
#
#
# Mechanical properties :
#
#
# Convention : Reuss Voigt Hill
#
# Bulk Modulus (GPa) = 40.37574 62.70710 51.54142
# Shear Modulus (GPa) = -3.48794 -3.29865 -3.39330
#
# Velocity S-wave (km/s) = -1.32691 -1.29040 -1.30878
# Velocity P-wave (km/s) = 4.24663 5.42531 4.87175
#
# Compressibility (1/GPa) = 0.02476735
#
# Stress axis : x y z
#
# Youngs Moduli (GPa) = 45.27192 121.44948 84.40423
#
# Poissons Ratio (x) = 0.29736 0.11426
# Poissons Ratio (y) = 0.11084 0.41353
# Poissons Ratio (z) = 0.06128 0.59503
#
# Static dielectric constant tensor:
#      x y z
#    x 1.529530 0.000000 0.000000 
#    y 0.000000 1.741120 0.000000 
#    z 0.000000 0.000000 1.717580 
# 
# From -- ./inp_files/55249.got.cif
#   From: 2010.05.17/outbox.cif.g08.bks.cpg/sg68_28_cif.got.tgz:55249.got - 2010.06.03 18:57:09.
