data_PCOD9507645
_publ_section_title
;
Structure prediction by ZEFSAII (Michael W. Deem and Ramdas Pophale) SiO2 
 PCOD9507645
Probable space group: C C C A
;
_chemical_formula_sum "Si O2"
_cell_formula_units_Z 80
_cell_length_a 18.080953
_cell_length_b 9.004390
_cell_length_c 20.224141
_cell_angle_alpha 90.000000
_cell_angle_beta 90.000000
_cell_angle_gamma 90.000000
_cell_volume 3292.650985
_symmetry_space_group_name_H-M "C C C A"
_symmetry_group_IT_number 68
_space_group.IT_coordinate_system_code '2'
_symmetry_cell_setting 'orthorhombic'
loop_
_space_group_symop_operation_xyz
x,y,z
-x,1/2-y,z
x,1/2-y,1/2-z
-x,y,1/2-z
-x,-y,-z
x,1/2+y,-z
-x,1/2+y,1/2+z
x,-y,1/2+z
1/2+x,1/2+y,z
1/2-x,-y,z
1/2+x,-y,1/2-z
1/2-x,1/2+y,1/2-z
1/2-x,1/2-y,-z
1/2+x,y,-z
1/2-x,y,1/2+z
1/2+x,1/2-y,1/2+z
loop_
_atom_site_type_symbol
_atom_site_label
_atom_site_fract_x
_atom_site_fract_y
_atom_site_fract_z
Si Si1 0.130311 0.218605 0.385831
Si Si2 0.127489 0.750000 0.250000
Si Si3 0.137256 0.950442 0.140301
Si Si4 0.250000 0.000000 0.437267
Si Si5 0.039316 0.955978 0.352047
Si Si6 0.377121 0.209673 0.468014
O O1 0.156870 0.377897 0.361396
O O2 0.070081 0.122824 0.346690
O O3 0.097051 0.247249 0.459404
O O4 0.198957 0.107353 0.394003
O O5 0.171053 0.856098 0.200108
O O6 0.078170 0.644549 0.203186
O O7 0.146174 0.855373 0.073383
O O8 0.048252 0.951185 0.151556
O O9 0.194723 0.893894 0.476525
O O10 0.066313 0.883438 0.422069
#
# Coordination Sequence:
#
# PCOD9507645 Si02
#       6
#    16   8  16   8  16  16
#     4  11  23  36  58  89 117 152 194 239 288 340
#     4  10  21  40  60  84 118 156 192 228 285 350
#     4  11  21  36  62  89 118 155 189 235 290 344
#     4  10  22  40  56  82 120 156 198 236 280 346
#     4  10  21  37  59  88 123 154 186 233 288 348
#     4  10  21  37  60  88 119 155 189 235 290 341
#
# _framework density 24.296531999999999
#
# number of rings (size 3 to 8) (size 9 to 14) (size 15 to 20)
#    0.000    1.600    0.000    7.200    0.000    6.400 
#    0.000    2.000    0.000   64.800    0.000    1.400 
#    0.000    0.000    0.000    0.000    0.000    0.000 
#
# Total GULP energy -224002.757340 kJ/mol
# GULP energy per Si atom -5600.068933 kJ/mol
# Density = 2.424123 g / cm^3
# Si number density = 24.296532 Si / 1000 Ang^3
#
#
#
# Elastic Constant Matrix: (Units=GPa)
#
#
# Indices 1 2 3 4 5 6 
#
# 1 50.0991 20.4026 6.7093 0.0000 0.0000 0.0000
# 2 20.4026 207.1203 44.7595 0.0000 0.0000 0.0000
# 3 6.7093 44.7595 89.7360 0.0000 0.0000 0.0000
# 4 0.0000 0.0000 0.0000 8.4844 0.0000 0.0000
# 5 0.0000 0.0000 0.0000 0.0000 11.9500 0.0000
# 6 0.0000 0.0000 0.0000 0.0000 0.0000 37.2226
#
#
#
# Elastic Compliance Matrix: (Units=1/GPa)
#
#
# Indices 1 2 3 4 5 6 
#
# 1 0.020823 -0.001922 -0.000598 0.000000 0.000000 0.000000
# 2 -0.001922 0.005589 -0.002644 0.000000 0.000000 0.000000
# 3 -0.000598 -0.002644 0.012507 0.000000 0.000000 0.000000
# 4 0.000000 0.000000 0.000000 0.117864 0.000000 0.000000
# 5 0.000000 0.000000 0.000000 0.000000 0.083682 0.000000
# 6 0.000000 0.000000 0.000000 0.000000 0.000000 0.026865
#
#
# Mechanical properties :
#
#
# Convention : Reuss Voigt Hill
#
# Bulk Modulus (GPa) = 34.97594 54.52204 44.74899
# Shear Modulus (GPa) = 17.41012 29.87033 23.64022
#
# Velocity S-wave (km/s) = 2.67978 3.51009 3.12266
# Velocity P-wave (km/s) = 4.89915 6.23832 5.60885
#
# Compressibility (1/GPa) = 0.02859108
#
# Stress axis : x y z
#
# Youngs Moduli (GPa) = 48.02327 178.92922 79.95328
#
# Poissons Ratio (x) = 0.34389 0.04783
# Poissons Ratio (y) = 0.09230 0.21139
# Poissons Ratio (z) = 0.02873 0.47308
#
# Static dielectric constant tensor:
#      x y z
#    x 1.966580 0.000000 0.000000 
#    y 0.000000 1.961100 0.000000 
#    z 0.000000 0.000000 1.947180 
# 
# From -- ./inp_files/46407.got.cif
#   From: 2010.05.17/outbox.cif.g08.bks.cpg/sg68_24_cif.got.tgz:46407.got - 2010.06.03 18:57:09.
