data_PCOD9507957
_publ_section_title
;
Structure prediction by ZEFSAII (Michael W. Deem and Ramdas Pophale) SiO2 
 PCOD9507957
Probable space group: C C C A
;
_chemical_formula_sum "Si O2"
_cell_formula_units_Z 68
_cell_length_a 17.403576
_cell_length_b 20.620098
_cell_length_c 8.916573
_cell_angle_alpha 90.000000
_cell_angle_beta 90.000000
_cell_angle_gamma 90.000000
_cell_volume 3199.832084
_symmetry_space_group_name_H-M "C C C A"
_symmetry_group_IT_number 68
_space_group.IT_coordinate_system_code '2'
_symmetry_cell_setting 'orthorhombic'
loop_
_space_group_symop_operation_xyz
x,y,z
-x,1/2-y,z
x,1/2-y,1/2-z
-x,y,1/2-z
-x,-y,-z
x,1/2+y,-z
-x,1/2+y,1/2+z
x,-y,1/2+z
1/2+x,1/2+y,z
1/2-x,-y,z
1/2+x,-y,1/2-z
1/2-x,1/2+y,1/2-z
1/2-x,1/2-y,-z
1/2+x,y,-z
1/2-x,y,1/2+z
1/2+x,1/2-y,1/2+z
loop_
_atom_site_type_symbol
_atom_site_label
_atom_site_fract_x
_atom_site_fract_y
_atom_site_fract_z
Si Si1 0.635054 0.829077 0.113636
Si Si2 0.262649 0.145483 0.601745
Si Si3 0.554106 0.463879 0.880889
Si Si4 0.000000 0.250000 0.250000
Si Si5 0.310750 0.444409 0.156700
O O1 0.681588 0.825401 0.271733
O O2 0.607583 0.902845 0.077561
O O3 0.557531 0.789584 0.141439
O O4 0.696835 0.812714 0.982985
O O5 0.311646 0.109758 0.472827
O O6 0.219182 0.089832 0.694974
O O7 0.500000 0.437979 0.750000
O O8 0.609619 0.519876 0.819612
O O9 0.500000 0.500000 0.000000
O O10 0.250000 0.500000 0.112960
#
# Coordination Sequence:
#
# PCOD9507957 Si02
#       5
#    16  16  16   4  16
#     4  11  24  43  67  89 127 172 220 270 315 380
#     4  10  21  39  66  95 124 168 215 257 324 386
#     4  12  23  34  57  97 135 165 199 254 338 386
#     4  12  28  48  64  90 132 170 228 272 320 376
#     4  11  20  33  62  95 135 159 199 254 321 403
#
# _framework density 21.251117000000001
#
# number of rings (size 3 to 8) (size 9 to 14) (size 15 to 20)
#    0.000    0.941    5.882    3.529    0.000    0.941 
#    0.000    0.000    0.000    5.647    0.000    0.000 
#    0.000    0.000    0.000    0.000    0.000    0.000 
#
# Total GULP energy -189846.564535 kJ/mol
# GULP energy per Si atom -5583.722486 kJ/mol
# Density = 2.120275 g / cm^3
# Si number density = 21.251117 Si / 1000 Ang^3
#
#
#
# Elastic Constant Matrix: (Units=GPa)
#
#
# Indices 1 2 3 4 5 6 
#
# 1 132.2183 45.4354 32.0675 0.0000 0.0000 0.0000
# 2 45.4354 66.9430 20.9343 0.0000 0.0000 0.0000
# 3 32.0675 20.9343 84.1012 0.0000 0.0000 0.0000
# 4 0.0000 0.0000 0.0000 6.6933 0.0000 0.0000
# 5 0.0000 0.0000 0.0000 0.0000 41.1861 0.0000
# 6 0.0000 0.0000 0.0000 0.0000 0.0000 56.9096
#
#
#
# Elastic Compliance Matrix: (Units=1/GPa)
#
#
# Indices 1 2 3 4 5 6 
#
# 1 0.010281 -0.006237 -0.002367 0.000000 0.000000 0.000000
# 2 -0.006237 0.019983 -0.002596 0.000000 0.000000 0.000000
# 3 -0.002367 -0.002596 0.013439 0.000000 0.000000 0.000000
# 4 0.000000 0.000000 0.000000 0.149404 0.000000 0.000000
# 5 0.000000 0.000000 0.000000 0.000000 0.024280 0.000000
# 6 0.000000 0.000000 0.000000 0.000000 0.000000 0.017572
#
#
# Mechanical properties :
#
#
# Convention : Reuss Voigt Hill
#
# Bulk Modulus (GPa) = 46.94414 53.34855 50.14635
# Shear Modulus (GPa) = 18.90635 33.27947 26.09291
#
# Velocity S-wave (km/s) = 2.98596 3.96158 3.50785
# Velocity P-wave (km/s) = 5.83319 6.78851 6.32890
#
# Compressibility (1/GPa) = 0.02130191
#
# Stress axis : x y z
#
# Youngs Moduli (GPa) = 97.26789 50.04165 74.40866
#
# Poissons Ratio (x) = 0.31213 0.17616
# Poissons Ratio (y) = 0.60671 0.19316
# Poissons Ratio (z) = 0.23028 0.12990
#
# Static dielectric constant tensor:
#      x y z
#    x 1.790550 0.000000 0.000000 
#    y 0.000000 1.761320 0.000000 
#    z 0.000000 0.000000 1.743000 
# 
# From -- ./inp_files/5917.got.cif
#   From: 2010.05.17/outbox.cif.g08.bks.cpg/sg68_3_cif.got.tgz:5917.got - 2010.06.03 18:57:09.
