data_PCOD9507664
_publ_section_title
;
Structure prediction by ZEFSAII (Michael W. Deem and Ramdas Pophale) SiO2 
 PCOD9507664
Probable space group: C C C A
;
_chemical_formula_sum "Si O2"
_cell_formula_units_Z 116
_cell_length_a 32.425980
_cell_length_b 14.789800
_cell_length_c 11.021422
_cell_angle_alpha 90.000000
_cell_angle_beta 90.000000
_cell_angle_gamma 90.000000
_cell_volume 5285.584778
_symmetry_space_group_name_H-M "C C C A"
_symmetry_group_IT_number 68
_space_group.IT_coordinate_system_code '2'
_symmetry_cell_setting 'orthorhombic'
loop_
_space_group_symop_operation_xyz
x,y,z
-x,1/2-y,z
x,1/2-y,1/2-z
-x,y,1/2-z
-x,-y,-z
x,1/2+y,-z
-x,1/2+y,1/2+z
x,-y,1/2+z
1/2+x,1/2+y,z
1/2-x,-y,z
1/2+x,-y,1/2-z
1/2-x,1/2+y,1/2-z
1/2-x,1/2-y,-z
1/2+x,y,-z
1/2-x,y,1/2+z
1/2+x,1/2-y,1/2+z
loop_
_atom_site_type_symbol
_atom_site_label
_atom_site_fract_x
_atom_site_fract_y
_atom_site_fract_z
Si Si1 0.171412 0.059776 0.642249
Si Si2 0.155672 0.385419 0.244186
Si Si3 0.461120 0.193511 0.014432
Si Si4 0.500000 0.750000 0.750000
Si Si5 0.312453 0.179296 0.357483
Si Si6 0.112452 0.169417 0.030196
Si Si7 0.098337 0.458901 0.029916
Si Si8 0.230993 0.399302 0.069775
O O1 0.175577 0.091111 0.779612
O O2 0.127744 0.079550 0.578662
O O3 0.207918 0.095210 0.558378
O O4 0.173730 0.952285 0.651750
O O5 0.128647 0.323228 0.332139
O O6 0.123435 0.433835 0.152214
O O7 0.195885 0.364797 0.163694
O O8 0.500000 0.250000 0.959331
O O9 0.423540 0.260826 0.993640
O O10 0.444857 0.095459 0.971758
O O11 0.527165 0.309308 0.157577
O O12 0.308316 0.250000 0.250000
O O13 0.349482 0.198125 0.446433
O O14 0.270062 0.164900 0.425736
O O15 0.097613 0.067044 0.994583
O O16 0.250000 0.500000 0.097488
#
# Coordination Sequence:
#
# PCOD9507664 Si02
#       8
#    16  16  16   4  16  16  16  16
#     4  10  21  37  61  90 126 178 230 285 335 400
#     4  10  21  41  64  95 129 182 231 282 340 408
#     4  10  24  44  71 104 134 176 216 280 351 417
#     4   8  24  44  72  98 144 166 212 276 342 404
#     4  12  25  38  60  93 133 181 236 298 346 407
#     4  11  24  42  70  99 136 185 231 284 347 415
#     4  10  21  42  70 100 135 179 231 273 351 416
#     4  11  22  38  60  87 129 178 230 287 341 393
#
# _framework density 21.946484000000002
#
# number of rings (size 3 to 8) (size 9 to 14) (size 15 to 20)
#    0.414    1.103    2.759    2.483    6.759    1.655 
#    4.966    1.379    0.000    0.000    0.000    0.000 
#    0.000    0.000    0.000    0.000    0.000    0.000 
#
# Total GULP energy -323641.274897 kJ/mol
# GULP energy per Si atom -5580.021981 kJ/mol
# Density = 2.189653 g / cm^3
# Si number density = 21.946484 Si / 1000 Ang^3
#
#
#
# Elastic Constant Matrix: (Units=GPa)
#
#
# Indices 1 2 3 4 5 6 
#
# 1 109.2135 37.7896 38.4439 0.0000 0.0000 0.0000
# 2 37.7896 68.6599 6.4231 0.0000 0.0000 0.0000
# 3 38.4439 6.4231 85.8145 0.0000 0.0000 0.0000
# 4 0.0000 0.0000 0.0000 34.4184 0.0000 0.0000
# 5 0.0000 0.0000 0.0000 0.0000 17.3150 0.0000
# 6 0.0000 0.0000 0.0000 0.0000 0.0000 -14.7128
#
#
#
# Elastic Compliance Matrix: (Units=1/GPa)
#
#
# Indices 1 2 3 4 5 6 
#
# 1 0.013493 -0.006909 -0.005527 0.000000 0.000000 0.000000
# 2 -0.006909 0.018205 0.001733 0.000000 0.000000 0.000000
# 3 -0.005527 0.001733 0.014000 0.000000 0.000000 0.000000
# 4 0.000000 0.000000 0.000000 0.029054 0.000000 0.000000
# 5 0.000000 0.000000 0.000000 0.000000 0.057754 0.000000
# 6 0.000000 0.000000 0.000000 0.000000 0.000000 -0.067968
#
#
# Mechanical properties :
#
#
# Convention : Reuss Voigt Hill
#
# Bulk Modulus (GPa) = 41.17008 47.66679 44.41843
# Shear Modulus (GPa) = 53.16769 19.47285 36.32027
#
# Velocity S-wave (km/s) = 4.92734 2.98197 4.07252
# Velocity P-wave (km/s) = 7.15343 5.79853 6.51132
#
# Compressibility (1/GPa) = 0.02428949
#
# Stress axis : x y z
#
# Youngs Moduli (GPa) = 74.11382 54.92939 71.43062
#
# Poissons Ratio (x) = 0.37952 0.39483
# Poissons Ratio (y) = 0.51206 -0.12376
# Poissons Ratio (z) = 0.40966 -0.09517
#
# Static dielectric constant tensor:
#      x y z
#    x 1.783800 0.000000 0.000000 
#    y 0.000000 2.035550 0.000000 
#    z 0.000000 0.000000 1.810810 
# 
# From -- ./inp_files/17880.got.cif
#   From: 2010.05.17/outbox.cif.g08.bks.cpg/sg68_9_cif.got.tgz:17880.got - 2010.06.03 18:57:09.
