data_PCOD9507368
_publ_section_title
;
Structure prediction by ZEFSAII (Michael W. Deem and Ramdas Pophale) SiO2 
 PCOD9507368
Probable space group: C C C A
;
_chemical_formula_sum "Si O2"
_cell_formula_units_Z 116
_cell_length_a 8.125667
_cell_length_b 26.748491
_cell_length_c 24.456946
_cell_angle_alpha 90.000000
_cell_angle_beta 90.000000
_cell_angle_gamma 90.000000
_cell_volume 5315.700842
_symmetry_space_group_name_H-M "C C C A"
_symmetry_group_IT_number 68
_space_group.IT_coordinate_system_code '2'
_symmetry_cell_setting 'orthorhombic'
loop_
_space_group_symop_operation_xyz
x,y,z
-x,1/2-y,z
x,1/2-y,1/2-z
-x,y,1/2-z
-x,-y,-z
x,1/2+y,-z
-x,1/2+y,1/2+z
x,-y,1/2+z
1/2+x,1/2+y,z
1/2-x,-y,z
1/2+x,-y,1/2-z
1/2-x,1/2+y,1/2-z
1/2-x,1/2-y,-z
1/2+x,y,-z
1/2-x,y,1/2+z
1/2+x,1/2-y,1/2+z
loop_
_atom_site_type_symbol
_atom_site_label
_atom_site_fract_x
_atom_site_fract_y
_atom_site_fract_z
Si Si1 0.448516 0.493009 0.418603
Si Si2 0.167280 0.643680 0.284972
Si Si3 0.168343 0.665106 0.680173
Si Si4 0.000000 0.250000 0.250000
Si Si5 0.015449 0.307406 0.878114
Si Si6 0.100202 0.037440 0.694641
Si Si7 0.931524 0.393727 0.423256
Si Si8 0.441465 0.388115 0.035438
O O1 0.250000 0.500000 0.421274
O O2 0.503340 0.476995 0.357833
O O3 0.526851 0.547532 0.423204
O O4 0.495585 0.445543 0.456071
O O5 0.298245 0.635706 0.236867
O O6 0.163874 0.592615 0.317965
O O7 0.000000 0.649975 0.250000
O O8 0.155898 0.686460 0.330896
O O9 0.098641 0.715027 0.707894
O O10 0.341810 0.677726 0.650893
O O11 0.062654 0.634561 0.635343
O O12 0.035420 0.347861 0.926383
O O13 0.000000 0.250000 0.896250
O O14 0.000000 0.038885 0.750000
O O15 0.250000 0.000000 0.700581
O O16 0.745966 0.388117 0.444957
O O17 0.044070 0.372767 0.472141
#
# Coordination Sequence:
#
# PCOD9507368 Si02
#       8
#    16  16  16   4  16  16  16  16
#     4  11  23  41  65  98 133 181 220 274 336 394
#     4   9  18  38  62  89 125 159 215 266 312 396
#     4  10  24  41  64  97 129 177 217 270 343 392
#     4  12  24  44  62  96 140 168 220 270 340 416
#     4  10  20  41  70  97 122 168 223 275 331 388
#     4  10  22  34  57  94 134 170 213 263 323 391
#     4  11  25  44  68  96 135 178 228 275 336 399
#     4  11  23  45  66  98 132 176 227 276 330 396
#
# _framework density 21.822146
#
# number of rings (size 3 to 8) (size 9 to 14) (size 15 to 20)
#    0.000    1.655    1.379    2.483    3.862    4.138 
#    8.690    1.379    0.000    0.000    0.000    0.000 
#    0.000    0.000    0.000    0.000    0.000    0.000 
#
# Total GULP energy -323447.037209 kJ/mol
# GULP energy per Si atom -5576.673055 kJ/mol
# Density = 2.177248 g / cm^3
# Si number density = 21.822146 Si / 1000 Ang^3
#
#
#
# Elastic Constant Matrix: (Units=GPa)
#
#
# Indices 1 2 3 4 5 6 
#
# 1 38.9121 8.6903 24.9898 0.0000 0.0000 0.0000
# 2 8.6903 114.6416 69.9939 0.0000 0.0000 0.0000
# 3 24.9898 69.9939 160.7996 0.0000 0.0000 0.0000
# 4 0.0000 0.0000 0.0000 21.8153 0.0000 0.0000
# 5 0.0000 0.0000 0.0000 0.0000 24.4475 0.0000
# 6 0.0000 0.0000 0.0000 0.0000 0.0000 8.6750
#
#
#
# Elastic Compliance Matrix: (Units=1/GPa)
#
#
# Indices 1 2 3 4 5 6 
#
# 1 0.028595 0.000743 -0.004767 0.000000 0.000000 0.000000
# 2 0.000743 0.011899 -0.005295 0.000000 0.000000 0.000000
# 3 -0.004767 -0.005295 0.009265 0.000000 0.000000 0.000000
# 4 0.000000 0.000000 0.000000 0.045839 0.000000 0.000000
# 5 0.000000 0.000000 0.000000 0.000000 0.040904 0.000000
# 6 0.000000 0.000000 0.000000 0.000000 0.000000 0.115274
#
#
# Mechanical properties :
#
#
# Convention : Reuss Voigt Hill
#
# Bulk Modulus (GPa) = 32.13370 57.96682 45.05026
# Shear Modulus (GPa) = 17.80700 25.03284 21.41992
#
# Velocity S-wave (km/s) = 2.85968 3.39061 3.13640
# Velocity P-wave (km/s) = 5.06566 6.47682 5.81421
#
# Compressibility (1/GPa) = 0.03111998
#
# Stress axis : x y z
#
# Youngs Moduli (GPa) = 34.97161 84.03761 107.93643
#
# Poissons Ratio (x) = -0.06245 0.51457
# Poissons Ratio (y) = -0.02599 0.57154
# Poissons Ratio (z) = 0.16672 0.44499
#
# Static dielectric constant tensor:
#      x y z
#    x 1.960690 0.000000 0.000000 
#    y 0.000000 1.852070 0.000000 
#    z 0.000000 0.000000 1.852520 
# 
# From -- ./inp_files/43527.got.cif
#   From: 2010.05.17/outbox.cif.g08.bks.cpg/sg68_22_cif.got.tgz:43527.got - 2010.06.03 18:57:09.
