data_PCOD9507962
_publ_section_title
;
Structure prediction by ZEFSAII (Michael W. Deem and Ramdas Pophale) SiO2 
 PCOD9507962
Probable space group: C C C A
;
_chemical_formula_sum "Si O2"
_cell_formula_units_Z 112
_cell_length_a 14.587287
_cell_length_b 14.466898
_cell_length_c 25.573106
_cell_angle_alpha 90.000000
_cell_angle_beta 90.000000
_cell_angle_gamma 90.000000
_cell_volume 5396.763988
_symmetry_space_group_name_H-M "C C C A"
_symmetry_group_IT_number 68
_space_group.IT_coordinate_system_code '2'
_symmetry_cell_setting 'orthorhombic'
loop_
_space_group_symop_operation_xyz
x,y,z
-x,1/2-y,z
x,1/2-y,1/2-z
-x,y,1/2-z
-x,-y,-z
x,1/2+y,-z
-x,1/2+y,1/2+z
x,-y,1/2+z
1/2+x,1/2+y,z
1/2-x,-y,z
1/2+x,-y,1/2-z
1/2-x,1/2+y,1/2-z
1/2-x,1/2-y,-z
1/2+x,y,-z
1/2-x,y,1/2+z
1/2+x,1/2-y,1/2+z
loop_
_atom_site_type_symbol
_atom_site_label
_atom_site_fract_x
_atom_site_fract_y
_atom_site_fract_z
Si Si1 0.764539 0.093028 0.544193
Si Si2 0.776408 0.149899 0.723054
Si Si3 0.827124 0.575476 0.624643
Si Si4 0.199198 0.751654 0.119231
Si Si5 0.109682 0.474960 0.259856
Si Si6 0.573297 0.123668 0.979908
Si Si7 0.113930 0.326919 0.977627
O O1 0.755049 0.183837 0.577475
O O2 0.864087 0.073940 0.521839
O O3 0.703653 0.116583 0.493470
O O4 0.750000 0.000000 0.576236
O O5 0.766602 0.250000 0.750000
O O6 0.817350 0.182602 0.667123
O O7 0.677451 0.096283 0.727580
O O8 0.848058 0.076854 0.748094
O O9 0.750000 0.500000 0.610370
O O10 0.770258 0.669280 0.634655
O O11 0.872834 0.545855 0.678983
O O12 0.899434 0.592121 0.577929
O O13 0.119239 0.799604 0.083837
O O14 0.000000 0.468307 0.250000
O O15 0.471025 0.116143 0.000574
O O16 0.603695 0.230692 0.990387
#
# Coordination Sequence:
#
# PCOD9507962 Si02
#       7
#    16  16  16  16  16  16  16
#     4  11  22  39  60  93 138 181 226 286 350 425
#     4  11  23  48  76 101 145 199 241 310 375 441
#     4  12  21  44  74 102 135 192 236 299 384 431
#     4  11  22  42  71  93 136 194 232 286 370 436
#     4  11  26  47  71 112 151 180 257 320 365 452
#     4  10  21  39  66  98 136 176 232 296 348 428
#     4  10  21  41  63  97 139 177 238 290 349 441
#
# _framework density 20.753177999999998
#
# number of rings (size 3 to 8) (size 9 to 14) (size 15 to 20)
#    0.000    1.143    5.714    1.286    2.000    2.286 
#    0.000   10.000    0.000    0.000    0.000    0.000 
#    0.000    0.000    0.000    0.000    0.000    0.000 
#
# Total GULP energy -311951.379308 kJ/mol
# GULP energy per Si atom -5570.560345 kJ/mol
# Density = 2.070594 g / cm^3
# Si number density = 20.753178 Si / 1000 Ang^3
#
#
#
# Elastic Constant Matrix: (Units=GPa)
#
#
# Indices 1 2 3 4 5 6 
#
# 1 124.9233 50.9882 59.7215 0.0000 0.0000 0.0000
# 2 50.9882 125.3847 41.7481 0.0000 0.0000 0.0000
# 3 59.7215 41.7481 125.6628 0.0000 0.0000 0.0000
# 4 0.0000 0.0000 0.0000 58.6903 0.0000 0.0000
# 5 0.0000 0.0000 0.0000 0.0000 25.9971 0.0000
# 6 0.0000 0.0000 0.0000 0.0000 0.0000 13.2310
#
#
#
# Elastic Compliance Matrix: (Units=1/GPa)
#
#
# Indices 1 2 3 4 5 6 
#
# 1 0.011384 -0.003180 -0.004354 0.000000 0.000000 0.000000
# 2 -0.003180 0.009856 -0.001763 0.000000 0.000000 0.000000
# 3 -0.004354 -0.001763 0.010613 0.000000 0.000000 0.000000
# 4 0.000000 0.000000 0.000000 0.017039 0.000000 0.000000
# 5 0.000000 0.000000 0.000000 0.000000 0.038466 0.000000
# 6 0.000000 0.000000 0.000000 0.000000 0.000000 0.075580
#
#
# Mechanical properties :
#
#
# Convention : Reuss Voigt Hill
#
# Bulk Modulus (GPa) = 75.42071 75.65405 75.53738
# Shear Modulus (GPa) = 26.88891 34.48455 30.68673
#
# Velocity S-wave (km/s) = 3.60342 4.08076 3.84950
# Velocity P-wave (km/s) = 7.33032 7.66399 7.49901
#
# Compressibility (1/GPa) = 0.01325896
#
# Stress axis : x y z
#
# Youngs Moduli (GPa) = 87.84075 101.46576 94.22595
#
# Poissons Ratio (x) = 0.32263 0.41026
# Poissons Ratio (y) = 0.27931 0.16613
# Poissons Ratio (z) = 0.38246 0.17889
#
# Static dielectric constant tensor:
#      x y z
#    x 1.830850 0.000000 0.000000 
#    y 0.000000 1.932960 0.000000 
#    z 0.000000 0.000000 1.787670 
# 
# From -- ./inp_files/45551.got.cif
#   From: 2010.05.17/outbox.cif.g08.bks.cpg/sg68_23_cif.got.tgz:45551.got - 2010.06.03 18:57:09.
