data_PCOD9507950
_publ_section_title
;
Structure prediction by ZEFSAII (Michael W. Deem and Ramdas Pophale) SiO2 
 PCOD9507950
Probable space group: C C C A
;
_chemical_formula_sum "Si O2"
_cell_formula_units_Z 104
_cell_length_a 8.064507
_cell_length_b 20.069136
_cell_length_c 29.048203
_cell_angle_alpha 90.000000
_cell_angle_beta 90.000000
_cell_angle_gamma 90.000000
_cell_volume 4701.384489
_symmetry_space_group_name_H-M "C C C A"
_symmetry_group_IT_number 68
_space_group.IT_coordinate_system_code '2'
_symmetry_cell_setting 'orthorhombic'
loop_
_space_group_symop_operation_xyz
x,y,z
-x,1/2-y,z
x,1/2-y,1/2-z
-x,y,1/2-z
-x,-y,-z
x,1/2+y,-z
-x,1/2+y,1/2+z
x,-y,1/2+z
1/2+x,1/2+y,z
1/2-x,-y,z
1/2+x,-y,1/2-z
1/2-x,1/2+y,1/2-z
1/2-x,1/2-y,-z
1/2+x,y,-z
1/2-x,y,1/2+z
1/2+x,1/2-y,1/2+z
loop_
_atom_site_type_symbol
_atom_site_label
_atom_site_fract_x
_atom_site_fract_y
_atom_site_fract_z
Si Si1 0.189707 0.661309 0.539651
Si Si2 0.434828 0.583580 0.119299
Si Si3 0.876741 0.049943 0.973183
Si Si4 0.943548 0.676281 0.802001
Si Si5 0.452224 0.826266 0.803197
Si Si6 0.000000 0.750000 0.034462
Si Si7 0.033397 0.571531 0.118494
O O1 0.053805 0.635248 0.576706
O O2 0.223628 0.593828 0.510405
O O3 0.346591 0.706484 0.557195
O O4 0.096946 0.702513 0.500539
O O5 0.507122 0.621070 0.163196
O O6 0.233257 0.577927 0.118641
O O7 0.496350 0.507934 0.121182
O O8 0.958191 0.089938 0.931178
O O9 0.750000 0.000000 0.949764
O O10 0.000000 0.000000 0.000000
O O11 0.746087 0.672308 0.804317
O O12 0.000000 0.750000 0.815780
O O13 0.000000 0.665110 0.750000
O O14 0.500000 0.750000 0.814630
O O15 0.500000 0.839822 0.750000
O O16 0.521416 0.880322 0.839720
#
# Coordination Sequence:
#
# PCOD9507950 Si02
#       7
#    16  16  16  16  16   8  16
#     4  11  22  41  61  88 128 171 216 273 325 389
#     4  10  21  39  66  88 131 166 213 274 328 383
#     4  12  23  41  67  91 128 176 222 274 335 399
#     4  10  21  40  64  92 121 165 212 258 322 397
#     4  10  21  43  68  93 131 171 206 270 337 401
#     4  10  24  40  58  88 125 169 222 264 330 382
#     4  10  22  41  62  97 124 170 221 261 332 400
#
# _framework density 22.121141999999999
#
# number of rings (size 3 to 8) (size 9 to 14) (size 15 to 20)
#    0.000    1.538    1.538    4.615    1.077    0.615 
#   23.538    0.000    0.000    0.000    0.000    0.000 
#    0.000    0.000    0.000    0.000    0.000    0.000 
#
# Total GULP energy -289812.606189 kJ/mol
# GULP energy per Si atom -5573.319350 kJ/mol
# Density = 2.207079 g / cm^3
# Si number density = 22.121142 Si / 1000 Ang^3
#
#
#
# Elastic Constant Matrix: (Units=GPa)
#
#
# Indices 1 2 3 4 5 6 
#
# 1 50.9842 25.4283 23.8030 0.0000 0.0000 0.0000
# 2 25.4283 112.5405 74.6378 0.0000 0.0000 0.0000
# 3 23.8030 74.6378 103.3345 0.0000 0.0000 0.0000
# 4 0.0000 0.0000 0.0000 40.8783 0.0000 0.0000
# 5 0.0000 0.0000 0.0000 0.0000 21.8127 0.0000
# 6 0.0000 0.0000 0.0000 0.0000 0.0000 27.2295
#
#
#
# Elastic Compliance Matrix: (Units=1/GPa)
#
#
# Indices 1 2 3 4 5 6 
#
# 1 0.022551 -0.003168 -0.002907 0.000000 0.000000 0.000000
# 2 -0.003168 0.017501 -0.011911 0.000000 0.000000 0.000000
# 3 -0.002907 -0.011911 0.018950 0.000000 0.000000 0.000000
# 4 0.000000 0.000000 0.000000 0.024463 0.000000 0.000000
# 5 0.000000 0.000000 0.000000 0.000000 0.045845 0.000000
# 6 0.000000 0.000000 0.000000 0.000000 0.000000 0.036725
#
#
# Mechanical properties :
#
#
# Convention : Reuss Voigt Hill
#
# Bulk Modulus (GPa) = 43.41942 57.17749 50.29846
# Shear Modulus (GPa) = 23.84558 27.51677 25.68118
#
# Velocity S-wave (km/s) = 3.28678 3.53074 3.41094
# Velocity P-wave (km/s) = 5.83734 6.52112 6.18868
#
# Compressibility (1/GPa) = 0.02303117
#
# Stress axis : x y z
#
# Youngs Moduli (GPa) = 44.34435 57.13958 52.76986
#
# Poissons Ratio (x) = 0.18100 0.15338
# Poissons Ratio (y) = 0.14047 0.62855
# Poissons Ratio (z) = 0.12889 0.68060
#
# Static dielectric constant tensor:
#      x y z
#    x 1.886200 0.000000 0.000000 
#    y 0.000000 1.917890 0.000000 
#    z 0.000000 0.000000 1.849530 
# 
# From -- ./inp_files/54130.got.cif
#   From: 2010.05.17/outbox.cif.g08.bks.cpg/sg68_28_cif.got.tgz:54130.got - 2010.06.03 18:57:09.
