data_PCOD9507791
_publ_section_title
;
Structure prediction by ZEFSAII (Michael W. Deem and Ramdas Pophale) SiO2 
 PCOD9507791
Probable space group: C C C A
;
_chemical_formula_sum "Si O2"
_cell_formula_units_Z 96
_cell_length_a 10.795151
_cell_length_b 23.262387
_cell_length_c 15.595532
_cell_angle_alpha 90.000000
_cell_angle_beta 90.000000
_cell_angle_gamma 90.000000
_cell_volume 3916.365284
_symmetry_space_group_name_H-M "C C C A"
_symmetry_group_IT_number 68
_space_group.IT_coordinate_system_code '2'
_symmetry_cell_setting 'orthorhombic'
loop_
_space_group_symop_operation_xyz
x,y,z
-x,1/2-y,z
x,1/2-y,1/2-z
-x,y,1/2-z
-x,-y,-z
x,1/2+y,-z
-x,1/2+y,1/2+z
x,-y,1/2+z
1/2+x,1/2+y,z
1/2-x,-y,z
1/2+x,-y,1/2-z
1/2-x,1/2+y,1/2-z
1/2-x,1/2-y,-z
1/2+x,y,-z
1/2-x,y,1/2+z
1/2+x,1/2-y,1/2+z
loop_
_atom_site_type_symbol
_atom_site_label
_atom_site_fract_x
_atom_site_fract_y
_atom_site_fract_z
Si Si1 0.244620 0.844102 0.306305
Si Si2 0.350539 0.451015 0.477079
Si Si3 0.855824 0.363132 0.038809
Si Si4 0.508550 0.372426 0.129833
Si Si5 0.278933 0.720632 0.864449
Si Si6 0.967751 0.568270 0.845076
O O1 0.109757 0.875526 0.306841
O O2 0.277414 0.809186 0.220657
O O3 0.215376 0.788684 0.365357
O O4 0.354865 0.887018 0.327974
O O5 0.250000 0.500000 0.461729
O O6 0.266068 0.395147 0.494486
O O7 0.416229 0.431634 0.387668
O O8 0.424647 0.464770 0.566203
O O9 0.813642 0.300270 0.063150
O O10 0.912712 0.397426 0.119506
O O11 0.955142 0.366536 0.965798
O O12 0.591682 0.314877 0.138281
O O13 0.000000 0.543079 0.750000
#
# Coordination Sequence:
#
# PCOD9507791 Si02
#       6
#    16  16  16  16  16  16
#     4  11  21  40  62  93 135 179 221 264 326 393
#     4  10  23  45  72  93 125 168 219 275 345 399
#     4  10  21  41  61  96 128 171 215 274 329 387
#     4  10  21  38  63  96 126 169 215 276 322 383
#     4  10  22  38  62  92 132 181 225 258 322 398
#     4  11  22  41  66  91 135 168 218 277 323 395
#
# _framework density 24.512525
#
# number of rings (size 3 to 8) (size 9 to 14) (size 15 to 20)
#    0.000    1.667    3.333    1.000    0.000    5.333 
#    6.000    0.833    3.667    0.000    0.000    0.000 
#    0.000    0.000    0.000    0.000    0.000    0.000 
#
# Total GULP energy -267523.409057 kJ/mol
# GULP energy per Si atom -5573.404355 kJ/mol
# Density = 2.445673 g / cm^3
# Si number density = 24.512525 Si / 1000 Ang^3
#
#
#
# Elastic Constant Matrix: (Units=GPa)
#
#
# Indices 1 2 3 4 5 6 
#
# 1 63.9605 10.3739 -0.9353 0.0000 0.0000 0.0000
# 2 10.3739 60.5476 -2.4877 0.0000 0.0000 0.0000
# 3 -0.9353 -2.4877 64.6105 0.0000 0.0000 0.0000
# 4 0.0000 0.0000 0.0000 28.8287 0.0000 0.0000
# 5 0.0000 0.0000 0.0000 0.0000 35.4483 0.0000
# 6 0.0000 0.0000 0.0000 0.0000 0.0000 29.5295
#
#
#
# Elastic Compliance Matrix: (Units=1/GPa)
#
#
# Indices 1 2 3 4 5 6 
#
# 1 0.016083 -0.002750 0.000127 0.000000 0.000000 0.000000
# 2 -0.002750 0.017012 0.000615 0.000000 0.000000 0.000000
# 3 0.000127 0.000615 0.015503 0.000000 0.000000 0.000000
# 4 0.000000 0.000000 0.000000 0.034688 0.000000 0.000000
# 5 0.000000 0.000000 0.000000 0.000000 0.028210 0.000000
# 6 0.000000 0.000000 0.000000 0.000000 0.000000 0.033864
#
#
# Mechanical properties :
#
#
# Convention : Reuss Voigt Hill
#
# Bulk Modulus (GPa) = 22.43080 22.55783 22.49431
# Shear Modulus (GPa) = 30.44382 30.90581 30.67482
#
# Velocity S-wave (km/s) = 3.52798 3.55465 3.54134
# Velocity P-wave (km/s) = 5.07604 5.10587 5.09098
#
# Compressibility (1/GPa) = 0.04458157
#
# Stress axis : x y z
#
# Youngs Moduli (GPa) = 62.17908 58.78057 64.50413
#
# Poissons Ratio (x) = 0.16166 -0.00819
# Poissons Ratio (y) = 0.17101 -0.03968
# Poissons Ratio (z) = -0.00789 -0.03616
#
# Static dielectric constant tensor:
#      x y z
#    x 2.003980 0.000000 0.000000 
#    y 0.000000 1.981780 0.000000 
#    z 0.000000 0.000000 2.179770 
# 
# From -- ./inp_files/29795.got.cif
#   From: 2010.05.17/outbox.cif.g08.bks.cpg/sg68_15_cif.got.tgz:29795.got - 2010.06.03 18:57:09.
