data_PCOD9507871
_publ_section_title
;
Structure prediction by ZEFSAII (Michael W. Deem and Ramdas Pophale) SiO2 
 PCOD9507871
Probable space group: C C C A
;
_chemical_formula_sum "Si O2"
_cell_formula_units_Z 88
_cell_length_a 8.099114
_cell_length_b 20.811830
_cell_length_c 27.100855
_cell_angle_alpha 90.000000
_cell_angle_beta 90.000000
_cell_angle_gamma 90.000000
_cell_volume 4568.049215
_symmetry_space_group_name_H-M "C C C A"
_symmetry_group_IT_number 68
_space_group.IT_coordinate_system_code '2'
_symmetry_cell_setting 'orthorhombic'
loop_
_space_group_symop_operation_xyz
x,y,z
-x,1/2-y,z
x,1/2-y,1/2-z
-x,y,1/2-z
-x,-y,-z
x,1/2+y,-z
-x,1/2+y,1/2+z
x,-y,1/2+z
1/2+x,1/2+y,z
1/2-x,-y,z
1/2+x,-y,1/2-z
1/2-x,1/2+y,1/2-z
1/2-x,1/2-y,-z
1/2+x,y,-z
1/2-x,y,1/2+z
1/2+x,1/2-y,1/2+z
loop_
_atom_site_type_symbol
_atom_site_label
_atom_site_fract_x
_atom_site_fract_y
_atom_site_fract_z
Si Si1 0.947546 0.996925 0.390755
Si Si2 0.880933 0.553385 0.793416
Si Si3 0.766064 0.687372 0.035381
Si Si4 0.570666 0.385139 0.951031
Si Si5 0.000000 0.250000 0.615804
Si Si6 0.838299 0.126975 0.632105
O O1 0.031525 0.926636 0.387477
O O2 0.750000 0.000000 0.394978
O O3 0.006551 0.026557 0.338334
O O4 0.024547 0.042450 0.433872
O O5 0.750000 0.500000 0.774608
O O6 0.763536 0.602732 0.821283
O O7 0.000000 0.575456 0.750000
O O8 0.591255 0.659243 0.052194
O O9 0.873482 0.712463 0.080387
O O10 0.750000 0.750000 0.000000
O O11 0.856228 0.630186 0.004956
O O12 0.711033 0.363199 0.912844
O O13 0.917143 0.193996 0.645881
#
# Coordination Sequence:
#
# PCOD9507871 Si02
#       6
#    16  16  16  16   8  16
#     4  10  21  39  59  89 123 154 195 252 316 364
#     4   9  18  35  63  95 122 147 192 242 303 377
#     4  12  21  35  58  82 113 162 223 254 296 361
#     4  11  21  38  57  80 118 155 204 270 292 350
#     4  12  22  38  58  82 129 164 215 256 300 358
#     4  10  22  38  58  91 123 159 202 248 308 374
#
# _framework density 19.264240999999998
#
# number of rings (size 3 to 8) (size 9 to 14) (size 15 to 20)
#    0.000    1.455    3.636    3.273    0.000    0.000 
#    0.000   12.727    0.000    0.000    0.000  108.182 
#    0.000    0.000    0.000    0.000    0.000    0.000 
#
# Total GULP energy -245587.712900 kJ/mol
# GULP energy per Si atom -5581.538930 kJ/mol
# Density = 1.922040 g / cm^3
# Si number density = 19.264241 Si / 1000 Ang^3
#
#
#
# Elastic Constant Matrix: (Units=GPa)
#
#
# Indices 1 2 3 4 5 6 
#
# 1 129.8077 61.0188 32.2200 0.0000 0.0000 0.0000
# 2 61.0188 130.0880 43.4775 0.0000 0.0000 0.0000
# 3 32.2200 43.4775 55.3343 0.0000 0.0000 0.0000
# 4 0.0000 0.0000 0.0000 -22.9335 0.0000 0.0000
# 5 0.0000 0.0000 0.0000 0.0000 27.7476 0.0000
# 6 0.0000 0.0000 0.0000 0.0000 0.0000 34.3437
#
#
#
# Elastic Compliance Matrix: (Units=1/GPa)
#
#
# Indices 1 2 3 4 5 6 
#
# 1 0.010229 -0.003807 -0.002965 0.000000 0.000000 0.000000
# 2 -0.003807 0.011842 -0.007087 0.000000 0.000000 0.000000
# 3 -0.002965 -0.007087 0.025367 0.000000 0.000000 0.000000
# 4 0.000000 0.000000 0.000000 -0.043604 0.000000 0.000000
# 5 0.000000 0.000000 0.000000 0.000000 0.036039 0.000000
# 6 0.000000 0.000000 0.000000 0.000000 0.000000 0.029117
#
#
# Mechanical properties :
#
#
# Convention : Reuss Voigt Hill
#
# Bulk Modulus (GPa) = 50.71241 65.40695 58.05968
# Shear Modulus (GPa) = 48.41104 19.73248 34.07176
#
# Velocity S-wave (km/s) = 5.01842 3.20395 4.21010
# Velocity P-wave (km/s) = 7.74346 6.90748 7.33739
#
# Compressibility (1/GPa) = 0.01971904
#
# Stress axis : x y z
#
# Youngs Moduli (GPa) = 97.75857 84.44781 39.42116
#
# Poissons Ratio (x) = 0.32151 0.11688
# Poissons Ratio (y) = 0.37219 0.27939
# Poissons Ratio (z) = 0.28984 0.59851
#
# Static dielectric constant tensor:
#      x y z
#    x 1.699130 0.000000 0.000000 
#    y 0.000000 1.704090 0.000000 
#    z 0.000000 0.000000 1.651320 
# 
# From -- ./inp_files/43125.got.cif
#   From: 2010.05.17/outbox.cif.g08.bks.cpg/sg68_22_cif.got.tgz:43125.got - 2010.06.03 18:57:09.
