data_PCOD9507068
_publ_section_title
;
Structure prediction by ZEFSAII (Michael W. Deem and Ramdas Pophale) SiO2 
 PCOD9507068
Probable space group: C C C A
;
_chemical_formula_sum "Si O2"
_cell_formula_units_Z 88
_cell_length_a 17.963371
_cell_length_b 12.262974
_cell_length_c 19.194461
_cell_angle_alpha 90.000000
_cell_angle_beta 90.000000
_cell_angle_gamma 90.000000
_cell_volume 4228.239394
_symmetry_space_group_name_H-M "C C C A"
_symmetry_group_IT_number 68
_space_group.IT_coordinate_system_code '2'
_symmetry_cell_setting 'orthorhombic'
loop_
_space_group_symop_operation_xyz
x,y,z
-x,1/2-y,z
x,1/2-y,1/2-z
-x,y,1/2-z
-x,-y,-z
x,1/2+y,-z
-x,1/2+y,1/2+z
x,-y,1/2+z
1/2+x,1/2+y,z
1/2-x,-y,z
1/2+x,-y,1/2-z
1/2-x,1/2+y,1/2-z
1/2-x,1/2-y,-z
1/2+x,y,-z
1/2-x,y,1/2+z
1/2+x,1/2-y,1/2+z
loop_
_atom_site_type_symbol
_atom_site_label
_atom_site_fract_x
_atom_site_fract_y
_atom_site_fract_z
Si Si1 0.500000 0.250000 0.541171
Si Si2 0.872533 0.125562 0.393238
Si Si3 0.836394 0.037735 0.785267
Si Si4 0.331764 0.945627 0.872768
Si Si5 0.702060 0.199669 0.406096
Si Si6 0.395771 0.430201 0.502658
O O1 0.568232 0.283274 0.589796
O O2 0.468857 0.353857 0.498111
O O3 0.789329 0.173017 0.399643
O O4 0.879023 0.063788 0.319742
O O5 0.888216 0.031368 0.450107
O O6 0.859048 0.063333 0.706837
O O7 0.836563 0.137168 0.840400
O O8 0.750000 0.000000 0.782895
O O9 0.320351 0.825040 0.903149
O O10 0.250000 0.000000 0.872621
O O11 0.383663 0.019831 0.921211
O O12 0.671643 0.146810 0.476979
#
# Coordination Sequence:
#
# PCOD9507068 Si02
#       6
#     8  16  16  16  16  16
#     4  12  24  38  57  82 119 164 200 238 296 356
#     4  10  21  39  59  86 120 154 194 246 300 355
#     4   8  18  36  58  84 114 147 187 235 287 347
#     4  11  20  33  58  89 115 144 189 241 292 349
#     4  10  20  38  63  87 116 150 191 247 304 348
#     4  11  23  38  58  85 118 155 200 247 290 349
#
# _framework density 20.812445
#
# number of rings (size 3 to 8) (size 9 to 14) (size 15 to 20)
#    0.000    1.818    0.000    6.000    0.000    2.182 
#    0.000    4.545    0.000    0.000    0.000    7.636 
#    0.000    0.000    0.000    0.000    0.000    0.000 
#
# Total GULP energy -245764.031148 kJ/mol
# GULP energy per Si atom -5585.546162 kJ/mol
# Density = 2.076507 g / cm^3
# Si number density = 20.812445 Si / 1000 Ang^3
#
#
#
# Elastic Constant Matrix: (Units=GPa)
#
#
# Indices 1 2 3 4 5 6 
#
# 1 52.5087 18.9833 19.7359 0.0000 0.0000 0.0000
# 2 18.9833 117.6074 42.9013 0.0000 0.0000 0.0000
# 3 19.7359 42.9013 111.1521 0.0000 0.0000 0.0000
# 4 0.0000 0.0000 0.0000 18.3166 0.0000 0.0000
# 5 0.0000 0.0000 0.0000 0.0000 3.5649 0.0000
# 6 0.0000 0.0000 0.0000 0.0000 0.0000 41.2086
#
#
#
# Elastic Compliance Matrix: (Units=1/GPa)
#
#
# Indices 1 2 3 4 5 6 
#
# 1 0.020953 -0.002357 -0.002811 0.000000 0.000000 0.000000
# 2 -0.002357 0.010161 -0.003503 0.000000 0.000000 0.000000
# 3 -0.002811 -0.003503 0.010848 0.000000 0.000000 0.000000
# 4 0.000000 0.000000 0.000000 0.054595 0.000000 0.000000
# 5 0.000000 0.000000 0.000000 0.000000 0.280511 0.000000
# 6 0.000000 0.000000 0.000000 0.000000 0.000000 0.024267
#
#
# Mechanical properties :
#
#
# Convention : Reuss Voigt Hill
#
# Bulk Modulus (GPa) = 40.61691 49.38990 45.00341
# Shear Modulus (GPa) = 11.71278 25.92786 18.82032
#
# Velocity S-wave (km/s) = 2.37487 3.53340 3.01039
# Velocity P-wave (km/s) = 5.20366 6.35838 5.80978
#
# Compressibility (1/GPa) = 0.02462029
#
# Stress axis : x y z
#
# Youngs Moduli (GPa) = 47.72602 98.41266 92.18309
#
# Poissons Ratio (x) = 0.23194 0.25910
# Poissons Ratio (y) = 0.11248 0.32296
# Poissons Ratio (z) = 0.13414 0.34479
#
# Static dielectric constant tensor:
#      x y z
#    x 1.748160 0.000000 0.000000 
#    y 0.000000 1.786900 0.000000 
#    z 0.000000 0.000000 1.755880 
# 
# From -- ./inp_files/39577.got.cif
#   From: 2010.05.17/outbox.cif.g08.bks.cpg/sg68_20_cif.got.tgz:39577.got - 2010.06.03 18:57:09.
