data_PCOD9507372
_publ_section_title
;
Structure prediction by ZEFSAII (Michael W. Deem and Ramdas Pophale) SiO2 
 PCOD9507372
Probable space group: C C C A
;
_chemical_formula_sum "Si O2"
_cell_formula_units_Z 64
_cell_length_a 9.587507
_cell_length_b 17.417236
_cell_length_c 14.169508
_cell_angle_alpha 90.000000
_cell_angle_beta 90.000000
_cell_angle_gamma 90.000000
_cell_volume 2366.135989
_symmetry_space_group_name_H-M "C C C A"
_symmetry_group_IT_number 68
_space_group.IT_coordinate_system_code '2'
_symmetry_cell_setting 'orthorhombic'
loop_
_space_group_symop_operation_xyz
x,y,z
-x,1/2-y,z
x,1/2-y,1/2-z
-x,y,1/2-z
-x,-y,-z
x,1/2+y,-z
-x,1/2+y,1/2+z
x,-y,1/2+z
1/2+x,1/2+y,z
1/2-x,-y,z
1/2+x,-y,1/2-z
1/2-x,1/2+y,1/2-z
1/2-x,1/2-y,-z
1/2+x,y,-z
1/2-x,y,1/2+z
1/2+x,1/2-y,1/2+z
loop_
_atom_site_type_symbol
_atom_site_label
_atom_site_fract_x
_atom_site_fract_y
_atom_site_fract_z
Si Si1 0.583890 0.681181 0.464578
Si Si2 0.676878 0.673801 0.810256
Si Si3 0.458290 0.557154 0.912545
Si Si4 0.116437 0.096824 0.173680
O O1 0.500000 0.750000 0.515114
O O2 0.705207 0.698011 0.388706
O O3 0.642942 0.618011 0.536290
O O4 0.449905 0.642877 0.413405
O O5 0.636618 0.750000 0.750000
O O6 0.571256 0.613466 0.862027
O O7 0.747545 0.624229 0.727256
O O8 0.396882 0.493388 0.844466
O O9 0.500000 0.500000 0.000000
O O10 0.000000 0.116544 0.250000
#
# Coordination Sequence:
#
# PCOD9507372 Si02
#       4
#    16  16  16  16
#     4  10  20  41  73 110 158 193 253 323 386 469
#     4  11  22  44  83 115 148 211 262 318 409 464
#     4  10  24  45  67 115 159 198 256 324 387 484
#     4   9  20  40  70 105 151 196 251 319 375 471
#
# _framework density 27.048318999999999
#
# number of rings (size 3 to 8) (size 9 to 14) (size 15 to 20)
#    0.000    2.000    2.500    0.000    0.000   10.000 
#    4.500    7.500    0.000    0.000    0.000    0.000 
#    0.000    0.000    0.000    0.000    0.000    0.000 
#
# Total GULP energy -178599.329945 kJ/mol
# GULP energy per Si atom -5581.229061 kJ/mol
# Density = 2.698676 g / cm^3
# Si number density = 27.048319 Si / 1000 Ang^3
#
#
#
# Elastic Constant Matrix: (Units=GPa)
#
#
# Indices 1 2 3 4 5 6 
#
# 1 135.6419 47.8605 29.7380 0.0000 0.0000 0.0000
# 2 47.8605 161.0327 33.0745 0.0000 0.0000 0.0000
# 3 29.7380 33.0745 95.3121 0.0000 0.0000 0.0000
# 4 0.0000 0.0000 0.0000 80.4738 0.0000 0.0000
# 5 0.0000 0.0000 0.0000 0.0000 63.7917 0.0000
# 6 0.0000 0.0000 0.0000 0.0000 0.0000 25.3225
#
#
#
# Elastic Compliance Matrix: (Units=1/GPa)
#
#
# Indices 1 2 3 4 5 6 
#
# 1 0.008551 -0.002147 -0.001923 0.000000 0.000000 0.000000
# 2 -0.002147 0.007225 -0.001838 0.000000 0.000000 0.000000
# 3 -0.001923 -0.001838 0.011730 0.000000 0.000000 0.000000
# 4 0.000000 0.000000 0.000000 0.012426 0.000000 0.000000
# 5 0.000000 0.000000 0.000000 0.000000 0.015676 0.000000
# 6 0.000000 0.000000 0.000000 0.000000 0.000000 0.039491
#
#
# Mechanical properties :
#
#
# Convention : Reuss Voigt Hill
#
# Bulk Modulus (GPa) = 63.72811 68.14806 65.93808
# Shear Modulus (GPa) = 44.58537 52.67184 48.62861
#
# Velocity S-wave (km/s) = 4.06440 4.41764 4.24470
# Velocity P-wave (km/s) = 6.75558 7.16033 6.96090
#
# Compressibility (1/GPa) = 0.01569166
#
# Stress axis : x y z
#
# Youngs Moduli (GPa) = 116.93997 138.40248 85.25475
#
# Poissons Ratio (x) = 0.29709 0.16396
# Poissons Ratio (y) = 0.25102 0.15666
# Poissons Ratio (z) = 0.22490 0.25432
#
# Static dielectric constant tensor:
#      x y z
#    x 2.449590 0.000000 0.000000 
#    y 0.000000 2.117370 0.000000 
#    z 0.000000 0.000000 2.150920 
# 
# From -- ./inp_files/20419.got.cif
#   From: 2010.05.17/outbox.cif.g08.bks.cpg/sg68_11_cif.got.tgz:20419.got - 2010.06.03 18:57:09.
