data_PCOD9507754
_publ_section_title
;
Structure prediction by ZEFSAII (Michael W. Deem and Ramdas Pophale) SiO2 
 PCOD9507754
Probable space group: C C C A
;
_chemical_formula_sum "Si O2"
_cell_formula_units_Z 60
_cell_length_a 32.766793
_cell_length_b 9.752961
_cell_length_c 8.932278
_cell_angle_alpha 90.000000
_cell_angle_beta 90.000000
_cell_angle_gamma 90.000000
_cell_volume 2854.517148
_symmetry_space_group_name_H-M "C C C A"
_symmetry_group_IT_number 68
_space_group.IT_coordinate_system_code '2'
_symmetry_cell_setting 'orthorhombic'
loop_
_space_group_symop_operation_xyz
x,y,z
-x,1/2-y,z
x,1/2-y,1/2-z
-x,y,1/2-z
-x,-y,-z
x,1/2+y,-z
-x,1/2+y,1/2+z
x,-y,1/2+z
1/2+x,1/2+y,z
1/2-x,-y,z
1/2+x,-y,1/2-z
1/2-x,1/2+y,1/2-z
1/2-x,1/2-y,-z
1/2+x,y,-z
1/2-x,y,1/2+z
1/2+x,1/2-y,1/2+z
loop_
_atom_site_type_symbol
_atom_site_label
_atom_site_fract_x
_atom_site_fract_y
_atom_site_fract_z
Si Si1 0.750000 0.500000 0.962406
Si Si2 0.425433 0.166833 0.940015
Si Si3 0.806184 0.897834 0.798891
Si Si4 0.892944 0.460915 0.150646
Si Si5 0.500000 0.250000 0.750000
O O1 0.785680 0.543274 0.849992
O O2 0.770574 0.391649 0.076413
O O3 0.408885 0.322689 0.933253
O O4 0.399584 0.074660 0.824276
O O5 0.469956 0.168995 0.862272
O O6 0.419020 0.090193 0.095525
O O7 0.822071 0.750000 0.750000
O O8 0.844460 0.980646 0.864615
#
# Coordination Sequence:
#
# PCOD9507754 Si02
#       5
#     8  16  16  16   4
#     4  10  24  34  58  84 114 158 208 250 314 342
#     4  10  21  38  61  90 117 160 191 249 304 360
#     4  11  20  39  56  82 119 159 201 258 296 365
#     4  10  21  38  61  84 122 158 203 243 305 356
#     4   8  20  40  64  92 128 148 196 252 304 368
#
# _framework density 21.019317000000001
#
# number of rings (size 3 to 8) (size 9 to 14) (size 15 to 20)
#    0.000    2.133    2.667    2.400    0.000    5.333 
#    0.000    0.000    0.000   12.800    0.000    0.000 
#    0.000    0.000    0.000    0.000    0.000    0.000 
#
# Total GULP energy -167166.329728 kJ/mol
# GULP energy per Si atom -5572.210991 kJ/mol
# Density = 2.097148 g / cm^3
# Si number density = 21.019317 Si / 1000 Ang^3
#
#
#
# Elastic Constant Matrix: (Units=GPa)
#
#
# Indices 1 2 3 4 5 6 
#
# 1 120.9132 5.9410 25.0515 0.0000 0.0000 0.0000
# 2 5.9410 22.2391 18.6096 0.0000 0.0000 0.0000
# 3 25.0515 18.6096 67.5765 0.0000 0.0000 0.0000
# 4 0.0000 0.0000 0.0000 21.7079 0.0000 0.0000
# 5 0.0000 0.0000 0.0000 0.0000 18.4371 0.0000
# 6 0.0000 0.0000 0.0000 0.0000 0.0000 5.4296
#
#
#
# Elastic Compliance Matrix: (Units=1/GPa)
#
#
# Indices 1 2 3 4 5 6 
#
# 1 0.008963 0.000502 -0.003461 0.000000 0.000000 0.000000
# 2 0.000502 0.058459 -0.016285 0.000000 0.000000 0.000000
# 3 -0.003461 -0.016285 0.020566 0.000000 0.000000 0.000000
# 4 0.000000 0.000000 0.000000 0.046066 0.000000 0.000000
# 5 0.000000 0.000000 0.000000 0.000000 0.054239 0.000000
# 6 0.000000 0.000000 0.000000 0.000000 0.000000 0.184177
#
#
# Mechanical properties :
#
#
# Convention : Reuss Voigt Hill
#
# Bulk Modulus (GPa) = 20.20223 34.43700 27.31961
# Shear Modulus (GPa) = 11.69709 19.85669 15.77689
#
# Velocity S-wave (km/s) = 2.36157 3.07691 2.74266
# Velocity P-wave (km/s) = 4.13136 5.38909 4.80158
#
# Compressibility (1/GPa) = 0.04949950
#
# Stress axis : x y z
#
# Youngs Moduli (GPa) = 111.57266 17.10603 48.62493
#
# Poissons Ratio (x) = -0.00858 0.16828
# Poissons Ratio (y) = -0.05597 0.79184
# Poissons Ratio (z) = 0.38612 0.27857
#
# Static dielectric constant tensor:
#      x y z
#    x 1.778780 0.000000 0.000000 
#    y 0.000000 1.773260 0.000000 
#    z 0.000000 0.000000 1.747140 
# 
# From -- ./inp_files/9311.got.cif
#   From: 2010.05.17/outbox.cif.g08.bks.cpg/sg68_5_cif.got.tgz:9311.got - 2010.06.03 18:57:09.
