data_PCOD9507299
_publ_section_title
;
Structure prediction by ZEFSAII (Michael W. Deem and Ramdas Pophale) SiO2 
 PCOD9507299
Probable space group: C C C A
;
_chemical_formula_sum "Si O2"
_cell_formula_units_Z 68
_cell_length_a 6.884130
_cell_length_b 21.088110
_cell_length_c 18.265032
_cell_angle_alpha 90.000000
_cell_angle_beta 90.000000
_cell_angle_gamma 90.000000
_cell_volume 2651.594800
_symmetry_space_group_name_H-M "C C C A"
_symmetry_group_IT_number 68
_space_group.IT_coordinate_system_code '2'
_symmetry_cell_setting 'orthorhombic'
loop_
_space_group_symop_operation_xyz
x,y,z
-x,1/2-y,z
x,1/2-y,1/2-z
-x,y,1/2-z
-x,-y,-z
x,1/2+y,-z
-x,1/2+y,1/2+z
x,-y,1/2+z
1/2+x,1/2+y,z
1/2-x,-y,z
1/2+x,-y,1/2-z
1/2-x,1/2+y,1/2-z
1/2-x,1/2-y,-z
1/2+x,y,-z
1/2-x,y,1/2+z
1/2+x,1/2-y,1/2+z
loop_
_atom_site_type_symbol
_atom_site_label
_atom_site_fract_x
_atom_site_fract_y
_atom_site_fract_z
Si Si1 0.500000 0.528578 0.750000
Si Si2 0.750000 0.500000 0.879856
Si Si3 0.755004 0.635683 0.183334
Si Si4 0.000000 0.250000 0.750000
Si Si5 0.554765 0.378088 0.441192
Si Si6 0.428379 0.678683 0.094877
O O1 0.565988 0.493517 0.823940
O O2 0.322073 0.577339 0.766235
O O3 0.680545 0.558070 0.930067
O O4 0.531633 0.648262 0.165046
O O5 0.855053 0.700748 0.209653
O O6 0.862201 0.618778 0.106949
O O7 0.498992 0.357622 0.522032
O O8 0.697224 0.325846 0.405141
O O9 0.500000 0.750000 0.088916
#
# Coordination Sequence:
#
# PCOD9507299 Si02
#       6
#     8   8  16   4  16  16
#     4   9  22  43  64  88 131 170 219 272 320 382
#     4  10  24  44  64  94 126 174 218 270 318 386
#     4  10  22  42  61  97 124 170 211 266 327 377
#     4  10  20  40  66  80 136 162 210 262 308 392
#     4  11  24  42  65  94 130 166 215 264 327 380
#     4  12  24  40  67  98 131 169 211 265 328 391
#
# _framework density 25.644942
#
# number of rings (size 3 to 8) (size 9 to 14) (size 15 to 20)
#    0.000    1.412    2.353    2.118    4.941    0.941 
#    0.000    8.824    0.000    0.000    0.000    0.000 
#    0.000    0.000    0.000    0.000    0.000    0.000 
#
# Total GULP energy -190357.026995 kJ/mol
# GULP energy per Si atom -5598.736088 kJ/mol
# Density = 2.558657 g / cm^3
# Si number density = 25.644942 Si / 1000 Ang^3
#
#
#
# Elastic Constant Matrix: (Units=GPa)
#
#
# Indices 1 2 3 4 5 6 
#
# 1 72.1711 -16.2269 8.1547 0.0000 0.0000 0.0000
# 2 -16.2269 121.3900 36.3730 0.0000 0.0000 0.0000
# 3 8.1547 36.3730 83.4079 0.0000 0.0000 0.0000
# 4 0.0000 0.0000 0.0000 34.9073 0.0000 0.0000
# 5 0.0000 0.0000 0.0000 0.0000 48.8668 0.0000
# 6 0.0000 0.0000 0.0000 0.0000 0.0000 20.5897
#
#
#
# Elastic Compliance Matrix: (Units=1/GPa)
#
#
# Indices 1 2 3 4 5 6 
#
# 1 0.014779 0.002771 -0.002653 0.000000 0.000000 0.000000
# 2 0.002771 0.009996 -0.004630 0.000000 0.000000 0.000000
# 3 -0.002653 -0.004630 0.014268 0.000000 0.000000 0.000000
# 4 0.000000 0.000000 0.000000 0.028647 0.000000 0.000000
# 5 0.000000 0.000000 0.000000 0.000000 0.020464 0.000000
# 6 0.000000 0.000000 0.000000 0.000000 0.000000 0.048568
#
#
# Mechanical properties :
#
#
# Convention : Reuss Voigt Hill
#
# Bulk Modulus (GPa) = 33.31430 37.06339 35.18884
# Shear Modulus (GPa) = 32.10247 37.45064 34.77655
#
# Velocity S-wave (km/s) = 3.54192 3.82560 3.68649
# Velocity P-wave (km/s) = 5.45397 5.83074 5.64550
#
# Compressibility (1/GPa) = 0.03001714
#
# Stress axis : x y z
#
# Youngs Moduli (GPa) = 67.66511 100.04488 70.08872
#
# Poissons Ratio (x) = -0.27718 0.18595
# Poissons Ratio (y) = -0.18747 0.32449
# Poissons Ratio (z) = 0.17952 0.46318
#
# Static dielectric constant tensor:
#      x y z
#    x 2.055060 0.000000 0.000000 
#    y 0.000000 2.019730 0.000000 
#    z 0.000000 0.000000 1.977490 
# 
# From -- ./inp_files/28014.got.cif
#   From: 2010.05.17/outbox.cif.g08.bks.cpg/sg68_15_cif.got.tgz:28014.got - 2010.06.03 18:57:09.
