data_PCOD9507711
_publ_section_title
;
Structure prediction by ZEFSAII (Michael W. Deem and Ramdas Pophale) SiO2 
 PCOD9507711
Probable space group: C C C A
;
_chemical_formula_sum "Si O2"
_cell_formula_units_Z 96
_cell_length_a 21.738549
_cell_length_b 9.403518
_cell_length_c 24.272973
_cell_angle_alpha 90.000000
_cell_angle_beta 90.000000
_cell_angle_gamma 90.000000
_cell_volume 4961.852907
_symmetry_space_group_name_H-M "C C C A"
_symmetry_group_IT_number 68
_space_group.IT_coordinate_system_code '2'
_symmetry_cell_setting 'orthorhombic'
loop_
_space_group_symop_operation_xyz
x,y,z
-x,1/2-y,z
x,1/2-y,1/2-z
-x,y,1/2-z
-x,-y,-z
x,1/2+y,-z
-x,1/2+y,1/2+z
x,-y,1/2+z
1/2+x,1/2+y,z
1/2-x,-y,z
1/2+x,-y,1/2-z
1/2-x,1/2+y,1/2-z
1/2-x,1/2-y,-z
1/2+x,y,-z
1/2-x,y,1/2+z
1/2+x,1/2-y,1/2+z
loop_
_atom_site_type_symbol
_atom_site_label
_atom_site_fract_x
_atom_site_fract_y
_atom_site_fract_z
Si Si1 0.297477 0.116406 0.711531
Si Si2 0.504276 0.580147 0.940442
Si Si3 0.385866 0.474168 0.877354
Si Si4 0.216213 0.292270 0.893233
Si Si5 0.667714 0.739317 0.041288
Si Si6 0.641989 0.060065 0.065602
O O1 0.310399 0.250000 0.750000
O O2 0.360442 0.052480 0.684830
O O3 0.257205 0.172109 0.659608
O O4 0.250000 0.000000 0.737001
O O5 0.500000 0.750000 0.949476
O O6 0.452023 0.529838 0.897358
O O7 0.571710 0.548620 0.916432
O O8 0.500000 0.500000 0.000000
O O9 0.337538 0.592936 0.898333
O O10 0.374027 0.329272 0.910748
O O11 0.262929 0.304648 0.943927
O O12 0.186507 0.136131 0.890997
O O13 0.663831 0.907959 0.044861
O O14 0.644638 0.669709 0.985436
#
# Coordination Sequence:
#
# PCOD9507711 Si02
#       6
#    16  16  16  16  16  16
#     4   9  20  38  65  91 119 146 188 255 330 379
#     4  12  23  38  57  80 127 175 219 242 285 359
#     4  10  21  39  57  86 119 160 202 248 300 361
#     4  10  21  38  55  85 117 153 195 247 311 364
#     4  11  22  34  52  79 120 161 200 249 290 353
#     4  12  22  34  53  81 119 169 206 242 285 353
#
# _framework density 19.347611000000001
#
# number of rings (size 3 to 8) (size 9 to 14) (size 15 to 20)
#    0.000    1.333    3.333    4.500    0.000    4.000 
#    0.000    0.000    0.000    0.000    0.000   37.333 
#    0.000    0.000    0.000    0.000    0.000    0.000 
#
# Total GULP energy -267909.403928 kJ/mol
# GULP energy per Si atom -5581.445915 kJ/mol
# Density = 1.930358 g / cm^3
# Si number density = 19.347611 Si / 1000 Ang^3
#
#
#
# Elastic Constant Matrix: (Units=GPa)
#
#
# Indices 1 2 3 4 5 6 
#
# 1 137.9303 28.2798 25.7258 0.0000 0.0000 0.0000
# 2 28.2798 133.8083 22.7909 0.0000 0.0000 0.0000
# 3 25.7258 22.7909 33.6606 0.0000 0.0000 0.0000
# 4 0.0000 0.0000 0.0000 35.5630 0.0000 0.0000
# 5 0.0000 0.0000 0.0000 0.0000 14.2391 0.0000
# 6 0.0000 0.0000 0.0000 0.0000 0.0000 29.5219
#
#
#
# Elastic Compliance Matrix: (Units=1/GPa)
#
#
# Indices 1 2 3 4 5 6 
#
# 1 0.008527 -0.000782 -0.005987 0.000000 0.000000 0.000000
# 2 -0.000782 0.008519 -0.005170 0.000000 0.000000 0.000000
# 3 -0.005987 -0.005170 0.037785 0.000000 0.000000 0.000000
# 4 0.000000 0.000000 0.000000 0.028119 0.000000 0.000000
# 5 0.000000 0.000000 0.000000 0.000000 0.070229 0.000000
# 6 0.000000 0.000000 0.000000 0.000000 0.000000 0.033873
#
#
# Mechanical properties :
#
#
# Convention : Reuss Voigt Hill
#
# Bulk Modulus (GPa) = 32.30870 50.99914 41.65392
# Shear Modulus (GPa) = 22.59884 31.10497 26.85191
#
# Velocity S-wave (km/s) = 3.42137 4.01395 3.72945
# Velocity P-wave (km/s) = 5.68709 6.92091 6.33412
#
# Compressibility (1/GPa) = 0.03095142
#
# Stress axis : x y z
#
# Youngs Moduli (GPa) = 117.27230 117.37950 26.46556
#
# Poissons Ratio (x) = 0.09184 0.15846
# Poissons Ratio (y) = 0.09175 0.13684
# Poissons Ratio (z) = 0.70214 0.60689
#
# Static dielectric constant tensor:
#      x y z
#    x 1.716720 0.000000 0.000000 
#    y 0.000000 1.727330 0.000000 
#    z 0.000000 0.000000 1.696170 
# 
# From -- ./inp_files/51744.got.cif
#   From: 2010.05.17/outbox.cif.g08.bks.cpg/sg68_26_cif.got.tgz:51744.got - 2010.06.03 18:57:09.
