data_PCOD9507823
_publ_section_title
;
Structure prediction by ZEFSAII (Michael W. Deem and Ramdas Pophale) SiO2 
 PCOD9507823
Probable space group: C C C A
;
_chemical_formula_sum "Si O2"
_cell_formula_units_Z 68
_cell_length_a 15.378980
_cell_length_b 23.838923
_cell_length_c 8.984593
_cell_angle_alpha 90.000000
_cell_angle_beta 90.000000
_cell_angle_gamma 90.000000
_cell_volume 3293.916392
_symmetry_space_group_name_H-M "C C C A"
_symmetry_group_IT_number 68
_space_group.IT_coordinate_system_code '2'
_symmetry_cell_setting 'orthorhombic'
loop_
_space_group_symop_operation_xyz
x,y,z
-x,1/2-y,z
x,1/2-y,1/2-z
-x,y,1/2-z
-x,-y,-z
x,1/2+y,-z
-x,1/2+y,1/2+z
x,-y,1/2+z
1/2+x,1/2+y,z
1/2-x,-y,z
1/2+x,-y,1/2-z
1/2-x,1/2+y,1/2-z
1/2-x,1/2-y,-z
1/2+x,y,-z
1/2-x,y,1/2+z
1/2+x,1/2-y,1/2+z
loop_
_atom_site_type_symbol
_atom_site_label
_atom_site_fract_x
_atom_site_fract_y
_atom_site_fract_z
Si Si1 0.500000 0.750000 0.250000
Si Si2 0.750000 0.000000 0.266504
Si Si3 0.750920 0.750000 0.250000
Si Si4 0.516947 0.142595 0.911861
Si Si5 0.672967 0.672305 0.502972
Si Si6 0.320271 0.577692 0.514138
O O1 0.453749 0.794532 0.139635
O O2 0.694956 0.041134 0.161027
O O3 0.811197 0.036458 0.373449
O O4 0.694976 0.711080 0.360381
O O5 0.808802 0.790565 0.352185
O O6 0.500000 0.114191 0.750000
O O7 0.424822 0.150083 0.991248
O O8 0.590169 0.111365 0.003382
O O9 0.741297 0.621653 0.498735
#
# Coordination Sequence:
#
# PCOD9507823 Si02
#       6
#     4   8   8  16  16  16
#     4   8  22  36  64 100 132 170 206 246 328 408
#     4  10  24  46  68  92 124 170 226 286 324 366
#     4  10  23  36  66 101 142 172 213 252 330 393
#     4  10  21  38  65  95 130 172 209 259 318 402
#     4  11  22  41  64  98 132 177 210 265 320 404
#     4  11  23  44  68  91 127 168 221 276 326 374
#
# _framework density 20.644120000000001
#
# number of rings (size 3 to 8) (size 9 to 14) (size 15 to 20)
#    0.706    0.941    0.000    4.941    6.588    0.000 
#    0.000   18.824    0.000    5.647    0.000    0.000 
#    0.000    0.000    0.000    0.000    0.000    0.000 
#
# Total GULP energy -189984.305721 kJ/mol
# GULP energy per Si atom -5587.773698 kJ/mol
# Density = 2.059713 g / cm^3
# Si number density = 20.644120 Si / 1000 Ang^3
#
#
#
# Elastic Constant Matrix: (Units=GPa)
#
#
# Indices 1 2 3 4 5 6 
#
# 1 175.1423 68.1506 48.8134 0.0000 0.0000 0.0000
# 2 68.1506 107.2059 45.6137 0.0000 0.0000 0.0000
# 3 48.8134 45.6137 99.7383 0.0000 0.0000 0.0000
# 4 0.0000 0.0000 0.0000 11.3613 0.0000 0.0000
# 5 0.0000 0.0000 0.0000 0.0000 19.6567 0.0000
# 6 0.0000 0.0000 0.0000 0.0000 0.0000 25.8097
#
#
#
# Elastic Compliance Matrix: (Units=1/GPa)
#
#
# Indices 1 2 3 4 5 6 
#
# 1 0.007878 -0.004181 -0.001944 0.000000 0.000000 0.000000
# 2 -0.004181 0.013801 -0.004265 0.000000 0.000000 0.000000
# 3 -0.001944 -0.004265 0.012928 0.000000 0.000000 0.000000
# 4 0.000000 0.000000 0.000000 0.088018 0.000000 0.000000
# 5 0.000000 0.000000 0.000000 0.000000 0.050873 0.000000
# 6 0.000000 0.000000 0.000000 0.000000 0.000000 0.038745
#
#
# Mechanical properties :
#
#
# Convention : Reuss Voigt Hill
#
# Bulk Modulus (GPa) = 72.32178 78.58244 75.45211
# Shear Modulus (GPa) = 21.04094 25.99947 23.52021
#
# Velocity S-wave (km/s) = 3.19599 3.55267 3.37904
# Velocity P-wave (km/s) = 6.98053 7.41462 7.20085
#
# Compressibility (1/GPa) = 0.01382709
#
# Stress axis : x y z
#
# Youngs Moduli (GPa) = 126.93038 72.46061 77.35157
#
# Poissons Ratio (x) = 0.30298 0.15033
# Poissons Ratio (y) = 0.53074 0.32991
# Poissons Ratio (z) = 0.24669 0.30905
#
# Static dielectric constant tensor:
#      x y z
#    x 1.749540 0.000000 0.000000 
#    y 0.000000 1.748980 0.000000 
#    z 0.000000 0.000000 1.746940 
# 
# From -- ./inp_files/5173.got.cif
#   From: 2010.05.17/outbox.cif.g08.bks.cpg/sg68_3_cif.got.tgz:5173.got - 2010.06.03 18:57:09.
