data_PCOD9507109
_publ_section_title
;
Structure prediction by ZEFSAII (Michael W. Deem and Ramdas Pophale) SiO2 
 PCOD9507109
Probable space group: C C C A
;
_chemical_formula_sum "Si O2"
_cell_formula_units_Z 64
_cell_length_a 5.013101
_cell_length_b 31.797862
_cell_length_c 18.463806
_cell_angle_alpha 90.000000
_cell_angle_beta 90.000000
_cell_angle_gamma 90.000000
_cell_volume 2943.239498
_symmetry_space_group_name_H-M "C C C A"
_symmetry_group_IT_number 68
_space_group.IT_coordinate_system_code '2'
_symmetry_cell_setting 'orthorhombic'
loop_
_space_group_symop_operation_xyz
x,y,z
-x,1/2-y,z
x,1/2-y,1/2-z
-x,y,1/2-z
-x,-y,-z
x,1/2+y,-z
-x,1/2+y,1/2+z
x,-y,1/2+z
1/2+x,1/2+y,z
1/2-x,-y,z
1/2+x,-y,1/2-z
1/2-x,1/2+y,1/2-z
1/2-x,1/2-y,-z
1/2+x,y,-z
1/2-x,y,1/2+z
1/2+x,1/2-y,1/2+z
loop_
_atom_site_type_symbol
_atom_site_label
_atom_site_fract_x
_atom_site_fract_y
_atom_site_fract_z
Si Si1 0.250000 0.000000 0.698535
Si Si2 0.738535 0.279799 0.660517
Si Si3 0.835887 0.092637 0.327457
Si Si4 0.985322 0.155052 0.452020
Si Si5 0.000000 0.149603 0.750000
O O1 0.500000 0.990405 0.750000
O O2 0.188978 0.956749 0.657825
O O3 0.500000 0.250000 0.679530
O O4 0.627271 0.304366 0.590491
O O5 0.000000 0.250000 0.650328
O O6 0.790079 0.315812 0.720649
O O7 0.956328 0.117240 0.394787
O O8 0.549962 0.115435 0.313637
O O9 0.000000 0.097839 0.250000
O O10 0.787908 0.153852 0.520711
#
# Coordination Sequence:
#
# PCOD9507109 Si02
#       5
#     8  16  16  16   8
#     4  10  20  38  66 106 134 166 216 278 326 392
#     4  11  25  41  63  93 127 172 222 279 331 390
#     4  10  23  41  72  99 135 173 226 270 335 396
#     4  11  26  44  66  93 133 177 219 271 335 397
#     4  10  23  38  66  94 136 164 220 274 341 380
#
# _framework density 21.744748000000001
#
# number of rings (size 3 to 8) (size 9 to 14) (size 15 to 20)
#    0.000    1.500    1.250    1.875   14.000    4.000 
#    0.000    1.250    0.000    0.000    0.000    0.000 
#    0.000    0.000    0.000    0.000    0.000    0.000 
#
# Total GULP energy -178197.459949 kJ/mol
# GULP energy per Si atom -5568.670623 kJ/mol
# Density = 2.169526 g / cm^3
# Si number density = 21.744748 Si / 1000 Ang^3
#
#
#
# Elastic Constant Matrix: (Units=GPa)
#
#
# Indices 1 2 3 4 5 6 
#
# 1 71.0176 8.4400 5.4228 0.0000 0.0000 0.0000
# 2 8.4400 177.5554 36.9922 0.0000 0.0000 0.0000
# 3 5.4228 36.9922 61.7169 0.0000 0.0000 0.0000
# 4 0.0000 0.0000 0.0000 27.4996 0.0000 0.0000
# 5 0.0000 0.0000 0.0000 0.0000 33.3309 0.0000
# 6 0.0000 0.0000 0.0000 0.0000 0.0000 8.4509
#
#
#
# Elastic Compliance Matrix: (Units=1/GPa)
#
#
# Indices 1 2 3 4 5 6 
#
# 1 0.014211 -0.000475 -0.000964 0.000000 0.000000 0.000000
# 2 -0.000475 0.006452 -0.003825 0.000000 0.000000 0.000000
# 3 -0.000964 -0.003825 0.018581 0.000000 0.000000 0.000000
# 4 0.000000 0.000000 0.000000 0.036364 0.000000 0.000000
# 5 0.000000 0.000000 0.000000 0.000000 0.030002 0.000000
# 6 0.000000 0.000000 0.000000 0.000000 0.000000 0.118330
#
#
# Mechanical properties :
#
#
# Convention : Reuss Voigt Hill
#
# Bulk Modulus (GPa) = 34.82503 45.77778 40.30141
# Shear Modulus (GPa) = 20.48851 31.15195 25.82023
#
# Velocity S-wave (km/s) = 3.07290 3.78910 3.44964
# Velocity P-wave (km/s) = 5.35168 6.34359 5.86863
#
# Compressibility (1/GPa) = 0.02871498
#
# Stress axis : x y z
#
# Youngs Moduli (GPa) = 70.36783 155.00103 53.81975
#
# Poissons Ratio (x) = 0.07357 0.05189
# Poissons Ratio (y) = 0.03340 0.20588
# Poissons Ratio (z) = 0.06785 0.59292
#
# Static dielectric constant tensor:
#      x y z
#    x 1.881620 0.000000 0.000000 
#    y 0.000000 1.705230 0.000000 
#    z 0.000000 0.000000 1.853060 
# 
# From -- ./inp_files/27146.got.cif
#   From: 2010.05.17/outbox.cif.g08.bks.cpg/sg68_14_cif.got.tgz:27146.got - 2010.06.03 18:57:09.
