data_PCOD9507648
_publ_section_title
;
Structure prediction by ZEFSAII (Michael W. Deem and Ramdas Pophale) SiO2 
 PCOD9507648
Probable space group: C C C A
;
_chemical_formula_sum "Si O2"
_cell_formula_units_Z 72
_cell_length_a 14.292936
_cell_length_b 21.449464
_cell_length_c 11.521826
_cell_angle_alpha 90.000000
_cell_angle_beta 90.000000
_cell_angle_gamma 90.000000
_cell_volume 3532.313210
_symmetry_space_group_name_H-M "C C C A"
_symmetry_group_IT_number 68
_space_group.IT_coordinate_system_code '2'
_symmetry_cell_setting 'orthorhombic'
loop_
_space_group_symop_operation_xyz
x,y,z
-x,1/2-y,z
x,1/2-y,1/2-z
-x,y,1/2-z
-x,-y,-z
x,1/2+y,-z
-x,1/2+y,1/2+z
x,-y,1/2+z
1/2+x,1/2+y,z
1/2-x,-y,z
1/2+x,-y,1/2-z
1/2-x,1/2+y,1/2-z
1/2-x,1/2-y,-z
1/2+x,y,-z
1/2-x,y,1/2+z
1/2+x,1/2-y,1/2+z
loop_
_atom_site_type_symbol
_atom_site_label
_atom_site_fract_x
_atom_site_fract_y
_atom_site_fract_z
Si Si1 0.649246 0.466178 0.155478
Si Si2 0.500000 0.440756 0.750000
Si Si3 0.158666 0.266493 0.925822
Si Si4 0.824301 0.848790 0.199666
Si Si5 0.368706 0.122320 0.933505
O O1 0.750000 0.500000 0.167502
O O2 0.569468 0.516788 0.174165
O O3 0.635021 0.413820 0.255728
O O4 0.643927 0.430143 0.032943
O O5 0.560127 0.399979 0.837410
O O6 0.118607 0.201011 0.878623
O O7 0.192227 0.308634 0.816740
O O8 0.250000 0.250000 0.000000
O O9 0.099943 0.313656 0.004124
O O10 0.730092 0.865130 0.130389
#
# Coordination Sequence:
#
# PCOD9507648 Si02
#       5
#    16   8  16  16  16
#     4  11  23  38  61  91 126 179 215 264 328 398
#     4  12  24  40  58  96 140 164 216 276 326 394
#     4   8  16  33  63  92 113 157 211 263 318 382
#     4   9  17  36  63  89 120 161 214 259 317 387
#     4  10  21  37  59  93 125 165 216 269 329 386
#
# _framework density 20.383243
#
# number of rings (size 3 to 8) (size 9 to 14) (size 15 to 20)
#    0.000    2.222    2.222    0.667    3.111    0.000 
#    0.000    0.000    0.000   34.667    0.000    0.000 
#    0.000    0.000    0.000    0.000    0.000    0.000 
#
# Total GULP energy -200757.300617 kJ/mol
# GULP energy per Si atom -5576.591684 kJ/mol
# Density = 2.033685 g / cm^3
# Si number density = 20.383243 Si / 1000 Ang^3
#
#
#
# Elastic Constant Matrix: (Units=GPa)
#
#
# Indices 1 2 3 4 5 6 
#
# 1 44.9115 33.7227 15.0409 0.0000 0.0000 0.0000
# 2 33.7227 133.7838 58.2068 0.0000 0.0000 0.0000
# 3 15.0409 58.2068 81.6458 0.0000 0.0000 0.0000
# 4 0.0000 0.0000 0.0000 6.8284 0.0000 0.0000
# 5 0.0000 0.0000 0.0000 0.0000 4.0859 0.0000
# 6 0.0000 0.0000 0.0000 0.0000 0.0000 9.4930
#
#
#
# Elastic Compliance Matrix: (Units=1/GPa)
#
#
# Indices 1 2 3 4 5 6 
#
# 1 0.027466 -0.006845 -0.000180 0.000000 0.000000 0.000000
# 2 -0.006845 0.012542 -0.007680 0.000000 0.000000 0.000000
# 3 -0.000180 -0.007680 0.017756 0.000000 0.000000 0.000000
# 4 0.000000 0.000000 0.000000 0.146448 0.000000 0.000000
# 5 0.000000 0.000000 0.000000 0.000000 0.244745 0.000000
# 6 0.000000 0.000000 0.000000 0.000000 0.000000 0.105341
#
#
# Mechanical properties :
#
#
# Convention : Reuss Voigt Hill
#
# Bulk Modulus (GPa) = 35.26843 52.69798 43.98321
# Shear Modulus (GPa) = 8.42943 14.30617 11.36780
#
# Velocity S-wave (km/s) = 2.03579 2.65214 2.36414
# Velocity P-wave (km/s) = 4.78186 5.94038 5.39232
#
# Compressibility (1/GPa) = 0.02835397
#
# Stress axis : x y z
#
# Youngs Moduli (GPa) = 36.40870 79.73423 56.31746
#
# Poissons Ratio (x) = 0.54579 0.01013
# Poissons Ratio (y) = 0.24922 0.43253
# Poissons Ratio (z) = 0.00655 0.61237
#
# Static dielectric constant tensor:
#      x y z
#    x 1.685120 0.000000 0.000000 
#    y 0.000000 1.763960 0.000000 
#    z 0.000000 0.000000 1.727730 
# 
# From -- ./inp_files/13130.got.cif
#   From: 2010.05.17/outbox.cif.g08.bks.cpg/sg68_7_cif.got.tgz:13130.got - 2010.06.03 18:57:09.
