data_PCOD9507164
_publ_section_title
;
Structure prediction by ZEFSAII (Michael W. Deem and Ramdas Pophale) SiO2 
 PCOD9507164
Probable space group: C C C A
;
_chemical_formula_sum "Si O2"
_cell_formula_units_Z 80
_cell_length_a 27.595734
_cell_length_b 14.139611
_cell_length_c 10.939413
_cell_angle_alpha 90.000000
_cell_angle_beta 90.000000
_cell_angle_gamma 90.000000
_cell_volume 4268.481764
_symmetry_space_group_name_H-M "C C C A"
_symmetry_group_IT_number 68
_space_group.IT_coordinate_system_code '2'
_symmetry_cell_setting 'orthorhombic'
loop_
_space_group_symop_operation_xyz
x,y,z
-x,1/2-y,z
x,1/2-y,1/2-z
-x,y,1/2-z
-x,-y,-z
x,1/2+y,-z
-x,1/2+y,1/2+z
x,-y,1/2+z
1/2+x,1/2+y,z
1/2-x,-y,z
1/2+x,-y,1/2-z
1/2-x,1/2+y,1/2-z
1/2-x,1/2-y,-z
1/2+x,y,-z
1/2-x,y,1/2+z
1/2+x,1/2-y,1/2+z
loop_
_atom_site_type_symbol
_atom_site_label
_atom_site_fract_x
_atom_site_fract_y
_atom_site_fract_z
Si Si1 0.359248 0.976795 0.938651
Si Si2 0.333820 0.250000 0.750000
Si Si3 0.696521 0.041800 0.806964
Si Si4 0.590956 0.211379 0.129719
Si Si5 0.000000 0.250000 0.750000
Si Si6 0.500000 0.750000 0.250000
Si Si7 0.082347 0.656585 0.589799
O O1 0.379442 0.871148 0.931083
O O2 0.326142 0.000508 0.819680
O O3 0.404444 0.047645 0.923029
O O4 0.333280 0.987331 0.070445
O O5 0.304935 0.342831 0.796125
O O6 0.370664 0.292896 0.650083
O O7 0.750000 0.000000 0.819344
O O8 0.617689 0.250000 0.250000
O O9 0.537220 0.315969 0.324008
O O10 0.579522 0.297742 0.042133
O O11 0.464483 0.814527 0.332082
#
# Coordination Sequence:
#
# PCOD9507164 Si02
#       7
#    16   8  16  16   4   4  16
#     4  11  23  41  69  93 127 173 207 263 323 377
#     4   9  20  41  65  86 130 166 199 259 314 367
#     4  11  23  44  65  99 126 161 219 261 315 385
#     4  10  20  40  60  89 132 164 207 259 315 368
#     4   8  22  34  58  90 130 164 206 262 298 376
#     4  10  22  38  62  88 128 166 212 264 292 382
#     4  10  20  39  62  91 123 167 214 247 314 377
#
# _framework density 18.742028000000001
#
# number of rings (size 3 to 8) (size 9 to 14) (size 15 to 20)
#    0.600    1.200    2.000    2.400    0.000    0.800 
#    5.400    5.000    0.000    0.000    0.000    0.000 
#    0.000    0.000    0.000    0.000    0.000    0.000 
#
# Total GULP energy -222703.973545 kJ/mol
# GULP energy per Si atom -5567.599339 kJ/mol
# Density = 1.869937 g / cm^3
# Si number density = 18.742028 Si / 1000 Ang^3
#
#
#
# Elastic Constant Matrix: (Units=GPa)
#
#
# Indices 1 2 3 4 5 6 
#
# 1 90.6719 34.9352 30.1348 0.0000 0.0000 0.0000
# 2 34.9352 69.6562 17.5211 0.0000 0.0000 0.0000
# 3 30.1348 17.5211 112.3965 0.0000 0.0000 0.0000
# 4 0.0000 0.0000 0.0000 23.4924 0.0000 0.0000
# 5 0.0000 0.0000 0.0000 0.0000 58.4802 0.0000
# 6 0.0000 0.0000 0.0000 0.0000 0.0000 20.0469
#
#
#
# Elastic Compliance Matrix: (Units=1/GPa)
#
#
# Indices 1 2 3 4 5 6 
#
# 1 0.014507 -0.006555 -0.002868 0.000000 0.000000 0.000000
# 2 -0.006555 0.017904 -0.001034 0.000000 0.000000 0.000000
# 3 -0.002868 -0.001034 0.009827 0.000000 0.000000 0.000000
# 4 0.000000 0.000000 0.000000 0.042567 0.000000 0.000000
# 5 0.000000 0.000000 0.000000 0.000000 0.017100 0.000000
# 6 0.000000 0.000000 0.000000 0.000000 0.000000 0.049883
#
#
# Mechanical properties :
#
#
# Convention : Reuss Voigt Hill
#
# Bulk Modulus (GPa) = 46.89103 48.65632 47.77367
# Shear Modulus (GPa) = 27.80739 33.07948 30.44343
#
# Velocity S-wave (km/s) = 3.85605 4.20574 4.03468
# Velocity P-wave (km/s) = 6.70067 7.04285 6.87389
#
# Compressibility (1/GPa) = 0.02132604
#
# Stress axis : x y z
#
# Youngs Moduli (GPa) = 68.93067 55.85475 101.75958
#
# Poissons Ratio (x) = 0.36611 0.29183
# Poissons Ratio (y) = 0.45181 0.10517
# Poissons Ratio (z) = 0.19768 0.05773
#
# Static dielectric constant tensor:
#      x y z
#    x 1.650030 0.000000 0.000000 
#    y 0.000000 1.647920 0.000000 
#    z 0.000000 0.000000 1.716850 
# 
# From -- ./inp_files/17602.got.cif
#   From: 2010.05.17/outbox.cif.g08.bks.cpg/sg68_9_cif.got.tgz:17602.got - 2010.06.03 18:57:09.
