data_PCOD9507038
_publ_section_title
;
Structure prediction by ZEFSAII (Michael W. Deem and Ramdas Pophale) SiO2 
 PCOD9507038
Probable space group: C C C A
;
_chemical_formula_sum "Si O2"
_cell_formula_units_Z 88
_cell_length_a 20.644702
_cell_length_b 13.643675
_cell_length_c 13.284213
_cell_angle_alpha 90.000000
_cell_angle_beta 90.000000
_cell_angle_gamma 90.000000
_cell_volume 3741.759023
_symmetry_space_group_name_H-M "C C C A"
_symmetry_group_IT_number 68
_space_group.IT_coordinate_system_code '2'
_symmetry_cell_setting 'orthorhombic'
loop_
_space_group_symop_operation_xyz
x,y,z
-x,1/2-y,z
x,1/2-y,1/2-z
-x,y,1/2-z
-x,-y,-z
x,1/2+y,-z
-x,1/2+y,1/2+z
x,-y,1/2+z
1/2+x,1/2+y,z
1/2-x,-y,z
1/2+x,-y,1/2-z
1/2-x,1/2+y,1/2-z
1/2-x,1/2-y,-z
1/2+x,y,-z
1/2-x,y,1/2+z
1/2+x,1/2-y,1/2+z
loop_
_atom_site_type_symbol
_atom_site_label
_atom_site_fract_x
_atom_site_fract_y
_atom_site_fract_z
Si Si1 0.290417 0.208321 0.848439
Si Si2 0.949529 0.684218 0.351552
Si Si3 0.506952 0.460003 0.861186
Si Si4 0.250000 0.500000 0.585901
Si Si5 0.387300 0.976275 0.520389
Si Si6 0.662397 0.283597 0.074196
O O1 0.325131 0.250000 0.750000
O O2 0.227734 0.276954 0.863729
O O3 0.265491 0.096038 0.847866
O O4 0.325007 0.217048 0.955544
O O5 0.940666 0.750000 0.250000
O O6 0.975879 0.575820 0.345181
O O7 0.880253 0.690011 0.400360
O O8 0.000000 0.750000 0.414039
O O9 0.500000 0.415957 0.750000
O O10 0.568878 0.431711 0.928879
O O11 0.439337 0.454118 0.922859
O O12 0.315933 0.510624 0.517716
O O13 0.372778 0.885985 0.595603
#
# Coordination Sequence:
#
# PCOD9507038 Si02
#       6
#    16  16  16   8  16  16
#     4  10  22  41  65  93 126 166 212 261 323 393
#     4  11  18  32  61  93 115 154 213 262 311 382
#     4  11  21  38  60  94 128 166 211 268 325 384
#     4  10  22  44  64  94 130 170 212 270 326 384
#     4  10  22  38  60  89 131 163 212 268 325 381
#     4  10  20  38  61  88 124 163 208 262 321 379
#
# _framework density 23.518350999999999
#
# number of rings (size 3 to 8) (size 9 to 14) (size 15 to 20)
#    0.000    1.636    3.636    1.636    0.000    1.455 
#    0.000   29.091    0.000    0.000    0.000    1.273 
#    0.000    0.000    0.000    0.000    0.000    0.000 
#
# Total GULP energy -245301.984601 kJ/mol
# GULP energy per Si atom -5575.045105 kJ/mol
# Density = 2.346482 g / cm^3
# Si number density = 23.518351 Si / 1000 Ang^3
#
#
#
# Elastic Constant Matrix: (Units=GPa)
#
#
# Indices 1 2 3 4 5 6 
#
# 1 113.7434 5.7189 9.5845 0.0000 0.0000 0.0000
# 2 5.7189 62.8914 1.5867 0.0000 0.0000 0.0000
# 3 9.5845 1.5867 86.4667 0.0000 0.0000 0.0000
# 4 0.0000 0.0000 0.0000 24.2920 0.0000 0.0000
# 5 0.0000 0.0000 0.0000 0.0000 64.6152 0.0000
# 6 0.0000 0.0000 0.0000 0.0000 0.0000 22.1150
#
#
#
# Elastic Compliance Matrix: (Units=1/GPa)
#
#
# Indices 1 2 3 4 5 6 
#
# 1 0.008913 -0.000786 -0.000974 0.000000 0.000000 0.000000
# 2 -0.000786 0.015977 -0.000206 0.000000 0.000000 0.000000
# 3 -0.000974 -0.000206 0.011677 0.000000 0.000000 0.000000
# 4 0.000000 0.000000 0.000000 0.041166 0.000000 0.000000
# 5 0.000000 0.000000 0.000000 0.000000 0.015476 0.000000
# 6 0.000000 0.000000 0.000000 0.000000 0.000000 0.045218
#
#
# Mechanical properties :
#
#
# Convention : Reuss Voigt Hill
#
# Bulk Modulus (GPa) = 30.64098 32.98685 31.81392
# Shear Modulus (GPa) = 32.62911 38.61852 35.62381
#
# Velocity S-wave (km/s) = 3.72881 4.05663 3.89617
# Velocity P-wave (km/s) = 5.62099 5.99984 5.81350
#
# Compressibility (1/GPa) = 0.03263603
#
# Stress axis : x y z
#
# Youngs Moduli (GPa) = 112.19225 62.58960 85.63954
#
# Poissons Ratio (x) = 0.04919 0.08338
# Poissons Ratio (y) = 0.08818 0.01765
# Poissons Ratio (z) = 0.10923 0.01290
#
# Static dielectric constant tensor:
#      x y z
#    x 1.984640 0.000000 0.000000 
#    y 0.000000 2.001000 0.000000 
#    z 0.000000 0.000000 1.974110 
# 
# From -- ./inp_files/24367.got.cif
#   From: 2010.05.17/outbox.cif.g08.bks.cpg/sg68_13_cif.got.tgz:24367.got - 2010.06.03 18:57:09.
