data_PCOD9507832
_publ_section_title
;
Structure prediction by ZEFSAII (Michael W. Deem and Ramdas Pophale) SiO2 
 PCOD9507832
Probable space group: C C C A
;
_chemical_formula_sum "Si O2"
_cell_formula_units_Z 88
_cell_length_a 15.010129
_cell_length_b 10.738565
_cell_length_c 24.253742
_cell_angle_alpha 90.000000
_cell_angle_beta 90.000000
_cell_angle_gamma 90.000000
_cell_volume 3909.393876
_symmetry_space_group_name_H-M "C C C A"
_symmetry_group_IT_number 68
_space_group.IT_coordinate_system_code '2'
_symmetry_cell_setting 'orthorhombic'
loop_
_space_group_symop_operation_xyz
x,y,z
-x,1/2-y,z
x,1/2-y,1/2-z
-x,y,1/2-z
-x,-y,-z
x,1/2+y,-z
-x,1/2+y,1/2+z
x,-y,1/2+z
1/2+x,1/2+y,z
1/2-x,-y,z
1/2+x,-y,1/2-z
1/2-x,1/2+y,1/2-z
1/2-x,1/2-y,-z
1/2+x,y,-z
1/2-x,y,1/2+z
1/2+x,1/2-y,1/2+z
loop_
_atom_site_type_symbol
_atom_site_label
_atom_site_fract_x
_atom_site_fract_y
_atom_site_fract_z
Si Si1 0.830171 0.598239 0.945533
Si Si2 0.848415 0.438064 0.568741
Si Si3 0.258247 0.258566 0.363444
Si Si4 0.616887 0.120675 0.781331
Si Si5 0.501634 0.600257 0.120000
Si Si6 0.250000 0.500000 0.201556
O O1 0.750000 0.500000 0.947290
O O2 0.790720 0.724267 0.920585
O O3 0.906285 0.556677 0.902421
O O4 0.864742 0.613603 0.007444
O O5 0.750000 0.500000 0.570047
O O6 0.844265 0.334017 0.616881
O O7 0.924188 0.536579 0.582507
O O8 0.193813 0.341633 0.325658
O O9 0.267585 0.126309 0.332696
O O10 0.598369 0.250000 0.750000
O O11 0.532735 0.076234 0.817091
O O12 0.664310 0.027051 0.739734
O O13 0.500000 0.750000 0.114525
#
# Coordination Sequence:
#
# PCOD9507832 Si02
#       6
#    16  16  16  16  16   8
#     4  11  24  42  65 101 143 189 233 285 359 433
#     4  11  22  40  71 105 142 187 227 292 369 431
#     4  11  20  42  70  99 143 177 230 292 361 439
#     4  10  21  38  67 100 129 174 232 296 349 417
#     4  12  23  43  67 102 138 180 247 296 341 428
#     4  10  22  40  68 108 140 180 232 294 382 428
#
# _framework density 22.509882999999999
#
# number of rings (size 3 to 8) (size 9 to 14) (size 15 to 20)
#    0.000    1.091    4.545    2.182    0.000    1.818 
#    0.000    0.909    0.000    0.000    4.727    0.000 
#    0.000    0.000    0.000    0.000    0.000    0.000 
#
# Total GULP energy -246095.174138 kJ/mol
# GULP energy per Si atom -5593.072140 kJ/mol
# Density = 2.245865 g / cm^3
# Si number density = 22.509883 Si / 1000 Ang^3
#
#
#
# Elastic Constant Matrix: (Units=GPa)
#
#
# Indices 1 2 3 4 5 6 
#
# 1 110.4527 39.3711 35.5069 0.0000 0.0000 0.0000
# 2 39.3711 87.4077 45.2941 0.0000 0.0000 0.0000
# 3 35.5069 45.2941 132.2498 0.0000 0.0000 0.0000
# 4 0.0000 0.0000 0.0000 29.2650 0.0000 0.0000
# 5 0.0000 0.0000 0.0000 0.0000 32.1649 0.0000
# 6 0.0000 0.0000 0.0000 0.0000 0.0000 36.7404
#
#
#
# Elastic Compliance Matrix: (Units=1/GPa)
#
#
# Indices 1 2 3 4 5 6 
#
# 1 0.011035 -0.004176 -0.001532 0.000000 0.000000 0.000000
# 2 -0.004176 0.015490 -0.004184 0.000000 0.000000 0.000000
# 3 -0.001532 -0.004184 0.009406 0.000000 0.000000 0.000000
# 4 0.000000 0.000000 0.000000 0.034170 0.000000 0.000000
# 5 0.000000 0.000000 0.000000 0.000000 0.031090 0.000000
# 6 0.000000 0.000000 0.000000 0.000000 0.000000 0.027218
#
#
# Mechanical properties :
#
#
# Convention : Reuss Voigt Hill
#
# Bulk Modulus (GPa) = 61.93699 63.38383 62.66041
# Shear Modulus (GPa) = 32.55723 33.62994 33.09359
#
# Velocity S-wave (km/s) = 3.80722 3.86943 3.83845
# Velocity P-wave (km/s) = 6.84849 6.94138 6.89509
#
# Compressibility (1/GPa) = 0.01614544
#
# Stress axis : x y z
#
# Youngs Moduli (GPa) = 90.62123 64.55839 106.31785
#
# Poissons Ratio (x) = 0.26962 0.16291
# Poissons Ratio (y) = 0.37847 0.44481
# Poissons Ratio (z) = 0.13886 0.27010
#
# Static dielectric constant tensor:
#      x y z
#    x 1.855390 0.000000 0.000000 
#    y 0.000000 1.831290 0.000000 
#    z 0.000000 0.000000 1.895620 
# 
# From -- ./inp_files/45296.got.cif
#   From: 2010.05.17/outbox.cif.g08.bks.cpg/sg68_23_cif.got.tgz:45296.got - 2010.06.03 18:57:09.
