data_PCOD9507635
_publ_section_title
;
Structure prediction by ZEFSAII (Michael W. Deem and Ramdas Pophale) SiO2 
 PCOD9507635
Probable space group: C C C A
;
_chemical_formula_sum "Si O2"
_cell_formula_units_Z 80
_cell_length_a 27.849609
_cell_length_b 9.756709
_cell_length_c 14.326737
_cell_angle_alpha 90.000000
_cell_angle_beta 90.000000
_cell_angle_gamma 90.000000
_cell_volume 3892.868582
_symmetry_space_group_name_H-M "C C C A"
_symmetry_group_IT_number 68
_space_group.IT_coordinate_system_code '2'
_symmetry_cell_setting 'orthorhombic'
loop_
_space_group_symop_operation_xyz
x,y,z
-x,1/2-y,z
x,1/2-y,1/2-z
-x,y,1/2-z
-x,-y,-z
x,1/2+y,-z
-x,1/2+y,1/2+z
x,-y,1/2+z
1/2+x,1/2+y,z
1/2-x,-y,z
1/2+x,-y,1/2-z
1/2-x,1/2+y,1/2-z
1/2-x,1/2-y,-z
1/2+x,y,-z
1/2-x,y,1/2+z
1/2+x,1/2-y,1/2+z
loop_
_atom_site_type_symbol
_atom_site_label
_atom_site_fract_x
_atom_site_fract_y
_atom_site_fract_z
Si Si1 0.250000 0.500000 0.997647
Si Si2 0.327603 0.431491 0.150708
Si Si3 0.500000 0.055606 0.250000
Si Si4 0.431827 0.844563 0.587621
Si Si5 0.930986 0.985744 0.090575
Si Si6 0.827514 0.891517 0.356293
O O1 0.287786 0.439216 0.071026
O O2 0.215608 0.413786 0.928825
O O3 0.375198 0.510158 0.117578
O O4 0.315923 0.467761 0.258534
O O5 0.335585 0.269689 0.157706
O O6 0.535162 0.134014 0.321903
O O7 0.536176 0.981196 0.179707
O O8 0.431525 0.679755 0.571751
O O9 0.381008 0.923185 0.607146
O O10 0.448625 0.923151 0.495303
#
# Coordination Sequence:
#
# PCOD9507635 Si02
#       6
#     8  16   8  16  16  16
#     4  12  20  36  60  86 116 152 200 244 310 332
#     4  10  21  37  58  84 118 157 200 243 290 357
#     4  12  23  40  71  90 115 166 207 236 297 374
#     4  11  22  40  63  91 120 158 203 247 296 355
#     4  11  22  40  63  91 120 158 203 247 296 355
#     4  10  21  37  58  84 118 157 200 243 290 357
#
# _framework density 20.550398000000001
#
# number of rings (size 3 to 8) (size 9 to 14) (size 15 to 20)
#    0.000    1.200    4.000    3.600    0.000    0.000 
#    0.000    2.000    0.000    2.400    0.000    0.000 
#    0.000    0.000    0.000    0.000    0.000    0.000 
#
# Total GULP energy -222684.895397 kJ/mol
# GULP energy per Si atom -5567.122385 kJ/mol
# Density = 2.050362 g / cm^3
# Si number density = 20.550398 Si / 1000 Ang^3
#
#
#
# Elastic Constant Matrix: (Units=GPa)
#
#
# Indices 1 2 3 4 5 6 
#
# 1 112.7333 6.9453 49.4446 0.0000 0.0000 0.0000
# 2 6.9453 14.1378 33.3970 0.0000 0.0000 0.0000
# 3 49.4446 33.3970 179.1165 0.0000 0.0000 0.0000
# 4 0.0000 0.0000 0.0000 20.7449 0.0000 0.0000
# 5 0.0000 0.0000 0.0000 0.0000 55.4359 0.0000
# 6 0.0000 0.0000 0.0000 0.0000 0.0000 20.1009
#
#
#
# Elastic Compliance Matrix: (Units=1/GPa)
#
#
# Indices 1 2 3 4 5 6 
#
# 1 0.010159 0.002920 -0.003349 0.000000 0.000000 0.000000
# 2 0.002920 0.127249 -0.024532 0.000000 0.000000 0.000000
# 3 -0.003349 -0.024532 0.011082 0.000000 0.000000 0.000000
# 4 0.000000 0.000000 0.000000 0.048205 0.000000 0.000000
# 5 0.000000 0.000000 0.000000 0.000000 0.018039 0.000000
# 6 0.000000 0.000000 0.000000 0.000000 0.000000 0.049749
#
#
# Mechanical properties :
#
#
# Convention : Reuss Voigt Hill
#
# Bulk Modulus (GPa) = 10.14527 53.95127 32.04827
# Shear Modulus (GPa) = 14.39840 33.66972 24.03406
#
# Velocity S-wave (km/s) = 2.64983 4.05210 3.42353
# Velocity P-wave (km/s) = 3.78281 6.94283 5.59073
#
# Compressibility (1/GPa) = 0.09856814
#
# Stress axis : x y z
#
# Youngs Moduli (GPa) = 98.43066 7.85860 90.23997
#
# Poissons Ratio (x) = -0.02295 0.30221
# Poissons Ratio (y) = -0.28743 2.21379
# Poissons Ratio (z) = 0.32964 0.19279
#
# Static dielectric constant tensor:
#      x y z
#    x 1.829090 0.000000 0.000000 
#    y 0.000000 1.700610 0.000000 
#    z 0.000000 0.000000 1.780020 
# 
# From -- ./inp_files/11991.got.cif
#   From: 2010.05.17/outbox.cif.g08.bks.cpg/sg68_6_cif.got.tgz:11991.got - 2010.06.03 18:57:09.
