data_PCOD9507771
_publ_section_title
;
Structure prediction by ZEFSAII (Michael W. Deem and Ramdas Pophale) SiO2 
 PCOD9507771
Probable space group: C C C A
;
_chemical_formula_sum "Si O2"
_cell_formula_units_Z 68
_cell_length_a 15.876498
_cell_length_b 8.158783
_cell_length_c 22.663084
_cell_angle_alpha 90.000000
_cell_angle_beta 90.000000
_cell_angle_gamma 90.000000
_cell_volume 2935.615038
_symmetry_space_group_name_H-M "C C C A"
_symmetry_group_IT_number 68
_space_group.IT_coordinate_system_code '2'
_symmetry_cell_setting 'orthorhombic'
loop_
_space_group_symop_operation_xyz
x,y,z
-x,1/2-y,z
x,1/2-y,1/2-z
-x,y,1/2-z
-x,-y,-z
x,1/2+y,-z
-x,1/2+y,1/2+z
x,-y,1/2+z
1/2+x,1/2+y,z
1/2-x,-y,z
1/2+x,-y,1/2-z
1/2-x,1/2+y,1/2-z
1/2-x,1/2-y,-z
1/2+x,y,-z
1/2-x,y,1/2+z
1/2+x,1/2-y,1/2+z
loop_
_atom_site_type_symbol
_atom_site_label
_atom_site_fract_x
_atom_site_fract_y
_atom_site_fract_z
Si Si1 0.585590 0.469512 0.534249
Si Si2 0.000000 0.750000 0.250000
Si Si3 0.340557 0.928664 0.804694
Si Si4 0.807068 0.341571 0.613215
Si Si5 0.159709 0.867536 0.926964
O O1 0.500000 0.500000 0.500000
O O2 0.605373 0.603398 0.584628
O O3 0.599042 0.289174 0.560573
O O4 0.650915 0.515440 0.482868
O O5 0.068231 0.615191 0.223239
O O6 0.316943 0.745820 0.825315
O O7 0.250000 0.000000 0.779800
O O8 0.355884 0.040402 0.864437
O O9 0.750000 0.500000 0.617695
O O10 0.751016 0.215184 0.576406
#
# Coordination Sequence:
#
# PCOD9507771 Si02
#       5
#    16   4  16  16  16
#     4  11  21  33  60 103 145 193 226 279 336 440
#     4  12  28  48  88 104 140 188 250 336 408 436
#     4  10  24  47  75 108 138 184 247 312 378 454
#     4   9  20  39  65  96 144 190 230 285 353 433
#     4  10  21  38  61  95 145 187 236 282 349 440
#
# _framework density 23.163800999999999
#
# number of rings (size 3 to 8) (size 9 to 14) (size 15 to 20)
#    0.000    1.882    0.000    2.824    3.294    7.529 
#    0.000    0.000    0.000   12.706    0.000    0.000 
#    0.000    0.000    0.000    0.000    0.000    0.000 
#
# Total GULP energy -189306.898372 kJ/mol
# GULP energy per Si atom -5567.849952 kJ/mol
# Density = 2.311108 g / cm^3
# Si number density = 23.163801 Si / 1000 Ang^3
#
#
#
# Elastic Constant Matrix: (Units=GPa)
#
#
# Indices 1 2 3 4 5 6 
#
# 1 152.5834 66.9518 46.0453 0.0000 0.0000 0.0000
# 2 66.9518 114.8158 50.7210 0.0000 0.0000 0.0000
# 3 46.0453 50.7210 49.7231 0.0000 0.0000 0.0000
# 4 0.0000 0.0000 0.0000 37.4797 0.0000 0.0000
# 5 0.0000 0.0000 0.0000 0.0000 52.3571 0.0000
# 6 0.0000 0.0000 0.0000 0.0000 0.0000 25.0878
#
#
#
# Elastic Compliance Matrix: (Units=1/GPa)
#
#
# Indices 1 2 3 4 5 6 
#
# 1 0.009651 -0.003057 -0.005819 0.000000 0.000000 0.000000
# 2 -0.003057 0.016822 -0.014329 0.000000 0.000000 0.000000
# 3 -0.005819 -0.014329 0.040116 0.000000 0.000000 0.000000
# 4 0.000000 0.000000 0.000000 0.026681 0.000000 0.000000
# 5 0.000000 0.000000 0.000000 0.000000 0.019100 0.000000
# 6 0.000000 0.000000 0.000000 0.000000 0.000000 0.039860
#
#
# Mechanical properties :
#
#
# Convention : Reuss Voigt Hill
#
# Bulk Modulus (GPa) = 49.55395 71.61761 60.58578
# Shear Modulus (GPa) = 24.34683 33.21188 28.77936
#
# Velocity S-wave (km/s) = 3.24554 3.79064 3.52863
# Velocity P-wave (km/s) = 5.95684 7.08122 6.54323
#
# Compressibility (1/GPa) = 0.02018003
#
# Stress axis : x y z
#
# Youngs Moduli (GPa) = 103.61355 59.44516 24.92794
#
# Poissons Ratio (x) = 0.18175 0.14504
# Poissons Ratio (y) = 0.31679 0.35718
# Poissons Ratio (z) = 0.60288 0.85176
#
# Static dielectric constant tensor:
#      x y z
#    x 2.061330 0.000000 0.000000 
#    y 0.000000 1.929160 0.000000 
#    z 0.000000 0.000000 1.946150 
# 
# From -- ./inp_files/39197.got.cif
#   From: 2010.05.17/outbox.cif.g08.bks.cpg/sg68_20_cif.got.tgz:39197.got - 2010.06.03 18:57:09.
