data_PCOD9507422
_publ_section_title
;
Structure prediction by ZEFSAII (Michael W. Deem and Ramdas Pophale) SiO2 
 PCOD9507422
Probable space group: C C C A
;
_chemical_formula_sum "Si O2"
_cell_formula_units_Z 108
_cell_length_a 15.059103
_cell_length_b 30.526893
_cell_length_c 10.915123
_cell_angle_alpha 90.000000
_cell_angle_beta 90.000000
_cell_angle_gamma 90.000000
_cell_volume 5017.765281
_symmetry_space_group_name_H-M "C C C A"
_symmetry_group_IT_number 68
_space_group.IT_coordinate_system_code '2'
_symmetry_cell_setting 'orthorhombic'
loop_
_space_group_symop_operation_xyz
x,y,z
-x,1/2-y,z
x,1/2-y,1/2-z
-x,y,1/2-z
-x,-y,-z
x,1/2+y,-z
-x,1/2+y,1/2+z
x,-y,1/2+z
1/2+x,1/2+y,z
1/2-x,-y,z
1/2+x,-y,1/2-z
1/2-x,1/2+y,1/2-z
1/2-x,1/2-y,-z
1/2+x,y,-z
1/2-x,y,1/2+z
1/2+x,1/2-y,1/2+z
loop_
_atom_site_type_symbol
_atom_site_label
_atom_site_fract_x
_atom_site_fract_y
_atom_site_fract_z
Si Si1 0.500000 0.250000 0.250000
Si Si2 0.554526 0.127651 0.601133
Si Si3 0.201495 0.750000 0.750000
Si Si4 0.644894 0.813304 0.773843
Si Si5 0.165048 0.597348 0.371714
Si Si6 0.559016 0.506237 0.626192
Si Si7 0.414005 0.777528 0.462024
Si Si8 0.874260 0.089391 0.355541
O O1 0.429561 0.213393 0.299665
O O2 0.621064 0.114734 0.494867
O O3 0.557260 0.179693 0.614866
O O4 0.454723 0.111689 0.568062
O O5 0.593818 0.104099 0.720604
O O6 0.261476 0.706678 0.735516
O O7 0.145933 0.751828 0.625931
O O8 0.638407 0.865581 0.771231
O O9 0.630151 0.795698 0.913646
O O10 0.121564 0.549203 0.361960
O O11 0.271807 0.600070 0.378721
O O12 0.500000 0.506060 0.750000
O O13 0.500000 0.500000 0.500000
O O14 0.617180 0.462488 0.630341
O O15 0.500000 0.750000 0.493872
#
# Coordination Sequence:
#
# PCOD9507422 Si02
#       8
#     4  16   8  16  16  16  16  16
#     4  10  20  44  62  82 138 176 194 276 336 372
#     4  10  23  44  64  97 137 174 219 280 341 395
#     4  11  23  39  61  92 130 168 217 279 319 391
#     4  10  23  42  61  93 130 168 219 268 332 387
#     4  11  24  41  69 100 123 177 230 269 336 415
#     4  12  24  46  70 100 138 176 226 285 349 415
#     4  11  23  38  63  94 125 173 222 261 328 392
#     4  11  22  44  68  92 138 173 212 283 342 393
#
# _framework density 21.523527000000001
#
# number of rings (size 3 to 8) (size 9 to 14) (size 15 to 20)
#    0.000    1.185    3.704    2.000    7.259    1.185 
#    0.000    2.963    0.000    0.000    0.000    0.000 
#    0.000    0.000    0.000    0.000    0.000    0.000 
#
# Total GULP energy -301121.236958 kJ/mol
# GULP energy per Si atom -5576.319203 kJ/mol
# Density = 2.147454 g / cm^3
# Si number density = 21.523527 Si / 1000 Ang^3
#
#
#
# Elastic Constant Matrix: (Units=GPa)
#
#
# Indices 1 2 3 4 5 6 
#
# 1 160.8728 43.9898 33.5022 0.0000 0.0000 0.0000
# 2 43.9898 121.9857 5.4617 0.0000 0.0000 0.0000
# 3 33.5022 5.4617 66.5322 0.0000 0.0000 0.0000
# 4 0.0000 0.0000 0.0000 31.4794 0.0000 0.0000
# 5 0.0000 0.0000 0.0000 0.0000 56.0540 0.0000
# 6 0.0000 0.0000 0.0000 0.0000 0.0000 -6.7351
#
#
#
# Elastic Compliance Matrix: (Units=1/GPa)
#
#
# Indices 1 2 3 4 5 6 
#
# 1 0.007692 -0.002610 -0.003659 0.000000 0.000000 0.000000
# 2 -0.002610 0.009114 0.000566 0.000000 0.000000 0.000000
# 3 -0.003659 0.000566 0.016826 0.000000 0.000000 0.000000
# 4 0.000000 0.000000 0.000000 0.031767 0.000000 0.000000
# 5 0.000000 0.000000 0.000000 0.000000 0.017840 0.000000
# 6 0.000000 0.000000 0.000000 0.000000 0.000000 -0.148475
#
#
# Mechanical properties :
#
#
# Convention : Reuss Voigt Hill
#
# Bulk Modulus (GPa) = 44.99228 57.25536 51.12382
# Shear Modulus (GPa) = -107.70614 33.92212 -36.89201
#
# Velocity S-wave (km/s) = -7.08165 3.97425 -4.14458
# Velocity P-wave (km/s) = 6.77622 6.90787 0.94906
#
# Compressibility (1/GPa) = 0.02222603
#
# Stress axis : x y z
#
# Youngs Moduli (GPa) = 130.00956 109.72714 59.43080
#
# Poissons Ratio (x) = 0.28638 0.21745
# Poissons Ratio (y) = 0.33932 -0.03364
# Poissons Ratio (z) = 0.47569 -0.06212
#
# Static dielectric constant tensor:
#      x y z
#    x 1.784560 0.000000 0.000000 
#    y 0.000000 1.805400 0.000000 
#    z 0.000000 0.000000 2.209800 
# 
# From -- ./inp_files/13619.got.cif
#   From: 2010.05.17/outbox.cif.g08.bks.cpg/sg68_7_cif.got.tgz:13619.got - 2010.06.03 18:57:09.
