data_PCOD9507428
_publ_section_title
;
Structure prediction by ZEFSAII (Michael W. Deem and Ramdas Pophale) SiO2 
 PCOD9507428
Probable space group: C C C A
;
_chemical_formula_sum "Si O2"
_cell_formula_units_Z 128
_cell_length_a 23.402325
_cell_length_b 24.866500
_cell_length_c 10.670616
_cell_angle_alpha 90.000000
_cell_angle_beta 90.000000
_cell_angle_gamma 90.000000
_cell_volume 6209.593340
_symmetry_space_group_name_H-M "C C C A"
_symmetry_group_IT_number 68
_space_group.IT_coordinate_system_code '2'
_symmetry_cell_setting 'orthorhombic'
loop_
_space_group_symop_operation_xyz
x,y,z
-x,1/2-y,z
x,1/2-y,1/2-z
-x,y,1/2-z
-x,-y,-z
x,1/2+y,-z
-x,1/2+y,1/2+z
x,-y,1/2+z
1/2+x,1/2+y,z
1/2-x,-y,z
1/2+x,-y,1/2-z
1/2-x,1/2+y,1/2-z
1/2-x,1/2-y,-z
1/2+x,y,-z
1/2-x,y,1/2+z
1/2+x,1/2-y,1/2+z
loop_
_atom_site_type_symbol
_atom_site_label
_atom_site_fract_x
_atom_site_fract_y
_atom_site_fract_z
Si Si1 0.658624 0.040558 0.506849
Si Si2 0.479789 0.807536 0.108444
Si Si3 0.083107 0.360111 0.016112
Si Si4 0.432534 0.314699 0.250119
Si Si5 0.674721 0.216738 0.621114
Si Si6 0.760848 0.619916 0.423445
Si Si7 0.808711 0.032060 0.733635
Si Si8 0.860996 0.819224 0.000388
O O1 0.607502 0.081117 0.537403
O O2 0.655860 0.025579 0.360745
O O3 0.716770 0.076188 0.522207
O O4 0.663012 0.993450 0.608827
O O5 0.500000 0.750000 0.050121
O O6 0.500000 0.806863 0.250000
O O7 0.516309 0.853081 0.040793
O O8 0.412781 0.815855 0.097270
O O9 0.094083 0.340431 0.874579
O O10 0.117334 0.318697 0.105199
O O11 0.430891 0.250000 0.250000
O O12 0.500000 0.329802 0.250000
O O13 0.394964 0.329454 0.129356
O O14 0.678595 0.250000 0.750000
O O15 0.725405 0.173598 0.608316
O O16 0.670181 0.261480 0.511612
O O17 0.789945 0.592409 0.302421
O O18 0.812166 0.636522 0.515658
O O19 0.750000 0.000000 0.755528
#
# Coordination Sequence:
#
# PCOD9507428 Si02
#       8
#    16  16  16  16  16  16  16  16
#     4  10  23  42  71  96 126 159 216 281 335 400
#     4  11  21  38  60  88 130 174 217 253 299 377
#     4  11  21  40  62  96 126 168 219 266 320 378
#     4  11  20  34  57  84 125 172 219 261 300 374
#     4  11  23  38  55  90 140 179 208 255 312 389
#     4  10  24  38  61  97 130 170 213 265 326 396
#     4  10  20  44  67  95 121 165 214 274 339 391
#     4  12  22  37  59  89 129 178 211 255 314 380
#
# _framework density 20.613265999999999
#
# number of rings (size 3 to 8) (size 9 to 14) (size 15 to 20)
#    0.000    1.250    3.750    3.000    1.750    0.500 
#    6.750    0.000    0.000    0.750    0.000    0.000 
#    0.000    0.000    0.000    0.000    0.000    0.000 
#
# Total GULP energy -357400.603082 kJ/mol
# GULP energy per Si atom -5584.384423 kJ/mol
# Density = 2.056635 g / cm^3
# Si number density = 20.613266 Si / 1000 Ang^3
#
#
#
# Elastic Constant Matrix: (Units=GPa)
#
#
# Indices 1 2 3 4 5 6 
#
# 1 81.0617 39.8266 27.5116 0.0000 0.0000 0.0000
# 2 39.8266 57.1553 27.6484 0.0000 0.0000 0.0000
# 3 27.5116 27.6484 105.3776 0.0000 0.0000 0.0000
# 4 0.0000 0.0000 0.0000 14.7015 0.0000 0.0000
# 5 0.0000 0.0000 0.0000 0.0000 4.1519 0.0000
# 6 0.0000 0.0000 0.0000 0.0000 0.0000 13.1296
#
#
#
# Elastic Compliance Matrix: (Units=1/GPa)
#
#
# Indices 1 2 3 4 5 6 
#
# 1 0.019022 -0.012430 -0.001705 0.000000 0.000000 0.000000
# 2 -0.012430 0.028162 -0.004144 0.000000 0.000000 0.000000
# 3 -0.001705 -0.004144 0.011022 0.000000 0.000000 0.000000
# 4 0.000000 0.000000 0.000000 0.068020 0.000000 0.000000
# 5 0.000000 0.000000 0.000000 0.000000 0.240855 0.000000
# 6 0.000000 0.000000 0.000000 0.000000 0.000000 0.076164
#
#
# Mechanical properties :
#
#
# Convention : Reuss Voigt Hill
#
# Bulk Modulus (GPa) = 46.19229 48.17421 47.18325
# Shear Modulus (GPa) = 10.26655 16.30379 13.28517
#
# Velocity S-wave (km/s) = 2.23414 2.81541 2.54145
# Velocity P-wave (km/s) = 5.39563 5.83009 5.61706
#
# Compressibility (1/GPa) = 0.02164863
#
# Stress axis : x y z
#
# Youngs Moduli (GPa) = 52.57092 35.50868 90.72742
#
# Poissons Ratio (x) = 0.44137 0.15468
# Poissons Ratio (y) = 0.65346 0.37596
# Poissons Ratio (z) = 0.08963 0.14714
#
# Static dielectric constant tensor:
#      x y z
#    x 1.744320 0.000000 0.000000 
#    y 0.000000 1.735780 0.000000 
#    z 0.000000 0.000000 1.786010 
# 
# From -- ./inp_files/16697.got.cif
#   From: 2010.05.17/outbox.cif.g08.bks.cpg/sg68_9_cif.got.tgz:16697.got - 2010.06.03 18:57:09.
