data_PCOD9507601
_publ_section_title
;
Structure prediction by ZEFSAII (Michael W. Deem and Ramdas Pophale) SiO2 
 PCOD9507601
Probable space group: C C C A
;
_chemical_formula_sum "Si O2"
_cell_formula_units_Z 80
_cell_length_a 15.611211
_cell_length_b 8.591110
_cell_length_c 29.227729
_cell_angle_alpha 90.000000
_cell_angle_beta 90.000000
_cell_angle_gamma 90.000000
_cell_volume 3919.953771
_symmetry_space_group_name_H-M "C C C A"
_symmetry_group_IT_number 68
_space_group.IT_coordinate_system_code '2'
_symmetry_cell_setting 'orthorhombic'
loop_
_space_group_symop_operation_xyz
x,y,z
-x,1/2-y,z
x,1/2-y,1/2-z
-x,y,1/2-z
-x,-y,-z
x,1/2+y,-z
-x,1/2+y,1/2+z
x,-y,1/2+z
1/2+x,1/2+y,z
1/2-x,-y,z
1/2+x,-y,1/2-z
1/2-x,1/2+y,1/2-z
1/2-x,1/2-y,-z
1/2+x,y,-z
1/2-x,y,1/2+z
1/2+x,1/2-y,1/2+z
loop_
_atom_site_type_symbol
_atom_site_label
_atom_site_fract_x
_atom_site_fract_y
_atom_site_fract_z
Si Si1 0.750000 0.500000 0.814932
Si Si2 0.116910 0.002974 0.468294
Si Si3 0.314365 0.278726 0.607009
Si Si4 0.500000 0.750000 0.513946
Si Si5 0.422559 0.581689 0.223323
Si Si6 0.750000 0.000000 0.449968
Si Si7 0.000000 0.250000 0.139722
O O1 0.728815 0.351542 0.847671
O O2 0.665230 0.508891 0.783868
O O3 0.168712 0.078535 0.427405
O O4 0.044489 0.126797 0.481052
O O5 0.171380 0.987272 0.514590
O O6 0.071450 0.840688 0.457466
O O7 0.410755 0.206923 0.614740
O O8 0.256307 0.151383 0.581804
O O9 0.407323 0.750000 0.250000
O O10 0.500000 0.501375 0.250000
O O11 0.463442 0.618199 0.173712
#
# Coordination Sequence:
#
# PCOD9507601 Si02
#       7
#     8  16  16   8  16   8   8
#     4  10  21  36  63 100 116 150 194 246 309 348
#     4  11  22  40  54  84 109 169 219 260 299 360
#     4  11  22  37  57  84 125 156 199 266 298 362
#     4  10  23  36  60  75 108 152 238 256 305 344
#     4   8  16  37  66  89 117 151 186 228 293 389
#     4  12  25  36  53  78 120 170 208 248 313 354
#     4   8  18  36  56  83 110 152 190 222 309 360
#
# _framework density 20.408404000000001
#
# number of rings (size 3 to 8) (size 9 to 14) (size 15 to 20)
#    0.000    2.200    2.000    1.800    5.600    0.000 
#    0.000    9.000    0.000    7.800    0.000    1.400 
#    0.000    0.000    0.000    0.000    0.000    0.000 
#
# Total GULP energy -222881.655161 kJ/mol
# GULP energy per Si atom -5572.041379 kJ/mol
# Density = 2.036195 g / cm^3
# Si number density = 20.408404 Si / 1000 Ang^3
#
#
#
# Elastic Constant Matrix: (Units=GPa)
#
#
# Indices 1 2 3 4 5 6 
#
# 1 152.2066 55.8863 40.4272 0.0000 0.0000 0.0000
# 2 55.8863 66.1117 22.1380 0.0000 0.0000 0.0000
# 3 40.4272 22.1380 59.7671 0.0000 0.0000 0.0000
# 4 0.0000 0.0000 0.0000 21.7500 0.0000 0.0000
# 5 0.0000 0.0000 0.0000 0.0000 28.0848 0.0000
# 6 0.0000 0.0000 0.0000 0.0000 0.0000 44.9411
#
#
#
# Elastic Compliance Matrix: (Units=1/GPa)
#
#
# Indices 1 2 3 4 5 6 
#
# 1 0.010421 -0.007362 -0.004322 0.000000 0.000000 0.000000
# 2 -0.007362 0.022469 -0.003343 0.000000 0.000000 0.000000
# 3 -0.004322 -0.003343 0.020893 0.000000 0.000000 0.000000
# 4 0.000000 0.000000 0.000000 0.045977 0.000000 0.000000
# 5 0.000000 0.000000 0.000000 0.000000 0.035606 0.000000
# 6 0.000000 0.000000 0.000000 0.000000 0.000000 0.022251
#
#
# Mechanical properties :
#
#
# Convention : Reuss Voigt Hill
#
# Bulk Modulus (GPa) = 42.14180 57.22093 49.68137
# Shear Modulus (GPa) = 25.56483 29.59744 27.58113
#
# Velocity S-wave (km/s) = 3.54314 3.81236 3.68021
# Velocity P-wave (km/s) = 6.11821 6.89039 6.51575
#
# Compressibility (1/GPa) = 0.02372941
#
# Stress axis : x y z
#
# Youngs Moduli (GPa) = 95.95892 44.50659 47.86240
#
# Poissons Ratio (x) = 0.32766 0.20686
# Poissons Ratio (y) = 0.70645 0.15999
# Poissons Ratio (z) = 0.41474 0.14877
#
# Static dielectric constant tensor:
#      x y z
#    x 1.843080 0.000000 0.000000 
#    y 0.000000 1.738490 0.000000 
#    z 0.000000 0.000000 1.758940 
# 
# From -- ./inp_files/51339.got.cif
#   From: 2010.05.17/outbox.cif.g08.bks.cpg/sg68_26_cif.got.tgz:51339.got - 2010.06.03 18:57:09.
