data_PCOD9507543
_publ_section_title
;
Structure prediction by ZEFSAII (Michael W. Deem and Ramdas Pophale) SiO2 
 PCOD9507543
Probable space group: C C C A
;
_chemical_formula_sum "Si O2"
_cell_formula_units_Z 116
_cell_length_a 28.367962
_cell_length_b 19.402656
_cell_length_c 10.426908
_cell_angle_alpha 90.000000
_cell_angle_beta 90.000000
_cell_angle_gamma 90.000000
_cell_volume 5739.114139
_symmetry_space_group_name_H-M "C C C A"
_symmetry_group_IT_number 68
_space_group.IT_coordinate_system_code '2'
_symmetry_cell_setting 'orthorhombic'
loop_
_space_group_symop_operation_xyz
x,y,z
-x,1/2-y,z
x,1/2-y,1/2-z
-x,y,1/2-z
-x,-y,-z
x,1/2+y,-z
-x,1/2+y,1/2+z
x,-y,1/2+z
1/2+x,1/2+y,z
1/2-x,-y,z
1/2+x,-y,1/2-z
1/2-x,1/2+y,1/2-z
1/2-x,1/2-y,-z
1/2+x,y,-z
1/2-x,y,1/2+z
1/2+x,1/2-y,1/2+z
loop_
_atom_site_type_symbol
_atom_site_label
_atom_site_fract_x
_atom_site_fract_y
_atom_site_fract_z
Si Si1 0.705265 0.586937 0.975265
Si Si2 0.390086 0.926485 0.664831
Si Si3 0.636828 0.421635 0.702261
Si Si4 0.507370 0.935446 0.904435
Si Si5 0.000000 0.250000 0.250000
Si Si6 0.864529 0.191754 0.648160
Si Si7 0.185433 0.931026 0.948791
Si Si8 0.562347 0.169094 0.954683
O O1 0.679720 0.653630 0.917034
O O2 0.761159 0.593319 0.965251
O O3 0.689972 0.513082 0.913556
O O4 0.684666 0.576442 0.117825
O O5 0.437595 0.916644 0.584782
O O6 0.388743 0.870726 0.775242
O O7 0.343695 0.920924 0.578052
O O8 0.387732 0.004132 0.717698
O O9 0.654521 0.395650 0.838701
O O10 0.599695 0.378782 0.620014
O O11 0.500000 0.948553 0.750000
O O12 0.472969 0.875891 0.957112
O O13 0.500000 0.000000 0.000000
O O14 0.967455 0.293551 0.154082
O O15 0.851775 0.250000 0.750000
O O16 0.903813 0.215565 0.545248
#
# Coordination Sequence:
#
# PCOD9507543 Si02
#       8
#    16  16  16  16   4  16  16  16
#     4   9  21  38  61 100 128 174 214 273 332 398
#     4  11  23  38  64  99 130 172 220 269 344 400
#     4  10  21  40  65  96 135 163 218 286 335 395
#     4  12  26  41  70 104 140 177 230 292 353 408
#     4  12  32  48  70  92 136 188 244 272 352 424
#     4  11  24  45  67  92 137 176 222 272 335 410
#     4  10  21  35  69  96 134 166 217 279 344 393
#     4  11  27  46  65  96 133 181 228 287 336 408
#
# _framework density 20.212178999999999
#
# number of rings (size 3 to 8) (size 9 to 14) (size 15 to 20)
#    0.000    1.379    4.138    0.000    8.690    1.103 
#    0.000    0.690    1.517    0.000    0.000    0.000 
#    0.000    0.000    0.000    0.000    0.000    0.000 
#
# Total GULP energy -323638.759982 kJ/mol
# GULP energy per Si atom -5579.978620 kJ/mol
# Density = 2.016617 g / cm^3
# Si number density = 20.212179 Si / 1000 Ang^3
#
#
#
# Elastic Constant Matrix: (Units=GPa)
#
#
# Indices 1 2 3 4 5 6 
#
# 1 134.8475 14.7185 39.8403 0.0000 0.0000 0.0000
# 2 14.7185 38.5193 25.6498 0.0000 0.0000 0.0000
# 3 39.8403 25.6498 96.1197 0.0000 0.0000 0.0000
# 4 0.0000 0.0000 0.0000 31.5193 0.0000 0.0000
# 5 0.0000 0.0000 0.0000 0.0000 14.4547 0.0000
# 6 0.0000 0.0000 0.0000 0.0000 0.0000 10.3191
#
#
#
# Elastic Compliance Matrix: (Units=1/GPa)
#
#
# Indices 1 2 3 4 5 6 
#
# 1 0.008488 -0.001095 -0.003226 0.000000 0.000000 0.000000
# 2 -0.001095 0.031712 -0.008009 0.000000 0.000000 0.000000
# 3 -0.003226 -0.008009 0.013878 0.000000 0.000000 0.000000
# 4 0.000000 0.000000 0.000000 0.031727 0.000000 0.000000
# 5 0.000000 0.000000 0.000000 0.000000 0.069182 0.000000
# 6 0.000000 0.000000 0.000000 0.000000 0.000000 0.096908
#
#
# Mechanical properties :
#
#
# Convention : Reuss Voigt Hill
#
# Bulk Modulus (GPa) = 33.99165 47.76708 40.87937
# Shear Modulus (GPa) = 17.46049 23.87715 20.66882
#
# Velocity S-wave (km/s) = 2.94234 3.44077 3.20127
# Velocity P-wave (km/s) = 5.32889 6.28246 5.82522
#
# Compressibility (1/GPa) = 0.02941899
#
# Stress axis : x y z
#
# Youngs Moduli (GPa) = 117.80693 31.53344 72.05666
#
# Poissons Ratio (x) = 0.03454 0.23246
# Poissons Ratio (y) = 0.12903 0.57707
# Poissons Ratio (z) = 0.38005 0.25254
#
# Static dielectric constant tensor:
#      x y z
#    x 1.722620 0.000000 0.000000 
#    y 0.000000 1.740020 0.000000 
#    z 0.000000 0.000000 1.714840 
# 
# From -- ./inp_files/17227.got.cif
#   From: 2010.05.17/outbox.cif.g08.bks.cpg/sg68_9_cif.got.tgz:17227.got - 2010.06.03 18:57:09.
