data_PCOD9507561
_publ_section_title
;
Structure prediction by ZEFSAII (Michael W. Deem and Ramdas Pophale) SiO2 
 PCOD9507561
Probable space group: C C C A
;
_chemical_formula_sum "Si O2"
_cell_formula_units_Z 68
_cell_length_a 20.060034
_cell_length_b 4.836706
_cell_length_c 34.390009
_cell_angle_alpha 90.000000
_cell_angle_beta 90.000000
_cell_angle_gamma 90.000000
_cell_volume 3336.672975
_symmetry_space_group_name_H-M "C C C A"
_symmetry_group_IT_number 68
_space_group.IT_coordinate_system_code '2'
_symmetry_cell_setting 'orthorhombic'
loop_
_space_group_symop_operation_xyz
x,y,z
-x,1/2-y,z
x,1/2-y,1/2-z
-x,y,1/2-z
-x,-y,-z
x,1/2+y,-z
-x,1/2+y,1/2+z
x,-y,1/2+z
1/2+x,1/2+y,z
1/2-x,-y,z
1/2+x,-y,1/2-z
1/2-x,1/2+y,1/2-z
1/2-x,1/2-y,-z
1/2+x,y,-z
1/2-x,y,1/2+z
1/2+x,1/2-y,1/2+z
loop_
_atom_site_type_symbol
_atom_site_label
_atom_site_fract_x
_atom_site_fract_y
_atom_site_fract_z
Si Si1 0.321297 0.391103 0.606593
Si Si2 0.592039 0.908318 0.872821
Si Si3 0.129027 0.048098 0.474715
Si Si4 0.500000 0.750000 0.803552
Si Si5 0.500000 0.250000 0.568310
Si Si6 0.000000 0.750000 0.750000
O O1 0.250000 0.500000 0.619303
O O2 0.379138 0.614665 0.614548
O O3 0.322850 0.356919 0.559954
O O4 0.345361 0.113819 0.626979
O O5 0.555804 0.876341 0.831809
O O6 0.540150 0.038392 0.903803
O O7 0.138524 0.233352 0.512962
O O8 0.054671 0.104076 0.458780
O O9 0.529562 0.487545 0.779200
#
# Coordination Sequence:
#
# PCOD9507561 Si02
#       6
#    16  16  16   8   8   4
#     4  11  24  40  56  81 113 156 210 251 288 338
#     4  11  22  38  63  86 117 152 189 248 288 335
#     4  11  22  34  52  75 108 151 192 251 313 362
#     4  11  20  38  61  98 127 151 182 213 287 344
#     4  10  21  36  55  83 111 142 196 250 307 357
#     4  10  22  34  60  98 140 156 160 208 276 368
#
# _framework density 20.379583
#
# number of rings (size 3 to 8) (size 9 to 14) (size 15 to 20)
#    0.000    1.176    0.000    9.176    0.000    4.706 
#    0.000    0.000    0.000    0.000    0.000   46.118 
#    0.000    0.000    0.000    0.000    0.000    0.000 
#
# Total GULP energy -189901.872042 kJ/mol
# GULP energy per Si atom -5585.349178 kJ/mol
# Density = 2.033320 g / cm^3
# Si number density = 20.379583 Si / 1000 Ang^3
#
#
#
# Elastic Constant Matrix: (Units=GPa)
#
#
# Indices 1 2 3 4 5 6 
#
# 1 47.2331 -5.0458 11.6693 0.0000 0.0000 0.0000
# 2 -5.0458 85.0064 20.6434 0.0000 0.0000 0.0000
# 3 11.6693 20.6434 76.2130 0.0000 0.0000 0.0000
# 4 0.0000 0.0000 0.0000 48.1473 0.0000 0.0000
# 5 0.0000 0.0000 0.0000 0.0000 -1.0630 0.0000
# 6 0.0000 0.0000 0.0000 0.0000 0.0000 35.5066
#
#
#
# Elastic Compliance Matrix: (Units=1/GPa)
#
#
# Indices 1 2 3 4 5 6 
#
# 1 0.022422 0.002317 -0.004061 0.000000 0.000000 0.000000
# 2 0.002317 0.012832 -0.003830 0.000000 0.000000 0.000000
# 3 -0.004061 -0.003830 0.014780 0.000000 0.000000 0.000000
# 4 0.000000 0.000000 0.000000 0.020770 0.000000 0.000000
# 5 0.000000 0.000000 0.000000 0.000000 -0.940744 0.000000
# 6 0.000000 0.000000 0.000000 0.000000 0.000000 0.028164
#
#
# Mechanical properties :
#
#
# Convention : Reuss Voigt Hill
#
# Bulk Modulus (GPa) = 25.71610 29.22069 27.46840
# Shear Modulus (GPa) = -6.11496 28.59722 11.24113
#
# Velocity S-wave (km/s) = -1.73408 3.75003 2.35114
# Velocity P-wave (km/s) = 2.93880 5.75497 4.56926
#
# Compressibility (1/GPa) = 0.03888614
#
# Stress axis : x y z
#
# Youngs Moduli (GPa) = 44.59830 77.93295 67.65722
#
# Poissons Ratio (x) = -0.18058 0.27474
# Poissons Ratio (y) = -0.10334 0.25915
# Poissons Ratio (z) = 0.18110 0.29851
#
# Static dielectric constant tensor:
#      x y z
#    x 1.713130 0.000000 0.000000 
#    y 0.000000 1.631410 0.000000 
#    z 0.000000 0.000000 1.756730 
# 
# From -- ./inp_files/55744.got.cif
#   From: 2010.05.17/outbox.cif.g08.bks.cpg/sg68_28_cif.got.tgz:55744.got - 2010.06.03 18:57:09.
