data_PCOD9507613
_publ_section_title
;
Structure prediction by ZEFSAII (Michael W. Deem and Ramdas Pophale) SiO2 
 PCOD9507613
Probable space group: C C C A
;
_chemical_formula_sum "Si O2"
_cell_formula_units_Z 92
_cell_length_a 20.522894
_cell_length_b 11.329250
_cell_length_c 19.486743
_cell_angle_alpha 90.000000
_cell_angle_beta 90.000000
_cell_angle_gamma 90.000000
_cell_volume 4530.843067
_symmetry_space_group_name_H-M "C C C A"
_symmetry_group_IT_number 68
_space_group.IT_coordinate_system_code '2'
_symmetry_cell_setting 'orthorhombic'
loop_
_space_group_symop_operation_xyz
x,y,z
-x,1/2-y,z
x,1/2-y,1/2-z
-x,y,1/2-z
-x,-y,-z
x,1/2+y,-z
-x,1/2+y,1/2+z
x,-y,1/2+z
1/2+x,1/2+y,z
1/2-x,-y,z
1/2+x,-y,1/2-z
1/2-x,1/2+y,1/2-z
1/2-x,1/2-y,-z
1/2+x,y,-z
1/2-x,y,1/2+z
1/2+x,1/2-y,1/2+z
loop_
_atom_site_type_symbol
_atom_site_label
_atom_site_fract_x
_atom_site_fract_y
_atom_site_fract_z
Si Si1 0.000000 0.250000 0.915291
Si Si2 0.750000 0.000000 0.482241
Si Si3 0.917234 0.634342 0.200901
Si Si4 0.196620 0.750000 0.750000
Si Si5 0.372890 0.098287 0.430395
Si Si6 0.000000 0.750000 0.750000
Si Si7 0.593708 0.568348 0.305209
Si Si8 0.707597 0.683599 0.629362
O O1 0.035323 0.340624 0.862708
O O2 0.059890 0.173627 0.951036
O O3 0.818044 0.035745 0.520999
O O4 0.733914 0.112764 0.435177
O O5 0.915563 0.750000 0.250000
O O6 0.930073 0.528181 0.251136
O O7 0.847196 0.609127 0.168282
O O8 0.156275 0.636698 0.724348
O O9 0.238433 0.787293 0.684733
O O10 0.329934 0.197719 0.392298
O O11 0.394619 0.998043 0.376443
O O12 0.041285 0.670821 0.698238
#
# Coordination Sequence:
#
# PCOD9507613 Si02
#       8
#     8   8  16   8  16   4  16  16
#     4  10  21  36  66  99 129 175 242 282 338 407
#     4  12  26  42  66  94 140 180 224 286 338 420
#     4  11  19  36  66 101 127 169 223 294 344 405
#     4  11  22  37  62  99 130 171 210 302 354 419
#     4  11  23  41  64  93 131 189 229 276 333 430
#     4  10  24  36  58  98 134 178 212 306 364 398
#     4  11  21  36  60  93 139 168 227 281 364 406
#     4  11  22  41  64  97 129 170 232 277 353 409
#
# _framework density 20.305271999999999
#
# number of rings (size 3 to 8) (size 9 to 14) (size 15 to 20)
#    0.000    1.043    4.348    3.913    0.000    1.391 
#    0.000    3.478    0.000   13.565    0.000    0.000 
#    0.000    0.000    0.000    0.000    0.000    0.000 
#
# Total GULP energy -256380.392787 kJ/mol
# GULP energy per Si atom -5573.486800 kJ/mol
# Density = 2.025906 g / cm^3
# Si number density = 20.305272 Si / 1000 Ang^3
#
#
#
# Elastic Constant Matrix: (Units=GPa)
#
#
# Indices 1 2 3 4 5 6 
#
# 1 151.5691 65.7526 60.7876 0.0000 0.0000 0.0000
# 2 65.7526 106.7906 50.9018 0.0000 0.0000 0.0000
# 3 60.7876 50.9018 73.2090 0.0000 0.0000 0.0000
# 4 0.0000 0.0000 0.0000 21.2904 0.0000 0.0000
# 5 0.0000 0.0000 0.0000 0.0000 28.9731 0.0000
# 6 0.0000 0.0000 0.0000 0.0000 0.0000 -80.5241
#
#
#
# Elastic Compliance Matrix: (Units=1/GPa)
#
#
# Indices 1 2 3 4 5 6 
#
# 1 0.010710 -0.003523 -0.006443 0.000000 0.000000 0.000000
# 2 -0.003523 0.015165 -0.007619 0.000000 0.000000 0.000000
# 3 -0.006443 -0.007619 0.024307 0.000000 0.000000 0.000000
# 4 0.000000 0.000000 0.000000 0.046970 0.000000 0.000000
# 5 0.000000 0.000000 0.000000 0.000000 0.034515 0.000000
# 6 0.000000 0.000000 0.000000 0.000000 0.000000 -0.012419
#
#
# Mechanical properties :
#
#
# Convention : Reuss Voigt Hill
#
# Bulk Modulus (GPa) = 66.61542 76.27254 71.44398
# Shear Modulus (GPa) = 31.36339 4.22298 17.79318
#
# Velocity S-wave (km/s) = 3.93440 1.44370 2.96342
# Velocity P-wave (km/s) = 7.31556 6.35795 6.85350
#
# Compressibility (1/GPa) = 0.01501154
#
# Stress axis : x y z
#
# Youngs Moduli (GPa) = 93.36892 65.94214 41.14081
#
# Poissons Ratio (x) = 0.23233 0.26508
# Poissons Ratio (y) = 0.32896 0.31343
# Poissons Ratio (z) = 0.60161 0.50238
#
# Static dielectric constant tensor:
#      x y z
#    x 2.104020 0.000000 0.000000 
#    y 0.000000 1.747000 0.000000 
#    z 0.000000 0.000000 1.674930 
# 
# From -- ./inp_files/29718.got.cif
#   From: 2010.05.17/outbox.cif.g08.bks.cpg/sg68_15_cif.got.tgz:29718.got - 2010.06.03 18:57:09.
