data_PCOD9507331
_publ_section_title
;
Structure prediction by ZEFSAII (Michael W. Deem and Ramdas Pophale) SiO2 
 PCOD9507331
Probable space group: C C C A
;
_chemical_formula_sum "Si O2"
_cell_formula_units_Z 64
_cell_length_a 8.915415
_cell_length_b 21.161778
_cell_length_c 14.005952
_cell_angle_alpha 90.000000
_cell_angle_beta 90.000000
_cell_angle_gamma 90.000000
_cell_volume 2642.447402
_symmetry_space_group_name_H-M "C C C A"
_symmetry_group_IT_number 68
_space_group.IT_coordinate_system_code '2'
_symmetry_cell_setting 'orthorhombic'
loop_
_space_group_symop_operation_xyz
x,y,z
-x,1/2-y,z
x,1/2-y,1/2-z
-x,y,1/2-z
-x,-y,-z
x,1/2+y,-z
-x,1/2+y,1/2+z
x,-y,1/2+z
1/2+x,1/2+y,z
1/2-x,-y,z
1/2+x,-y,1/2-z
1/2-x,1/2+y,1/2-z
1/2-x,1/2-y,-z
1/2+x,y,-z
1/2-x,y,1/2+z
1/2+x,1/2-y,1/2+z
loop_
_atom_site_type_symbol
_atom_site_label
_atom_site_fract_x
_atom_site_fract_y
_atom_site_fract_z
Si Si1 0.343359 0.570869 0.387415
Si Si2 0.245424 0.750000 0.250000
Si Si3 0.500000 0.835369 0.250000
Si Si4 0.994566 0.605918 0.425753
Si Si5 0.500000 0.031732 0.250000
Si Si6 0.500000 0.750000 0.902728
O O1 0.419095 0.628168 0.332989
O O2 0.171459 0.589889 0.411422
O O3 0.424710 0.565584 0.488789
O O4 0.396367 0.514447 0.314723
O O5 0.362933 0.797733 0.296274
O O6 0.136549 0.770378 0.166135
O O7 0.922873 0.579571 0.326159
O O8 0.964676 0.680751 0.446973
#
# Coordination Sequence:
#
# PCOD9507331 Si02
#       6
#    16   8   8  16   8   8
#     4  11  27  46  74 111 147 199 252 314 372 447
#     4  10  20  40  70 102 148 200 246 294 366 446
#     4  10  22  43  68 103 146 198 250 300 366 438
#     4  12  27  47  75 114 153 198 254 306 385 448
#     4  11  26  50  78 102 148 201 256 312 366 433
#     4  11  24  42  74 113 154 198 246 311 376 457
#
# _framework density 24.219971000000001
#
# number of rings (size 3 to 8) (size 9 to 14) (size 15 to 20)
#    0.000    1.000    2.500    3.000    3.500    7.000 
#    0.000    0.000    0.000    0.000    0.000    0.000 
#    0.000    0.000    0.000    0.000    0.000    0.000 
#
# Total GULP energy -178264.109848 kJ/mol
# GULP energy per Si atom -5570.753433 kJ/mol
# Density = 2.416485 g / cm^3
# Si number density = 24.219971 Si / 1000 Ang^3
#
#
#
# Elastic Constant Matrix: (Units=GPa)
#
#
# Indices 1 2 3 4 5 6 
#
# 1 110.4832 37.9153 25.4639 0.0000 0.0000 0.0000
# 2 37.9153 126.5240 28.4411 0.0000 0.0000 0.0000
# 3 25.4639 28.4411 116.0173 0.0000 0.0000 0.0000
# 4 0.0000 0.0000 0.0000 24.1773 0.0000 0.0000
# 5 0.0000 0.0000 0.0000 0.0000 71.2465 0.0000
# 6 0.0000 0.0000 0.0000 0.0000 0.0000 71.9889
#
#
#
# Elastic Compliance Matrix: (Units=1/GPa)
#
#
# Indices 1 2 3 4 5 6 
#
# 1 0.010362 -0.002745 -0.001601 0.000000 0.000000 0.000000
# 2 -0.002745 0.009092 -0.001626 0.000000 0.000000 0.000000
# 3 -0.001601 -0.001626 0.009370 0.000000 0.000000 0.000000
# 4 0.000000 0.000000 0.000000 0.041361 0.000000 0.000000
# 5 0.000000 0.000000 0.000000 0.000000 0.014036 0.000000
# 6 0.000000 0.000000 0.000000 0.000000 0.000000 0.013891
#
#
# Mechanical properties :
#
#
# Convention : Reuss Voigt Hill
#
# Bulk Modulus (GPa) = 59.24912 59.62944 59.43928
# Shear Modulus (GPa) = 43.22133 50.89615 47.05874
#
# Velocity S-wave (km/s) = 4.22896 4.58909 4.41270
# Velocity P-wave (km/s) = 6.95424 7.26313 7.11036
#
# Compressibility (1/GPa) = 0.01687789
#
# Stress axis : x y z
#
# Youngs Moduli (GPa) = 96.50321 109.98815 106.72872
#
# Poissons Ratio (x) = 0.30195 0.17091
# Poissons Ratio (y) = 0.26493 0.17357
# Poissons Ratio (z) = 0.15454 0.17887
#
# Static dielectric constant tensor:
#      x y z
#    x 1.921300 0.000000 0.000000 
#    y 0.000000 2.161210 0.000000 
#    z 0.000000 0.000000 1.915790 
# 
# From -- ./inp_files/19320.got.cif
#   From: 2010.05.17/outbox.cif.g08.bks.cpg/sg68_10_cif.got.tgz:19320.got - 2010.06.03 18:57:09.
