data_PCOD9507310
_publ_section_title
;
Structure prediction by ZEFSAII (Michael W. Deem and Ramdas Pophale) SiO2 
 PCOD9507310
Probable space group: C C C A
;
_chemical_formula_sum "Si O2"
_cell_formula_units_Z 72
_cell_length_a 20.845705
_cell_length_b 17.557331
_cell_length_c 8.099107
_cell_angle_alpha 90.000000
_cell_angle_beta 90.000000
_cell_angle_gamma 90.000000
_cell_volume 2964.232202
_symmetry_space_group_name_H-M "C C C A"
_symmetry_group_IT_number 68
_space_group.IT_coordinate_system_code '2'
_symmetry_cell_setting 'orthorhombic'
loop_
_space_group_symop_operation_xyz
x,y,z
-x,1/2-y,z
x,1/2-y,1/2-z
-x,y,1/2-z
-x,-y,-z
x,1/2+y,-z
-x,1/2+y,1/2+z
x,-y,1/2+z
1/2+x,1/2+y,z
1/2-x,-y,z
1/2+x,-y,1/2-z
1/2-x,1/2+y,1/2-z
1/2-x,1/2-y,-z
1/2+x,y,-z
1/2-x,y,1/2+z
1/2+x,1/2-y,1/2+z
loop_
_atom_site_type_symbol
_atom_site_label
_atom_site_fract_x
_atom_site_fract_y
_atom_site_fract_z
Si Si1 0.414873 0.250000 0.750000
Si Si2 0.215626 0.336446 0.696679
Si Si3 0.427592 0.511812 0.199905
Si Si4 0.899655 0.122089 0.476873
Si Si5 0.656568 0.376723 0.957559
O O1 0.442134 0.186196 0.619812
O O2 0.374496 0.197203 0.873279
O O3 0.233139 0.250000 0.750000
O O4 0.165443 0.339743 0.544824
O O5 0.276911 0.385549 0.643429
O O6 0.179783 0.367915 0.856310
O O7 0.500000 0.528016 0.250000
O O8 0.386931 0.556661 0.340212
O O9 0.426202 0.425443 0.132987
O O10 0.399797 0.561512 0.048818
#
# Coordination Sequence:
#
# PCOD9507310 Si02
#       5
#     8  16  16  16  16
#     4  10  20  40  67 102 140 186 243 306 364 458
#     4  12  22  40  74 105 153 187 243 325 390 454
#     4  11  25  47  73 101 149 204 251 307 371 447
#     4  11  24  43  73 105 143 198 253 308 386 448
#     4  11  22  40  70 108 145 197 250 302 393 452
#
# _framework density 24.289596
#
# number of rings (size 3 to 8) (size 9 to 14) (size 15 to 20)
#    0.000    0.889    3.333    5.333    0.000    0.889 
#    0.000   15.556    9.778    0.000    0.000    0.000 
#    0.000    0.000    0.000    0.000    0.000    0.000 
#
# Total GULP energy -200528.898952 kJ/mol
# GULP energy per Si atom -5570.247193 kJ/mol
# Density = 2.423431 g / cm^3
# Si number density = 24.289596 Si / 1000 Ang^3
#
#
#
# Elastic Constant Matrix: (Units=GPa)
#
#
# Indices 1 2 3 4 5 6 
#
# 1 99.6180 49.0212 23.7561 0.0000 0.0000 0.0000
# 2 49.0212 134.2785 46.7314 0.0000 0.0000 0.0000
# 3 23.7561 46.7314 109.2016 0.0000 0.0000 0.0000
# 4 0.0000 0.0000 0.0000 71.1281 0.0000 0.0000
# 5 0.0000 0.0000 0.0000 0.0000 18.7258 0.0000
# 6 0.0000 0.0000 0.0000 0.0000 0.0000 16.6430
#
#
#
# Elastic Compliance Matrix: (Units=1/GPa)
#
#
# Indices 1 2 3 4 5 6 
#
# 1 0.012309 -0.004185 -0.000887 0.000000 0.000000 0.000000
# 2 -0.004185 0.010173 -0.003443 0.000000 0.000000 0.000000
# 3 -0.000887 -0.003443 0.010824 0.000000 0.000000 0.000000
# 4 0.000000 0.000000 0.000000 0.014059 0.000000 0.000000
# 5 0.000000 0.000000 0.000000 0.000000 0.053402 0.000000
# 6 0.000000 0.000000 0.000000 0.000000 0.000000 0.060085
#
#
# Mechanical properties :
#
#
# Convention : Reuss Voigt Hill
#
# Bulk Modulus (GPa) = 61.43929 64.67953 63.05941
# Shear Modulus (GPa) = 27.27643 36.20535 31.74089
#
# Velocity S-wave (km/s) = 3.35471 3.86498 3.61885
# Velocity P-wave (km/s) = 6.35254 6.82669 6.59388
#
# Compressibility (1/GPa) = 0.01627623
#
# Stress axis : x y z
#
# Youngs Moduli (GPa) = 81.23934 98.29609 92.38956
#
# Poissons Ratio (x) = 0.41138 0.08193
# Poissons Ratio (y) = 0.34000 0.31811
# Poissons Ratio (z) = 0.07205 0.33844
#
# Static dielectric constant tensor:
#      x y z
#    x 1.929350 0.000000 0.000000 
#    y 0.000000 1.987760 0.000000 
#    z 0.000000 0.000000 2.117330 
# 
# From -- ./inp_files/6962.got.cif
#   From: 2010.05.17/outbox.cif.g08.bks.cpg/sg68_4_cif.got.tgz:6962.got - 2010.06.03 18:57:09.
