data_PCOD9507905
_publ_section_title
;
Structure prediction by ZEFSAII (Michael W. Deem and Ramdas Pophale) SiO2 
 PCOD9507905
Probable space group: C C C A
;
_chemical_formula_sum "Si O2"
_cell_formula_units_Z 64
_cell_length_a 15.450900
_cell_length_b 14.177055
_cell_length_c 12.220846
_cell_angle_alpha 90.000000
_cell_angle_beta 90.000000
_cell_angle_gamma 90.000000
_cell_volume 2676.955041
_symmetry_space_group_name_H-M "C C C A"
_symmetry_group_IT_number 68
_space_group.IT_coordinate_system_code '2'
_symmetry_cell_setting 'orthorhombic'
loop_
_space_group_symop_operation_xyz
x,y,z
-x,1/2-y,z
x,1/2-y,1/2-z
-x,y,1/2-z
-x,-y,-z
x,1/2+y,-z
-x,1/2+y,1/2+z
x,-y,1/2+z
1/2+x,1/2+y,z
1/2-x,-y,z
1/2+x,-y,1/2-z
1/2-x,1/2+y,1/2-z
1/2-x,1/2-y,-z
1/2+x,y,-z
1/2-x,y,1/2+z
1/2+x,1/2-y,1/2+z
loop_
_atom_site_type_symbol
_atom_site_label
_atom_site_fract_x
_atom_site_fract_y
_atom_site_fract_z
Si Si1 0.397790 0.845641 0.317428
Si Si2 0.700619 0.320605 0.354739
Si Si3 0.075914 0.186428 0.549662
Si Si4 0.648956 0.474499 0.204193
O O1 0.406863 0.750000 0.250000
O O2 0.299649 0.849902 0.364996
O O3 0.452085 0.844081 0.428393
O O4 0.401885 0.931056 0.232581
O O5 0.697379 0.250000 0.250000
O O6 0.654773 0.262496 0.449586
O O7 0.651471 0.414095 0.316598
O O8 0.105772 0.094505 0.616051
O O9 0.000000 0.250000 0.602386
O O10 0.750000 0.500000 0.175555
#
# Coordination Sequence:
#
# PCOD9507905 Si02
#       4
#    16  16  16  16
#     4  10  21  39  62  89 125 170 222 271 316 387
#     4   8  17  36  62  90 122 166 220 269 316 381
#     4  11  23  39  63  97 132 171 213 270 341 392
#     4   9  20  39  65  94 123 167 222 269 316 385
#
# _framework density 23.907761000000001
#
# number of rings (size 3 to 8) (size 9 to 14) (size 15 to 20)
#    0.000    2.500    0.000    2.250    0.000   10.000 
#    0.000    7.500    0.000    0.000    0.000    0.000 
#    0.000    0.000    0.000    0.000    0.000    0.000 
#
# Total GULP energy -178746.799852 kJ/mol
# GULP energy per Si atom -5585.837495 kJ/mol
# Density = 2.385335 g / cm^3
# Si number density = 23.907761 Si / 1000 Ang^3
#
#
#
# Elastic Constant Matrix: (Units=GPa)
#
#
# Indices 1 2 3 4 5 6 
#
# 1 89.8881 38.0631 21.5547 0.0000 0.0000 0.0000
# 2 38.0631 195.3528 65.4114 0.0000 0.0000 0.0000
# 3 21.5547 65.4114 100.9578 0.0000 0.0000 0.0000
# 4 0.0000 0.0000 0.0000 22.3966 0.0000 0.0000
# 5 0.0000 0.0000 0.0000 0.0000 20.3284 0.0000
# 6 0.0000 0.0000 0.0000 0.0000 0.0000 29.4127
#
#
#
# Elastic Compliance Matrix: (Units=1/GPa)
#
#
# Indices 1 2 3 4 5 6 
#
# 1 0.012271 -0.001933 -0.001367 0.000000 0.000000 0.000000
# 2 -0.001933 0.006842 -0.004020 0.000000 0.000000 0.000000
# 3 -0.001367 -0.004020 0.012802 0.000000 0.000000 0.000000
# 4 0.000000 0.000000 0.000000 0.044650 0.000000 0.000000
# 5 0.000000 0.000000 0.000000 0.000000 0.049192 0.000000
# 6 0.000000 0.000000 0.000000 0.000000 0.000000 0.033999
#
#
# Mechanical properties :
#
#
# Convention : Reuss Voigt Hill
#
# Bulk Modulus (GPa) = 57.89215 70.69522 64.29368
# Shear Modulus (GPa) = 27.75392 31.83884 29.79638
#
# Velocity S-wave (km/s) = 3.41086 3.65326 3.53414
# Velocity P-wave (km/s) = 6.30708 6.88689 6.60335
#
# Compressibility (1/GPa) = 0.01727350
#
# Stress axis : x y z
#
# Youngs Moduli (GPa) = 81.49008 146.16341 78.11455
#
# Poissons Ratio (x) = 0.28255 0.10682
# Poissons Ratio (y) = 0.15753 0.31402
# Poissons Ratio (z) = 0.11144 0.58758
#
# Static dielectric constant tensor:
#      x y z
#    x 2.028700 0.000000 0.000000 
#    y 0.000000 1.880600 0.000000 
#    z 0.000000 0.000000 1.878400 
# 
# From -- ./inp_files/14000.got.cif
#   From: 2010.05.17/outbox.cif.g08.bks.cpg/sg68_7_cif.got.tgz:14000.got - 2010.06.03 18:57:09.
