data_PCOD9507861
_publ_section_title
;
Structure prediction by ZEFSAII (Michael W. Deem and Ramdas Pophale) SiO2 
 PCOD9507861
Probable space group: C C C A
;
_chemical_formula_sum "Si O2"
_cell_formula_units_Z 104
_cell_length_a 8.436269
_cell_length_b 21.131088
_cell_length_c 29.464991
_cell_angle_alpha 90.000000
_cell_angle_beta 90.000000
_cell_angle_gamma 90.000000
_cell_volume 5252.651539
_symmetry_space_group_name_H-M "C C C A"
_symmetry_group_IT_number 68
_space_group.IT_coordinate_system_code '2'
_symmetry_cell_setting 'orthorhombic'
loop_
_space_group_symop_operation_xyz
x,y,z
-x,1/2-y,z
x,1/2-y,1/2-z
-x,y,1/2-z
-x,-y,-z
x,1/2+y,-z
-x,1/2+y,1/2+z
x,-y,1/2+z
1/2+x,1/2+y,z
1/2-x,-y,z
1/2+x,-y,1/2-z
1/2-x,1/2+y,1/2-z
1/2-x,1/2-y,-z
1/2+x,y,-z
1/2-x,y,1/2+z
1/2+x,1/2-y,1/2+z
loop_
_atom_site_type_symbol
_atom_site_label
_atom_site_fract_x
_atom_site_fract_y
_atom_site_fract_z
Si Si1 0.745704 0.430953 0.067643
Si Si2 0.949765 0.884856 0.012456
Si Si3 0.188032 0.796916 0.961586
Si Si4 0.624575 0.057694 0.709233
Si Si5 0.809081 0.673491 0.244920
Si Si6 0.626930 0.872256 0.343538
Si Si7 0.000000 0.750000 0.881122
O O1 0.750000 0.500000 0.088121
O O2 0.579452 0.415426 0.044414
O O3 0.790139 0.385019 0.108437
O O4 0.868321 0.428067 0.025518
O O5 0.816359 0.852050 0.042841
O O6 0.034555 0.830571 0.982622
O O7 0.145925 0.763133 0.915143
O O8 0.250000 0.750000 0.000000
O O9 0.500000 0.042920 0.750000
O O10 0.718991 0.123399 0.721490
O O11 0.499860 0.073126 0.668985
O O12 0.750000 0.000000 0.703171
O O13 0.770688 0.750000 0.250000
O O14 0.749663 0.645527 0.196376
O O15 0.000000 0.668219 0.250000
O O16 0.524327 0.809981 0.350580
#
# Coordination Sequence:
#
# PCOD9507861 Si02
#       7
#    16  16  16  16  16  16   8
#     4  11  23  42  60  88 126 175 221 271 319 380
#     4  10  21  39  58  86 121 168 223 259 323 380
#     4  11  18  34  61  86 120 162 210 263 314 385
#     4  10  22  42  70  95 127 170 211 262 335 401
#     4  10  22  44  68  97 132 168 212 264 335 411
#     4  11  24  41  63  97 129 163 215 270 321 392
#     4  12  20  38  61  90 132 158 210 266 331 374
#
# _framework density 19.799524000000002
#
# number of rings (size 3 to 8) (size 9 to 14) (size 15 to 20)
#    0.000    1.385    3.077    2.769    0.000    5.846 
#   11.077    0.769    0.000    0.000    0.000    0.000 
#    0.000    0.000    0.000    0.000    0.000    0.000 
#
# Total GULP energy -289915.664136 kJ/mol
# GULP energy per Si atom -5575.301233 kJ/mol
# Density = 1.975446 g / cm^3
# Si number density = 19.799524 Si / 1000 Ang^3
#
#
#
# Elastic Constant Matrix: (Units=GPa)
#
#
# Indices 1 2 3 4 5 6 
#
# 1 114.0269 37.8615 44.6210 0.0000 0.0000 0.0000
# 2 37.8615 91.8893 17.1200 0.0000 0.0000 0.0000
# 3 44.6210 17.1200 71.3911 0.0000 0.0000 0.0000
# 4 0.0000 0.0000 0.0000 17.5778 0.0000 0.0000
# 5 0.0000 0.0000 0.0000 0.0000 19.8895 0.0000
# 6 0.0000 0.0000 0.0000 0.0000 0.0000 25.2093
#
#
#
# Elastic Compliance Matrix: (Units=1/GPa)
#
#
# Indices 1 2 3 4 5 6 
#
# 1 0.012864 -0.003980 -0.007086 0.000000 0.000000 0.000000
# 2 -0.003980 0.012623 -0.000539 0.000000 0.000000 0.000000
# 3 -0.007086 -0.000539 0.018566 0.000000 0.000000 0.000000
# 4 0.000000 0.000000 0.000000 0.056890 0.000000 0.000000
# 5 0.000000 0.000000 0.000000 0.000000 0.050278 0.000000
# 6 0.000000 0.000000 0.000000 0.000000 0.000000 0.039668
#
#
# Mechanical properties :
#
#
# Convention : Reuss Voigt Hill
#
# Bulk Modulus (GPa) = 47.98049 52.94581 50.46315
# Shear Modulus (GPa) = 22.61957 24.38230 23.50094
#
# Velocity S-wave (km/s) = 3.38365 3.51302 3.44894
# Velocity P-wave (km/s) = 6.28898 6.57678 6.43449
#
# Compressibility (1/GPa) = 0.02084181
#
# Stress axis : x y z
#
# Youngs Moduli (GPa) = 77.73400 79.21939 53.86312
#
# Poissons Ratio (x) = 0.31532 0.38167
# Poissons Ratio (y) = 0.30941 0.02905
# Poissons Ratio (z) = 0.55082 0.04272
#
# Static dielectric constant tensor:
#      x y z
#    x 1.709130 0.000000 0.000000 
#    y 0.000000 1.616030 0.000000 
#    z 0.000000 0.000000 1.466670 
# 
# From -- ./inp_files/54127.got.cif
#   From: 2010.05.17/outbox.cif.g08.bks.cpg/sg68_28_cif.got.tgz:54127.got - 2010.06.03 18:57:09.
