data_PCOD9507997
_publ_section_title
;
Structure prediction by ZEFSAII (Michael W. Deem and Ramdas Pophale) SiO2 
 PCOD9507997
Probable space group: C C C A
;
_chemical_formula_sum "Si O2"
_cell_formula_units_Z 60
_cell_length_a 20.849997
_cell_length_b 27.463972
_cell_length_c 5.139622
_cell_angle_alpha 90.000000
_cell_angle_beta 90.000000
_cell_angle_gamma 90.000000
_cell_volume 2943.069540
_symmetry_space_group_name_H-M "C C C A"
_symmetry_group_IT_number 68
_space_group.IT_coordinate_system_code '2'
_symmetry_cell_setting 'orthorhombic'
loop_
_space_group_symop_operation_xyz
x,y,z
-x,1/2-y,z
x,1/2-y,1/2-z
-x,y,1/2-z
-x,-y,-z
x,1/2+y,-z
-x,1/2+y,1/2+z
x,-y,1/2+z
1/2+x,1/2+y,z
1/2-x,-y,z
1/2+x,-y,1/2-z
1/2-x,1/2+y,1/2-z
1/2-x,1/2-y,-z
1/2+x,y,-z
1/2-x,y,1/2+z
1/2+x,1/2-y,1/2+z
loop_
_atom_site_type_symbol
_atom_site_label
_atom_site_fract_x
_atom_site_fract_y
_atom_site_fract_z
Si Si1 0.875977 0.281127 0.991607
Si Si2 0.500000 0.965310 0.250000
Si Si3 0.858480 0.534482 0.712617
Si Si4 0.288577 0.133562 0.660207
Si Si5 0.000000 0.250000 0.750000
O O1 0.867486 0.250000 0.250000
O O2 0.844951 0.332694 0.049854
O O3 0.846905 0.250000 0.750000
O O4 0.951396 0.282367 0.919315
O O5 0.569921 0.941123 0.270132
O O6 0.500000 0.000000 0.500000
O O7 0.852172 0.495284 0.480747
O O8 0.808809 0.577273 0.659354
O O9 0.231107 0.143779 0.457369
#
# Coordination Sequence:
#
# PCOD9507997 Si02
#       5
#    16   8  16  16   4
#     4  10  22  43  67  92 126 159 205 266 314 380
#     4   8  16  34  57  82 111 150 205 251 308 356
#     4  10  21  40  62  88 125 167 210 262 309 358
#     4  12  26  41  61  96 128 170 220 247 310 382
#     4   8  22  44  68  96 122 156 210 248 346 372
#
# _framework density 20.386877999999999
#
# number of rings (size 3 to 8) (size 9 to 14) (size 15 to 20)
#    0.800    1.067    0.000    3.600    0.000    6.400 
#    4.800    5.333    0.000    0.000    0.000    0.000 
#    0.000    0.000    0.000    0.000    0.000    0.000 
#
# Total GULP energy -167157.926161 kJ/mol
# GULP energy per Si atom -5571.930872 kJ/mol
# Density = 2.034048 g / cm^3
# Si number density = 20.386878 Si / 1000 Ang^3
#
#
#
# Elastic Constant Matrix: (Units=GPa)
#
#
# Indices 1 2 3 4 5 6 
#
# 1 53.1166 26.9567 10.3113 0.0000 0.0000 0.0000
# 2 26.9567 66.0209 17.6811 0.0000 0.0000 0.0000
# 3 10.3113 17.6811 134.8737 0.0000 0.0000 0.0000
# 4 0.0000 0.0000 0.0000 24.6762 0.0000 0.0000
# 5 0.0000 0.0000 0.0000 0.0000 15.4970 0.0000
# 6 0.0000 0.0000 0.0000 0.0000 0.0000 25.8475
#
#
#
# Elastic Compliance Matrix: (Units=1/GPa)
#
#
# Indices 1 2 3 4 5 6 
#
# 1 0.023789 -0.009562 -0.000565 0.000000 0.000000 0.000000
# 2 -0.009562 0.019541 -0.001831 0.000000 0.000000 0.000000
# 3 -0.000565 -0.001831 0.007698 0.000000 0.000000 0.000000
# 4 0.000000 0.000000 0.000000 0.040525 0.000000 0.000000
# 5 0.000000 0.000000 0.000000 0.000000 0.064529 0.000000
# 6 0.000000 0.000000 0.000000 0.000000 0.000000 0.038688
#
#
# Mechanical properties :
#
#
# Convention : Reuss Voigt Hill
#
# Bulk Modulus (GPa) = 36.88382 40.43440 38.65911
# Shear Modulus (GPa) = 21.95659 26.47496 24.21578
#
# Velocity S-wave (km/s) = 3.28532 3.60756 3.45020
# Velocity P-wave (km/s) = 5.70284 6.10158 5.90557
#
# Compressibility (1/GPa) = 0.02711216
#
# Stress axis : x y z
#
# Youngs Moduli (GPa) = 42.03657 51.17416 129.91151
#
# Poissons Ratio (x) = 0.48931 0.07343
# Poissons Ratio (y) = 0.40194 0.23783
# Poissons Ratio (z) = 0.02376 0.09369
#
# Static dielectric constant tensor:
#      x y z
#    x 1.822930 0.000000 0.000000 
#    y 0.000000 1.683400 0.000000 
#    z 0.000000 0.000000 1.705220 
# 
# From -- ./inp_files/1400.got.cif
#   From: 2010.05.17/outbox.cif.g08.bks.cpg/sg68_1_cif.got.tgz:1400.got - 2010.06.03 18:57:09.
