data_PCOD9507511
_publ_section_title
;
Structure prediction by ZEFSAII (Michael W. Deem and Ramdas Pophale) SiO2 
 PCOD9507511
Probable space group: C C C A
;
_chemical_formula_sum "Si O2"
_cell_formula_units_Z 116
_cell_length_a 27.791189
_cell_length_b 22.003521
_cell_length_c 9.513591
_cell_angle_alpha 90.000000
_cell_angle_beta 90.000000
_cell_angle_gamma 90.000000
_cell_volume 5817.599053
_symmetry_space_group_name_H-M "C C C A"
_symmetry_group_IT_number 68
_space_group.IT_coordinate_system_code '2'
_symmetry_cell_setting 'orthorhombic'
loop_
_space_group_symop_operation_xyz
x,y,z
-x,1/2-y,z
x,1/2-y,1/2-z
-x,y,1/2-z
-x,-y,-z
x,1/2+y,-z
-x,1/2+y,1/2+z
x,-y,1/2+z
1/2+x,1/2+y,z
1/2-x,-y,z
1/2+x,-y,1/2-z
1/2-x,1/2+y,1/2-z
1/2-x,1/2-y,-z
1/2+x,y,-z
1/2-x,y,1/2+z
1/2+x,1/2-y,1/2+z
loop_
_atom_site_type_symbol
_atom_site_label
_atom_site_fract_x
_atom_site_fract_y
_atom_site_fract_z
Si Si1 0.195135 0.886639 0.417156
Si Si2 0.424953 0.016853 0.651514
Si Si3 0.777441 0.934696 0.772990
Si Si4 0.961943 0.350893 0.059296
Si Si5 0.889757 0.817437 0.191073
Si Si6 0.500000 0.750000 0.250000
Si Si7 0.460524 0.111450 0.132572
Si Si8 0.861880 0.992657 0.599555
O O1 0.208247 0.901958 0.580241
O O2 0.241317 0.894197 0.318896
O O3 0.163190 0.829269 0.372935
O O4 0.159515 0.941228 0.373886
O O5 0.443082 0.083218 0.609510
O O6 0.410503 0.016827 0.814004
O O7 0.460183 0.961204 0.623495
O O8 0.377203 0.996306 0.563096
O O9 0.822369 0.948340 0.668146
O O10 0.750000 0.000000 0.803155
O O11 0.965703 0.295717 0.165443
O O12 0.926178 0.330605 0.936223
O O13 0.016781 0.360489 0.006299
O O14 0.894379 0.750000 0.250000
O O15 0.909679 0.862088 0.315161
O O16 0.500000 0.127962 0.250000
#
# Coordination Sequence:
#
# PCOD9507511 Si02
#       8
#    16  16  16  16  16   4  16  16
#     4  11  21  39  58  95 123 164 208 254 311 379
#     4  12  22  37  65  96 134 161 209 267 327 376
#     4  10  21  34  62  91 132 161 197 253 320 383
#     4  11  24  42  59  90 129 165 217 264 316 379
#     4  11  22  43  68  85 119 170 222 262 302 383
#     4  12  28  40  58  88 128 180 210 258 320 380
#     4  10  22  39  64  95 120 166 215 265 323 377
#     4  11  20  36  59  96 128 162 198 256 319 382
#
# _framework density 19.939498
#
# number of rings (size 3 to 8) (size 9 to 14) (size 15 to 20)
#    0.000    1.103    4.138    3.310    4.828    1.931 
#    0.000    0.690    3.034    0.000    0.000    0.000 
#    0.000    0.000    0.000    0.000    0.000    0.000 
#
# Total GULP energy -323392.755176 kJ/mol
# GULP energy per Si atom -5575.737158 kJ/mol
# Density = 1.989411 g / cm^3
# Si number density = 19.939498 Si / 1000 Ang^3
#
#
#
# Elastic Constant Matrix: (Units=GPa)
#
#
# Indices 1 2 3 4 5 6 
#
# 1 51.9380 11.7806 25.2543 0.0000 0.0000 0.0000
# 2 11.7806 97.3254 38.9742 0.0000 0.0000 0.0000
# 3 25.2543 38.9742 59.8010 0.0000 0.0000 0.0000
# 4 0.0000 0.0000 0.0000 21.8079 0.0000 0.0000
# 5 0.0000 0.0000 0.0000 0.0000 0.3722 0.0000
# 6 0.0000 0.0000 0.0000 0.0000 0.0000 5.6999
#
#
#
# Elastic Compliance Matrix: (Units=1/GPa)
#
#
# Indices 1 2 3 4 5 6 
#
# 1 0.024409 0.001588 -0.011343 0.000000 0.000000 0.000000
# 2 0.001588 0.014007 -0.009799 0.000000 0.000000 0.000000
# 3 -0.011343 -0.009799 0.027899 0.000000 0.000000 0.000000
# 4 0.000000 0.000000 0.000000 0.045855 0.000000 0.000000
# 5 0.000000 0.000000 0.000000 0.000000 2.687006 0.000000
# 6 0.000000 0.000000 0.000000 0.000000 0.000000 0.175442
#
#
# Mechanical properties :
#
#
# Convention : Reuss Voigt Hill
#
# Bulk Modulus (GPa) = 36.75675 40.12027 38.43851
# Shear Modulus (GPa) = 1.65410 14.44634 8.05022
#
# Velocity S-wave (km/s) = 0.91179 2.69459 2.01149
# Velocity P-wave (km/s) = 4.42523 5.46313 4.97134
#
# Compressibility (1/GPa) = 0.02720589
#
# Stress axis : x y z
#
# Youngs Moduli (GPa) = 40.96868 71.39438 35.84402
#
# Poissons Ratio (x) = -0.11335 0.40657
# Poissons Ratio (y) = -0.06505 0.35124
# Poissons Ratio (z) = 0.46470 0.69960
#
# Static dielectric constant tensor:
#      x y z
#    x 1.771610 0.000000 0.000000 
#    y 0.000000 1.683060 0.000000 
#    z 0.000000 0.000000 1.749930 
# 
# From -- ./inp_files/8341.got.cif
#   From: 2010.05.17/outbox.cif.g08.bks.cpg/sg68_5_cif.got.tgz:8341.got - 2010.06.03 18:57:09.
