data_PCOD9507048
_publ_section_title
;
Structure prediction by ZEFSAII (Michael W. Deem and Ramdas Pophale) SiO2 
 PCOD9507048
Probable space group: C C C A
;
_chemical_formula_sum "Si O2"
_cell_formula_units_Z 112
_cell_length_a 15.414492
_cell_length_b 12.264343
_cell_length_c 27.217389
_cell_angle_alpha 90.000000
_cell_angle_beta 90.000000
_cell_angle_gamma 90.000000
_cell_volume 5145.409750
_symmetry_space_group_name_H-M "C C C A"
_symmetry_group_IT_number 68
_space_group.IT_coordinate_system_code '2'
_symmetry_cell_setting 'orthorhombic'
loop_
_space_group_symop_operation_xyz
x,y,z
-x,1/2-y,z
x,1/2-y,1/2-z
-x,y,1/2-z
-x,-y,-z
x,1/2+y,-z
-x,1/2+y,1/2+z
x,-y,1/2+z
1/2+x,1/2+y,z
1/2-x,-y,z
1/2+x,-y,1/2-z
1/2-x,1/2+y,1/2-z
1/2-x,1/2-y,-z
1/2+x,y,-z
1/2-x,y,1/2+z
1/2+x,1/2-y,1/2+z
loop_
_atom_site_type_symbol
_atom_site_label
_atom_site_fract_x
_atom_site_fract_y
_atom_site_fract_z
Si Si1 0.099454 0.283857 0.906699
Si Si2 0.680668 0.186707 0.698540
Si Si3 0.377281 0.202068 0.303498
Si Si4 0.049607 0.488942 0.164928
Si Si5 0.654335 0.050508 0.068164
Si Si6 0.146080 0.991540 0.542186
Si Si7 0.580697 0.167925 0.876682
O O1 0.117860 0.286540 0.848441
O O2 0.155357 0.181819 0.926936
O O3 0.113772 0.397382 0.933155
O O4 0.000000 0.250000 0.913632
O O5 0.673083 0.250000 0.750000
O O6 0.780314 0.151342 0.692636
O O7 0.613081 0.088269 0.695985
O O8 0.652416 0.266216 0.653933
O O9 0.386450 0.250000 0.250000
O O10 0.447590 0.108416 0.312526
O O11 0.092868 0.504544 0.111022
O O12 0.959400 0.427854 0.157390
O O13 0.750000 0.000000 0.074281
O O14 0.619313 0.019741 0.014490
O O15 0.250000 0.000000 0.542551
O O16 0.115827 0.888834 0.574501
O O17 0.500000 0.250000 0.886193
#
# Coordination Sequence:
#
# PCOD9507048 Si02
#       7
#    16  16  16  16  16  16  16
#     4  11  24  41  61  91 127 157 197 253 304 355
#     4  10  21  38  63  91 119 156 203 251 296 352
#     4  10  21  39  63  87 118 163 204 241 295 362
#     4  10  20  38  62  87 121 159 198 243 298 363
#     4  10  23  41  64  88 119 165 206 241 296 368
#     4  11  24  41  64  92 122 157 201 256 302 346
#     4  10  23  40  62  92 123 157 198 249 306 359
#
# _framework density 21.766974000000001
#
# number of rings (size 3 to 8) (size 9 to 14) (size 15 to 20)
#    0.000    1.714    0.000    4.714    0.000   12.571 
#    0.000    4.286    0.000    0.000    0.000    0.000 
#    0.000    0.000    0.000    0.000    0.000    0.000 
#
# Total GULP energy -313405.358944 kJ/mol
# GULP energy per Si atom -5596.524267 kJ/mol
# Density = 2.171743 g / cm^3
# Si number density = 21.766974 Si / 1000 Ang^3
#
#
#
# Elastic Constant Matrix: (Units=GPa)
#
#
# Indices 1 2 3 4 5 6 
#
# 1 52.9661 3.0365 4.1009 0.0000 0.0000 0.0000
# 2 3.0365 75.8250 49.5295 0.0000 0.0000 0.0000
# 3 4.1009 49.5295 114.8384 0.0000 0.0000 0.0000
# 4 0.0000 0.0000 0.0000 19.2464 0.0000 0.0000
# 5 0.0000 0.0000 0.0000 0.0000 12.0559 0.0000
# 6 0.0000 0.0000 0.0000 0.0000 0.0000 27.2321
#
#
#
# Elastic Compliance Matrix: (Units=1/GPa)
#
#
# Indices 1 2 3 4 5 6 
#
# 1 0.018943 -0.000441 -0.000486 0.000000 0.000000 0.000000
# 2 -0.000441 0.018371 -0.007908 0.000000 0.000000 0.000000
# 3 -0.000486 -0.007908 0.012136 0.000000 0.000000 0.000000
# 4 0.000000 0.000000 0.000000 0.051958 0.000000 0.000000
# 5 0.000000 0.000000 0.000000 0.000000 0.082947 0.000000
# 6 0.000000 0.000000 0.000000 0.000000 0.000000 0.036721
#
#
# Mechanical properties :
#
#
# Convention : Reuss Voigt Hill
#
# Bulk Modulus (GPa) = 31.46620 39.66259 35.56439
# Shear Modulus (GPa) = 20.05299 24.17107 22.11203
#
# Velocity S-wave (km/s) = 3.03852 3.33595 3.19070
# Velocity P-wave (km/s) = 5.17662 5.75318 5.47250
#
# Compressibility (1/GPa) = 0.03178014
#
# Stress axis : x y z
#
# Youngs Moduli (GPa) = 52.79017 54.43263 82.40051
#
# Poissons Ratio (x) = 0.02400 0.04007
# Poissons Ratio (y) = 0.02328 0.65160
# Poissons Ratio (z) = 0.02567 0.43044
#
# Static dielectric constant tensor:
#      x y z
#    x 1.811510 0.000000 0.000000 
#    y 0.000000 1.806980 0.000000 
#    z 0.000000 0.000000 1.766590 
# 
# From -- ./inp_files/55257.got.cif
#   From: 2010.05.17/outbox.cif.g08.bks.cpg/sg68_28_cif.got.tgz:55257.got - 2010.06.03 18:57:09.
