data_PCOD9507961
_publ_section_title
;
Structure prediction by ZEFSAII (Michael W. Deem and Ramdas Pophale) SiO2 
 PCOD9507961
Probable space group: C C C A
;
_chemical_formula_sum "Si O2"
_cell_formula_units_Z 72
_cell_length_a 14.830804
_cell_length_b 9.681095
_cell_length_c 23.052292
_cell_angle_alpha 90.000000
_cell_angle_beta 90.000000
_cell_angle_gamma 90.000000
_cell_volume 3309.811719
_symmetry_space_group_name_H-M "C C C A"
_symmetry_group_IT_number 68
_space_group.IT_coordinate_system_code '2'
_symmetry_cell_setting 'orthorhombic'
loop_
_space_group_symop_operation_xyz
x,y,z
-x,1/2-y,z
x,1/2-y,1/2-z
-x,y,1/2-z
-x,-y,-z
x,1/2+y,-z
-x,1/2+y,1/2+z
x,-y,1/2+z
1/2+x,1/2+y,z
1/2-x,-y,z
1/2+x,-y,1/2-z
1/2-x,1/2+y,1/2-z
1/2-x,1/2-y,-z
1/2+x,y,-z
1/2-x,y,1/2+z
1/2+x,1/2-y,1/2+z
loop_
_atom_site_type_symbol
_atom_site_label
_atom_site_fract_x
_atom_site_fract_y
_atom_site_fract_z
Si Si1 0.656052 0.418116 0.689825
Si Si2 0.659078 0.092644 0.680917
Si Si3 0.750000 0.500000 0.505484
Si Si4 0.101799 0.109270 0.589066
Si Si5 0.904668 0.913048 0.080925
O O1 0.750000 0.500000 0.691425
O O2 0.673137 0.257110 0.675978
O O3 0.617269 0.428164 0.754998
O O4 0.603069 0.496043 0.639530
O O5 0.750000 0.000000 0.679102
O O6 0.603861 0.036147 0.626704
O O7 0.812636 0.409272 0.547484
O O8 0.823845 0.574273 0.464970
O O9 0.105730 0.265217 0.612722
O O10 0.006229 0.091693 0.556502
#
# Coordination Sequence:
#
# PCOD9507961 Si02
#       5
#    16  16   8  16  16
#     4  10  21  39  66  98 132 170 212 263 324 388
#     4  10  21  39  66  98 132 170 212 263 324 388
#     4  12  24  44  70  92 126 180 220 274 322 386
#     4  11  25  43  66  98 133 171 217 269 326 385
#     4  11  25  43  66  98 133 171 217 269 326 385
#
# _framework density 21.753505000000001
#
# number of rings (size 3 to 8) (size 9 to 14) (size 15 to 20)
#    0.000    1.333    2.222    2.667    0.000    6.222 
#    0.000    4.444    0.000    0.000    0.000    0.000 
#    0.000    0.000    0.000    0.000    0.000    0.000 
#
# Total GULP energy -200919.617220 kJ/mol
# GULP energy per Si atom -5581.100478 kJ/mol
# Density = 2.170399 g / cm^3
# Si number density = 21.753505 Si / 1000 Ang^3
#
#
#
# Elastic Constant Matrix: (Units=GPa)
#
#
# Indices 1 2 3 4 5 6 
#
# 1 62.8447 -42.4414 -16.8629 0.0000 0.0000 0.0000
# 2 -42.4414 93.4762 6.1075 0.0000 0.0000 0.0000
# 3 -16.8629 6.1075 46.6265 0.0000 0.0000 0.0000
# 4 0.0000 0.0000 0.0000 12.3290 0.0000 0.0000
# 5 0.0000 0.0000 0.0000 0.0000 -6.5349 0.0000
# 6 0.0000 0.0000 0.0000 0.0000 0.0000 21.6723
#
#
#
# Elastic Compliance Matrix: (Units=1/GPa)
#
#
# Indices 1 2 3 4 5 6 
#
# 1 0.025458 0.011052 0.007759 0.000000 0.000000 0.000000
# 2 0.011052 0.015588 0.001955 0.000000 0.000000 0.000000
# 3 0.007759 0.001955 0.023997 0.000000 0.000000 0.000000
# 4 0.000000 0.000000 0.000000 0.081109 0.000000 0.000000
# 5 0.000000 0.000000 0.000000 0.000000 -0.153025 0.000000
# 6 0.000000 0.000000 0.000000 0.000000 0.000000 0.046142
#
#
# Mechanical properties :
#
#
# Convention : Reuss Voigt Hill
#
# Bulk Modulus (GPa) = 9.38296 10.72821 10.05559
# Shear Modulus (GPa) = 150.31929 22.56957 86.44443
#
# Velocity S-wave (km/s) = 8.32173 3.22454 6.31066
# Velocity P-wave (km/s) = 9.83146 4.33659 7.59814
#
# Compressibility (1/GPa) = 0.10657614
#
# Stress axis : x y z
#
# Youngs Moduli (GPa) = 39.28036 64.15159 41.67149
#
# Poissons Ratio (x) = -0.70899 -0.32335
# Poissons Ratio (y) = -0.43412 -0.08147
# Poissons Ratio (z) = -0.30479 -0.12542
#
# Static dielectric constant tensor:
#      x y z
#    x 1.818860 0.000000 0.000000 
#    y 0.000000 1.772130 0.000000 
#    z 0.000000 0.000000 1.807450 
# 
# From -- ./inp_files/13126.got.cif
#   From: 2010.05.17/outbox.cif.g08.bks.cpg/sg68_7_cif.got.tgz:13126.got - 2010.06.03 18:57:09.
