data_PCOD9507259
_publ_section_title
;
Structure prediction by ZEFSAII (Michael W. Deem and Ramdas Pophale) SiO2 
 PCOD9507259
Probable space group: C C C A
;
_chemical_formula_sum "Si O2"
_cell_formula_units_Z 108
_cell_length_a 29.444721
_cell_length_b 11.727428
_cell_length_c 14.174033
_cell_angle_alpha 90.000000
_cell_angle_beta 90.000000
_cell_angle_gamma 90.000000
_cell_volume 4894.447319
_symmetry_space_group_name_H-M "C C C A"
_symmetry_group_IT_number 68
_space_group.IT_coordinate_system_code '2'
_symmetry_cell_setting 'orthorhombic'
loop_
_space_group_symop_operation_xyz
x,y,z
-x,1/2-y,z
x,1/2-y,1/2-z
-x,y,1/2-z
-x,-y,-z
x,1/2+y,-z
-x,1/2+y,1/2+z
x,-y,1/2+z
1/2+x,1/2+y,z
1/2-x,-y,z
1/2+x,-y,1/2-z
1/2-x,1/2+y,1/2-z
1/2-x,1/2-y,-z
1/2+x,y,-z
1/2-x,y,1/2+z
1/2+x,1/2-y,1/2+z
loop_
_atom_site_type_symbol
_atom_site_label
_atom_site_fract_x
_atom_site_fract_y
_atom_site_fract_z
Si Si1 0.062779 0.825390 0.079298
Si Si2 0.635755 0.882943 0.225398
Si Si3 0.500000 0.750000 0.088261
Si Si4 0.303380 0.993154 0.912079
Si Si5 0.000000 0.250000 0.750000
Si Si6 0.153208 0.756098 0.355884
Si Si7 0.300957 0.522946 0.866643
Si Si8 0.956291 0.039315 0.301985
O O1 0.038603 0.759293 0.165033
O O2 0.113299 0.776715 0.072769
O O3 0.061485 0.955600 0.116454
O O4 0.035977 0.809190 0.982154
O O5 0.633879 0.750000 0.250000
O O6 0.664947 0.908006 0.131703
O O7 0.584429 0.932502 0.230156
O O8 0.663560 0.952336 0.304917
O O9 0.475539 0.845331 0.151697
O O10 0.250000 0.000000 0.886854
O O11 0.324964 0.877264 0.873538
O O12 0.305819 0.990347 0.024473
O O13 0.134168 0.750000 0.250000
O O14 0.190120 0.656939 0.360036
O O15 0.250000 0.500000 0.834583
O O16 0.000000 0.980562 0.250000
#
# Coordination Sequence:
#
# PCOD9507259 Si02
#       8
#    16  16   8  16   4  16  16  16
#     4  11  23  41  70 100 135 179 241 289 350 422
#     4  12  27  46  72 104 142 188 238 296 370 437
#     4  11  27  41  71 104 140 186 233 303 353 437
#     4  11  28  47  73 106 143 192 236 299 370 436
#     4  10  20  40  62  94 126 176 226 288 340 400
#     4  12  24  44  73 102 142 185 242 297 358 432
#     4  11  27  45  70 105 141 186 236 299 360 439
#     4  12  25  49  67 100 143 189 233 292 369 425
#
# _framework density 22.065822000000001
#
# number of rings (size 3 to 8) (size 9 to 14) (size 15 to 20)
#    0.000    0.593    4.444    2.000    6.222    2.370 
#    0.000    0.000    0.000    0.000    0.000    0.000 
#    0.000    0.000    0.000    0.000    0.000    0.000 
#
# Total GULP energy -301833.747106 kJ/mol
# GULP energy per Si atom -5589.513835 kJ/mol
# Density = 2.201560 g / cm^3
# Si number density = 22.065822 Si / 1000 Ang^3
#
#
#
# Elastic Constant Matrix: (Units=GPa)
#
#
# Indices 1 2 3 4 5 6 
#
# 1 152.9666 1.9321 14.0000 0.0000 0.0000 0.0000
# 2 1.9321 124.4757 -17.7147 0.0000 0.0000 0.0000
# 3 14.0000 -17.7147 80.7892 0.0000 0.0000 0.0000
# 4 0.0000 0.0000 0.0000 -35.5791 0.0000 0.0000
# 5 0.0000 0.0000 0.0000 0.0000 12.1506 0.0000
# 6 0.0000 0.0000 0.0000 0.0000 0.0000 8.3654
#
#
#
# Elastic Compliance Matrix: (Units=1/GPa)
#
#
# Indices 1 2 3 4 5 6 
#
# 1 0.006652 -0.000276 -0.001213 0.000000 0.000000 0.000000
# 2 -0.000276 0.008304 0.001869 0.000000 0.000000 0.000000
# 3 -0.001213 0.001869 0.012998 0.000000 0.000000 0.000000
# 4 0.000000 0.000000 0.000000 -0.028106 0.000000 0.000000
# 5 0.000000 0.000000 0.000000 0.000000 0.082300 0.000000
# 6 0.000000 0.000000 0.000000 0.000000 0.000000 0.119540
#
#
# Mechanical properties :
#
#
# Convention : Reuss Voigt Hill
#
# Bulk Modulus (GPa) = 34.82783 39.40737 37.11760
# Shear Modulus (GPa) = 23.75301 20.98833 22.37067
#
# Velocity S-wave (km/s) = 3.28451 3.08745 3.18750
# Velocity P-wave (km/s) = 5.49562 5.53241 5.51405
#
# Compressibility (1/GPa) = 0.02871267
#
# Stress axis : x y z
#
# Youngs Moduli (GPa) = 150.33306 120.42520 76.93574
#
# Poissons Ratio (x) = 0.03323 0.09334
# Poissons Ratio (y) = 0.04148 -0.14376
# Poissons Ratio (z) = 0.18239 -0.22503
#
# Static dielectric constant tensor:
#      x y z
#    x 1.872320 0.000000 0.000000 
#    y 0.000000 4.135500 0.000000 
#    z 0.000000 0.000000 1.860510 
# 
# From -- ./inp_files/26451.got.cif
#   From: 2010.05.17/outbox.cif.g08.bks.cpg/sg68_14_cif.got.tgz:26451.got - 2010.06.03 18:57:09.
