data_PCOD9507723
_publ_section_title
;
Structure prediction by ZEFSAII (Michael W. Deem and Ramdas Pophale) SiO2 
 PCOD9507723
Probable space group: C C C A
;
_chemical_formula_sum "Si O2"
_cell_formula_units_Z 52
_cell_length_a 16.719878
_cell_length_b 9.995130
_cell_length_c 14.168680
_cell_angle_alpha 90.000000
_cell_angle_beta 90.000000
_cell_angle_gamma 90.000000
_cell_volume 2367.832314
_symmetry_space_group_name_H-M "C C C A"
_symmetry_group_IT_number 68
_space_group.IT_coordinate_system_code '2'
_symmetry_cell_setting 'orthorhombic'
loop_
_space_group_symop_operation_xyz
x,y,z
-x,1/2-y,z
x,1/2-y,1/2-z
-x,y,1/2-z
-x,-y,-z
x,1/2+y,-z
-x,1/2+y,1/2+z
x,-y,1/2+z
1/2+x,1/2+y,z
1/2-x,-y,z
1/2+x,-y,1/2-z
1/2-x,1/2+y,1/2-z
1/2-x,1/2-y,-z
1/2+x,y,-z
1/2-x,y,1/2+z
1/2+x,1/2-y,1/2+z
loop_
_atom_site_type_symbol
_atom_site_label
_atom_site_fract_x
_atom_site_fract_y
_atom_site_fract_z
Si Si1 0.156035 0.481261 0.991643
Si Si2 0.120113 0.720136 0.098228
Si Si3 0.500000 0.750000 0.750000
Si Si4 0.287151 0.364780 0.684679
O O1 0.250000 0.500000 0.965040
O O2 0.116402 0.625113 0.007038
O O3 0.160586 0.417268 0.097320
O O4 0.111315 0.375611 0.926717
O O5 0.059388 0.675035 0.178941
O O6 0.209792 0.704484 0.137108
O O7 0.323656 0.250000 0.750000
O O8 0.250000 0.500000 0.731844
#
# Coordination Sequence:
#
# PCOD9507723 Si02
#       4
#    16  16   4  16
#     4   9  19  37  60  88 111 138 186 238 290 324
#     4  10  21  38  57  84 113 154 181 228 278 337
#     4  12  24  40  56  74 122 156 192 216 272 340
#     4   9  17  31  55  89 114 136 178 234 291 323
#
# _framework density 21.961015
#
# number of rings (size 3 to 8) (size 9 to 14) (size 15 to 20)
#    0.000    3.077    1.538    3.692    0.000    4.923 
#    0.000    0.000    0.000    1.846    0.000    0.000 
#    0.000    0.000    0.000    0.000    0.000    0.000 
#
# Total GULP energy -144891.890224 kJ/mol
# GULP energy per Si atom -5572.765009 kJ/mol
# Density = 2.191103 g / cm^3
# Si number density = 21.961015 Si / 1000 Ang^3
#
#
#
# Elastic Constant Matrix: (Units=GPa)
#
#
# Indices 1 2 3 4 5 6 
#
# 1 32.1520 2.3352 9.7321 0.0000 0.0000 0.0000
# 2 2.3352 105.9858 25.3235 0.0000 0.0000 0.0000
# 3 9.7321 25.3235 46.6758 0.0000 0.0000 0.0000
# 4 0.0000 0.0000 0.0000 38.6442 0.0000 0.0000
# 5 0.0000 0.0000 0.0000 0.0000 10.8292 0.0000
# 6 0.0000 0.0000 0.0000 0.0000 0.0000 1.8983
#
#
#
# Elastic Compliance Matrix: (Units=1/GPa)
#
#
# Indices 1 2 3 4 5 6 
#
# 1 0.033301 0.001063 -0.007520 0.000000 0.000000 0.000000
# 2 0.001063 0.010874 -0.006121 0.000000 0.000000 0.000000
# 3 -0.007520 -0.006121 0.026314 0.000000 0.000000 0.000000
# 4 0.000000 0.000000 0.000000 0.025877 0.000000 0.000000
# 5 0.000000 0.000000 0.000000 0.000000 0.092343 0.000000
# 6 0.000000 0.000000 0.000000 0.000000 0.000000 0.526785
#
#
# Mechanical properties :
#
#
# Convention : Reuss Voigt Hill
#
# Bulk Modulus (GPa) = 22.05944 28.84393 25.45169
# Shear Modulus (GPa) = 6.61584 20.10253 13.35919
#
# Velocity S-wave (km/s) = 1.73755 3.02880 2.46908
# Velocity P-wave (km/s) = 3.75394 5.03926 4.44332
#
# Compressibility (1/GPa) = 0.04533206
#
# Stress axis : x y z
#
# Youngs Moduli (GPa) = 30.02879 91.95888 38.00329
#
# Poissons Ratio (x) = -0.09776 0.28579
# Poissons Ratio (y) = -0.03192 0.23264
# Poissons Ratio (z) = 0.22582 0.56292
#
# Static dielectric constant tensor:
#      x y z
#    x 1.811130 0.000000 0.000000 
#    y 0.000000 1.920840 0.000000 
#    z 0.000000 0.000000 1.868140 
# 
# From -- ./inp_files/18953.got.cif
#   From: 2010.05.17/outbox.cif.g08.bks.cpg/sg68_10_cif.got.tgz:18953.got - 2010.06.03 18:57:09.
