data_PCOD9507498
_publ_section_title
;
Structure prediction by ZEFSAII (Michael W. Deem and Ramdas Pophale) SiO2 
 PCOD9507498
Probable space group: C C C A
;
_chemical_formula_sum "Si O2"
_cell_formula_units_Z 108
_cell_length_a 5.378287
_cell_length_b 27.140158
_cell_length_c 31.337912
_cell_angle_alpha 90.000000
_cell_angle_beta 90.000000
_cell_angle_gamma 90.000000
_cell_volume 4574.318517
_symmetry_space_group_name_H-M "C C C A"
_symmetry_group_IT_number 68
_space_group.IT_coordinate_system_code '2'
_symmetry_cell_setting 'orthorhombic'
loop_
_space_group_symop_operation_xyz
x,y,z
-x,1/2-y,z
x,1/2-y,1/2-z
-x,y,1/2-z
-x,-y,-z
x,1/2+y,-z
-x,1/2+y,1/2+z
x,-y,1/2+z
1/2+x,1/2+y,z
1/2-x,-y,z
1/2+x,-y,1/2-z
1/2-x,1/2+y,1/2-z
1/2-x,1/2-y,-z
1/2+x,y,-z
1/2-x,y,1/2+z
1/2+x,1/2-y,1/2+z
loop_
_atom_site_type_symbol
_atom_site_label
_atom_site_fract_x
_atom_site_fract_y
_atom_site_fract_z
Si Si1 0.144424 0.189397 0.332085
Si Si2 0.000000 0.750000 0.750000
Si Si3 0.645115 0.427958 0.852988
Si Si4 0.250000 0.000000 0.527595
Si Si5 0.747362 0.445151 0.261618
Si Si6 0.647364 0.311644 0.116928
Si Si7 0.277324 0.804738 0.518177
Si Si8 0.354891 0.429315 0.396745
O O1 0.141507 0.129643 0.338268
O O2 0.388364 0.202167 0.360296
O O3 0.142923 0.213478 0.284285
O O4 0.880992 0.203026 0.353939
O O5 0.753493 0.451990 0.811196
O O6 0.368884 0.445490 0.864840
O O7 0.854451 0.439913 0.888137
O O8 0.271985 0.952508 0.558709
O O9 0.500000 0.000000 0.500000
O O10 0.500000 0.417125 0.250000
O O11 0.750000 0.500000 0.240338
O O12 0.000000 0.418871 0.250000
O O13 0.683805 0.295861 0.068171
O O14 0.653866 0.370687 0.109588
O O15 0.250000 0.750000 0.500000
O O16 0.516607 0.829481 0.495684
#
# Coordination Sequence:
#
# PCOD9507498 Si02
#       8
#    16   4  16   8  16  16  16  16
#     4  10  25  43  66  90 126 174 221 275 333 403
#     4  12  28  46  68 102 128 178 240 290 356 410
#     4  10  21  42  64  90 121 172 214 263 320 393
#     4  12  26  42  64 102 138 174 222 278 326 388
#     4  10  21  34  55  92 125 156 197 260 317 360
#     4  10  22  45  64  91 131 170 215 268 338 399
#     4  10  21  35  59  94 118 150 197 249 315 382
#     4  10  23  40  65  89 123 173 215 254 320 392
#
# _framework density 23.610075999999999
#
# number of rings (size 3 to 8) (size 9 to 14) (size 15 to 20)
#    0.000    1.778    0.000    2.667    3.111    6.519 
#    0.000    0.000    0.000    0.000    0.000    0.000 
#    0.000    0.000    0.000    0.000    0.000    0.000 
#
# Total GULP energy -301189.100137 kJ/mol
# GULP energy per Si atom -5577.575928 kJ/mol
# Density = 2.355634 g / cm^3
# Si number density = 23.610076 Si / 1000 Ang^3
#
#
#
# Elastic Constant Matrix: (Units=GPa)
#
#
# Indices 1 2 3 4 5 6 
#
# 1 213.4237 46.2082 80.1789 0.0000 0.0000 0.0000
# 2 46.2082 66.1861 23.5583 0.0000 0.0000 0.0000
# 3 80.1789 23.5583 162.6368 0.0000 0.0000 0.0000
# 4 0.0000 0.0000 0.0000 70.4158 0.0000 0.0000
# 5 0.0000 0.0000 0.0000 0.0000 54.7225 0.0000
# 6 0.0000 0.0000 0.0000 0.0000 0.0000 111.2708
#
#
#
# Elastic Compliance Matrix: (Units=1/GPa)
#
#
# Indices 1 2 3 4 5 6 
#
# 1 0.006459 -0.003559 -0.002668 0.000000 0.000000 0.000000
# 2 -0.003559 0.017892 -0.000837 0.000000 0.000000 0.000000
# 3 -0.002668 -0.000837 0.007585 0.000000 0.000000 0.000000
# 4 0.000000 0.000000 0.000000 0.014201 0.000000 0.000000
# 5 0.000000 0.000000 0.000000 0.000000 0.018274 0.000000
# 6 0.000000 0.000000 0.000000 0.000000 0.000000 0.008987
#
#
# Mechanical properties :
#
#
# Convention : Reuss Voigt Hill
#
# Bulk Modulus (GPa) = 56.15972 82.45970 69.30971
# Shear Modulus (GPa) = 53.49698 66.76858 60.13278
#
# Velocity S-wave (km/s) = 4.76526 5.32363 5.05217
# Velocity P-wave (km/s) = 7.35629 8.53168 7.96569
#
# Compressibility (1/GPa) = 0.01780636
#
# Stress axis : x y z
#
# Youngs Moduli (GPa) = 154.83150 55.89168 131.83127
#
# Poissons Ratio (x) = 0.19894 0.35179
# Poissons Ratio (y) = 0.55109 0.11034
# Poissons Ratio (z) = 0.41317 0.04678
#
# Static dielectric constant tensor:
#      x y z
#    x 2.043460 0.000000 0.000000 
#    y 0.000000 1.973220 0.000000 
#    z 0.000000 0.000000 1.837310 
# 
# From -- ./inp_files/53526.got.cif
#   From: 2010.05.17/outbox.cif.g08.bks.cpg/sg68_27_cif.got.tgz:53526.got - 2010.06.03 18:57:09.
