data_PCOD9507857
_publ_section_title
;
Structure prediction by ZEFSAII (Michael W. Deem and Ramdas Pophale) SiO2 
 PCOD9507857
Probable space group: C C C A
;
_chemical_formula_sum "Si O2"
_cell_formula_units_Z 80
_cell_length_a 14.411920
_cell_length_b 25.560511
_cell_length_c 11.596564
_cell_angle_alpha 90.000000
_cell_angle_beta 90.000000
_cell_angle_gamma 90.000000
_cell_volume 4271.896320
_symmetry_space_group_name_H-M "C C C A"
_symmetry_group_IT_number 68
_space_group.IT_coordinate_system_code '2'
_symmetry_cell_setting 'orthorhombic'
loop_
_space_group_symop_operation_xyz
x,y,z
-x,1/2-y,z
x,1/2-y,1/2-z
-x,y,1/2-z
-x,-y,-z
x,1/2+y,-z
-x,1/2+y,1/2+z
x,-y,1/2+z
1/2+x,1/2+y,z
1/2-x,-y,z
1/2+x,-y,1/2-z
1/2-x,1/2+y,1/2-z
1/2-x,1/2-y,-z
1/2+x,y,-z
1/2-x,y,1/2+z
1/2+x,1/2-y,1/2+z
loop_
_atom_site_type_symbol
_atom_site_label
_atom_site_fract_x
_atom_site_fract_y
_atom_site_fract_z
Si Si1 0.155847 0.468041 0.213908
Si Si2 0.531726 0.543652 0.907455
Si Si3 0.003941 0.689417 0.888630
Si Si4 0.159460 0.108414 0.070448
Si Si5 0.868327 0.392729 0.505718
O O1 0.250000 0.500000 0.232342
O O2 0.078462 0.512069 0.195821
O O3 0.139425 0.428595 0.319173
O O4 0.153667 0.434135 0.096698
O O5 0.500000 0.500000 0.000000
O O6 0.616475 0.576620 0.963263
O O7 0.442707 0.581946 0.905540
O O8 0.099641 0.660959 0.921736
O O9 0.000000 0.750000 0.922857
O O10 0.000000 0.686272 0.750000
O O11 0.921114 0.655873 0.946160
O O12 0.268802 0.118549 0.061180
#
# Coordination Sequence:
#
# PCOD9507857 Si02
#       5
#    16  16  16  16  16
#     4  11  21  34  53  80 122 167 188 235 292 353
#     4   9  21  34  50  78 118 156 198 230 283 355
#     4  10  21  41  66  87 114 155 205 265 316 350
#     4  11  22  38  57  86 120 157 205 249 291 370
#     4  10  21  39  57  89 118 154 208 249 291 369
#
# _framework density 18.727046000000001
#
# number of rings (size 3 to 8) (size 9 to 14) (size 15 to 20)
#    0.000    1.800    4.000    0.000    5.600    0.800 
#    0.000    0.000    0.000    0.000    0.000    1.400 
#    0.000    0.000    0.000    0.000    0.000    0.000 
#
# Total GULP energy -223256.318164 kJ/mol
# GULP energy per Si atom -5581.407954 kJ/mol
# Density = 1.868442 g / cm^3
# Si number density = 18.727046 Si / 1000 Ang^3
#
#
#
# Elastic Constant Matrix: (Units=GPa)
#
#
# Indices 1 2 3 4 5 6 
#
# 1 176.0309 73.8903 34.4392 0.0000 0.0000 0.0000
# 2 73.8903 144.9879 35.1352 0.0000 0.0000 0.0000
# 3 34.4392 35.1352 48.1498 0.0000 0.0000 0.0000
# 4 0.0000 0.0000 0.0000 19.2302 0.0000 0.0000
# 5 0.0000 0.0000 0.0000 0.0000 23.7853 0.0000
# 6 0.0000 0.0000 0.0000 0.0000 0.0000 16.9579
#
#
#
# Elastic Compliance Matrix: (Units=1/GPa)
#
#
# Indices 1 2 3 4 5 6 
#
# 1 0.007606 -0.003107 -0.003173 0.000000 0.000000 0.000000
# 2 -0.003107 0.009648 -0.004818 0.000000 0.000000 0.000000
# 3 -0.003173 -0.004818 0.026553 0.000000 0.000000 0.000000
# 4 0.000000 0.000000 0.000000 0.052002 0.000000 0.000000
# 5 0.000000 0.000000 0.000000 0.000000 0.042043 0.000000
# 6 0.000000 0.000000 0.000000 0.000000 0.000000 0.058969
#
#
# Mechanical properties :
#
#
# Convention : Reuss Voigt Hill
#
# Bulk Modulus (GPa) = 46.27103 72.89978 59.58541
# Shear Modulus (GPa) = 22.10229 27.04161 24.57195
#
# Velocity S-wave (km/s) = 3.43918 3.80411 3.62624
# Velocity P-wave (km/s) = 6.36650 7.63590 7.02991
#
# Compressibility (1/GPa) = 0.02161180
#
# Stress axis : x y z
#
# Youngs Moduli (GPa) = 131.47762 103.64579 37.65993
#
# Poissons Ratio (x) = 0.32206 0.11948
# Poissons Ratio (y) = 0.40855 0.18144
# Poissons Ratio (z) = 0.41713 0.49935
#
# Static dielectric constant tensor:
#      x y z
#    x 1.689650 0.000000 0.000000 
#    y 0.000000 1.621360 0.000000 
#    z 0.000000 0.000000 1.679520 
# 
# From -- ./inp_files/13178.got.cif
#   From: 2010.05.17/outbox.cif.g08.bks.cpg/sg68_7_cif.got.tgz:13178.got - 2010.06.03 18:57:09.
