data_PCOD9507102
_publ_section_title
;
Structure prediction by ZEFSAII (Michael W. Deem and Ramdas Pophale) SiO2 
 PCOD9507102
Probable space group: C C C A
;
_chemical_formula_sum "Si O2"
_cell_formula_units_Z 88
_cell_length_a 14.742152
_cell_length_b 8.249589
_cell_length_c 32.107865
_cell_angle_alpha 90.000000
_cell_angle_beta 90.000000
_cell_angle_gamma 90.000000
_cell_volume 3904.852424
_symmetry_space_group_name_H-M "C C C A"
_symmetry_group_IT_number 68
_space_group.IT_coordinate_system_code '2'
_symmetry_cell_setting 'orthorhombic'
loop_
_space_group_symop_operation_xyz
x,y,z
-x,1/2-y,z
x,1/2-y,1/2-z
-x,y,1/2-z
-x,-y,-z
x,1/2+y,-z
-x,1/2+y,1/2+z
x,-y,1/2+z
1/2+x,1/2+y,z
1/2-x,-y,z
1/2+x,-y,1/2-z
1/2-x,1/2+y,1/2-z
1/2-x,1/2-y,-z
1/2+x,y,-z
1/2-x,y,1/2+z
1/2+x,1/2-y,1/2+z
loop_
_atom_site_type_symbol
_atom_site_label
_atom_site_fract_x
_atom_site_fract_y
_atom_site_fract_z
Si Si1 0.112119 0.646031 0.530686
Si Si2 0.611019 0.256444 0.797951
Si Si3 0.902055 0.940669 0.349500
Si Si4 0.120593 0.586146 0.157702
Si Si5 0.250000 0.500000 0.083797
Si Si6 0.065213 0.510347 0.444990
O O1 0.208318 0.627082 0.552117
O O2 0.103818 0.621974 0.481464
O O3 0.086712 0.825831 0.543526
O O4 0.044361 0.507333 0.550061
O O5 0.500000 0.250000 0.798221
O O6 0.639765 0.250000 0.750000
O O7 0.646009 0.427508 0.815690
O O8 0.635030 0.101692 0.826853
O O9 0.863351 0.773810 0.330210
O O10 0.011521 0.931771 0.344594
O O11 0.895741 0.948619 0.399710
O O12 0.172948 0.564261 0.114602
#
# Coordination Sequence:
#
# PCOD9507102 Si02
#       6
#    16  16  16  16   8  16
#     4  10  23  36  61  82 127 165 220 261 316 364
#     4   9  19  38  66  98 126 160 211 266 316 382
#     4  10  20  38  65  93 122 171 214 258 311 392
#     4  10  22  36  64  92 128 166 209 259 322 377
#     4  12  22  40  60  96 128 164 208 282 310 368
#     4  10  21  40  58  88 117 178 213 258 311 385
#
# _framework density 22.536062999999999
#
# number of rings (size 3 to 8) (size 9 to 14) (size 15 to 20)
#    0.000    2.000    1.818    1.091    7.636    2.909 
#    0.000    6.364    4.000    0.000    0.000    0.000 
#    0.000    0.000    0.000    0.000    0.000    0.000 
#
# Total GULP energy -245413.282759 kJ/mol
# GULP energy per Si atom -5577.574608 kJ/mol
# Density = 2.248477 g / cm^3
# Si number density = 22.536063 Si / 1000 Ang^3
#
#
#
# Elastic Constant Matrix: (Units=GPa)
#
#
# Indices 1 2 3 4 5 6 
#
# 1 31.8340 31.0581 21.1507 0.0000 0.0000 0.0000
# 2 31.0581 173.4117 96.5707 0.0000 0.0000 0.0000
# 3 21.1507 96.5707 153.2731 0.0000 0.0000 0.0000
# 4 0.0000 0.0000 0.0000 -5.3533 0.0000 0.0000
# 5 0.0000 0.0000 0.0000 0.0000 -0.4800 0.0000
# 6 0.0000 0.0000 0.0000 0.0000 0.0000 13.6006
#
#
#
# Elastic Compliance Matrix: (Units=1/GPa)
#
#
# Indices 1 2 3 4 5 6 
#
# 1 0.038282 -0.006030 -0.001483 0.000000 0.000000 0.000000
# 2 -0.006030 0.009834 -0.005364 0.000000 0.000000 0.000000
# 3 -0.001483 -0.005364 0.010108 0.000000 0.000000 0.000000
# 4 0.000000 0.000000 0.000000 -0.186801 0.000000 0.000000
# 5 0.000000 0.000000 0.000000 0.000000 -2.083156 0.000000
# 6 0.000000 0.000000 0.000000 0.000000 0.000000 0.073526
#
#
# Mechanical properties :
#
#
# Convention : Reuss Voigt Hill
#
# Bulk Modulus (GPa) = 30.79814 72.89755 51.84784
# Shear Modulus (GPa) = -2.37911 15.53607 6.57848
#
# Velocity S-wave (km/s) = -1.02858 2.62847 1.71039
# Velocity P-wave (km/s) = 3.50502 6.45206 5.19203
#
# Compressibility (1/GPa) = 0.03246949
#
# Stress axis : x y z
#
# Youngs Moduli (GPa) = 26.12212 101.69275 98.92845
#
# Poissons Ratio (x) = 0.61324 0.14673
# Poissons Ratio (y) = 0.15752 0.53061
# Poissons Ratio (z) = 0.03874 0.54543
#
# Static dielectric constant tensor:
#      x y z
#    x 2.402090 0.000000 0.000000 
#    y 0.000000 1.854740 0.000000 
#    z 0.000000 0.000000 1.828320 
# 
# From -- ./inp_files/55577.got.cif
#   From: 2010.05.17/outbox.cif.g08.bks.cpg/sg68_28_cif.got.tgz:55577.got - 2010.06.03 18:57:09.
