data_PCOD9507772
_publ_section_title
;
Structure prediction by ZEFSAII (Michael W. Deem and Ramdas Pophale) SiO2 
 PCOD9507772
Probable space group: C C C A
;
_chemical_formula_sum "Si O2"
_cell_formula_units_Z 104
_cell_length_a 20.178037
_cell_length_b 12.759410
_cell_length_c 17.458285
_cell_angle_alpha 90.000000
_cell_angle_beta 90.000000
_cell_angle_gamma 90.000000
_cell_volume 4494.807386
_symmetry_space_group_name_H-M "C C C A"
_symmetry_group_IT_number 68
_space_group.IT_coordinate_system_code '2'
_symmetry_cell_setting 'orthorhombic'
loop_
_space_group_symop_operation_xyz
x,y,z
-x,1/2-y,z
x,1/2-y,1/2-z
-x,y,1/2-z
-x,-y,-z
x,1/2+y,-z
-x,1/2+y,1/2+z
x,-y,1/2+z
1/2+x,1/2+y,z
1/2-x,-y,z
1/2+x,-y,1/2-z
1/2-x,1/2+y,1/2-z
1/2-x,1/2-y,-z
1/2+x,y,-z
1/2-x,y,1/2+z
1/2+x,1/2-y,1/2+z
loop_
_atom_site_type_symbol
_atom_site_label
_atom_site_fract_x
_atom_site_fract_y
_atom_site_fract_z
Si Si1 0.143233 0.804427 0.173729
Si Si2 0.676285 0.960692 0.074578
Si Si3 0.104347 0.386121 0.362755
Si Si4 0.000000 0.250000 0.442737
Si Si5 0.670040 0.992622 0.234574
Si Si6 0.931092 0.589915 0.051070
Si Si7 0.775840 0.737183 0.586810
O O1 0.117990 0.750000 0.250000
O O2 0.094257 0.813962 0.103295
O O3 0.213399 0.764823 0.143063
O O4 0.156763 0.920894 0.202022
O O5 0.647351 0.020787 0.148419
O O6 0.686193 0.843513 0.106350
O O7 0.750000 0.000000 0.053505
O O8 0.627142 0.950590 0.004741
O O9 0.129206 0.398192 0.274537
O O10 0.062778 0.488548 0.393153
O O11 0.175262 0.361308 0.404425
O O12 0.059382 0.288433 0.388347
O O13 0.983480 0.351479 0.496430
O O14 0.750000 0.000000 0.227480
O O15 0.750000 0.750000 0.500000
#
# Coordination Sequence:
#
# PCOD9507772 Si02
#       7
#    16  16  16   8  16  16  16
#     4  11  22  39  65 103 138 174 222 287 364 420
#     4  11  22  38  62 100 138 177 228 282 352 425
#     4  11  24  41  67  95 135 181 234 282 347 409
#     4  12  24  50  66 100 134 198 248 284 341 406
#     4  10  21  38  61  96 138 178 213 285 350 412
#     4  11  25  43  70  97 136 183 233 294 343 416
#     4  12  21  37  63  98 136 179 220 284 357 421
#
# _framework density 23.137810999999999
#
# number of rings (size 3 to 8) (size 9 to 14) (size 15 to 20)
#    0.000    0.923    4.615    3.231    0.000    1.231 
#    0.000    1.923    0.000    3.692    0.000    0.000 
#    0.000    0.000    0.000    0.000    0.000    0.000 
#
# Total GULP energy -289828.576382 kJ/mol
# GULP energy per Si atom -5573.626469 kJ/mol
# Density = 2.308515 g / cm^3
# Si number density = 23.137811 Si / 1000 Ang^3
#
#
#
# Elastic Constant Matrix: (Units=GPa)
#
#
# Indices 1 2 3 4 5 6 
#
# 1 49.7746 2.8430 31.1149 0.0000 0.0000 0.0000
# 2 2.8430 39.8463 -16.4721 0.0000 0.0000 0.0000
# 3 31.1149 -16.4721 104.6726 0.0000 0.0000 0.0000
# 4 0.0000 0.0000 0.0000 36.0605 0.0000 0.0000
# 5 0.0000 0.0000 0.0000 0.0000 16.9413 0.0000
# 6 0.0000 0.0000 0.0000 0.0000 0.0000 28.7395
#
#
#
# Elastic Compliance Matrix: (Units=1/GPa)
#
#
# Indices 1 2 3 4 5 6 
#
# 1 0.025695 -0.005338 -0.008478 0.000000 0.000000 0.000000
# 2 -0.005338 0.027952 0.005986 0.000000 0.000000 0.000000
# 3 -0.008478 0.005986 0.013016 0.000000 0.000000 0.000000
# 4 0.000000 0.000000 0.000000 0.027731 0.000000 0.000000
# 5 0.000000 0.000000 0.000000 0.000000 0.059027 0.000000
# 6 0.000000 0.000000 0.000000 0.000000 0.000000 0.034795
#
#
# Mechanical properties :
#
#
# Convention : Reuss Voigt Hill
#
# Bulk Modulus (GPa) = 19.60745 25.47389 22.54067
# Shear Modulus (GPa) = 22.63685 28.13544 25.38615
#
# Velocity S-wave (km/s) = 3.13125 3.49089 3.31595
# Velocity P-wave (km/s) = 4.64387 5.22322 4.94204
#
# Compressibility (1/GPa) = 0.05100102
#
# Stress axis : x y z
#
# Youngs Moduli (GPa) = 38.91748 35.77600 76.82986
#
# Poissons Ratio (x) = 0.19098 0.65138
# Poissons Ratio (y) = 0.20775 -0.45987
# Poissons Ratio (z) = 0.32995 -0.21414
#
# Static dielectric constant tensor:
#      x y z
#    x 1.891300 0.000000 0.000000 
#    y 0.000000 2.061020 0.000000 
#    z 0.000000 0.000000 1.940120 
# 
# From -- ./inp_files/33027.got.cif
#   From: 2010.05.17/outbox.cif.g08.bks.cpg/sg68_17_cif.got.tgz:33027.got - 2010.06.03 18:57:09.
