data_PCOD9507674
_publ_section_title
;
Structure prediction by ZEFSAII (Michael W. Deem and Ramdas Pophale) SiO2 
 PCOD9507674
Probable space group: C C C A
;
_chemical_formula_sum "Si O2"
_cell_formula_units_Z 80
_cell_length_a 13.660802
_cell_length_b 8.726028
_cell_length_c 27.604711
_cell_angle_alpha 90.000000
_cell_angle_beta 90.000000
_cell_angle_gamma 90.000000
_cell_volume 3290.606897
_symmetry_space_group_name_H-M "C C C A"
_symmetry_group_IT_number 68
_space_group.IT_coordinate_system_code '2'
_symmetry_cell_setting 'orthorhombic'
loop_
_space_group_symop_operation_xyz
x,y,z
-x,1/2-y,z
x,1/2-y,1/2-z
-x,y,1/2-z
-x,-y,-z
x,1/2+y,-z
-x,1/2+y,1/2+z
x,-y,1/2+z
1/2+x,1/2+y,z
1/2-x,-y,z
1/2+x,-y,1/2-z
1/2-x,1/2+y,1/2-z
1/2-x,1/2-y,-z
1/2+x,y,-z
1/2-x,y,1/2+z
1/2+x,1/2-y,1/2+z
loop_
_atom_site_type_symbol
_atom_site_label
_atom_site_fract_x
_atom_site_fract_y
_atom_site_fract_z
Si Si1 0.860753 0.941678 0.026775
Si Si2 0.854941 0.920624 0.625466
Si Si3 0.534918 0.593592 0.668556
Si Si4 0.147039 0.089404 0.566839
Si Si5 0.386853 0.809099 0.201064
O O1 0.892620 0.051858 0.071034
O O2 0.853581 0.763406 0.043522
O O3 0.750000 0.000000 0.019243
O O4 0.904102 0.982089 0.974199
O O5 0.933642 0.007047 0.657861
O O6 0.750000 0.000000 0.627575
O O7 0.846223 0.754661 0.650136
O O8 0.500000 0.750000 0.690549
O O9 0.588142 0.611503 0.616571
O O10 0.605294 0.490576 0.700615
O O11 0.250000 0.000000 0.577359
O O12 0.500000 0.750000 0.201852
O O13 0.337770 0.750000 0.250000
#
# Coordination Sequence:
#
# PCOD9507674 Si02
#       5
#    16  16  16  16  16
#     4  10  21  37  62  91 134 174 223 259 323 381
#     4  10  22  42  65  89 130 174 217 266 325 389
#     4  11  23  41  63 100 131 165 218 271 330 392
#     4  11  23  38  63  97 133 180 218 269 327 384
#     4   9  21  43  69  93 124 168 218 270 341 398
#
# _framework density 24.311624999999999
#
# number of rings (size 3 to 8) (size 9 to 14) (size 15 to 20)
#    0.000    1.800    2.000    2.400    8.400    0.800 
#    0.000   11.000    0.000    0.000    0.000    0.000 
#    0.000    0.000    0.000    0.000    0.000    0.000 
#
# Total GULP energy -223114.444109 kJ/mol
# GULP energy per Si atom -5577.861103 kJ/mol
# Density = 2.425629 g / cm^3
# Si number density = 24.311625 Si / 1000 Ang^3
#
#
#
# Elastic Constant Matrix: (Units=GPa)
#
#
# Indices 1 2 3 4 5 6 
#
# 1 55.1883 13.3508 27.0525 0.0000 0.0000 0.0000
# 2 13.3508 165.7418 71.5637 0.0000 0.0000 0.0000
# 3 27.0525 71.5637 106.7285 0.0000 0.0000 0.0000
# 4 0.0000 0.0000 0.0000 -1.1528 0.0000 0.0000
# 5 0.0000 0.0000 0.0000 0.0000 3.4726 0.0000
# 6 0.0000 0.0000 0.0000 0.0000 0.0000 15.8604
#
#
#
# Elastic Compliance Matrix: (Units=1/GPa)
#
#
# Indices 1 2 3 4 5 6 
#
# 1 0.020774 0.000845 -0.005832 0.000000 0.000000 0.000000
# 2 0.000845 0.008526 -0.005931 0.000000 0.000000 0.000000
# 3 -0.005832 -0.005931 0.014825 0.000000 0.000000 0.000000
# 4 0.000000 0.000000 0.000000 -0.867440 0.000000 0.000000
# 5 0.000000 0.000000 0.000000 0.000000 0.287966 0.000000
# 6 0.000000 0.000000 0.000000 0.000000 0.000000 0.063050
#
#
# Mechanical properties :
#
#
# Convention : Reuss Voigt Hill
#
# Bulk Modulus (GPa) = 44.86650 61.28808 53.07729
# Shear Modulus (GPa) = -11.28588 18.01547 3.36479
#
# Velocity S-wave (km/s) = -2.15691 2.72513 1.17772
# Velocity P-wave (km/s) = 3.50597 5.93008 4.87122
#
# Compressibility (1/GPa) = 0.02228834
#
# Stress axis : x y z
#
# Youngs Moduli (GPa) = 48.13653 117.28232 67.45412
#
# Poissons Ratio (x) = -0.09908 0.39340
# Poissons Ratio (y) = -0.04066 0.40009
# Poissons Ratio (z) = 0.28074 0.69563
#
# Static dielectric constant tensor:
#      x y z
#    x 0.229010 0.000000 0.000000 
#    y 0.000000 1.968770 0.000000 
#    z 0.000000 0.000000 2.044420 
# 
# From -- ./inp_files/55531.got.cif
#   From: 2010.05.17/outbox.cif.g08.bks.cpg/sg68_28_cif.got.tgz:55531.got - 2010.06.03 18:57:09.
