data_PCOD9507748
_publ_section_title
;
Structure prediction by ZEFSAII (Michael W. Deem and Ramdas Pophale) SiO2 
 PCOD9507748
Probable space group: C C C A
;
_chemical_formula_sum "Si O2"
_cell_formula_units_Z 88
_cell_length_a 23.661946
_cell_length_b 17.932223
_cell_length_c 8.641684
_cell_angle_alpha 90.000000
_cell_angle_beta 90.000000
_cell_angle_gamma 90.000000
_cell_volume 3666.764106
_symmetry_space_group_name_H-M "C C C A"
_symmetry_group_IT_number 68
_space_group.IT_coordinate_system_code '2'
_symmetry_cell_setting 'orthorhombic'
loop_
_space_group_symop_operation_xyz
x,y,z
-x,1/2-y,z
x,1/2-y,1/2-z
-x,y,1/2-z
-x,-y,-z
x,1/2+y,-z
-x,1/2+y,1/2+z
x,-y,1/2+z
1/2+x,1/2+y,z
1/2-x,-y,z
1/2+x,-y,1/2-z
1/2-x,1/2+y,1/2-z
1/2-x,1/2-y,-z
1/2+x,y,-z
1/2-x,y,1/2+z
1/2+x,1/2-y,1/2+z
loop_
_atom_site_type_symbol
_atom_site_label
_atom_site_fract_x
_atom_site_fract_y
_atom_site_fract_z
Si Si1 0.416373 0.905037 0.686337
Si Si2 0.561737 0.287090 0.592937
Si Si3 0.290634 0.927867 0.055499
Si Si4 0.417986 0.950859 0.039302
Si Si5 0.925250 0.750000 0.250000
Si Si6 0.297832 0.339784 0.262876
O O1 0.449566 0.827911 0.691404
O O2 0.353132 0.873054 0.649762
O O3 0.441094 0.967657 0.576745
O O4 0.416336 0.940758 0.855797
O O5 0.500000 0.250000 0.578007
O O6 0.587373 0.250000 0.750000
O O7 0.556160 0.376193 0.611517
O O8 0.594454 0.277372 0.426783
O O9 0.298209 0.883726 0.897136
O O10 0.250000 0.000000 0.042434
O O11 0.353126 0.952928 0.104038
O O12 0.259854 0.867498 0.161780
O O13 0.301814 0.250000 0.250000
#
# Coordination Sequence:
#
# PCOD9507748 Si02
#       6
#    16  16  16  16   8  16
#     4  10  21  38  60  91 131 170 221 268 329 399
#     4  10  23  45  72  98 131 167 218 280 345 407
#     4  11  22  37  57  87 127 174 222 267 322 385
#     4  10  23  38  63  95 126 175 221 268 346 396
#     4  10  21  42  70  96 132 178 208 272 347 402
#     4  11  22  37  54  84 127 177 225 267 313 381
#
# _framework density 23.999362000000001
#
# number of rings (size 3 to 8) (size 9 to 14) (size 15 to 20)
#    0.000    1.636    2.727    1.364    5.091    0.727 
#    0.000    0.909    4.000    0.000    0.000    0.000 
#    0.000    0.000    0.000    0.000    0.000    0.000 
#
# Total GULP energy -245242.911637 kJ/mol
# GULP energy per Si atom -5573.702537 kJ/mol
# Density = 2.394474 g / cm^3
# Si number density = 23.999362 Si / 1000 Ang^3
#
#
#
# Elastic Constant Matrix: (Units=GPa)
#
#
# Indices 1 2 3 4 5 6 
#
# 1 64.0450 20.0097 -7.3412 0.0000 0.0000 0.0000
# 2 20.0097 224.1211 21.6666 0.0000 0.0000 0.0000
# 3 -7.3412 21.6666 73.1536 0.0000 0.0000 0.0000
# 4 0.0000 0.0000 0.0000 48.4631 0.0000 0.0000
# 5 0.0000 0.0000 0.0000 0.0000 14.5666 0.0000
# 6 0.0000 0.0000 0.0000 0.0000 0.0000 20.3970
#
#
#
# Elastic Compliance Matrix: (Units=1/GPa)
#
#
# Indices 1 2 3 4 5 6 
#
# 1 0.016381 -0.001669 0.002138 0.000000 0.000000 0.000000
# 2 -0.001669 0.004763 -0.001578 0.000000 0.000000 0.000000
# 3 0.002138 -0.001578 0.014352 0.000000 0.000000 0.000000
# 4 0.000000 0.000000 0.000000 0.020634 0.000000 0.000000
# 5 0.000000 0.000000 0.000000 0.000000 0.068650 0.000000
# 6 0.000000 0.000000 0.000000 0.000000 0.000000 0.049027
#
#
# Mechanical properties :
#
#
# Convention : Reuss Voigt Hill
#
# Bulk Modulus (GPa) = 30.05044 47.77667 38.91356
# Shear Modulus (GPa) = 26.72106 38.48432 32.60269
#
# Velocity S-wave (km/s) = 3.34040 4.00879 3.68976
# Velocity P-wave (km/s) = 5.23700 6.43256 5.86532
#
# Compressibility (1/GPa) = 0.03327738
#
# Stress axis : x y z
#
# Youngs Moduli (GPa) = 61.04778 209.93030 69.67707
#
# Poissons Ratio (x) = 0.35041 -0.14898
# Poissons Ratio (y) = 0.10190 0.10998
# Poissons Ratio (z) = -0.13053 0.33134
#
# Static dielectric constant tensor:
#      x y z
#    x 2.096770 0.000000 0.000000 
#    y 0.000000 -7.422700 0.000000 
#    z 0.000000 0.000000 1.986400 
# 
# From -- ./inp_files/9514.got.cif
#   From: 2010.05.17/outbox.cif.g08.bks.cpg/sg68_5_cif.got.tgz:9514.got - 2010.06.03 18:57:09.
