data_PCOD9507936
_publ_section_title
;
Structure prediction by ZEFSAII (Michael W. Deem and Ramdas Pophale) SiO2 
 PCOD9507936
Probable space group: C C C A
;
_chemical_formula_sum "Si O2"
_cell_formula_units_Z 96
_cell_length_a 14.866791
_cell_length_b 14.418712
_cell_length_c 20.966019
_cell_angle_alpha 90.000000
_cell_angle_beta 90.000000
_cell_angle_gamma 90.000000
_cell_volume 4494.275367
_symmetry_space_group_name_H-M "C C C A"
_symmetry_group_IT_number 68
_space_group.IT_coordinate_system_code '2'
_symmetry_cell_setting 'orthorhombic'
loop_
_space_group_symop_operation_xyz
x,y,z
-x,1/2-y,z
x,1/2-y,1/2-z
-x,y,1/2-z
-x,-y,-z
x,1/2+y,-z
-x,1/2+y,1/2+z
x,-y,1/2+z
1/2+x,1/2+y,z
1/2-x,-y,z
1/2+x,-y,1/2-z
1/2-x,1/2+y,1/2-z
1/2-x,1/2-y,-z
1/2+x,y,-z
1/2-x,y,1/2+z
1/2+x,1/2-y,1/2+z
loop_
_atom_site_type_symbol
_atom_site_label
_atom_site_fract_x
_atom_site_fract_y
_atom_site_fract_z
Si Si1 0.771796 0.390855 0.665492
Si Si2 0.000000 0.750000 0.854124
Si Si3 0.574215 0.094928 0.059534
Si Si4 0.016689 0.640515 0.318863
Si Si5 0.430525 0.624225 0.036328
Si Si6 0.840812 0.250000 0.250000
Si Si7 0.744124 0.386351 0.519689
O O1 0.750000 0.500000 0.673700
O O2 0.879895 0.378969 0.663528
O O3 0.725061 0.331071 0.722194
O O4 0.738426 0.360335 0.594388
O O5 0.983728 0.666220 0.903928
O O6 0.912060 0.742184 0.808941
O O7 0.559729 0.105262 0.133723
O O8 0.573509 0.985789 0.046245
O O9 0.488036 0.140590 0.026861
O O10 0.659029 0.136159 0.023668
O O11 0.000000 0.750000 0.316358
O O12 0.000000 0.597648 0.250000
O O13 0.329875 0.652931 0.018377
O O14 0.750000 0.500000 0.521278
#
# Coordination Sequence:
#
# PCOD9507936 Si02
#       7
#    16   8  16  16  16   8  16
#     4  11  24  46  72 100 140 193 235 294 366 425
#     4  11  26  42  64  96 141 178 222 282 361 414
#     4  10  21  39  67  96 133 174 234 290 343 421
#     4  11  25  43  65  99 140 181 236 294 352 425
#     4  10  21  39  64  97 131 174 229 290 350 413
#     4  11  26  46  65  98 146 182 237 282 340 445
#     4   9  19  38  68 102 132 172 232 291 351 416
#
# _framework density 21.360506000000001
#
# number of rings (size 3 to 8) (size 9 to 14) (size 15 to 20)
#    0.000    1.667    1.667    2.000    5.833    4.000 
#    0.000    4.167    0.000    0.000    0.000    0.000 
#    0.000    0.000    0.000    0.000    0.000    0.000 
#
# Total GULP energy -267715.538105 kJ/mol
# GULP energy per Si atom -5577.407044 kJ/mol
# Density = 2.131189 g / cm^3
# Si number density = 21.360506 Si / 1000 Ang^3
#
#
#
# Elastic Constant Matrix: (Units=GPa)
#
#
# Indices 1 2 3 4 5 6 
#
# 1 138.0565 33.4928 56.7918 0.0000 0.0000 0.0000
# 2 33.4928 78.1245 28.4545 0.0000 0.0000 0.0000
# 3 56.7918 28.4545 155.3061 0.0000 0.0000 0.0000
# 4 0.0000 0.0000 0.0000 77.6522 0.0000 0.0000
# 5 0.0000 0.0000 0.0000 0.0000 29.6260 0.0000
# 6 0.0000 0.0000 0.0000 0.0000 0.0000 11.3703
#
#
#
# Elastic Compliance Matrix: (Units=1/GPa)
#
#
# Indices 1 2 3 4 5 6 
#
# 1 0.009093 -0.002879 -0.002797 0.000000 0.000000 0.000000
# 2 -0.002879 0.014627 -0.001627 0.000000 0.000000 0.000000
# 3 -0.002797 -0.001627 0.007760 0.000000 0.000000 0.000000
# 4 0.000000 0.000000 0.000000 0.012878 0.000000 0.000000
# 5 0.000000 0.000000 0.000000 0.000000 0.033754 0.000000
# 6 0.000000 0.000000 0.000000 0.000000 0.000000 0.087949
#
#
# Mechanical properties :
#
#
# Convention : Reuss Voigt Hill
#
# Bulk Modulus (GPa) = 59.26900 67.66280 63.46590
# Shear Modulus (GPa) = 26.83961 40.57958 33.70960
#
# Velocity S-wave (km/s) = 3.54857 4.36334 3.97687
# Velocity P-wave (km/s) = 6.67810 7.55846 7.13188
#
# Compressibility (1/GPa) = 0.01687223
#
# Stress axis : x y z
#
# Youngs Moduli (GPa) = 109.97825 68.36654 128.86667
#
# Poissons Ratio (x) = 0.19684 0.36050
# Poissons Ratio (y) = 0.31666 0.20967
# Poissons Ratio (z) = 0.30766 0.11123
#
# Static dielectric constant tensor:
#      x y z
#    x 1.799790 0.000000 0.000000 
#    y 0.000000 1.791880 0.000000 
#    z 0.000000 0.000000 1.785590 
# 
# From -- ./inp_files/38607.got.cif
#   From: 2010.05.17/outbox.cif.g08.bks.cpg/sg68_20_cif.got.tgz:38607.got - 2010.06.03 18:57:09.
