data_PCOD9507528
_publ_section_title
;
Structure prediction by ZEFSAII (Michael W. Deem and Ramdas Pophale) SiO2 
 PCOD9507528
Probable space group: C C C A
;
_chemical_formula_sum "Si O2"
_cell_formula_units_Z 120
_cell_length_a 26.057010
_cell_length_b 26.626334
_cell_length_c 9.318538
_cell_angle_alpha 90.000000
_cell_angle_beta 90.000000
_cell_angle_gamma 90.000000
_cell_volume 6465.226371
_symmetry_space_group_name_H-M "C C C A"
_symmetry_group_IT_number 68
_space_group.IT_coordinate_system_code '2'
_symmetry_cell_setting 'orthorhombic'
loop_
_space_group_symop_operation_xyz
x,y,z
-x,1/2-y,z
x,1/2-y,1/2-z
-x,y,1/2-z
-x,-y,-z
x,1/2+y,-z
-x,1/2+y,1/2+z
x,-y,1/2+z
1/2+x,1/2+y,z
1/2-x,-y,z
1/2+x,-y,1/2-z
1/2-x,1/2+y,1/2-z
1/2-x,1/2-y,-z
1/2+x,y,-z
1/2-x,y,1/2+z
1/2+x,1/2-y,1/2+z
loop_
_atom_site_type_symbol
_atom_site_label
_atom_site_fract_x
_atom_site_fract_y
_atom_site_fract_z
Si Si1 0.293816 0.440857 0.783523
Si Si2 0.808349 0.955485 0.444650
Si Si3 0.000000 0.634216 0.250000
Si Si4 0.944363 0.975764 0.680187
Si Si5 0.111741 0.873677 0.726870
Si Si6 0.949176 0.310871 0.997693
Si Si7 0.938377 0.787582 0.612409
Si Si8 0.079919 0.558970 0.378602
O O1 0.237298 0.432541 0.848638
O O2 0.294549 0.455721 0.614199
O O3 0.313986 0.487794 0.880778
O O4 0.330589 0.392677 0.794984
O O5 0.862435 0.927265 0.424176
O O6 0.037456 0.667248 0.154922
O O7 0.037273 0.600580 0.348314
O O8 0.918608 0.924445 0.734342
O O9 0.941772 0.974052 0.509675
O O10 0.000000 0.978273 0.750000
O O11 0.915715 0.024791 0.737540
O O12 0.087626 0.847441 0.586797
O O13 0.099851 0.832630 0.851126
O O14 0.928292 0.253904 0.990640
O O15 0.004881 0.308810 0.079330
O O16 0.938009 0.750000 0.750000
#
# Coordination Sequence:
#
# PCOD9507528 Si02
#       8
#    16  16   8  16  16  16  16  16
#     4  11  23  37  64  82 118 163 218 259 311 358
#     4  11  22  41  54  87 115 163 207 264 302 358
#     4  12  26  35  54  90 124 170 197 246 306 396
#     4  12  23  36  55  83 122 169 199 242 292 370
#     4  11  19  34  61  86 111 161 207 253 305 363
#     4  10  21  35  57  86 124 156 200 252 308 369
#     4   9  18  37  60  87 117 150 200 259 300 378
#     4  12  24  38  53  81 130 161 208 240 303 369
#
# _framework density 18.560835000000001
#
# number of rings (size 3 to 8) (size 9 to 14) (size 15 to 20)
#    0.000    1.067    3.333    7.200    1.867    3.200 
#    0.000    0.000    0.000    0.000    0.000   14.933 
#    0.000    0.000    0.000    0.000    0.000    0.000 
#
# Total GULP energy -334732.619042 kJ/mol
# GULP energy per Si atom -5578.876984 kJ/mol
# Density = 1.851859 g / cm^3
# Si number density = 18.560835 Si / 1000 Ang^3
#
#
#
# Elastic Constant Matrix: (Units=GPa)
#
#
# Indices 1 2 3 4 5 6 
#
# 1 101.7893 27.3251 26.0610 0.0000 0.0000 0.0000
# 2 27.3251 76.3518 23.5925 0.0000 0.0000 0.0000
# 3 26.0610 23.5925 104.1222 0.0000 0.0000 0.0000
# 4 0.0000 0.0000 0.0000 0.7194 0.0000 0.0000
# 5 0.0000 0.0000 0.0000 0.0000 22.2037 0.0000
# 6 0.0000 0.0000 0.0000 0.0000 0.0000 29.9024
#
#
#
# Elastic Compliance Matrix: (Units=1/GPa)
#
#
# Indices 1 2 3 4 5 6 
#
# 1 0.011261 -0.003397 -0.002049 0.000000 0.000000 0.000000
# 2 -0.003397 0.015108 -0.002573 0.000000 0.000000 0.000000
# 3 -0.002049 -0.002573 0.010700 0.000000 0.000000 0.000000
# 4 0.000000 0.000000 0.000000 1.389955 0.000000 0.000000
# 5 0.000000 0.000000 0.000000 0.000000 0.045037 0.000000
# 6 0.000000 0.000000 0.000000 0.000000 0.000000 0.033442
#
#
# Mechanical properties :
#
#
# Convention : Reuss Voigt Hill
#
# Bulk Modulus (GPa) = 47.54855 48.46893 48.00874
# Shear Modulus (GPa) = 3.27107 24.25076 13.76092
#
# Velocity S-wave (km/s) = 1.32898 3.61855 2.72581
# Velocity P-wave (km/s) = 5.29417 6.60521 5.98569
#
# Compressibility (1/GPa) = 0.02103114
#
# Stress axis : x y z
#
# Youngs Moduli (GPa) = 88.80473 66.18991 93.45881
#
# Poissons Ratio (x) = 0.22484 0.19147
# Poissons Ratio (y) = 0.30166 0.24047
# Poissons Ratio (z) = 0.18194 0.17031
#
# Static dielectric constant tensor:
#      x y z
#    x 1.670220 0.000000 0.000000 
#    y 0.000000 1.668210 0.000000 
#    z 0.000000 0.000000 1.766370 
# 
# From -- ./inp_files/9227.got.cif
#   From: 2010.05.17/outbox.cif.g08.bks.cpg/sg68_5_cif.got.tgz:9227.got - 2010.06.03 18:57:09.
