data_PCOD9507675
_publ_section_title
;
Structure prediction by ZEFSAII (Michael W. Deem and Ramdas Pophale) SiO2 
 PCOD9507675
Probable space group: C C C A
;
_chemical_formula_sum "Si O2"
_cell_formula_units_Z 96
_cell_length_a 15.395573
_cell_length_b 23.239346
_cell_length_c 13.875732
_cell_angle_alpha 90.000000
_cell_angle_beta 90.000000
_cell_angle_gamma 90.000000
_cell_volume 4964.501686
_symmetry_space_group_name_H-M "C C C A"
_symmetry_group_IT_number 68
_space_group.IT_coordinate_system_code '2'
_symmetry_cell_setting 'orthorhombic'
loop_
_space_group_symop_operation_xyz
x,y,z
-x,1/2-y,z
x,1/2-y,1/2-z
-x,y,1/2-z
-x,-y,-z
x,1/2+y,-z
-x,1/2+y,1/2+z
x,-y,1/2+z
1/2+x,1/2+y,z
1/2-x,-y,z
1/2+x,-y,1/2-z
1/2-x,1/2+y,1/2-z
1/2-x,1/2-y,-z
1/2+x,y,-z
1/2-x,y,1/2+z
1/2+x,1/2-y,1/2+z
loop_
_atom_site_type_symbol
_atom_site_label
_atom_site_fract_x
_atom_site_fract_y
_atom_site_fract_z
Si Si1 0.610000 0.656843 0.924131
Si Si2 0.947038 0.495929 0.656106
Si Si3 0.000000 0.657795 0.250000
Si Si4 0.345790 0.221640 0.150008
Si Si5 0.219032 0.381306 0.980214
Si Si6 0.750000 0.000000 0.366258
Si Si7 0.032231 0.909002 0.974224
O O1 0.572069 0.633428 0.822567
O O2 0.631397 0.724104 0.916040
O O3 0.537238 0.639945 0.001138
O O4 0.700019 0.628156 0.951055
O O5 0.845341 0.504961 0.682199
O O6 0.992303 0.552166 0.610018
O O7 0.000000 0.478488 0.750000
O O8 0.956411 0.448852 0.570606
O O9 0.061993 0.694063 0.320278
O O10 0.309217 0.250000 0.250000
O O11 0.292436 0.171489 0.096288
O O12 0.238298 0.441656 0.927618
O O13 0.128911 0.385294 0.038842
#
# Coordination Sequence:
#
# PCOD9507675 Si02
#       7
#    16  16   8  16  16   8  16
#     4  11  20  37  62  91 127 160 205 272 321 380
#     4  10  22  43  59  86 127 171 212 263 318 385
#     4  10  21  38  64  92 124 162 216 274 319 374
#     4  10  21  37  62  94 125 163 217 270 323 383
#     4  11  22  39  63  90 127 168 209 265 326 385
#     4  10  22  42  64  90 124 168 208 258 318 388
#     4  10  22  39  62  90 124 163 214 261 324 395
#
# _framework density 19.337288000000001
#
# number of rings (size 3 to 8) (size 9 to 14) (size 15 to 20)
#    0.000    1.667    3.333    2.750    1.167    1.333 
#    9.000    0.000    0.000    0.000    0.000    4.667 
#    0.000    0.000    0.000    0.000    0.000    0.000 
#
# Total GULP energy -267478.402894 kJ/mol
# GULP energy per Si atom -5572.466727 kJ/mol
# Density = 1.929328 g / cm^3
# Si number density = 19.337288 Si / 1000 Ang^3
#
#
#
# Elastic Constant Matrix: (Units=GPa)
#
#
# Indices 1 2 3 4 5 6 
#
# 1 177.5030 39.2975 48.9769 0.0000 0.0000 0.0000
# 2 39.2975 98.3086 25.7010 0.0000 0.0000 0.0000
# 3 48.9769 25.7010 56.5432 0.0000 0.0000 0.0000
# 4 0.0000 0.0000 0.0000 11.8706 0.0000 0.0000
# 5 0.0000 0.0000 0.0000 0.0000 30.8687 0.0000
# 6 0.0000 0.0000 0.0000 0.0000 0.0000 26.6256
#
#
#
# Elastic Compliance Matrix: (Units=1/GPa)
#
#
# Indices 1 2 3 4 5 6 
#
# 1 0.007591 -0.001493 -0.005897 0.000000 0.000000 0.000000
# 2 -0.001493 0.011837 -0.004087 0.000000 0.000000 0.000000
# 3 -0.005897 -0.004087 0.024651 0.000000 0.000000 0.000000
# 4 0.000000 0.000000 0.000000 0.084242 0.000000 0.000000
# 5 0.000000 0.000000 0.000000 0.000000 0.032395 0.000000
# 6 0.000000 0.000000 0.000000 0.000000 0.000000 0.037558
#
#
# Mechanical properties :
#
#
# Convention : Reuss Voigt Hill
#
# Bulk Modulus (GPa) = 47.33601 62.25618 54.79610
# Shear Modulus (GPa) = 21.90379 28.43163 25.16771
#
# Velocity S-wave (km/s) = 3.36925 3.83861 3.61156
# Velocity P-wave (km/s) = 6.29826 7.20495 6.76681
#
# Compressibility (1/GPa) = 0.02112556
#
# Stress axis : x y z
#
# Youngs Moduli (GPa) = 131.72973 84.47808 40.56582
#
# Poissons Ratio (x) = 0.12612 0.23921
# Poissons Ratio (y) = 0.19666 0.16581
# Poissons Ratio (z) = 0.77680 0.34530
#
# Static dielectric constant tensor:
#      x y z
#    x 1.677640 0.000000 0.000000 
#    y 0.000000 1.749880 0.000000 
#    z 0.000000 0.000000 1.688850 
# 
# From -- ./inp_files/22536.got.cif
#   From: 2010.05.17/outbox.cif.g08.bks.cpg/sg68_12_cif.got.tgz:22536.got - 2010.06.03 18:57:09.
