data_PCOD9507230
_publ_section_title
;
Structure prediction by ZEFSAII (Michael W. Deem and Ramdas Pophale) SiO2 
 PCOD9507230
Probable space group: C C C A
;
_chemical_formula_sum "Si O2"
_cell_formula_units_Z 88
_cell_length_a 13.362347
_cell_length_b 22.367823
_cell_length_c 11.733225
_cell_angle_alpha 90.000000
_cell_angle_beta 90.000000
_cell_angle_gamma 90.000000
_cell_volume 3506.903875
_symmetry_space_group_name_H-M "C C C A"
_symmetry_group_IT_number 68
_space_group.IT_coordinate_system_code '2'
_symmetry_cell_setting 'orthorhombic'
loop_
_space_group_symop_operation_xyz
x,y,z
-x,1/2-y,z
x,1/2-y,1/2-z
-x,y,1/2-z
-x,-y,-z
x,1/2+y,-z
-x,1/2+y,1/2+z
x,-y,1/2+z
1/2+x,1/2+y,z
1/2-x,-y,z
1/2+x,-y,1/2-z
1/2-x,1/2+y,1/2-z
1/2-x,1/2-y,-z
1/2+x,y,-z
1/2-x,y,1/2+z
1/2+x,1/2-y,1/2+z
loop_
_atom_site_type_symbol
_atom_site_label
_atom_site_fract_x
_atom_site_fract_y
_atom_site_fract_z
Si Si1 0.844143 0.270824 0.427900
Si Si2 0.500000 0.250000 0.095594
Si Si3 0.633364 0.522286 0.183514
Si Si4 0.365201 0.021671 0.430368
Si Si5 0.104033 0.361890 0.697730
Si Si6 0.185954 0.154759 0.213579
O O1 0.750000 0.250000 0.500000
O O2 0.824072 0.324996 0.344206
O O3 0.860370 0.210203 0.355127
O O4 0.931694 0.288403 0.512237
O O5 0.425616 0.295038 0.158945
O O6 0.750000 0.500000 0.186014
O O7 0.594170 0.504199 0.309579
O O8 0.633394 0.593835 0.183348
O O9 0.595397 0.504168 0.056751
O O10 0.367381 0.093133 0.404001
O O11 0.250000 0.000000 0.433527
O O12 0.193587 0.356717 0.789720
O O13 0.000000 0.384893 0.750000
#
# Coordination Sequence:
#
# PCOD9507230 Si02
#       6
#    16   8  16  16  16  16
#     4  11  24  41  69 102 142 198 250 319 398 470
#     4  12  25  45  70 110 154 192 261 335 384 484
#     4  10  20  39  73 101 139 186 258 309 377 468
#     4  10  21  43  71 105 141 198 251 313 386 461
#     4  12  24  42  69 108 150 196 257 329 393 476
#     4  11  23  42  69 102 142 202 254 312 399 469
#
# _framework density 25.093359
#
# number of rings (size 3 to 8) (size 9 to 14) (size 15 to 20)
#    0.000    1.091    5.455    2.455    2.545    1.455 
#    3.273    0.909    4.000    0.000    0.000    0.000 
#    0.000    0.000    0.000    0.000    0.000    0.000 
#
# Total GULP energy -245782.939557 kJ/mol
# GULP energy per Si atom -5585.975899 kJ/mol
# Density = 2.503625 g / cm^3
# Si number density = 25.093359 Si / 1000 Ang^3
#
#
#
# Elastic Constant Matrix: (Units=GPa)
#
#
# Indices 1 2 3 4 5 6 
#
# 1 52.0421 -1.5074 35.5069 0.0000 0.0000 0.0000
# 2 -1.5074 103.7070 35.8570 0.0000 0.0000 0.0000
# 3 35.5069 35.8570 186.2896 0.0000 0.0000 0.0000
# 4 0.0000 0.0000 0.0000 29.3661 0.0000 0.0000
# 5 0.0000 0.0000 0.0000 0.0000 26.9055 0.0000
# 6 0.0000 0.0000 0.0000 0.0000 0.0000 22.6266
#
#
#
# Elastic Compliance Matrix: (Units=1/GPa)
#
#
# Indices 1 2 3 4 5 6 
#
# 1 0.022444 0.001934 -0.004650 0.000000 0.000000 0.000000
# 2 0.001934 0.010497 -0.002389 0.000000 0.000000 0.000000
# 3 -0.004650 -0.002389 0.006714 0.000000 0.000000 0.000000
# 4 0.000000 0.000000 0.000000 0.034053 0.000000 0.000000
# 5 0.000000 0.000000 0.000000 0.000000 0.037167 0.000000
# 6 0.000000 0.000000 0.000000 0.000000 0.000000 0.044196
#
#
# Mechanical properties :
#
#
# Convention : Reuss Voigt Hill
#
# Bulk Modulus (GPa) = 33.96227 53.52797 43.74512
# Shear Modulus (GPa) = 28.55587 33.92512 31.24049
#
# Velocity S-wave (km/s) = 3.37706 3.68088 3.53224
# Velocity P-wave (km/s) = 5.36375 6.28037 5.84007
#
# Compressibility (1/GPa) = 0.02944444
#
# Stress axis : x y z
#
# Youngs Moduli (GPa) = 44.55571 95.26834 148.93975
#
# Poissons Ratio (x) = -0.18425 0.69258
# Poissons Ratio (y) = -0.08617 0.35582
# Poissons Ratio (z) = 0.20719 0.22760
#
# Static dielectric constant tensor:
#      x y z
#    x 2.002060 0.000000 0.000000 
#    y 0.000000 1.937760 0.000000 
#    z 0.000000 0.000000 2.025770 
# 
# From -- ./inp_files/13300.got.cif
#   From: 2010.05.17/outbox.cif.g08.bks.cpg/sg68_7_cif.got.tgz:13300.got - 2010.06.03 18:57:09.
