data_PCOD9507651
_publ_section_title
;
Structure prediction by ZEFSAII (Michael W. Deem and Ramdas Pophale) SiO2 
 PCOD9507651
Probable space group: C C C A
;
_chemical_formula_sum "Si O2"
_cell_formula_units_Z 80
_cell_length_a 21.471857
_cell_length_b 14.227435
_cell_length_c 13.302522
_cell_angle_alpha 90.000000
_cell_angle_beta 90.000000
_cell_angle_gamma 90.000000
_cell_volume 4063.780127
_symmetry_space_group_name_H-M "C C C A"
_symmetry_group_IT_number 68
_space_group.IT_coordinate_system_code '2'
_symmetry_cell_setting 'orthorhombic'
loop_
_space_group_symop_operation_xyz
x,y,z
-x,1/2-y,z
x,1/2-y,1/2-z
-x,y,1/2-z
-x,-y,-z
x,1/2+y,-z
-x,1/2+y,1/2+z
x,-y,1/2+z
1/2+x,1/2+y,z
1/2-x,-y,z
1/2+x,-y,1/2-z
1/2-x,1/2+y,1/2-z
1/2-x,1/2-y,-z
1/2+x,y,-z
1/2-x,y,1/2+z
1/2+x,1/2-y,1/2+z
loop_
_atom_site_type_symbol
_atom_site_label
_atom_site_fract_x
_atom_site_fract_y
_atom_site_fract_z
Si Si1 0.318516 0.953225 0.715941
Si Si2 0.930586 0.247524 0.417646
Si Si3 0.321735 0.340812 0.473918
Si Si4 0.070620 0.407720 0.254593
Si Si5 0.248843 0.194943 0.340511
O O1 0.337854 0.923336 0.602823
O O2 0.303610 0.864766 0.788728
O O3 0.250000 0.000000 0.709111
O O4 0.373256 0.019375 0.755980
O O5 0.878927 0.273969 0.497826
O O6 0.920643 0.150143 0.358562
O O7 0.928477 0.329473 0.333102
O O8 0.000000 0.250000 0.460916
O O9 0.274207 0.279264 0.408289
O O10 0.290704 0.366496 0.581039
O O11 0.000000 0.448242 0.250000
O O12 0.213296 0.250000 0.250000
#
# Coordination Sequence:
#
# PCOD9507651 Si02
#       5
#    16  16  16  16  16
#     4  11  23  37  57  91 119 146 193 241 295 343
#     4   9  19  38  61  81 107 158 202 227 282 351
#     4  10  21  37  60  85 115 150 193 242 286 343
#     4   9  20  39  60  82 117 157 192 237 288 347
#     4   9  21  38  57  82 117 156 188 232 294 350
#
# _framework density 19.686104
#
# number of rings (size 3 to 8) (size 9 to 14) (size 15 to 20)
#    0.000    2.400    0.000    2.400   11.200    2.400 
#    3.600    2.000    0.000    0.000    0.000    0.000 
#    0.000    0.000    0.000    0.000    0.000    0.000 
#
# Total GULP energy -222943.368819 kJ/mol
# GULP energy per Si atom -5573.584220 kJ/mol
# Density = 1.964130 g / cm^3
# Si number density = 19.686104 Si / 1000 Ang^3
#
#
#
# Elastic Constant Matrix: (Units=GPa)
#
#
# Indices 1 2 3 4 5 6 
#
# 1 93.9443 17.8555 32.3695 0.0000 0.0000 0.0000
# 2 17.8555 47.6193 15.6258 0.0000 0.0000 0.0000
# 3 32.3695 15.6258 95.1168 0.0000 0.0000 0.0000
# 4 0.0000 0.0000 0.0000 22.0616 0.0000 0.0000
# 5 0.0000 0.0000 0.0000 0.0000 -12.2595 0.0000
# 6 0.0000 0.0000 0.0000 0.0000 0.0000 34.6481
#
#
#
# Elastic Compliance Matrix: (Units=1/GPa)
#
#
# Indices 1 2 3 4 5 6 
#
# 1 0.012588 -0.003503 -0.003708 0.000000 0.000000 0.000000
# 2 -0.003503 0.023171 -0.002614 0.000000 0.000000 0.000000
# 3 -0.003708 -0.002614 0.012205 0.000000 0.000000 0.000000
# 4 0.000000 0.000000 0.000000 0.045328 0.000000 0.000000
# 5 0.000000 0.000000 0.000000 0.000000 -0.081570 0.000000
# 6 0.000000 0.000000 0.000000 0.000000 0.000000 0.028862
#
#
# Mechanical properties :
#
#
# Convention : Reuss Voigt Hill
#
# Bulk Modulus (GPa) = 35.32023 40.93132 38.12577
# Shear Modulus (GPa) = 71.76298 20.27868 46.02083
#
# Velocity S-wave (km/s) = 6.04423 3.21300 4.84025
# Velocity P-wave (km/s) = 8.16646 5.88231 7.11662
#
# Compressibility (1/GPa) = 0.02831239
#
# Stress axis : x y z
#
# Youngs Moduli (GPa) = 79.43935 43.15669 81.93429
#
# Poissons Ratio (x) = 0.15119 0.30385
# Poissons Ratio (y) = 0.27830 0.21421
# Poissons Ratio (z) = 0.29459 0.11283
#
# Static dielectric constant tensor:
#      x y z
#    x 1.726910 0.000000 0.000000 
#    y 0.000000 1.734660 0.000000 
#    z 0.000000 0.000000 1.726600 
# 
# From -- ./inp_files/13199.got.cif
#   From: 2010.05.17/outbox.cif.g08.bks.cpg/sg68_7_cif.got.tgz:13199.got - 2010.06.03 18:57:09.
