data_PCOD9507403
_publ_section_title
;
Structure prediction by ZEFSAII (Michael W. Deem and Ramdas Pophale) SiO2 
 PCOD9507403
Probable space group: C C C A
;
_chemical_formula_sum "Si O2"
_cell_formula_units_Z 48
_cell_length_a 8.713931
_cell_length_b 16.806278
_cell_length_c 11.824130
_cell_angle_alpha 90.000000
_cell_angle_beta 90.000000
_cell_angle_gamma 90.000000
_cell_volume 1731.629021
_symmetry_space_group_name_H-M "C C C A"
_symmetry_group_IT_number 68
_space_group.IT_coordinate_system_code '2'
_symmetry_cell_setting 'orthorhombic'
loop_
_space_group_symop_operation_xyz
x,y,z
-x,1/2-y,z
x,1/2-y,1/2-z
-x,y,1/2-z
-x,-y,-z
x,1/2+y,-z
-x,1/2+y,1/2+z
x,-y,1/2+z
1/2+x,1/2+y,z
1/2-x,-y,z
1/2+x,-y,1/2-z
1/2-x,1/2+y,1/2-z
1/2-x,1/2-y,-z
1/2+x,y,-z
1/2-x,y,1/2+z
1/2+x,1/2-y,1/2+z
loop_
_atom_site_type_symbol
_atom_site_label
_atom_site_fract_x
_atom_site_fract_y
_atom_site_fract_z
Si Si1 0.750000 0.000000 0.090281
Si Si2 0.000000 0.498645 0.250000
Si Si3 0.464855 0.629778 0.091089
Si Si4 0.500000 0.750000 0.586158
Si Si5 0.733164 0.750000 0.250000
O O1 0.628170 0.041103 0.177459
O O2 0.655455 0.930902 0.032813
O O3 0.933307 0.434009 0.159734
O O4 0.371025 0.688487 0.176786
O O5 0.550734 0.680900 0.999277
O O6 0.642847 0.718487 0.658587
#
# Coordination Sequence:
#
# PCOD9507403 Si02
#       5
#     8   8  16   8   8
#     4   8  20  38  70 104 142 186 232 300 362 428
#     4   8  18  37  70 101 138 188 226 294 356 425
#     4  10  20  42  69 102 140 189 235 299 353 430
#     4  11  24  41  70 106 138 193 242 295 362 430
#     4  11  24  41  70 104 148 182 244 302 352 432
#
# _framework density 27.719563999999998
#
# number of rings (size 3 to 8) (size 9 to 14) (size 15 to 20)
#    2.000    0.333    0.000    3.000    0.000    2.667 
#    0.000    3.333    0.000    0.000    0.000    0.000 
#    0.000    0.000    0.000    0.000    0.000    0.000 
#
# Total GULP energy -133752.258354 kJ/mol
# GULP energy per Si atom -5573.010765 kJ/mol
# Density = 2.765647 g / cm^3
# Si number density = 27.719564 Si / 1000 Ang^3
#
#
#
# Elastic Constant Matrix: (Units=GPa)
#
#
# Indices 1 2 3 4 5 6 
#
# 1 68.8624 16.1232 26.9302 0.0000 0.0000 0.0000
# 2 16.1232 84.0758 47.7894 0.0000 0.0000 0.0000
# 3 26.9302 47.7894 86.0278 0.0000 0.0000 0.0000
# 4 0.0000 0.0000 0.0000 46.9992 0.0000 0.0000
# 5 0.0000 0.0000 0.0000 0.0000 47.7442 0.0000
# 6 0.0000 0.0000 0.0000 0.0000 0.0000 56.5504
#
#
#
# Elastic Compliance Matrix: (Units=1/GPa)
#
#
# Indices 1 2 3 4 5 6 
#
# 1 0.016554 -0.000335 -0.004996 0.000000 0.000000 0.000000
# 2 -0.000335 0.017390 -0.009555 0.000000 0.000000 0.000000
# 3 -0.004996 -0.009555 0.018496 0.000000 0.000000 0.000000
# 4 0.000000 0.000000 0.000000 0.021277 0.000000 0.000000
# 5 0.000000 0.000000 0.000000 0.000000 0.020945 0.000000
# 6 0.000000 0.000000 0.000000 0.000000 0.000000 0.017683
#
#
# Mechanical properties :
#
#
# Convention : Reuss Voigt Hill
#
# Bulk Modulus (GPa) = 44.11620 46.73907 45.42764
# Shear Modulus (GPa) = 33.40618 40.13364 36.76991
#
# Velocity S-wave (km/s) = 3.47529 3.80918 3.64606
# Velocity P-wave (km/s) = 5.66156 6.02034 5.84371
#
# Compressibility (1/GPa) = 0.02266741
#
# Stress axis : x y z
#
# Youngs Moduli (GPa) = 60.40868 57.50587 54.06519
#
# Poissons Ratio (x) = 0.01925 0.27012
# Poissons Ratio (y) = 0.02022 0.51661
# Poissons Ratio (z) = 0.30181 0.54948
#
# Static dielectric constant tensor:
#      x y z
#    x 2.135880 0.000000 0.000000 
#    y 0.000000 2.119200 0.000000 
#    z 0.000000 0.000000 2.257500 
# 
# From -- ./inp_files/3785.got.cif
#   From: 2010.05.17/outbox.cif.g08.bks.cpg/sg68_2_cif.got.tgz:3785.got - 2010.06.03 18:57:09.
