data_PCOD9507282
_publ_section_title
;
Structure prediction by ZEFSAII (Michael W. Deem and Ramdas Pophale) SiO2 
 PCOD9507282
Probable space group: C C C A
;
_chemical_formula_sum "Si O2"
_cell_formula_units_Z 64
_cell_length_a 18.428790
_cell_length_b 14.045224
_cell_length_c 10.316569
_cell_angle_alpha 90.000000
_cell_angle_beta 90.000000
_cell_angle_gamma 90.000000
_cell_volume 2670.304443
_symmetry_space_group_name_H-M "C C C A"
_symmetry_group_IT_number 68
_space_group.IT_coordinate_system_code '2'
_symmetry_cell_setting 'orthorhombic'
loop_
_space_group_symop_operation_xyz
x,y,z
-x,1/2-y,z
x,1/2-y,1/2-z
-x,y,1/2-z
-x,-y,-z
x,1/2+y,-z
-x,1/2+y,1/2+z
x,-y,1/2+z
1/2+x,1/2+y,z
1/2-x,-y,z
1/2+x,-y,1/2-z
1/2-x,1/2+y,1/2-z
1/2-x,1/2-y,-z
1/2+x,y,-z
1/2-x,y,1/2+z
1/2+x,1/2-y,1/2+z
loop_
_atom_site_type_symbol
_atom_site_label
_atom_site_fract_x
_atom_site_fract_y
_atom_site_fract_z
Si Si1 0.793108 0.362340 0.757483
Si Si2 0.052805 0.595553 0.130334
Si Si3 0.461576 0.368380 0.612852
Si Si4 0.303671 0.159576 0.971533
O O1 0.777244 0.250000 0.750000
O O2 0.803087 0.104323 0.890624
O O3 0.750000 0.250000 0.000000
O O4 0.729313 0.398120 0.850159
O O5 0.055923 0.481445 0.115093
O O6 0.132123 0.628771 0.166788
O O7 0.000000 0.617829 0.250000
O O8 0.019733 0.641001 0.001813
O O9 0.500000 0.347291 0.750000
O O10 0.385956 0.318145 0.572919
#
# Coordination Sequence:
#
# PCOD9507282 Si02
#       4
#    16  16  16  16
#     4  10  22  40  64  87 129 168 220 261 335 397
#     4  10  20  40  64  94 126 169 213 272 332 399
#     4  10  22  39  65  96 131 163 221 277 330 388
#     4  10  22  42  62  89 130 174 212 271 324 398
#
# _framework density 23.967303999999999
#
# number of rings (size 3 to 8) (size 9 to 14) (size 15 to 20)
#    0.000    2.000    2.500    0.000    3.500    1.500 
#    0.000    2.500    0.000    0.000    0.000    0.000 
#    0.000    0.000    0.000    0.000    0.000    0.000 
#
# Total GULP energy -178787.854624 kJ/mol
# GULP energy per Si atom -5587.120457 kJ/mol
# Density = 2.391275 g / cm^3
# Si number density = 23.967304 Si / 1000 Ang^3
#
#
#
# Elastic Constant Matrix: (Units=GPa)
#
#
# Indices 1 2 3 4 5 6 
#
# 1 171.9382 8.5067 113.8699 0.0000 0.0000 0.0000
# 2 8.5067 62.4637 19.9348 0.0000 0.0000 0.0000
# 3 113.8699 19.9348 233.8609 0.0000 0.0000 0.0000
# 4 0.0000 0.0000 0.0000 -80.3212 0.0000 0.0000
# 5 0.0000 0.0000 0.0000 0.0000 52.6169 0.0000
# 6 0.0000 0.0000 0.0000 0.0000 0.0000 9.6443
#
#
#
# Elastic Compliance Matrix: (Units=1/GPa)
#
#
# Indices 1 2 3 4 5 6 
#
# 1 0.008586 0.000170 -0.004195 0.000000 0.000000 0.000000
# 2 0.000170 0.016460 -0.001486 0.000000 0.000000 0.000000
# 3 -0.004195 -0.001486 0.006445 0.000000 0.000000 0.000000
# 4 0.000000 0.000000 0.000000 -0.012450 0.000000 0.000000
# 5 0.000000 0.000000 0.000000 0.000000 0.019005 0.000000
# 6 0.000000 0.000000 0.000000 0.000000 0.000000 0.103688
#
#
# Mechanical properties :
#
#
# Convention : Reuss Voigt Hill
#
# Bulk Modulus (GPa) = 48.85383 83.65395 66.25389
# Shear Modulus (GPa) = 31.33213 18.11810 24.72511
#
# Velocity S-wave (km/s) = 3.61956 2.75244 3.21537
# Velocity P-wave (km/s) = 6.15598 6.71419 6.44114
#
# Compressibility (1/GPa) = 0.02046922
#
# Stress axis : x y z
#
# Youngs Moduli (GPa) = 116.46969 60.75207 155.15147
#
# Poissons Ratio (x) = -0.01030 0.65087
# Poissons Ratio (y) = -0.01975 0.23050
# Poissons Ratio (z) = 0.48860 0.09026
#
# Static dielectric constant tensor:
#      x y z
#    x 1.888860 0.000000 0.000000 
#    y 0.000000 1.973600 0.000000 
#    z 0.000000 0.000000 1.996840 
# 
# From -- ./inp_files/14004.got.cif
#   From: 2010.05.17/outbox.cif.g08.bks.cpg/sg68_8_cif.got.tgz:14004.got - 2010.06.03 18:57:09.
