data_PCOD9507497
_publ_section_title
;
Structure prediction by ZEFSAII (Michael W. Deem and Ramdas Pophale) SiO2 
 PCOD9507497
Probable space group: C C C A
;
_chemical_formula_sum "Si O2"
_cell_formula_units_Z 120
_cell_length_a 15.334768
_cell_length_b 25.744639
_cell_length_c 14.337895
_cell_angle_alpha 90.000000
_cell_angle_beta 90.000000
_cell_angle_gamma 90.000000
_cell_volume 5660.429842
_symmetry_space_group_name_H-M "C C C A"
_symmetry_group_IT_number 68
_space_group.IT_coordinate_system_code '2'
_symmetry_cell_setting 'orthorhombic'
loop_
_space_group_symop_operation_xyz
x,y,z
-x,1/2-y,z
x,1/2-y,1/2-z
-x,y,1/2-z
-x,-y,-z
x,1/2+y,-z
-x,1/2+y,1/2+z
x,-y,1/2+z
1/2+x,1/2+y,z
1/2-x,-y,z
1/2+x,-y,1/2-z
1/2-x,1/2+y,1/2-z
1/2-x,1/2-y,-z
1/2+x,y,-z
1/2-x,y,1/2+z
1/2+x,1/2-y,1/2+z
loop_
_atom_site_type_symbol
_atom_site_label
_atom_site_fract_x
_atom_site_fract_y
_atom_site_fract_z
Si Si1 0.776397 0.946110 0.334133
Si Si2 0.762462 0.574285 0.371632
Si Si3 0.270917 0.169095 0.105378
Si Si4 0.888200 0.980935 0.572123
Si Si5 0.463724 0.960475 0.630821
Si Si6 0.160959 0.184419 0.919509
Si Si7 0.519687 0.660303 0.640215
Si Si8 0.232113 0.750000 0.250000
O O1 0.735297 0.940830 0.233017
O O2 0.756525 0.893191 0.387597
O O3 0.877969 0.953260 0.308294
O O4 0.750000 0.000000 0.381241
O O5 0.825286 0.530623 0.415159
O O6 0.668695 0.570765 0.419430
O O7 0.809158 0.628870 0.378413
O O8 0.378569 0.172005 0.113771
O O9 0.230053 0.199558 0.194946
O O10 0.219758 0.189368 0.013268
O O11 0.926216 0.975461 0.469769
O O12 0.965273 0.994819 0.644370
O O13 0.497929 0.901624 0.629957
O O14 0.183804 0.225031 0.838630
O O15 0.055473 0.185539 0.924623
O O16 0.500000 0.673613 0.750000
#
# Coordination Sequence:
#
# PCOD9507497 Si02
#       8
#    16  16  16  16  16  16  16   8
#     4  11  22  38  60  95 133 177 226 268 336 414
#     4  11  20  38  57  85 130 175 216 272 336 394
#     4  11  26  42  70 109 134 183 230 289 359 411
#     4  10  21  34  55  86 126 177 212 255 332 398
#     4  10  22  34  57  91 126 171 227 270 320 405
#     4  12  24  43  73  98 142 174 231 301 351 414
#     4  11  21  42  70 102 139 177 233 298 346 408
#     4  12  24  49  72 105 132 180 234 303 350 425
#
# _framework density 21.199802999999999
#
# number of rings (size 3 to 8) (size 9 to 14) (size 15 to 20)
#    0.000    1.067    5.333    2.800    3.733    1.067 
#    0.000    0.000    0.000    1.600    0.000    0.000 
#    0.000    0.000    0.000    0.000    0.000    0.000 
#
# Total GULP energy -334034.334927 kJ/mol
# GULP energy per Si atom -5567.238915 kJ/mol
# Density = 2.115155 g / cm^3
# Si number density = 21.199803 Si / 1000 Ang^3
#
#
#
# Elastic Constant Matrix: (Units=GPa)
#
#
# Indices 1 2 3 4 5 6 
#
# 1 89.5349 14.0883 36.4353 0.0000 0.0000 0.0000
# 2 14.0883 100.7866 31.8054 0.0000 0.0000 0.0000
# 3 36.4353 31.8054 108.7852 0.0000 0.0000 0.0000
# 4 0.0000 0.0000 0.0000 233.9090 0.0000 0.0000
# 5 0.0000 0.0000 0.0000 0.0000 20.5737 0.0000
# 6 0.0000 0.0000 0.0000 0.0000 0.0000 11.7950
#
#
#
# Elastic Compliance Matrix: (Units=1/GPa)
#
#
# Indices 1 2 3 4 5 6 
#
# 1 0.012953 -0.000486 -0.004196 0.000000 0.000000 0.000000
# 2 -0.000486 0.010949 -0.003038 0.000000 0.000000 0.000000
# 3 -0.004196 -0.003038 0.011486 0.000000 0.000000 0.000000
# 4 0.000000 0.000000 0.000000 0.004275 0.000000 0.000000
# 5 0.000000 0.000000 0.000000 0.000000 0.048606 0.000000
# 6 0.000000 0.000000 0.000000 0.000000 0.000000 0.084782
#
#
# Mechanical properties :
#
#
# Convention : Reuss Voigt Hill
#
# Bulk Modulus (GPa) = 50.13444 51.52943 50.83193
# Shear Modulus (GPa) = 25.62258 67.70739 46.66499
#
# Velocity S-wave (km/s) = 3.48030 5.65748 4.69678
# Velocity P-wave (km/s) = 6.31267 8.18752 7.31045
#
# Compressibility (1/GPa) = 0.01994637
#
# Stress axis : x y z
#
# Youngs Moduli (GPa) = 77.20268 91.33499 87.06196
#
# Poissons Ratio (x) = 0.04443 0.36532
# Poissons Ratio (y) = 0.03755 0.26451
# Poissons Ratio (z) = 0.32395 0.27749
#
# Static dielectric constant tensor:
#      x y z
#    x 1.872020 0.000000 0.000000 
#    y 0.000000 1.834760 0.000000 
#    z 0.000000 0.000000 1.808590 
# 
# From -- ./inp_files/22845.got.cif
#   From: 2010.05.17/outbox.cif.g08.bks.cpg/sg68_12_cif.got.tgz:22845.got - 2010.06.03 18:57:09.
