data_PCOD9507562
_publ_section_title
;
Structure prediction by ZEFSAII (Michael W. Deem and Ramdas Pophale) SiO2 
 PCOD9507562
Probable space group: C C C A
;
_chemical_formula_sum "Si O2"
_cell_formula_units_Z 64
_cell_length_a 8.436047
_cell_length_b 22.982239
_cell_length_c 15.380686
_cell_angle_alpha 90.000000
_cell_angle_beta 90.000000
_cell_angle_gamma 90.000000
_cell_volume 2981.995841
_symmetry_space_group_name_H-M "C C C A"
_symmetry_group_IT_number 68
_space_group.IT_coordinate_system_code '2'
_symmetry_cell_setting 'orthorhombic'
loop_
_space_group_symop_operation_xyz
x,y,z
-x,1/2-y,z
x,1/2-y,1/2-z
-x,y,1/2-z
-x,-y,-z
x,1/2+y,-z
-x,1/2+y,1/2+z
x,-y,1/2+z
1/2+x,1/2+y,z
1/2-x,-y,z
1/2+x,-y,1/2-z
1/2-x,1/2+y,1/2-z
1/2-x,1/2-y,-z
1/2+x,y,-z
1/2-x,y,1/2+z
1/2+x,1/2-y,1/2+z
loop_
_atom_site_type_symbol
_atom_site_label
_atom_site_fract_x
_atom_site_fract_y
_atom_site_fract_z
Si Si1 0.347474 0.873064 0.307576
Si Si2 0.466020 0.465584 0.912408
Si Si3 0.945775 0.811205 0.148615
Si Si4 0.850532 0.079952 0.853173
O O1 0.500000 0.854075 0.250000
O O2 0.406624 0.920442 0.376688
O O3 0.242053 0.822829 0.351021
O O4 0.228969 0.902768 0.238117
O O5 0.298632 0.431859 0.916210
O O6 0.440242 0.518933 0.845871
O O7 0.500000 0.500000 0.000000
O O8 0.000000 0.750000 0.108751
O O9 0.000000 0.808717 0.250000
O O10 0.037560 0.868116 0.114149
#
# Coordination Sequence:
#
# PCOD9507562 Si02
#       4
#    16  16  16  16
#     4   9  19  35  57  85 115 151 192 238 293 355
#     4  10  21  36  55  83 117 148 188 241 294 353
#     4   9  18  34  55  81 113 149 194 246 291 338
#     4   9  20  35  53  80 113 148 191 236 294 353
#
# _framework density 21.462136999999998
#
# number of rings (size 3 to 8) (size 9 to 14) (size 15 to 20)
#    0.000    2.750    0.000    0.000    0.000   22.000 
#    0.000   21.250    0.000    6.000    0.000    0.000 
#    0.000    0.000    0.000    0.000    0.000    2.000 
#
# Total GULP energy -178545.526709 kJ/mol
# GULP energy per Si atom -5579.547710 kJ/mol
# Density = 2.141329 g / cm^3
# Si number density = 21.462137 Si / 1000 Ang^3
#
#
#
# Elastic Constant Matrix: (Units=GPa)
#
#
# Indices 1 2 3 4 5 6 
#
# 1 124.8722 89.3826 36.8936 0.0000 0.0000 0.0000
# 2 89.3826 134.8981 6.3683 0.0000 0.0000 0.0000
# 3 36.8936 6.3683 46.7815 0.0000 0.0000 0.0000
# 4 0.0000 0.0000 0.0000 -13.0951 0.0000 0.0000
# 5 0.0000 0.0000 0.0000 0.0000 14.4004 0.0000
# 6 0.0000 0.0000 0.0000 0.0000 0.0000 33.8083
#
#
#
# Elastic Compliance Matrix: (Units=1/GPa)
#
#
# Indices 1 2 3 4 5 6 
#
# 1 0.023430 -0.014747 -0.016471 0.000000 0.000000 0.000000
# 2 -0.014747 0.016743 0.009351 0.000000 0.000000 0.000000
# 3 -0.016471 0.009351 0.033092 0.000000 0.000000 0.000000
# 4 0.000000 0.000000 0.000000 -0.076365 0.000000 0.000000
# 5 0.000000 0.000000 0.000000 0.000000 0.069443 0.000000
# 6 0.000000 0.000000 0.000000 0.000000 0.000000 0.029579
#
#
# Mechanical properties :
#
#
# Convention : Reuss Voigt Hill
#
# Bulk Modulus (GPa) = 33.86141 63.53788 48.69965
# Shear Modulus (GPa) = 33.44483 18.61655 26.03069
#
# Velocity S-wave (km/s) = 3.95184 2.94838 3.48640
# Velocity P-wave (km/s) = 6.05262 6.42336 6.24074
#
# Compressibility (1/GPa) = 0.02953214
#
# Stress axis : x y z
#
# Youngs Moduli (GPa) = 42.67948 59.72635 30.21848
#
# Poissons Ratio (x) = 0.88080 0.49772
# Poissons Ratio (y) = 0.62941 -0.28258
# Poissons Ratio (z) = 0.70296 -0.55851
#
# Static dielectric constant tensor:
#      x y z
#    x 1.866890 0.000000 0.000000 
#    y 0.000000 1.808690 0.000000 
#    z 0.000000 0.000000 1.851030 
# 
# From -- ./inp_files/19211.got.cif
#   From: 2010.05.17/outbox.cif.g08.bks.cpg/sg68_10_cif.got.tgz:19211.got - 2010.06.03 18:57:09.
