data_PCOD9507842
_publ_section_title
;
Structure prediction by ZEFSAII (Michael W. Deem and Ramdas Pophale) SiO2 
 PCOD9507842
Probable space group: C C C A
;
_chemical_formula_sum "Si O2"
_cell_formula_units_Z 64
_cell_length_a 7.927423
_cell_length_b 22.097197
_cell_length_c 14.674010
_cell_angle_alpha 90.000000
_cell_angle_beta 90.000000
_cell_angle_gamma 90.000000
_cell_volume 2570.502500
_symmetry_space_group_name_H-M "C C C A"
_symmetry_group_IT_number 68
_space_group.IT_coordinate_system_code '2'
_symmetry_cell_setting 'orthorhombic'
loop_
_space_group_symop_operation_xyz
x,y,z
-x,1/2-y,z
x,1/2-y,1/2-z
-x,y,1/2-z
-x,-y,-z
x,1/2+y,-z
-x,1/2+y,1/2+z
x,-y,1/2+z
1/2+x,1/2+y,z
1/2-x,-y,z
1/2+x,-y,1/2-z
1/2-x,1/2+y,1/2-z
1/2-x,1/2-y,-z
1/2+x,y,-z
1/2-x,y,1/2+z
1/2+x,1/2-y,1/2+z
loop_
_atom_site_type_symbol
_atom_site_label
_atom_site_fract_x
_atom_site_fract_y
_atom_site_fract_z
Si Si1 0.832813 0.118563 0.134071
Si Si2 0.823023 0.623968 0.192002
Si Si3 0.297144 0.750346 0.605840
Si Si4 0.486673 0.069621 0.474652
O O1 0.807957 0.094849 0.236663
O O2 0.788212 0.189450 0.141888
O O3 0.686855 0.086825 0.074080
O O4 0.989482 0.107175 0.068126
O O5 0.753361 0.688487 0.158004
O O6 0.876379 0.587258 0.102520
O O7 0.000000 0.631784 0.250000
O O8 0.500000 0.750000 0.612615
O O9 0.250000 0.750000 0.500000
O O10 0.500000 0.000000 0.500000
#
# Coordination Sequence:
#
# PCOD9507842 Si02
#       4
#    16  16  16  16
#     4  11  22  41  67  96 128 172 218 271 333 399
#     4  10  21  38  67  98 126 172 223 262 342 407
#     4  12  20  37  69 101 134 169 211 276 340 406
#     4  11  23  42  64  92 131 174 224 272 318 385
#
# _framework density 24.897856000000001
#
# number of rings (size 3 to 8) (size 9 to 14) (size 15 to 20)
#    0.000    1.000    7.500    1.500    0.000    0.000 
#    0.000   16.250    0.000    1.500    0.000    0.000 
#    0.000    0.000    0.000    0.000    0.000    0.000 
#
# Total GULP energy -179201.895211 kJ/mol
# GULP energy per Si atom -5600.059225 kJ/mol
# Density = 2.484119 g / cm^3
# Si number density = 24.897856 Si / 1000 Ang^3
#
#
#
# Elastic Constant Matrix: (Units=GPa)
#
#
# Indices 1 2 3 4 5 6 
#
# 1 76.1286 21.9377 17.6167 0.0000 0.0000 0.0000
# 2 21.9377 156.9693 59.1184 0.0000 0.0000 0.0000
# 3 17.6167 59.1184 203.6485 0.0000 0.0000 0.0000
# 4 0.0000 0.0000 0.0000 -2.7769 0.0000 0.0000
# 5 0.0000 0.0000 0.0000 0.0000 35.9177 0.0000
# 6 0.0000 0.0000 0.0000 0.0000 0.0000 16.1668
#
#
#
# Elastic Compliance Matrix: (Units=1/GPa)
#
#
# Indices 1 2 3 4 5 6 
#
# 1 0.013778 -0.001658 -0.000711 0.000000 0.000000 0.000000
# 2 -0.001658 0.007352 -0.001991 0.000000 0.000000 0.000000
# 3 -0.000711 -0.001991 0.005550 0.000000 0.000000 0.000000
# 4 0.000000 0.000000 0.000000 -0.360119 0.000000 0.000000
# 5 0.000000 0.000000 0.000000 0.000000 0.027841 0.000000
# 6 0.000000 0.000000 0.000000 0.000000 0.000000 0.061855
#
#
# Mechanical properties :
#
#
# Convention : Reuss Voigt Hill
#
# Bulk Modulus (GPa) = 55.67591 70.45467 63.06529
# Shear Modulus (GPa) = -21.83062 32.39975 5.28457
#
# Velocity S-wave (km/s) = -2.96431 3.61128 1.45846
# Velocity P-wave (km/s) = 3.27019 6.76368 5.31232
#
# Compressibility (1/GPa) = 0.01796109
#
# Stress axis : x y z
#
# Youngs Moduli (GPa) = 72.58017 136.01360 180.18540
#
# Poissons Ratio (x) = 0.22550 0.12803
# Poissons Ratio (y) = 0.12033 0.35873
# Poissons Ratio (z) = 0.05157 0.27079
#
# Static dielectric constant tensor:
#      x y z
#    x 2.141440 0.000000 0.000000 
#    y 0.000000 1.941720 0.000000 
#    z 0.000000 0.000000 1.974600 
# 
# From -- ./inp_files/19194.got.cif
#   From: 2010.05.17/outbox.cif.g08.bks.cpg/sg68_10_cif.got.tgz:19194.got - 2010.06.03 18:57:09.
