data_PCOD9507673
_publ_section_title
;
Structure prediction by ZEFSAII (Michael W. Deem and Ramdas Pophale) SiO2 
 PCOD9507673
Probable space group: C C C A
;
_chemical_formula_sum "Si O2"
_cell_formula_units_Z 64
_cell_length_a 11.024786
_cell_length_b 13.034498
_cell_length_c 19.661836
_cell_angle_alpha 90.000000
_cell_angle_beta 90.000000
_cell_angle_gamma 90.000000
_cell_volume 2825.455992
_symmetry_space_group_name_H-M "C C C A"
_symmetry_group_IT_number 68
_space_group.IT_coordinate_system_code '2'
_symmetry_cell_setting 'orthorhombic'
loop_
_space_group_symop_operation_xyz
x,y,z
-x,1/2-y,z
x,1/2-y,1/2-z
-x,y,1/2-z
-x,-y,-z
x,1/2+y,-z
-x,1/2+y,1/2+z
x,-y,1/2+z
1/2+x,1/2+y,z
1/2-x,-y,z
1/2+x,-y,1/2-z
1/2-x,1/2+y,1/2-z
1/2-x,1/2-y,-z
1/2+x,y,-z
1/2-x,y,1/2+z
1/2+x,1/2-y,1/2+z
loop_
_atom_site_type_symbol
_atom_site_label
_atom_site_fract_x
_atom_site_fract_y
_atom_site_fract_z
Si Si1 0.569670 0.854370 0.949257
Si Si2 0.556225 0.060825 0.594982
Si Si3 0.289039 0.390270 0.873430
Si Si4 0.367849 0.870853 0.266991
O O1 0.500000 0.750000 0.962622
O O2 0.688799 0.820539 0.907184
O O3 0.488506 0.941668 0.909838
O O4 0.602320 0.906160 0.021317
O O5 0.429830 0.123931 0.609152
O O6 0.646827 0.094614 0.655440
O O7 0.250000 0.500000 0.902831
O O8 0.274914 0.397615 0.792311
O O9 0.377825 0.750000 0.250000
O O10 0.500000 0.918797 0.250000
#
# Coordination Sequence:
#
# PCOD9507673 Si02
#       4
#    16  16  16  16
#     4  10  21  37  62  91 130 163 198 264 325 370
#     4   9  20  39  60  89 123 163 213 256 305 380
#     4   9  19  38  58  84 119 162 206 258 304 368
#     4   9  18  35  61  84 110 153 209 255 288 360
#
# _framework density 22.651209999999999
#
# number of rings (size 3 to 8) (size 9 to 14) (size 15 to 20)
#    0.000    2.750    0.000    0.000    7.000    1.000 
#    4.500    3.750    0.000    0.000    0.000    0.000 
#    0.000    0.000    0.000    0.000    0.000    0.000 
#
# Total GULP energy -178153.513197 kJ/mol
# GULP energy per Si atom -5567.297287 kJ/mol
# Density = 2.259965 g / cm^3
# Si number density = 22.651210 Si / 1000 Ang^3
#
#
#
# Elastic Constant Matrix: (Units=GPa)
#
#
# Indices 1 2 3 4 5 6 
#
# 1 38.7778 8.2843 40.4458 0.0000 0.0000 0.0000
# 2 8.2843 78.9351 30.2213 0.0000 0.0000 0.0000
# 3 40.4458 30.2213 180.7707 0.0000 0.0000 0.0000
# 4 0.0000 0.0000 0.0000 18.4970 0.0000 0.0000
# 5 0.0000 0.0000 0.0000 0.0000 239.4299 0.0000
# 6 0.0000 0.0000 0.0000 0.0000 0.0000 12.8260
#
#
#
# Elastic Compliance Matrix: (Units=1/GPa)
#
#
# Indices 1 2 3 4 5 6 
#
# 1 0.033673 -0.000694 -0.007418 0.000000 0.000000 0.000000
# 2 -0.000694 0.013549 -0.002110 0.000000 0.000000 0.000000
# 3 -0.007418 -0.002110 0.007544 0.000000 0.000000 0.000000
# 4 0.000000 0.000000 0.000000 0.054063 0.000000 0.000000
# 5 0.000000 0.000000 0.000000 0.000000 0.004177 0.000000
# 6 0.000000 0.000000 0.000000 0.000000 0.000000 0.077966
#
#
# Mechanical properties :
#
#
# Convention : Reuss Voigt Hill
#
# Bulk Modulus (GPa) = 29.13490 50.70958 39.92224
# Shear Modulus (GPa) = 22.43585 68.78608 45.61097
#
# Velocity S-wave (km/s) = 3.15062 5.51665 4.49221
# Velocity P-wave (km/s) = 5.11132 7.93811 6.67605
#
# Compressibility (1/GPa) = 0.03432310
#
# Stress axis : x y z
#
# Youngs Moduli (GPa) = 29.69711 73.80471 132.54986
#
# Poissons Ratio (x) = 0.05121 0.98327
# Poissons Ratio (y) = 0.02061 0.27967
# Poissons Ratio (z) = 0.22030 0.15572
#
# Static dielectric constant tensor:
#      x y z
#    x 1.957610 0.000000 0.000000 
#    y 0.000000 2.097700 0.000000 
#    z 0.000000 0.000000 1.897470 
# 
# From -- ./inp_files/37142.got.cif
#   From: 2010.05.17/outbox.cif.g08.bks.cpg/sg68_19_cif.got.tgz:37142.got - 2010.06.03 18:57:09.
