data_PCOD9507686
_publ_section_title
;
Structure prediction by ZEFSAII (Michael W. Deem and Ramdas Pophale) SiO2 
 PCOD9507686
Probable space group: C C C A
;
_chemical_formula_sum "Si O2"
_cell_formula_units_Z 64
_cell_length_a 21.511570
_cell_length_b 14.514314
_cell_length_c 8.010354
_cell_angle_alpha 90.000000
_cell_angle_beta 90.000000
_cell_angle_gamma 90.000000
_cell_volume 2501.038238
_symmetry_space_group_name_H-M "C C C A"
_symmetry_group_IT_number 68
_space_group.IT_coordinate_system_code '2'
_symmetry_cell_setting 'orthorhombic'
loop_
_space_group_symop_operation_xyz
x,y,z
-x,1/2-y,z
x,1/2-y,1/2-z
-x,y,1/2-z
-x,-y,-z
x,1/2+y,-z
-x,1/2+y,1/2+z
x,-y,1/2+z
1/2+x,1/2+y,z
1/2-x,-y,z
1/2+x,-y,1/2-z
1/2-x,1/2+y,1/2-z
1/2-x,1/2-y,-z
1/2+x,y,-z
1/2-x,y,1/2+z
1/2+x,1/2-y,1/2+z
loop_
_atom_site_type_symbol
_atom_site_label
_atom_site_fract_x
_atom_site_fract_y
_atom_site_fract_z
Si Si1 0.679894 0.476869 0.274356
Si Si2 0.361398 0.811083 0.578708
Si Si3 0.375330 0.363084 0.921672
Si Si4 0.994545 0.393261 0.549150
O O1 0.750000 0.500000 0.317047
O O2 0.679584 0.399447 0.126926
O O3 0.643871 0.426203 0.420814
O O4 0.644493 0.570361 0.226376
O O5 0.369273 0.750000 0.750000
O O6 0.341108 0.734520 0.444661
O O7 0.427127 0.851631 0.519506
O O8 0.448830 0.347380 0.947936
O O9 0.000000 0.384464 0.750000
O O10 0.000000 0.500000 0.500000
#
# Coordination Sequence:
#
# PCOD9507686 Si02
#       4
#    16  16  16  16
#     4  11  23  40  61  88 123 163 208 251 295 354
#     4  10  21  37  64  91 116 163 207 235 307 375
#     4  11  22  40  64  89 121 161 204 250 304 365
#     4  12  20  37  67  94 124 154 200 254 308 367
#
# _framework density 25.589372999999998
#
# number of rings (size 3 to 8) (size 9 to 14) (size 15 to 20)
#    0.000    1.000    7.500    1.500    0.000    1.000 
#    0.000    3.750    0.000    1.500    0.000    0.000 
#    0.000    0.000    0.000    0.000    0.000    0.000 
#
# Total GULP energy -179245.999963 kJ/mol
# GULP energy per Si atom -5601.437499 kJ/mol
# Density = 2.553113 g / cm^3
# Si number density = 25.589373 Si / 1000 Ang^3
#
#
#
# Elastic Constant Matrix: (Units=GPa)
#
#
# Indices 1 2 3 4 5 6 
#
# 1 76.3655 1.3202 15.7719 0.0000 0.0000 0.0000
# 2 1.3202 154.5073 22.8324 0.0000 0.0000 0.0000
# 3 15.7719 22.8324 79.8506 0.0000 0.0000 0.0000
# 4 0.0000 0.0000 0.0000 39.1808 0.0000 0.0000
# 5 0.0000 0.0000 0.0000 0.0000 -2.6381 0.0000
# 6 0.0000 0.0000 0.0000 0.0000 0.0000 -0.7653
#
#
#
# Elastic Compliance Matrix: (Units=1/GPa)
#
#
# Indices 1 2 3 4 5 6 
#
# 1 0.013665 0.000295 -0.002783 0.000000 0.000000 0.000000
# 2 0.000295 0.006764 -0.001992 0.000000 0.000000 0.000000
# 3 -0.002783 -0.001992 0.013643 0.000000 0.000000 0.000000
# 4 0.000000 0.000000 0.000000 0.025523 0.000000 0.000000
# 5 0.000000 0.000000 0.000000 0.000000 -0.379057 0.000000
# 6 0.000000 0.000000 0.000000 0.000000 0.000000 -1.306604
#
#
# Mechanical properties :
#
#
# Convention : Reuss Voigt Hill
#
# Bulk Modulus (GPa) = 39.82546 43.39692 41.61119
# Shear Modulus (GPa) = -3.10803 25.20872 11.05035
#
# Velocity S-wave (km/s) = -1.10328 3.14207 2.08031
# Velocity P-wave (km/s) = 3.73820 5.49175 4.69752
#
# Compressibility (1/GPa) = 0.02510957
#
# Stress axis : x y z
#
# Youngs Moduli (GPa) = 73.18154 147.83974 73.29877
#
# Poissons Ratio (x) = -0.04354 0.20401
# Poissons Ratio (y) = -0.02155 0.14603
# Poissons Ratio (z) = 0.20368 0.29454
#
# Static dielectric constant tensor:
#      x y z
#    x 1.949270 0.000000 0.000000 
#    y 0.000000 2.024830 0.000000 
#    z 0.000000 0.000000 2.141760 
# 
# From -- ./inp_files/4964.got.cif
#   From: 2010.05.17/outbox.cif.g08.bks.cpg/sg68_3_cif.got.tgz:4964.got - 2010.06.03 18:57:09.
