data_PCOD9507281
_publ_section_title
;
Structure prediction by ZEFSAII (Michael W. Deem and Ramdas Pophale) SiO2 
 PCOD9507281
Probable space group: C C C A
;
_chemical_formula_sum "Si O2"
_cell_formula_units_Z 108
_cell_length_a 12.185288
_cell_length_b 30.463611
_cell_length_c 12.954089
_cell_angle_alpha 90.000000
_cell_angle_beta 90.000000
_cell_angle_gamma 90.000000
_cell_volume 4808.659832
_symmetry_space_group_name_H-M "C C C A"
_symmetry_group_IT_number 68
_space_group.IT_coordinate_system_code '2'
_symmetry_cell_setting 'orthorhombic'
loop_
_space_group_symop_operation_xyz
x,y,z
-x,1/2-y,z
x,1/2-y,1/2-z
-x,y,1/2-z
-x,-y,-z
x,1/2+y,-z
-x,1/2+y,1/2+z
x,-y,1/2+z
1/2+x,1/2+y,z
1/2-x,-y,z
1/2+x,-y,1/2-z
1/2-x,1/2+y,1/2-z
1/2-x,1/2-y,-z
1/2+x,y,-z
1/2-x,y,1/2+z
1/2+x,1/2-y,1/2+z
loop_
_atom_site_type_symbol
_atom_site_label
_atom_site_fract_x
_atom_site_fract_y
_atom_site_fract_z
Si Si1 0.000000 0.250000 0.250000
Si Si2 0.690576 0.774579 0.379400
Si Si3 0.106377 0.778473 0.389767
Si Si4 0.316080 0.079899 0.830208
Si Si5 0.409233 0.379317 0.083092
Si Si6 0.250000 0.500000 0.315534
Si Si7 0.811104 0.130176 0.365305
Si Si8 0.380852 0.065600 0.060288
O O1 0.082406 0.279630 0.312334
O O2 0.774559 0.736442 0.347335
O O3 0.636932 0.767252 0.491326
O O4 0.745502 0.822071 0.373202
O O5 0.081690 0.829680 0.374403
O O6 0.000000 0.750000 0.361207
O O7 0.200285 0.099112 0.871190
O O8 0.297532 0.036959 0.760641
O O9 0.355725 0.116267 0.746782
O O10 0.380273 0.067874 0.935318
O O11 0.508597 0.412406 0.101812
O O12 0.397054 0.372535 0.959231
O O13 0.345922 0.480884 0.390192
O O14 0.717200 0.096190 0.398208
#
# Coordination Sequence:
#
# PCOD9507281 Si02
#       8
#     4  16  16  16  16   8  16  16
#     4  12  24  36  58  92 128 174 224 286 316 368
#     4  10  22  37  59  94 135 175 233 273 321 386
#     4  10  20  40  64  93 131 184 225 276 329 386
#     4  10  22  42  65  92 129 167 203 269 327 386
#     4  10  22  39  66  96 126 175 219 266 330 387
#     4  10  22  42  66  92 124 162 206 258 334 402
#     4   9  21  39  60  93 131 171 221 265 321 379
#     4  10  21  42  66  94 129 164 213 269 327 405
#
# _framework density 22.459479999999999
#
# number of rings (size 3 to 8) (size 9 to 14) (size 15 to 20)
#    0.000    2.074    0.741    1.333    2.074    6.519 
#    0.000   16.667    0.000    0.000    0.000    0.000 
#    0.000    0.000    0.000    0.000    0.000    0.000 
#
# Total GULP energy -301197.495756 kJ/mol
# GULP energy per Si atom -5577.731403 kJ/mol
# Density = 2.240836 g / cm^3
# Si number density = 22.459480 Si / 1000 Ang^3
#
#
#
# Elastic Constant Matrix: (Units=GPa)
#
#
# Indices 1 2 3 4 5 6 
#
# 1 79.9633 50.3022 23.3484 0.0000 0.0000 0.0000
# 2 50.3022 99.8309 27.9482 0.0000 0.0000 0.0000
# 3 23.3484 27.9482 120.7681 0.0000 0.0000 0.0000
# 4 0.0000 0.0000 0.0000 38.4752 0.0000 0.0000
# 5 0.0000 0.0000 0.0000 0.0000 1.8140 0.0000
# 6 0.0000 0.0000 0.0000 0.0000 0.0000 35.2082
#
#
#
# Elastic Compliance Matrix: (Units=1/GPa)
#
#
# Indices 1 2 3 4 5 6 
#
# 1 0.018568 -0.008929 -0.001523 0.000000 0.000000 0.000000
# 2 -0.008929 0.015005 -0.001746 0.000000 0.000000 0.000000
# 3 -0.001523 -0.001746 0.008979 0.000000 0.000000 0.000000
# 4 0.000000 0.000000 0.000000 0.025991 0.000000 0.000000
# 5 0.000000 0.000000 0.000000 0.000000 0.551254 0.000000
# 6 0.000000 0.000000 0.000000 0.000000 0.000000 0.028403
#
#
# Mechanical properties :
#
#
# Convention : Reuss Voigt Hill
#
# Bulk Modulus (GPa) = 55.08397 55.97332 55.52865
# Shear Modulus (GPa) = 7.36759 28.36373 17.86566
#
# Velocity S-wave (km/s) = 1.81315 3.55756 2.82345
# Velocity P-wave (km/s) = 5.38168 6.46924 5.95036
#
# Compressibility (1/GPa) = 0.01815410
#
# Stress axis : x y z
#
# Youngs Moduli (GPa) = 53.85715 66.64439 111.37188
#
# Poissons Ratio (x) = 0.59509 0.16965
# Poissons Ratio (y) = 0.48091 0.19447
# Poissons Ratio (z) = 0.08204 0.11637
#
# Static dielectric constant tensor:
#      x y z
#    x 1.790980 0.000000 0.000000 
#    y 0.000000 1.048390 0.000000 
#    z 0.000000 0.000000 1.935650 
# 
# From -- ./inp_files/21294.got.cif
#   From: 2010.05.17/outbox.cif.g08.bks.cpg/sg68_11_cif.got.tgz:21294.got - 2010.06.03 18:57:09.
