data_PCOD9507569
_publ_section_title
;
Structure prediction by ZEFSAII (Michael W. Deem and Ramdas Pophale) SiO2 
 PCOD9507569
Probable space group: C C C A
;
_chemical_formula_sum "Si O2"
_cell_formula_units_Z 56
_cell_length_a 14.910937
_cell_length_b 4.902071
_cell_length_c 31.809071
_cell_angle_alpha 90.000000
_cell_angle_beta 90.000000
_cell_angle_gamma 90.000000
_cell_volume 2325.067245
_symmetry_space_group_name_H-M "C C C A"
_symmetry_group_IT_number 68
_space_group.IT_coordinate_system_code '2'
_symmetry_cell_setting 'orthorhombic'
loop_
_space_group_symop_operation_xyz
x,y,z
-x,1/2-y,z
x,1/2-y,1/2-z
-x,y,1/2-z
-x,-y,-z
x,1/2+y,-z
-x,1/2+y,1/2+z
x,-y,1/2+z
1/2+x,1/2+y,z
1/2-x,-y,z
1/2+x,-y,1/2-z
1/2-x,1/2+y,1/2-z
1/2-x,1/2-y,-z
1/2+x,y,-z
1/2-x,y,1/2+z
1/2+x,1/2-y,1/2+z
loop_
_atom_site_type_symbol
_atom_site_label
_atom_site_fract_x
_atom_site_fract_y
_atom_site_fract_z
Si Si1 0.607145 0.212188 0.472799
Si Si2 0.413863 0.092375 0.661197
Si Si3 0.250000 0.000000 0.221657
Si Si4 0.150045 0.567498 0.115691
O O1 0.500000 0.250000 0.465235
O O2 0.628537 0.410527 0.511817
O O3 0.653939 0.308122 0.430492
O O4 0.500000 0.250000 0.680198
O O5 0.331560 0.110687 0.693490
O O6 0.397814 0.277328 0.619633
O O7 0.403459 0.781607 0.645014
O O8 0.216772 0.750000 0.250000
O O9 0.250000 0.500000 0.130708
#
# Coordination Sequence:
#
# PCOD9507569 Si02
#       4
#    16  16   8  16
#     4  10  21  36  56  89 133 181 235 295 355 415
#     4  12  25  46  73 104 139 187 236 283 359 439
#     4  12  26  48  76 106 146 178 226 300 364 438
#     4  12  23  42  68  99 139 183 241 299 351 423
#
# _framework density 24.085325000000001
#
# number of rings (size 3 to 8) (size 9 to 14) (size 15 to 20)
#    0.000    0.571    2.857    6.000    0.000    4.000 
#    0.000    1.429    0.000    0.000    0.000    0.000 
#    0.000    0.000    0.000    0.000    0.000    0.000 
#
# Total GULP energy -156541.516552 kJ/mol
# GULP energy per Si atom -5590.768448 kJ/mol
# Density = 2.403051 g / cm^3
# Si number density = 24.085325 Si / 1000 Ang^3
#
#
#
# Elastic Constant Matrix: (Units=GPa)
#
#
# Indices 1 2 3 4 5 6 
#
# 1 158.7088 38.9287 38.0607 0.0000 0.0000 0.0000
# 2 38.9287 121.3594 18.3724 0.0000 0.0000 0.0000
# 3 38.0607 18.3724 84.9436 0.0000 0.0000 0.0000
# 4 0.0000 0.0000 0.0000 42.0152 0.0000 0.0000
# 5 0.0000 0.0000 0.0000 0.0000 13.5238 0.0000
# 6 0.0000 0.0000 0.0000 0.0000 0.0000 35.9819
#
#
#
# Elastic Compliance Matrix: (Units=1/GPa)
#
#
# Indices 1 2 3 4 5 6 
#
# 1 0.007483 -0.001957 -0.002930 0.000000 0.000000 0.000000
# 2 -0.001957 0.009031 -0.001076 0.000000 0.000000 0.000000
# 3 -0.002930 -0.001076 0.013318 0.000000 0.000000 0.000000
# 4 0.000000 0.000000 0.000000 0.023801 0.000000 0.000000
# 5 0.000000 0.000000 0.000000 0.000000 0.073943 0.000000
# 6 0.000000 0.000000 0.000000 0.000000 0.000000 0.027792
#
#
# Mechanical properties :
#
#
# Convention : Reuss Voigt Hill
#
# Bulk Modulus (GPa) = 55.84759 61.74840 58.79800
# Shear Modulus (GPa) = 28.85780 36.28087 32.56934
#
# Velocity S-wave (km/s) = 3.46518 3.88538 3.68128
# Velocity P-wave (km/s) = 6.26480 6.76914 6.52185
#
# Compressibility (1/GPa) = 0.01790587
#
# Stress axis : x y z
#
# Youngs Moduli (GPa) = 133.62765 110.73372 75.08571
#
# Poissons Ratio (x) = 0.21670 0.21999
# Poissons Ratio (y) = 0.26150 0.08082
# Poissons Ratio (z) = 0.39151 0.11919
#
# Static dielectric constant tensor:
#      x y z
#    x 2.009460 0.000000 0.000000 
#    y 0.000000 1.852700 0.000000 
#    z 0.000000 0.000000 1.864210 
# 
# From -- ./inp_files/55035.got.cif
#   From: 2010.05.17/outbox.cif.g08.bks.cpg/sg68_28_cif.got.tgz:55035.got - 2010.06.03 18:57:09.
