data_PCOD9507495
_publ_section_title
;
Structure prediction by ZEFSAII (Michael W. Deem and Ramdas Pophale) SiO2 
 PCOD9507495
Probable space group: C C C A
;
_chemical_formula_sum "Si O2"
_cell_formula_units_Z 92
_cell_length_a 24.983471
_cell_length_b 17.875411
_cell_length_c 8.223946
_cell_angle_alpha 90.000000
_cell_angle_beta 90.000000
_cell_angle_gamma 90.000000
_cell_volume 3672.730501
_symmetry_space_group_name_H-M "C C C A"
_symmetry_group_IT_number 68
_space_group.IT_coordinate_system_code '2'
_symmetry_cell_setting 'orthorhombic'
loop_
_space_group_symop_operation_xyz
x,y,z
-x,1/2-y,z
x,1/2-y,1/2-z
-x,y,1/2-z
-x,-y,-z
x,1/2+y,-z
-x,1/2+y,1/2+z
x,-y,1/2+z
1/2+x,1/2+y,z
1/2-x,-y,z
1/2+x,-y,1/2-z
1/2-x,1/2+y,1/2-z
1/2-x,1/2-y,-z
1/2+x,y,-z
1/2-x,y,1/2+z
1/2+x,1/2-y,1/2+z
loop_
_atom_site_type_symbol
_atom_site_label
_atom_site_fract_x
_atom_site_fract_y
_atom_site_fract_z
Si Si1 0.091583 0.563273 0.095617
Si Si2 0.826325 0.341113 0.697207
Si Si3 0.500000 0.250000 0.750000
Si Si4 0.082331 0.719871 0.494715
Si Si5 0.264700 0.410780 0.609322
Si Si6 0.000000 0.641635 0.250000
Si Si7 0.123809 0.907198 0.768231
O O1 0.127384 0.608505 0.224920
O O2 0.031696 0.587226 0.130752
O O3 0.104605 0.478279 0.129573
O O4 0.105378 0.584472 0.914323
O O5 0.859648 0.273196 0.601566
O O6 0.780534 0.350317 0.838046
O O7 0.794852 0.384326 0.553394
O O8 0.544685 0.273888 0.607816
O O9 0.041857 0.688593 0.358021
O O10 0.099921 0.660285 0.629417
O O11 0.250000 0.500000 0.598669
O O12 0.312179 0.405567 0.740450
#
# Coordination Sequence:
#
# PCOD9507495 Si02
#       7
#    16  16   4  16  16   8  16
#     4  11  21  34  52  84 128 170 200 245 285 381
#     4  10  21  34  54  91 127 164 213 242 302 368
#     4  12  24  48  72  84 116 152 216 280 344 378
#     4  10  24  41  64  92 114 160 212 274 320 379
#     4  11  19  30  54  83 123 170 196 237 287 363
#     4  10  22  40  60  86 122 154 200 252 322 366
#     4  11  22  35  55  88 128 164 210 239 301 365
#
# _framework density 25.049482999999999
#
# number of rings (size 3 to 8) (size 9 to 14) (size 15 to 20)
#    0.000    1.391    1.739    5.739    0.000    3.826 
#    0.000    0.000    0.000    4.174    0.000    0.000 
#    0.000    0.000    0.000    0.000    0.000    0.000 
#
# Total GULP energy -256209.039506 kJ/mol
# GULP energy per Si atom -5569.761728 kJ/mol
# Density = 2.499247 g / cm^3
# Si number density = 25.049483 Si / 1000 Ang^3
#
#
#
# Elastic Constant Matrix: (Units=GPa)
#
#
# Indices 1 2 3 4 5 6 
#
# 1 148.4548 47.6946 48.3590 0.0000 0.0000 0.0000
# 2 47.6946 45.9164 6.3027 0.0000 0.0000 0.0000
# 3 48.3590 6.3027 141.7301 0.0000 0.0000 0.0000
# 4 0.0000 0.0000 0.0000 33.7034 0.0000 0.0000
# 5 0.0000 0.0000 0.0000 0.0000 48.1460 0.0000
# 6 0.0000 0.0000 0.0000 0.0000 0.0000 36.1095
#
#
#
# Elastic Compliance Matrix: (Units=1/GPa)
#
#
# Indices 1 2 3 4 5 6 
#
# 1 0.011560 -0.011537 -0.003431 0.000000 0.000000 0.000000
# 2 -0.011537 0.033426 0.002450 0.000000 0.000000 0.000000
# 3 -0.003431 0.002450 0.008118 0.000000 0.000000 0.000000
# 4 0.000000 0.000000 0.000000 0.029671 0.000000 0.000000
# 5 0.000000 0.000000 0.000000 0.000000 0.020770 0.000000
# 6 0.000000 0.000000 0.000000 0.000000 0.000000 0.027694
#
#
# Mechanical properties :
#
#
# Convention : Reuss Voigt Hill
#
# Bulk Modulus (GPa) = 35.62864 60.09045 47.85955
# Shear Modulus (GPa) = 30.18755 39.17477 34.68116
#
# Velocity S-wave (km/s) = 3.47525 3.95890 3.72493
# Velocity P-wave (km/s) = 5.50974 6.70358 6.13577
#
# Compressibility (1/GPa) = 0.02806731
#
# Stress axis : x y z
#
# Youngs Moduli (GPa) = 86.50223 29.91659 123.19026
#
# Poissons Ratio (x) = 0.34515 0.42272
# Poissons Ratio (y) = 0.99798 -0.30182
# Poissons Ratio (z) = 0.29682 -0.07330
#
# Static dielectric constant tensor:
#      x y z
#    x 2.036620 0.000000 0.000000 
#    y 0.000000 1.987090 0.000000 
#    z 0.000000 0.000000 2.043600 
# 
# From -- ./inp_files/8037.got.cif
#   From: 2010.05.17/outbox.cif.g08.bks.cpg/sg68_5_cif.got.tgz:8037.got - 2010.06.03 18:57:09.
