data_PCOD9507552
_publ_section_title
;
Structure prediction by ZEFSAII (Michael W. Deem and Ramdas Pophale) SiO2 
 PCOD9507552
Probable space group: C C C A
;
_chemical_formula_sum "Si O2"
_cell_formula_units_Z 104
_cell_length_a 8.547405
_cell_length_b 30.487012
_cell_length_c 22.755653
_cell_angle_alpha 90.000000
_cell_angle_beta 90.000000
_cell_angle_gamma 90.000000
_cell_volume 5929.778169
_symmetry_space_group_name_H-M "C C C A"
_symmetry_group_IT_number 68
_space_group.IT_coordinate_system_code '2'
_symmetry_cell_setting 'orthorhombic'
loop_
_space_group_symop_operation_xyz
x,y,z
-x,1/2-y,z
x,1/2-y,1/2-z
-x,y,1/2-z
-x,-y,-z
x,1/2+y,-z
-x,1/2+y,1/2+z
x,-y,1/2+z
1/2+x,1/2+y,z
1/2-x,-y,z
1/2+x,-y,1/2-z
1/2-x,1/2+y,1/2-z
1/2-x,1/2-y,-z
1/2+x,y,-z
1/2-x,y,1/2+z
1/2+x,1/2-y,1/2+z
loop_
_atom_site_type_symbol
_atom_site_label
_atom_site_fract_x
_atom_site_fract_y
_atom_site_fract_z
Si Si1 0.018976 0.655678 0.350391
Si Si2 0.000000 0.073667 0.250000
Si Si3 0.043646 0.071410 0.919189
Si Si4 0.242414 0.847753 0.754622
Si Si5 0.855294 0.455847 0.465697
Si Si6 0.566229 0.012025 0.862499
Si Si7 0.238373 0.250000 0.250000
Si Si8 0.000000 0.750000 0.350195
O O1 0.871283 0.652071 0.306246
O O2 0.006554 0.703223 0.380925
O O3 0.017768 0.616797 0.395627
O O4 0.167329 0.650851 0.307528
O O5 0.139823 0.108549 0.260887
O O6 0.033258 0.041669 0.194656
O O7 0.222660 0.076171 0.940329
O O8 0.026745 0.034373 0.868152
O O9 0.935217 0.055892 0.973168
O O10 0.165568 0.798773 0.755227
O O11 0.750000 0.500000 0.471769
O O12 0.993998 0.462554 0.418640
O O13 0.750000 0.000000 0.866313
O O14 0.351889 0.251481 0.306490
#
# Coordination Sequence:
#
# PCOD9507552 Si02
#       8
#    16   8  16  16  16  16   8   8
#     4   9  17  32  54  75  99 134 170 204 243 297
#     4  12  24  33  48  78 110 131 156 204 260 304
#     4  11  20  34  55  74  96 129 170 211 251 293
#     4   9  18  31  48  75 105 134 168 202 244 295
#     4  10  21  36  54  73  94 127 173 214 242 288
#     4  11  23  37  50  69 102 136 167 203 247 299
#     4   7  12  27  48  68  98 134 168 204 234 282
#     4   7  12  26  50  76  96 124 170 207 236 286
#
# _framework density 17.538599000000001
#
# number of rings (size 3 to 8) (size 9 to 14) (size 15 to 20)
#    0.000    2.308    0.000    6.923    0.000    4.615 
#    0.000    0.000    0.000    0.923    0.000    2.154 
#    0.000    0.000    0.000    0.000    0.000    0.000 
#
# Total GULP energy -289479.519838 kJ/mol
# GULP energy per Si atom -5566.913843 kJ/mol
# Density = 1.749868 g / cm^3
# Si number density = 17.538599 Si / 1000 Ang^3
#
#
#
# Elastic Constant Matrix: (Units=GPa)
#
#
# Indices 1 2 3 4 5 6 
#
# 1 97.0575 36.6734 34.4881 0.0000 0.0000 0.0000
# 2 36.6734 132.1498 65.1515 0.0000 0.0000 0.0000
# 3 34.4881 65.1515 79.4100 0.0000 0.0000 0.0000
# 4 0.0000 0.0000 0.0000 14.8278 0.0000 0.0000
# 5 0.0000 0.0000 0.0000 0.0000 4.7742 0.0000
# 6 0.0000 0.0000 0.0000 0.0000 0.0000 51.1852
#
#
#
# Elastic Compliance Matrix: (Units=1/GPa)
#
#
# Indices 1 2 3 4 5 6 
#
# 1 0.012317 -0.001311 -0.004274 0.000000 0.000000 0.000000
# 2 -0.001311 0.012847 -0.009970 0.000000 0.000000 0.000000
# 3 -0.004274 -0.009970 0.022629 0.000000 0.000000 0.000000
# 4 0.000000 0.000000 0.000000 0.067441 0.000000 0.000000
# 5 0.000000 0.000000 0.000000 0.000000 0.209458 0.000000
# 6 0.000000 0.000000 0.000000 0.000000 0.000000 0.019537
#
#
# Mechanical properties :
#
#
# Convention : Reuss Voigt Hill
#
# Bulk Modulus (GPa) = 59.94371 64.58260 62.26316
# Shear Modulus (GPa) = 13.12681 25.64439 19.38560
#
# Velocity S-wave (km/s) = 2.73875 3.82798 3.32823
# Velocity P-wave (km/s) = 6.65232 7.51272 7.09558
#
# Compressibility (1/GPa) = 0.01668232
#
# Stress axis : x y z
#
# Youngs Moduli (GPa) = 81.18725 77.84136 44.19080
#
# Poissons Ratio (x) = 0.10207 0.18885
# Poissons Ratio (y) = 0.10646 0.44060
# Poissons Ratio (z) = 0.34696 0.77612
#
# Static dielectric constant tensor:
#      x y z
#    x 1.648180 0.000000 0.000000 
#    y 0.000000 1.664010 0.000000 
#    z 0.000000 0.000000 1.566960 
# 
# From -- ./inp_files/36736.got.cif
#   From: 2010.05.17/outbox.cif.g08.bks.cpg/sg68_19_cif.got.tgz:36736.got - 2010.06.03 18:57:09.
