data_PCOD9507488
_publ_section_title
;
Structure prediction by ZEFSAII (Michael W. Deem and Ramdas Pophale) SiO2 
 PCOD9507488
Probable space group: C C C A
;
_chemical_formula_sum "Si O2"
_cell_formula_units_Z 56
_cell_length_a 5.169812
_cell_length_b 14.236644
_cell_length_c 32.733356
_cell_angle_alpha 90.000000
_cell_angle_beta 90.000000
_cell_angle_gamma 90.000000
_cell_volume 2409.200304
_symmetry_space_group_name_H-M "C C C A"
_symmetry_group_IT_number 68
_space_group.IT_coordinate_system_code '2'
_symmetry_cell_setting 'orthorhombic'
loop_
_space_group_symop_operation_xyz
x,y,z
-x,1/2-y,z
x,1/2-y,1/2-z
-x,y,1/2-z
-x,-y,-z
x,1/2+y,-z
-x,1/2+y,1/2+z
x,-y,1/2+z
1/2+x,1/2+y,z
1/2-x,-y,z
1/2+x,-y,1/2-z
1/2-x,1/2+y,1/2-z
1/2-x,1/2-y,-z
1/2+x,y,-z
1/2-x,y,1/2+z
1/2+x,1/2-y,1/2+z
loop_
_atom_site_type_symbol
_atom_site_label
_atom_site_fract_x
_atom_site_fract_y
_atom_site_fract_z
Si Si1 0.999792 0.362879 0.110229
Si Si2 0.750000 0.000000 0.775206
Si Si3 0.998387 0.636835 0.159080
Si Si4 0.968805 0.895506 0.517838
O O1 0.709177 0.387366 0.123553
O O2 0.076902 0.399060 0.065855
O O3 0.000000 0.250000 0.107605
O O4 0.214241 0.389810 0.144022
O O5 0.500000 0.037532 0.750000
O O6 0.883790 0.081109 0.802542
O O7 0.000000 0.750000 0.165707
O O8 0.241971 0.849760 0.508030
O O9 0.000000 0.000000 0.500000
#
# Coordination Sequence:
#
# PCOD9507488 Si02
#       4
#    16   8  16  16
#     4  10  21  39  62  87 122 170 221 269 320 386
#     4  12  26  44  70 106 138 168 212 270 338 416
#     4  10  23  44  68  95 128 171 217 266 326 394
#     4  10  21  34  51  82 119 158 208 261 320 371
#
# _framework density 23.244229000000001
#
# number of rings (size 3 to 8) (size 9 to 14) (size 15 to 20)
#    0.000    1.714    0.000    3.429    0.000    8.571 
#    0.000    1.429    0.000    0.000    0.000    0.000 
#    0.000    0.000    0.000    0.000    0.000    0.000 
#
# Total GULP energy -156498.905814 kJ/mol
# GULP energy per Si atom -5589.246636 kJ/mol
# Density = 2.319132 g / cm^3
# Si number density = 23.244229 Si / 1000 Ang^3
#
#
#
# Elastic Constant Matrix: (Units=GPa)
#
#
# Indices 1 2 3 4 5 6 
#
# 1 161.9814 5.4932 35.2884 0.0000 0.0000 0.0000
# 2 5.4932 114.2722 28.1413 0.0000 0.0000 0.0000
# 3 35.2884 28.1413 113.5914 0.0000 0.0000 0.0000
# 4 0.0000 0.0000 0.0000 37.6910 0.0000 0.0000
# 5 0.0000 0.0000 0.0000 0.0000 46.8752 0.0000
# 6 0.0000 0.0000 0.0000 0.0000 0.0000 8.7900
#
#
#
# Elastic Compliance Matrix: (Units=1/GPa)
#
#
# Indices 1 2 3 4 5 6 
#
# 1 0.006626 0.000201 -0.002108 0.000000 0.000000 0.000000
# 2 0.000201 0.009326 -0.002373 0.000000 0.000000 0.000000
# 3 -0.002108 -0.002373 0.010046 0.000000 0.000000 0.000000
# 4 0.000000 0.000000 0.000000 0.026532 0.000000 0.000000
# 5 0.000000 0.000000 0.000000 0.000000 0.021333 0.000000
# 6 0.000000 0.000000 0.000000 0.000000 0.000000 0.113765
#
#
# Mechanical properties :
#
#
# Convention : Reuss Voigt Hill
#
# Bulk Modulus (GPa) = 57.34756 58.63231 57.98994
# Shear Modulus (GPa) = 24.75237 40.06605 32.40921
#
# Velocity S-wave (km/s) = 3.26679 4.15625 3.73807
# Velocity P-wave (km/s) = 6.24136 6.95067 6.60554
#
# Compressibility (1/GPa) = 0.01743753
#
# Stress axis : x y z
#
# Youngs Moduli (GPa) = 150.92027 107.23049 99.53995
#
# Poissons Ratio (x) = -0.02152 0.20985
# Poissons Ratio (y) = -0.03028 0.23618
# Poissons Ratio (z) = 0.31816 0.25443
#
# Static dielectric constant tensor:
#      x y z
#    x 2.000300 0.000000 0.000000 
#    y 0.000000 1.878400 0.000000 
#    z 0.000000 0.000000 1.834070 
# 
# From -- ./inp_files/52741.got.cif
#   From: 2010.05.17/outbox.cif.g08.bks.cpg/sg68_27_cif.got.tgz:52741.got - 2010.06.03 18:57:09.
