data_PCOD9507174
_publ_section_title
;
Structure prediction by ZEFSAII (Michael W. Deem and Ramdas Pophale) SiO2 
 PCOD9507174
Probable space group: C C C A
;
_chemical_formula_sum "Si O2"
_cell_formula_units_Z 84
_cell_length_a 9.366303
_cell_length_b 16.877922
_cell_length_c 24.699020
_cell_angle_alpha 90.000000
_cell_angle_beta 90.000000
_cell_angle_gamma 90.000000
_cell_volume 3904.513245
_symmetry_space_group_name_H-M "C C C A"
_symmetry_group_IT_number 68
_space_group.IT_coordinate_system_code '2'
_symmetry_cell_setting 'orthorhombic'
loop_
_space_group_symop_operation_xyz
x,y,z
-x,1/2-y,z
x,1/2-y,1/2-z
-x,y,1/2-z
-x,-y,-z
x,1/2+y,-z
-x,1/2+y,1/2+z
x,-y,1/2+z
1/2+x,1/2+y,z
1/2-x,-y,z
1/2+x,-y,1/2-z
1/2-x,1/2+y,1/2-z
1/2-x,1/2-y,-z
1/2+x,y,-z
1/2-x,y,1/2+z
1/2+x,1/2-y,1/2+z
loop_
_atom_site_type_symbol
_atom_site_label
_atom_site_fract_x
_atom_site_fract_y
_atom_site_fract_z
Si Si1 0.194419 0.667721 0.838526
Si Si2 0.459405 0.616318 0.885981
Si Si3 0.749719 0.315231 0.912062
Si Si4 0.000000 0.750000 0.750000
Si Si5 0.510312 0.561525 0.396844
Si Si6 0.774019 0.589967 0.518603
O O1 0.359359 0.641975 0.836164
O O2 0.188475 0.733623 0.887494
O O3 0.108649 0.702206 0.788362
O O4 0.109683 0.589664 0.855271
O O5 0.588228 0.676472 0.892951
O O6 0.532677 0.530363 0.886990
O O7 0.346782 0.606679 0.936024
O O8 0.646610 0.383775 0.889629
O O9 0.760682 0.340169 0.975150
O O10 0.430754 0.582257 0.453930
O O11 0.750000 0.500000 0.495853
#
# Coordination Sequence:
#
# PCOD9507174 Si02
#       6
#    16  16  16   4  16  16
#     4  11  24  43  67  86 116 163 211 265 326 383
#     4  10  22  38  63  97 132 166 211 259 300 365
#     4  12  20  35  61  99 132 168 210 249 302 368
#     4  12  24  52  74  80 112 172 216 264 360 410
#     4  10  20  39  63  91 129 178 206 244 306 378
#     4   9  19  34  57  92 139 187 208 236 299 373
#
# _framework density 21.513565
#
# number of rings (size 3 to 8) (size 9 to 14) (size 15 to 20)
#    0.000    1.524    1.905    5.143    0.000    6.095 
#    0.000    9.524    8.381    0.000    0.000    0.000 
#    0.000    0.000    0.000    0.000    0.000    0.000 
#
# Total GULP energy -234274.444980 kJ/mol
# GULP energy per Si atom -5577.962976 kJ/mol
# Density = 2.146460 g / cm^3
# Si number density = 21.513565 Si / 1000 Ang^3
#
#
#
# Elastic Constant Matrix: (Units=GPa)
#
#
# Indices 1 2 3 4 5 6 
#
# 1 98.9125 8.0809 -13.4929 0.0000 0.0000 0.0000
# 2 8.0809 75.3501 3.4051 0.0000 0.0000 0.0000
# 3 -13.4929 3.4051 28.2954 0.0000 0.0000 0.0000
# 4 0.0000 0.0000 0.0000 2.7562 0.0000 0.0000
# 5 0.0000 0.0000 0.0000 0.0000 37.9652 0.0000
# 6 0.0000 0.0000 0.0000 0.0000 0.0000 41.1218
#
#
#
# Elastic Compliance Matrix: (Units=1/GPa)
#
#
# Indices 1 2 3 4 5 6 
#
# 1 0.010962 -0.001420 0.005398 0.000000 0.000000 0.000000
# 2 -0.001420 0.013528 -0.002305 0.000000 0.000000 0.000000
# 3 0.005398 -0.002305 0.038193 0.000000 0.000000 0.000000
# 4 0.000000 0.000000 0.000000 0.362822 0.000000 0.000000
# 5 0.000000 0.000000 0.000000 0.000000 0.026340 0.000000
# 6 0.000000 0.000000 0.000000 0.000000 0.000000 0.024318
#
#
# Mechanical properties :
#
#
# Convention : Reuss Voigt Hill
#
# Bulk Modulus (GPa) = 15.14447 22.06048 18.60248
# Shear Modulus (GPa) = 10.10458 30.00631 20.05544
#
# Velocity S-wave (km/s) = 2.16957 3.73870 3.05655
# Velocity P-wave (km/s) = 3.65114 5.37714 4.59590
#
# Compressibility (1/GPa) = 0.06603069
#
# Stress axis : x y z
#
# Youngs Moduli (GPa) = 91.22162 73.92195 26.18283
#
# Poissons Ratio (x) = 0.10494 -0.14134
# Poissons Ratio (y) = 0.12950 0.06035
# Poissons Ratio (z) = -0.49244 0.17038
#
# Static dielectric constant tensor:
#      x y z
#    x 1.842420 0.000000 0.000000 
#    y 0.000000 1.793180 0.000000 
#    z 0.000000 0.000000 1.834040 
# 
# From -- ./inp_files/43051.got.cif
#   From: 2010.05.17/outbox.cif.g08.bks.cpg/sg68_22_cif.got.tgz:43051.got - 2010.06.03 18:57:09.
