data_PCOD9507815
_publ_section_title
;
Structure prediction by ZEFSAII (Michael W. Deem and Ramdas Pophale) SiO2 
 PCOD9507815
Probable space group: C C C A
;
_chemical_formula_sum "Si O2"
_cell_formula_units_Z 80
_cell_length_a 23.348655
_cell_length_b 5.389689
_cell_length_c 29.949411
_cell_angle_alpha 90.000000
_cell_angle_beta 90.000000
_cell_angle_gamma 90.000000
_cell_volume 3768.893450
_symmetry_space_group_name_H-M "C C C A"
_symmetry_group_IT_number 68
_space_group.IT_coordinate_system_code '2'
_symmetry_cell_setting 'orthorhombic'
loop_
_space_group_symop_operation_xyz
x,y,z
-x,1/2-y,z
x,1/2-y,1/2-z
-x,y,1/2-z
-x,-y,-z
x,1/2+y,-z
-x,1/2+y,1/2+z
x,-y,1/2+z
1/2+x,1/2+y,z
1/2-x,-y,z
1/2+x,-y,1/2-z
1/2-x,1/2+y,1/2-z
1/2-x,1/2-y,-z
1/2+x,y,-z
1/2-x,y,1/2+z
1/2+x,1/2-y,1/2+z
loop_
_atom_site_type_symbol
_atom_site_label
_atom_site_fract_x
_atom_site_fract_y
_atom_site_fract_z
Si Si1 0.432348 0.500000 0.222058
Si Si2 0.686815 0.000000 0.674280
Si Si3 0.851174 0.500000 0.628060
Si Si4 0.318685 1.000000 0.527565
Si Si5 0.983893 1.000000 0.364657
O O1 0.441300 0.750000 0.250000
O O2 0.366153 0.500000 0.207773
O O3 0.473783 0.500000 0.178658
O O4 0.441300 0.250000 0.250000
O O5 0.678855 0.750174 0.645279
O O6 0.750000 0.000000 0.694811
O O7 0.678855 0.249827 0.645279
O O8 0.850552 0.500000 0.574733
O O9 0.916667 0.500000 0.645916
O O10 0.331302 0.750000 0.500000
O O11 0.250000 0.000000 0.536848
O O12 0.000000 0.750000 0.389790
O O13 0.000000 0.250000 0.389790
#
# Coordination Sequence:
#
# PCOD9507815 Si02
#       5
#    16  16  16  16  16
#     4  12  26  43  66  93 128 166 223 283 328 373
#     4  12  25  43  65  96 130 176 219 260 334 396
#     4  12  23  44  67  98 134 168 215 271 314 382
#     4  10  21  38  65 100 132 166 207 256 316 379
#     4  12  23  44  65  96 124 171 221 274 318 377
#
# _framework density 21.226391
#
# number of rings (size 3 to 8) (size 9 to 14) (size 15 to 20)
#    0.000    0.400    4.000    5.400    0.000    4.800 
#    0.000    0.000    0.000    3.600    0.000    0.000 
#    0.000    0.000    0.000    0.000    0.000    0.000 
#
# Total GULP energy -223851.578534 kJ/mol
# GULP energy per Si atom -5596.289463 kJ/mol
# Density = 2.117808 g / cm^3
# Si number density = 21.226391 Si / 1000 Ang^3
#
#
#
# Elastic Constant Matrix: (Units=GPa)
#
#
# Indices 1 2 3 4 5 6 
#
# 1 171.1627 33.2303 42.3892 0.0000 0.0000 0.0000
# 2 33.2303 213.9330 38.0727 0.0000 0.0000 0.0000
# 3 42.3892 38.0727 76.3579 0.0000 0.0000 0.0000
# 4 0.0000 0.0000 0.0000 16.0178 0.0000 0.0000
# 5 0.0000 0.0000 0.0000 0.0000 10.9680 0.0000
# 6 0.0000 0.0000 0.0000 0.0000 0.0000 -22.8005
#
#
#
# Elastic Compliance Matrix: (Units=1/GPa)
#
#
# Indices 1 2 3 4 5 6 
#
# 1 0.006808 -0.000422 -0.003569 0.000000 0.000000 0.000000
# 2 -0.000422 0.005156 -0.002336 0.000000 0.000000 0.000000
# 3 -0.003569 -0.002336 0.016242 0.000000 0.000000 0.000000
# 4 0.000000 0.000000 0.000000 0.062431 0.000000 0.000000
# 5 0.000000 0.000000 0.000000 0.000000 0.091175 0.000000
# 6 0.000000 0.000000 0.000000 0.000000 0.000000 -0.043859
#
#
# Mechanical properties :
#
#
# Convention : Reuss Voigt Hill
#
# Bulk Modulus (GPa) = 64.30340 76.53755 70.42047
# Shear Modulus (GPa) = 32.09416 24.02114 28.05765
#
# Velocity S-wave (km/s) = 3.89265 3.36767 3.63964
# Velocity P-wave (km/s) = 7.11080 7.15944 7.13516
#
# Compressibility (1/GPa) = 0.01555128
#
# Stress axis : x y z
#
# Youngs Moduli (GPa) = 146.88047 193.95873 61.56759
#
# Poissons Ratio (x) = 0.08193 0.21973
# Poissons Ratio (y) = 0.06204 0.14383
# Poissons Ratio (z) = 0.52420 0.45313
#
# Static dielectric constant tensor:
#      x y z
#    x 1.770160 0.000000 0.000000 
#    y 0.000000 1.835910 0.000000 
#    z 0.000000 0.000000 1.720050 
# 
# From -- ./inp_files/53170.got.cif
#   From: 2010.05.17/outbox.cif.g08.bks.cpg/sg68_27_cif.got.tgz:53170.got - 2010.06.03 18:57:09.
