data_PCOD9507895
_publ_section_title
;
Structure prediction by ZEFSAII (Michael W. Deem and Ramdas Pophale) SiO2 
 PCOD9507895
Probable space group: C C C A
;
_chemical_formula_sum "Si O2"
_cell_formula_units_Z 68
_cell_length_a 13.234281
_cell_length_b 25.863790
_cell_length_c 8.381907
_cell_angle_alpha 90.000000
_cell_angle_beta 90.000000
_cell_angle_gamma 90.000000
_cell_volume 2869.031754
_symmetry_space_group_name_H-M "C C C A"
_symmetry_group_IT_number 68
_space_group.IT_coordinate_system_code '2'
_symmetry_cell_setting 'orthorhombic'
loop_
_space_group_symop_operation_xyz
x,y,z
-x,1/2-y,z
x,1/2-y,1/2-z
-x,y,1/2-z
-x,-y,-z
x,1/2+y,-z
-x,1/2+y,1/2+z
x,-y,1/2+z
1/2+x,1/2+y,z
1/2-x,-y,z
1/2+x,-y,1/2-z
1/2-x,1/2+y,1/2-z
1/2-x,1/2-y,-z
1/2+x,y,-z
1/2-x,y,1/2+z
1/2+x,1/2-y,1/2+z
loop_
_atom_site_type_symbol
_atom_site_label
_atom_site_fract_x
_atom_site_fract_y
_atom_site_fract_z
Si Si1 0.320917 0.701418 0.044011
Si Si2 0.142723 0.471100 0.912741
Si Si3 0.500000 0.750000 0.250000
Si Si4 0.896912 0.570734 0.733283
Si Si5 0.701822 0.127876 0.277912
O O1 0.419757 0.718201 0.141591
O O2 0.246766 0.661525 0.135202
O O3 0.250000 0.750000 0.000000
O O4 0.352129 0.669314 0.889074
O O5 0.250000 0.500000 0.892368
O O6 0.074734 0.520482 0.872075
O O7 0.136065 0.424775 0.782875
O O8 0.137808 0.447493 0.089856
O O9 0.808189 0.603958 0.656377
O O10 0.000000 0.602115 0.750000
#
# Coordination Sequence:
#
# PCOD9507895 Si02
#       5
#    16  16   4  16  16
#     4  12  25  48  74 104 141 184 242 308 363 436
#     4  10  21  39  61  94 135 184 224 281 348 414
#     4  12  28  48  82 102 140 188 242 304 388 426
#     4  11  23  38  64  99 139 181 236 287 345 425
#     4  11  23  42  72  96 140 188 229 293 367 418
#
# _framework density 23.701377000000001
#
# number of rings (size 3 to 8) (size 9 to 14) (size 15 to 20)
#    0.000    0.941    4.706    2.824    4.941    0.000 
#    0.000    2.353    0.000    0.000    0.000    0.000 
#    0.000    0.000    0.000    0.000    0.000    0.000 
#
# Total GULP energy -189554.722366 kJ/mol
# GULP energy per Si atom -5575.138893 kJ/mol
# Density = 2.364743 g / cm^3
# Si number density = 23.701377 Si / 1000 Ang^3
#
#
#
# Elastic Constant Matrix: (Units=GPa)
#
#
# Indices 1 2 3 4 5 6 
#
# 1 74.4589 34.7027 19.2252 0.0000 0.0000 0.0000
# 2 34.7027 148.8608 37.8047 0.0000 0.0000 0.0000
# 3 19.2252 37.8047 73.0356 0.0000 0.0000 0.0000
# 4 0.0000 0.0000 0.0000 42.5398 0.0000 0.0000
# 5 0.0000 0.0000 0.0000 0.0000 33.7828 0.0000
# 6 0.0000 0.0000 0.0000 0.0000 0.0000 18.4439
#
#
#
# Elastic Compliance Matrix: (Units=1/GPa)
#
#
# Indices 1 2 3 4 5 6 
#
# 1 0.015466 -0.002961 -0.002538 0.000000 0.000000 0.000000
# 2 -0.002961 0.008301 -0.003518 0.000000 0.000000 0.000000
# 3 -0.002538 -0.003518 0.016181 0.000000 0.000000 0.000000
# 4 0.000000 0.000000 0.000000 0.023507 0.000000 0.000000
# 5 0.000000 0.000000 0.000000 0.000000 0.029601 0.000000
# 6 0.000000 0.000000 0.000000 0.000000 0.000000 0.054218
#
#
# Mechanical properties :
#
#
# Convention : Reuss Voigt Hill
#
# Bulk Modulus (GPa) = 45.63242 53.31340 49.47291
# Shear Modulus (GPa) = 28.96662 32.59481 30.78071
#
# Velocity S-wave (km/s) = 3.49972 3.71243 3.60764
# Velocity P-wave (km/s) = 5.96872 6.39678 6.18645
#
# Compressibility (1/GPa) = 0.02191425
#
# Stress axis : x y z
#
# Youngs Moduli (GPa) = 64.65987 120.46452 61.80127
#
# Poissons Ratio (x) = 0.35666 0.15688
# Poissons Ratio (y) = 0.19144 0.21739
# Poissons Ratio (z) = 0.16414 0.42374
#
# Static dielectric constant tensor:
#      x y z
#    x 1.830830 0.000000 0.000000 
#    y 0.000000 1.971480 0.000000 
#    z 0.000000 0.000000 1.950170 
# 
# From -- ./inp_files/5119.got.cif
#   From: 2010.05.17/outbox.cif.g08.bks.cpg/sg68_3_cif.got.tgz:5119.got - 2010.06.03 18:57:09.
