data_PCOD9507144
_publ_section_title
;
Structure prediction by ZEFSAII (Michael W. Deem and Ramdas Pophale) SiO2 
 PCOD9507144
Probable space group: C C C A
;
_chemical_formula_sum "Si O2"
_cell_formula_units_Z 68
_cell_length_a 23.093892
_cell_length_b 19.211404
_cell_length_c 9.184184
_cell_angle_alpha 90.000000
_cell_angle_beta 90.000000
_cell_angle_gamma 90.000000
_cell_volume 4074.710997
_symmetry_space_group_name_H-M "C C C A"
_symmetry_group_IT_number 68
_space_group.IT_coordinate_system_code '2'
_symmetry_cell_setting 'orthorhombic'
loop_
_space_group_symop_operation_xyz
x,y,z
-x,1/2-y,z
x,1/2-y,1/2-z
-x,y,1/2-z
-x,-y,-z
x,1/2+y,-z
-x,1/2+y,1/2+z
x,-y,1/2+z
1/2+x,1/2+y,z
1/2-x,-y,z
1/2+x,-y,1/2-z
1/2-x,1/2+y,1/2-z
1/2-x,1/2-y,-z
1/2+x,y,-z
1/2-x,y,1/2+z
1/2+x,1/2-y,1/2+z
loop_
_atom_site_type_symbol
_atom_site_label
_atom_site_fract_x
_atom_site_fract_y
_atom_site_fract_z
Si Si1 0.319001 0.057261 0.205092
Si Si2 0.689505 0.235540 0.918462
Si Si3 0.500000 0.250000 0.250000
Si Si4 0.612286 0.692251 0.635549
Si Si5 0.196880 0.922756 0.545406
O O1 0.366686 0.116164 0.179059
O O2 0.261755 0.078864 0.112979
O O3 0.303696 0.055834 0.375986
O O4 0.334730 0.981625 0.141453
O O5 0.698430 0.250000 0.750000
O O6 0.672961 0.155015 0.942271
O O7 0.750000 0.250000 0.000000
O O8 0.640323 0.285371 0.984029
O O9 0.456263 0.204045 0.152996
O O10 0.637230 0.750000 0.750000
#
# Coordination Sequence:
#
# PCOD9507144 Si02
#       5
#    16  16   4  16  16
#     4  11  21  32  52  78 122 151 187 225 302 357
#     4  12  22  33  57  89 121 149 193 243 303 358
#     4   8  20  40  66  80 104 156 224 238 280 340
#     4  10  20  39  60  80 105 157 200 247 280 346
#     4  11  21  32  47  83 119 151 179 231 297 371
#
# _framework density 16.688299000000001
#
# number of rings (size 3 to 8) (size 9 to 14) (size 15 to 20)
#    0.706    0.471    4.706    4.941    3.294    0.000 
#    0.000    0.588    0.000    5.647    0.000    0.000 
#    0.000    0.000    0.000    0.000    0.000    0.000 
#
# Total GULP energy -189551.720261 kJ/mol
# GULP energy per Si atom -5575.050596 kJ/mol
# Density = 1.665032 g / cm^3
# Si number density = 16.688299 Si / 1000 Ang^3
#
#
#
# Elastic Constant Matrix: (Units=GPa)
#
#
# Indices 1 2 3 4 5 6 
#
# 1 90.9122 31.8164 40.0553 0.0000 0.0000 0.0000
# 2 31.8164 118.3465 39.8191 0.0000 0.0000 0.0000
# 3 40.0553 39.8191 156.7972 0.0000 0.0000 0.0000
# 4 0.0000 0.0000 0.0000 26.0718 0.0000 0.0000
# 5 0.0000 0.0000 0.0000 0.0000 12.6359 0.0000
# 6 0.0000 0.0000 0.0000 0.0000 0.0000 23.4785
#
#
#
# Elastic Compliance Matrix: (Units=1/GPa)
#
#
# Indices 1 2 3 4 5 6 
#
# 1 0.013097 -0.002619 -0.002681 0.000000 0.000000 0.000000
# 2 -0.002619 0.009763 -0.001810 0.000000 0.000000 0.000000
# 3 -0.002681 -0.001810 0.007522 0.000000 0.000000 0.000000
# 4 0.000000 0.000000 0.000000 0.038356 0.000000 0.000000
# 5 0.000000 0.000000 0.000000 0.000000 0.079139 0.000000
# 6 0.000000 0.000000 0.000000 0.000000 0.000000 0.042592
#
#
# Mechanical properties :
#
#
# Convention : Reuss Voigt Hill
#
# Bulk Modulus (GPa) = 61.87231 65.49306 63.68269
# Shear Modulus (GPa) = 23.80077 29.39493 26.59785
#
# Velocity S-wave (km/s) = 3.78060 4.20147 3.99658
# Velocity P-wave (km/s) = 7.49753 7.92884 7.71620
#
# Compressibility (1/GPa) = 0.01616232
#
# Stress axis : x y z
#
# Youngs Moduli (GPa) = 76.35138 102.42776 132.93998
#
# Poissons Ratio (x) = 0.26827 0.35637
# Poissons Ratio (y) = 0.19998 0.24065
# Poissons Ratio (z) = 0.20467 0.18542
#
# Static dielectric constant tensor:
#      x y z
#    x 1.538910 0.000000 0.000000 
#    y 0.000000 1.607050 0.000000 
#    z 0.000000 0.000000 1.580850 
# 
# From -- ./inp_files/9465.got.cif
#   From: 2010.05.17/outbox.cif.g08.bks.cpg/sg68_5_cif.got.tgz:9465.got - 2010.06.03 18:57:09.
