data_PCOD9507308
_publ_section_title
;
Structure prediction by ZEFSAII (Michael W. Deem and Ramdas Pophale) SiO2 
 PCOD9507308
Probable space group: C C C A
;
_chemical_formula_sum "Si O2"
_cell_formula_units_Z 80
_cell_length_a 21.268217
_cell_length_b 19.610045
_cell_length_c 8.632320
_cell_angle_alpha 90.000000
_cell_angle_beta 90.000000
_cell_angle_gamma 90.000000
_cell_volume 3600.287680
_symmetry_space_group_name_H-M "C C C A"
_symmetry_group_IT_number 68
_space_group.IT_coordinate_system_code '2'
_symmetry_cell_setting 'orthorhombic'
loop_
_space_group_symop_operation_xyz
x,y,z
-x,1/2-y,z
x,1/2-y,1/2-z
-x,y,1/2-z
-x,-y,-z
x,1/2+y,-z
-x,1/2+y,1/2+z
x,-y,1/2+z
1/2+x,1/2+y,z
1/2-x,-y,z
1/2+x,-y,1/2-z
1/2-x,1/2+y,1/2-z
1/2-x,1/2-y,-z
1/2+x,y,-z
1/2-x,y,1/2+z
1/2+x,1/2-y,1/2+z
loop_
_atom_site_type_symbol
_atom_site_label
_atom_site_fract_x
_atom_site_fract_y
_atom_site_fract_z
Si Si1 0.500000 0.750000 0.467359
Si Si2 0.298688 0.412409 0.517304
Si Si3 0.173563 0.059156 0.123089
Si Si4 0.471042 0.905803 0.090579
Si Si5 0.386782 0.189830 0.158589
Si Si6 0.000000 0.902563 0.250000
O O1 0.482565 0.676034 0.398820
O O2 0.561529 0.731147 0.562585
O O3 0.224978 0.402172 0.482153
O O4 0.317851 0.479888 0.420506
O O5 0.310638 0.427004 0.697390
O O6 0.341078 0.352298 0.450809
O O7 0.102577 0.079594 0.091421
O O8 0.500000 0.935555 0.250000
O O9 0.501049 0.930508 0.926874
O O10 0.351787 0.250000 0.250000
O O11 0.433546 0.139320 0.253396
#
# Coordination Sequence:
#
# PCOD9507308 Si02
#       6
#     8  16  16  16  16   8
#     4  10  20  40  66  97 143 184 217 295 358 411
#     4  11  26  43  73  95 138 187 236 293 350 424
#     4  11  25  48  68 103 134 189 241 291 351 424
#     4  11  23  42  67 102 138 180 236 289 355 425
#     4  11  19  40  68 105 132 182 233 276 357 419
#     4  10  21  38  70  92 140 186 210 285 354 403
#
# _framework density 22.220447
#
# number of rings (size 3 to 8) (size 9 to 14) (size 15 to 20)
#    0.000    1.200    4.000    5.100    5.600    0.000 
#    1.800   11.000    0.000    0.000    0.000    0.000 
#    0.000    0.000    0.000    0.000    0.000    0.000 
#
# Total GULP energy -223255.158227 kJ/mol
# GULP energy per Si atom -5581.378956 kJ/mol
# Density = 2.216987 g / cm^3
# Si number density = 22.220447 Si / 1000 Ang^3
#
#
#
# Elastic Constant Matrix: (Units=GPa)
#
#
# Indices 1 2 3 4 5 6 
#
# 1 113.3961 21.6702 63.6918 0.0000 0.0000 0.0000
# 2 21.6702 55.5571 51.8964 0.0000 0.0000 0.0000
# 3 63.6918 51.8964 174.4314 0.0000 0.0000 0.0000
# 4 0.0000 0.0000 0.0000 30.0254 0.0000 0.0000
# 5 0.0000 0.0000 0.0000 0.0000 74.7817 0.0000
# 6 0.0000 0.0000 0.0000 0.0000 0.0000 192.0762
#
#
#
# Elastic Compliance Matrix: (Units=1/GPa)
#
#
# Indices 1 2 3 4 5 6 
#
# 1 0.011117 -0.000754 -0.003835 0.000000 0.000000 0.000000
# 2 -0.000754 0.024978 -0.007156 0.000000 0.000000 0.000000
# 3 -0.003835 -0.007156 0.009262 0.000000 0.000000 0.000000
# 4 0.000000 0.000000 0.000000 0.033305 0.000000 0.000000
# 5 0.000000 0.000000 0.000000 0.000000 0.013372 0.000000
# 6 0.000000 0.000000 0.000000 0.000000 0.000000 0.005206
#
#
# Mechanical properties :
#
#
# Convention : Reuss Voigt Hill
#
# Bulk Modulus (GPa) = 45.73048 68.65569 57.19308
# Shear Modulus (GPa) = 39.05651 73.11840 56.08745
#
# Velocity S-wave (km/s) = 4.19702 5.74259 5.02953
# Velocity P-wave (km/s) = 6.64166 8.65647 7.71512
#
# Compressibility (1/GPa) = 0.02186726
#
# Stress axis : x y z
#
# Youngs Moduli (GPa) = 89.95518 40.03493 107.96532
#
# Poissons Ratio (x) = 0.03018 0.41403
# Poissons Ratio (y) = 0.06782 0.77262
# Poissons Ratio (z) = 0.34496 0.28650
#
# Static dielectric constant tensor:
#      x y z
#    x 1.774780 0.000000 0.000000 
#    y 0.000000 1.870530 0.000000 
#    z 0.000000 0.000000 1.878570 
# 
# From -- ./inp_files/7066.got.cif
#   From: 2010.05.17/outbox.cif.g08.bks.cpg/sg68_4_cif.got.tgz:7066.got - 2010.06.03 18:57:09.
