data_PCOD9507137
_publ_section_title
;
Structure prediction by ZEFSAII (Michael W. Deem and Ramdas Pophale) SiO2 
 PCOD9507137
Probable space group: C C C A
;
_chemical_formula_sum "Si O2"
_cell_formula_units_Z 116
_cell_length_a 15.415437
_cell_length_b 18.379129
_cell_length_c 19.918091
_cell_angle_alpha 90.000000
_cell_angle_beta 90.000000
_cell_angle_gamma 90.000000
_cell_volume 5643.239458
_symmetry_space_group_name_H-M "C C C A"
_symmetry_group_IT_number 68
_space_group.IT_coordinate_system_code '2'
_symmetry_cell_setting 'orthorhombic'
loop_
_space_group_symop_operation_xyz
x,y,z
-x,1/2-y,z
x,1/2-y,1/2-z
-x,y,1/2-z
-x,-y,-z
x,1/2+y,-z
-x,1/2+y,1/2+z
x,-y,1/2+z
1/2+x,1/2+y,z
1/2-x,-y,z
1/2+x,-y,1/2-z
1/2-x,1/2+y,1/2-z
1/2-x,1/2-y,-z
1/2+x,y,-z
1/2-x,y,1/2+z
1/2+x,1/2-y,1/2+z
loop_
_atom_site_type_symbol
_atom_site_label
_atom_site_fract_x
_atom_site_fract_y
_atom_site_fract_z
Si Si1 0.581501 0.700507 0.048429
Si Si2 0.193302 0.572450 0.125947
Si Si3 0.246313 0.771458 0.408842
Si Si4 0.527216 0.428931 0.457473
Si Si5 0.630494 0.700878 0.193144
Si Si6 0.396460 0.334324 0.367379
Si Si7 0.763951 0.415241 0.723699
Si Si8 0.500000 0.750000 0.750000
O O1 0.500000 0.750000 0.028194
O O2 0.572808 0.685342 0.128248
O O3 0.677159 0.737802 0.044334
O O4 0.573660 0.626547 0.008468
O O5 0.250000 0.500000 0.119537
O O6 0.233592 0.642286 0.087602
O O7 0.098980 0.553573 0.098328
O O8 0.191782 0.595410 0.203928
O O9 0.290192 0.750214 0.336725
O O10 0.153725 0.731024 0.405528
O O11 0.500000 0.500000 0.500000
O O12 0.453576 0.382504 0.418302
O O13 0.590354 0.750000 0.250000
O O14 0.673470 0.627980 0.221106
O O15 0.322632 0.385070 0.335844
O O16 0.446473 0.299881 0.303104
O O17 0.750000 0.500000 0.714783
#
# Coordination Sequence:
#
# PCOD9507137 Si02
#       8
#    16  16  16  16  16  16  16   4
#     4  10  25  44  68  95 135 185 237 280 342 426
#     4  11  24  43  67 100 134 182 225 302 359 419
#     4   9  21  41  70  97 126 174 238 284 352 417
#     4  12  30  45  63  98 155 192 236 283 350 438
#     4   9  18  39  69  99 124 165 227 298 341 412
#     4  11  23  41  73 102 137 179 231 301 356 425
#     4  10  20  38  70  99 130 166 233 287 366 417
#     4  12  24  40  80 116 134 164 236 320 372 392
#
# _framework density 20.555568999999998
#
# number of rings (size 3 to 8) (size 9 to 14) (size 15 to 20)
#    0.828    0.828    1.379    2.483    8.690    1.931 
#    0.000    0.000    0.000    0.000    0.000    0.000 
#    0.000    0.000    0.000    0.000    0.000    0.000 
#
# Total GULP energy -323591.790604 kJ/mol
# GULP energy per Si atom -5579.168804 kJ/mol
# Density = 2.050878 g / cm^3
# Si number density = 20.555569 Si / 1000 Ang^3
#
#
#
# Elastic Constant Matrix: (Units=GPa)
#
#
# Indices 1 2 3 4 5 6 
#
# 1 93.2003 45.0240 31.6274 0.0000 0.0000 0.0000
# 2 45.0240 130.1968 44.1387 0.0000 0.0000 0.0000
# 3 31.6274 44.1387 102.4654 0.0000 0.0000 0.0000
# 4 0.0000 0.0000 0.0000 35.6907 0.0000 0.0000
# 5 0.0000 0.0000 0.0000 0.0000 33.9434 0.0000
# 6 0.0000 0.0000 0.0000 0.0000 0.0000 22.5611
#
#
#
# Elastic Compliance Matrix: (Units=1/GPa)
#
#
# Indices 1 2 3 4 5 6 
#
# 1 0.013410 -0.003787 -0.002508 0.000000 0.000000 0.000000
# 2 -0.003787 0.010064 -0.003166 0.000000 0.000000 0.000000
# 3 -0.002508 -0.003166 0.011897 0.000000 0.000000 0.000000
# 4 0.000000 0.000000 0.000000 0.028019 0.000000 0.000000
# 5 0.000000 0.000000 0.000000 0.000000 0.029461 0.000000
# 6 0.000000 0.000000 0.000000 0.000000 0.000000 0.044324
#
#
# Mechanical properties :
#
#
# Convention : Reuss Voigt Hill
#
# Bulk Modulus (GPa) = 60.79457 63.04919 61.92188
# Shear Modulus (GPa) = 30.94442 32.11053 31.52747
#
# Velocity S-wave (km/s) = 3.88416 3.95667 3.92058
# Velocity P-wave (km/s) = 7.05376 7.18420 7.11928
#
# Compressibility (1/GPa) = 0.01644884
#
# Stress axis : x y z
#
# Youngs Moduli (GPa) = 74.57016 99.36663 84.05249
#
# Poissons Ratio (x) = 0.37633 0.21079
# Poissons Ratio (y) = 0.28242 0.26612
# Poissons Ratio (z) = 0.18701 0.31461
#
# Static dielectric constant tensor:
#      x y z
#    x 1.758430 0.000000 0.000000 
#    y 0.000000 1.710970 0.000000 
#    z 0.000000 0.000000 1.806860 
# 
# From -- ./inp_files/32157.got.cif
#   From: 2010.05.17/outbox.cif.g08.bks.cpg/sg68_17_cif.got.tgz:32157.got - 2010.06.03 18:57:09.
