data_PCOD9507589
_publ_section_title
;
Structure prediction by ZEFSAII (Michael W. Deem and Ramdas Pophale) SiO2 
 PCOD9507589
Probable space group: C C C A
;
_chemical_formula_sum "Si O2"
_cell_formula_units_Z 80
_cell_length_a 22.655513
_cell_length_b 5.026481
_cell_length_c 32.728229
_cell_angle_alpha 90.000000
_cell_angle_beta 90.000000
_cell_angle_gamma 90.000000
_cell_volume 3727.009083
_symmetry_space_group_name_H-M "C C C A"
_symmetry_group_IT_number 68
_space_group.IT_coordinate_system_code '2'
_symmetry_cell_setting 'orthorhombic'
loop_
_space_group_symop_operation_xyz
x,y,z
-x,1/2-y,z
x,1/2-y,1/2-z
-x,y,1/2-z
-x,-y,-z
x,1/2+y,-z
-x,1/2+y,1/2+z
x,-y,1/2+z
1/2+x,1/2+y,z
1/2-x,-y,z
1/2+x,-y,1/2-z
1/2-x,1/2+y,1/2-z
1/2-x,1/2-y,-z
1/2+x,y,-z
1/2-x,y,1/2+z
1/2+x,1/2-y,1/2+z
loop_
_atom_site_type_symbol
_atom_site_label
_atom_site_fract_x
_atom_site_fract_y
_atom_site_fract_z
Si Si1 0.679217 0.999969 0.777743
Si Si2 0.369545 0.406668 0.366943
Si Si3 0.441056 0.091027 0.890714
Si Si4 0.709306 0.745897 0.558760
Si Si5 0.419345 0.828268 0.975871
O O1 0.663727 0.750000 0.750000
O O2 0.649492 0.985993 0.821742
O O3 0.663283 0.250000 0.750000
O O4 0.750000 0.000000 0.784173
O O5 0.393650 0.670911 0.389370
O O6 0.316223 0.309412 0.395738
O O7 0.416713 0.162919 0.365396
O O8 0.500000 0.250000 0.878225
O O9 0.446156 0.957877 0.935296
O O10 0.750000 0.500000 0.545045
O O11 0.750000 0.000000 0.559635
O O12 0.651039 0.808438 0.532334
O O13 0.434912 0.028379 0.012426
#
# Coordination Sequence:
#
# PCOD9507589 Si02
#       5
#    16  16  16  16  16
#     4  10  21  36  60  95 129 159 187 224 284 350
#     4  11  22  40  63  88 122 155 198 249 288 352
#     4  11  24  42  64  86 111 155 208 255 305 349
#     4  11  22  36  57  85 119 162 199 235 294 365
#     4  11  23  38  56  84 117 151 199 254 306 359
#
# _framework density 21.464935000000001
#
# number of rings (size 3 to 8) (size 9 to 14) (size 15 to 20)
#    0.000    1.200    0.000    8.400    0.000    5.600 
#    0.000    0.000    0.000    9.000    0.000    0.000 
#    0.000    0.000    0.000    0.000    0.000    0.000 
#
# Total GULP energy -223779.462023 kJ/mol
# GULP energy per Si atom -5594.486551 kJ/mol
# Density = 2.141608 g / cm^3
# Si number density = 21.464935 Si / 1000 Ang^3
#
#
#
# Elastic Constant Matrix: (Units=GPa)
#
#
# Indices 1 2 3 4 5 6 
#
# 1 90.4257 55.6823 39.1470 0.0000 0.0000 0.0000
# 2 55.6823 176.9192 49.3377 0.0000 0.0000 0.0000
# 3 39.1470 49.3377 110.1618 0.0000 0.0000 0.0000
# 4 0.0000 0.0000 0.0000 152.3346 0.0000 0.0000
# 5 0.0000 0.0000 0.0000 0.0000 12.5833 0.0000
# 6 0.0000 0.0000 0.0000 0.0000 0.0000 37.9250
#
#
#
# Elastic Compliance Matrix: (Units=1/GPa)
#
#
# Indices 1 2 3 4 5 6 
#
# 1 0.014900 -0.003672 -0.003651 0.000000 0.000000 0.000000
# 2 -0.003672 0.007364 -0.001993 0.000000 0.000000 0.000000
# 3 -0.003651 -0.001993 0.011268 0.000000 0.000000 0.000000
# 4 0.000000 0.000000 0.000000 0.006564 0.000000 0.000000
# 5 0.000000 0.000000 0.000000 0.000000 0.079470 0.000000
# 6 0.000000 0.000000 0.000000 0.000000 0.000000 0.026368
#
#
# Mechanical properties :
#
#
# Convention : Reuss Voigt Hill
#
# Bulk Modulus (GPa) = 67.11097 73.98230 70.54664
# Shear Modulus (GPa) = 29.49305 56.12455 42.80880
#
# Velocity S-wave (km/s) = 3.71079 5.11897 4.47067
# Velocity P-wave (km/s) = 7.04934 8.33546 7.71923
#
# Compressibility (1/GPa) = 0.01490069
#
# Stress axis : x y z
#
# Youngs Moduli (GPa) = 67.11397 135.80131 88.75071
#
# Poissons Ratio (x) = 0.49859 0.32399
# Poissons Ratio (y) = 0.24641 0.17690
# Poissons Ratio (z) = 0.24500 0.27069
#
# Static dielectric constant tensor:
#      x y z
#    x 1.909030 0.000000 0.000000 
#    y 0.000000 1.680900 0.000000 
#    z 0.000000 0.000000 1.734060 
# 
# From -- ./inp_files/55919.got.cif
#   From: 2010.05.17/outbox.cif.g08.bks.cpg/sg68_28_cif.got.tgz:55919.got - 2010.06.03 18:57:09.
