data_PCOD9507887
_publ_section_title
;
Structure prediction by ZEFSAII (Michael W. Deem and Ramdas Pophale) SiO2 
 PCOD9507887
Probable space group: C C C A
;
_chemical_formula_sum "Si O2"
_cell_formula_units_Z 64
_cell_length_a 8.385762
_cell_length_b 16.460506
_cell_length_c 24.492992
_cell_angle_alpha 90.000000
_cell_angle_beta 90.000000
_cell_angle_gamma 90.000000
_cell_volume 3380.862859
_symmetry_space_group_name_H-M "C C C A"
_symmetry_group_IT_number 68
_space_group.IT_coordinate_system_code '2'
_symmetry_cell_setting 'orthorhombic'
loop_
_space_group_symop_operation_xyz
x,y,z
-x,1/2-y,z
x,1/2-y,1/2-z
-x,y,1/2-z
-x,-y,-z
x,1/2+y,-z
-x,1/2+y,1/2+z
x,-y,1/2+z
1/2+x,1/2+y,z
1/2-x,-y,z
1/2+x,-y,1/2-z
1/2-x,1/2+y,1/2-z
1/2-x,1/2-y,-z
1/2+x,y,-z
1/2-x,y,1/2+z
1/2+x,1/2-y,1/2+z
loop_
_atom_site_type_symbol
_atom_site_label
_atom_site_fract_x
_atom_site_fract_y
_atom_site_fract_z
Si Si1 0.191234 0.409026 0.129065
Si Si2 0.382520 0.826580 0.154006
Si Si3 0.809360 0.906921 0.248722
Si Si4 0.811238 0.738672 0.438753
O O1 0.250000 0.500000 0.120025
O O2 0.258111 0.381534 0.188022
O O3 0.257416 0.349282 0.083235
O O4 0.001327 0.398687 0.135505
O O5 0.500000 0.750000 0.165824
O O6 0.277536 0.853117 0.205539
O O7 0.273071 0.800312 0.103401
O O8 0.000000 0.903557 0.250000
O O9 0.750000 0.000000 0.256071
O O10 0.750000 0.750000 0.500000
O O11 0.000000 0.750000 0.436570
#
# Coordination Sequence:
#
# PCOD9507887 Si02
#       4
#    16  16  16  16
#     4  10  21  39  61  87 119 154 192 240 293 349
#     4  10  22  39  60  87 119 156 195 243 294 346
#     4  11  21  36  59  90 123 157 195 241 293 351
#     4  11  23  42  62  85 115 153 198 245 292 345
#
# _framework density 18.930078999999999
#
# number of rings (size 3 to 8) (size 9 to 14) (size 15 to 20)
#    0.000    1.500    0.000    7.500    0.000    7.000 
#    0.000   12.500    0.000    0.000    0.000    0.000 
#    0.000    0.000    0.000    0.000    0.000    0.000 
#
# Total GULP energy -178874.439655 kJ/mol
# GULP energy per Si atom -5589.826239 kJ/mol
# Density = 1.888699 g / cm^3
# Si number density = 18.930079 Si / 1000 Ang^3
#
#
#
# Elastic Constant Matrix: (Units=GPa)
#
#
# Indices 1 2 3 4 5 6 
#
# 1 191.4609 59.3667 85.0983 0.0000 0.0000 0.0000
# 2 59.3667 85.5839 80.1782 0.0000 0.0000 0.0000
# 3 85.0983 80.1782 191.3272 0.0000 0.0000 0.0000
# 4 0.0000 0.0000 0.0000 2.6936 0.0000 0.0000
# 5 0.0000 0.0000 0.0000 0.0000 38.4204 0.0000
# 6 0.0000 0.0000 0.0000 0.0000 0.0000 32.3768
#
#
#
# Elastic Compliance Matrix: (Units=1/GPa)
#
#
# Indices 1 2 3 4 5 6 
#
# 1 0.007003 -0.003193 -0.001776 0.000000 0.000000 0.000000
# 2 -0.003193 0.020693 -0.007251 0.000000 0.000000 0.000000
# 3 -0.001776 -0.007251 0.009056 0.000000 0.000000 0.000000
# 4 0.000000 0.000000 0.000000 0.371246 0.000000 0.000000
# 5 0.000000 0.000000 0.000000 0.000000 0.026028 0.000000
# 6 0.000000 0.000000 0.000000 0.000000 0.000000 0.030886
#
#
# Mechanical properties :
#
#
# Convention : Reuss Voigt Hill
#
# Bulk Modulus (GPa) = 81.24164 101.96205 91.60184
# Shear Modulus (GPa) = 10.13261 30.94675 20.53968
#
# Velocity S-wave (km/s) = 2.31609 4.04764 3.29755
# Velocity P-wave (km/s) = 7.08253 8.70769 7.93682
#
# Compressibility (1/GPa) = 0.01230896
#
# Stress axis : x y z
#
# Youngs Moduli (GPa) = 142.80123 48.32600 110.42969
#
# Poissons Ratio (x) = 0.15432 0.19618
# Poissons Ratio (y) = 0.45601 0.80076
# Poissons Ratio (z) = 0.25368 0.35043
#
# Static dielectric constant tensor:
#      x y z
#    x 1.672390 0.000000 0.000000 
#    y 0.000000 1.678050 0.000000 
#    z 0.000000 0.000000 1.621290 
# 
# From -- ./inp_files/35751.got.cif
#   From: 2010.05.17/outbox.cif.g08.bks.cpg/sg68_18_cif.got.tgz:35751.got - 2010.06.03 18:57:09.
