data_PCOD9507807
_publ_section_title
;
Structure prediction by ZEFSAII (Michael W. Deem and Ramdas Pophale) SiO2 
 PCOD9507807
Probable space group: C C C A
;
_chemical_formula_sum "Si O2"
_cell_formula_units_Z 88
_cell_length_a 20.473730
_cell_length_b 7.659705
_cell_length_c 27.855484
_cell_angle_alpha 90.000000
_cell_angle_beta 90.000000
_cell_angle_gamma 90.000000
_cell_volume 4368.373103
_symmetry_space_group_name_H-M "C C C A"
_symmetry_group_IT_number 68
_space_group.IT_coordinate_system_code '2'
_symmetry_cell_setting 'orthorhombic'
loop_
_space_group_symop_operation_xyz
x,y,z
-x,1/2-y,z
x,1/2-y,1/2-z
-x,y,1/2-z
-x,-y,-z
x,1/2+y,-z
-x,1/2+y,1/2+z
x,-y,1/2+z
1/2+x,1/2+y,z
1/2-x,-y,z
1/2+x,-y,1/2-z
1/2-x,1/2+y,1/2-z
1/2-x,1/2-y,-z
1/2+x,y,-z
1/2-x,y,1/2+z
1/2+x,1/2-y,1/2+z
loop_
_atom_site_type_symbol
_atom_site_label
_atom_site_fract_x
_atom_site_fract_y
_atom_site_fract_z
Si Si1 0.250000 0.500000 0.642923
Si Si2 0.894335 0.507210 0.130755
Si Si3 0.888203 0.582988 0.376566
Si Si4 0.292423 0.828048 0.199954
Si Si5 0.487265 0.038890 0.303194
Si Si6 0.494195 0.544881 0.444319
O O1 0.182567 0.495981 0.613037
O O2 0.251456 0.329480 0.676585
O O3 0.879120 0.712194 0.133353
O O4 0.839472 0.394422 0.156838
O O5 0.958489 0.463736 0.161877
O O6 0.922006 0.491309 0.076924
O O7 0.946641 0.550399 0.414954
O O8 0.917187 0.506097 0.326677
O O9 0.320928 0.750000 0.250000
O O10 0.250000 0.000000 0.212344
O O11 0.500000 0.250000 0.303613
O O12 0.500000 0.976494 0.250000
O O13 0.500000 0.750000 0.437608
O O14 0.500000 0.500000 0.500000
#
# Coordination Sequence:
#
# PCOD9507807 Si02
#       6
#     8  16  16  16  16  16
#     4  12  24  40  64  88 134 178 224 272 328 404
#     4  10  21  40  62  93 130 168 222 282 331 393
#     4  10  21  38  64  95 128 172 217 275 339 397
#     4  12  25  41  60  92 133 185 234 273 327 403
#     4   8  16  30  54  83 118 160 206 262 318 375
#     4  11  22  42  72 101 129 169 224 287 354 414
#
# _framework density 20.144798999999999
#
# number of rings (size 3 to 8) (size 9 to 14) (size 15 to 20)
#    0.000    1.636    2.727    3.818    2.545    0.000 
#    0.000    0.000    2.000    3.273    0.000    0.000 
#    0.000    0.000    0.000    0.000    0.000    0.000 
#
# Total GULP energy -245252.123329 kJ/mol
# GULP energy per Si atom -5573.911894 kJ/mol
# Density = 2.009895 g / cm^3
# Si number density = 20.144799 Si / 1000 Ang^3
#
#
#
# Elastic Constant Matrix: (Units=GPa)
#
#
# Indices 1 2 3 4 5 6 
#
# 1 105.7839 29.3009 44.9627 0.0000 0.0000 0.0000
# 2 29.3009 109.0732 18.3010 0.0000 0.0000 0.0000
# 3 44.9627 18.3010 124.2655 0.0000 0.0000 0.0000
# 4 0.0000 0.0000 0.0000 25.6737 0.0000 0.0000
# 5 0.0000 0.0000 0.0000 0.0000 22.0489 0.0000
# 6 0.0000 0.0000 0.0000 0.0000 0.0000 27.1150
#
#
#
# Elastic Compliance Matrix: (Units=1/GPa)
#
#
# Indices 1 2 3 4 5 6 
#
# 1 0.011809 -0.002518 -0.003902 0.000000 0.000000 0.000000
# 2 -0.002518 0.009937 -0.000553 0.000000 0.000000 0.000000
# 3 -0.003902 -0.000553 0.009541 0.000000 0.000000 0.000000
# 4 0.000000 0.000000 0.000000 0.038950 0.000000 0.000000
# 5 0.000000 0.000000 0.000000 0.000000 0.045354 0.000000
# 6 0.000000 0.000000 0.000000 0.000000 0.000000 0.036880
#
#
# Mechanical properties :
#
#
# Convention : Reuss Voigt Hill
#
# Bulk Modulus (GPa) = 57.66228 58.25018 57.95623
# Shear Modulus (GPa) = 29.03665 31.40473 30.22069
#
# Velocity S-wave (km/s) = 3.80069 3.95264 3.87741
# Velocity P-wave (km/s) = 6.92433 7.05759 6.99128
#
# Compressibility (1/GPa) = 0.01734236
#
# Stress axis : x y z
#
# Youngs Moduli (GPa) = 84.68018 100.63217 104.81583
#
# Poissons Ratio (x) = 0.25335 0.40900
# Poissons Ratio (y) = 0.21319 0.05791
# Poissons Ratio (z) = 0.33043 0.05560
#
# Static dielectric constant tensor:
#      x y z
#    x 1.763830 0.000000 0.000000 
#    y 0.000000 1.765050 0.000000 
#    z 0.000000 0.000000 1.750420 
# 
# From -- ./inp_files/55568.got.cif
#   From: 2010.05.17/outbox.cif.g08.bks.cpg/sg68_28_cif.got.tgz:55568.got - 2010.06.03 18:57:09.
