data_PCOD9507798
_publ_section_title
;
Structure prediction by ZEFSAII (Michael W. Deem and Ramdas Pophale) SiO2 
 PCOD9507798
Probable space group: C C C A
;
_chemical_formula_sum "Si O2"
_cell_formula_units_Z 52
_cell_length_a 13.694339
_cell_length_b 39.125823
_cell_length_c 4.992101
_cell_angle_alpha 90.000000
_cell_angle_beta 90.000000
_cell_angle_gamma 90.000000
_cell_volume 2674.779117
_symmetry_space_group_name_H-M "C C C A"
_symmetry_group_IT_number 68
_space_group.IT_coordinate_system_code '2'
_symmetry_cell_setting 'orthorhombic'
loop_
_space_group_symop_operation_xyz
x,y,z
-x,1/2-y,z
x,1/2-y,1/2-z
-x,y,1/2-z
-x,-y,-z
x,1/2+y,-z
-x,1/2+y,1/2+z
x,-y,1/2+z
1/2+x,1/2+y,z
1/2-x,-y,z
1/2+x,-y,1/2-z
1/2-x,1/2+y,1/2-z
1/2-x,1/2-y,-z
1/2+x,y,-z
1/2-x,y,1/2+z
1/2+x,1/2-y,1/2+z
loop_
_atom_site_type_symbol
_atom_site_label
_atom_site_fract_x
_atom_site_fract_y
_atom_site_fract_z
Si Si1 0.500000 0.798211 0.250000
Si Si2 0.682390 0.654097 0.236450
Si Si3 0.500000 0.750000 0.750000
Si Si4 0.682941 0.925176 0.221956
Si Si5 0.000000 0.974943 0.750000
O O1 0.408012 0.821591 0.174526
O O2 0.464792 0.776835 0.515018
O O3 0.731225 0.659910 0.524238
O O4 0.651441 0.614243 0.232953
O O5 0.771381 0.930283 0.429550
O O6 0.594510 0.950773 0.262870
O O7 0.000000 0.000000 0.500000
#
# Coordination Sequence:
#
# PCOD9507798 Si02
#       5
#     8  16   4  16   8
#     4  11  21  42  59  82 124 151 188 239 276 338
#     4  10  21  38  64  89 109 148 197 239 290 333
#     4  10  24  38  58  86 120 162 184 220 292 342
#     4  10  22  40  60  86 116 146 192 247 287 331
#     4  12  25  38  58  86 116 159 196 223 288 356
#
# _framework density 19.440857000000001
#
# number of rings (size 3 to 8) (size 9 to 14) (size 15 to 20)
#    0.000    1.538    0.000    4.615    0.000    3.692 
#    0.000   27.692    0.000    0.000    0.000    0.000 
#    0.000    0.000    0.000    0.000    0.000    0.000 
#
# Total GULP energy -144848.364838 kJ/mol
# GULP energy per Si atom -5571.090955 kJ/mol
# Density = 1.939661 g / cm^3
# Si number density = 19.440857 Si / 1000 Ang^3
#
#
#
# Elastic Constant Matrix: (Units=GPa)
#
#
# Indices 1 2 3 4 5 6 
#
# 1 59.5568 59.6022 -15.8819 0.0000 0.0000 0.0000
# 2 59.6022 100.0845 11.1873 0.0000 0.0000 0.0000
# 3 -15.8819 11.1873 82.2468 0.0000 0.0000 0.0000
# 4 0.0000 0.0000 0.0000 32.6721 0.0000 0.0000
# 5 0.0000 0.0000 0.0000 0.0000 9.4779 0.0000
# 6 0.0000 0.0000 0.0000 0.0000 0.0000 -28.2960
#
#
#
# Elastic Compliance Matrix: (Units=1/GPa)
#
#
# Indices 1 2 3 4 5 6 
#
# 1 0.056219 -0.035228 0.015648 0.000000 0.000000 0.000000
# 2 -0.035228 0.032221 -0.011185 0.000000 0.000000 0.000000
# 3 0.015648 -0.011185 0.016702 0.000000 0.000000 0.000000
# 4 0.000000 0.000000 0.000000 0.030607 0.000000 0.000000
# 5 0.000000 0.000000 0.000000 0.000000 0.105509 0.000000
# 6 0.000000 0.000000 0.000000 0.000000 0.000000 -0.035341
#
#
# Mechanical properties :
#
#
# Convention : Reuss Voigt Hill
#
# Bulk Modulus (GPa) = 22.93098 39.07814 31.00456
# Shear Modulus (GPa) = 17.73143 15.23615 16.48379
#
# Velocity S-wave (km/s) = 3.02333 2.80253 2.91502
# Velocity P-wave (km/s) = 4.89982 5.53326 5.22614
#
# Compressibility (1/GPa) = 0.04360913
#
# Stress axis : x y z
#
# Youngs Moduli (GPa) = 17.78770 31.03567 59.87462
#
# Poissons Ratio (x) = 1.09334 -0.93690
# Poissons Ratio (y) = 0.62663 0.66972
# Poissons Ratio (z) = -0.27834 0.34715
#
# Static dielectric constant tensor:
#      x y z
#    x 1.632990 0.000000 0.000000 
#    y 0.000000 1.689290 0.000000 
#    z 0.000000 0.000000 1.659970 
# 
# From -- ./inp_files/729.got.cif
#   From: 2010.05.17/outbox.cif.g08.bks.cpg/sg68_1_cif.got.tgz:729.got - 2010.06.03 18:57:09.
