data_PCOD9507547
_publ_section_title
;
Structure prediction by ZEFSAII (Michael W. Deem and Ramdas Pophale) SiO2 
 PCOD9507547
Probable space group: C C C A
;
_chemical_formula_sum "Si O2"
_cell_formula_units_Z 64
_cell_length_a 5.270410
_cell_length_b 15.025840
_cell_length_c 37.319772
_cell_angle_alpha 90.000000
_cell_angle_beta 90.000000
_cell_angle_gamma 90.000000
_cell_volume 2955.439976
_symmetry_space_group_name_H-M "C C C A"
_symmetry_group_IT_number 68
_space_group.IT_coordinate_system_code '2'
_symmetry_cell_setting 'orthorhombic'
loop_
_space_group_symop_operation_xyz
x,y,z
-x,1/2-y,z
x,1/2-y,1/2-z
-x,y,1/2-z
-x,-y,-z
x,1/2+y,-z
-x,1/2+y,1/2+z
x,-y,1/2+z
1/2+x,1/2+y,z
1/2-x,-y,z
1/2+x,-y,1/2-z
1/2-x,1/2+y,1/2-z
1/2-x,1/2-y,-z
1/2+x,y,-z
1/2-x,y,1/2+z
1/2+x,1/2-y,1/2+z
loop_
_atom_site_type_symbol
_atom_site_label
_atom_site_fract_x
_atom_site_fract_y
_atom_site_fract_z
Si Si1 0.501676 0.641729 0.093207
Si Si2 0.310299 0.602910 0.014613
Si Si3 0.001192 0.438925 0.789207
Si Si4 0.003905 0.643718 0.133960
O O1 0.500000 0.750000 0.091814
O O2 0.433326 0.608987 0.053667
O O3 0.768245 0.611132 0.109852
O O4 0.272495 0.611882 0.118782
O O5 0.250000 0.500000 0.005566
O O6 0.527413 0.643004 0.988726
O O7 0.250000 0.500000 0.789401
O O8 0.018449 0.379809 0.824470
O O9 0.000000 0.392859 0.750000
O O10 0.750000 0.500000 0.791682
O O11 0.000000 0.750000 0.130595
#
# Coordination Sequence:
#
# PCOD9507547 Si02
#       4
#    16  16  16  16
#     4  10  21  36  55  80 108 140 181 225 268 321
#     4  10  21  36  53  76 106 139 178 223 270 323
#     4  10  21  37  57  83 113 144 182 225 268 320
#     4  10  21  37  56  81 112 144 182 225 269 322
#
# _framework density 21.654980999999999
#
# number of rings (size 3 to 8) (size 9 to 14) (size 15 to 20)
#    0.000    2.000    0.000    3.000    0.000    4.500 
#    0.000    0.000    0.000    9.000    0.000    0.000 
#    0.000    0.000    0.000    0.000    0.000    0.000 
#
# Total GULP energy -178718.614234 kJ/mol
# GULP energy per Si atom -5584.956695 kJ/mol
# Density = 2.160569 g / cm^3
# Si number density = 21.654981 Si / 1000 Ang^3
#
#
#
# Elastic Constant Matrix: (Units=GPa)
#
#
# Indices 1 2 3 4 5 6 
#
# 1 188.2328 24.1594 60.0854 0.0000 0.0000 0.0000
# 2 24.1594 38.0290 6.6501 0.0000 0.0000 0.0000
# 3 60.0854 6.6501 147.9999 0.0000 0.0000 0.0000
# 4 0.0000 0.0000 0.0000 38.7858 0.0000 0.0000
# 5 0.0000 0.0000 0.0000 0.0000 48.5111 0.0000
# 6 0.0000 0.0000 0.0000 0.0000 0.0000 -3.6464
#
#
#
# Elastic Compliance Matrix: (Units=1/GPa)
#
#
# Indices 1 2 3 4 5 6 
#
# 1 0.006595 -0.003751 -0.002509 0.000000 0.000000 0.000000
# 2 -0.003751 0.028637 0.000236 0.000000 0.000000 0.000000
# 3 -0.002509 0.000236 0.007765 0.000000 0.000000 0.000000
# 4 0.000000 0.000000 0.000000 0.025783 0.000000 0.000000
# 5 0.000000 0.000000 0.000000 0.000000 0.020614 0.000000
# 6 0.000000 0.000000 0.000000 0.000000 0.000000 -0.274246
#
#
# Mechanical properties :
#
#
# Convention : Reuss Voigt Hill
#
# Bulk Modulus (GPa) = 32.31076 61.78350 47.04713
# Shear Modulus (GPa) = -30.77145 35.62121 2.42488
#
# Velocity S-wave (km/s) = -3.77369 4.06019 1.05934
# Velocity P-wave (km/s) = 2.00861 7.11147 4.82382
#
# Compressibility (1/GPa) = 0.03094944
#
# Stress axis : x y z
#
# Youngs Moduli (GPa) = 151.63376 34.91946 128.78786
#
# Poissons Ratio (x) = 0.13098 0.32311
# Poissons Ratio (y) = 0.56876 -0.03040
# Poissons Ratio (z) = 0.38043 -0.00824
#
# Static dielectric constant tensor:
#      x y z
#    x 1.836010 0.000000 0.000000 
#    y 0.000000 1.790310 0.000000 
#    z 0.000000 0.000000 1.783530 
# 
# From -- ./inp_files/48103.got.cif
#   From: 2010.05.17/outbox.cif.g08.bks.cpg/sg68_25_cif.got.tgz:48103.got - 2010.06.03 18:57:09.
