data_PCOD9507110
_publ_section_title
;
Structure prediction by ZEFSAII (Michael W. Deem and Ramdas Pophale) SiO2 
 PCOD9507110
Probable space group: C C C A
;
_chemical_formula_sum "Si O2"
_cell_formula_units_Z 48
_cell_length_a 10.003331
_cell_length_b 11.206548
_cell_length_c 17.926731
_cell_angle_alpha 90.000000
_cell_angle_beta 90.000000
_cell_angle_gamma 90.000000
_cell_volume 2009.636901
_symmetry_space_group_name_H-M "C C C A"
_symmetry_group_IT_number 68
_space_group.IT_coordinate_system_code '2'
_symmetry_cell_setting 'orthorhombic'
loop_
_space_group_symop_operation_xyz
x,y,z
-x,1/2-y,z
x,1/2-y,1/2-z
-x,y,1/2-z
-x,-y,-z
x,1/2+y,-z
-x,1/2+y,1/2+z
x,-y,1/2+z
1/2+x,1/2+y,z
1/2-x,-y,z
1/2+x,-y,1/2-z
1/2-x,1/2+y,1/2-z
1/2-x,1/2-y,-z
1/2+x,y,-z
1/2-x,y,1/2+z
1/2+x,1/2-y,1/2+z
loop_
_atom_site_type_symbol
_atom_site_label
_atom_site_fract_x
_atom_site_fract_y
_atom_site_fract_z
Si Si1 0.590736 0.139827 0.063550
Si Si2 0.000000 0.912280 0.750000
Si Si3 0.385891 0.925197 0.099378
Si Si4 0.750000 0.000000 0.165551
O O1 0.500000 0.250000 0.087432
O O2 0.500500 0.022356 0.078820
O O3 0.722234 0.113476 0.112224
O O4 0.626524 0.150440 0.976357
O O5 0.929853 0.859256 0.824579
O O6 0.878212 0.987381 0.716978
O O7 0.250000 0.000000 0.110370
#
# Coordination Sequence:
#
# PCOD9507110 Si02
#       4
#    16   8  16   8
#     4  10  22  40  67  94 126 170 231 276 327 406
#     4  10  20  38  66  88 134 174 212 278 340 402
#     4  10  20  40  63  91 125 173 217 275 342 397
#     4  10  20  40  68  96 126 180 226 272 346 398
#
# _framework density 23.884910999999999
#
# number of rings (size 3 to 8) (size 9 to 14) (size 15 to 20)
#    0.000    2.000    3.333    0.000    0.000    1.333 
#    0.000   14.167    0.000    0.000    0.000    0.000 
#    0.000    0.000    0.000    0.000    0.000    0.000 
#
# Total GULP energy -133900.240881 kJ/mol
# GULP energy per Si atom -5579.176703 kJ/mol
# Density = 2.383055 g / cm^3
# Si number density = 23.884911 Si / 1000 Ang^3
#
#
#
# Elastic Constant Matrix: (Units=GPa)
#
#
# Indices 1 2 3 4 5 6 
#
# 1 133.2482 17.3279 61.9857 0.0000 0.0000 0.0000
# 2 17.3279 63.3893 31.5097 0.0000 0.0000 0.0000
# 3 61.9857 31.5097 194.7063 0.0000 0.0000 0.0000
# 4 0.0000 0.0000 0.0000 -9.2694 0.0000 0.0000
# 5 0.0000 0.0000 0.0000 0.0000 -18.0548 0.0000
# 6 0.0000 0.0000 0.0000 0.0000 0.0000 41.6166
#
#
#
# Elastic Compliance Matrix: (Units=1/GPa)
#
#
# Indices 1 2 3 4 5 6 
#
# 1 0.008881 -0.001112 -0.002647 0.000000 0.000000 0.000000
# 2 -0.001112 0.017295 -0.002445 0.000000 0.000000 0.000000
# 3 -0.002647 -0.002445 0.006374 0.000000 0.000000 0.000000
# 4 0.000000 0.000000 0.000000 -0.107882 0.000000 0.000000
# 5 0.000000 0.000000 0.000000 0.000000 -0.055387 0.000000
# 6 0.000000 0.000000 0.000000 0.000000 0.000000 0.024029
#
#
# Mechanical properties :
#
#
# Convention : Reuss Voigt Hill
#
# Bulk Modulus (GPa) = 49.64733 68.11003 58.87868
# Shear Modulus (GPa) = -57.09875 21.55984 -17.76946
#
# Velocity S-wave (km/s) = -4.89466 3.00768 -2.73053
# Velocity P-wave (km/s) = 3.33353 6.37490 3.84233
#
# Compressibility (1/GPa) = 0.02014207
#
# Stress axis : x y z
#
# Youngs Moduli (GPa) = 112.60139 57.82098 156.87730
#
# Poissons Ratio (x) = 0.06428 0.41531
# Poissons Ratio (y) = 0.12518 0.38355
# Poissons Ratio (z) = 0.29810 0.14137
#
# Static dielectric constant tensor:
#      x y z
#    x 1.958380 0.000000 0.000000 
#    y 0.000000 1.880760 0.000000 
#    z 0.000000 0.000000 1.957120 
# 
# From -- ./inp_files/20032.got.cif
#   From: 2010.05.17/outbox.cif.g08.bks.cpg/sg68_11_cif.got.tgz:20032.got - 2010.06.03 18:57:09.
