data_PCOD9507187
_publ_section_title
;
Structure prediction by ZEFSAII (Michael W. Deem and Ramdas Pophale) SiO2 
 PCOD9507187
Probable space group: C C C A
;
_chemical_formula_sum "Si O2"
_cell_formula_units_Z 64
_cell_length_a 11.151613
_cell_length_b 20.183090
_cell_length_c 14.391505
_cell_angle_alpha 90.000000
_cell_angle_beta 90.000000
_cell_angle_gamma 90.000000
_cell_volume 3239.153723
_symmetry_space_group_name_H-M "C C C A"
_symmetry_group_IT_number 68
_space_group.IT_coordinate_system_code '2'
_symmetry_cell_setting 'orthorhombic'
loop_
_space_group_symop_operation_xyz
x,y,z
-x,1/2-y,z
x,1/2-y,1/2-z
-x,y,1/2-z
-x,-y,-z
x,1/2+y,-z
-x,1/2+y,1/2+z
x,-y,1/2+z
1/2+x,1/2+y,z
1/2-x,-y,z
1/2+x,-y,1/2-z
1/2-x,1/2+y,1/2-z
1/2-x,1/2-y,-z
1/2+x,y,-z
1/2-x,y,1/2+z
1/2+x,1/2-y,1/2+z
loop_
_atom_site_type_symbol
_atom_site_label
_atom_site_fract_x
_atom_site_fract_y
_atom_site_fract_z
Si Si1 0.693099 0.573074 0.352687
Si Si2 0.709975 0.901789 0.929673
Si Si3 0.140674 0.172755 0.731386
Si Si4 0.552790 0.524166 0.099470
O O1 0.750000 0.500000 0.347922
O O2 0.695739 0.597151 0.459938
O O3 0.768168 0.624625 0.289523
O O4 0.553561 0.554053 0.339538
O O5 0.669341 0.837139 0.877174
O O6 0.847664 0.919923 0.913227
O O7 0.629938 0.958623 0.877270
O O8 0.159749 0.250000 0.750000
O O9 0.000000 0.156743 0.750000
O O10 0.500000 0.500000 0.000000
#
# Coordination Sequence:
#
# PCOD9507187 Si02
#       4
#    16  16  16  16
#     4  11  21  37  68  97 123 166 217 266 329 376
#     4  10  20  39  64  92 134 158 211 269 323 380
#     4  11  27  45  62  91 134 180 219 257 321 397
#     4   9  17  35  60 101 124 154 204 271 325 375
#
# _framework density 19.758247000000001
#
# number of rings (size 3 to 8) (size 9 to 14) (size 15 to 20)
#    0.000    1.750    5.000    1.500    7.000    2.000 
#    0.000    2.500    0.000    0.000    0.000    0.000 
#    0.000    0.000    0.000    0.000    0.000    0.000 
#
# Total GULP energy -178216.094682 kJ/mol
# GULP energy per Si atom -5569.252959 kJ/mol
# Density = 1.971328 g / cm^3
# Si number density = 19.758247 Si / 1000 Ang^3
#
#
#
# Elastic Constant Matrix: (Units=GPa)
#
#
# Indices 1 2 3 4 5 6 
#
# 1 156.1598 39.9277 60.4803 0.0000 0.0000 0.0000
# 2 39.9277 75.1511 52.1188 0.0000 0.0000 0.0000
# 3 60.4803 52.1188 101.7338 0.0000 0.0000 0.0000
# 4 0.0000 0.0000 0.0000 35.3720 0.0000 0.0000
# 5 0.0000 0.0000 0.0000 0.0000 77.1514 0.0000
# 6 0.0000 0.0000 0.0000 0.0000 0.0000 23.1830
#
#
#
# Elastic Compliance Matrix: (Units=1/GPa)
#
#
# Indices 1 2 3 4 5 6 
#
# 1 0.008435 -0.001557 -0.004217 0.000000 0.000000 0.000000
# 2 -0.001557 0.020927 -0.009795 0.000000 0.000000 0.000000
# 3 -0.004217 -0.009795 0.017355 0.000000 0.000000 0.000000
# 4 0.000000 0.000000 0.000000 0.028271 0.000000 0.000000
# 5 0.000000 0.000000 0.000000 0.000000 0.012962 0.000000
# 6 0.000000 0.000000 0.000000 0.000000 0.000000 0.043135
#
#
# Mechanical properties :
#
#
# Convention : Reuss Voigt Hill
#
# Bulk Modulus (GPa) = 64.19241 70.89979 67.54610
# Shear Modulus (GPa) = 29.86579 39.17582 34.52081
#
# Velocity S-wave (km/s) = 3.89210 4.45765 4.18444
# Velocity P-wave (km/s) = 7.26343 7.90289 7.58990
#
# Compressibility (1/GPa) = 0.01557817
#
# Stress axis : x y z
#
# Youngs Moduli (GPa) = 118.55365 47.78504 57.62105
#
# Poissons Ratio (x) = 0.07440 0.24298
# Poissons Ratio (y) = 0.18459 0.56442
# Poissons Ratio (z) = 0.49993 0.46807
#
# Static dielectric constant tensor:
#      x y z
#    x 1.712180 0.000000 0.000000 
#    y 0.000000 1.696860 0.000000 
#    z 0.000000 0.000000 1.780520 
# 
# From -- ./inp_files/20417.got.cif
#   From: 2010.05.17/outbox.cif.g08.bks.cpg/sg68_11_cif.got.tgz:20417.got - 2010.06.03 18:57:09.
