data_PCOD9507972
_publ_section_title
;
Structure prediction by ZEFSAII (Michael W. Deem and Ramdas Pophale) SiO2 
 PCOD9507972
Probable space group: C C C A
;
_chemical_formula_sum "Si O2"
_cell_formula_units_Z 104
_cell_length_a 32.363920
_cell_length_b 7.988567
_cell_length_c 18.565556
_cell_angle_alpha 90.000000
_cell_angle_beta 90.000000
_cell_angle_gamma 90.000000
_cell_volume 4799.963787
_symmetry_space_group_name_H-M "C C C A"
_symmetry_group_IT_number 68
_space_group.IT_coordinate_system_code '2'
_symmetry_cell_setting 'orthorhombic'
loop_
_space_group_symop_operation_xyz
x,y,z
-x,1/2-y,z
x,1/2-y,1/2-z
-x,y,1/2-z
-x,-y,-z
x,1/2+y,-z
-x,1/2+y,1/2+z
x,-y,1/2+z
1/2+x,1/2+y,z
1/2-x,-y,z
1/2+x,-y,1/2-z
1/2-x,1/2+y,1/2-z
1/2-x,1/2-y,-z
1/2+x,y,-z
1/2-x,y,1/2+z
1/2+x,1/2-y,1/2+z
loop_
_atom_site_type_symbol
_atom_site_label
_atom_site_fract_x
_atom_site_fract_y
_atom_site_fract_z
Si Si1 0.046746 0.815422 0.967680
Si Si2 0.544955 0.675238 0.888829
Si Si3 0.250000 0.000000 0.700718
Si Si4 0.609840 0.530740 0.783553
Si Si5 0.181419 0.250000 0.750000
Si Si6 0.797850 0.205119 0.415211
Si Si7 0.750000 0.000000 0.035624
Si Si8 0.611870 0.829379 0.361541
O O1 0.073918 0.698339 0.915594
O O2 0.000000 0.750000 0.969907
O O3 0.044452 0.000091 0.933721
O O4 0.062981 0.801828 0.050093
O O5 0.500000 0.750000 0.869978
O O6 0.570884 0.626052 0.818340
O O7 0.287167 0.900926 0.736287
O O8 0.226716 0.865611 0.652177
O O9 0.648079 0.654319 0.800206
O O10 0.607467 0.475083 0.698958
O O11 0.615011 0.350979 0.821478
O O12 0.783625 0.396150 0.420237
O O13 0.845387 0.158493 0.405260
O O14 0.777941 0.116823 0.484669
#
# Coordination Sequence:
#
# PCOD9507972 Si02
#       8
#    16  16   8  16   8  16   8  16
#     4  10  21  39  67  99 133 177 221 272 331 412
#     4  10  21  42  68 100 134 176 224 277 338 401
#     4  11  26  39  64  90 124 177 227 278 338 395
#     4  10  24  43  64 100 135 171 229 278 338 417
#     4  12  26  42  63  94 126 176 227 278 332 410
#     4  10  21  42  61  95 131 175 223 286 334 408
#     4   9  22  39  64  96 132 171 235 276 342 403
#     4  10  22  43  65  95 138 178 218 278 346 406
#
# _framework density 21.666829
#
# number of rings (size 3 to 8) (size 9 to 14) (size 15 to 20)
#    0.000    1.846    1.538    1.846    4.308    4.923 
#    5.538    9.615    0.000    0.923    0.000    0.000 
#    0.000    0.000    0.000    0.000    0.000    0.000 
#
# Total GULP energy -289899.825418 kJ/mol
# GULP energy per Si atom -5574.996643 kJ/mol
# Density = 2.161751 g / cm^3
# Si number density = 21.666829 Si / 1000 Ang^3
#
#
#
# Elastic Constant Matrix: (Units=GPa)
#
#
# Indices 1 2 3 4 5 6 
#
# 1 140.5099 47.2710 67.2512 0.0000 0.0000 0.0000
# 2 47.2710 111.7061 46.2682 0.0000 0.0000 0.0000
# 3 67.2512 46.2682 81.3849 0.0000 0.0000 0.0000
# 4 0.0000 0.0000 0.0000 32.0616 0.0000 0.0000
# 5 0.0000 0.0000 0.0000 0.0000 37.6075 0.0000
# 6 0.0000 0.0000 0.0000 0.0000 0.0000 3.3457
#
#
#
# Elastic Compliance Matrix: (Units=1/GPa)
#
#
# Indices 1 2 3 4 5 6 
#
# 1 0.011907 -0.001260 -0.009123 0.000000 0.000000 0.000000
# 2 -0.001260 0.011843 -0.005691 0.000000 0.000000 0.000000
# 3 -0.009123 -0.005691 0.023062 0.000000 0.000000 0.000000
# 4 0.000000 0.000000 0.000000 0.031190 0.000000 0.000000
# 5 0.000000 0.000000 0.000000 0.000000 0.026590 0.000000
# 6 0.000000 0.000000 0.000000 0.000000 0.000000 0.298891
#
#
# Mechanical properties :
#
#
# Convention : Reuss Voigt Hill
#
# Bulk Modulus (GPa) = 68.20140 72.79797 70.49969
# Shear Modulus (GPa) = 11.35022 26.12366 18.73694
#
# Velocity S-wave (km/s) = 2.29126 3.47608 2.94390
# Velocity P-wave (km/s) = 6.20850 7.05568 6.64561
#
# Compressibility (1/GPa) = 0.01466245
#
# Stress axis : x y z
#
# Youngs Moduli (GPa) = 83.98140 84.44044 43.36206
#
# Poissons Ratio (x) = 0.10641 0.39560
# Poissons Ratio (y) = 0.10583 0.24679
# Poissons Ratio (z) = 0.76617 0.48058
#
# Static dielectric constant tensor:
#      x y z
#    x 1.837510 0.000000 0.000000 
#    y 0.000000 1.831930 0.000000 
#    z 0.000000 0.000000 1.833010 
# 
# From -- ./inp_files/41598.got.cif
#   From: 2010.05.17/outbox.cif.g08.bks.cpg/sg68_21_cif.got.tgz:41598.got - 2010.06.03 18:57:09.
