data_PCOD9507460
_publ_section_title
;
Structure prediction by ZEFSAII (Michael W. Deem and Ramdas Pophale) SiO2 
 PCOD9507460
Probable space group: C C C A
;
_chemical_formula_sum "Si O2"
_cell_formula_units_Z 84
_cell_length_a 22.108485
_cell_length_b 23.495636
_cell_length_c 9.260671
_cell_angle_alpha 90.000000
_cell_angle_beta 90.000000
_cell_angle_gamma 90.000000
_cell_volume 4810.482556
_symmetry_space_group_name_H-M "C C C A"
_symmetry_group_IT_number 68
_space_group.IT_coordinate_system_code '2'
_symmetry_cell_setting 'orthorhombic'
loop_
_space_group_symop_operation_xyz
x,y,z
-x,1/2-y,z
x,1/2-y,1/2-z
-x,y,1/2-z
-x,-y,-z
x,1/2+y,-z
-x,1/2+y,1/2+z
x,-y,1/2+z
1/2+x,1/2+y,z
1/2-x,-y,z
1/2+x,-y,1/2-z
1/2-x,1/2+y,1/2-z
1/2-x,1/2-y,-z
1/2+x,y,-z
1/2-x,y,1/2+z
1/2+x,1/2-y,1/2+z
loop_
_atom_site_type_symbol
_atom_site_label
_atom_site_fract_x
_atom_site_fract_y
_atom_site_fract_z
Si Si1 0.967477 0.638189 0.607474
Si Si2 0.749621 0.409364 0.840288
Si Si3 0.471979 0.447567 0.408223
Si Si4 0.671256 0.031721 0.409090
Si Si5 0.000000 0.250000 0.250000
Si Si6 0.170777 0.105390 0.089640
O O1 0.967247 0.705399 0.643439
O O2 0.898885 0.619889 0.590873
O O3 0.000000 0.612398 0.750000
O O4 0.005838 0.611941 0.477492
O O5 0.793684 0.444630 0.732162
O O6 0.705926 0.375230 0.732804
O O7 0.705502 0.444435 0.948695
O O8 0.793417 0.375308 0.947655
O O9 0.500000 0.452380 0.250000
O O10 0.500000 0.500000 0.500000
O O11 0.399228 0.451469 0.407601
O O12 0.674598 0.963579 0.409984
#
# Coordination Sequence:
#
# PCOD9507460 Si02
#       6
#    16  16  16  16   4  16
#     4  10  21  40  62  84 109 158 208 252 298 361
#     4  10  21  31  47  83 119 168 185 226 289 372
#     4  12  24  35  56  94 129 154 192 250 314 363
#     4  11  20  31  50  78 126 158 192 223 294 367
#     4   8  24  44  66  84 104 168 222 242 318 352
#     4  11  18  31  52  76 119 148 197 231 285 358
#
# _framework density 17.461866000000001
#
# number of rings (size 3 to 8) (size 9 to 14) (size 15 to 20)
#    0.571    0.762    1.905    7.429    2.667    0.000 
#    0.000    0.476    0.000    1.143    0.000    0.000 
#    0.000    0.000    0.000    0.000    0.000    0.000 
#
# Total GULP energy -234085.247724 kJ/mol
# GULP energy per Si atom -5573.458279 kJ/mol
# Density = 1.742212 g / cm^3
# Si number density = 17.461866 Si / 1000 Ang^3
#
#
#
# Elastic Constant Matrix: (Units=GPa)
#
#
# Indices 1 2 3 4 5 6 
#
# 1 177.5919 17.6582 57.5257 0.0000 0.0000 0.0000
# 2 17.6582 40.3050 20.8841 0.0000 0.0000 0.0000
# 3 57.5257 20.8841 134.5285 0.0000 0.0000 0.0000
# 4 0.0000 0.0000 0.0000 19.3200 0.0000 0.0000
# 5 0.0000 0.0000 0.0000 0.0000 29.6418 0.0000
# 6 0.0000 0.0000 0.0000 0.0000 0.0000 3.8007
#
#
#
# Elastic Compliance Matrix: (Units=1/GPa)
#
#
# Indices 1 2 3 4 5 6 
#
# 1 0.006625 -0.001560 -0.002591 0.000000 0.000000 0.000000
# 2 -0.001560 0.027349 -0.003578 0.000000 0.000000 0.000000
# 3 -0.002591 -0.003578 0.009097 0.000000 0.000000 0.000000
# 4 0.000000 0.000000 0.000000 0.051760 0.000000 0.000000
# 5 0.000000 0.000000 0.000000 0.000000 0.033736 0.000000
# 6 0.000000 0.000000 0.000000 0.000000 0.000000 0.263109
#
#
# Mechanical properties :
#
#
# Convention : Reuss Voigt Hill
#
# Bulk Modulus (GPa) = 36.21656 60.50683 48.36169
# Shear Modulus (GPa) = 12.00948 27.64299 19.82623
#
# Velocity S-wave (km/s) = 2.62535 3.98307 3.37323
# Velocity P-wave (km/s) = 5.47498 7.47524 6.55189
#
# Compressibility (1/GPa) = 0.02761168
#
# Stress axis : x y z
#
# Youngs Moduli (GPa) = 150.93798 36.56505 109.92948
#
# Poissons Ratio (x) = 0.05705 0.28481
# Poissons Ratio (y) = 0.23549 0.39337
# Poissons Ratio (z) = 0.39105 0.13084
#
# Static dielectric constant tensor:
#      x y z
#    x 1.599770 0.000000 0.000000 
#    y 0.000000 1.590070 0.000000 
#    z 0.000000 0.000000 1.629260 
# 
# From -- ./inp_files/7227.got.cif
#   From: 2010.05.17/outbox.cif.g08.bks.cpg/sg68_4_cif.got.tgz:7227.got - 2010.06.03 18:57:09.
