data_PCOD9507006
_publ_section_title
;
Structure prediction by ZEFSAII (Michael W. Deem and Ramdas Pophale) SiO2 
 PCOD9507006
Probable space group: C C C A
;
_chemical_formula_sum "Si O2"
_cell_formula_units_Z 112
_cell_length_a 14.740651
_cell_length_b 24.822725
_cell_length_c 16.960643
_cell_angle_alpha 90.000000
_cell_angle_beta 90.000000
_cell_angle_gamma 90.000000
_cell_volume 6205.952294
_symmetry_space_group_name_H-M "C C C A"
_symmetry_group_IT_number 68
_space_group.IT_coordinate_system_code '2'
_symmetry_cell_setting 'orthorhombic'
loop_
_space_group_symop_operation_xyz
x,y,z
-x,1/2-y,z
x,1/2-y,1/2-z
-x,y,1/2-z
-x,-y,-z
x,1/2+y,-z
-x,1/2+y,1/2+z
x,-y,1/2+z
1/2+x,1/2+y,z
1/2-x,-y,z
1/2+x,-y,1/2-z
1/2-x,1/2+y,1/2-z
1/2-x,1/2-y,-z
1/2+x,y,-z
1/2-x,y,1/2+z
1/2+x,1/2-y,1/2+z
loop_
_atom_site_type_symbol
_atom_site_label
_atom_site_fract_x
_atom_site_fract_y
_atom_site_fract_z
Si Si1 0.922410 0.912856 0.699046
Si Si2 0.392844 0.311653 0.263252
Si Si3 0.154300 0.016715 0.715895
Si Si4 0.394135 0.105080 0.099975
Si Si5 0.721719 0.893851 0.665338
Si Si6 0.720962 0.437686 0.509040
Si Si7 0.513995 0.439496 0.532683
O O1 0.826685 0.883481 0.687053
O O2 0.959744 0.929680 0.613383
O O3 0.000000 0.883624 0.750000
O O4 0.897322 0.965565 0.750795
O O5 0.364255 0.250000 0.250000
O O6 0.500000 0.314337 0.250000
O O7 0.381831 0.341098 0.348217
O O8 0.340722 0.347019 0.198761
O O9 0.094210 0.055160 0.661185
O O10 0.188593 0.053030 0.788210
O O11 0.250000 0.000000 0.674734
O O12 0.299723 0.091344 0.057481
O O13 0.473171 0.100123 0.034842
O O14 0.713853 0.907648 0.574364
O O15 0.750000 0.500000 0.495165
O O16 0.621320 0.434176 0.546945
O O17 0.500000 0.500000 0.500000
#
# Coordination Sequence:
#
# PCOD9507006 Si02
#       7
#    16  16  16  16  16  16  16
#     4  11  22  33  51  83 122 167 202 230 287 370
#     4  10  23  44  69  89 107 144 207 270 314 356
#     4   9  19  32  51  76 116 160 201 235 278 351
#     4  11  22  37  58  87 119 159 201 249 302 355
#     4  10  20  38  58  83 118 156 194 249 305 357
#     4  12  22  35  54  88 133 162 195 234 292 368
#     4  12  22  33  54  83 125 170 199 235 286 364
#
# _framework density 18.047188999999999
#
# number of rings (size 3 to 8) (size 9 to 14) (size 15 to 20)
#    0.000    1.286    2.857    4.286    6.000    3.429 
#    0.000    0.714    0.000    0.429    0.000    0.000 
#    0.000    0.000    0.000    0.000    0.000    0.000 
#
# Total GULP energy -312800.019057 kJ/mol
# GULP energy per Si atom -5585.714626 kJ/mol
# Density = 1.800611 g / cm^3
# Si number density = 18.047189 Si / 1000 Ang^3
#
#
#
# Elastic Constant Matrix: (Units=GPa)
#
#
# Indices 1 2 3 4 5 6 
#
# 1 88.5687 26.7796 15.5129 0.0000 0.0000 0.0000
# 2 26.7796 88.6580 33.7484 0.0000 0.0000 0.0000
# 3 15.5129 33.7484 97.0339 0.0000 0.0000 0.0000
# 4 0.0000 0.0000 0.0000 9.5687 0.0000 0.0000
# 5 0.0000 0.0000 0.0000 0.0000 31.9091 0.0000
# 6 0.0000 0.0000 0.0000 0.0000 0.0000 17.4312
#
#
#
# Elastic Compliance Matrix: (Units=1/GPa)
#
#
# Indices 1 2 3 4 5 6 
#
# 1 0.012478 -0.003469 -0.000788 0.000000 0.000000 0.000000
# 2 -0.003469 0.013965 -0.004302 0.000000 0.000000 0.000000
# 3 -0.000788 -0.004302 0.011928 0.000000 0.000000 0.000000
# 4 0.000000 0.000000 0.000000 0.104507 0.000000 0.000000
# 5 0.000000 0.000000 0.000000 0.000000 0.031339 0.000000
# 6 0.000000 0.000000 0.000000 0.000000 0.000000 0.057368
#
#
# Mechanical properties :
#
#
# Convention : Reuss Voigt Hill
#
# Bulk Modulus (GPa) = 47.05584 47.37137 47.21360
# Shear Modulus (GPa) = 19.54742 24.99644 22.27193
#
# Velocity S-wave (km/s) = 3.29466 3.72568 3.51678
# Velocity P-wave (km/s) = 6.37208 6.69426 6.53516
#
# Compressibility (1/GPa) = 0.02125135
#
# Stress axis : x y z
#
# Youngs Moduli (GPa) = 80.14373 71.60850 83.83575
#
# Poissons Ratio (x) = 0.24840 0.06609
# Poissons Ratio (y) = 0.27800 0.36070
# Poissons Ratio (z) = 0.06318 0.30809
#
# Static dielectric constant tensor:
#      x y z
#    x 1.667220 0.000000 0.000000 
#    y 0.000000 1.587550 0.000000 
#    z 0.000000 0.000000 1.650750 
# 
# From -- ./inp_files/22624.got.cif
#   From: 2010.05.17/outbox.cif.g08.bks.cpg/sg68_12_cif.got.tgz:22624.got - 2010.06.03 18:57:09.
