data_PCOD9507944
_publ_section_title
;
Structure prediction by ZEFSAII (Michael W. Deem and Ramdas Pophale) SiO2 
 PCOD9507944
Probable space group: C C C A
;
_chemical_formula_sum "Si O2"
_cell_formula_units_Z 116
_cell_length_a 8.057045
_cell_length_b 23.448045
_cell_length_c 26.173911
_cell_angle_alpha 90.000000
_cell_angle_beta 90.000000
_cell_angle_gamma 90.000000
_cell_volume 4944.826403
_symmetry_space_group_name_H-M "C C C A"
_symmetry_group_IT_number 68
_space_group.IT_coordinate_system_code '2'
_symmetry_cell_setting 'orthorhombic'
loop_
_space_group_symop_operation_xyz
x,y,z
-x,1/2-y,z
x,1/2-y,1/2-z
-x,y,1/2-z
-x,-y,-z
x,1/2+y,-z
-x,1/2+y,1/2+z
x,-y,1/2+z
1/2+x,1/2+y,z
1/2-x,-y,z
1/2+x,-y,1/2-z
1/2-x,1/2+y,1/2-z
1/2-x,1/2-y,-z
1/2+x,y,-z
1/2-x,y,1/2+z
1/2+x,1/2-y,1/2+z
loop_
_atom_site_type_symbol
_atom_site_label
_atom_site_fract_x
_atom_site_fract_y
_atom_site_fract_z
Si Si1 0.659460 0.183872 0.655137
Si Si2 0.500000 0.750000 0.250000
Si Si3 0.651984 0.785791 0.875385
Si Si4 0.995107 0.862142 0.306056
Si Si5 0.057257 0.491966 0.916968
Si Si6 0.015559 0.389590 0.064988
Si Si7 0.372643 0.871716 0.543755
Si Si8 0.051192 0.505160 0.195852
O O1 0.592901 0.207486 0.709694
O O2 0.697910 0.242451 0.623965
O O3 0.832128 0.151545 0.666247
O O4 0.561951 0.140793 0.618096
O O5 0.500000 0.750000 0.851921
O O6 0.663389 0.838541 0.836547
O O7 0.586357 0.813614 0.926886
O O8 0.990534 0.929628 0.301247
O O9 0.000000 0.835910 0.250000
O O10 0.250000 0.500000 0.930294
O O11 0.024593 0.426306 0.933234
O O12 0.950381 0.542381 0.941860
O O13 0.033318 0.510408 0.857650
O O14 0.819618 0.381427 0.057127
O O15 0.105585 0.363469 0.016108
O O16 0.250000 0.500000 0.190764
O O17 0.000000 0.476874 0.250000
#
# Coordination Sequence:
#
# PCOD9507944 Si02
#       8
#    16   4  16  16  16  16  16  16
#     4  11  24  43  64 102 133 176 234 280 350 415
#     4  12  24  44  66  88 140 184 212 290 352 412
#     4  10  22  41  68  93 129 170 222 279 337 405
#     4  10  21  39  65  96 128 173 224 277 335 407
#     4  10  22  44  67  96 134 180 229 288 346 416
#     4  11  26  42  68 101 137 178 233 283 348 415
#     4  11  24  44  67  96 134 179 227 284 346 407
#     4  11  22  38  62  97 136 177 224 279 344 412
#
# _framework density 23.458862
#
# number of rings (size 3 to 8) (size 9 to 14) (size 15 to 20)
#    0.000    1.379    1.379    3.310    3.862    3.586 
#    8.690    0.000    0.000    0.000    0.000    0.000 
#    0.000    0.000    0.000    0.000    0.000    0.000 
#
# Total GULP energy -323468.127610 kJ/mol
# GULP energy per Si atom -5577.036683 kJ/mol
# Density = 2.340547 g / cm^3
# Si number density = 23.458862 Si / 1000 Ang^3
#
#
#
# Elastic Constant Matrix: (Units=GPa)
#
#
# Indices 1 2 3 4 5 6 
#
# 1 39.8190 2.9443 11.9640 0.0000 0.0000 0.0000
# 2 2.9443 76.1694 23.6269 0.0000 0.0000 0.0000
# 3 11.9640 23.6269 112.2335 0.0000 0.0000 0.0000
# 4 0.0000 0.0000 0.0000 26.5152 0.0000 0.0000
# 5 0.0000 0.0000 0.0000 0.0000 -5.5878 0.0000
# 6 0.0000 0.0000 0.0000 0.0000 0.0000 16.9102
#
#
#
# Elastic Compliance Matrix: (Units=1/GPa)
#
#
# Indices 1 2 3 4 5 6 
#
# 1 0.025946 -0.000155 -0.002733 0.000000 0.000000 0.000000
# 2 -0.000155 0.014047 -0.002941 0.000000 0.000000 0.000000
# 3 -0.002733 -0.002941 0.009820 0.000000 0.000000 0.000000
# 4 0.000000 0.000000 0.000000 0.037714 0.000000 0.000000
# 5 0.000000 0.000000 0.000000 0.000000 -0.178960 0.000000
# 6 0.000000 0.000000 0.000000 0.000000 0.000000 0.059136
#
#
# Mechanical properties :
#
#
# Convention : Reuss Voigt Hill
#
# Bulk Modulus (GPa) = 26.20838 33.92135 30.06486
# Shear Modulus (GPa) = -631.27257 20.21330 -305.52964
#
# Velocity S-wave (km/s) = -16.42199 2.93857 -11.42468
# Velocity P-wave (km/s) = 18.66493 5.09950 12.69596
#
# Compressibility (1/GPa) = 0.03815574
#
# Stress axis : x y z
#
# Youngs Moduli (GPa) = 38.54113 71.19090 101.82907
#
# Poissons Ratio (x) = 0.01104 0.27832
# Poissons Ratio (y) = 0.00598 0.29943
# Poissons Ratio (z) = 0.10534 0.20934
#
# Static dielectric constant tensor:
#      x y z
#    x 1.900800 0.000000 0.000000 
#    y 0.000000 2.054510 0.000000 
#    z 0.000000 0.000000 1.971630 
# 
# From -- ./inp_files/43509.got.cif
#   From: 2010.05.17/outbox.cif.g08.bks.cpg/sg68_22_cif.got.tgz:43509.got - 2010.06.03 18:57:09.
