data_PCOD9507960
_publ_section_title
;
Structure prediction by ZEFSAII (Michael W. Deem and Ramdas Pophale) SiO2 
 PCOD9507960
Probable space group: C C C A
;
_chemical_formula_sum "Si O2"
_cell_formula_units_Z 112
_cell_length_a 16.043624
_cell_length_b 28.257408
_cell_length_c 10.351804
_cell_angle_alpha 90.000000
_cell_angle_beta 90.000000
_cell_angle_gamma 90.000000
_cell_volume 4693.003067
_symmetry_space_group_name_H-M "C C C A"
_symmetry_group_IT_number 68
_space_group.IT_coordinate_system_code '2'
_symmetry_cell_setting 'orthorhombic'
loop_
_space_group_symop_operation_xyz
x,y,z
-x,1/2-y,z
x,1/2-y,1/2-z
-x,y,1/2-z
-x,-y,-z
x,1/2+y,-z
-x,1/2+y,1/2+z
x,-y,1/2+z
1/2+x,1/2+y,z
1/2-x,-y,z
1/2+x,-y,1/2-z
1/2-x,1/2+y,1/2-z
1/2-x,1/2-y,-z
1/2+x,y,-z
1/2-x,y,1/2+z
1/2+x,1/2-y,1/2+z
loop_
_atom_site_type_symbol
_atom_site_label
_atom_site_fract_x
_atom_site_fract_y
_atom_site_fract_z
Si Si1 0.882178 0.127786 0.948522
Si Si2 0.500000 0.096476 0.750000
Si Si3 0.454884 0.174291 0.383348
Si Si4 0.500000 0.750000 0.410066
Si Si5 0.833193 0.028077 0.844171
Si Si6 0.880767 0.329995 0.282841
Si Si7 0.305154 0.305014 0.263662
Si Si8 0.924327 0.010411 0.097222
O O1 0.839324 0.084134 0.875255
O O2 0.844197 0.176060 0.893954
O O3 0.981998 0.131575 0.921510
O O4 0.863586 0.135273 0.097384
O O5 0.566252 0.134357 0.808139
O O6 0.453281 0.060744 0.845251
O O7 0.500000 0.191911 0.250000
O O8 0.454246 0.213527 0.494458
O O9 0.359049 0.166274 0.343683
O O10 0.435694 0.785532 0.335018
O O11 0.750000 0.000000 0.802879
O O12 0.852480 0.008788 0.989054
O O13 0.898382 0.018132 0.726462
O O14 0.792857 0.313116 0.233462
O O15 0.322160 0.250000 0.250000
O O16 0.000000 0.000000 0.000000
#
# Coordination Sequence:
#
# PCOD9507960 Si02
#       8
#    16   8  16   8  16  16  16  16
#     4  10  24  46  71 105 145 192 252 306 391 462
#     4  12  26  49  72 102 154 194 257 316 380 478
#     4   9  18  39  67  97 136 185 245 313 368 451
#     4  10  21  39  66  96 142 204 243 307 390 458
#     4  12  27  49  80 118 156 197 254 323 394 468
#     4  11  26  44  69 102 148 195 259 308 386 466
#     4  11  24  40  68 103 145 188 253 317 378 457
#     4  12  26  50  82 111 151 201 256 317 393 472
#
# _framework density 23.865316
#
# number of rings (size 3 to 8) (size 9 to 14) (size 15 to 20)
#    0.000    1.143    2.857    3.214    4.000    7.429 
#    2.571    0.000    0.000    0.000    0.000    0.000 
#    0.000    0.000    0.000    0.000    0.000    0.000 
#
# Total GULP energy -312068.094523 kJ/mol
# GULP energy per Si atom -5572.644545 kJ/mol
# Density = 2.381100 g / cm^3
# Si number density = 23.865316 Si / 1000 Ang^3
#
#
#
# Elastic Constant Matrix: (Units=GPa)
#
#
# Indices 1 2 3 4 5 6 
#
# 1 112.3527 17.2633 12.2185 0.0000 0.0000 0.0000
# 2 17.2633 112.6464 32.2550 0.0000 0.0000 0.0000
# 3 12.2185 32.2550 96.9461 0.0000 0.0000 0.0000
# 4 0.0000 0.0000 0.0000 0.7315 0.0000 0.0000
# 5 0.0000 0.0000 0.0000 0.0000 28.2430 0.0000
# 6 0.0000 0.0000 0.0000 0.0000 0.0000 28.5579
#
#
#
# Elastic Compliance Matrix: (Units=1/GPa)
#
#
# Indices 1 2 3 4 5 6 
#
# 1 0.009166 -0.001187 -0.000760 0.000000 0.000000 0.000000
# 2 -0.001187 0.009966 -0.003166 0.000000 0.000000 0.000000
# 3 -0.000760 -0.003166 0.011464 0.000000 0.000000 0.000000
# 4 0.000000 0.000000 0.000000 1.367026 0.000000 0.000000
# 5 0.000000 0.000000 0.000000 0.000000 0.035407 0.000000
# 6 0.000000 0.000000 0.000000 0.000000 0.000000 0.035017
#
#
# Mechanical properties :
#
#
# Convention : Reuss Voigt Hill
#
# Bulk Modulus (GPa) = 49.09433 49.49098 49.29265
# Shear Modulus (GPa) = 3.36686 28.85371 16.11029
#
# Velocity S-wave (km/s) = 1.18905 3.48087 2.60099
# Velocity P-wave (km/s) = 4.74354 6.07766 5.45157
#
# Compressibility (1/GPa) = 0.02036895
#
# Stress axis : x y z
#
# Youngs Moduli (GPa) = 109.10356 100.34292 87.22780
#
# Poissons Ratio (x) = 0.11910 0.06632
# Poissons Ratio (y) = 0.12950 0.27618
# Poissons Ratio (z) = 0.08295 0.31770
#
# Static dielectric constant tensor:
#      x y z
#    x 1.582170 0.000000 0.000000 
#    y 0.000000 1.943890 0.000000 
#    z 0.000000 0.000000 2.136330 
# 
# From -- ./inp_files/22779.got.cif
#   From: 2010.05.17/outbox.cif.g08.bks.cpg/sg68_12_cif.got.tgz:22779.got - 2010.06.03 18:57:09.
