data_PCOD9507117
_publ_section_title
;
Structure prediction by ZEFSAII (Michael W. Deem and Ramdas Pophale) SiO2 
 PCOD9507117
Probable space group: C C C A
;
_chemical_formula_sum "Si O2"
_cell_formula_units_Z 120
_cell_length_a 22.338276
_cell_length_b 23.151629
_cell_length_c 11.368736
_cell_angle_alpha 90.000000
_cell_angle_beta 90.000000
_cell_angle_gamma 90.000000
_cell_volume 5879.540530
_symmetry_space_group_name_H-M "C C C A"
_symmetry_group_IT_number 68
_space_group.IT_coordinate_system_code '2'
_symmetry_cell_setting 'orthorhombic'
loop_
_space_group_symop_operation_xyz
x,y,z
-x,1/2-y,z
x,1/2-y,1/2-z
-x,y,1/2-z
-x,-y,-z
x,1/2+y,-z
-x,1/2+y,1/2+z
x,-y,1/2+z
1/2+x,1/2+y,z
1/2-x,-y,z
1/2+x,-y,1/2-z
1/2-x,1/2+y,1/2-z
1/2-x,1/2-y,-z
1/2+x,y,-z
1/2-x,y,1/2+z
1/2+x,1/2-y,1/2+z
loop_
_atom_site_type_symbol
_atom_site_label
_atom_site_fract_x
_atom_site_fract_y
_atom_site_fract_z
Si Si1 0.193326 0.750000 0.250000
Si Si2 0.154299 0.155249 0.587239
Si Si3 0.649536 0.074214 0.188681
Si Si4 0.549368 0.359230 0.905028
Si Si5 0.933544 0.971307 0.750468
Si Si6 0.739294 0.642050 0.374103
Si Si7 0.864996 0.685245 0.729617
Si Si8 0.917099 0.118154 0.462408
O O1 0.156393 0.715916 0.347088
O O2 0.227786 0.800871 0.321787
O O3 0.150317 0.107057 0.687175
O O4 0.097076 0.150801 0.505684
O O5 0.213267 0.149318 0.505172
O O6 0.716208 0.087776 0.139011
O O7 0.621352 0.011933 0.215176
O O8 0.605662 0.101423 0.090238
O O9 0.557003 0.422541 0.848489
O O10 0.571379 0.319502 0.796925
O O11 0.483091 0.354964 0.954543
O O12 0.919930 0.937300 0.872924
O O13 0.000000 0.001246 0.750000
O O14 0.680245 0.640634 0.292059
O O15 0.843341 0.750000 0.750000
O O16 0.873119 0.664874 0.597210
#
# Coordination Sequence:
#
# PCOD9507117 Si02
#       8
#     8  16  16  16  16  16  16  16
#     4  10  20  38  66  95 115 176 218 256 312 376
#     4  10  23  39  61  93 132 158 216 260 323 381
#     4  11  25  36  67  91 121 168 209 264 324 377
#     4   9  21  41  64  95 131 164 204 270 309 381
#     4   9  21  42  68  94 122 167 218 260 315 380
#     4  10  22  41  64  90 122 167 219 267 305 375
#     4  10  20  39  68  92 121 169 215 265 306 365
#     4  10  23  40  64  97 128 159 219 256 315 390
#
# _framework density 20.409759000000001
#
# number of rings (size 3 to 8) (size 9 to 14) (size 15 to 20)
#    0.000    2.133    0.667    1.600    7.467    6.400 
#    0.000    6.000    0.000    3.200    0.000    0.000 
#    0.000    0.000    0.000    0.000    0.000    0.000 
#
# Total GULP energy -334557.690078 kJ/mol
# GULP energy per Si atom -5575.961501 kJ/mol
# Density = 2.036331 g / cm^3
# Si number density = 20.409759 Si / 1000 Ang^3
#
#
#
# Elastic Constant Matrix: (Units=GPa)
#
#
# Indices 1 2 3 4 5 6 
#
# 1 98.1093 25.7275 26.5140 0.0000 0.0000 0.0000
# 2 25.7275 50.5245 14.6200 0.0000 0.0000 0.0000
# 3 26.5140 14.6200 109.0816 0.0000 0.0000 0.0000
# 4 0.0000 0.0000 0.0000 19.9828 0.0000 0.0000
# 5 0.0000 0.0000 0.0000 0.0000 -10.3273 0.0000
# 6 0.0000 0.0000 0.0000 0.0000 0.0000 -422.0957
#
#
#
# Elastic Compliance Matrix: (Units=1/GPa)
#
#
# Indices 1 2 3 4 5 6 
#
# 1 0.012264 -0.005599 -0.002230 0.000000 0.000000 0.000000
# 2 -0.005599 0.023148 -0.001741 0.000000 0.000000 0.000000
# 3 -0.002230 -0.001741 0.009943 0.000000 0.000000 0.000000
# 4 0.000000 0.000000 0.000000 0.050043 0.000000 0.000000
# 5 0.000000 0.000000 0.000000 0.000000 -0.096831 0.000000
# 6 0.000000 0.000000 0.000000 0.000000 0.000000 -0.002369
#
#
# Mechanical properties :
#
#
# Convention : Reuss Voigt Hill
#
# Bulk Modulus (GPa) = 38.15070 43.49315 40.82192
# Shear Modulus (GPa) = 207.66326 -69.76444 68.94941
#
# Velocity S-wave (km/s) = 10.09792 -5.85287 5.81858
# Velocity P-wave (km/s) = 12.43745 4.93139 8.07377
#
# Compressibility (1/GPa) = 0.02621184
#
# Stress axis : x y z
#
# Youngs Moduli (GPa) = 81.54049 43.20113 100.57338
#
# Poissons Ratio (x) = 0.24190 0.22432
# Poissons Ratio (y) = 0.45658 0.17514
# Poissons Ratio (z) = 0.18187 0.07523
#
# Static dielectric constant tensor:
#      x y z
#    x 1.778260 0.000000 0.000000 
#    y 0.000000 1.743050 0.000000 
#    z 0.000000 0.000000 1.716430 
# 
# From -- ./inp_files/15817.got.cif
#   From: 2010.05.17/outbox.cif.g08.bks.cpg/sg68_8_cif.got.tgz:15817.got - 2010.06.03 18:57:09.
