data_PCOD9507625
_publ_section_title
;
Structure prediction by ZEFSAII (Michael W. Deem and Ramdas Pophale) SiO2 
 PCOD9507625
Probable space group: C C C A
;
_chemical_formula_sum "Si O2"
_cell_formula_units_Z 88
_cell_length_a 14.432930
_cell_length_b 27.334073
_cell_length_c 9.826511
_cell_angle_alpha 90.000000
_cell_angle_beta 90.000000
_cell_angle_gamma 90.000000
_cell_volume 3876.664345
_symmetry_space_group_name_H-M "C C C A"
_symmetry_group_IT_number 68
_space_group.IT_coordinate_system_code '2'
_symmetry_cell_setting 'orthorhombic'
loop_
_space_group_symop_operation_xyz
x,y,z
-x,1/2-y,z
x,1/2-y,1/2-z
-x,y,1/2-z
-x,-y,-z
x,1/2+y,-z
-x,1/2+y,1/2+z
x,-y,1/2+z
1/2+x,1/2+y,z
1/2-x,-y,z
1/2+x,-y,1/2-z
1/2-x,1/2+y,1/2-z
1/2-x,1/2-y,-z
1/2+x,y,-z
1/2-x,y,1/2+z
1/2+x,1/2-y,1/2+z
loop_
_atom_site_type_symbol
_atom_site_label
_atom_site_fract_x
_atom_site_fract_y
_atom_site_fract_z
Si Si1 0.111706 0.558313 0.763013
Si Si2 0.149881 0.883734 0.100469
Si Si3 0.054557 0.792713 0.105881
Si Si4 0.228297 0.750000 0.250000
Si Si5 0.109556 0.509155 0.493308
Si Si6 0.268508 0.145731 0.837045
O O1 0.143154 0.520265 0.645044
O O2 0.145824 0.536114 0.905639
O O3 0.153965 0.610551 0.727721
O O4 0.000000 0.560496 0.750000
O O5 0.067560 0.847290 0.052383
O O6 0.125898 0.939940 0.085040
O O7 0.176887 0.869894 0.253837
O O8 0.231000 0.868039 0.995532
O O9 0.156814 0.771424 0.137308
O O10 0.000000 0.750000 0.027887
O O11 0.000000 0.797966 0.250000
O O12 0.281707 0.703300 0.190928
O O13 0.000000 0.500000 0.500000
#
# Coordination Sequence:
#
# PCOD9507625 Si02
#       6
#    16  16  16   8  16  16
#     4   9  19  37  56  79 109 146 188 238 285 338
#     4  10  21  37  58  86 113 152 192 236 295 347
#     4   8  16  33  57  84 109 139 191 240 275 342
#     4   8  17  36  57  80 110 150 182 228 289 340
#     4   9  19  36  57  78 108 143 187 236 284 339
#     4  10  21  37  56  82 118 148 191 237 286 353
#
# _framework density 22.699928
#
# number of rings (size 3 to 8) (size 9 to 14) (size 15 to 20)
#    0.000    3.091    0.000    0.000    0.000    7.273 
#    0.000   24.091    0.000    0.000    0.000   11.455 
#    0.000    0.000    0.000    0.000    0.000    0.000 
#
# Total GULP energy -245329.389247 kJ/mol
# GULP energy per Si atom -5575.667937 kJ/mol
# Density = 2.264826 g / cm^3
# Si number density = 22.699928 Si / 1000 Ang^3
#
#
#
# Elastic Constant Matrix: (Units=GPa)
#
#
# Indices 1 2 3 4 5 6 
#
# 1 51.2992 49.0404 15.5239 0.0000 0.0000 0.0000
# 2 49.0404 132.4874 29.7904 0.0000 0.0000 0.0000
# 3 15.5239 29.7904 57.8475 0.0000 0.0000 0.0000
# 4 0.0000 0.0000 0.0000 27.8124 0.0000 0.0000
# 5 0.0000 0.0000 0.0000 0.0000 16.5452 0.0000
# 6 0.0000 0.0000 0.0000 0.0000 0.0000 44.0649
#
#
#
# Elastic Compliance Matrix: (Units=1/GPa)
#
#
# Indices 1 2 3 4 5 6 
#
# 1 0.030533 -0.010698 -0.002684 0.000000 0.000000 0.000000
# 2 -0.010698 0.012285 -0.003455 0.000000 0.000000 0.000000
# 3 -0.002684 -0.003455 0.019787 0.000000 0.000000 0.000000
# 4 0.000000 0.000000 0.000000 0.035955 0.000000 0.000000
# 5 0.000000 0.000000 0.000000 0.000000 0.060441 0.000000
# 6 0.000000 0.000000 0.000000 0.000000 0.000000 0.022694
#
#
# Mechanical properties :
#
#
# Convention : Reuss Voigt Hill
#
# Bulk Modulus (GPa) = 34.56826 47.81595 41.19211
# Shear Modulus (GPa) = 22.22091 27.50312 24.86202
#
# Velocity S-wave (km/s) = 3.13213 3.48457 3.31304
# Velocity P-wave (km/s) = 5.32369 6.10735 5.72894
#
# Compressibility (1/GPa) = 0.02892827
#
# Stress axis : x y z
#
# Youngs Moduli (GPa) = 32.75146 81.40114 50.53889
#
# Poissons Ratio (x) = 0.87085 0.13567
# Poissons Ratio (y) = 0.35038 0.17464
# Poissons Ratio (z) = 0.08792 0.28128
#
# Static dielectric constant tensor:
#      x y z
#    x 1.906620 0.000000 0.000000 
#    y 0.000000 1.860670 0.000000 
#    z 0.000000 0.000000 1.905310 
# 
# From -- ./inp_files/13465.got.cif
#   From: 2010.05.17/outbox.cif.g08.bks.cpg/sg68_7_cif.got.tgz:13465.got - 2010.06.03 18:57:09.
