data_PCOD9507283
_publ_section_title
;
Structure prediction by ZEFSAII (Michael W. Deem and Ramdas Pophale) SiO2 
 PCOD9507283
Probable space group: C C C A
;
_chemical_formula_sum "Si O2"
_cell_formula_units_Z 88
_cell_length_a 19.196409
_cell_length_b 8.514144
_cell_length_c 25.996027
_cell_angle_alpha 90.000000
_cell_angle_beta 90.000000
_cell_angle_gamma 90.000000
_cell_volume 4248.816402
_symmetry_space_group_name_H-M "C C C A"
_symmetry_group_IT_number 68
_space_group.IT_coordinate_system_code '2'
_symmetry_cell_setting 'orthorhombic'
loop_
_space_group_symop_operation_xyz
x,y,z
-x,1/2-y,z
x,1/2-y,1/2-z
-x,y,1/2-z
-x,-y,-z
x,1/2+y,-z
-x,1/2+y,1/2+z
x,-y,1/2+z
1/2+x,1/2+y,z
1/2-x,-y,z
1/2+x,-y,1/2-z
1/2-x,1/2+y,1/2-z
1/2-x,1/2-y,-z
1/2+x,y,-z
1/2-x,y,1/2+z
1/2+x,1/2-y,1/2+z
loop_
_atom_site_type_symbol
_atom_site_label
_atom_site_fract_x
_atom_site_fract_y
_atom_site_fract_z
Si Si1 0.449284 0.617329 0.139815
Si Si2 0.750000 0.500000 0.793099
Si Si3 0.888371 0.648574 0.293686
Si Si4 0.693283 0.227573 0.868568
Si Si5 0.161050 0.620614 0.384523
Si Si6 0.472085 0.925494 0.552630
O O1 0.500000 0.750000 0.160668
O O2 0.429289 0.497931 0.184343
O O3 0.379034 0.691344 0.114529
O O4 0.492228 0.525777 0.097151
O O5 0.817378 0.422167 0.767934
O O6 0.719650 0.353101 0.826161
O O7 0.923236 0.750000 0.250000
O O8 0.871343 0.757046 0.343543
O O9 0.764195 0.195067 0.900929
O O10 0.672759 0.047318 0.856080
O O11 0.109614 0.585723 0.432156
O O12 0.500000 0.750000 0.554643
O O13 0.500000 0.000000 0.500000
#
# Coordination Sequence:
#
# PCOD9507283 Si02
#       6
#    16   8  16  16  16  16
#     4  11  21  41  69  94 134 174 222 273 337 403
#     4   8  18  34  58  98 130 170 224 266 316 390
#     4  10  21  38  64  99 136 178 217 274 329 399
#     4   9  19  36  66  91 128 171 213 269 331 384
#     4  10  20  40  64  94 130 170 217 269 332 397
#     4  12  25  43  69  95 126 171 221 278 344 415
#
# _framework density 20.711651
#
# number of rings (size 3 to 8) (size 9 to 14) (size 15 to 20)
#    0.000    1.818    3.636    0.545    0.000    2.909 
#    0.000    5.455    4.000    0.000    0.000    0.000 
#    0.000    0.000    0.000    0.000    0.000    0.000 
#
# Total GULP energy -245065.679321 kJ/mol
# GULP energy per Si atom -5569.674530 kJ/mol
# Density = 2.066451 g / cm^3
# Si number density = 20.711651 Si / 1000 Ang^3
#
#
#
# Elastic Constant Matrix: (Units=GPa)
#
#
# Indices 1 2 3 4 5 6 
#
# 1 156.9251 56.4493 44.9372 0.0000 0.0000 0.0000
# 2 56.4493 148.2380 30.9477 0.0000 0.0000 0.0000
# 3 44.9372 30.9477 53.3040 0.0000 0.0000 0.0000
# 4 0.0000 0.0000 0.0000 21.3312 0.0000 0.0000
# 5 0.0000 0.0000 0.0000 0.0000 -55.6251 0.0000
# 6 0.0000 0.0000 0.0000 0.0000 0.0000 38.0255
#
#
#
# Elastic Compliance Matrix: (Units=1/GPa)
#
#
# Indices 1 2 3 4 5 6 
#
# 1 0.008931 -0.002081 -0.006321 0.000000 0.000000 0.000000
# 2 -0.002081 0.008161 -0.002984 0.000000 0.000000 0.000000
# 3 -0.006321 -0.002984 0.025821 0.000000 0.000000 0.000000
# 4 0.000000 0.000000 0.000000 0.046880 0.000000 0.000000
# 5 0.000000 0.000000 0.000000 0.000000 -0.017978 0.000000
# 6 0.000000 0.000000 0.000000 0.000000 0.000000 0.026298
#
#
# Mechanical properties :
#
#
# Convention : Reuss Voigt Hill
#
# Bulk Modulus (GPa) = 49.64759 69.23728 59.44243
# Shear Modulus (GPa) = 39.18475 15.82185 27.50330
#
# Velocity S-wave (km/s) = 4.35434 2.76689 3.64801
# Velocity P-wave (km/s) = 7.02163 6.61130 6.81955
#
# Compressibility (1/GPa) = 0.02014197
#
# Stress axis : x y z
#
# Youngs Moduli (GPa) = 111.96612 122.52757 38.72753
#
# Poissons Ratio (x) = 0.25503 0.24479
# Poissons Ratio (y) = 0.23305 0.11555
# Poissons Ratio (z) = 0.70773 0.36559
#
# Static dielectric constant tensor:
#      x y z
#    x 1.828410 0.000000 0.000000 
#    y 0.000000 1.750140 0.000000 
#    z 0.000000 0.000000 1.706190 
# 
# From -- ./inp_files/46468.got.cif
#   From: 2010.05.17/outbox.cif.g08.bks.cpg/sg68_24_cif.got.tgz:46468.got - 2010.06.03 18:57:09.
