data_PCOD9507005
_publ_section_title
;
Structure prediction by ZEFSAII (Michael W. Deem and Ramdas Pophale) SiO2 
 PCOD9507005
Probable space group: C C C A
;
_chemical_formula_sum "Si O2"
_cell_formula_units_Z 96
_cell_length_a 10.664256
_cell_length_b 16.922576
_cell_length_c 25.355119
_cell_angle_alpha 90.000000
_cell_angle_beta 90.000000
_cell_angle_gamma 90.000000
_cell_volume 4575.754214
_symmetry_space_group_name_H-M "C C C A"
_symmetry_group_IT_number 68
_space_group.IT_coordinate_system_code '2'
_symmetry_cell_setting 'orthorhombic'
loop_
_space_group_symop_operation_xyz
x,y,z
-x,1/2-y,z
x,1/2-y,1/2-z
-x,y,1/2-z
-x,-y,-z
x,1/2+y,-z
-x,1/2+y,1/2+z
x,-y,1/2+z
1/2+x,1/2+y,z
1/2-x,-y,z
1/2+x,-y,1/2-z
1/2-x,1/2+y,1/2-z
1/2-x,1/2-y,-z
1/2+x,y,-z
1/2-x,y,1/2+z
1/2+x,1/2-y,1/2+z
loop_
_atom_site_type_symbol
_atom_site_label
_atom_site_fract_x
_atom_site_fract_y
_atom_site_fract_z
Si Si1 0.243489 0.653185 0.069844
Si Si2 0.648774 0.165983 0.685249
Si Si3 0.023167 0.039764 0.943434
Si Si4 0.667083 0.676905 0.542151
Si Si5 0.152144 0.349505 0.299589
Si Si6 0.839265 0.569555 0.596292
O O1 0.301674 0.645086 0.127718
O O2 0.160576 0.575551 0.060382
O O3 0.161263 0.733969 0.063033
O O4 0.338946 0.666923 0.021102
O O5 0.498569 0.155082 0.690498
O O6 0.686766 0.258169 0.691335
O O7 0.691329 0.126546 0.740534
O O8 0.934526 0.116537 0.935102
O O9 0.975869 0.969876 0.905080
O O10 0.000000 0.000000 0.000000
O O11 0.805304 0.644125 0.559807
O O12 0.201141 0.405167 0.345479
O O13 0.750000 0.500000 0.575559
#
# Coordination Sequence:
#
# PCOD9507005 Si02
#       6
#    16  16  16  16  16  16
#     4  11  21  37  59  91 118 158 208 254 310 368
#     4   9  19  34  63  85 114 144 204 265 287 353
#     4  11  23  37  54  86 129 161 194 248 316 382
#     4  10  22  37  57  85 120 160 207 246 305 381
#     4   9  18  38  58  89 109 150 204 249 307 347
#     4  10  20  38  58  78 119 168 192 244 313 375
#
# _framework density 20.980146999999999
#
# number of rings (size 3 to 8) (size 9 to 14) (size 15 to 20)
#    0.000    2.000    3.333    1.500    2.333    0.000 
#    3.000    3.333    0.000    3.000    0.000    0.000 
#    0.000    0.000    0.000    0.000    0.000    0.000 
#
# Total GULP energy -267393.969356 kJ/mol
# GULP energy per Si atom -5570.707695 kJ/mol
# Density = 2.093240 g / cm^3
# Si number density = 20.980147 Si / 1000 Ang^3
#
#
#
# Elastic Constant Matrix: (Units=GPa)
#
#
# Indices 1 2 3 4 5 6 
#
# 1 32.9880 29.7970 25.4982 0.0000 0.0000 0.0000
# 2 29.7970 92.5383 31.8915 0.0000 0.0000 0.0000
# 3 25.4982 31.8915 169.7585 0.0000 0.0000 0.0000
# 4 0.0000 0.0000 0.0000 32.7157 0.0000 0.0000
# 5 0.0000 0.0000 0.0000 0.0000 25.7778 0.0000
# 6 0.0000 0.0000 0.0000 0.0000 0.0000 29.7954
#
#
#
# Elastic Compliance Matrix: (Units=1/GPa)
#
#
# Indices 1 2 3 4 5 6 
#
# 1 0.045594 -0.013174 -0.004373 0.000000 0.000000 0.000000
# 2 -0.013174 0.015361 -0.000907 0.000000 0.000000 0.000000
# 3 -0.004373 -0.000907 0.006718 0.000000 0.000000 0.000000
# 4 0.000000 0.000000 0.000000 0.030566 0.000000 0.000000
# 5 0.000000 0.000000 0.000000 0.000000 0.038793 0.000000
# 6 0.000000 0.000000 0.000000 0.000000 0.000000 0.033562
#
#
# Mechanical properties :
#
#
# Convention : Reuss Voigt Hill
#
# Bulk Modulus (GPa) = 32.50527 52.18427 42.34477
# Shear Modulus (GPa) = 22.96125 31.53100 27.24612
#
# Velocity S-wave (km/s) = 3.31180 3.88093 3.60760
# Velocity P-wave (km/s) = 5.49099 6.70890 6.13027
#
# Compressibility (1/GPa) = 0.03076424
#
# Stress axis : x y z
#
# Youngs Moduli (GPa) = 21.93264 65.10042 148.85342
#
# Poissons Ratio (x) = 0.85763 0.65101
# Poissons Ratio (y) = 0.28894 0.13501
# Poissons Ratio (z) = 0.09592 0.05905
#
# Static dielectric constant tensor:
#      x y z
#    x 1.858740 0.000000 0.000000 
#    y 0.000000 1.669110 0.000000 
#    z 0.000000 0.000000 1.784460 
# 
# From -- ./inp_files/44442.got.cif
#   From: 2010.05.17/outbox.cif.g08.bks.cpg/sg68_23_cif.got.tgz:44442.got - 2010.06.03 18:57:09.
