data_PCOD9507238
_publ_section_title
;
Structure prediction by ZEFSAII (Michael W. Deem and Ramdas Pophale) SiO2 
 PCOD9507238
Probable space group: C C C A
;
_chemical_formula_sum "Si O2"
_cell_formula_units_Z 60
_cell_length_a 20.490433
_cell_length_b 5.010392
_cell_length_c 26.463438
_cell_angle_alpha 90.000000
_cell_angle_beta 90.000000
_cell_angle_gamma 90.000000
_cell_volume 2716.871550
_symmetry_space_group_name_H-M "C C C A"
_symmetry_group_IT_number 68
_space_group.IT_coordinate_system_code '2'
_symmetry_cell_setting 'orthorhombic'
loop_
_space_group_symop_operation_xyz
x,y,z
-x,1/2-y,z
x,1/2-y,1/2-z
-x,y,1/2-z
-x,-y,-z
x,1/2+y,-z
-x,1/2+y,1/2+z
x,-y,1/2+z
1/2+x,1/2+y,z
1/2-x,-y,z
1/2+x,-y,1/2-z
1/2-x,1/2+y,1/2-z
1/2-x,1/2-y,-z
1/2+x,y,-z
1/2-x,y,1/2+z
1/2+x,1/2-y,1/2+z
loop_
_atom_site_type_symbol
_atom_site_label
_atom_site_fract_x
_atom_site_fract_y
_atom_site_fract_z
Si Si1 0.750000 0.000000 0.315108
Si Si2 0.607550 0.994300 0.318012
Si Si3 0.250000 0.000000 0.889465
Si Si4 0.608649 0.503138 0.388587
Si Si5 0.500000 0.750000 0.750000
Si Si6 0.500000 0.250000 0.962040
O O1 0.678546 0.018327 0.290401
O O2 0.750741 0.249628 0.352418
O O3 0.601119 0.205417 0.365290
O O4 0.547586 0.066502 0.283015
O O5 0.607139 0.696823 0.339885
O O6 0.179774 0.995298 0.915700
O O7 0.556916 0.644454 0.424770
O O8 0.500000 0.500000 0.000000
#
# Coordination Sequence:
#
# PCOD9507238 Si02
#       6
#     8  16   8  16   4   8
#     4   8  16  34  53  79 106 148 190 230 280 331
#     4  10  21  36  59  82 115 152 194 238 285 340
#     4   8  16  32  61  79  98 142 196 226 268 341
#     4  10  20  40  59  80 111 152 188 233 290 342
#     4  12  24  36  56  94 120 152 200 244 284 342
#     4  12  24  37  56  85 116 145 182 229 290 356
#
# _framework density 22.084223000000001
#
# number of rings (size 3 to 8) (size 9 to 14) (size 15 to 20)
#    0.000    2.133    0.000    3.200    0.000    2.133 
#    0.000    9.333    0.000    0.000    0.000    0.000 
#    0.000    0.000    0.000    0.000    0.000    0.000 
#
# Total GULP energy -167155.220152 kJ/mol
# GULP energy per Si atom -5571.840672 kJ/mol
# Density = 2.203396 g / cm^3
# Si number density = 22.084223 Si / 1000 Ang^3
#
#
#
# Elastic Constant Matrix: (Units=GPa)
#
#
# Indices 1 2 3 4 5 6 
#
# 1 206.8490 -3.9336 48.7451 0.0000 0.0000 0.0000
# 2 -3.9336 132.4953 -0.2224 0.0000 0.0000 0.0000
# 3 48.7451 -0.2224 43.2953 0.0000 0.0000 0.0000
# 4 0.0000 0.0000 0.0000 42.5595 0.0000 0.0000
# 5 0.0000 0.0000 0.0000 0.0000 -100.2701 0.0000
# 6 0.0000 0.0000 0.0000 0.0000 0.0000 34.3195
#
#
#
# Elastic Compliance Matrix: (Units=1/GPa)
#
#
# Indices 1 2 3 4 5 6 
#
# 1 0.006585 0.000183 -0.007413 0.000000 0.000000 0.000000
# 2 0.000183 0.007553 -0.000167 0.000000 0.000000 0.000000
# 3 -0.007413 -0.000167 0.031442 0.000000 0.000000 0.000000
# 4 0.000000 0.000000 0.000000 0.023497 0.000000 0.000000
# 5 0.000000 0.000000 0.000000 0.000000 -0.009973 0.000000
# 6 0.000000 0.000000 0.000000 0.000000 0.000000 0.029138
#
#
# Mechanical properties :
#
#
# Convention : Reuss Voigt Hill
#
# Bulk Modulus (GPa) = 32.48272 52.42419 42.45345
# Shear Modulus (GPa) = 44.13194 17.85847 30.99521
#
# Velocity S-wave (km/s) = 4.47514 2.84677 3.75040
# Velocity P-wave (km/s) = 6.43762 5.88178 6.16596
#
# Compressibility (1/GPa) = 0.03078560
#
# Stress axis : x y z
#
# Youngs Moduli (GPa) = 151.86573 132.40491 31.80448
#
# Poissons Ratio (x) = -0.02424 0.23576
# Poissons Ratio (y) = -0.02780 0.00532
# Poissons Ratio (z) = 1.12573 0.02215
#
# Static dielectric constant tensor:
#      x y z
#    x 1.951460 0.000000 0.000000 
#    y 0.000000 1.771900 0.000000 
#    z 0.000000 0.000000 1.818840 
# 
# From -- ./inp_files/42075.got.cif
#   From: 2010.05.17/outbox.cif.g08.bks.cpg/sg68_22_cif.got.tgz:42075.got - 2010.06.03 18:57:09.
