data_PCOD9507062
_publ_section_title
;
Structure prediction by ZEFSAII (Michael W. Deem and Ramdas Pophale) SiO2 
 PCOD9507062
Probable space group: C C C A
;
_chemical_formula_sum "Si O2"
_cell_formula_units_Z 80
_cell_length_a 13.295835
_cell_length_b 13.894099
_cell_length_c 21.157338
_cell_angle_alpha 90.000000
_cell_angle_beta 90.000000
_cell_angle_gamma 90.000000
_cell_volume 3908.472226
_symmetry_space_group_name_H-M "C C C A"
_symmetry_group_IT_number 68
_space_group.IT_coordinate_system_code '2'
_symmetry_cell_setting 'orthorhombic'
loop_
_space_group_symop_operation_xyz
x,y,z
-x,1/2-y,z
x,1/2-y,1/2-z
-x,y,1/2-z
-x,-y,-z
x,1/2+y,-z
-x,1/2+y,1/2+z
x,-y,1/2+z
1/2+x,1/2+y,z
1/2-x,-y,z
1/2+x,-y,1/2-z
1/2-x,1/2+y,1/2-z
1/2-x,1/2-y,-z
1/2+x,y,-z
1/2-x,y,1/2+z
1/2+x,1/2-y,1/2+z
loop_
_atom_site_type_symbol
_atom_site_label
_atom_site_fract_x
_atom_site_fract_y
_atom_site_fract_z
Si Si1 0.115838 0.516795 0.011431
Si Si2 0.859990 0.469431 0.133029
Si Si3 0.755970 0.333709 0.446453
Si Si4 0.290939 0.217701 0.680469
Si Si5 0.444439 0.343063 0.317739
O O1 0.152927 0.543472 0.941412
O O2 0.165609 0.417098 0.033694
O O3 0.151689 0.605434 0.054764
O O4 0.000000 0.500000 0.000000
O O5 0.750000 0.500000 0.158258
O O6 0.870829 0.364891 0.162143
O O7 0.939358 0.553489 0.147719
O O8 0.750000 0.250000 0.500000
O O9 0.785241 0.290582 0.378687
O O10 0.319487 0.250000 0.750000
O O11 0.173386 0.184535 0.687150
O O12 0.500000 0.250000 0.347947
O O13 0.500000 0.355420 0.250000
#
# Coordination Sequence:
#
# PCOD9507062 Si02
#       5
#    16  16  16  16  16
#     4  11  24  42  68 101 128 177 236 289 342 409
#     4  10  20  42  64  90 137 174 218 284 351 395
#     4  11  22  46  68  95 137 179 230 279 347 426
#     4  11  22  41  67  95 137 185 216 283 361 409
#     4  10  20  38  62  99 127 168 237 275 326 413
#
# _framework density 20.468356
#
# number of rings (size 3 to 8) (size 9 to 14) (size 15 to 20)
#    0.000    1.400    6.000    1.200    2.800    0.800 
#   14.400    0.000    0.000    0.000    0.000    0.000 
#    0.000    0.000    0.000    0.000    0.000    0.000 
#
# Total GULP energy -222809.612140 kJ/mol
# GULP energy per Si atom -5570.240304 kJ/mol
# Density = 2.042177 g / cm^3
# Si number density = 20.468356 Si / 1000 Ang^3
#
#
#
# Elastic Constant Matrix: (Units=GPa)
#
#
# Indices 1 2 3 4 5 6 
#
# 1 65.3232 33.4511 0.1195 0.0000 0.0000 0.0000
# 2 33.4511 164.6797 86.3023 0.0000 0.0000 0.0000
# 3 0.1195 86.3023 142.1067 0.0000 0.0000 0.0000
# 4 0.0000 0.0000 0.0000 17.8646 0.0000 0.0000
# 5 0.0000 0.0000 0.0000 0.0000 3.8741 0.0000
# 6 0.0000 0.0000 0.0000 0.0000 0.0000 37.4404
#
#
#
# Elastic Compliance Matrix: (Units=1/GPa)
#
#
# Indices 1 2 3 4 5 6 
#
# 1 0.018051 -0.005367 0.003244 0.000000 0.000000 0.000000
# 2 -0.005367 0.010503 -0.006374 0.000000 0.000000 0.000000
# 3 0.003244 -0.006374 0.010905 0.000000 0.000000 0.000000
# 4 0.000000 0.000000 0.000000 0.055977 0.000000 0.000000
# 5 0.000000 0.000000 0.000000 0.000000 0.258126 0.000000
# 6 0.000000 0.000000 0.000000 0.000000 0.000000 0.026709
#
#
# Mechanical properties :
#
#
# Convention : Reuss Voigt Hill
#
# Bulk Modulus (GPa) = 44.51246 67.98394 56.24820
# Shear Modulus (GPa) = 12.35323 28.65159 20.50241
#
# Velocity S-wave (km/s) = 2.45935 3.74545 3.16834
# Velocity P-wave (km/s) = 5.46431 7.21046 6.39724
#
# Compressibility (1/GPa) = 0.02246562
#
# Stress axis : x y z
#
# Youngs Moduli (GPa) = 55.39927 95.21218 91.69964
#
# Poissons Ratio (x) = 0.51098 -0.29748
# Poissons Ratio (y) = 0.29731 0.58449
# Poissons Ratio (z) = -0.17972 0.60688
#
# Static dielectric constant tensor:
#      x y z
#    x 1.779540 0.000000 0.000000 
#    y 0.000000 1.791930 0.000000 
#    z 0.000000 0.000000 1.518750 
# 
# From -- ./inp_files/38363.got.cif
#   From: 2010.05.17/outbox.cif.g08.bks.cpg/sg68_20_cif.got.tgz:38363.got - 2010.06.03 18:57:09.
