data_PCOD9507520
_publ_section_title
;
Structure prediction by ZEFSAII (Michael W. Deem and Ramdas Pophale) SiO2 
 PCOD9507520
Probable space group: C C C A
;
_chemical_formula_sum "Si O2"
_cell_formula_units_Z 80
_cell_length_a 24.382606
_cell_length_b 8.346458
_cell_length_c 19.845212
_cell_angle_alpha 90.000000
_cell_angle_beta 90.000000
_cell_angle_gamma 90.000000
_cell_volume 4038.667280
_symmetry_space_group_name_H-M "C C C A"
_symmetry_group_IT_number 68
_space_group.IT_coordinate_system_code '2'
_symmetry_cell_setting 'orthorhombic'
loop_
_space_group_symop_operation_xyz
x,y,z
-x,1/2-y,z
x,1/2-y,1/2-z
-x,y,1/2-z
-x,-y,-z
x,1/2+y,-z
-x,1/2+y,1/2+z
x,-y,1/2+z
1/2+x,1/2+y,z
1/2-x,-y,z
1/2+x,-y,1/2-z
1/2-x,1/2+y,1/2-z
1/2-x,1/2-y,-z
1/2+x,y,-z
1/2-x,y,1/2+z
1/2+x,1/2-y,1/2+z
loop_
_atom_site_type_symbol
_atom_site_label
_atom_site_fract_x
_atom_site_fract_y
_atom_site_fract_z
Si Si1 0.886468 0.843895 0.554993
Si Si2 0.178482 0.685114 0.679267
Si Si3 0.290997 0.138064 0.044057
Si Si4 0.808051 0.195199 0.676711
Si Si5 0.539524 0.879989 0.540910
O O1 0.857153 0.755577 0.616809
O O2 0.837950 0.914122 0.508139
O O3 0.923069 0.722489 0.510961
O O4 0.922429 0.994700 0.580293
O O5 0.156899 0.750000 0.750000
O O6 0.180462 0.492948 0.673774
O O7 0.242459 0.729881 0.675966
O O8 0.322783 0.218620 0.106806
O O9 0.250000 0.000000 0.068005
O O10 0.250000 0.250000 0.000000
O O11 0.829128 0.250000 0.750000
O O12 0.500000 0.750000 0.576563
O O13 0.500000 0.000000 0.500000
#
# Coordination Sequence:
#
# PCOD9507520 Si02
#       5
#    16  16  16  16  16
#     4  11  20  35  59  86 115 150 191 238 292 346
#     4  10  21  35  54  79 117 158 200 229 274 348
#     4  12  23  34  54  87 125 156 195 238 281 343
#     4  10  22  35  50  76 121 169 197 226 271 330
#     4   9  20  37  58  83 108 139 185 247 302 342
#
# _framework density 19.808515
#
# number of rings (size 3 to 8) (size 9 to 14) (size 15 to 20)
#    0.000    1.600    2.000    3.600    5.600    0.000 
#    0.000    0.000    0.000    5.400    0.000    9.800 
#    0.000    0.000    0.000    0.000    0.000    0.000 
#
# Total GULP energy -223016.224853 kJ/mol
# GULP energy per Si atom -5575.405621 kJ/mol
# Density = 1.976343 g / cm^3
# Si number density = 19.808515 Si / 1000 Ang^3
#
#
#
# Elastic Constant Matrix: (Units=GPa)
#
#
# Indices 1 2 3 4 5 6 
#
# 1 67.3007 10.9726 12.7141 0.0000 0.0000 0.0000
# 2 10.9726 60.3570 11.9969 0.0000 0.0000 0.0000
# 3 12.7141 11.9969 101.5949 0.0000 0.0000 0.0000
# 4 0.0000 0.0000 0.0000 28.4236 0.0000 0.0000
# 5 0.0000 0.0000 0.0000 0.0000 11.4256 0.0000
# 6 0.0000 0.0000 0.0000 0.0000 0.0000 34.7012
#
#
#
# Elastic Compliance Matrix: (Units=1/GPa)
#
#
# Indices 1 2 3 4 5 6 
#
# 1 0.015579 -0.002503 -0.001654 0.000000 0.000000 0.000000
# 2 -0.002503 0.017369 -0.001738 0.000000 0.000000 0.000000
# 3 -0.001654 -0.001738 0.010255 0.000000 0.000000 0.000000
# 4 0.000000 0.000000 0.000000 0.035182 0.000000 0.000000
# 5 0.000000 0.000000 0.000000 0.000000 0.087522 0.000000
# 6 0.000000 0.000000 0.000000 0.000000 0.000000 0.028817
#
#
# Mechanical properties :
#
#
# Convention : Reuss Voigt Hill
#
# Bulk Modulus (GPa) = 31.83425 33.40221 32.61823
# Shear Modulus (GPa) = 23.04292 27.81468 25.42880
#
# Velocity S-wave (km/s) = 3.41439 3.75130 3.58681
# Velocity P-wave (km/s) = 5.62583 5.97178 5.80139
#
# Compressibility (1/GPa) = 0.03141270
#
# Stress axis : x y z
#
# Youngs Moduli (GPa) = 64.18768 57.57518 97.51144
#
# Poissons Ratio (x) = 0.14414 0.16129
# Poissons Ratio (y) = 0.16069 0.16944
# Poissons Ratio (z) = 0.10617 0.10005
#
# Static dielectric constant tensor:
#      x y z
#    x 1.721040 0.000000 0.000000 
#    y 0.000000 1.745200 0.000000 
#    z 0.000000 0.000000 1.739990 
# 
# From -- ./inp_files/28298.got.cif
#   From: 2010.05.17/outbox.cif.g08.bks.cpg/sg68_15_cif.got.tgz:28298.got - 2010.06.03 18:57:09.
