data_PCOD9507747
_publ_section_title
;
Structure prediction by ZEFSAII (Michael W. Deem and Ramdas Pophale) SiO2 
 PCOD9507747
Probable space group: C C C A
;
_chemical_formula_sum "Si O2"
_cell_formula_units_Z 96
_cell_length_a 8.577403
_cell_length_b 24.863312
_cell_length_c 21.375557
_cell_angle_alpha 90.000000
_cell_angle_beta 90.000000
_cell_angle_gamma 90.000000
_cell_volume 4558.607866
_symmetry_space_group_name_H-M "C C C A"
_symmetry_group_IT_number 68
_space_group.IT_coordinate_system_code '2'
_symmetry_cell_setting 'orthorhombic'
loop_
_space_group_symop_operation_xyz
x,y,z
-x,1/2-y,z
x,1/2-y,1/2-z
-x,y,1/2-z
-x,-y,-z
x,1/2+y,-z
-x,1/2+y,1/2+z
x,-y,1/2+z
1/2+x,1/2+y,z
1/2-x,-y,z
1/2+x,-y,1/2-z
1/2-x,1/2+y,1/2-z
1/2-x,1/2-y,-z
1/2+x,y,-z
1/2-x,y,1/2+z
1/2+x,1/2-y,1/2+z
loop_
_atom_site_type_symbol
_atom_site_label
_atom_site_fract_x
_atom_site_fract_y
_atom_site_fract_z
Si Si1 0.940714 0.310063 0.859269
Si Si2 0.369137 0.111326 0.469458
Si Si3 0.032821 0.593849 0.588213
Si Si4 0.904887 0.521705 0.087095
Si Si5 0.634778 0.404752 0.204240
Si Si6 0.364785 0.844331 0.290268
O O1 0.914140 0.337445 0.926937
O O2 0.780107 0.311667 0.819327
O O3 0.000000 0.250000 0.863766
O O4 0.061898 0.349763 0.824321
O O5 0.193461 0.098758 0.450236
O O6 0.398390 0.117415 0.543064
O O7 0.481621 0.062246 0.448743
O O8 0.054848 0.627150 0.650874
O O9 0.000050 0.531828 0.602822
O O10 0.750000 0.500000 0.052125
O O11 0.843842 0.553961 0.147760
O O12 0.500000 0.426857 0.250000
O O13 0.782893 0.388937 0.245593
O O14 0.500000 0.816539 0.250000
#
# Coordination Sequence:
#
# PCOD9507747 Si02
#       6
#    16  16  16  16  16  16
#     4   9  20  42  68  86 114 160 202 249 312 367
#     4  10  22  39  60  89 119 155 207 253 298 364
#     4  11  22  38  60  86 125 165 198 247 305 362
#     4  11  21  34  57  85 117 160 199 244 299 355
#     4   9  20  36  56  86 121 157 202 243 291 364
#     4  10  21  38  60  91 124 158 203 256 302 358
#
# _framework density 21.059062000000001
#
# number of rings (size 3 to 8) (size 9 to 14) (size 15 to 20)
#    0.000    2.000    0.000    4.000    0.000    6.333 
#    0.000    6.667    0.000    2.000    0.000    0.000 
#    0.000    0.000    0.000    0.000    0.000    0.000 
#
# Total GULP energy -268298.610344 kJ/mol
# GULP energy per Si atom -5589.554382 kJ/mol
# Density = 2.101113 g / cm^3
# Si number density = 21.059062 Si / 1000 Ang^3
#
#
#
# Elastic Constant Matrix: (Units=GPa)
#
#
# Indices 1 2 3 4 5 6 
#
# 1 89.0676 47.3900 44.4925 0.0000 0.0000 0.0000
# 2 47.3900 121.4500 54.8675 0.0000 0.0000 0.0000
# 3 44.4925 54.8675 109.1964 0.0000 0.0000 0.0000
# 4 0.0000 0.0000 0.0000 7.2904 0.0000 0.0000
# 5 0.0000 0.0000 0.0000 0.0000 46.3926 0.0000
# 6 0.0000 0.0000 0.0000 0.0000 0.0000 18.4832
#
#
#
# Elastic Compliance Matrix: (Units=1/GPa)
#
#
# Indices 1 2 3 4 5 6 
#
# 1 0.015561 -0.004149 -0.004255 0.000000 0.000000 0.000000
# 2 -0.004149 0.011758 -0.004217 0.000000 0.000000 0.000000
# 3 -0.004255 -0.004217 0.013011 0.000000 0.000000 0.000000
# 4 0.000000 0.000000 0.000000 0.137167 0.000000 0.000000
# 5 0.000000 0.000000 0.000000 0.000000 0.021555 0.000000
# 6 0.000000 0.000000 0.000000 0.000000 0.000000 0.054103
#
#
# Mechanical properties :
#
#
# Convention : Reuss Voigt Hill
#
# Bulk Modulus (GPa) = 66.28898 68.13489 67.21194
# Shear Modulus (GPa) = 17.64117 25.96418 21.80267
#
# Velocity S-wave (km/s) = 2.89744 3.51511 3.22112
# Velocity P-wave (km/s) = 6.53755 6.99279 6.76900
#
# Compressibility (1/GPa) = 0.01508546
#
# Stress axis : x y z
#
# Youngs Moduli (GPa) = 64.26343 85.04660 76.85918
#
# Poissons Ratio (x) = 0.35290 0.32707
# Poissons Ratio (y) = 0.26666 0.32415
# Poissons Ratio (z) = 0.27347 0.35868
#
# Static dielectric constant tensor:
#      x y z
#    x 1.794750 0.000000 0.000000 
#    y 0.000000 1.696290 0.000000 
#    z 0.000000 0.000000 1.801050 
# 
# From -- ./inp_files/36489.got.cif
#   From: 2010.05.17/outbox.cif.g08.bks.cpg/sg68_19_cif.got.tgz:36489.got - 2010.06.03 18:57:09.
