data_PCOD9507627
_publ_section_title
;
Structure prediction by ZEFSAII (Michael W. Deem and Ramdas Pophale) SiO2 
 PCOD9507627
Probable space group: C C C A
;
_chemical_formula_sum "Si O2"
_cell_formula_units_Z 56
_cell_length_a 33.897134
_cell_length_b 5.159211
_cell_length_c 15.821531
_cell_angle_alpha 90.000000
_cell_angle_beta 90.000000
_cell_angle_gamma 90.000000
_cell_volume 2766.908367
_symmetry_space_group_name_H-M "C C C A"
_symmetry_group_IT_number 68
_space_group.IT_coordinate_system_code '2'
_symmetry_cell_setting 'orthorhombic'
loop_
_space_group_symop_operation_xyz
x,y,z
-x,1/2-y,z
x,1/2-y,1/2-z
-x,y,1/2-z
-x,-y,-z
x,1/2+y,-z
-x,1/2+y,1/2+z
x,-y,1/2+z
1/2+x,1/2+y,z
1/2-x,-y,z
1/2+x,-y,1/2-z
1/2-x,1/2+y,1/2-z
1/2-x,1/2-y,-z
1/2+x,y,-z
1/2-x,y,1/2+z
1/2+x,1/2-y,1/2+z
loop_
_atom_site_type_symbol
_atom_site_label
_atom_site_fract_x
_atom_site_fract_y
_atom_site_fract_z
Si Si1 0.210027 0.090341 0.560396
Si Si2 0.369951 0.260113 0.351695
Si Si3 0.500000 0.750000 0.440755
Si Si4 0.416689 0.752860 0.352116
O O1 0.209599 0.360985 0.509139
O O2 0.171923 0.129316 0.617852
O O3 0.250000 0.000000 0.608998
O O4 0.369096 0.250000 0.250000
O O5 0.401102 0.474537 0.381224
O O6 0.386230 0.979490 0.380321
O O7 0.500000 0.500000 0.500000
O O8 0.460785 0.781773 0.384883
O O9 0.416791 0.750000 0.250000
#
# Coordination Sequence:
#
# PCOD9507627 Si02
#       4
#    16  16   8  16
#     4  10  21  37  57  83 116 151 185 227 284 341
#     4  10  21  38  60  85 111 148 195 235 279 338
#     4  12  25  38  57  88 116 144 192 240 283 338
#     4  10  22  40  59  80 114 153 187 231 289 343
#
# _framework density 20.239197000000001
#
# number of rings (size 3 to 8) (size 9 to 14) (size 15 to 20)
#    0.000    1.714    0.000    3.857    0.000    6.857 
#    0.000   14.286    0.000    0.000    0.000    0.000 
#    0.000    0.000    0.000    0.000    0.000    0.000 
#
# Total GULP energy -156136.343712 kJ/mol
# GULP energy per Si atom -5576.297990 kJ/mol
# Density = 2.019313 g / cm^3
# Si number density = 20.239197 Si / 1000 Ang^3
#
#
#
# Elastic Constant Matrix: (Units=GPa)
#
#
# Indices 1 2 3 4 5 6 
#
# 1 159.5559 36.7387 31.0792 0.0000 0.0000 0.0000
# 2 36.7387 148.4842 24.3996 0.0000 0.0000 0.0000
# 3 31.0792 24.3996 15.5433 0.0000 0.0000 0.0000
# 4 0.0000 0.0000 0.0000 15.1398 0.0000 0.0000
# 5 0.0000 0.0000 0.0000 0.0000 35.3713 0.0000
# 6 0.0000 0.0000 0.0000 0.0000 0.0000 34.2401
#
#
#
# Elastic Compliance Matrix: (Units=1/GPa)
#
#
# Indices 1 2 3 4 5 6 
#
# 1 0.010406 0.001138 -0.022594 0.000000 0.000000 0.000000
# 2 0.001138 0.009200 -0.016718 0.000000 0.000000 0.000000
# 3 -0.022594 -0.016718 0.135757 0.000000 0.000000 0.000000
# 4 0.000000 0.000000 0.000000 0.066051 0.000000 0.000000
# 5 0.000000 0.000000 0.000000 0.000000 0.028272 0.000000
# 6 0.000000 0.000000 0.000000 0.000000 0.000000 0.029206
#
#
# Mechanical properties :
#
#
# Convention : Reuss Voigt Hill
#
# Bulk Modulus (GPa) = 12.65572 56.44648 34.55110
# Shear Modulus (GPa) = 13.10346 32.37462 22.73904
#
# Velocity S-wave (km/s) = 2.54722 4.00384 3.35552
# Velocity P-wave (km/s) = 3.86236 7.02314 5.66755
#
# Compressibility (1/GPa) = 0.07901567
#
# Stress axis : x y z
#
# Youngs Moduli (GPa) = 96.09498 108.69189 7.36610
#
# Poissons Ratio (x) = -0.12369 0.16643
# Poissons Ratio (y) = -0.10935 0.12315
# Poissons Ratio (z) = 2.17118 1.81710
#
# Static dielectric constant tensor:
#      x y z
#    x 1.782400 0.000000 0.000000 
#    y 0.000000 1.708620 0.000000 
#    z 0.000000 0.000000 1.714540 
# 
# From -- ./inp_files/18330.got.cif
#   From: 2010.05.17/outbox.cif.g08.bks.cpg/sg68_10_cif.got.tgz:18330.got - 2010.06.03 18:57:09.
