data_PCOD9507034
_publ_section_title
;
Structure prediction by ZEFSAII (Michael W. Deem and Ramdas Pophale) SiO2 
 PCOD9507034
Probable space group: C C C A
;
_chemical_formula_sum "Si O2"
_cell_formula_units_Z 88
_cell_length_a 12.915359
_cell_length_b 17.875804
_cell_length_c 18.401524
_cell_angle_alpha 90.000000
_cell_angle_beta 90.000000
_cell_angle_gamma 90.000000
_cell_volume 4248.404489
_symmetry_space_group_name_H-M "C C C A"
_symmetry_group_IT_number 68
_space_group.IT_coordinate_system_code '2'
_symmetry_cell_setting 'orthorhombic'
loop_
_space_group_symop_operation_xyz
x,y,z
-x,1/2-y,z
x,1/2-y,1/2-z
-x,y,1/2-z
-x,-y,-z
x,1/2+y,-z
-x,1/2+y,1/2+z
x,-y,1/2+z
1/2+x,1/2+y,z
1/2-x,-y,z
1/2+x,-y,1/2-z
1/2-x,1/2+y,1/2-z
1/2-x,1/2-y,-z
1/2+x,y,-z
1/2-x,y,1/2+z
1/2+x,1/2-y,1/2+z
loop_
_atom_site_type_symbol
_atom_site_label
_atom_site_fract_x
_atom_site_fract_y
_atom_site_fract_z
Si Si1 0.150506 0.123355 0.936607
Si Si2 0.126979 0.810911 0.896702
Si Si3 0.750000 0.000000 0.160242
Si Si4 0.500000 0.750000 0.621770
Si Si5 0.159679 0.250000 0.750000
Si Si6 0.583031 0.637893 0.087167
Si Si7 0.338181 0.868447 0.249260
O O1 0.257322 0.168184 0.919992
O O2 0.170856 0.050637 0.886971
O O3 0.051125 0.178373 0.920215
O O4 0.142452 0.100236 0.020800
O O5 0.108903 0.726248 0.919410
O O6 0.104591 0.817851 0.810022
O O7 0.039975 0.866725 0.926656
O O8 0.682352 0.946033 0.210614
O O9 0.592368 0.735722 0.678537
O O10 0.230641 0.323219 0.750559
O O11 0.616372 0.619364 0.169452
#
# Coordination Sequence:
#
# PCOD9507034 Si02
#       7
#    16  16   8   8   8  16  16
#     4  11  23  42  61  94 138 171 221 285 354 407
#     4  10  20  38  60  97 130 159 215 294 331 392
#     4  10  24  44  62  88 150 182 204 308 352 398
#     4  11  20  38  66  96 125 176 238 284 333 414
#     4  11  20  36  69  96 122 171 242 289 316 420
#     4  11  21  34  67  94 122 174 225 268 342 422
#     4  11  20  41  61  94 132 171 221 280 351 406
#
# _framework density 20.713657999999999
#
# number of rings (size 3 to 8) (size 9 to 14) (size 15 to 20)
#    0.000    1.273    5.455    2.182    0.000    3.636 
#    0.000   10.909    0.000    0.000    0.000    0.000 
#    0.000    0.000    0.000    0.000    0.000    0.000 
#
# Total GULP energy -244970.623924 kJ/mol
# GULP energy per Si atom -5567.514180 kJ/mol
# Density = 2.066651 g / cm^3
# Si number density = 20.713658 Si / 1000 Ang^3
#
#
#
# Elastic Constant Matrix: (Units=GPa)
#
#
# Indices 1 2 3 4 5 6 
#
# 1 99.0938 26.8256 47.6289 0.0000 0.0000 0.0000
# 2 26.8256 73.7503 22.6994 0.0000 0.0000 0.0000
# 3 47.6289 22.6994 140.5763 0.0000 0.0000 0.0000
# 4 0.0000 0.0000 0.0000 8.0337 0.0000 0.0000
# 5 0.0000 0.0000 0.0000 0.0000 -14.2340 0.0000
# 6 0.0000 0.0000 0.0000 0.0000 0.0000 10.0403
#
#
#
# Elastic Compliance Matrix: (Units=1/GPa)
#
#
# Indices 1 2 3 4 5 6 
#
# 1 0.012865 -0.003512 -0.003792 0.000000 0.000000 0.000000
# 2 -0.003512 0.015227 -0.001269 0.000000 0.000000 0.000000
# 3 -0.003792 -0.001269 0.008603 0.000000 0.000000 0.000000
# 4 0.000000 0.000000 0.000000 0.124476 0.000000 0.000000
# 5 0.000000 0.000000 0.000000 0.000000 -0.070254 0.000000
# 6 0.000000 0.000000 0.000000 0.000000 0.000000 0.099599
#
#
# Mechanical properties :
#
#
# Convention : Reuss Voigt Hill
#
# Bulk Modulus (GPa) = 51.15164 56.41423 53.78293
# Shear Modulus (GPa) = 23.34515 15.18578 19.26547
#
# Velocity S-wave (km/s) = 3.36079 2.71057 3.05304
# Velocity P-wave (km/s) = 6.30937 6.09021 6.20076
#
# Compressibility (1/GPa) = 0.01954972
#
# Stress axis : x y z
#
# Youngs Moduli (GPa) = 77.73241 65.67135 116.23764
#
# Poissons Ratio (x) = 0.23066 0.44072
# Poissons Ratio (y) = 0.27302 0.14748
# Poissons Ratio (z) = 0.29473 0.08332
#
# Static dielectric constant tensor:
#      x y z
#    x 1.817120 0.000000 0.000000 
#    y 0.000000 1.793920 0.000000 
#    z 0.000000 0.000000 1.829840 
# 
# From -- ./inp_files/31064.got.cif
#   From: 2010.05.17/outbox.cif.g08.bks.cpg/sg68_16_cif.got.tgz:31064.got - 2010.06.03 18:57:09.
