data_PCOD9507615
_publ_section_title
;
Structure prediction by ZEFSAII (Michael W. Deem and Ramdas Pophale) SiO2 
 PCOD9507615
Probable space group: C C C A
;
_chemical_formula_sum "Si O2"
_cell_formula_units_Z 64
_cell_length_a 7.310730
_cell_length_b 17.858996
_cell_length_c 22.709791
_cell_angle_alpha 90.000000
_cell_angle_beta 90.000000
_cell_angle_gamma 90.000000
_cell_volume 2965.042496
_symmetry_space_group_name_H-M "C C C A"
_symmetry_group_IT_number 68
_space_group.IT_coordinate_system_code '2'
_symmetry_cell_setting 'orthorhombic'
loop_
_space_group_symop_operation_xyz
x,y,z
-x,1/2-y,z
x,1/2-y,1/2-z
-x,y,1/2-z
-x,-y,-z
x,1/2+y,-z
-x,1/2+y,1/2+z
x,-y,1/2+z
1/2+x,1/2+y,z
1/2-x,-y,z
1/2+x,-y,1/2-z
1/2-x,1/2+y,1/2-z
1/2-x,1/2-y,-z
1/2+x,y,-z
1/2-x,y,1/2+z
1/2+x,1/2-y,1/2+z
loop_
_atom_site_type_symbol
_atom_site_label
_atom_site_fract_x
_atom_site_fract_y
_atom_site_fract_z
Si Si1 0.500000 0.938929 0.750000
Si Si2 0.250000 0.500000 0.844063
Si Si3 0.000000 0.750000 0.605863
Si Si4 0.250000 0.000000 0.956900
Si Si5 0.410178 0.905447 0.062286
Si Si6 0.191103 0.177317 0.284047
O O1 0.579445 0.988621 0.802018
O O2 0.663487 0.888008 0.723991
O O3 0.269908 0.429564 0.886915
O O4 0.927206 0.682990 0.565585
O O5 0.862027 0.793226 0.650866
O O6 0.404931 0.047206 0.923844
O O7 0.155408 0.060937 0.000265
O O8 0.266218 0.250000 0.250000
O O9 0.000000 0.159207 0.250000
#
# Coordination Sequence:
#
# PCOD9507615 Si02
#       6
#     8   8   8   8  16  16
#     4  12  25  38  62  93 136 182 218 258 318 395
#     4  11  26  37  64  96 128 175 224 253 326 400
#     4  10  21  36  68  92 130 158 220 267 330 392
#     4   9  22  43  70  84 132 161 216 283 330 388
#     4  10  22  43  63  96 121 172 214 273 333 386
#     4   9  20  39  59  89 131 173 212 269 317 381
#
# _framework density 21.584851
#
# number of rings (size 3 to 8) (size 9 to 14) (size 15 to 20)
#    0.000    2.250    0.000    3.375    8.750    1.000 
#    0.000    0.000    0.000    0.000    0.000    0.000 
#    0.000    0.000    0.000    0.000    0.000    0.000 
#
# Total GULP energy -178719.423867 kJ/mol
# GULP energy per Si atom -5584.981996 kJ/mol
# Density = 2.153572 g / cm^3
# Si number density = 21.584851 Si / 1000 Ang^3
#
#
#
# Elastic Constant Matrix: (Units=GPa)
#
#
# Indices 1 2 3 4 5 6 
#
# 1 59.8530 12.3128 11.1246 0.0000 0.0000 0.0000
# 2 12.3128 133.6811 36.2049 0.0000 0.0000 0.0000
# 3 11.1246 36.2049 57.6111 0.0000 0.0000 0.0000
# 4 0.0000 0.0000 0.0000 9.9686 0.0000 0.0000
# 5 0.0000 0.0000 0.0000 0.0000 22.3049 0.0000
# 6 0.0000 0.0000 0.0000 0.0000 0.0000 43.1735
#
#
#
# Elastic Compliance Matrix: (Units=1/GPa)
#
#
# Indices 1 2 3 4 5 6 
#
# 1 0.017407 -0.000835 -0.002836 0.000000 0.000000 0.000000
# 2 -0.000835 0.009055 -0.005529 0.000000 0.000000 0.000000
# 3 -0.002836 -0.005529 0.021380 0.000000 0.000000 0.000000
# 4 0.000000 0.000000 0.000000 0.100315 0.000000 0.000000
# 5 0.000000 0.000000 0.000000 0.000000 0.044833 0.000000
# 6 0.000000 0.000000 0.000000 0.000000 0.000000 0.023162
#
#
# Mechanical properties :
#
#
# Convention : Reuss Voigt Hill
#
# Bulk Modulus (GPa) = 33.96694 41.15888 37.56291
# Shear Modulus (GPa) = 20.46103 27.85625 24.15864
#
# Velocity S-wave (km/s) = 3.08220 3.59631 3.34913
# Velocity P-wave (km/s) = 5.33265 6.02947 5.69173
#
# Compressibility (1/GPa) = 0.02944039
#
# Stress axis : x y z
#
# Youngs Moduli (GPa) = 57.44957 110.43777 46.77220
#
# Poissons Ratio (x) = 0.09222 0.13266
# Poissons Ratio (y) = 0.04797 0.25861
# Poissons Ratio (z) = 0.16295 0.61063
#
# Static dielectric constant tensor:
#      x y z
#    x 1.845930 0.000000 0.000000 
#    y 0.000000 1.805790 0.000000 
#    z 0.000000 0.000000 1.780500 
# 
# From -- ./inp_files/42889.got.cif
#   From: 2010.05.17/outbox.cif.g08.bks.cpg/sg68_22_cif.got.tgz:42889.got - 2010.06.03 18:57:09.
