data_PCOD9507622
_publ_section_title
;
Structure prediction by ZEFSAII (Michael W. Deem and Ramdas Pophale) SiO2 
 PCOD9507622
Probable space group: C C C A
;
_chemical_formula_sum "Si O2"
_cell_formula_units_Z 112
_cell_length_a 14.205372
_cell_length_b 23.760833
_cell_length_c 15.248727
_cell_angle_alpha 90.000000
_cell_angle_beta 90.000000
_cell_angle_gamma 90.000000
_cell_volume 5146.925267
_symmetry_space_group_name_H-M "C C C A"
_symmetry_group_IT_number 68
_space_group.IT_coordinate_system_code '2'
_symmetry_cell_setting 'orthorhombic'
loop_
_space_group_symop_operation_xyz
x,y,z
-x,1/2-y,z
x,1/2-y,1/2-z
-x,y,1/2-z
-x,-y,-z
x,1/2+y,-z
-x,1/2+y,1/2+z
x,-y,1/2+z
1/2+x,1/2+y,z
1/2-x,-y,z
1/2+x,-y,1/2-z
1/2-x,1/2+y,1/2-z
1/2-x,1/2-y,-z
1/2+x,y,-z
1/2-x,y,1/2+z
1/2+x,1/2-y,1/2+z
loop_
_atom_site_type_symbol
_atom_site_label
_atom_site_fract_x
_atom_site_fract_y
_atom_site_fract_z
Si Si1 0.072795 0.114054 0.173567
Si Si2 0.474260 0.815323 0.469003
Si Si3 0.306654 0.112007 0.945154
Si Si4 0.177324 0.947121 0.308787
Si Si5 0.541558 0.686888 0.661915
Si Si6 0.216673 0.123209 0.650871
Si Si7 0.032407 0.518751 0.594899
O O1 0.180463 0.125076 0.193251
O O2 0.000000 0.128239 0.250000
O O3 0.045692 0.152095 0.091829
O O4 0.051055 0.049865 0.146799
O O5 0.500000 0.750000 0.466876
O O6 0.367248 0.830125 0.439298
O O7 0.485083 0.838361 0.568014
O O8 0.223548 0.098535 0.876651
O O9 0.386458 0.065696 0.922245
O O10 0.276378 0.107861 0.047642
O O11 0.165539 0.922789 0.211470
O O12 0.250000 0.000000 0.304880
O O13 0.081706 0.970088 0.350349
O O14 0.500000 0.750000 0.659773
O O15 0.500000 0.660817 0.750000
O O16 0.654305 0.679512 0.662091
O O17 0.000000 0.500000 0.500000
#
# Coordination Sequence:
#
# PCOD9507622 Si02
#       7
#    16  16  16  16  16  16  16
#     4  11  23  40  58  91 133 165 208 264 310 376
#     4   9  19  39  62  84 118 163 205 258 322 378
#     4   9  20  37  56  86 123 155 209 264 303 369
#     4  10  21  37  55  85 125 166 208 255 306 364
#     4   9  20  41  63  89 122 154 203 269 326 379
#     4  11  22  37  63  90 119 167 210 252 318 382
#     4  10  21  37  59  85 121 164 205 261 317 365
#
# _framework density 21.760565
#
# number of rings (size 3 to 8) (size 9 to 14) (size 15 to 20)
#    0.000    2.143    0.000    3.429    0.000    8.857 
#    0.000   12.143    0.000    0.000    0.000    0.000 
#    0.000    0.000    0.000    0.000    0.000    0.000 
#
# Total GULP energy -312606.281887 kJ/mol
# GULP energy per Si atom -5582.255034 kJ/mol
# Density = 2.171104 g / cm^3
# Si number density = 21.760565 Si / 1000 Ang^3
#
#
#
# Elastic Constant Matrix: (Units=GPa)
#
#
# Indices 1 2 3 4 5 6 
#
# 1 103.8008 38.8160 26.0282 0.0000 0.0000 0.0000
# 2 38.8160 69.0140 28.5330 0.0000 0.0000 0.0000
# 3 26.0282 28.5330 101.5024 0.0000 0.0000 0.0000
# 4 0.0000 0.0000 0.0000 17.2012 0.0000 0.0000
# 5 0.0000 0.0000 0.0000 0.0000 30.6800 0.0000
# 6 0.0000 0.0000 0.0000 0.0000 0.0000 28.0023
#
#
#
# Elastic Compliance Matrix: (Units=1/GPa)
#
#
# Indices 1 2 3 4 5 6 
#
# 1 0.012367 -0.006387 -0.001376 0.000000 0.000000 0.000000
# 2 -0.006387 0.019694 -0.003898 0.000000 0.000000 0.000000
# 3 -0.001376 -0.003898 0.011301 0.000000 0.000000 0.000000
# 4 0.000000 0.000000 0.000000 0.058136 0.000000 0.000000
# 5 0.000000 0.000000 0.000000 0.000000 0.032595 0.000000
# 6 0.000000 0.000000 0.000000 0.000000 0.000000 0.035711
#
#
# Mechanical properties :
#
#
# Convention : Reuss Voigt Hill
#
# Bulk Modulus (GPa) = 49.90164 51.23019 50.56591
# Shear Modulus (GPa) = 25.02438 27.23934 26.13186
#
# Velocity S-wave (km/s) = 3.39483 3.54188 3.46913
# Velocity P-wave (km/s) = 6.19261 6.34983 6.27171
#
# Compressibility (1/GPa) = 0.02003942
#
# Stress axis : x y z
#
# Youngs Moduli (GPa) = 80.85884 50.77757 88.49063
#
# Poissons Ratio (x) = 0.32431 0.12176
# Poissons Ratio (y) = 0.51644 0.34496
# Poissons Ratio (z) = 0.11126 0.19794
#
# Static dielectric constant tensor:
#      x y z
#    x 1.875790 0.000000 0.000000 
#    y 0.000000 1.870900 0.000000 
#    z 0.000000 0.000000 1.825320 
# 
# From -- ./inp_files/22581.got.cif
#   From: 2010.05.17/outbox.cif.g08.bks.cpg/sg68_12_cif.got.tgz:22581.got - 2010.06.03 18:57:09.
