data_PCOD9507598
_publ_section_title
;
Structure prediction by ZEFSAII (Michael W. Deem and Ramdas Pophale) SiO2 
 PCOD9507598
Probable space group: C C C A
;
_chemical_formula_sum "Si O2"
_cell_formula_units_Z 88
_cell_length_a 18.693470
_cell_length_b 18.092992
_cell_length_c 12.210663
_cell_angle_alpha 90.000000
_cell_angle_beta 90.000000
_cell_angle_gamma 90.000000
_cell_volume 4129.900247
_symmetry_space_group_name_H-M "C C C A"
_symmetry_group_IT_number 68
_space_group.IT_coordinate_system_code '2'
_symmetry_cell_setting 'orthorhombic'
loop_
_space_group_symop_operation_xyz
x,y,z
-x,1/2-y,z
x,1/2-y,1/2-z
-x,y,1/2-z
-x,-y,-z
x,1/2+y,-z
-x,1/2+y,1/2+z
x,-y,1/2+z
1/2+x,1/2+y,z
1/2-x,-y,z
1/2+x,-y,1/2-z
1/2-x,1/2+y,1/2-z
1/2-x,1/2-y,-z
1/2+x,y,-z
1/2-x,y,1/2+z
1/2+x,1/2-y,1/2+z
loop_
_atom_site_type_symbol
_atom_site_label
_atom_site_fract_x
_atom_site_fract_y
_atom_site_fract_z
Si Si1 0.750000 0.500000 0.308378
Si Si2 0.040375 0.682077 0.565614
Si Si3 0.570754 0.622169 0.893057
Si Si4 0.672852 0.750815 0.948320
Si Si5 0.645478 0.392235 0.179374
Si Si6 0.610928 0.541073 0.442629
O O1 0.708356 0.439684 0.235350
O O2 0.687469 0.535954 0.382174
O O3 0.116813 0.715109 0.534111
O O4 0.059095 0.601938 0.613974
O O5 0.000000 0.750000 0.623060
O O6 0.993120 0.664345 0.455568
O O7 0.641670 0.670776 0.919620
O O8 0.578840 0.613259 0.762672
O O9 0.577177 0.540038 0.940285
O O10 0.670043 0.809578 0.849806
O O11 0.750000 0.750000 0.000000
O O12 0.623598 0.432465 0.066874
#
# Coordination Sequence:
#
# PCOD9507598 Si02
#       6
#     8  16  16  16  16  16
#     4  10  22  36  60  92 130 160 220 258 320 390
#     4   9  20  39  61  89 125 167 207 260 319 376
#     4  10  21  39  60  93 122 163 212 261 316 383
#     4  10  22  36  61  92 126 163 208 260 326 377
#     4  10  22  36  60  92 124 166 205 264 318 373
#     4  10  21  36  62  91 124 162 210 259 320 371
#
# _framework density 21.308019999999999
#
# number of rings (size 3 to 8) (size 9 to 14) (size 15 to 20)
#    0.000    2.182    0.000    1.636   12.727    2.909 
#    0.000    7.273    0.000    0.000    9.455    0.000 
#    0.000    0.000    0.000    0.000    0.000    0.000 
#
# Total GULP energy -245507.564612 kJ/mol
# GULP energy per Si atom -5579.717378 kJ/mol
# Density = 2.125952 g / cm^3
# Si number density = 21.308020 Si / 1000 Ang^3
#
#
#
# Elastic Constant Matrix: (Units=GPa)
#
#
# Indices 1 2 3 4 5 6 
#
# 1 141.9804 53.7777 24.3074 0.0000 0.0000 0.0000
# 2 53.7777 183.8534 35.1687 0.0000 0.0000 0.0000
# 3 24.3074 35.1687 61.8569 0.0000 0.0000 0.0000
# 4 0.0000 0.0000 0.0000 30.9042 0.0000 0.0000
# 5 0.0000 0.0000 0.0000 0.0000 13.4917 0.0000
# 6 0.0000 0.0000 0.0000 0.0000 0.0000 42.9496
#
#
#
# Elastic Compliance Matrix: (Units=1/GPa)
#
#
# Indices 1 2 3 4 5 6 
#
# 1 0.008151 -0.001988 -0.002073 0.000000 0.000000 0.000000
# 2 -0.001988 0.006588 -0.002964 0.000000 0.000000 0.000000
# 3 -0.002073 -0.002964 0.018666 0.000000 0.000000 0.000000
# 4 0.000000 0.000000 0.000000 0.032358 0.000000 0.000000
# 5 0.000000 0.000000 0.000000 0.000000 0.074119 0.000000
# 6 0.000000 0.000000 0.000000 0.000000 0.000000 0.023283
#
#
# Mechanical properties :
#
#
# Convention : Reuss Voigt Hill
#
# Bulk Modulus (GPa) = 51.66610 68.24426 59.95518
# Shear Modulus (GPa) = 27.22320 35.76489 31.49405
#
# Velocity S-wave (km/s) = 3.57824 4.10136 3.84870
# Velocity P-wave (km/s) = 6.43208 7.38412 6.92448
#
# Compressibility (1/GPa) = 0.01935505
#
# Stress axis : x y z
#
# Youngs Moduli (GPa) = 122.68458 151.80177 53.57258
#
# Poissons Ratio (x) = 0.30173 0.11105
# Poissons Ratio (y) = 0.24386 0.15880
# Poissons Ratio (z) = 0.25432 0.44998
#
# Static dielectric constant tensor:
#      x y z
#    x 1.770380 0.000000 0.000000 
#    y 0.000000 1.814310 0.000000 
#    z 0.000000 0.000000 1.793700 
# 
# From -- ./inp_files/15431.got.cif
#   From: 2010.05.17/outbox.cif.g08.bks.cpg/sg68_8_cif.got.tgz:15431.got - 2010.06.03 18:57:09.
