data_PCOD9507219
_publ_section_title
;
Structure prediction by ZEFSAII (Michael W. Deem and Ramdas Pophale) SiO2 
 PCOD9507219
Probable space group: C C C A
;
_chemical_formula_sum "Si O2"
_cell_formula_units_Z 96
_cell_length_a 21.531221
_cell_length_b 14.122386
_cell_length_c 14.155407
_cell_angle_alpha 90.000000
_cell_angle_beta 90.000000
_cell_angle_gamma 90.000000
_cell_volume 4304.265947
_symmetry_space_group_name_H-M "C C C A"
_symmetry_group_IT_number 68
_space_group.IT_coordinate_system_code '2'
_symmetry_cell_setting 'orthorhombic'
loop_
_space_group_symop_operation_xyz
x,y,z
-x,1/2-y,z
x,1/2-y,1/2-z
-x,y,1/2-z
-x,-y,-z
x,1/2+y,-z
-x,1/2+y,1/2+z
x,-y,1/2+z
1/2+x,1/2+y,z
1/2-x,-y,z
1/2+x,-y,1/2-z
1/2-x,1/2+y,1/2-z
1/2-x,1/2-y,-z
1/2+x,y,-z
1/2-x,y,1/2+z
1/2+x,1/2-y,1/2+z
loop_
_atom_site_type_symbol
_atom_site_label
_atom_site_fract_x
_atom_site_fract_y
_atom_site_fract_z
Si Si1 0.913997 0.856410 0.092961
Si Si2 0.342373 0.636901 0.244835
Si Si3 0.500000 0.394625 0.250000
Si Si4 0.000000 0.250000 0.039062
Si Si5 0.197516 0.357728 0.717922
Si Si6 0.613299 0.024616 0.359967
Si Si7 0.422265 0.927759 0.433008
O O1 0.841776 0.864178 0.120369
O O2 0.953292 0.834510 0.186575
O O3 0.938709 0.961216 0.068852
O O4 0.938505 0.781449 0.018639
O O5 0.352690 0.750000 0.250000
O O6 0.270029 0.618847 0.221684
O O7 0.365941 0.584216 0.340640
O O8 0.378544 0.592696 0.156152
O O9 0.453691 0.457970 0.312754
O O10 0.023570 0.349763 0.080969
O O11 0.192191 0.250000 0.750000
O O12 0.162189 0.420344 0.794717
O O13 0.610366 0.071483 0.463496
#
# Coordination Sequence:
#
# PCOD9507219 Si02
#       7
#    16  16   8   8  16  16  16
#     4  11  24  42  71  98 141 181 232 292 357 415
#     4  11  26  49  70 102 146 191 240 291 362 431
#     4  10  20  39  67  94 134 176 230 283 347 408
#     4  12  26  41  67 106 140 178 242 292 346 440
#     4  10  22  46  70  99 138 184 237 296 352 421
#     4  11  23  44  70 104 138 184 239 290 355 423
#     4  12  26  45  71 106 143 189 235 293 365 430
#
# _framework density 22.303455
#
# number of rings (size 3 to 8) (size 9 to 14) (size 15 to 20)
#    0.000    1.000    5.000    2.000    4.667    0.000 
#    6.000    2.500    0.000    0.000    0.000    0.000 
#    0.000    0.000    0.000    0.000    0.000    0.000 
#
# Total GULP energy -267852.735969 kJ/mol
# GULP energy per Si atom -5580.265333 kJ/mol
# Density = 2.225269 g / cm^3
# Si number density = 22.303455 Si / 1000 Ang^3
#
#
#
# Elastic Constant Matrix: (Units=GPa)
#
#
# Indices 1 2 3 4 5 6 
#
# 1 84.9740 22.4710 16.9223 0.0000 0.0000 0.0000
# 2 22.4710 119.4813 15.4639 0.0000 0.0000 0.0000
# 3 16.9223 15.4639 52.0739 0.0000 0.0000 0.0000
# 4 0.0000 0.0000 0.0000 28.1552 0.0000 0.0000
# 5 0.0000 0.0000 0.0000 0.0000 16.4998 0.0000
# 6 0.0000 0.0000 0.0000 0.0000 0.0000 24.3356
#
#
#
# Elastic Compliance Matrix: (Units=1/GPa)
#
#
# Indices 1 2 3 4 5 6 
#
# 1 0.013016 -0.001977 -0.003643 0.000000 0.000000 0.000000
# 2 -0.001977 0.009004 -0.002032 0.000000 0.000000 0.000000
# 3 -0.003643 -0.002032 0.020991 0.000000 0.000000 0.000000
# 4 0.000000 0.000000 0.000000 0.035517 0.000000 0.000000
# 5 0.000000 0.000000 0.000000 0.000000 0.060607 0.000000
# 6 0.000000 0.000000 0.000000 0.000000 0.000000 0.041092
#
#
# Mechanical properties :
#
#
# Convention : Reuss Voigt Hill
#
# Bulk Modulus (GPa) = 36.08921 40.69374 38.39147
# Shear Modulus (GPa) = 24.41813 27.24293 25.83053
#
# Velocity S-wave (km/s) = 3.31239 3.49874 3.40684
# Velocity P-wave (km/s) = 5.55386 5.88274 5.72066
#
# Compressibility (1/GPa) = 0.02770911
#
# Stress axis : x y z
#
# Youngs Moduli (GPa) = 76.82570 111.05949 47.64031
#
# Poissons Ratio (x) = 0.21951 0.17355
# Poissons Ratio (y) = 0.15185 0.09679
# Poissons Ratio (z) = 0.27987 0.22563
#
# Static dielectric constant tensor:
#      x y z
#    x 1.816680 0.000000 0.000000 
#    y 0.000000 1.906070 0.000000 
#    z 0.000000 0.000000 1.890580 
# 
# From -- ./inp_files/24497.got.cif
#   From: 2010.05.17/outbox.cif.g08.bks.cpg/sg68_13_cif.got.tgz:24497.got - 2010.06.03 18:57:09.
