data_PCOD9507586
_publ_section_title
;
Structure prediction by ZEFSAII (Michael W. Deem and Ramdas Pophale) SiO2 
 PCOD9507586
Probable space group: C C C A
;
_chemical_formula_sum "Si O2"
_cell_formula_units_Z 104
_cell_length_a 21.216553
_cell_length_b 27.976281
_cell_length_c 8.576943
_cell_angle_alpha 90.000000
_cell_angle_beta 90.000000
_cell_angle_gamma 90.000000
_cell_volume 5090.932419
_symmetry_space_group_name_H-M "C C C A"
_symmetry_group_IT_number 68
_space_group.IT_coordinate_system_code '2'
_symmetry_cell_setting 'orthorhombic'
loop_
_space_group_symop_operation_xyz
x,y,z
-x,1/2-y,z
x,1/2-y,1/2-z
-x,y,1/2-z
-x,-y,-z
x,1/2+y,-z
-x,1/2+y,1/2+z
x,-y,1/2+z
1/2+x,1/2+y,z
1/2-x,-y,z
1/2+x,-y,1/2-z
1/2-x,1/2+y,1/2-z
1/2-x,1/2-y,-z
1/2+x,y,-z
1/2-x,y,1/2+z
1/2+x,1/2-y,1/2+z
loop_
_atom_site_type_symbol
_atom_site_label
_atom_site_fract_x
_atom_site_fract_y
_atom_site_fract_z
Si Si1 0.398555 0.502449 0.303371
Si Si2 0.318705 0.260931 0.567203
Si Si3 0.308466 0.465337 0.551165
Si Si4 0.035316 0.595948 0.915307
Si Si5 0.500000 0.076493 0.250000
Si Si6 0.842652 0.660719 0.527056
Si Si7 0.279908 0.141616 0.860745
O O1 0.336220 0.483493 0.388957
O O2 0.370415 0.529985 0.157376
O O3 0.441092 0.540871 0.395477
O O4 0.439497 0.457771 0.252586
O O5 0.317059 0.250000 0.750000
O O6 0.250000 0.250000 0.500000
O O7 0.361198 0.216908 0.509164
O O8 0.322982 0.318006 0.552110
O O9 0.250000 0.500000 0.590880
O O10 0.289575 0.410680 0.569950
O O11 0.096881 0.628206 0.945536
O O12 0.000000 0.607423 0.750000
O O13 0.998209 0.601306 0.079553
O O14 0.794445 0.651233 0.385700
O O15 0.800115 0.648335 0.680826
#
# Coordination Sequence:
#
# PCOD9507586 Si02
#       7
#    16  16  16  16   8  16  16
#     4  12  23  42  58  83 125 171 222 269 311 391
#     4   8  16  34  58  86 123 155 200 249 310 390
#     4  12  25  36  57  91 134 166 206 260 336 394
#     4  12  24  43  64  94 128 172 227 278 321 384
#     4  12  26  42  66  88 123 179 236 272 314 380
#     4  10  21  38  62  96 127 157 212 265 327 401
#     4  10  21  36  60  91 129 166 199 256 330 396
#
# _framework density 20.428477999999998
#
# number of rings (size 3 to 8) (size 9 to 14) (size 15 to 20)
#    0.000    1.231    3.846    2.769    2.154    0.000 
#    0.000    0.000    0.000    4.154    0.000    1.077 
#    0.000    0.000    0.000    0.000    0.000    0.000 
#
# Total GULP energy -289560.701962 kJ/mol
# GULP energy per Si atom -5568.475038 kJ/mol
# Density = 2.038198 g / cm^3
# Si number density = 20.428478 Si / 1000 Ang^3
#
#
#
# Elastic Constant Matrix: (Units=GPa)
#
#
# Indices 1 2 3 4 5 6 
#
# 1 55.8791 12.9972 35.1758 0.0000 0.0000 0.0000
# 2 12.9972 113.6194 12.1141 0.0000 0.0000 0.0000
# 3 35.1758 12.1141 72.4104 0.0000 0.0000 0.0000
# 4 0.0000 0.0000 0.0000 -11.0532 0.0000 0.0000
# 5 0.0000 0.0000 0.0000 0.0000 37.0898 0.0000
# 6 0.0000 0.0000 0.0000 0.0000 0.0000 19.5437
#
#
#
# Elastic Compliance Matrix: (Units=1/GPa)
#
#
# Indices 1 2 3 4 5 6 
#
# 1 0.026084 -0.001662 -0.012393 0.000000 0.000000 0.000000
# 2 -0.001662 0.009067 -0.000709 0.000000 0.000000 0.000000
# 3 -0.012393 -0.000709 0.019949 0.000000 0.000000 0.000000
# 4 0.000000 0.000000 0.000000 -0.090471 0.000000 0.000000
# 5 0.000000 0.000000 0.000000 0.000000 0.026962 0.000000
# 6 0.000000 0.000000 0.000000 0.000000 0.000000 0.051167
#
#
# Mechanical properties :
#
#
# Convention : Reuss Voigt Hill
#
# Bulk Modulus (GPa) = 39.10743 40.27590 39.69167
# Shear Modulus (GPa) = 61.87298 21.22418 41.54858
#
# Velocity S-wave (km/s) = 5.50939 3.22677 4.51472
# Velocity P-wave (km/s) = 7.72375 5.80010 6.82999
#
# Compressibility (1/GPa) = 0.02557059
#
# Stress axis : x y z
#
# Youngs Moduli (GPa) = 38.33801 110.28871 50.12751
#
# Poissons Ratio (x) = 0.18335 0.62123
# Poissons Ratio (y) = 0.06373 0.03556
# Poissons Ratio (z) = 0.47512 0.07823
#
# Static dielectric constant tensor:
#      x y z
#    x 1.709450 0.000000 0.000000 
#    y 0.000000 1.777190 0.000000 
#    z 0.000000 0.000000 1.827980 
# 
# From -- ./inp_files/8310.got.cif
#   From: 2010.05.17/outbox.cif.g08.bks.cpg/sg68_5_cif.got.tgz:8310.got - 2010.06.03 18:57:09.
