data_PCOD9507300
_publ_section_title
;
Structure prediction by ZEFSAII (Michael W. Deem and Ramdas Pophale) SiO2 
 PCOD9507300
Probable space group: C C C A
;
_chemical_formula_sum "Si O2"
_cell_formula_units_Z 88
_cell_length_a 28.407974
_cell_length_b 8.903359
_cell_length_c 16.606303
_cell_angle_alpha 90.000000
_cell_angle_beta 90.000000
_cell_angle_gamma 90.000000
_cell_volume 4200.172285
_symmetry_space_group_name_H-M "C C C A"
_symmetry_group_IT_number 68
_space_group.IT_coordinate_system_code '2'
_symmetry_cell_setting 'orthorhombic'
loop_
_space_group_symop_operation_xyz
x,y,z
-x,1/2-y,z
x,1/2-y,1/2-z
-x,y,1/2-z
-x,-y,-z
x,1/2+y,-z
-x,1/2+y,1/2+z
x,-y,1/2+z
1/2+x,1/2+y,z
1/2-x,-y,z
1/2+x,-y,1/2-z
1/2-x,1/2+y,1/2-z
1/2-x,1/2-y,-z
1/2+x,y,-z
1/2-x,y,1/2+z
1/2+x,1/2-y,1/2+z
loop_
_atom_site_type_symbol
_atom_site_label
_atom_site_fract_x
_atom_site_fract_y
_atom_site_fract_z
Si Si1 0.528147 0.401592 0.569147
Si Si2 0.319047 0.111672 0.990897
Si Si3 0.241351 0.250000 0.750000
Si Si4 0.250000 0.000000 0.360535
Si Si5 0.050377 0.692239 0.341352
Si Si6 0.250000 0.500000 0.872373
Si Si7 0.383375 0.356894 0.036845
O O1 0.500000 0.250000 0.592011
O O2 0.500000 0.500000 0.500000
O O3 0.544266 0.515255 0.640419
O O4 0.576206 0.347451 0.528952
O O5 0.335055 0.277399 0.012350
O O6 0.292835 0.049459 0.070300
O O7 0.283186 0.094953 0.918233
O O8 0.366790 0.028650 0.961953
O O9 0.219956 0.380555 0.692769
O O10 0.265352 0.362002 0.814465
O O11 0.053332 0.750000 0.250000
O O12 0.093472 0.770652 0.388022
O O13 0.000000 0.750000 0.373877
#
# Coordination Sequence:
#
# PCOD9507300 Si02
#       7
#    16  16   8   8  16   8  16
#     4  12  20  40  72  97 126 172 222 268 327 407
#     4  11  23  39  64  91 129 167 223 272 313 393
#     4  10  20  40  66  86 118 166 222 256 332 396
#     4  10  22  42  60  90 124 172 214 262 328 388
#     4  11  24  44  66  95 139 172 210 271 343 396
#     4  10  22  42  62  90 126 176 216 266 332 388
#     4  12  21  38  66  99 122 168 220 268 321 386
#
# _framework density 20.951522000000001
#
# number of rings (size 3 to 8) (size 9 to 14) (size 15 to 20)
#    0.000    0.909    5.455    2.182    0.000    2.909 
#    9.818    1.818    0.000    0.000    0.000    0.000 
#    0.000    0.000    0.000    0.000    0.000    0.000 
#
# Total GULP energy -244999.092849 kJ/mol
# GULP energy per Si atom -5568.161201 kJ/mol
# Density = 2.090384 g / cm^3
# Si number density = 20.951522 Si / 1000 Ang^3
#
#
#
# Elastic Constant Matrix: (Units=GPa)
#
#
# Indices 1 2 3 4 5 6 
#
# 1 60.4056 6.5105 21.7569 0.0000 0.0000 0.0000
# 2 6.5105 112.1713 62.1749 0.0000 0.0000 0.0000
# 3 21.7569 62.1749 110.5416 0.0000 0.0000 0.0000
# 4 0.0000 0.0000 0.0000 18.3499 0.0000 0.0000
# 5 0.0000 0.0000 0.0000 0.0000 14.8036 0.0000
# 6 0.0000 0.0000 0.0000 0.0000 0.0000 45.3084
#
#
#
# Elastic Compliance Matrix: (Units=1/GPa)
#
#
# Indices 1 2 3 4 5 6 
#
# 1 0.017954 0.001332 -0.004283 0.000000 0.000000 0.000000
# 2 0.001332 0.013052 -0.007603 0.000000 0.000000 0.000000
# 3 -0.004283 -0.007603 0.014166 0.000000 0.000000 0.000000
# 4 0.000000 0.000000 0.000000 0.054496 0.000000 0.000000
# 5 0.000000 0.000000 0.000000 0.000000 0.067551 0.000000
# 6 0.000000 0.000000 0.000000 0.000000 0.000000 0.022071
#
#
# Mechanical properties :
#
#
# Convention : Reuss Voigt Hill
#
# Bulk Modulus (GPa) = 41.55739 51.55591 46.55665
# Shear Modulus (GPa) = 22.89169 28.53744 25.71457
#
# Velocity S-wave (km/s) = 3.30904 3.69463 3.50714
# Velocity P-wave (km/s) = 5.87178 6.54683 6.21847
#
# Compressibility (1/GPa) = 0.02406311
#
# Stress axis : x y z
#
# Youngs Moduli (GPa) = 55.69856 76.61613 70.59213
#
# Poissons Ratio (x) = -0.10204 0.30233
# Poissons Ratio (y) = -0.07418 0.53674
# Poissons Ratio (z) = 0.23855 0.58254
#
# Static dielectric constant tensor:
#      x y z
#    x 1.753420 0.000000 0.000000 
#    y 0.000000 1.890510 0.000000 
#    z 0.000000 0.000000 1.778640 
# 
# From -- ./inp_files/34386.got.cif
#   From: 2010.05.17/outbox.cif.g08.bks.cpg/sg68_18_cif.got.tgz:34386.got - 2010.06.03 18:57:09.
