data_PCOD9507650
_publ_section_title
;
Structure prediction by ZEFSAII (Michael W. Deem and Ramdas Pophale) SiO2 
 PCOD9507650
Probable space group: C C C A
;
_chemical_formula_sum "Si O2"
_cell_formula_units_Z 100
_cell_length_a 29.519493
_cell_length_b 11.503168
_cell_length_c 15.970866
_cell_angle_alpha 90.000000
_cell_angle_beta 90.000000
_cell_angle_gamma 90.000000
_cell_volume 5423.190031
_symmetry_space_group_name_H-M "C C C A"
_symmetry_group_IT_number 68
_space_group.IT_coordinate_system_code '2'
_symmetry_cell_setting 'orthorhombic'
loop_
_space_group_symop_operation_xyz
x,y,z
-x,1/2-y,z
x,1/2-y,1/2-z
-x,y,1/2-z
-x,-y,-z
x,1/2+y,-z
-x,1/2+y,1/2+z
x,-y,1/2+z
1/2+x,1/2+y,z
1/2-x,-y,z
1/2+x,-y,1/2-z
1/2-x,1/2+y,1/2-z
1/2-x,1/2-y,-z
1/2+x,y,-z
1/2-x,y,1/2+z
1/2+x,1/2-y,1/2+z
loop_
_atom_site_type_symbol
_atom_site_label
_atom_site_fract_x
_atom_site_fract_y
_atom_site_fract_z
Si Si1 0.445927 0.122874 0.894607
Si Si2 0.187851 0.590661 0.372480
Si Si3 0.289383 0.824880 0.161505
Si Si4 0.500000 0.250000 0.750000
Si Si5 0.913699 0.138883 0.598749
Si Si6 0.500000 0.750000 0.976350
Si Si7 0.368864 0.250000 0.250000
Si Si8 0.855252 0.721419 0.975466
O O1 0.467489 0.171085 0.808736
O O2 0.400402 0.190114 0.923044
O O3 0.430719 0.991260 0.899927
O O4 0.485201 0.146370 0.962417
O O5 0.238236 0.646125 0.368396
O O6 0.189155 0.456104 0.342004
O O7 0.160520 0.664652 0.305598
O O8 0.163752 0.620715 0.461738
O O9 0.290155 0.750000 0.250000
O O10 0.316514 0.754798 0.090351
O O11 0.898241 0.171441 0.690202
O O12 0.872767 0.173134 0.535446
O O13 0.956213 0.218424 0.575408
#
# Coordination Sequence:
#
# PCOD9507650 Si02
#       8
#    16  16  16   4  16   8   8  16
#     4  10  21  38  58  85 117 159 193 258 300 359
#     4  10  22  43  58  90 129 158 203 258 305 373
#     4  11  23  39  65  94 120 163 207 255 312 370
#     4  10  24  36  54  88 128 150 210 258 310 356
#     4  10  21  37  60  83 116 159 200 246 305 362
#     4   9  20  38  56  83 114 148 204 241 305 365
#     4  10  22  37  57  86 122 158 201 255 306 354
#     4  10  22  39  63  89 121 161 208 247 310 374
#
# _framework density 18.439332
#
# number of rings (size 3 to 8) (size 9 to 14) (size 15 to 20)
#    0.000    1.920    0.800    1.920    3.360    1.600 
#    0.000    4.800    0.000    0.000    0.000    0.000 
#    0.000    0.000    0.000    0.000    0.000    0.000 
#
# Total GULP energy -278525.519889 kJ/mol
# GULP energy per Si atom -5570.510398 kJ/mol
# Density = 1.839736 g / cm^3
# Si number density = 18.439332 Si / 1000 Ang^3
#
#
#
# Elastic Constant Matrix: (Units=GPa)
#
#
# Indices 1 2 3 4 5 6 
#
# 1 68.4881 16.2934 39.3608 0.0000 0.0000 0.0000
# 2 16.2934 77.2392 22.9543 0.0000 0.0000 0.0000
# 3 39.3608 22.9543 86.0766 0.0000 0.0000 0.0000
# 4 0.0000 0.0000 0.0000 18.3007 0.0000 0.0000
# 5 0.0000 0.0000 0.0000 0.0000 31.7473 0.0000
# 6 0.0000 0.0000 0.0000 0.0000 0.0000 28.1696
#
#
#
# Elastic Compliance Matrix: (Units=1/GPa)
#
#
# Indices 1 2 3 4 5 6 
#
# 1 0.019993 -0.001630 -0.008708 0.000000 0.000000 0.000000
# 2 -0.001630 0.014194 -0.003040 0.000000 0.000000 0.000000
# 3 -0.008708 -0.003040 0.016410 0.000000 0.000000 0.000000
# 4 0.000000 0.000000 0.000000 0.054643 0.000000 0.000000
# 5 0.000000 0.000000 0.000000 0.000000 0.031499 0.000000
# 6 0.000000 0.000000 0.000000 0.000000 0.000000 0.035499
#
#
# Mechanical properties :
#
#
# Convention : Reuss Voigt Hill
#
# Bulk Modulus (GPa) = 41.94200 43.22452 42.58326
# Shear Modulus (GPa) = 24.16150 25.85652 25.00901
#
# Velocity S-wave (km/s) = 3.62377 3.74872 3.68677
# Velocity P-wave (km/s) = 6.34856 6.49843 6.42393
#
# Compressibility (1/GPa) = 0.02384245
#
# Stress axis : x y z
#
# Youngs Moduli (GPa) = 50.01678 70.45231 60.93792
#
# Poissons Ratio (x) = 0.11481 0.53064
# Poissons Ratio (y) = 0.08151 0.18525
# Poissons Ratio (z) = 0.43554 0.21417
#
# Static dielectric constant tensor:
#      x y z
#    x 1.639480 0.000000 0.000000 
#    y 0.000000 2.335470 0.000000 
#    z 0.000000 0.000000 1.629210 
# 
# From -- ./inp_files/21231.got.cif
#   From: 2010.05.17/outbox.cif.g08.bks.cpg/sg68_11_cif.got.tgz:21231.got - 2010.06.03 18:57:09.
