data_PCOD9507496
_publ_section_title
;
Structure prediction by ZEFSAII (Michael W. Deem and Ramdas Pophale) SiO2 
 PCOD9507496
Probable space group: C C C A
;
_chemical_formula_sum "Si O2"
_cell_formula_units_Z 96
_cell_length_a 16.095387
_cell_length_b 11.620911
_cell_length_c 23.892147
_cell_angle_alpha 90.000000
_cell_angle_beta 90.000000
_cell_angle_gamma 90.000000
_cell_volume 4468.860281
_symmetry_space_group_name_H-M "C C C A"
_symmetry_group_IT_number 68
_space_group.IT_coordinate_system_code '2'
_symmetry_cell_setting 'orthorhombic'
loop_
_space_group_symop_operation_xyz
x,y,z
-x,1/2-y,z
x,1/2-y,1/2-z
-x,y,1/2-z
-x,-y,-z
x,1/2+y,-z
-x,1/2+y,1/2+z
x,-y,1/2+z
1/2+x,1/2+y,z
1/2-x,-y,z
1/2+x,-y,1/2-z
1/2-x,1/2+y,1/2-z
1/2-x,1/2-y,-z
1/2+x,y,-z
1/2-x,y,1/2+z
1/2+x,1/2-y,1/2+z
loop_
_atom_site_type_symbol
_atom_site_label
_atom_site_fract_x
_atom_site_fract_y
_atom_site_fract_z
Si Si1 0.228405 0.250000 0.750000
Si Si2 0.803160 0.357102 0.472100
Si Si3 0.913762 0.279521 0.839007
Si Si4 0.929076 0.662699 0.543122
Si Si5 0.250000 0.000000 0.197100
Si Si6 0.634431 0.433085 0.093409
Si Si7 0.881289 0.073997 0.568073
O O1 0.167089 0.224403 0.801376
O O2 0.266441 0.378678 0.767866
O O3 0.841713 0.232776 0.459436
O O4 0.812413 0.399143 0.537231
O O5 0.867243 0.441137 0.441651
O O6 0.712330 0.375919 0.445026
O O7 0.907678 0.185822 0.888794
O O8 0.912080 0.399684 0.870624
O O9 0.000000 0.250000 0.809939
O O10 0.918110 0.544659 0.576306
O O11 0.941940 0.624485 0.478876
O O12 0.000000 0.750000 0.561551
O O13 0.178468 0.969985 0.151690
#
# Coordination Sequence:
#
# PCOD9507496 Si02
#       7
#     8  16  16  16   8  16  16
#     4  10  25  44  70  90 117 148 210 268 325 358
#     4  10  21  35  55  88 125 163 203 237 287 357
#     4  11  23  40  62  86 116 158 203 254 310 367
#     4  11  22  33  54  87 129 164 198 236 291 365
#     4  10  22  46  66  94 112 158 204 266 316 368
#     4  10  22  37  61  83 126 163 199 244 305 364
#     4  10  21  34  55  83 116 161 199 245 281 350
#
# _framework density 21.481988000000001
#
# number of rings (size 3 to 8) (size 9 to 14) (size 15 to 20)
#    0.000    1.667    1.667    3.250    7.000    2.667 
#    0.000    0.000    0.000    0.000    0.000    0.000 
#    0.000    0.000    0.000    0.000    0.000    0.000 
#
# Total GULP energy -267336.082150 kJ/mol
# GULP energy per Si atom -5569.501711 kJ/mol
# Density = 2.143309 g / cm^3
# Si number density = 21.481988 Si / 1000 Ang^3
#
#
#
# Elastic Constant Matrix: (Units=GPa)
#
#
# Indices 1 2 3 4 5 6 
#
# 1 52.0915 21.8342 12.6998 0.0000 0.0000 0.0000
# 2 21.8342 122.5475 35.5840 0.0000 0.0000 0.0000
# 3 12.6998 35.5840 81.7109 0.0000 0.0000 0.0000
# 4 0.0000 0.0000 0.0000 -56.4604 0.0000 0.0000
# 5 0.0000 0.0000 0.0000 0.0000 12.6751 0.0000
# 6 0.0000 0.0000 0.0000 0.0000 0.0000 41.9052
#
#
#
# Elastic Compliance Matrix: (Units=1/GPa)
#
#
# Indices 1 2 3 4 5 6 
#
# 1 0.020993 -0.003197 -0.001871 0.000000 0.000000 0.000000
# 2 -0.003197 0.009828 -0.003783 0.000000 0.000000 0.000000
# 3 -0.001871 -0.003783 0.014176 0.000000 0.000000 0.000000
# 4 0.000000 0.000000 0.000000 -0.017712 0.000000 0.000000
# 5 0.000000 0.000000 0.000000 0.000000 0.078895 0.000000
# 6 0.000000 0.000000 0.000000 0.000000 0.000000 0.023863
#
#
# Mechanical properties :
#
#
# Convention : Reuss Voigt Hill
#
# Bulk Modulus (GPa) = 36.63517 44.06511 40.35014
# Shear Modulus (GPa) = 31.87865 12.03945 21.95905
#
# Velocity S-wave (km/s) = 3.85641 2.36994 3.20067
# Velocity P-wave (km/s) = 6.07620 5.29584 5.69939
#
# Compressibility (1/GPa) = 0.02729618
#
# Stress axis : x y z
#
# Youngs Moduli (GPa) = 47.63469 101.74753 70.53931
#
# Poissons Ratio (x) = 0.32531 0.13194
# Poissons Ratio (y) = 0.15230 0.26686
# Poissons Ratio (z) = 0.08910 0.38493
#
# Static dielectric constant tensor:
#      x y z
#    x 1.879560 0.000000 0.000000 
#    y 0.000000 1.552800 0.000000 
#    z 0.000000 0.000000 1.777210 
# 
# From -- ./inp_files/46026.got.cif
#   From: 2010.05.17/outbox.cif.g08.bks.cpg/sg68_24_cif.got.tgz:46026.got - 2010.06.03 18:57:09.
