data_PCOD9507546
_publ_section_title
;
Structure prediction by ZEFSAII (Michael W. Deem and Ramdas Pophale) SiO2 
 PCOD9507546
Probable space group: C C C A
;
_chemical_formula_sum "Si O2"
_cell_formula_units_Z 64
_cell_length_a 27.569502
_cell_length_b 4.969044
_cell_length_c 24.691632
_cell_angle_alpha 90.000000
_cell_angle_beta 90.000000
_cell_angle_gamma 90.000000
_cell_volume 3382.607125
_symmetry_space_group_name_H-M "C C C A"
_symmetry_group_IT_number 68
_space_group.IT_coordinate_system_code '2'
_symmetry_cell_setting 'orthorhombic'
loop_
_space_group_symop_operation_xyz
x,y,z
-x,1/2-y,z
x,1/2-y,1/2-z
-x,y,1/2-z
-x,-y,-z
x,1/2+y,-z
-x,1/2+y,1/2+z
x,-y,1/2+z
1/2+x,1/2+y,z
1/2-x,-y,z
1/2+x,-y,1/2-z
1/2-x,1/2+y,1/2-z
1/2-x,1/2-y,-z
1/2+x,y,-z
1/2-x,y,1/2+z
1/2+x,1/2-y,1/2+z
loop_
_atom_site_type_symbol
_atom_site_label
_atom_site_fract_x
_atom_site_fract_y
_atom_site_fract_z
Si Si1 0.944403 0.847889 0.191555
Si Si2 0.101483 0.631789 0.857997
Si Si3 0.804448 0.495993 0.209454
Si Si4 0.946105 0.807621 0.537414
O O1 0.924703 0.750000 0.250000
O O2 0.921937 0.662270 0.145380
O O3 0.000000 0.750000 0.191946
O O4 0.928986 0.154862 0.179712
O O5 0.154712 0.574401 0.834562
O O6 0.094104 0.744668 0.917944
O O7 0.812385 0.750000 0.250000
O O8 0.750000 0.500000 0.185573
O O9 0.805327 0.250000 0.250000
O O10 0.943212 0.604303 0.486805
O O11 0.000000 0.750000 0.562071
#
# Coordination Sequence:
#
# PCOD9507546 Si02
#       4
#    16  16  16  16
#     4  11  22  33  49  79 114 143 174 214 267 337
#     4  12  21  35  57  77 106 147 186 222 274 329
#     4  10  21  37  57  83 113 144 183 230 279 337
#     4  10  21  36  53  75 104 140 185 232 274 321
#
# _framework density 18.920316
#
# number of rings (size 3 to 8) (size 9 to 14) (size 15 to 20)
#    0.000    1.250    0.000    8.250    0.000    4.000 
#    0.000    0.000    0.000    1.500    0.000    0.000 
#    0.000    0.000    0.000    0.000    0.000    0.000 
#
# Total GULP energy -178478.826599 kJ/mol
# GULP energy per Si atom -5577.463331 kJ/mol
# Density = 1.887725 g / cm^3
# Si number density = 18.920316 Si / 1000 Ang^3
#
#
#
# Elastic Constant Matrix: (Units=GPa)
#
#
# Indices 1 2 3 4 5 6 
#
# 1 150.0223 17.3732 40.2494 0.0000 0.0000 0.0000
# 2 17.3732 99.5382 3.4845 0.0000 0.0000 0.0000
# 3 40.2494 3.4845 62.2167 0.0000 0.0000 0.0000
# 4 0.0000 0.0000 0.0000 15.2322 0.0000 0.0000
# 5 0.0000 0.0000 0.0000 0.0000 -14.6919 0.0000
# 6 0.0000 0.0000 0.0000 0.0000 0.0000 22.5596
#
#
#
# Elastic Compliance Matrix: (Units=1/GPa)
#
#
# Indices 1 2 3 4 5 6 
#
# 1 0.008218 -0.001251 -0.005246 0.000000 0.000000 0.000000
# 2 -0.001251 0.010256 0.000235 0.000000 0.000000 0.000000
# 3 -0.005246 0.000235 0.019454 0.000000 0.000000 0.000000
# 4 0.000000 0.000000 0.000000 0.065650 0.000000 0.000000
# 5 0.000000 0.000000 0.000000 0.000000 -0.068065 0.000000
# 6 0.000000 0.000000 0.000000 0.000000 0.000000 0.044327
#
#
# Mechanical properties :
#
#
# Convention : Reuss Voigt Hill
#
# Bulk Modulus (GPa) = 39.36479 48.22126 43.79303
# Shear Modulus (GPa) = 49.58671 21.33132 35.45902
#
# Velocity S-wave (km/s) = 5.12495 3.36136 4.33381
# Velocity P-wave (km/s) = 7.47468 6.37235 6.94542
#
# Compressibility (1/GPa) = 0.02540341
#
# Stress axis : x y z
#
# Youngs Moduli (GPa) = 121.68311 97.49935 51.40405
#
# Poissons Ratio (x) = 0.12194 0.26969
# Poissons Ratio (y) = 0.15219 -0.01206
# Poissons Ratio (z) = 0.63840 -0.02288
#
# Static dielectric constant tensor:
#      x y z
#    x 1.836410 0.000000 0.000000 
#    y 0.000000 1.583030 0.000000 
#    z 0.000000 0.000000 1.671880 
# 
# From -- ./inp_files/35047.got.cif
#   From: 2010.05.17/outbox.cif.g08.bks.cpg/sg68_18_cif.got.tgz:35047.got - 2010.06.03 18:57:09.
