data_PCOD9507894
_publ_section_title
;
Structure prediction by ZEFSAII (Michael W. Deem and Ramdas Pophale) SiO2 
 PCOD9507894
Probable space group: C C C A
;
_chemical_formula_sum "Si O2"
_cell_formula_units_Z 104
_cell_length_a 18.111359
_cell_length_b 14.846214
_cell_length_c 21.398544
_cell_angle_alpha 90.000000
_cell_angle_beta 90.000000
_cell_angle_gamma 90.000000
_cell_volume 5753.749890
_symmetry_space_group_name_H-M "C C C A"
_symmetry_group_IT_number 68
_space_group.IT_coordinate_system_code '2'
_symmetry_cell_setting 'orthorhombic'
loop_
_space_group_symop_operation_xyz
x,y,z
-x,1/2-y,z
x,1/2-y,1/2-z
-x,y,1/2-z
-x,-y,-z
x,1/2+y,-z
-x,1/2+y,1/2+z
x,-y,1/2+z
1/2+x,1/2+y,z
1/2-x,-y,z
1/2+x,-y,1/2-z
1/2-x,1/2+y,1/2-z
1/2-x,1/2-y,-z
1/2+x,y,-z
1/2-x,y,1/2+z
1/2+x,1/2-y,1/2+z
loop_
_atom_site_type_symbol
_atom_site_label
_atom_site_fract_x
_atom_site_fract_y
_atom_site_fract_z
Si Si1 0.466544 0.538161 0.065706
Si Si2 0.395867 0.559336 0.884031
Si Si3 0.070716 0.295192 0.989976
Si Si4 0.089172 0.643313 0.250848
Si Si5 0.326960 0.943356 0.867313
Si Si6 0.301868 0.669391 0.518383
Si Si7 0.250000 0.500000 0.941165
O O1 0.531555 0.504261 0.111550
O O2 0.389021 0.496122 0.090247
O O3 0.500000 0.500000 0.000000
O O4 0.450833 0.642734 0.049291
O O5 0.398434 0.636183 0.938217
O O6 0.388407 0.604199 0.817410
O O7 0.322227 0.506424 0.899576
O O8 0.120445 0.208698 0.004915
O O9 0.000000 0.250000 0.959157
O O10 0.105498 0.750000 0.250000
O O11 0.131486 0.590283 0.195299
O O12 0.000000 0.633173 0.250000
O O13 0.307817 0.855758 0.909049
O O14 0.250000 0.000000 0.858340
O O15 0.250000 0.750000 0.500000
O O16 0.267570 0.583186 0.485776
#
# Coordination Sequence:
#
# PCOD9507894 Si02
#       7
#    16  16  16  16  16  16   8
#     4  10  21  39  61  94 128 163 211 267 332 396
#     4  11  22  40  61  90 129 170 218 273 328 390
#     4  11  21  35  63  94 124 162 209 266 333 393
#     4  11  25  42  65  91 123 170 226 277 323 388
#     4  12  24  42  65  94 133 174 218 267 329 397
#     4  12  22  39  61  95 131 168 209 266 338 394
#     4  12  24  40  62  94 136 168 216 270 334 398
#
# _framework density 18.075168999999999
#
# number of rings (size 3 to 8) (size 9 to 14) (size 15 to 20)
#    0.000    0.769    3.846    6.462    3.231    0.000 
#    0.000    0.000    0.000    0.000    0.000    3.231 
#    0.000    0.000    0.000    0.000    0.000    0.000 
#
# Total GULP energy -289838.258117 kJ/mol
# GULP energy per Si atom -5573.812656 kJ/mol
# Density = 1.803403 g / cm^3
# Si number density = 18.075169 Si / 1000 Ang^3
#
#
#
# Elastic Constant Matrix: (Units=GPa)
#
#
# Indices 1 2 3 4 5 6 
#
# 1 126.8510 42.6458 38.3073 0.0000 0.0000 0.0000
# 2 42.6458 106.0254 46.7191 0.0000 0.0000 0.0000
# 3 38.3073 46.7191 105.9336 0.0000 0.0000 0.0000
# 4 0.0000 0.0000 0.0000 11.0862 0.0000 0.0000
# 5 0.0000 0.0000 0.0000 0.0000 7.7679 0.0000
# 6 0.0000 0.0000 0.0000 0.0000 0.0000 31.3072
#
#
#
# Elastic Compliance Matrix: (Units=1/GPa)
#
#
# Indices 1 2 3 4 5 6 
#
# 1 0.009503 -0.002865 -0.002173 0.000000 0.000000 0.000000
# 2 -0.002865 0.012570 -0.004508 0.000000 0.000000 0.000000
# 3 -0.002173 -0.004508 0.012214 0.000000 0.000000 0.000000
# 4 0.000000 0.000000 0.000000 0.090202 0.000000 0.000000
# 5 0.000000 0.000000 0.000000 0.000000 0.128735 0.000000
# 6 0.000000 0.000000 0.000000 0.000000 0.000000 0.031942
#
#
# Mechanical properties :
#
#
# Convention : Reuss Voigt Hill
#
# Bulk Modulus (GPa) = 65.80824 66.01715 65.91270
# Shear Modulus (GPa) = 16.16445 24.10811 20.13628
#
# Velocity S-wave (km/s) = 2.99371 3.65604 3.34133
# Velocity P-wave (km/s) = 6.95966 7.37734 7.17154
#
# Compressibility (1/GPa) = 0.01519566
#
# Stress axis : x y z
#
# Youngs Moduli (GPa) = 105.23533 79.55269 81.87527
#
# Poissons Ratio (x) = 0.22789 0.17790
# Poissons Ratio (y) = 0.30146 0.36908
# Poissons Ratio (z) = 0.22866 0.35861
#
# Static dielectric constant tensor:
#      x y z
#    x 1.598940 0.000000 0.000000 
#    y 0.000000 1.624020 0.000000 
#    z 0.000000 0.000000 1.615290 
# 
# From -- ./inp_files/39636.got.cif
#   From: 2010.05.17/outbox.cif.g08.bks.cpg/sg68_20_cif.got.tgz:39636.got - 2010.06.03 18:57:09.
