data_PCOD9507514
_publ_section_title
;
Structure prediction by ZEFSAII (Michael W. Deem and Ramdas Pophale) SiO2 
 PCOD9507514
Probable space group: C C C A
;
_chemical_formula_sum "Si O2"
_cell_formula_units_Z 104
_cell_length_a 7.553105
_cell_length_b 27.382501
_cell_length_c 26.431722
_cell_angle_alpha 90.000000
_cell_angle_beta 90.000000
_cell_angle_gamma 90.000000
_cell_volume 5466.685534
_symmetry_space_group_name_H-M "C C C A"
_symmetry_group_IT_number 68
_space_group.IT_coordinate_system_code '2'
_symmetry_cell_setting 'orthorhombic'
loop_
_space_group_symop_operation_xyz
x,y,z
-x,1/2-y,z
x,1/2-y,1/2-z
-x,y,1/2-z
-x,-y,-z
x,1/2+y,-z
-x,1/2+y,1/2+z
x,-y,1/2+z
1/2+x,1/2+y,z
1/2-x,-y,z
1/2+x,-y,1/2-z
1/2-x,1/2+y,1/2-z
1/2-x,1/2-y,-z
1/2+x,y,-z
1/2-x,y,1/2+z
1/2+x,1/2-y,1/2+z
loop_
_atom_site_type_symbol
_atom_site_label
_atom_site_fract_x
_atom_site_fract_y
_atom_site_fract_z
Si Si1 0.250000 0.500000 0.643055
Si Si2 0.267130 0.798705 0.564876
Si Si3 0.787811 0.398701 0.107362
Si Si4 0.124881 0.038791 0.531575
Si Si5 0.177871 0.587481 0.570532
Si Si6 0.184742 0.691598 0.052660
Si Si7 0.405799 0.462394 0.799768
O O1 0.260594 0.547582 0.607605
O O2 0.432095 0.491425 0.673235
O O3 0.210842 0.839968 0.604442
O O4 0.203254 0.812204 0.508229
O O5 0.221061 0.741544 0.570848
O O6 0.478912 0.802519 0.563628
O O7 0.618537 0.419879 0.075653
O O8 0.819098 0.423243 0.161839
O O9 0.967168 0.413179 0.077700
O O10 0.214184 0.068880 0.485954
O O11 0.250000 0.000000 0.559483
O O12 0.000000 0.000000 0.500000
O O13 0.240795 0.642539 0.576714
O O14 0.500000 0.440478 0.750000
O O15 0.250000 0.500000 0.785816
#
# Coordination Sequence:
#
# PCOD9507514 Si02
#       7
#     8  16  16  16  16  16  16
#     4  10  24  40  58  94 120 162 204 242 312 394
#     4  10  21  35  52  79 114 164 215 245 291 355
#     4  11  24  37  57  87 115 163 210 252 308 373
#     4  12  23  33  46  77 123 162 194 234 290 362
#     4  11  22  34  54  81 120 163 203 240 289 368
#     4  10  21  35  52  76 120 168 206 247 286 351
#     4  11  24  44  66  88 123 158 207 271 328 383
#
# _framework density 19.024322999999999
#
# number of rings (size 3 to 8) (size 9 to 14) (size 15 to 20)
#    0.000    1.231    4.615    1.385    6.462    1.846 
#    0.000    0.000    0.000    0.000    0.000    8.615 
#    0.000   11.077    0.000    0.000    0.000    0.000 
#
# Total GULP energy -289779.726240 kJ/mol
# GULP energy per Si atom -5572.687043 kJ/mol
# Density = 1.898102 g / cm^3
# Si number density = 19.024323 Si / 1000 Ang^3
#
#
#
# Elastic Constant Matrix: (Units=GPa)
#
#
# Indices 1 2 3 4 5 6 
#
# 1 63.5985 28.4415 20.0587 0.0000 0.0000 0.0000
# 2 28.4415 160.8781 43.2623 0.0000 0.0000 0.0000
# 3 20.0587 43.2623 86.6875 0.0000 0.0000 0.0000
# 4 0.0000 0.0000 0.0000 14.1531 0.0000 0.0000
# 5 0.0000 0.0000 0.0000 0.0000 26.6306 0.0000
# 6 0.0000 0.0000 0.0000 0.0000 0.0000 31.0573
#
#
#
# Elastic Compliance Matrix: (Units=1/GPa)
#
#
# Indices 1 2 3 4 5 6 
#
# 1 0.017693 -0.002341 -0.002926 0.000000 0.000000 0.000000
# 2 -0.002341 0.007489 -0.003196 0.000000 0.000000 0.000000
# 3 -0.002926 -0.003196 0.013808 0.000000 0.000000 0.000000
# 4 0.000000 0.000000 0.000000 0.070656 0.000000 0.000000
# 5 0.000000 0.000000 0.000000 0.000000 0.037551 0.000000
# 6 0.000000 0.000000 0.000000 0.000000 0.000000 0.032199
#
#
# Mechanical properties :
#
#
# Convention : Reuss Voigt Hill
#
# Bulk Modulus (GPa) = 45.32126 54.96546 50.14336
# Shear Modulus (GPa) = 24.54882 28.99498 26.77190
#
# Velocity S-wave (km/s) = 3.59610 3.90821 3.75540
# Velocity P-wave (km/s) = 6.41226 7.02285 6.72449
#
# Compressibility (1/GPa) = 0.02206470
#
# Stress axis : x y z
#
# Youngs Moduli (GPa) = 56.51819 133.52577 72.42410
#
# Poissons Ratio (x) = 0.31262 0.21189
# Poissons Ratio (y) = 0.13232 0.23145
# Poissons Ratio (z) = 0.16535 0.42672
#
# Static dielectric constant tensor:
#      x y z
#    x 1.836680 0.000000 0.000000 
#    y 0.000000 1.719010 0.000000 
#    z 0.000000 0.000000 1.651580 
# 
# From -- ./inp_files/49700.got.cif
#   From: 2010.05.17/outbox.cif.g08.bks.cpg/sg68_25_cif.got.tgz:49700.got - 2010.06.03 18:57:09.
