data_PCOD9507134
_publ_section_title
;
Structure prediction by ZEFSAII (Michael W. Deem and Ramdas Pophale) SiO2 
 PCOD9507134
Probable space group: C C C A
;
_chemical_formula_sum "Si O2"
_cell_formula_units_Z 56
_cell_length_a 22.535195
_cell_length_b 7.020223
_cell_length_c 13.984118
_cell_angle_alpha 90.000000
_cell_angle_beta 90.000000
_cell_angle_gamma 90.000000
_cell_volume 2212.316754
_symmetry_space_group_name_H-M "C C C A"
_symmetry_group_IT_number 68
_space_group.IT_coordinate_system_code '2'
_symmetry_cell_setting 'orthorhombic'
loop_
_space_group_symop_operation_xyz
x,y,z
-x,1/2-y,z
x,1/2-y,1/2-z
-x,y,1/2-z
-x,-y,-z
x,1/2+y,-z
-x,1/2+y,1/2+z
x,-y,1/2+z
1/2+x,1/2+y,z
1/2-x,-y,z
1/2+x,-y,1/2-z
1/2-x,1/2+y,1/2-z
1/2-x,1/2-y,-z
1/2+x,y,-z
1/2-x,y,1/2+z
1/2+x,1/2-y,1/2+z
loop_
_atom_site_type_symbol
_atom_site_label
_atom_site_fract_x
_atom_site_fract_y
_atom_site_fract_z
Si Si1 0.412724 0.466645 0.570596
Si Si2 0.690070 0.750892 0.866674
Si Si3 0.678950 0.193551 0.860687
Si Si4 0.500000 0.250000 0.421116
O O1 0.355022 0.609534 0.580117
O O2 0.383340 0.278424 0.610110
O O3 0.452107 0.375949 0.483460
O O4 0.460559 0.590887 0.629488
O O5 0.684485 0.750000 0.750000
O O6 0.758579 0.718934 0.895648
O O7 0.678045 0.972250 0.886004
O O8 0.683152 0.250000 0.750000
#
# Coordination Sequence:
#
# PCOD9507134 Si02
#       4
#    16  16  16   8
#     4  11  23  46  65  86 128 176 215 269 297 370
#     4  10  20  38  69 103 129 155 195 265 344 389
#     4  10  20  38  69 103 129 155 195 265 344 389
#     4  10  28  46  62  80 126 190 236 242 290 348
#
# _framework density 25.312829000000001
#
# number of rings (size 3 to 8) (size 9 to 14) (size 15 to 20)
#    0.000    1.714    2.857    0.857    8.000    0.000 
#    0.000   10.000    0.000    0.000    0.000    0.000 
#    0.000    0.000    0.000    0.000    0.000    0.000 
#
# Total GULP energy -155978.290057 kJ/mol
# GULP energy per Si atom -5570.653216 kJ/mol
# Density = 2.525522 g / cm^3
# Si number density = 25.312829 Si / 1000 Ang^3
#
#
#
# Elastic Constant Matrix: (Units=GPa)
#
#
# Indices 1 2 3 4 5 6 
#
# 1 179.3891 58.6798 26.6783 0.0000 0.0000 0.0000
# 2 58.6798 136.9156 0.6742 0.0000 0.0000 0.0000
# 3 26.6783 0.6742 93.4753 0.0000 0.0000 0.0000
# 4 0.0000 0.0000 0.0000 8.9270 0.0000 0.0000
# 5 0.0000 0.0000 0.0000 0.0000 36.8811 0.0000
# 6 0.0000 0.0000 0.0000 0.0000 0.0000 85.3632
#
#
#
# Elastic Compliance Matrix: (Units=1/GPa)
#
#
# Indices 1 2 3 4 5 6 
#
# 1 0.006812 -0.002910 -0.001923 0.000000 0.000000 0.000000
# 2 -0.002910 0.008547 0.000769 0.000000 0.000000 0.000000
# 3 -0.001923 0.000769 0.011241 0.000000 0.000000 0.000000
# 4 0.000000 0.000000 0.000000 0.112019 0.000000 0.000000
# 5 0.000000 0.000000 0.000000 0.000000 0.027114 0.000000
# 6 0.000000 0.000000 0.000000 0.000000 0.000000 0.011715
#
#
# Mechanical properties :
#
#
# Convention : Reuss Voigt Hill
#
# Bulk Modulus (GPa) = 54.13628 64.64939 59.39284
# Shear Modulus (GPa) = 26.07756 47.81744 36.94750
#
# Velocity S-wave (km/s) = 3.21317 4.35105 3.82466
# Velocity P-wave (km/s) = 5.93290 7.13006 6.55885
#
# Compressibility (1/GPa) = 0.01847190
#
# Stress axis : x y z
#
# Youngs Moduli (GPa) = 146.78955 116.99643 88.95696
#
# Poissons Ratio (x) = 0.34049 0.17109
# Poissons Ratio (y) = 0.42719 -0.06840
# Poissons Ratio (z) = 0.28232 -0.08996
#
# Static dielectric constant tensor:
#      x y z
#    x 2.045910 0.000000 0.000000 
#    y 0.000000 1.845210 0.000000 
#    z 0.000000 0.000000 2.100460 
# 
# From -- ./inp_files/32459.got.cif
#   From: 2010.05.17/outbox.cif.g08.bks.cpg/sg68_17_cif.got.tgz:32459.got - 2010.06.03 18:57:09.
