data_PCOD9507047
_publ_section_title
;
Structure prediction by ZEFSAII (Michael W. Deem and Ramdas Pophale) SiO2 
 PCOD9507047
Probable space group: C C C A
;
_chemical_formula_sum "Si O2"
_cell_formula_units_Z 88
_cell_length_a 12.324581
_cell_length_b 17.455421
_cell_length_c 20.169670
_cell_angle_alpha 90.000000
_cell_angle_beta 90.000000
_cell_angle_gamma 90.000000
_cell_volume 4339.116234
_symmetry_space_group_name_H-M "C C C A"
_symmetry_group_IT_number 68
_space_group.IT_coordinate_system_code '2'
_symmetry_cell_setting 'orthorhombic'
loop_
_space_group_symop_operation_xyz
x,y,z
-x,1/2-y,z
x,1/2-y,1/2-z
-x,y,1/2-z
-x,-y,-z
x,1/2+y,-z
-x,1/2+y,1/2+z
x,-y,1/2+z
1/2+x,1/2+y,z
1/2-x,-y,z
1/2+x,-y,1/2-z
1/2-x,1/2+y,1/2-z
1/2-x,1/2-y,-z
1/2+x,y,-z
1/2-x,y,1/2+z
1/2+x,1/2-y,1/2+z
loop_
_atom_site_type_symbol
_atom_site_label
_atom_site_fract_x
_atom_site_fract_y
_atom_site_fract_z
Si Si1 0.594921 0.311362 0.469428
Si Si2 0.339041 0.861006 0.208537
Si Si3 0.810008 0.748295 0.597542
Si Si4 0.922485 0.112386 0.151869
Si Si5 0.991325 0.030338 0.926337
Si Si6 0.250000 0.000000 0.126705
O O1 0.500000 0.250000 0.470793
O O2 0.695378 0.276321 0.429328
O O3 0.641139 0.314790 0.545718
O O4 0.547634 0.386614 0.433333
O O5 0.299420 0.784193 0.172060
O O6 0.463019 0.863701 0.183088
O O7 0.340139 0.879021 0.286431
O O8 0.277082 0.928542 0.172506
O O9 0.886214 0.823596 0.599214
O O10 0.942340 0.028397 0.121266
O O11 0.862497 0.023954 0.909715
O O12 0.000000 0.000000 0.000000
#
# Coordination Sequence:
#
# PCOD9507047 Si02
#       6
#    16  16  16  16  16   8
#     4  11  23  38  59  89 124 161 204 255 319 387
#     4  10  20  38  62  87 119 159 204 256 308 374
#     4  11  22  38  61  89 122 159 201 255 318 379
#     4  10  22  38  61  91 118 157 209 256 308 377
#     4  11  23  40  62  91 129 168 215 274 328 386
#     4  10  22  40  62  88 124 168 210 258 324 378
#
# _framework density 20.280626999999999
#
# number of rings (size 3 to 8) (size 9 to 14) (size 15 to 20)
#    0.000    1.455    0.000    6.545    0.000    8.000 
#    0.000    0.000    0.000    6.545    0.000    0.000 
#    0.000    0.000    0.000    0.000    0.000    0.000 
#
# Total GULP energy -245364.732013 kJ/mol
# GULP energy per Si atom -5576.471182 kJ/mol
# Density = 2.023447 g / cm^3
# Si number density = 20.280627 Si / 1000 Ang^3
#
#
#
# Elastic Constant Matrix: (Units=GPa)
#
#
# Indices 1 2 3 4 5 6 
#
# 1 98.6216 63.2237 57.3992 0.0000 0.0000 0.0000
# 2 63.2237 104.3921 51.4351 0.0000 0.0000 0.0000
# 3 57.3992 51.4351 127.4698 0.0000 0.0000 0.0000
# 4 0.0000 0.0000 0.0000 -46.8373 0.0000 0.0000
# 5 0.0000 0.0000 0.0000 0.0000 26.7742 0.0000
# 6 0.0000 0.0000 0.0000 0.0000 0.0000 25.8275
#
#
#
# Elastic Compliance Matrix: (Units=1/GPa)
#
#
# Indices 1 2 3 4 5 6 
#
# 1 0.018662 -0.008939 -0.004796 0.000000 0.000000 0.000000
# 2 -0.008939 0.016238 -0.002527 0.000000 0.000000 0.000000
# 3 -0.004796 -0.002527 0.011024 0.000000 0.000000 0.000000
# 4 0.000000 0.000000 0.000000 -0.021350 0.000000 0.000000
# 5 0.000000 0.000000 0.000000 0.000000 0.037349 0.000000
# 6 0.000000 0.000000 0.000000 0.000000 0.000000 0.038718
#
#
# Mechanical properties :
#
#
# Convention : Reuss Voigt Hill
#
# Bulk Modulus (GPa) = 74.62917 74.95549 74.79233
# Shear Modulus (GPa) = 36.32835 11.71458 24.02147
#
# Velocity S-wave (km/s) = 4.23695 2.40599 3.44532
# Velocity P-wave (km/s) = 7.79832 6.69012 7.26538
#
# Compressibility (1/GPa) = 0.01339959
#
# Stress axis : x y z
#
# Youngs Moduli (GPa) = 53.58485 61.58313 90.70739
#
# Poissons Ratio (x) = 0.55050 0.43507
# Poissons Ratio (y) = 0.47900 0.22922
# Poissons Ratio (z) = 0.25702 0.15562
#
# Static dielectric constant tensor:
#      x y z
#    x 1.654720 0.000000 0.000000 
#    y 0.000000 1.704520 0.000000 
#    z 0.000000 0.000000 1.779640 
# 
# From -- ./inp_files/37460.got.cif
#   From: 2010.05.17/outbox.cif.g08.bks.cpg/sg68_19_cif.got.tgz:37460.got - 2010.06.03 18:57:09.
