data_PCOD9507753
_publ_section_title
;
Structure prediction by ZEFSAII (Michael W. Deem and Ramdas Pophale) SiO2 
 PCOD9507753
Probable space group: C C C A
;
_chemical_formula_sum "Si O2"
_cell_formula_units_Z 120
_cell_length_a 17.960566
_cell_length_b 17.611980
_cell_length_c 22.003050
_cell_angle_alpha 90.000000
_cell_angle_beta 90.000000
_cell_angle_gamma 90.000000
_cell_volume 6960.029621
_symmetry_space_group_name_H-M "C C C A"
_symmetry_group_IT_number 68
_space_group.IT_coordinate_system_code '2'
_symmetry_cell_setting 'orthorhombic'
loop_
_space_group_symop_operation_xyz
x,y,z
-x,1/2-y,z
x,1/2-y,1/2-z
-x,y,1/2-z
-x,-y,-z
x,1/2+y,-z
-x,1/2+y,1/2+z
x,-y,1/2+z
1/2+x,1/2+y,z
1/2-x,-y,z
1/2+x,-y,1/2-z
1/2-x,1/2+y,1/2-z
1/2-x,1/2-y,-z
1/2+x,y,-z
1/2-x,y,1/2+z
1/2+x,1/2-y,1/2+z
loop_
_atom_site_type_symbol
_atom_site_label
_atom_site_fract_x
_atom_site_fract_y
_atom_site_fract_z
Si Si1 0.578576 0.210015 0.311228
Si Si2 0.165187 0.681327 0.974244
Si Si3 0.000000 0.069103 0.750000
Si Si4 0.490685 0.841018 0.069681
Si Si5 0.829140 0.195355 0.928404
Si Si6 0.451900 0.014301 0.867584
Si Si7 0.167829 0.033131 0.953824
Si Si8 0.565484 0.066746 0.460549
O O1 0.500000 0.250000 0.329296
O O2 0.605751 0.250000 0.250000
O O3 0.554606 0.125701 0.288408
O O4 0.636579 0.223719 0.365193
O O5 0.145891 0.757344 0.011776
O O6 0.175630 0.620490 0.028192
O O7 0.098479 0.652094 0.932622
O O8 0.240514 0.691966 0.936201
O O9 0.037757 0.015416 0.799838
O O10 0.500000 0.750000 0.076204
O O11 0.529971 0.896874 0.118652
O O12 0.520907 0.876170 0.005655
O O13 0.867536 0.113794 0.931955
O O14 0.370390 0.988890 0.890498
O O15 0.510748 0.969289 0.911198
O O16 0.250000 0.000000 0.959902
O O17 0.107972 0.996049 0.999965
#
# Coordination Sequence:
#
# PCOD9507753 Si02
#       8
#    16  16   8  16  16  16  16  16
#     4   9  21  35  56  85 114 153 188 232 281 328
#     4  11  22  33  54  86 119 155 176 229 297 336
#     4  10  21  38  61  82 104 150 204 236 273 322
#     4  11  21  35  57  83 114 147 190 230 291 345
#     4  11  22  32  53  88 121 146 185 228 285 354
#     4  11  22  36  60  83 111 150 198 238 274 337
#     4  11  21  35  54  83 119 148 180 233 289 336
#     4  11  19  33  56  87 111 146 186 228 283 348
#
# _framework density 17.241306000000002
#
# number of rings (size 3 to 8) (size 9 to 14) (size 15 to 20)
#    0.000    1.467    6.667    0.800    5.600    0.000 
#    0.000    0.333    2.933    0.000    0.000    0.000 
#    0.000    0.000    0.000    0.000    0.000    0.000 
#
# Total GULP energy -334107.015736 kJ/mol
# GULP energy per Si atom -5568.450262 kJ/mol
# Density = 1.720206 g / cm^3
# Si number density = 17.241306 Si / 1000 Ang^3
#
#
#
# Elastic Constant Matrix: (Units=GPa)
#
#
# Indices 1 2 3 4 5 6 
#
# 1 87.6743 18.1696 40.1708 0.0000 0.0000 0.0000
# 2 18.1696 83.8898 21.1360 0.0000 0.0000 0.0000
# 3 40.1708 21.1360 67.1061 0.0000 0.0000 0.0000
# 4 0.0000 0.0000 0.0000 4.3738 0.0000 0.0000
# 5 0.0000 0.0000 0.0000 0.0000 22.6348 0.0000
# 6 0.0000 0.0000 0.0000 0.0000 0.0000 22.8008
#
#
#
# Elastic Compliance Matrix: (Units=1/GPa)
#
#
# Indices 1 2 3 4 5 6 
#
# 1 0.015814 -0.001130 -0.009111 0.000000 0.000000 0.000000
# 2 -0.001130 0.013029 -0.003427 0.000000 0.000000 0.000000
# 3 -0.009111 -0.003427 0.021435 0.000000 0.000000 0.000000
# 4 0.000000 0.000000 0.000000 0.228632 0.000000 0.000000
# 5 0.000000 0.000000 0.000000 0.000000 0.044180 0.000000
# 6 0.000000 0.000000 0.000000 0.000000 0.000000 0.043858
#
#
# Mechanical properties :
#
#
# Convention : Reuss Voigt Hill
#
# Bulk Modulus (GPa) = 43.58753 44.18033 43.88393
# Shear Modulus (GPa) = 12.43992 20.57480 16.50736
#
# Velocity S-wave (km/s) = 2.68902 3.45823 3.09759
# Velocity P-wave (km/s) = 5.91413 6.45183 6.18882
#
# Compressibility (1/GPa) = 0.02294234
#
# Stress axis : x y z
#
# Youngs Moduli (GPa) = 63.23327 76.75437 46.65220
#
# Poissons Ratio (x) = 0.08671 0.42505
# Poissons Ratio (y) = 0.07144 0.15989
# Poissons Ratio (z) = 0.57612 0.26306
#
# Static dielectric constant tensor:
#      x y z
#    x 1.585450 0.000000 0.000000 
#    y 0.000000 1.697030 0.000000 
#    z 0.000000 0.000000 1.588260 
# 
# From -- ./inp_files/39779.got.cif
#   From: 2010.05.17/outbox.cif.g08.bks.cpg/sg68_20_cif.got.tgz:39779.got - 2010.06.03 18:57:09.
