data_PCOD9507245
_publ_section_title
;
Structure prediction by ZEFSAII (Michael W. Deem and Ramdas Pophale) SiO2 
 PCOD9507245
Probable space group: C C C A
;
_chemical_formula_sum "Si O2"
_cell_formula_units_Z 60
_cell_length_a 12.012788
_cell_length_b 16.689652
_cell_length_c 13.638659
_cell_angle_alpha 90.000000
_cell_angle_beta 90.000000
_cell_angle_gamma 90.000000
_cell_volume 2734.404531
_symmetry_space_group_name_H-M "C C C A"
_symmetry_group_IT_number 68
_space_group.IT_coordinate_system_code '2'
_symmetry_cell_setting 'orthorhombic'
loop_
_space_group_symop_operation_xyz
x,y,z
-x,1/2-y,z
x,1/2-y,1/2-z
-x,y,1/2-z
-x,-y,-z
x,1/2+y,-z
-x,1/2+y,1/2+z
x,-y,1/2+z
1/2+x,1/2+y,z
1/2-x,-y,z
1/2+x,-y,1/2-z
1/2-x,1/2+y,1/2-z
1/2-x,1/2-y,-z
1/2+x,y,-z
1/2-x,y,1/2+z
1/2+x,1/2-y,1/2+z
loop_
_atom_site_type_symbol
_atom_site_label
_atom_site_fract_x
_atom_site_fract_y
_atom_site_fract_z
Si Si1 0.500000 0.250000 0.250000
Si Si2 0.866065 0.614593 0.362833
Si Si3 0.422946 0.870088 0.079350
Si Si4 0.647749 0.214525 0.640824
Si Si5 0.000000 0.983947 0.750000
O O1 0.430139 0.192127 0.320234
O O2 0.902734 0.593823 0.473212
O O3 0.740209 0.645977 0.357242
O O4 0.906715 0.540396 0.298581
O O5 0.434433 0.931197 0.169314
O O6 0.330025 0.799448 0.087489
O O7 0.541533 0.825457 0.089601
O O8 0.624760 0.250000 0.750000
#
# Coordination Sequence:
#
# PCOD9507245 Si02
#       5
#     4  16  16  16   8
#     4  10  20  40  60  98 140 162 220 298 332 384
#     4  11  24  40  68 101 134 178 231 281 347 410
#     4  11  22  44  68  98 136 183 226 286 339 417
#     4  11  21  43  72  96 132 181 238 279 341 412
#     4  11  24  44  64  97 150 172 218 295 350 404
#
# _framework density 21.942620999999999
#
# number of rings (size 3 to 8) (size 9 to 14) (size 15 to 20)
#    0.000    1.067    4.000    4.000    0.000    1.067 
#    0.000    0.000    0.000    0.000    0.000    0.000 
#    0.000    0.000    0.000    0.000    0.000    0.000 
#
# Total GULP energy -167437.463068 kJ/mol
# GULP energy per Si atom -5581.248769 kJ/mol
# Density = 2.189268 g / cm^3
# Si number density = 21.942621 Si / 1000 Ang^3
#
#
#
# Elastic Constant Matrix: (Units=GPa)
#
#
# Indices 1 2 3 4 5 6 
#
# 1 94.8885 45.5946 29.6023 0.0000 0.0000 0.0000
# 2 45.5946 147.9652 60.8535 0.0000 0.0000 0.0000
# 3 29.6023 60.8535 129.4855 0.0000 0.0000 0.0000
# 4 0.0000 0.0000 0.0000 -55.4216 0.0000 0.0000
# 5 0.0000 0.0000 0.0000 0.0000 17.1796 0.0000
# 6 0.0000 0.0000 0.0000 0.0000 0.0000 21.7916
#
#
#
# Elastic Compliance Matrix: (Units=1/GPa)
#
#
# Indices 1 2 3 4 5 6 
#
# 1 0.012545 -0.003330 -0.001303 0.000000 0.000000 0.000000
# 2 -0.003330 0.009261 -0.003591 0.000000 0.000000 0.000000
# 3 -0.001303 -0.003591 0.009709 0.000000 0.000000 0.000000
# 4 0.000000 0.000000 0.000000 -0.018044 0.000000 0.000000
# 5 0.000000 0.000000 0.000000 0.000000 0.058209 0.000000
# 6 0.000000 0.000000 0.000000 0.000000 0.000000 0.045889
#
#
# Mechanical properties :
#
#
# Convention : Reuss Voigt Hill
#
# Bulk Modulus (GPa) = 66.37134 71.60443 68.98789
# Shear Modulus (GPa) = 35.96086 12.46251 24.21169
#
# Velocity S-wave (km/s) = 4.05267 2.38577 3.32536
# Velocity P-wave (km/s) = 7.22580 6.34765 6.80091
#
# Compressibility (1/GPa) = 0.01506674
#
# Stress axis : x y z
#
# Youngs Moduli (GPa) = 79.71166 107.97522 103.00192
#
# Poissons Ratio (x) = 0.35954 0.13423
# Poissons Ratio (y) = 0.26542 0.36991
# Poissons Ratio (z) = 0.10388 0.38777
#
# Static dielectric constant tensor:
#      x y z
#    x 1.893140 0.000000 0.000000 
#    y 0.000000 1.846230 0.000000 
#    z 0.000000 0.000000 1.852360 
# 
# From -- ./inp_files/12735.got.cif
#   From: 2010.05.17/outbox.cif.g08.bks.cpg/sg68_7_cif.got.tgz:12735.got - 2010.06.03 18:57:09.
