data_PCOD9507789
_publ_section_title
;
Structure prediction by ZEFSAII (Michael W. Deem and Ramdas Pophale) SiO2 
 PCOD9507789
Probable space group: C C C A
;
_chemical_formula_sum "Si O2"
_cell_formula_units_Z 88
_cell_length_a 24.627390
_cell_length_b 20.961168
_cell_length_c 7.927277
_cell_angle_alpha 90.000000
_cell_angle_beta 90.000000
_cell_angle_gamma 90.000000
_cell_volume 4092.209889
_symmetry_space_group_name_H-M "C C C A"
_symmetry_group_IT_number 68
_space_group.IT_coordinate_system_code '2'
_symmetry_cell_setting 'orthorhombic'
loop_
_space_group_symop_operation_xyz
x,y,z
-x,1/2-y,z
x,1/2-y,1/2-z
-x,y,1/2-z
-x,-y,-z
x,1/2+y,-z
-x,1/2+y,1/2+z
x,-y,1/2+z
1/2+x,1/2+y,z
1/2-x,-y,z
1/2+x,-y,1/2-z
1/2-x,1/2+y,1/2-z
1/2-x,1/2-y,-z
1/2+x,y,-z
1/2-x,y,1/2+z
1/2+x,1/2-y,1/2+z
loop_
_atom_site_type_symbol
_atom_site_label
_atom_site_fract_x
_atom_site_fract_y
_atom_site_fract_z
Si Si1 0.866972 0.057992 0.839712
Si Si2 0.681840 0.828885 0.022346
Si Si3 0.429080 0.180088 0.806132
Si Si4 0.745536 0.250000 0.250000
Si Si5 0.396743 0.926104 0.037224
Si Si6 0.987118 0.101161 0.934719
O O1 0.823957 0.099448 0.947259
O O2 0.867498 0.080333 0.644501
O O3 0.927882 0.070359 0.912294
O O4 0.865494 0.981649 0.861138
O O5 0.707005 0.780863 0.888090
O O6 0.620283 0.811693 0.062455
O O7 0.717375 0.808983 0.184696
O O8 0.442226 0.250000 0.750000
O O9 0.404319 0.134479 0.659552
O O10 0.477632 0.149106 0.912588
O O11 0.460012 0.940340 0.983874
O O12 0.000000 0.129783 0.750000
#
# Coordination Sequence:
#
# PCOD9507789 Si02
#       6
#    16  16  16   8  16  16
#     4  10  21  38  63  94 129 169 223 268 328 390
#     4  10  22  40  68  99 122 165 210 268 336 401
#     4  11  23  39  62  93 133 178 223 276 329 391
#     4  10  22  42  70  96 126 158 212 268 340 420
#     4  11  22  37  62  91 132 178 216 270 312 391
#     4   9  20  38  58  88 127 177 225 266 315 381
#
# _framework density 21.504272
#
# number of rings (size 3 to 8) (size 9 to 14) (size 15 to 20)
#    0.000    1.818    0.909    3.273    2.545    4.364 
#    0.000    2.727    0.000   13.091    0.000    0.000 
#    0.000    0.000    0.000    0.000    0.000    0.000 
#
# Total GULP energy -245188.083310 kJ/mol
# GULP energy per Si atom -5572.456439 kJ/mol
# Density = 2.145533 g / cm^3
# Si number density = 21.504272 Si / 1000 Ang^3
#
#
#
# Elastic Constant Matrix: (Units=GPa)
#
#
# Indices 1 2 3 4 5 6 
#
# 1 61.0612 16.6594 28.6348 0.0000 0.0000 0.0000
# 2 16.6594 131.5366 74.3853 0.0000 0.0000 0.0000
# 3 28.6348 74.3853 110.8086 0.0000 0.0000 0.0000
# 4 0.0000 0.0000 0.0000 0.2555 0.0000 0.0000
# 5 0.0000 0.0000 0.0000 0.0000 14.8948 0.0000
# 6 0.0000 0.0000 0.0000 0.0000 0.0000 28.6914
#
#
#
# Elastic Compliance Matrix: (Units=1/GPa)
#
#
# Indices 1 2 3 4 5 6 
#
# 1 0.018663 0.000586 -0.005216 0.000000 0.000000 0.000000
# 2 0.000586 0.012273 -0.008390 0.000000 0.000000 0.000000
# 3 -0.005216 -0.008390 0.016005 0.000000 0.000000 0.000000
# 4 0.000000 0.000000 0.000000 3.913650 0.000000 0.000000
# 5 0.000000 0.000000 0.000000 0.000000 0.067138 0.000000
# 6 0.000000 0.000000 0.000000 0.000000 0.000000 0.034854
#
#
# Mechanical properties :
#
#
# Convention : Reuss Voigt Hill
#
# Bulk Modulus (GPa) = 47.84638 60.30727 54.07683
# Shear Modulus (GPa) = 1.22083 21.01680 11.11881
#
# Velocity S-wave (km/s) = 0.75428 3.12962 2.27634
# Velocity P-wave (km/s) = 4.80173 6.41596 5.66662
#
# Compressibility (1/GPa) = 0.02090022
#
# Stress axis : x y z
#
# Youngs Moduli (GPa) = 53.58104 81.47968 62.48071
#
# Poissons Ratio (x) = -0.04776 0.32592
# Poissons Ratio (y) = -0.03141 0.52423
# Poissons Ratio (z) = 0.27950 0.68364
#
# Static dielectric constant tensor:
#      x y z
#    x 1.764420 0.000000 0.000000 
#    y 0.000000 1.815130 0.000000 
#    z 0.000000 0.000000 1.793030 
# 
# From -- ./inp_files/8024.got.cif
#   From: 2010.05.17/outbox.cif.g08.bks.cpg/sg68_5_cif.got.tgz:8024.got - 2010.06.03 18:57:09.
