data_PCOD9507004
_publ_section_title
;
Structure prediction by ZEFSAII (Michael W. Deem and Ramdas Pophale) SiO2 
 PCOD9507004
Probable space group: C C C A
;
_chemical_formula_sum "Si O2"
_cell_formula_units_Z 56
_cell_length_a 22.287669
_cell_length_b 5.150620
_cell_length_c 27.710642
_cell_angle_alpha 90.000000
_cell_angle_beta 90.000000
_cell_angle_gamma 90.000000
_cell_volume 3181.051841
_symmetry_space_group_name_H-M "C C C A"
_symmetry_group_IT_number 68
_space_group.IT_coordinate_system_code '2'
_symmetry_cell_setting 'orthorhombic'
loop_
_space_group_symop_operation_xyz
x,y,z
-x,1/2-y,z
x,1/2-y,1/2-z
-x,y,1/2-z
-x,-y,-z
x,1/2+y,-z
-x,1/2+y,1/2+z
x,-y,1/2+z
1/2+x,1/2+y,z
1/2-x,-y,z
1/2+x,-y,1/2-z
1/2-x,1/2+y,1/2-z
1/2-x,1/2-y,-z
1/2+x,y,-z
1/2-x,y,1/2+z
1/2+x,1/2-y,1/2+z
loop_
_atom_site_type_symbol
_atom_site_label
_atom_site_fract_x
_atom_site_fract_y
_atom_site_fract_z
Si Si1 0.426948 0.745177 0.970205
Si Si2 0.250000 0.000000 0.218697
Si Si3 0.927913 0.279351 0.858691
Si Si4 0.625799 0.213523 0.807032
O O1 0.500000 0.750000 0.969723
O O2 0.408141 0.763109 0.914644
O O3 0.407425 0.485405 0.997068
O O4 0.274498 0.250000 0.250000
O O5 0.196486 0.139504 0.189839
O O6 0.899891 0.537897 0.835162
O O7 0.000000 0.250000 0.858343
O O8 0.906193 0.036487 0.828100
O O9 0.614641 0.250000 0.750000
#
# Coordination Sequence:
#
# PCOD9507004 Si02
#       4
#    16   8  16  16
#     4   9  17  31  50  72 101 136 175 219 260 307
#     4  10  20  38  58  76 100 140 198 242 262 298
#     4  11  22  34  52  82 113 141 175 213 272 342
#     4  11  22  36  54  77 108 145 180 221 265 315
#
# _framework density 17.604239
#
# number of rings (size 3 to 8) (size 9 to 14) (size 15 to 20)
#    0.000    1.714    0.000    6.857    0.000    8.000 
#    0.000    0.000    0.000    0.000    0.000   20.000 
#    0.000    0.000    0.000    0.000    0.000    0.000 
#
# Total GULP energy -156069.015302 kJ/mol
# GULP energy per Si atom -5573.893404 kJ/mol
# Density = 1.756417 g / cm^3
# Si number density = 17.604239 Si / 1000 Ang^3
#
#
#
# Elastic Constant Matrix: (Units=GPa)
#
#
# Indices 1 2 3 4 5 6 
#
# 1 73.0543 43.8581 46.3495 0.0000 0.0000 0.0000
# 2 43.8581 221.5530 134.1284 0.0000 0.0000 0.0000
# 3 46.3495 134.1284 230.8747 0.0000 0.0000 0.0000
# 4 0.0000 0.0000 0.0000 20.8225 0.0000 0.0000
# 5 0.0000 0.0000 0.0000 0.0000 -31.6719 0.0000
# 6 0.0000 0.0000 0.0000 0.0000 0.0000 34.2838
#
#
#
# Elastic Compliance Matrix: (Units=1/GPa)
#
#
# Indices 1 2 3 4 5 6 
#
# 1 0.016193 -0.001909 -0.002142 0.000000 0.000000 0.000000
# 2 -0.001909 0.007187 -0.003792 0.000000 0.000000 0.000000
# 3 -0.002142 -0.003792 0.006965 0.000000 0.000000 0.000000
# 4 0.000000 0.000000 0.000000 0.048025 0.000000 0.000000
# 5 0.000000 0.000000 0.000000 0.000000 -0.031574 0.000000
# 6 0.000000 0.000000 0.000000 0.000000 0.000000 0.029168
#
#
# Mechanical properties :
#
#
# Convention : Reuss Voigt Hill
#
# Bulk Modulus (GPa) = 68.21750 108.23933 88.22841
# Shear Modulus (GPa) = 51.79340 24.76329 38.27834
#
# Velocity S-wave (km/s) = 5.43000 3.75462 4.66809
# Velocity P-wave (km/s) = 8.84013 8.96742 8.90400
#
# Compressibility (1/GPa) = 0.01465899
#
# Stress axis : x y z
#
# Youngs Moduli (GPa) = 61.75359 139.13347 143.58437
#
# Poissons Ratio (x) = 0.26559 0.30755
# Poissons Ratio (y) = 0.11788 0.54452
# Poissons Ratio (z) = 0.13227 0.52764
#
# Static dielectric constant tensor:
#      x y z
#    x 1.486930 0.000000 0.000000 
#    y 0.000000 1.584970 0.000000 
#    z 0.000000 0.000000 1.578640 
# 
# From -- ./inp_files/35025.got.cif
#   From: 2010.05.17/outbox.cif.g08.bks.cpg/sg68_18_cif.got.tgz:35025.got - 2010.06.03 18:57:09.
