data_PCOD9507264
_publ_section_title
;
Structure prediction by ZEFSAII (Michael W. Deem and Ramdas Pophale) SiO2 
 PCOD9507264
Probable space group: C C C A
;
_chemical_formula_sum "Si O2"
_cell_formula_units_Z 92
_cell_length_a 8.912939
_cell_length_b 22.492154
_cell_length_c 20.275428
_cell_angle_alpha 90.000000
_cell_angle_beta 90.000000
_cell_angle_gamma 90.000000
_cell_volume 4064.639312
_symmetry_space_group_name_H-M "C C C A"
_symmetry_group_IT_number 68
_space_group.IT_coordinate_system_code '2'
_symmetry_cell_setting 'orthorhombic'
loop_
_space_group_symop_operation_xyz
x,y,z
-x,1/2-y,z
x,1/2-y,1/2-z
-x,y,1/2-z
-x,-y,-z
x,1/2+y,-z
-x,1/2+y,1/2+z
x,-y,1/2+z
1/2+x,1/2+y,z
1/2-x,-y,z
1/2+x,-y,1/2-z
1/2-x,1/2+y,1/2-z
1/2-x,1/2-y,-z
1/2+x,y,-z
1/2-x,y,1/2+z
1/2+x,1/2-y,1/2+z
loop_
_atom_site_type_symbol
_atom_site_label
_atom_site_fract_x
_atom_site_fract_y
_atom_site_fract_z
Si Si1 0.000000 0.068093 0.250000
Si Si2 0.327871 0.390910 0.061881
Si Si3 0.000000 0.750000 0.750000
Si Si4 0.250000 0.000000 0.534148
Si Si5 0.673993 0.841841 0.339616
Si Si6 0.480259 0.679062 0.034422
Si Si7 0.572061 0.073062 0.354907
Si Si8 0.250000 0.500000 0.744485
O O1 0.093970 0.104660 0.198129
O O2 0.129476 0.037868 0.293513
O O3 0.179179 0.348931 0.058480
O O4 0.397555 0.413610 0.131229
O O5 0.306400 0.447509 0.013796
O O6 0.464847 0.352742 0.031496
O O7 0.887174 0.713480 0.702680
O O8 0.133574 0.033595 0.583263
O O9 0.604190 0.837355 0.411328
O O10 0.844039 0.863274 0.345837
O O11 0.500000 0.750000 0.027017
O O12 0.635103 0.035797 0.292635
#
# Coordination Sequence:
#
# PCOD9507264 Si02
#       8
#     8  16   4   8  16  16  16   8
#     4   9  20  35  60  86 114 161 200 265 310 372
#     4  12  24  38  63  96 133 171 208 252 314 390
#     4  10  20  40  76  86 112 168 222 274 314 386
#     4  11  20  36  63  92 138 173 202 248 309 384
#     4  10  20  40  63  91 117 157 216 263 320 366
#     4  12  24  41  61  90 126 169 213 259 310 383
#     4  10  21  38  60  93 133 164 203 260 315 385
#     4   9  20  36  59  84 130 161 200 254 323 384
#
# _framework density 22.634235
#
# number of rings (size 3 to 8) (size 9 to 14) (size 15 to 20)
#    0.000    1.391    4.348    1.043    0.000    1.391 
#    0.000    0.000    0.000    1.043    0.000    0.000 
#    0.000    0.000    0.000    0.000    0.000    0.000 
#
# Total GULP energy -256435.041943 kJ/mol
# GULP energy per Si atom -5574.674825 kJ/mol
# Density = 2.258272 g / cm^3
# Si number density = 22.634235 Si / 1000 Ang^3
#
#
#
# Elastic Constant Matrix: (Units=GPa)
#
#
# Indices 1 2 3 4 5 6 
#
# 1 108.0430 61.3837 10.4951 0.0000 0.0000 0.0000
# 2 61.3837 88.5247 -6.7805 0.0000 0.0000 0.0000
# 3 10.4951 -6.7805 22.1130 0.0000 0.0000 0.0000
# 4 0.0000 0.0000 0.0000 -32.9616 0.0000 0.0000
# 5 0.0000 0.0000 0.0000 0.0000 27.0838 0.0000
# 6 0.0000 0.0000 0.0000 0.0000 0.0000 20.9854
#
#
#
# Elastic Compliance Matrix: (Units=1/GPa)
#
#
# Indices 1 2 3 4 5 6 
#
# 1 0.018253 -0.013641 -0.012846 0.000000 0.000000 0.000000
# 2 -0.013641 0.021762 0.013147 0.000000 0.000000 0.000000
# 3 -0.012846 0.013147 0.055351 0.000000 0.000000 0.000000
# 4 0.000000 0.000000 0.000000 -0.030338 0.000000 0.000000
# 5 0.000000 0.000000 0.000000 0.000000 0.036922 0.000000
# 6 0.000000 0.000000 0.000000 0.000000 0.000000 0.047652
#
#
# Mechanical properties :
#
#
# Convention : Reuss Voigt Hill
#
# Bulk Modulus (GPa) = 14.55901 38.76415 26.66158
# Shear Modulus (GPa) = 25.10324 13.26035 19.18179
#
# Velocity S-wave (km/s) = 3.33390 2.42307 2.91429
# Velocity P-wave (km/s) = 4.61152 4.99919 4.80926
#
# Compressibility (1/GPa) = 0.06868601
#
# Stress axis : x y z
#
# Youngs Moduli (GPa) = 54.78426 45.95161 18.06668
#
# Poissons Ratio (x) = 0.62683 0.23209
# Poissons Ratio (y) = 0.74731 -0.23752
# Poissons Ratio (z) = 0.70376 -0.60413
#
# Static dielectric constant tensor:
#      x y z
#    x 1.887190 0.000000 0.000000 
#    y 0.000000 2.031090 0.000000 
#    z 0.000000 0.000000 1.475630 
# 
# From -- ./inp_files/36372.got.cif
#   From: 2010.05.17/outbox.cif.g08.bks.cpg/sg68_19_cif.got.tgz:36372.got - 2010.06.03 18:57:09.
