data_PCOD9507181
_publ_section_title
;
Structure prediction by ZEFSAII (Michael W. Deem and Ramdas Pophale) SiO2 
 PCOD9507181
Probable space group: C C C A
;
_chemical_formula_sum "Si O2"
_cell_formula_units_Z 116
_cell_length_a 21.878260
_cell_length_b 26.676195
_cell_length_c 10.113510
_cell_angle_alpha 90.000000
_cell_angle_beta 90.000000
_cell_angle_gamma 90.000000
_cell_volume 5902.534997
_symmetry_space_group_name_H-M "C C C A"
_symmetry_group_IT_number 68
_space_group.IT_coordinate_system_code '2'
_symmetry_cell_setting 'orthorhombic'
loop_
_space_group_symop_operation_xyz
x,y,z
-x,1/2-y,z
x,1/2-y,1/2-z
-x,y,1/2-z
-x,-y,-z
x,1/2+y,-z
-x,1/2+y,1/2+z
x,-y,1/2+z
1/2+x,1/2+y,z
1/2-x,-y,z
1/2+x,-y,1/2-z
1/2-x,1/2+y,1/2-z
1/2-x,1/2-y,-z
1/2+x,y,-z
1/2-x,y,1/2+z
1/2+x,1/2-y,1/2+z
loop_
_atom_site_type_symbol
_atom_site_label
_atom_site_fract_x
_atom_site_fract_y
_atom_site_fract_z
Si Si1 0.922115 0.324437 0.925979
Si Si2 0.000000 0.250000 0.750000
Si Si3 0.009417 0.074328 0.909063
Si Si4 0.839335 0.761142 0.903228
Si Si5 0.898748 0.983755 0.515069
Si Si6 0.805866 0.876212 0.204890
Si Si7 0.821484 0.490769 0.750463
Si Si8 0.724135 0.330276 0.017645
O O1 0.962984 0.372968 0.954512
O O2 0.863215 0.343751 0.844272
O O3 0.958958 0.285785 0.838343
O O4 0.896219 0.293805 0.049455
O O5 0.000000 0.075141 0.750000
O O6 0.945056 0.060852 0.977330
O O7 0.057153 0.030254 0.945844
O O8 0.841200 0.750000 0.750000
O O9 0.779805 0.794848 0.934375
O O10 0.829547 0.708414 0.979169
O O11 0.858917 0.995211 0.385108
O O12 0.853441 0.975092 0.638014
O O13 0.823795 0.934096 0.194080
O O14 0.792235 0.864661 0.357953
O O15 0.749680 0.860605 0.109153
O O16 0.750000 0.500000 0.728468
#
# Coordination Sequence:
#
# PCOD9507181 Si02
#       8
#    16   4  16  16  16  16  16  16
#     4  11  23  40  69  96 133 174 239 290 343 406
#     4  12  24  40  70  92 120 176 228 294 336 396
#     4  11  21  45  75  98 130 182 244 289 348 425
#     4  10  20  39  63  97 136 175 223 284 343 407
#     4  11  24  45  72  98 133 182 226 293 349 422
#     4  11  23  41  63  97 134 181 229 277 341 423
#     4  12  27  43  66 102 145 174 228 289 360 424
#     4  10  21  37  65  93 134 188 222 270 339 418
#
# _framework density 19.652571999999999
#
# number of rings (size 3 to 8) (size 9 to 14) (size 15 to 20)
#    0.000    1.103    4.828    1.241    3.862    0.000 
#    0.000    0.345    3.034    0.000    0.000    0.000 
#    0.000    0.000    0.000    0.000    0.000    0.000 
#
# Total GULP energy -324156.113887 kJ/mol
# GULP energy per Si atom -5588.898515 kJ/mol
# Density = 1.960784 g / cm^3
# Si number density = 19.652572 Si / 1000 Ang^3
#
#
#
# Elastic Constant Matrix: (Units=GPa)
#
#
# Indices 1 2 3 4 5 6 
#
# 1 103.2120 28.4350 46.2533 0.0000 0.0000 0.0000
# 2 28.4350 72.1585 27.8522 0.0000 0.0000 0.0000
# 3 46.2533 27.8522 117.2373 0.0000 0.0000 0.0000
# 4 0.0000 0.0000 0.0000 -8.1546 0.0000 0.0000
# 5 0.0000 0.0000 0.0000 0.0000 32.7276 0.0000
# 6 0.0000 0.0000 0.0000 0.0000 0.0000 162.2850
#
#
#
# Elastic Compliance Matrix: (Units=1/GPa)
#
#
# Indices 1 2 3 4 5 6 
#
# 1 0.012450 -0.003314 -0.004125 0.000000 0.000000 0.000000
# 2 -0.003314 0.016140 -0.002527 0.000000 0.000000 0.000000
# 3 -0.004125 -0.002527 0.010757 0.000000 0.000000 0.000000
# 4 0.000000 0.000000 0.000000 -0.122631 0.000000 0.000000
# 5 0.000000 0.000000 0.000000 0.000000 0.030555 0.000000
# 6 0.000000 0.000000 0.000000 0.000000 0.000000 0.006162
#
#
# Mechanical properties :
#
#
# Convention : Reuss Voigt Hill
#
# Bulk Modulus (GPa) = 51.50368 55.29873 53.40121
# Shear Modulus (GPa) = -247.97906 50.04276 -98.96815
#
# Velocity S-wave (km/s) = -11.24524 5.05163 -7.10410
# Velocity P-wave (km/s) = 11.93077 7.88826 6.32924
#
# Compressibility (1/GPa) = 0.01941609
#
# Stress axis : x y z
#
# Youngs Moduli (GPa) = 80.31976 61.95916 92.96032
#
# Poissons Ratio (x) = 0.20534 0.38343
# Poissons Ratio (y) = 0.26619 0.23489
# Poissons Ratio (z) = 0.33129 0.15656
#
# Static dielectric constant tensor:
#      x y z
#    x 1.709280 0.000000 0.000000 
#    y 0.000000 1.691360 0.000000 
#    z 0.000000 0.000000 1.664310 
# 
# From -- ./inp_files/8334.got.cif
#   From: 2010.05.17/outbox.cif.g08.bks.cpg/sg68_5_cif.got.tgz:8334.got - 2010.06.03 18:57:09.
