data_PCOD9507417
_publ_section_title
;
Structure prediction by ZEFSAII (Michael W. Deem and Ramdas Pophale) SiO2 
 PCOD9507417
Probable space group: C C C A
;
_chemical_formula_sum "Si O2"
_cell_formula_units_Z 56
_cell_length_a 11.697867
_cell_length_b 12.078502
_cell_length_c 15.298521
_cell_angle_alpha 90.000000
_cell_angle_beta 90.000000
_cell_angle_gamma 90.000000
_cell_volume 2161.569490
_symmetry_space_group_name_H-M "C C C A"
_symmetry_group_IT_number 68
_space_group.IT_coordinate_system_code '2'
_symmetry_cell_setting 'orthorhombic'
loop_
_space_group_symop_operation_xyz
x,y,z
-x,1/2-y,z
x,1/2-y,1/2-z
-x,y,1/2-z
-x,-y,-z
x,1/2+y,-z
-x,1/2+y,1/2+z
x,-y,1/2+z
1/2+x,1/2+y,z
1/2-x,-y,z
1/2+x,-y,1/2-z
1/2-x,1/2+y,1/2-z
1/2-x,1/2-y,-z
1/2+x,y,-z
1/2-x,y,1/2+z
1/2+x,1/2-y,1/2+z
loop_
_atom_site_type_symbol
_atom_site_label
_atom_site_fract_x
_atom_site_fract_y
_atom_site_fract_z
Si Si1 0.555797 0.138500 0.910233
Si Si2 0.250000 0.000000 0.825420
Si Si3 0.000000 0.989643 0.250000
Si Si4 0.744083 0.738693 0.851591
Si Si5 0.500000 0.750000 0.575937
O O1 0.500000 0.250000 0.868864
O O2 0.525504 0.044135 0.844017
O O3 0.688736 0.170579 0.907587
O O4 0.486723 0.353869 0.009559
O O5 0.363917 0.960329 0.771922
O O6 0.276808 0.112649 0.877741
O O7 0.776997 0.750000 0.750000
O O8 0.610838 0.757910 0.865879
#
# Coordination Sequence:
#
# PCOD9507417 Si02
#       5
#    16   8   8  16   8
#     4  10  20  43  69  87 131 178 221 254 341 401
#     4  12  26  38  72  98 136 166 248 260 340 394
#     4  12  23  44  67 104 122 192 219 286 319 418
#     4  12  23  44  67  98 133 178 221 278 332 404
#     4  10  25  37  70 102 130 172 220 285 337 382
#
# _framework density 25.907101999999998
#
# number of rings (size 3 to 8) (size 9 to 14) (size 15 to 20)
#    0.857    0.000    5.714    1.714    4.000    0.000 
#    0.000    7.143    0.000    0.000    0.000    0.000 
#    0.000    0.000    0.000    0.000    0.000    0.000 
#
# Total GULP energy -156045.311541 kJ/mol
# GULP energy per Si atom -5573.046841 kJ/mol
# Density = 2.584814 g / cm^3
# Si number density = 25.907102 Si / 1000 Ang^3
#
#
#
# Elastic Constant Matrix: (Units=GPa)
#
#
# Indices 1 2 3 4 5 6 
#
# 1 172.6953 12.4189 10.8861 0.0000 0.0000 0.0000
# 2 12.4189 52.2510 35.6933 0.0000 0.0000 0.0000
# 3 10.8861 35.6933 105.5972 0.0000 0.0000 0.0000
# 4 0.0000 0.0000 0.0000 32.8468 0.0000 0.0000
# 5 0.0000 0.0000 0.0000 0.0000 127.5497 0.0000
# 6 0.0000 0.0000 0.0000 0.0000 0.0000 11.9364
#
#
#
# Elastic Compliance Matrix: (Units=1/GPa)
#
#
# Indices 1 2 3 4 5 6 
#
# 1 0.005894 -0.001282 -0.000174 0.000000 0.000000 0.000000
# 2 -0.001282 0.025163 -0.008373 0.000000 0.000000 0.000000
# 3 -0.000174 -0.008373 0.012318 0.000000 0.000000 0.000000
# 4 0.000000 0.000000 0.000000 0.030444 0.000000 0.000000
# 5 0.000000 0.000000 0.000000 0.000000 0.007840 0.000000
# 6 0.000000 0.000000 0.000000 0.000000 0.000000 0.083777
#
#
# Mechanical properties :
#
#
# Convention : Reuss Voigt Hill
#
# Bulk Modulus (GPa) = 42.16534 49.83780 46.00157
# Shear Modulus (GPa) = 25.90663 52.56959 39.23811
#
# Velocity S-wave (km/s) = 3.16568 4.50950 3.89597
# Velocity P-wave (km/s) = 5.44729 6.81124 6.16709
#
# Compressibility (1/GPa) = 0.02371616
#
# Stress axis : x y z
#
# Youngs Moduli (GPa) = 169.67259 39.74104 81.18069
#
# Poissons Ratio (x) = 0.05094 0.01415
# Poissons Ratio (y) = 0.21747 0.67975
# Poissons Ratio (z) = 0.02958 0.33276
#
# Static dielectric constant tensor:
#      x y z
#    x 2.207090 0.000000 0.000000 
#    y 0.000000 2.179290 0.000000 
#    z 0.000000 0.000000 1.907490 
# 
# From -- ./inp_files/21618.got.cif
#   From: 2010.05.17/outbox.cif.g08.bks.cpg/sg68_11_cif.got.tgz:21618.got - 2010.06.03 18:57:09.
