data_PCOD9507933
_publ_section_title
;
Structure prediction by ZEFSAII (Michael W. Deem and Ramdas Pophale) SiO2 
 PCOD9507933
Probable space group: C C C A
;
_chemical_formula_sum "Si O2"
_cell_formula_units_Z 88
_cell_length_a 13.086010
_cell_length_b 11.171831
_cell_length_c 28.477824
_cell_angle_alpha 90.000000
_cell_angle_beta 90.000000
_cell_angle_gamma 90.000000
_cell_volume 4163.306714
_symmetry_space_group_name_H-M "C C C A"
_symmetry_group_IT_number 68
_space_group.IT_coordinate_system_code '2'
_symmetry_cell_setting 'orthorhombic'
loop_
_space_group_symop_operation_xyz
x,y,z
-x,1/2-y,z
x,1/2-y,1/2-z
-x,y,1/2-z
-x,-y,-z
x,1/2+y,-z
-x,1/2+y,1/2+z
x,-y,1/2+z
1/2+x,1/2+y,z
1/2-x,-y,z
1/2+x,-y,1/2-z
1/2-x,1/2+y,1/2-z
1/2-x,1/2-y,-z
1/2+x,y,-z
1/2-x,y,1/2+z
1/2+x,1/2-y,1/2+z
loop_
_atom_site_type_symbol
_atom_site_label
_atom_site_fract_x
_atom_site_fract_y
_atom_site_fract_z
Si Si1 0.321987 0.744263 0.544999
Si Si2 0.003340 0.060438 0.948876
Si Si3 0.784935 0.636185 0.276343
Si Si4 0.243802 0.697078 0.357017
Si Si5 0.423119 0.486229 0.848522
Si Si6 0.500000 0.448309 0.250000
O O1 0.250000 0.750000 0.500000
O O2 0.411304 0.843685 0.546569
O O3 0.385956 0.623257 0.553006
O O4 0.251152 0.772926 0.588736
O O5 0.980985 0.991915 0.899199
O O6 0.000000 0.000000 0.000000
O O7 0.733329 0.750000 0.250000
O O8 0.750000 0.500000 0.268563
O O9 0.775593 0.680813 0.329270
O O10 0.899574 0.628395 0.258051
O O11 0.345395 0.624187 0.345173
O O12 0.148453 0.606353 0.347943
O O13 0.487384 0.484583 0.800195
#
# Coordination Sequence:
#
# PCOD9507933 Si02
#       6
#    16  16  16  16  16   8
#     4  10  21  39  64  94 130 177 224 281 342 412
#     4  10  21  39  65  96 131 170 231 284 344 412
#     4  12  25  43  67  98 133 175 226 286 342 417
#     4  10  21  41  65  94 135 170 226 277 348 412
#     4  10  21  39  68  98 129 179 222 288 340 410
#     4  12  23  40  69  96 127 172 231 272 341 416
#
# _framework density 21.137043999999999
#
# number of rings (size 3 to 8) (size 9 to 14) (size 15 to 20)
#    0.000    1.455    1.818    3.545    0.000    3.636 
#    6.545    4.091    0.000    0.000    0.000    0.000 
#    0.000    0.000    0.000    0.000    0.000    0.000 
#
# Total GULP energy -245292.277741 kJ/mol
# GULP energy per Si atom -5574.824494 kJ/mol
# Density = 2.108894 g / cm^3
# Si number density = 21.137044 Si / 1000 Ang^3
#
#
#
# Elastic Constant Matrix: (Units=GPa)
#
#
# Indices 1 2 3 4 5 6 
#
# 1 53.2487 28.2995 36.3233 0.0000 0.0000 0.0000
# 2 28.2995 101.6414 42.0132 0.0000 0.0000 0.0000
# 3 36.3233 42.0132 194.2829 0.0000 0.0000 0.0000
# 4 0.0000 0.0000 0.0000 34.0432 0.0000 0.0000
# 5 0.0000 0.0000 0.0000 0.0000 39.8508 0.0000
# 6 0.0000 0.0000 0.0000 0.0000 0.0000 11.7408
#
#
#
# Elastic Compliance Matrix: (Units=1/GPa)
#
#
# Indices 1 2 3 4 5 6 
#
# 1 0.023843 -0.005267 -0.003319 0.000000 0.000000 0.000000
# 2 -0.005267 0.011968 -0.001603 0.000000 0.000000 0.000000
# 3 -0.003319 -0.001603 0.006114 0.000000 0.000000 0.000000
# 4 0.000000 0.000000 0.000000 0.029374 0.000000 0.000000
# 5 0.000000 0.000000 0.000000 0.000000 0.025094 0.000000
# 6 0.000000 0.000000 0.000000 0.000000 0.000000 0.085173
#
#
# Mechanical properties :
#
#
# Convention : Reuss Voigt Hill
#
# Bulk Modulus (GPa) = 46.40964 62.49389 54.45176
# Shear Modulus (GPa) = 23.90905 33.29607 28.60256
#
# Velocity S-wave (km/s) = 3.36690 3.97324 3.68257
# Velocity P-wave (km/s) = 6.09253 7.11893 6.62563
#
# Compressibility (1/GPa) = 0.02154725
#
# Stress axis : x y z
#
# Youngs Moduli (GPa) = 41.94159 83.55898 163.55038
#
# Poissons Ratio (x) = 0.44007 0.54278
# Poissons Ratio (y) = 0.22089 0.26222
# Poissons Ratio (z) = 0.13919 0.13397
#
# Static dielectric constant tensor:
#      x y z
#    x 1.755160 0.000000 0.000000 
#    y 0.000000 1.853610 0.000000 
#    z 0.000000 0.000000 1.825500 
# 
# From -- ./inp_files/50860.got.cif
#   From: 2010.05.17/outbox.cif.g08.bks.cpg/sg68_26_cif.got.tgz:50860.got - 2010.06.03 18:57:09.
