data_PCOD9507135
_publ_section_title
;
Structure prediction by ZEFSAII (Michael W. Deem and Ramdas Pophale) SiO2 
 PCOD9507135
Probable space group: C C C A
;
_chemical_formula_sum "Si O2"
_cell_formula_units_Z 52
_cell_length_a 13.753393
_cell_length_b 14.154509
_cell_length_c 9.794447
_cell_angle_alpha 90.000000
_cell_angle_beta 90.000000
_cell_angle_gamma 90.000000
_cell_volume 1906.709728
_symmetry_space_group_name_H-M "C C C A"
_symmetry_group_IT_number 68
_space_group.IT_coordinate_system_code '2'
_symmetry_cell_setting 'orthorhombic'
loop_
_space_group_symop_operation_xyz
x,y,z
-x,1/2-y,z
x,1/2-y,1/2-z
-x,y,1/2-z
-x,-y,-z
x,1/2+y,-z
-x,1/2+y,1/2+z
x,-y,1/2+z
1/2+x,1/2+y,z
1/2-x,-y,z
1/2+x,-y,1/2-z
1/2-x,1/2+y,1/2-z
1/2-x,1/2-y,-z
1/2+x,y,-z
1/2-x,y,1/2+z
1/2+x,1/2-y,1/2+z
loop_
_atom_site_type_symbol
_atom_site_label
_atom_site_fract_x
_atom_site_fract_y
_atom_site_fract_z
Si Si1 0.132959 0.506579 0.313455
Si Si2 0.500000 0.250000 0.750000
Si Si3 0.646365 0.622318 0.951321
Si Si4 0.624773 0.169608 0.510983
O O1 0.250000 0.500000 0.318527
O O2 0.109419 0.413306 0.401045
O O3 0.091226 0.589739 0.408048
O O4 0.116540 0.543979 0.160225
O O5 0.569262 0.188425 0.650905
O O6 0.735793 0.637503 0.454346
O O7 0.615999 0.730400 0.932538
#
# Coordination Sequence:
#
# PCOD9507135 Si02
#       4
#    16   4  16  16
#     4  10  20  38  69 107 130 167 237 294 330 398
#     4  12  28  44  66 104 152 184 222 288 364 420
#     4  10  22  40  75 102 132 175 245 287 334 405
#     4  10  24  41  67  97 143 186 224 284 350 413
#
# _framework density 27.272110999999999
#
# number of rings (size 3 to 8) (size 9 to 14) (size 15 to 20)
#    0.000    1.846    0.000    3.692   17.231    0.000 
#    0.000    4.615    0.000    0.000    0.000    0.000 
#    0.000    0.000    0.000    0.000    0.000    0.000 
#
# Total GULP energy -145400.551741 kJ/mol
# GULP energy per Si atom -5592.328913 kJ/mol
# Density = 2.721004 g / cm^3
# Si number density = 27.272111 Si / 1000 Ang^3
#
#
#
# Elastic Constant Matrix: (Units=GPa)
#
#
# Indices 1 2 3 4 5 6 
#
# 1 121.1511 44.1123 57.6868 0.0000 0.0000 0.0000
# 2 44.1123 151.7225 62.9151 0.0000 0.0000 0.0000
# 3 57.6868 62.9151 181.2583 0.0000 0.0000 0.0000
# 4 0.0000 0.0000 0.0000 63.6583 0.0000 0.0000
# 5 0.0000 0.0000 0.0000 0.0000 28.3531 0.0000
# 6 0.0000 0.0000 0.0000 0.0000 0.0000 16.8884
#
#
#
# Elastic Compliance Matrix: (Units=1/GPa)
#
#
# Indices 1 2 3 4 5 6 
#
# 1 0.010170 -0.001886 -0.002582 0.000000 0.000000 0.000000
# 2 -0.001886 0.008049 -0.002193 0.000000 0.000000 0.000000
# 3 -0.002582 -0.002193 0.007100 0.000000 0.000000 0.000000
# 4 0.000000 0.000000 0.000000 0.015709 0.000000 0.000000
# 5 0.000000 0.000000 0.000000 0.000000 0.035269 0.000000
# 6 0.000000 0.000000 0.000000 0.000000 0.000000 0.059212
#
#
# Mechanical properties :
#
#
# Convention : Reuss Voigt Hill
#
# Bulk Modulus (GPa) = 83.36226 87.06226 85.21226
# Shear Modulus (GPa) = 32.71554 41.07447 36.89500
#
# Velocity S-wave (km/s) = 3.46728 3.88506 3.68210
# Velocity P-wave (km/s) = 6.83100 7.21926 7.02781
#
# Compressibility (1/GPa) = 0.01199584
#
# Stress axis : x y z
#
# Youngs Moduli (GPa) = 98.32414 124.23928 140.84257
#
# Poissons Ratio (x) = 0.23435 0.36367
# Poissons Ratio (y) = 0.18547 0.30894
# Poissons Ratio (z) = 0.25388 0.27252
#
# Static dielectric constant tensor:
#      x y z
#    x 2.188500 0.000000 0.000000 
#    y 0.000000 2.126980 0.000000 
#    z 0.000000 0.000000 2.077370 
# 
# From -- ./inp_files/4840.got.cif
#   From: 2010.05.17/outbox.cif.g08.bks.cpg/sg68_3_cif.got.tgz:4840.got - 2010.06.03 18:57:09.
