data_PCOD9507101
_publ_section_title
;
Structure prediction by ZEFSAII (Michael W. Deem and Ramdas Pophale) SiO2 
 PCOD9507101
Probable space group: C C C A
;
_chemical_formula_sum "Si O2"
_cell_formula_units_Z 112
_cell_length_a 25.275518
_cell_length_b 13.730246
_cell_length_c 16.489917
_cell_angle_alpha 90.000000
_cell_angle_beta 90.000000
_cell_angle_gamma 90.000000
_cell_volume 5722.645624
_symmetry_space_group_name_H-M "C C C A"
_symmetry_group_IT_number 68
_space_group.IT_coordinate_system_code '2'
_symmetry_cell_setting 'orthorhombic'
loop_
_space_group_symop_operation_xyz
x,y,z
-x,1/2-y,z
x,1/2-y,1/2-z
-x,y,1/2-z
-x,-y,-z
x,1/2+y,-z
-x,1/2+y,1/2+z
x,-y,1/2+z
1/2+x,1/2+y,z
1/2-x,-y,z
1/2+x,-y,1/2-z
1/2-x,1/2+y,1/2-z
1/2-x,1/2-y,-z
1/2+x,y,-z
1/2-x,y,1/2+z
1/2+x,1/2-y,1/2+z
loop_
_atom_site_type_symbol
_atom_site_label
_atom_site_fract_x
_atom_site_fract_y
_atom_site_fract_z
Si Si1 0.581775 0.976525 0.139838
Si Si2 0.781101 0.600736 0.583504
Si Si3 0.975351 0.955345 0.417091
Si Si4 0.126770 0.008324 0.181742
Si Si5 0.363897 0.848246 0.953122
Si Si6 0.315030 0.801143 0.666942
Si Si7 0.054510 0.707996 0.532026
O O1 0.523520 0.026446 0.144468
O O2 0.606425 0.966539 0.228674
O O3 0.615067 0.051352 0.084371
O O4 0.577547 0.873801 0.092400
O O5 0.750000 0.500000 0.569092
O O6 0.827557 0.579043 0.648462
O O7 0.810744 0.633861 0.503149
O O8 0.737386 0.674199 0.616359
O O9 0.922628 0.003199 0.380648
O O10 0.960337 0.847555 0.447669
O O11 0.000000 0.000000 0.500000
O O12 0.153460 0.901223 0.182848
O O13 0.351831 0.772560 0.882036
O O14 0.406263 0.795351 0.011117
O O15 0.299757 0.750000 0.750000
O O16 0.000000 0.750000 0.566761
#
# Coordination Sequence:
#
# PCOD9507101 Si02
#       7
#    16  16  16  16  16  16  16
#     4  11  24  39  67 103 132 178 216 274 334 395
#     4  10  25  43  65  93 128 174 221 280 333 396
#     4  10  20  38  65  92 129 172 213 257 320 394
#     4  11  22  43  65  94 138 170 218 277 338 387
#     4  12  23  43  71  95 131 175 225 271 330 401
#     4  11  23  43  65  96 128 168 225 285 334 386
#     4  11  23  39  66  97 136 176 219 262 326 407
#
# _framework density 19.571368
#
# number of rings (size 3 to 8) (size 9 to 14) (size 15 to 20)
#    0.000    1.143    4.286    2.571    4.000    1.143 
#    2.571    0.000    3.143    0.000    0.000    0.000 
#    0.000    0.000    0.000    0.000    0.000    0.000 
#
# Total GULP energy -312841.902017 kJ/mol
# GULP energy per Si atom -5586.462536 kJ/mol
# Density = 1.952682 g / cm^3
# Si number density = 19.571368 Si / 1000 Ang^3
#
#
#
# Elastic Constant Matrix: (Units=GPa)
#
#
# Indices 1 2 3 4 5 6 
#
# 1 75.1591 16.6636 11.0074 0.0000 0.0000 0.0000
# 2 16.6636 76.9198 32.3485 0.0000 0.0000 0.0000
# 3 11.0074 32.3485 57.8702 0.0000 0.0000 0.0000
# 4 0.0000 0.0000 0.0000 22.8210 0.0000 0.0000
# 5 0.0000 0.0000 0.0000 0.0000 40.3476 0.0000
# 6 0.0000 0.0000 0.0000 0.0000 0.0000 21.1919
#
#
#
# Elastic Compliance Matrix: (Units=1/GPa)
#
#
# Indices 1 2 3 4 5 6 
#
# 1 0.014047 -0.002509 -0.001269 0.000000 0.000000 0.000000
# 2 -0.002509 0.017444 -0.009274 0.000000 0.000000 0.000000
# 3 -0.001269 -0.009274 0.022705 0.000000 0.000000 0.000000
# 4 0.000000 0.000000 0.000000 0.043819 0.000000 0.000000
# 5 0.000000 0.000000 0.000000 0.000000 0.024785 0.000000
# 6 0.000000 0.000000 0.000000 0.000000 0.000000 0.047188
#
#
# Mechanical properties :
#
#
# Convention : Reuss Voigt Hill
#
# Bulk Modulus (GPa) = 35.59704 36.66535 36.13120
# Shear Modulus (GPa) = 24.33592 26.86738 25.60165
#
# Velocity S-wave (km/s) = 3.53008 3.70914 3.62071
# Velocity P-wave (km/s) = 5.90280 6.09249 5.99840
#
# Compressibility (1/GPa) = 0.02809223
#
# Stress axis : x y z
#
# Youngs Moduli (GPa) = 71.18777 57.32552 44.04249
#
# Poissons Ratio (x) = 0.14385 0.05590
# Poissons Ratio (y) = 0.17864 0.40844
# Poissons Ratio (z) = 0.09035 0.53162
#
# Static dielectric constant tensor:
#      x y z
#    x 1.692050 0.000000 0.000000 
#    y 0.000000 1.688420 0.000000 
#    z 0.000000 0.000000 1.679870 
# 
# From -- ./inp_files/25428.got.cif
#   From: 2010.05.17/outbox.cif.g08.bks.cpg/sg68_13_cif.got.tgz:25428.got - 2010.06.03 18:57:09.
