data_PCOD9507027
_publ_section_title
;
Structure prediction by ZEFSAII (Michael W. Deem and Ramdas Pophale) SiO2 
 PCOD9507027
Probable space group: C C C A
;
_chemical_formula_sum "Si O2"
_cell_formula_units_Z 120
_cell_length_a 11.426626
_cell_length_b 19.469149
_cell_length_c 23.168107
_cell_angle_alpha 90.000000
_cell_angle_beta 90.000000
_cell_angle_gamma 90.000000
_cell_volume 5154.131943
_symmetry_space_group_name_H-M "C C C A"
_symmetry_group_IT_number 68
_space_group.IT_coordinate_system_code '2'
_symmetry_cell_setting 'orthorhombic'
loop_
_space_group_symop_operation_xyz
x,y,z
-x,1/2-y,z
x,1/2-y,1/2-z
-x,y,1/2-z
-x,-y,-z
x,1/2+y,-z
-x,1/2+y,1/2+z
x,-y,1/2+z
1/2+x,1/2+y,z
1/2-x,-y,z
1/2+x,-y,1/2-z
1/2-x,1/2+y,1/2-z
1/2-x,1/2-y,-z
1/2+x,y,-z
1/2-x,y,1/2+z
1/2+x,1/2-y,1/2+z
loop_
_atom_site_type_symbol
_atom_site_label
_atom_site_fract_x
_atom_site_fract_y
_atom_site_fract_z
Si Si1 0.517777 0.388290 0.412459
Si Si2 0.802440 0.824989 0.732656
Si Si3 0.613776 0.131622 0.530952
Si Si4 0.878921 0.531898 0.722246
Si Si5 0.399344 0.191513 0.179280
Si Si6 0.049065 0.535396 0.909273
Si Si7 0.250000 0.500000 0.500256
Si Si8 0.762093 0.793351 0.106742
O O1 0.437561 0.367217 0.466773
O O2 0.453847 0.373913 0.351585
O O3 0.537860 0.469666 0.415128
O O4 0.625926 0.337170 0.412132
O O5 0.851140 0.750000 0.750000
O O6 0.869584 0.889823 0.756160
O O7 0.673408 0.824974 0.763412
O O8 0.790045 0.829060 0.664089
O O9 0.514298 0.105573 0.574606
O O10 0.671052 0.200847 0.554868
O O11 0.707474 0.068921 0.531911
O O12 0.750000 0.500000 0.736530
O O13 0.895432 0.533771 0.653542
O O14 0.000000 0.502216 0.750000
O O15 0.500000 0.250000 0.185539
O O16 0.307005 0.221833 0.132516
O O17 0.145064 0.522243 0.958045
#
# Coordination Sequence:
#
# PCOD9507027 Si02
#       8
#    16  16  16  16  16  16   8  16
#     4  10  21  36  60  90 124 168 214 276 335 401
#     4  10  23  44  69  98 132 184 232 279 351 420
#     4  11  21  36  60  88 127 169 217 270 331 410
#     4  12  27  46  69 104 143 180 230 296 357 417
#     4   9  20  39  65  94 127 168 223 282 335 402
#     4  11  22  39  61  92 129 173 220 269 344 410
#     4  10  20  38  60  88 126 174 218 264 338 410
#     4  10  21  38  60  90 127 164 221 276 333 400
#
# _framework density 23.282292000000002
#
# number of rings (size 3 to 8) (size 9 to 14) (size 15 to 20)
#    0.000    1.600    0.667    4.800    3.733    6.933 
#    4.800    0.000    5.867    0.000    0.000    0.000 
#    0.000    0.000    0.000    0.000    0.000    0.000 
#
# Total GULP energy -335363.636439 kJ/mol
# GULP energy per Si atom -5589.393941 kJ/mol
# Density = 2.322930 g / cm^3
# Si number density = 23.282292 Si / 1000 Ang^3
#
#
#
# Elastic Constant Matrix: (Units=GPa)
#
#
# Indices 1 2 3 4 5 6 
#
# 1 75.7035 14.6849 24.2751 0.0000 0.0000 0.0000
# 2 14.6849 41.9646 15.8116 0.0000 0.0000 0.0000
# 3 24.2751 15.8116 79.2752 0.0000 0.0000 0.0000
# 4 0.0000 0.0000 0.0000 27.1223 0.0000 0.0000
# 5 0.0000 0.0000 0.0000 0.0000 63.7656 0.0000
# 6 0.0000 0.0000 0.0000 0.0000 0.0000 17.3694
#
#
#
# Elastic Compliance Matrix: (Units=1/GPa)
#
#
# Indices 1 2 3 4 5 6 
#
# 1 0.015204 -0.003856 -0.003886 0.000000 0.000000 0.000000
# 2 -0.003856 0.026744 -0.004153 0.000000 0.000000 0.000000
# 3 -0.003886 -0.004153 0.014633 0.000000 0.000000 0.000000
# 4 0.000000 0.000000 0.000000 0.036870 0.000000 0.000000
# 5 0.000000 0.000000 0.000000 0.000000 0.015682 0.000000
# 6 0.000000 0.000000 0.000000 0.000000 0.000000 0.057572
#
#
# Mechanical properties :
#
#
# Convention : Reuss Voigt Hill
#
# Bulk Modulus (GPa) = 30.49831 34.05406 32.27618
# Shear Modulus (GPa) = 24.82297 31.12957 27.97627
#
# Velocity S-wave (km/s) = 3.26877 3.66054 3.47019
# Velocity P-wave (km/s) = 5.23205 5.70301 5.47260
#
# Compressibility (1/GPa) = 0.03278871
#
# Stress axis : x y z
#
# Youngs Moduli (GPa) = 65.77374 37.39175 68.33968
#
# Poissons Ratio (x) = 0.14418 0.26560
# Poissons Ratio (y) = 0.25362 0.28384
# Poissons Ratio (z) = 0.25563 0.15530
#
# Static dielectric constant tensor:
#      x y z
#    x 1.947780 0.000000 0.000000 
#    y 0.000000 1.924630 0.000000 
#    z 0.000000 0.000000 1.844700 
# 
# From -- ./inp_files/44652.got.cif
#   From: 2010.05.17/outbox.cif.g08.bks.cpg/sg68_23_cif.got.tgz:44652.got - 2010.06.03 18:57:09.
