data_PCOD9507018
_publ_section_title
;
Structure prediction by ZEFSAII (Michael W. Deem and Ramdas Pophale) SiO2 
 PCOD9507018
Probable space group: C C C A
;
_chemical_formula_sum "Si O2"
_cell_formula_units_Z 60
_cell_length_a 11.615434
_cell_length_b 9.695162
_cell_length_c 24.444609
_cell_angle_alpha 90.000000
_cell_angle_beta 90.000000
_cell_angle_gamma 90.000000
_cell_volume 2752.793326
_symmetry_space_group_name_H-M "C C C A"
_symmetry_group_IT_number 68
_space_group.IT_coordinate_system_code '2'
_symmetry_cell_setting 'orthorhombic'
loop_
_space_group_symop_operation_xyz
x,y,z
-x,1/2-y,z
x,1/2-y,1/2-z
-x,y,1/2-z
-x,-y,-z
x,1/2+y,-z
-x,1/2+y,1/2+z
x,-y,1/2+z
1/2+x,1/2+y,z
1/2-x,-y,z
1/2+x,-y,1/2-z
1/2-x,1/2+y,1/2-z
1/2-x,1/2-y,-z
1/2+x,y,-z
1/2-x,y,1/2+z
1/2+x,1/2-y,1/2+z
loop_
_atom_site_type_symbol
_atom_site_label
_atom_site_fract_x
_atom_site_fract_y
_atom_site_fract_z
Si Si1 0.000000 0.750000 0.358574
Si Si2 0.000000 0.750000 0.750000
Si Si3 0.574797 0.114828 0.561910
Si Si4 0.139305 0.408208 0.943182
Si Si5 0.624761 0.977557 0.178212
O O1 0.106637 0.706835 0.398612
O O2 0.954558 0.616056 0.325252
O O3 0.931655 0.646227 0.788853
O O4 0.500000 0.250000 0.570812
O O5 0.648393 0.135600 0.506788
O O6 0.641821 0.076575 0.616203
O O7 0.478023 0.997010 0.556368
O O8 0.250000 0.500000 0.928486
O O9 0.750000 0.000000 0.203069
#
# Coordination Sequence:
#
# PCOD9507018 Si02
#       5
#     8   4  16  16  16
#     4  10  24  42  64 102 132 170 224 258 314 410
#     4  12  28  48  68  98 120 156 232 284 332 414
#     4  10  20  38  59  96 135 170 225 257 303 400
#     4  10  21  35  60  94 138 181 210 255 312 377
#     4  11  26  46  71  96 130 171 214 280 340 383
#
# _framework density 21.796043999999998
#
# number of rings (size 3 to 8) (size 9 to 14) (size 15 to 20)
#    0.000    1.600    2.667    0.800    3.733    3.733 
#    0.000    1.333    0.000    0.000    0.000    0.000 
#    0.000    0.000    0.000    0.000    0.000    0.000 
#
# Total GULP energy -167507.318664 kJ/mol
# GULP energy per Si atom -5583.577289 kJ/mol
# Density = 2.174643 g / cm^3
# Si number density = 21.796044 Si / 1000 Ang^3
#
#
#
# Elastic Constant Matrix: (Units=GPa)
#
#
# Indices 1 2 3 4 5 6 
#
# 1 109.7975 55.3993 53.7580 0.0000 0.0000 0.0000
# 2 55.3993 150.4204 60.3115 0.0000 0.0000 0.0000
# 3 53.7580 60.3115 81.1598 0.0000 0.0000 0.0000
# 4 0.0000 0.0000 0.0000 28.9696 0.0000 0.0000
# 5 0.0000 0.0000 0.0000 0.0000 -9.9930 0.0000
# 6 0.0000 0.0000 0.0000 0.0000 0.0000 45.3629
#
#
#
# Elastic Compliance Matrix: (Units=1/GPa)
#
#
# Indices 1 2 3 4 5 6 
#
# 1 0.013903 -0.002034 -0.007697 0.000000 0.000000 0.000000
# 2 -0.002034 0.009767 -0.005911 0.000000 0.000000 0.000000
# 3 -0.007697 -0.005911 0.021812 0.000000 0.000000 0.000000
# 4 0.000000 0.000000 0.000000 0.034519 0.000000 0.000000
# 5 0.000000 0.000000 0.000000 0.000000 -0.100070 0.000000
# 6 0.000000 0.000000 0.000000 0.000000 0.000000 0.022044
#
#
# Mechanical properties :
#
#
# Convention : Reuss Voigt Hill
#
# Bulk Modulus (GPa) = 70.43327 75.59059 73.01193
# Shear Modulus (GPa) = 131.60608 24.32849 77.96729
#
# Velocity S-wave (km/s) = 7.77893 3.34456 5.98740
# Velocity P-wave (km/s) = 10.63331 7.04776 9.02048
#
# Compressibility (1/GPa) = 0.01419784
#
# Stress axis : x y z
#
# Youngs Moduli (GPa) = 71.92907 102.38399 45.84587
#
# Poissons Ratio (x) = 0.20826 0.35288
# Poissons Ratio (y) = 0.14631 0.27099
# Poissons Ratio (z) = 0.55365 0.60518
#
# Static dielectric constant tensor:
#      x y z
#    x 1.739050 0.000000 0.000000 
#    y 0.000000 1.915570 0.000000 
#    z 0.000000 0.000000 1.844970 
# 
# From -- ./inp_files/48770.got.cif
#   From: 2010.05.17/outbox.cif.g08.bks.cpg/sg68_25_cif.got.tgz:48770.got - 2010.06.03 18:57:09.
