data_PCOD9507908
_publ_section_title
;
Structure prediction by ZEFSAII (Michael W. Deem and Ramdas Pophale) SiO2 
 PCOD9507908
Probable space group: C C C A
;
_chemical_formula_sum "Si O2"
_cell_formula_units_Z 52
_cell_length_a 21.306332
_cell_length_b 5.090256
_cell_length_c 23.092192
_cell_angle_alpha 90.000000
_cell_angle_beta 90.000000
_cell_angle_gamma 90.000000
_cell_volume 2504.456393
_symmetry_space_group_name_H-M "C C C A"
_symmetry_group_IT_number 68
_space_group.IT_coordinate_system_code '2'
_symmetry_cell_setting 'orthorhombic'
loop_
_space_group_symop_operation_xyz
x,y,z
-x,1/2-y,z
x,1/2-y,1/2-z
-x,y,1/2-z
-x,-y,-z
x,1/2+y,-z
-x,1/2+y,1/2+z
x,-y,1/2+z
1/2+x,1/2+y,z
1/2-x,-y,z
1/2+x,-y,1/2-z
1/2-x,1/2+y,1/2-z
1/2-x,1/2-y,-z
1/2+x,y,-z
1/2-x,y,1/2+z
1/2+x,1/2-y,1/2+z
loop_
_atom_site_type_symbol
_atom_site_label
_atom_site_fract_x
_atom_site_fract_y
_atom_site_fract_z
Si Si1 0.605960 0.624518 0.834464
Si Si2 0.575431 0.256196 0.033558
Si Si3 0.000000 0.750000 0.250000
Si Si4 0.812266 0.124728 0.311784
O O1 0.589418 0.702172 0.899831
O O2 0.544945 0.585291 0.793573
O O3 0.649536 0.367422 0.838382
O O4 0.641544 0.877078 0.807909
O O5 0.500000 0.250000 0.028739
O O6 0.599480 0.531334 0.009500
O O7 0.792655 0.250000 0.250000
O O8 0.750000 0.000000 0.340153
#
# Coordination Sequence:
#
# PCOD9507908 Si02
#       4
#    16  16   4  16
#     4  12  24  41  67  96 140 165 210 282 324 403
#     4  10  21  39  62  91 127 174 217 258 322 400
#     4  12  24  42  60 114 136 170 200 266 372 390
#     4  12  24  42  64  93 129 180 222 259 321 396
#
# _framework density 20.762989000000001
#
# number of rings (size 3 to 8) (size 9 to 14) (size 15 to 20)
#    0.000    0.615    4.615    4.615    0.000    2.462 
#    0.000    0.000    0.000   18.462    0.000    0.000 
#    0.000    0.000    0.000    0.000    0.000    0.000 
#
# Total GULP energy -145150.824542 kJ/mol
# GULP energy per Si atom -5582.724021 kJ/mol
# Density = 2.071573 g / cm^3
# Si number density = 20.762989 Si / 1000 Ang^3
#
#
#
# Elastic Constant Matrix: (Units=GPa)
#
#
# Indices 1 2 3 4 5 6 
#
# 1 77.1417 56.8400 34.3532 0.0000 0.0000 0.0000
# 2 56.8400 162.0905 40.6647 0.0000 0.0000 0.0000
# 3 34.3532 40.6647 125.3821 0.0000 0.0000 0.0000
# 4 0.0000 0.0000 0.0000 30.1615 0.0000 0.0000
# 5 0.0000 0.0000 0.0000 0.0000 -1.4569 0.0000
# 6 0.0000 0.0000 0.0000 0.0000 0.0000 -3.4423
#
#
#
# Elastic Compliance Matrix: (Units=1/GPa)
#
#
# Indices 1 2 3 4 5 6 
#
# 1 0.018620 -0.005715 -0.003248 0.000000 0.000000 0.000000
# 2 -0.005715 0.008470 -0.001181 0.000000 0.000000 0.000000
# 3 -0.003248 -0.001181 0.009249 0.000000 0.000000 0.000000
# 4 0.000000 0.000000 0.000000 0.033155 0.000000 0.000000
# 5 0.000000 0.000000 0.000000 0.000000 -0.686392 0.000000
# 6 0.000000 0.000000 0.000000 0.000000 0.000000 -0.290506
#
#
# Mechanical properties :
#
#
# Convention : Reuss Voigt Hill
#
# Bulk Modulus (GPa) = 62.30370 69.81445 66.05908
# Shear Modulus (GPa) = -5.67044 20.56955 7.44956
#
# Velocity S-wave (km/s) = -1.65438 3.15093 1.89623
# Velocity P-wave (km/s) = 5.14033 6.85093 6.05633
#
# Compressibility (1/GPa) = 0.01605041
#
# Stress axis : x y z
#
# Youngs Moduli (GPa) = 53.70434 118.06819 108.12296
#
# Poissons Ratio (x) = 0.67472 0.35122
# Poissons Ratio (y) = 0.30690 0.12771
# Poissons Ratio (z) = 0.17445 0.13946
#
# Static dielectric constant tensor:
#      x y z
#    x 1.789820 0.000000 0.000000 
#    y 0.000000 1.761530 0.000000 
#    z 0.000000 0.000000 1.736460 
# 
# From -- ./inp_files/34826.got.cif
#   From: 2010.05.17/outbox.cif.g08.bks.cpg/sg68_18_cif.got.tgz:34826.got - 2010.06.03 18:57:09.
