data_PCOD9507855
_publ_section_title
;
Structure prediction by ZEFSAII (Michael W. Deem and Ramdas Pophale) SiO2 
 PCOD9507855
Probable space group: C C C A
;
_chemical_formula_sum "Si O2"
_cell_formula_units_Z 64
_cell_length_a 5.249245
_cell_length_b 35.648386
_cell_length_c 14.217209
_cell_angle_alpha 90.000000
_cell_angle_beta 90.000000
_cell_angle_gamma 90.000000
_cell_volume 2660.425260
_symmetry_space_group_name_H-M "C C C A"
_symmetry_group_IT_number 68
_space_group.IT_coordinate_system_code '2'
_symmetry_cell_setting 'orthorhombic'
loop_
_space_group_symop_operation_xyz
x,y,z
-x,1/2-y,z
x,1/2-y,1/2-z
-x,y,1/2-z
-x,-y,-z
x,1/2+y,-z
-x,1/2+y,1/2+z
x,-y,1/2+z
1/2+x,1/2+y,z
1/2-x,-y,z
1/2+x,-y,1/2-z
1/2-x,1/2+y,1/2-z
1/2-x,1/2-y,-z
1/2+x,y,-z
1/2-x,y,1/2+z
1/2+x,1/2-y,1/2+z
loop_
_atom_site_type_symbol
_atom_site_label
_atom_site_fract_x
_atom_site_fract_y
_atom_site_fract_z
Si Si1 0.741465 0.958301 0.063452
Si Si2 0.551951 0.383801 0.359005
Si Si3 0.444786 0.150889 0.637149
Si Si4 0.747113 0.733088 0.105797
O O1 0.815494 0.924193 0.131266
O O2 0.750000 0.000000 0.107245
O O3 0.464606 0.955876 0.015457
O O4 0.500000 0.374850 0.250000
O O5 0.261922 0.380334 0.395561
O O6 0.767678 0.355681 0.400072
O O7 0.500000 0.150594 0.750000
O O8 0.301622 0.189005 0.609140
O O9 0.500000 0.750000 0.152321
O O10 0.000000 0.750000 0.148926
O O11 0.750000 0.750000 0.000000
#
# Coordination Sequence:
#
# PCOD9507855 Si02
#       4
#    16  16  16  16
#     4  10  21  40  61  91 130 165 205 256 311 369
#     4  10  21  40  62  91 124 161 211 256 305 374
#     4  10  21  39  61  85 120 160 203 257 315 368
#     4  10  21  39  56  83 119 153 197 260 304 371
#
# _framework density 24.056301999999999
#
# number of rings (size 3 to 8) (size 9 to 14) (size 15 to 20)
#    0.000    2.000    0.000    3.000    0.000    0.500 
#   27.000    8.750    0.000    0.000    0.000    0.000 
#    0.000    0.000    0.000    0.000    0.000    0.000 
#
# Total GULP energy -178496.623372 kJ/mol
# GULP energy per Si atom -5578.019480 kJ/mol
# Density = 2.400155 g / cm^3
# Si number density = 24.056302 Si / 1000 Ang^3
#
#
#
# Elastic Constant Matrix: (Units=GPa)
#
#
# Indices 1 2 3 4 5 6 
#
# 1 216.3852 83.3075 22.7800 0.0000 0.0000 0.0000
# 2 83.3075 137.7101 -2.9501 0.0000 0.0000 0.0000
# 3 22.7800 -2.9501 88.0353 0.0000 0.0000 0.0000
# 4 0.0000 0.0000 0.0000 176.1522 0.0000 0.0000
# 5 0.0000 0.0000 0.0000 0.0000 -39.0840 0.0000
# 6 0.0000 0.0000 0.0000 0.0000 0.0000 44.7986
#
#
#
# Elastic Compliance Matrix: (Units=1/GPa)
#
#
# Indices 1 2 3 4 5 6 
#
# 1 0.006284 -0.003839 -0.001755 0.000000 0.000000 0.000000
# 2 -0.003839 0.009612 0.001316 0.000000 0.000000 0.000000
# 3 -0.001755 0.001316 0.011857 0.000000 0.000000 0.000000
# 4 0.000000 0.000000 0.000000 0.005677 0.000000 0.000000
# 5 0.000000 0.000000 0.000000 0.000000 -0.025586 0.000000
# 6 0.000000 0.000000 0.000000 0.000000 0.000000 0.022322
#
#
# Mechanical properties :
#
#
# Convention : Reuss Voigt Hill
#
# Bulk Modulus (GPa) = 52.09169 72.04505 62.06837
# Shear Modulus (GPa) = 110.80912 58.97292 84.89102
#
# Velocity S-wave (km/s) = 6.79429 4.95659 5.94685
# Velocity P-wave (km/s) = 9.12420 7.92279 8.54463
#
# Compressibility (1/GPa) = 0.01919692
#
# Stress axis : x y z
#
# Youngs Moduli (GPa) = 159.12926 104.03302 84.33683
#
# Poissons Ratio (x) = 0.39940 0.14799
# Poissons Ratio (y) = 0.61093 -0.11095
# Poissons Ratio (z) = 0.27923 -0.13686
#
# Static dielectric constant tensor:
#      x y z
#    x 1.941660 0.000000 0.000000 
#    y 0.000000 1.993160 0.000000 
#    z 0.000000 0.000000 1.900120 
# 
# From -- ./inp_files/27133.got.cif
#   From: 2010.05.17/outbox.cif.g08.bks.cpg/sg68_14_cif.got.tgz:27133.got - 2010.06.03 18:57:09.
