data_PCOD9507571
_publ_section_title
;
Structure prediction by ZEFSAII (Michael W. Deem and Ramdas Pophale) SiO2 
 PCOD9507571
Probable space group: C C C A
;
_chemical_formula_sum "Si O2"
_cell_formula_units_Z 68
_cell_length_a 20.855657
_cell_length_b 16.652625
_cell_length_c 9.092429
_cell_angle_alpha 90.000000
_cell_angle_beta 90.000000
_cell_angle_gamma 90.000000
_cell_volume 3157.813641
_symmetry_space_group_name_H-M "C C C A"
_symmetry_group_IT_number 68
_space_group.IT_coordinate_system_code '2'
_symmetry_cell_setting 'orthorhombic'
loop_
_space_group_symop_operation_xyz
x,y,z
-x,1/2-y,z
x,1/2-y,1/2-z
-x,y,1/2-z
-x,-y,-z
x,1/2+y,-z
-x,1/2+y,1/2+z
x,-y,1/2+z
1/2+x,1/2+y,z
1/2-x,-y,z
1/2+x,-y,1/2-z
1/2-x,1/2+y,1/2-z
1/2-x,1/2-y,-z
1/2+x,y,-z
1/2-x,y,1/2+z
1/2+x,1/2-y,1/2+z
loop_
_atom_site_type_symbol
_atom_site_label
_atom_site_fract_x
_atom_site_fract_y
_atom_site_fract_z
Si Si1 0.848332 0.061018 0.328516
Si Si2 0.000000 0.750000 0.250000
Si Si3 0.299309 0.886282 0.668626
Si Si4 0.660304 0.809062 0.122416
Si Si5 0.612621 0.828079 0.581548
O O1 0.773424 0.086510 0.305391
O O2 0.876952 0.116665 0.198771
O O3 0.876972 0.093889 0.480252
O O4 0.844731 0.965514 0.329727
O O5 0.953600 0.690130 0.338915
O O6 0.297169 0.846668 0.507408
O O7 0.331132 0.833324 0.796213
O O8 0.688578 0.750000 0.250000
O O9 0.618774 0.746550 0.029500
#
# Coordination Sequence:
#
# PCOD9507571 Si02
#       5
#    16   4  16  16  16
#     4  10  23  37  64  99 135 160 205 257 330 393
#     4  12  24  48  62  84 120 180 228 270 316 356
#     4  11  20  40  63  97 136 169 192 259 332 394
#     4  10  21  36  56  93 125 162 212 249 301 378
#     4  11  23  41  67  88 128 174 213 264 313 379
#
# _framework density 21.533885000000001
#
# number of rings (size 3 to 8) (size 9 to 14) (size 15 to 20)
#    0.000    1.412    2.353    2.824    0.000   14.118 
#    2.118    6.471    0.000    0.000    0.000    0.000 
#    0.000    0.000    0.000    0.000    0.000    0.000 
#
# Total GULP energy -189488.471926 kJ/mol
# GULP energy per Si atom -5573.190351 kJ/mol
# Density = 2.148487 g / cm^3
# Si number density = 21.533885 Si / 1000 Ang^3
#
#
#
# Elastic Constant Matrix: (Units=GPa)
#
#
# Indices 1 2 3 4 5 6 
#
# 1 69.4780 11.6502 33.9293 0.0000 0.0000 0.0000
# 2 11.6502 114.3013 31.9004 0.0000 0.0000 0.0000
# 3 33.9293 31.9004 139.2447 0.0000 0.0000 0.0000
# 4 0.0000 0.0000 0.0000 20.9951 0.0000 0.0000
# 5 0.0000 0.0000 0.0000 0.0000 51.3996 0.0000
# 6 0.0000 0.0000 0.0000 0.0000 0.0000 10.2132
#
#
#
# Elastic Compliance Matrix: (Units=1/GPa)
#
#
# Indices 1 2 3 4 5 6 
#
# 1 0.016375 -0.000593 -0.003854 0.000000 0.000000 0.000000
# 2 -0.000593 0.009368 -0.002002 0.000000 0.000000 0.000000
# 3 -0.003854 -0.002002 0.008579 0.000000 0.000000 0.000000
# 4 0.000000 0.000000 0.000000 0.047630 0.000000 0.000000
# 5 0.000000 0.000000 0.000000 0.000000 0.019455 0.000000
# 6 0.000000 0.000000 0.000000 0.000000 0.000000 0.097913
#
#
# Mechanical properties :
#
#
# Convention : Reuss Voigt Hill
#
# Bulk Modulus (GPa) = 46.67690 53.10934 49.89312
# Shear Modulus (GPa) = 22.79367 32.89118 27.84242
#
# Velocity S-wave (km/s) = 3.25699 3.91246 3.59967
# Velocity P-wave (km/s) = 5.98891 6.71762 6.36371
#
# Compressibility (1/GPa) = 0.02142387
#
# Stress axis : x y z
#
# Youngs Moduli (GPa) = 61.07010 106.74742 116.56036
#
# Poissons Ratio (x) = 0.06334 0.44923
# Poissons Ratio (y) = 0.03624 0.23330
# Poissons Ratio (z) = 0.23536 0.21366
#
# Static dielectric constant tensor:
#      x y z
#    x 1.749860 0.000000 0.000000 
#    y 0.000000 1.865480 0.000000 
#    z 0.000000 0.000000 1.858170 
# 
# From -- ./inp_files/5910.got.cif
#   From: 2010.05.17/outbox.cif.g08.bks.cpg/sg68_3_cif.got.tgz:5910.got - 2010.06.03 18:57:09.
