data_PCOD9507080
_publ_section_title
;
Structure prediction by ZEFSAII (Michael W. Deem and Ramdas Pophale) SiO2 
 PCOD9507080
Probable space group: C C C A
;
_chemical_formula_sum "Si O2"
_cell_formula_units_Z 72
_cell_length_a 8.503166
_cell_length_b 13.291250
_cell_length_c 29.958799
_cell_angle_alpha 90.000000
_cell_angle_beta 90.000000
_cell_angle_gamma 90.000000
_cell_volume 3385.874710
_symmetry_space_group_name_H-M "C C C A"
_symmetry_group_IT_number 68
_space_group.IT_coordinate_system_code '2'
_symmetry_cell_setting 'orthorhombic'
loop_
_space_group_symop_operation_xyz
x,y,z
-x,1/2-y,z
x,1/2-y,1/2-z
-x,y,1/2-z
-x,-y,-z
x,1/2+y,-z
-x,1/2+y,1/2+z
x,-y,1/2+z
1/2+x,1/2+y,z
1/2-x,-y,z
1/2+x,-y,1/2-z
1/2-x,1/2+y,1/2-z
1/2-x,1/2-y,-z
1/2+x,y,-z
1/2-x,y,1/2+z
1/2+x,1/2-y,1/2+z
loop_
_atom_site_type_symbol
_atom_site_label
_atom_site_fract_x
_atom_site_fract_y
_atom_site_fract_z
Si Si1 0.428985 0.963201 0.203639
Si Si2 0.512578 0.557910 0.934188
Si Si3 0.558184 0.855202 0.122685
Si Si4 0.080060 0.650194 0.155461
Si Si5 0.750000 0.500000 0.499909
O O1 0.500000 0.925630 0.250000
O O2 0.536944 0.056665 0.187010
O O3 0.250000 0.000000 0.208124
O O4 0.445347 0.881931 0.164449
O O5 0.540509 0.447719 0.911683
O O6 0.496669 0.629843 0.892283
O O7 0.367272 0.555974 0.967173
O O8 0.658585 0.575070 0.966996
O O9 0.500000 0.750000 0.103064
O O10 0.735327 0.848846 0.142700
O O11 0.000000 0.750000 0.174584
#
# Coordination Sequence:
#
# PCOD9507080 Si02
#       5
#    16  16  16  16   8
#     4  11  23  42  67  93 123 159 198 246 299 358
#     4  10  21  40  61  85 123 160 207 249 310 351
#     4  11  23  40  62  91 125 162 203 248 301 361
#     4  11  23  40  62  91 125 162 203 248 301 361
#     4  10  20  38  64  84 118 164 200 260 302 358
#
# _framework density 21.264816
#
# number of rings (size 3 to 8) (size 9 to 14) (size 15 to 20)
#    0.000    1.333    2.222    4.667    9.333    0.889 
#    0.000   11.111    0.000    0.000    0.000    0.000 
#    0.000    0.000    0.000    0.000    0.000    0.000 
#
# Total GULP energy -201081.714121 kJ/mol
# GULP energy per Si atom -5585.603170 kJ/mol
# Density = 2.121642 g / cm^3
# Si number density = 21.264816 Si / 1000 Ang^3
#
#
#
# Elastic Constant Matrix: (Units=GPa)
#
#
# Indices 1 2 3 4 5 6 
#
# 1 71.8831 -5.7164 16.2682 0.0000 0.0000 0.0000
# 2 -5.7164 76.8849 -9.3767 0.0000 0.0000 0.0000
# 3 16.2682 -9.3767 86.9731 0.0000 0.0000 0.0000
# 4 0.0000 0.0000 0.0000 0.4335 0.0000 0.0000
# 5 0.0000 0.0000 0.0000 0.0000 18.3386 0.0000
# 6 0.0000 0.0000 0.0000 0.0000 0.0000 19.4262
#
#
#
# Elastic Compliance Matrix: (Units=1/GPa)
#
#
# Indices 1 2 3 4 5 6 
#
# 1 0.014570 0.000761 -0.002643 0.000000 0.000000 0.000000
# 2 0.000761 0.013219 0.001283 0.000000 0.000000 0.000000
# 3 -0.002643 0.001283 0.012131 0.000000 0.000000 0.000000
# 4 0.000000 0.000000 0.000000 2.306963 0.000000 0.000000
# 5 0.000000 0.000000 0.000000 0.000000 0.054530 0.000000
# 6 0.000000 0.000000 0.000000 0.000000 0.000000 0.051477
#
#
# Mechanical properties :
#
#
# Convention : Reuss Voigt Hill
#
# Bulk Modulus (GPa) = 25.82563 26.45460 26.14011
# Shear Modulus (GPa) = 2.02676 23.27737 12.65206
#
# Velocity S-wave (km/s) = 0.97733 3.31213 2.44186
# Velocity P-wave (km/s) = 3.66670 5.20524 4.50218
#
# Compressibility (1/GPa) = 0.03872123
#
# Stress axis : x y z
#
# Youngs Moduli (GPa) = 68.63323 75.64591 82.43655
#
# Poissons Ratio (x) = -0.05756 0.21790
# Poissons Ratio (y) = -0.05222 -0.10576
# Poissons Ratio (z) = 0.18142 -0.09704
#
# Static dielectric constant tensor:
#      x y z
#    x 1.817970 0.000000 0.000000 
#    y 0.000000 1.733050 0.000000 
#    z 0.000000 0.000000 1.723100 
# 
# From -- ./inp_files/53904.got.cif
#   From: 2010.05.17/outbox.cif.g08.bks.cpg/sg68_27_cif.got.tgz:53904.got - 2010.06.03 18:57:09.
