data_PCOD9507928
_publ_section_title
;
Structure prediction by ZEFSAII (Michael W. Deem and Ramdas Pophale) SiO2 
 PCOD9507928
Probable space group: C C C A
;
_chemical_formula_sum "Si O2"
_cell_formula_units_Z 112
_cell_length_a 14.707024
_cell_length_b 14.730855
_cell_length_c 26.150963
_cell_angle_alpha 90.000000
_cell_angle_beta 90.000000
_cell_angle_gamma 90.000000
_cell_volume 5665.528675
_symmetry_space_group_name_H-M "C C C A"
_symmetry_group_IT_number 68
_space_group.IT_coordinate_system_code '2'
_symmetry_cell_setting 'orthorhombic'
loop_
_space_group_symop_operation_xyz
x,y,z
-x,1/2-y,z
x,1/2-y,1/2-z
-x,y,1/2-z
-x,-y,-z
x,1/2+y,-z
-x,1/2+y,1/2+z
x,-y,1/2+z
1/2+x,1/2+y,z
1/2-x,-y,z
1/2+x,-y,1/2-z
1/2-x,1/2+y,1/2-z
1/2-x,1/2-y,-z
1/2+x,y,-z
1/2-x,y,1/2+z
1/2+x,1/2-y,1/2+z
loop_
_atom_site_type_symbol
_atom_site_label
_atom_site_fract_x
_atom_site_fract_y
_atom_site_fract_z
Si Si1 0.392991 0.999447 0.261734
Si Si2 0.409791 0.313986 0.949678
Si Si3 0.512591 0.982482 0.060139
Si Si4 0.250177 0.850774 0.224931
Si Si5 0.255965 0.752606 0.376081
Si Si6 0.076713 0.176154 0.929506
Si Si7 0.163957 0.061298 0.370686
O O1 0.500000 0.003515 0.250000
O O2 0.338975 0.913215 0.236766
O O3 0.383405 0.986122 0.322661
O O4 0.335018 0.088255 0.244562
O O5 0.500000 0.250000 0.943225
O O6 0.433589 0.412680 0.925798
O O7 0.320635 0.277713 0.922351
O O8 0.395802 0.325571 0.010487
O O9 0.529306 0.080795 0.083948
O O10 0.603414 0.931526 0.078621
O O11 0.500000 0.000000 0.000000
O O12 0.251908 0.750000 0.250000
O O13 0.243448 0.827006 0.164798
O O14 0.162345 0.794301 0.396498
O O15 0.307339 0.839381 0.352182
O O16 0.000000 0.250000 0.923727
O O17 0.250000 0.000000 0.383980
#
# Coordination Sequence:
#
# PCOD9507928 Si02
#       7
#    16  16  16  16  16  16  16
#     4  11  26  46  71  96 138 178 225 294 347 408
#     4  10  21  39  63  98 134 166 222 283 336 408
#     4  10  22  40  63  95 133 167 221 277 330 403
#     4  11  24  47  65 102 136 167 232 288 332 412
#     4  12  23  40  68  95 133 177 221 283 345 402
#     4  10  23  42  62  91 132 181 226 270 332 412
#     4  12  21  42  72  96 125 183 231 270 345 422
#
# _framework density 19.768675000000002
#
# number of rings (size 3 to 8) (size 9 to 14) (size 15 to 20)
#    0.000    1.143    5.714    0.429    2.000    1.714 
#    2.571    0.000    0.000    0.000    0.000    0.000 
#    0.000    0.000    0.000    0.000    0.000    0.000 
#
# Total GULP energy -312269.908122 kJ/mol
# GULP energy per Si atom -5576.248359 kJ/mol
# Density = 1.972368 g / cm^3
# Si number density = 19.768675 Si / 1000 Ang^3
#
#
#
# Elastic Constant Matrix: (Units=GPa)
#
#
# Indices 1 2 3 4 5 6 
#
# 1 92.2527 45.4372 32.1081 0.0000 0.0000 0.0000
# 2 45.4372 137.0210 34.6663 0.0000 0.0000 0.0000
# 3 32.1081 34.6663 73.1402 0.0000 0.0000 0.0000
# 4 0.0000 0.0000 0.0000 39.2108 0.0000 0.0000
# 5 0.0000 0.0000 0.0000 0.0000 13.6527 0.0000
# 6 0.0000 0.0000 0.0000 0.0000 0.0000 21.0441
#
#
#
# Elastic Compliance Matrix: (Units=1/GPa)
#
#
# Indices 1 2 3 4 5 6 
#
# 1 0.014167 -0.003550 -0.004537 0.000000 0.000000 0.000000
# 2 -0.003550 0.009182 -0.002794 0.000000 0.000000 0.000000
# 3 -0.004537 -0.002794 0.016988 0.000000 0.000000 0.000000
# 4 0.000000 0.000000 0.000000 0.025503 0.000000 0.000000
# 5 0.000000 0.000000 0.000000 0.000000 0.073245 0.000000
# 6 0.000000 0.000000 0.000000 0.000000 0.000000 0.047519
#
#
# Mechanical properties :
#
#
# Convention : Reuss Voigt Hill
#
# Bulk Modulus (GPa) = 53.83106 58.53745 56.18425
# Shear Modulus (GPa) = 23.30367 27.46169 25.38268
#
# Velocity S-wave (km/s) = 3.43712 3.73118 3.58716
# Velocity P-wave (km/s) = 6.56059 6.94534 6.75570
#
# Compressibility (1/GPa) = 0.01857664
#
# Stress axis : x y z
#
# Youngs Moduli (GPa) = 70.58490 108.90627 58.86502
#
# Poissons Ratio (x) = 0.38664 0.26705
# Poissons Ratio (y) = 0.25059 0.16444
# Poissons Ratio (z) = 0.32022 0.30424
#
# Static dielectric constant tensor:
#      x y z
#    x 1.683940 0.000000 0.000000 
#    y 0.000000 1.770760 0.000000 
#    z 0.000000 0.000000 1.748580 
# 
# From -- ./inp_files/50967.got.cif
#   From: 2010.05.17/outbox.cif.g08.bks.cpg/sg68_26_cif.got.tgz:50967.got - 2010.06.03 18:57:09.
