data_PCOD9507924
_publ_section_title
;
Structure prediction by ZEFSAII (Michael W. Deem and Ramdas Pophale) SiO2 
 PCOD9507924
Probable space group: C C C A
;
_chemical_formula_sum "Si O2"
_cell_formula_units_Z 120
_cell_length_a 24.613504
_cell_length_b 12.017363
_cell_length_c 18.541321
_cell_angle_alpha 90.000000
_cell_angle_beta 90.000000
_cell_angle_gamma 90.000000
_cell_volume 5484.326441
_symmetry_space_group_name_H-M "C C C A"
_symmetry_group_IT_number 68
_space_group.IT_coordinate_system_code '2'
_symmetry_cell_setting 'orthorhombic'
loop_
_space_group_symop_operation_xyz
x,y,z
-x,1/2-y,z
x,1/2-y,1/2-z
-x,y,1/2-z
-x,-y,-z
x,1/2+y,-z
-x,1/2+y,1/2+z
x,-y,1/2+z
1/2+x,1/2+y,z
1/2-x,-y,z
1/2+x,-y,1/2-z
1/2-x,1/2+y,1/2-z
1/2-x,1/2-y,-z
1/2+x,y,-z
1/2-x,y,1/2+z
1/2+x,1/2-y,1/2+z
loop_
_atom_site_type_symbol
_atom_site_label
_atom_site_fract_x
_atom_site_fract_y
_atom_site_fract_z
Si Si1 0.179085 0.724917 0.461029
Si Si2 0.928226 0.605999 0.885723
Si Si3 0.918312 0.063318 0.945956
Si Si4 0.308911 0.750000 0.750000
Si Si5 0.763329 0.128671 0.367583
Si Si6 0.878064 0.676288 0.598730
Si Si7 0.630680 0.103234 0.143813
Si Si8 0.010510 0.413429 0.666971
O O1 0.137555 0.629597 0.432574
O O2 0.238320 0.674906 0.443666
O O3 0.154225 0.751241 0.538653
O O4 0.166574 0.838134 0.417079
O O5 0.919470 0.734451 0.869675
O O6 0.875227 0.529382 0.865788
O O7 0.975091 0.544792 0.841133
O O8 0.937439 0.585622 0.971652
O O9 0.906278 0.932362 0.934427
O O10 0.961955 0.105198 0.888049
O O11 0.270910 0.801295 0.689209
O O12 0.345543 0.848859 0.782396
O O13 0.827280 0.140231 0.353228
O O14 0.750000 0.000000 0.363858
O O15 0.567285 0.139781 0.139946
O O16 0.000000 0.385064 0.750000
#
# Coordination Sequence:
#
# PCOD9507924 Si02
#       8
#    16  16  16   8  16  16  16  16
#     4  10  21  39  63  93 127 157 209 275 314 371
#     4   9  22  41  62  91 131 164 213 261 318 384
#     4  11  21  39  65  93 127 167 209 268 319 382
#     4  10  24  42  65  88 132 165 210 274 316 382
#     4  11  23  40  63  94 122 166 216 260 320 389
#     4  11  21  40  64  91 125 166 210 259 325 374
#     4   9  21  41  62  90 127 162 209 261 322 373
#     4  10  23  40  63  95 125 170 217 260 320 385
#
# _framework density 21.880535999999999
#
# number of rings (size 3 to 8) (size 9 to 14) (size 15 to 20)
#    0.800    1.067    2.667    0.800    3.733    2.133 
#    2.400    5.333    0.000    0.000    0.000    0.000 
#    0.000    0.000    0.000    0.000    0.000    0.000 
#
# Total GULP energy -334517.119364 kJ/mol
# GULP energy per Si atom -5575.285323 kJ/mol
# Density = 2.183073 g / cm^3
# Si number density = 21.880536 Si / 1000 Ang^3
#
#
#
# Elastic Constant Matrix: (Units=GPa)
#
#
# Indices 1 2 3 4 5 6 
#
# 1 55.2741 4.3560 1.4033 0.0000 0.0000 0.0000
# 2 4.3560 97.6945 -1.1626 0.0000 0.0000 0.0000
# 3 1.4033 -1.1626 53.6771 0.0000 0.0000 0.0000
# 4 0.0000 0.0000 0.0000 1.1714 0.0000 0.0000
# 5 0.0000 0.0000 0.0000 0.0000 3.8491 0.0000
# 6 0.0000 0.0000 0.0000 0.0000 0.0000 42.0043
#
#
#
# Elastic Compliance Matrix: (Units=1/GPa)
#
#
# Indices 1 2 3 4 5 6 
#
# 1 0.018168 -0.000816 -0.000493 0.000000 0.000000 0.000000
# 2 -0.000816 0.010275 0.000244 0.000000 0.000000 0.000000
# 3 -0.000493 0.000244 0.018648 0.000000 0.000000 0.000000
# 4 0.000000 0.000000 0.000000 0.853668 0.000000 0.000000
# 5 0.000000 0.000000 0.000000 0.000000 0.259799 0.000000
# 6 0.000000 0.000000 0.000000 0.000000 0.000000 0.023807
#
#
# Mechanical properties :
#
#
# Convention : Reuss Voigt Hill
#
# Bulk Modulus (GPa) = 22.24082 23.98211 23.11147
# Shear Modulus (GPa) = 4.16152 22.87491 13.51822
#
# Velocity S-wave (km/s) = 1.38060 3.23684 2.48829
# Velocity P-wave (km/s) = 3.56765 4.99538 4.34062
#
# Compressibility (1/GPa) = 0.04496237
#
# Stress axis : x y z
#
# Youngs Moduli (GPa) = 55.04038 97.32102 53.62478
#
# Poissons Ratio (x) = 0.07941 0.02642
# Poissons Ratio (y) = 0.04491 -0.01308
# Poissons Ratio (z) = 0.02712 -0.02374
#
# Static dielectric constant tensor:
#      x y z
#    x 1.813860 0.000000 0.000000 
#    y 0.000000 1.824690 0.000000 
#    z 0.000000 0.000000 1.994640 
# 
# From -- ./inp_files/41426.got.cif
#   From: 2010.05.17/outbox.cif.g08.bks.cpg/sg68_21_cif.got.tgz:41426.got - 2010.06.03 18:57:09.
