data_PCOD9507014
_publ_section_title
;
Structure prediction by ZEFSAII (Michael W. Deem and Ramdas Pophale) SiO2 
 PCOD9507014
Probable space group: C C C A
;
_chemical_formula_sum "Si O2"
_cell_formula_units_Z 100
_cell_length_a 14.403566
_cell_length_b 20.418030
_cell_length_c 17.242192
_cell_angle_alpha 90.000000
_cell_angle_beta 90.000000
_cell_angle_gamma 90.000000
_cell_volume 5070.798363
_symmetry_space_group_name_H-M "C C C A"
_symmetry_group_IT_number 68
_space_group.IT_coordinate_system_code '2'
_symmetry_cell_setting 'orthorhombic'
loop_
_space_group_symop_operation_xyz
x,y,z
-x,1/2-y,z
x,1/2-y,1/2-z
-x,y,1/2-z
-x,-y,-z
x,1/2+y,-z
-x,1/2+y,1/2+z
x,-y,1/2+z
1/2+x,1/2+y,z
1/2-x,-y,z
1/2+x,-y,1/2-z
1/2-x,1/2+y,1/2-z
1/2-x,1/2-y,-z
1/2+x,y,-z
1/2-x,y,1/2+z
1/2+x,1/2-y,1/2+z
loop_
_atom_site_type_symbol
_atom_site_label
_atom_site_fract_x
_atom_site_fract_y
_atom_site_fract_z
Si Si1 0.168587 0.049200 0.571077
Si Si2 0.000000 0.750000 0.750000
Si Si3 0.842113 0.150700 0.242850
Si Si4 0.889654 0.744840 0.996355
Si Si5 0.868566 0.105477 0.088782
Si Si6 0.745388 0.690794 0.611552
Si Si7 0.957407 0.038939 0.329606
O O1 0.159341 0.055421 0.478451
O O2 0.198072 0.120574 0.599549
O O3 0.250000 0.000000 0.590611
O O4 0.082031 0.017519 0.615441
O O5 0.073540 0.801465 0.785964
O O6 0.804596 0.117647 0.164509
O O7 0.775505 0.191133 0.299281
O O8 0.884662 0.093449 0.297591
O O9 0.828842 0.741663 0.075299
O O10 0.000000 0.750000 0.007663
O O11 0.875956 0.675095 0.954003
O O12 0.839001 0.797689 0.940252
O O13 0.964464 0.078737 0.123928
O O14 0.000000 0.010710 0.250000
#
# Coordination Sequence:
#
# PCOD9507014 Si02
#       7
#    16   4  16  16  16  16  16
#     4  11  22  39  58  84 127 164 200 259 318 380
#     4  12  20  32  68  92 118 148 194 280 338 348
#     4  11  20  34  58  93 122 152 206 263 328 375
#     4  10  21  37  62  91 128 162 213 264 320 389
#     4  10  21  36  60  92 114 161 211 263 319 368
#     4  10  22  37  59  92 126 168 207 263 324 378
#     4  10  20  38  59  87 122 163 206 254 317 384
#
# _framework density 19.720759999999999
#
# number of rings (size 3 to 8) (size 9 to 14) (size 15 to 20)
#    0.000    1.600    4.000    2.400    2.240    0.000 
#    5.760    0.000    0.000    5.760    0.000    4.480 
#    0.000    0.000    0.000    0.000    0.000    0.000 
#
# Total GULP energy -278462.344418 kJ/mol
# GULP energy per Si atom -5569.246888 kJ/mol
# Density = 1.967587 g / cm^3
# Si number density = 19.720760 Si / 1000 Ang^3
#
#
#
# Elastic Constant Matrix: (Units=GPa)
#
#
# Indices 1 2 3 4 5 6 
#
# 1 69.8530 15.2160 40.7438 0.0000 0.0000 0.0000
# 2 15.2160 79.0067 30.1206 0.0000 0.0000 0.0000
# 3 40.7438 30.1206 120.2981 0.0000 0.0000 0.0000
# 4 0.0000 0.0000 0.0000 14.1037 0.0000 0.0000
# 5 0.0000 0.0000 0.0000 0.0000 20.5333 0.0000
# 6 0.0000 0.0000 0.0000 0.0000 0.0000 22.3328
#
#
#
# Elastic Compliance Matrix: (Units=1/GPa)
#
#
# Indices 1 2 3 4 5 6 
#
# 1 0.017953 -0.001260 -0.005765 0.000000 0.000000 0.000000
# 2 -0.001260 0.014081 -0.003099 0.000000 0.000000 0.000000
# 3 -0.005765 -0.003099 0.011041 0.000000 0.000000 0.000000
# 4 0.000000 0.000000 0.000000 0.070904 0.000000 0.000000
# 5 0.000000 0.000000 0.000000 0.000000 0.048701 0.000000
# 6 0.000000 0.000000 0.000000 0.000000 0.000000 0.044777
#
#
# Mechanical properties :
#
#
# Convention : Reuss Voigt Hill
#
# Bulk Modulus (GPa) = 43.80649 49.03540 46.42095
# Shear Modulus (GPa) = 21.24819 23.59911 22.42365
#
# Velocity S-wave (km/s) = 3.28602 3.46303 3.37569
# Velocity P-wave (km/s) = 6.05465 6.39601 6.22767
#
# Compressibility (1/GPa) = 0.02282767
#
# Stress axis : x y z
#
# Youngs Moduli (GPa) = 55.70160 71.01648 90.56987
#
# Poissons Ratio (x) = 0.08946 0.52214
# Poissons Ratio (y) = 0.07017 0.28068
# Poissons Ratio (z) = 0.32112 0.22008
#
# Static dielectric constant tensor:
#      x y z
#    x 1.753810 0.000000 0.000000 
#    y 0.000000 1.721010 0.000000 
#    z 0.000000 0.000000 1.748720 
# 
# From -- ./inp_files/22546.got.cif
#   From: 2010.05.17/outbox.cif.g08.bks.cpg/sg68_12_cif.got.tgz:22546.got - 2010.06.03 18:57:09.
