data_PCOD9507235
_publ_section_title
;
Structure prediction by ZEFSAII (Michael W. Deem and Ramdas Pophale) SiO2 
 PCOD9507235
Probable space group: C C C A
;
_chemical_formula_sum "Si O2"
_cell_formula_units_Z 92
_cell_length_a 9.285500
_cell_length_b 17.959243
_cell_length_c 29.103165
_cell_angle_alpha 90.000000
_cell_angle_beta 90.000000
_cell_angle_gamma 90.000000
_cell_volume 4853.259828
_symmetry_space_group_name_H-M "C C C A"
_symmetry_group_IT_number 68
_space_group.IT_coordinate_system_code '2'
_symmetry_cell_setting 'orthorhombic'
loop_
_space_group_symop_operation_xyz
x,y,z
-x,1/2-y,z
x,1/2-y,1/2-z
-x,y,1/2-z
-x,-y,-z
x,1/2+y,-z
-x,1/2+y,1/2+z
x,-y,1/2+z
1/2+x,1/2+y,z
1/2-x,-y,z
1/2+x,-y,1/2-z
1/2-x,1/2+y,1/2-z
1/2-x,1/2-y,-z
1/2+x,y,-z
1/2-x,y,1/2+z
1/2+x,1/2-y,1/2+z
loop_
_atom_site_type_symbol
_atom_site_label
_atom_site_fract_x
_atom_site_fract_y
_atom_site_fract_z
Si Si1 0.819194 0.628729 0.052753
Si Si2 0.153949 0.428977 0.117286
Si Si3 0.613797 0.856480 0.675256
Si Si4 0.396181 0.530513 0.857482
Si Si5 0.485592 0.159577 0.962411
Si Si6 0.500000 0.250000 0.402583
Si Si7 0.000000 0.750000 0.250000
O O1 0.857979 0.572870 0.094467
O O2 0.649084 0.630214 0.043662
O O3 0.876533 0.709338 0.069078
O O4 0.912289 0.620062 0.006524
O O5 0.250000 0.500000 0.099791
O O6 0.239430 0.397288 0.161386
O O7 0.115884 0.366273 0.079867
O O8 0.002485 0.463677 0.131171
O O9 0.483570 0.915347 0.676046
O O10 0.577251 0.808769 0.630014
O O11 0.599572 0.801888 0.718014
O O12 0.250000 0.500000 0.836903
O O13 0.500000 0.250000 0.966251
#
# Coordination Sequence:
#
# PCOD9507235 Si02
#       7
#    16  16  16  16  16   8   4
#     4  11  23  34  55  82 124 171 224 273 306 350
#     4  10  22  39  60  88 123 167 214 251 312 373
#     4   9  20  37  69  89 119 155 193 250 309 391
#     4  10  20  40  57  86 123 171 208 248 302 364
#     4  12  24  35  55  86 125 171 227 277 315 348
#     4   9  18  37  56  84 120 162 210 249 314 367
#     4  10  20  44  72 106 120 144 186 246 332 382
#
# _framework density 18.956330999999999
#
# number of rings (size 3 to 8) (size 9 to 14) (size 15 to 20)
#    0.000    1.739    2.609    1.565    7.304    1.391 
#    0.000    2.609    0.000    1.043    0.000    0.000 
#    0.000    0.000    0.000    0.000    0.000    0.000 
#
# Total GULP energy -256477.685686 kJ/mol
# GULP energy per Si atom -5575.601863 kJ/mol
# Density = 1.891319 g / cm^3
# Si number density = 18.956331 Si / 1000 Ang^3
#
#
#
# Elastic Constant Matrix: (Units=GPa)
#
#
# Indices 1 2 3 4 5 6 
#
# 1 129.8712 27.4687 34.0711 0.0000 0.0000 0.0000
# 2 27.4687 61.9196 23.1897 0.0000 0.0000 0.0000
# 3 34.0711 23.1897 67.7021 0.0000 0.0000 0.0000
# 4 0.0000 0.0000 0.0000 9.9907 0.0000 0.0000
# 5 0.0000 0.0000 0.0000 0.0000 -2.4050 0.0000
# 6 0.0000 0.0000 0.0000 0.0000 0.0000 31.5337
#
#
#
# Elastic Compliance Matrix: (Units=1/GPa)
#
#
# Indices 1 2 3 4 5 6 
#
# 1 0.009251 -0.002708 -0.003728 0.000000 0.000000 0.000000
# 2 -0.002708 0.019319 -0.005255 0.000000 0.000000 0.000000
# 3 -0.003728 -0.005255 0.018447 0.000000 0.000000 0.000000
# 4 0.000000 0.000000 0.000000 0.100093 0.000000 0.000000
# 5 0.000000 0.000000 0.000000 0.000000 -0.415794 0.000000
# 6 0.000000 0.000000 0.000000 0.000000 0.000000 0.031712
#
#
# Mechanical properties :
#
#
# Convention : Reuss Voigt Hill
#
# Bulk Modulus (GPa) = 42.30871 47.66131 44.98501
# Shear Modulus (GPa) = -24.30560 19.47477 -2.41542
#
# Velocity S-wave (km/s) = -3.58465 3.20871 -1.13003
# Velocity P-wave (km/s) = 2.28791 6.23899 4.69891
#
# Compressibility (1/GPa) = 0.02363579
#
# Stress axis : x y z
#
# Youngs Moduli (GPa) = 108.10087 51.76241 54.21067
#
# Poissons Ratio (x) = 0.14015 0.20210
# Poissons Ratio (y) = 0.29269 0.28486
# Poissons Ratio (z) = 0.40300 0.27199
#
# Static dielectric constant tensor:
#      x y z
#    x 1.690110 0.000000 0.000000 
#    y 0.000000 1.841120 0.000000 
#    z 0.000000 0.000000 1.649790 
# 
# From -- ./inp_files/49353.got.cif
#   From: 2010.05.17/outbox.cif.g08.bks.cpg/sg68_25_cif.got.tgz:49353.got - 2010.06.03 18:57:09.
