data_PCOD9507937
_publ_section_title
;
Structure prediction by ZEFSAII (Michael W. Deem and Ramdas Pophale) SiO2 
 PCOD9507937
Probable space group: C C C A
;
_chemical_formula_sum "Si O2"
_cell_formula_units_Z 68
_cell_length_a 5.563651
_cell_length_b 36.713104
_cell_length_c 14.592398
_cell_angle_alpha 90.000000
_cell_angle_beta 90.000000
_cell_angle_gamma 90.000000
_cell_volume 2980.627131
_symmetry_space_group_name_H-M "C C C A"
_symmetry_group_IT_number 68
_space_group.IT_coordinate_system_code '2'
_symmetry_cell_setting 'orthorhombic'
loop_
_space_group_symop_operation_xyz
x,y,z
-x,1/2-y,z
x,1/2-y,1/2-z
-x,y,1/2-z
-x,-y,-z
x,1/2+y,-z
-x,1/2+y,1/2+z
x,-y,1/2+z
1/2+x,1/2+y,z
1/2-x,-y,z
1/2+x,-y,1/2-z
1/2-x,1/2+y,1/2-z
1/2-x,1/2-y,-z
1/2+x,y,-z
1/2-x,y,1/2+z
1/2+x,1/2-y,1/2+z
loop_
_atom_site_type_symbol
_atom_site_label
_atom_site_fract_x
_atom_site_fract_y
_atom_site_fract_z
Si Si1 0.014600 0.366745 0.600601
Si Si2 0.608444 0.787182 0.647426
Si Si3 0.987730 0.104312 0.393126
Si Si4 0.500000 0.250000 0.750000
Si Si5 0.501051 0.018669 0.860732
O O1 0.048553 0.323395 0.593948
O O2 0.006957 0.383709 0.499313
O O3 0.258903 0.381533 0.646576
O O4 0.760352 0.378407 0.644108
O O5 0.500000 0.750000 0.606509
O O6 0.500000 0.791635 0.750000
O O7 0.875591 0.777324 0.677516
O O8 0.987335 0.060948 0.386485
O O9 0.500000 0.016439 0.750000
O O10 0.750000 0.000000 0.892293
O O11 0.250000 0.000000 0.891631
#
# Coordination Sequence:
#
# PCOD9507937 Si02
#       5
#    16  16  16   4  16
#     4  10  22  39  58  84 127 160 198 245 296 364
#     4   9  20  36  60  88 116 158 208 249 306 348
#     4  10  22  40  58  88 124 158 199 241 300 363
#     4   8  18  36  60  86 116 148 214 262 294 360
#     4  10  21  39  65  90 118 153 198 249 300 357
#
# _framework density 22.81399
#
# number of rings (size 3 to 8) (size 9 to 14) (size 15 to 20)
#    0.000    2.588    0.000    1.412    6.588    1.882 
#    0.000   18.824    0.000    0.000    0.000    0.000 
#    0.000    0.000    0.000    0.000    0.000    0.000 
#
# Total GULP energy -189617.636367 kJ/mol
# GULP energy per Si atom -5576.989305 kJ/mol
# Density = 2.276206 g / cm^3
# Si number density = 22.813990 Si / 1000 Ang^3
#
#
#
# Elastic Constant Matrix: (Units=GPa)
#
#
# Indices 1 2 3 4 5 6 
#
# 1 268.0385 152.6514 17.2019 0.0000 0.0000 0.0000
# 2 152.6514 244.8829 5.5403 0.0000 0.0000 0.0000
# 3 17.2019 5.5403 71.6158 0.0000 0.0000 0.0000
# 4 0.0000 0.0000 0.0000 43.8297 0.0000 0.0000
# 5 0.0000 0.0000 0.0000 0.0000 -2.5280 0.0000
# 6 0.0000 0.0000 0.0000 0.0000 0.0000 73.4353
#
#
#
# Elastic Compliance Matrix: (Units=1/GPa)
#
#
# Indices 1 2 3 4 5 6 
#
# 1 0.005874 -0.003636 -0.001130 0.000000 0.000000 0.000000
# 2 -0.003636 0.006342 0.000383 0.000000 0.000000 0.000000
# 3 -0.001130 0.000383 0.014205 0.000000 0.000000 0.000000
# 4 0.000000 0.000000 0.000000 0.022816 0.000000 0.000000
# 5 0.000000 0.000000 0.000000 0.000000 -0.395574 0.000000
# 6 0.000000 0.000000 0.000000 0.000000 0.000000 0.013617
#
#
# Mechanical properties :
#
#
# Convention : Reuss Voigt Hill
#
# Bulk Modulus (GPa) = 56.64178 103.92494 80.28336
# Shear Modulus (GPa) = -15.71986 50.22364 17.25189
#
# Velocity S-wave (km/s) = -2.62781 4.69704 2.75289
# Velocity P-wave (km/s) = 3.95908 8.66420 6.73582
#
# Compressibility (1/GPa) = 0.01765481
#
# Stress axis : x y z
#
# Youngs Moduli (GPa) = 170.23704 157.68898 70.39710
#
# Poissons Ratio (x) = 0.57339 0.07952
# Poissons Ratio (y) = 0.61901 -0.02695
# Poissons Ratio (z) = 0.19231 -0.06036
#
# Static dielectric constant tensor:
#      x y z
#    x 3.505870 0.000000 0.000000 
#    y 0.000000 1.503990 0.000000 
#    z 0.000000 0.000000 1.771680 
# 
# From -- ./inp_files/35088.got.cif
#   From: 2010.05.17/outbox.cif.g08.bks.cpg/sg68_18_cif.got.tgz:35088.got - 2010.06.03 18:57:09.
