data_PCOD9507903
_publ_section_title
;
Structure prediction by ZEFSAII (Michael W. Deem and Ramdas Pophale) SiO2 
 PCOD9507903
Probable space group: C C C A
;
_chemical_formula_sum "Si O2"
_cell_formula_units_Z 64
_cell_length_a 8.212216
_cell_length_b 22.146821
_cell_length_c 14.564937
_cell_angle_alpha 90.000000
_cell_angle_beta 90.000000
_cell_angle_gamma 90.000000
_cell_volume 2648.990311
_symmetry_space_group_name_H-M "C C C A"
_symmetry_group_IT_number 68
_space_group.IT_coordinate_system_code '2'
_symmetry_cell_setting 'orthorhombic'
loop_
_space_group_symop_operation_xyz
x,y,z
-x,1/2-y,z
x,1/2-y,1/2-z
-x,y,1/2-z
-x,-y,-z
x,1/2+y,-z
-x,1/2+y,1/2+z
x,-y,1/2+z
1/2+x,1/2+y,z
1/2-x,-y,z
1/2+x,-y,1/2-z
1/2-x,1/2+y,1/2-z
1/2-x,1/2-y,-z
1/2+x,y,-z
1/2-x,y,1/2+z
1/2+x,1/2-y,1/2+z
loop_
_atom_site_type_symbol
_atom_site_label
_atom_site_fract_x
_atom_site_fract_y
_atom_site_fract_z
Si Si1 0.810691 0.350807 0.251210
Si Si2 0.886879 0.867667 0.070373
Si Si3 0.280824 0.697838 0.925853
Si Si4 0.898845 0.459758 0.665023
O O1 0.784440 0.203238 0.322576
O O2 0.748058 0.348050 0.355330
O O3 0.691161 0.402509 0.211534
O O4 0.000000 0.365539 0.250000
O O5 0.811016 0.860202 0.970533
O O6 0.970057 0.931751 0.094389
O O7 0.031272 0.819195 0.078248
O O8 0.250000 0.750000 0.000000
O O9 0.750000 0.500000 0.629222
O O10 0.000000 0.489261 0.750000
#
# Coordination Sequence:
#
# PCOD9507903 Si02
#       4
#    16  16  16  16
#     4  10  21  39  62  89 123 162 208 265 317 379
#     4  10  22  39  60  92 126 162 212 265 316 384
#     4  11  22  39  61  86 123 167 209 263 323 380
#     4   9  18  35  61  92 124 165 212 259 319 386
#
# _framework density 24.160150000000002
#
# number of rings (size 3 to 8) (size 9 to 14) (size 15 to 20)
#    0.000    2.000    0.000    5.250    0.000    1.000 
#    0.000   13.750    0.000   15.000    0.000   21.000 
#    0.000    0.000    0.000    0.000    0.000    0.000 
#
# Total GULP energy -178764.105093 kJ/mol
# GULP energy per Si atom -5586.378284 kJ/mol
# Density = 2.410516 g / cm^3
# Si number density = 24.160150 Si / 1000 Ang^3
#
#
#
# Elastic Constant Matrix: (Units=GPa)
#
#
# Indices 1 2 3 4 5 6 
#
# 1 161.2591 10.0779 40.2747 0.0000 0.0000 0.0000
# 2 10.0779 63.1008 23.6839 0.0000 0.0000 0.0000
# 3 40.2747 23.6839 119.1357 0.0000 0.0000 0.0000
# 4 0.0000 0.0000 0.0000 11.1880 0.0000 0.0000
# 5 0.0000 0.0000 0.0000 0.0000 44.5843 0.0000
# 6 0.0000 0.0000 0.0000 0.0000 0.0000 27.4723
#
#
#
# Elastic Compliance Matrix: (Units=1/GPa)
#
#
# Indices 1 2 3 4 5 6 
#
# 1 0.006776 -0.000240 -0.002243 0.000000 0.000000 0.000000
# 2 -0.000240 0.017134 -0.003325 0.000000 0.000000 0.000000
# 3 -0.002243 -0.003325 0.009813 0.000000 0.000000 0.000000
# 4 0.000000 0.000000 0.000000 0.089382 0.000000 0.000000
# 5 0.000000 0.000000 0.000000 0.000000 0.022429 0.000000
# 6 0.000000 0.000000 0.000000 0.000000 0.000000 0.036400
#
#
# Mechanical properties :
#
#
# Convention : Reuss Voigt Hill
#
# Bulk Modulus (GPa) = 45.23499 54.61872 49.92685
# Shear Modulus (GPa) = 24.88545 34.61285 29.74915
#
# Velocity S-wave (km/s) = 3.21288 3.78913 3.51284
# Velocity P-wave (km/s) = 5.70325 6.46524 6.09616
#
# Compressibility (1/GPa) = 0.02210678
#
# Stress axis : x y z
#
# Youngs Moduli (GPa) = 147.57049 58.36346 101.90508
#
# Poissons Ratio (x) = 0.01403 0.22858
# Poissons Ratio (y) = 0.03547 0.33883
# Poissons Ratio (z) = 0.33101 0.19406
#
# Static dielectric constant tensor:
#      x y z
#    x 1.914050 0.000000 0.000000 
#    y 0.000000 2.045880 0.000000 
#    z 0.000000 0.000000 1.942210 
# 
# From -- ./inp_files/19248.got.cif
#   From: 2010.05.17/outbox.cif.g08.bks.cpg/sg68_10_cif.got.tgz:19248.got - 2010.06.03 18:57:09.
