data_PCOD9507657
_publ_section_title
;
Structure prediction by ZEFSAII (Michael W. Deem and Ramdas Pophale) SiO2 
 PCOD9507657
Probable space group: C C C A
;
_chemical_formula_sum "Si O2"
_cell_formula_units_Z 96
_cell_length_a 8.300701
_cell_length_b 22.335905
_cell_length_c 22.359569
_cell_angle_alpha 90.000000
_cell_angle_beta 90.000000
_cell_angle_gamma 90.000000
_cell_volume 4145.546129
_symmetry_space_group_name_H-M "C C C A"
_symmetry_group_IT_number 68
_space_group.IT_coordinate_system_code '2'
_symmetry_cell_setting 'orthorhombic'
loop_
_space_group_symop_operation_xyz
x,y,z
-x,1/2-y,z
x,1/2-y,1/2-z
-x,y,1/2-z
-x,-y,-z
x,1/2+y,-z
-x,1/2+y,1/2+z
x,-y,1/2+z
1/2+x,1/2+y,z
1/2-x,-y,z
1/2+x,-y,1/2-z
1/2-x,1/2+y,1/2-z
1/2-x,1/2-y,-z
1/2+x,y,-z
1/2-x,y,1/2+z
1/2+x,1/2-y,1/2+z
loop_
_atom_site_type_symbol
_atom_site_label
_atom_site_fract_x
_atom_site_fract_y
_atom_site_fract_z
Si Si1 0.584773 0.031123 0.361838
Si Si2 0.970112 0.158106 0.681994
Si Si3 0.065873 0.422012 0.089134
Si Si4 0.744017 0.911391 0.978633
Si Si5 0.848167 0.285288 0.568703
Si Si6 0.126086 0.703562 0.638680
O O1 0.511391 0.087869 0.327726
O O2 0.637586 0.054839 0.428152
O O3 0.750000 0.000000 0.337349
O O4 0.458951 0.977229 0.367482
O O5 0.786882 0.178446 0.670207
O O6 0.000000 0.174840 0.750000
O O7 0.084464 0.190134 0.632901
O O8 0.041320 0.357839 0.119546
O O9 0.924689 0.424867 0.040189
O O10 0.222579 0.425507 0.048210
O O11 0.703832 0.841824 0.969459
O O12 0.701368 0.241532 0.583767
O O13 0.000000 0.250000 0.542314
O O14 0.000000 0.750000 0.668357
#
# Coordination Sequence:
#
# PCOD9507657 Si02
#       6
#    16  16  16  16  16  16
#     4   9  21  44  66  90 136 173 227 286 327 389
#     4  10  23  46  74  95 124 172 228 280 358 414
#     4  11  23  37  64  98 138 180 225 267 331 399
#     4  10  21  37  60  93 132 184 225 265 321 394
#     4   9  20  38  62  88 134 176 216 272 328 396
#     4  11  23  42  65  97 140 168 218 282 341 402
#
# _framework density 23.157382999999999
#
# number of rings (size 3 to 8) (size 9 to 14) (size 15 to 20)
#    0.000    2.000    1.667    0.500    7.000    5.000 
#    3.000    1.667    0.000    0.000    0.000    0.000 
#    0.000    0.000    0.000    0.000    0.000    0.000 
#
# Total GULP energy -268358.876853 kJ/mol
# GULP energy per Si atom -5590.809934 kJ/mol
# Density = 2.310468 g / cm^3
# Si number density = 23.157383 Si / 1000 Ang^3
#
#
#
# Elastic Constant Matrix: (Units=GPa)
#
#
# Indices 1 2 3 4 5 6 
#
# 1 80.0520 42.2250 23.9470 0.0000 0.0000 0.0000
# 2 42.2250 164.1297 17.8618 0.0000 0.0000 0.0000
# 3 23.9470 17.8618 59.4046 0.0000 0.0000 0.0000
# 4 0.0000 0.0000 0.0000 3.5756 0.0000 0.0000
# 5 0.0000 0.0000 0.0000 0.0000 7.9644 0.0000
# 6 0.0000 0.0000 0.0000 0.0000 0.0000 38.9239
#
#
#
# Elastic Compliance Matrix: (Units=1/GPa)
#
#
# Indices 1 2 3 4 5 6 
#
# 1 0.015956 -0.003520 -0.005374 0.000000 0.000000 0.000000
# 2 -0.003520 0.007075 -0.000708 0.000000 0.000000 0.000000
# 3 -0.005374 -0.000708 0.019213 0.000000 0.000000 0.000000
# 4 0.000000 0.000000 0.000000 0.279673 0.000000 0.000000
# 5 0.000000 0.000000 0.000000 0.000000 0.125558 0.000000
# 6 0.000000 0.000000 0.000000 0.000000 0.000000 0.025691
#
#
# Mechanical properties :
#
#
# Convention : Reuss Voigt Hill
#
# Bulk Modulus (GPa) = 43.40293 52.40601 47.90447
# Shear Modulus (GPa) = 9.99898 24.72962 17.36430
#
# Velocity S-wave (km/s) = 2.08019 3.27141 2.74129
# Velocity P-wave (km/s) = 4.95509 6.07857 5.54535
#
# Compressibility (1/GPa) = 0.02303992
#
# Stress axis : x y z
#
# Youngs Moduli (GPa) = 62.67164 141.33358 52.04814
#
# Poissons Ratio (x) = 0.49752 0.27969
# Poissons Ratio (y) = 0.22061 0.03687
# Poissons Ratio (z) = 0.33678 0.10012
#
# Static dielectric constant tensor:
#      x y z
#    x 1.922990 0.000000 0.000000 
#    y 0.000000 1.900900 0.000000 
#    z 0.000000 0.000000 1.824370 
# 
# From -- ./inp_files/49334.got.cif
#   From: 2010.05.17/outbox.cif.g08.bks.cpg/sg68_25_cif.got.tgz:49334.got - 2010.06.03 18:57:09.
