data_PCOD9507870
_publ_section_title
;
Structure prediction by ZEFSAII (Michael W. Deem and Ramdas Pophale) SiO2 
 PCOD9507870
Probable space group: C C C A
;
_chemical_formula_sum "Si O2"
_cell_formula_units_Z 92
_cell_length_a 25.545184
_cell_length_b 9.408536
_cell_length_c 14.577713
_cell_angle_alpha 90.000000
_cell_angle_beta 90.000000
_cell_angle_gamma 90.000000
_cell_volume 3503.648116
_symmetry_space_group_name_H-M "C C C A"
_symmetry_group_IT_number 68
_space_group.IT_coordinate_system_code '2'
_symmetry_cell_setting 'orthorhombic'
loop_
_space_group_symop_operation_xyz
x,y,z
-x,1/2-y,z
x,1/2-y,1/2-z
-x,y,1/2-z
-x,-y,-z
x,1/2+y,-z
-x,1/2+y,1/2+z
x,-y,1/2+z
1/2+x,1/2+y,z
1/2-x,-y,z
1/2+x,-y,1/2-z
1/2-x,1/2+y,1/2-z
1/2-x,1/2-y,-z
1/2+x,y,-z
1/2-x,y,1/2+z
1/2+x,1/2-y,1/2+z
loop_
_atom_site_type_symbol
_atom_site_label
_atom_site_fract_x
_atom_site_fract_y
_atom_site_fract_z
Si Si1 0.295122 0.894607 0.085236
Si Si2 0.415655 0.524936 0.398515
Si Si3 0.500000 0.250000 0.580100
Si Si4 0.000000 0.250000 0.750000
Si Si5 0.060964 0.490995 0.182198
Si Si6 0.766305 0.850833 0.127763
Si Si7 0.119784 0.770900 0.355661
O O1 0.355755 0.928918 0.090067
O O2 0.284208 0.746637 0.134182
O O3 0.250000 0.000000 0.120751
O O4 0.280285 0.878040 0.978662
O O5 0.458349 0.622910 0.451853
O O6 0.427609 0.539754 0.289024
O O7 0.409076 0.352528 0.413098
O O8 0.461260 0.351539 0.637117
O O9 0.021749 0.372242 0.679154
O O10 0.109197 0.562106 0.127847
O O11 0.817938 0.760713 0.152182
O O12 0.750000 0.000000 0.170910
O O13 0.100601 0.750000 0.250000
#
# Coordination Sequence:
#
# PCOD9507870 Si02
#       7
#    16  16   8   4  16  16  16
#     4  10  21  40  66  85 115 163 211 250 307 370
#     4  11  20  36  60  89 118 159 204 255 302 372
#     4  12  23  36  60  93 129 164 213 258 315 378
#     4  12  16  34  56  78 122 170 204 232 304 390
#     4  11  20  35  56  89 121 163 200 247 310 375
#     4  10  22  41  61  90 114 161 208 250 305 380
#     4  10  21  39  59  88 125 159 196 253 325 372
#
# _framework density 26.258344000000001
#
# number of rings (size 3 to 8) (size 9 to 14) (size 15 to 20)
#    0.000    1.391    6.087    1.043    2.435    0.000 
#    6.261    0.000    0.000    5.217    0.000    0.000 
#    0.000    0.000    0.000    0.000    0.000    0.000 
#
# Total GULP energy -256229.326750 kJ/mol
# GULP energy per Si atom -5570.202755 kJ/mol
# Density = 2.619858 g / cm^3
# Si number density = 26.258344 Si / 1000 Ang^3
#
#
#
# Elastic Constant Matrix: (Units=GPa)
#
#
# Indices 1 2 3 4 5 6 
#
# 1 111.2114 51.3758 9.0264 0.0000 0.0000 0.0000
# 2 51.3758 154.5063 29.7266 0.0000 0.0000 0.0000
# 3 9.0264 29.7266 66.0850 0.0000 0.0000 0.0000
# 4 0.0000 0.0000 0.0000 17.1373 0.0000 0.0000
# 5 0.0000 0.0000 0.0000 0.0000 28.9598 0.0000
# 6 0.0000 0.0000 0.0000 0.0000 0.0000 66.6426
#
#
#
# Elastic Compliance Matrix: (Units=1/GPa)
#
#
# Indices 1 2 3 4 5 6 
#
# 1 0.010625 -0.003562 0.000151 0.000000 0.000000 0.000000
# 2 -0.003562 0.008280 -0.003238 0.000000 0.000000 0.000000
# 3 0.000151 -0.003238 0.016568 0.000000 0.000000 0.000000
# 4 0.000000 0.000000 0.000000 0.058352 0.000000 0.000000
# 5 0.000000 0.000000 0.000000 0.000000 0.034531 0.000000
# 6 0.000000 0.000000 0.000000 0.000000 0.000000 0.015005
#
#
# Mechanical properties :
#
#
# Convention : Reuss Voigt Hill
#
# Bulk Modulus (GPa) = 45.09606 56.89559 50.99582
# Shear Modulus (GPa) = 30.47847 38.65954 34.56901
#
# Velocity S-wave (km/s) = 3.41062 3.84119 3.63229
# Velocity P-wave (km/s) = 5.72023 6.43332 6.08723
#
# Compressibility (1/GPa) = 0.02217489
#
# Stress axis : x y z
#
# Youngs Moduli (GPa) = 94.11591 120.77830 60.35788
#
# Poissons Ratio (x) = 0.43023 -0.00912
# Poissons Ratio (y) = 0.33525 0.19543
# Poissons Ratio (z) = -0.01422 0.39106
#
# Static dielectric constant tensor:
#      x y z
#    x 2.334750 0.000000 0.000000 
#    y 0.000000 2.165850 0.000000 
#    z 0.000000 0.000000 2.132620 
# 
# From -- ./inp_files/36531.got.cif
#   From: 2010.05.17/outbox.cif.g08.bks.cpg/sg68_19_cif.got.tgz:36531.got - 2010.06.03 18:57:09.
