data_PCOD9507616
_publ_section_title
;
Structure prediction by ZEFSAII (Michael W. Deem and Ramdas Pophale) SiO2 
 PCOD9507616
Probable space group: C C C A
;
_chemical_formula_sum "Si O2"
_cell_formula_units_Z 88
_cell_length_a 21.387836
_cell_length_b 7.453091
_cell_length_c 22.590624
_cell_angle_alpha 90.000000
_cell_angle_beta 90.000000
_cell_angle_gamma 90.000000
_cell_volume 3601.069443
_symmetry_space_group_name_H-M "C C C A"
_symmetry_group_IT_number 68
_space_group.IT_coordinate_system_code '2'
_symmetry_cell_setting 'orthorhombic'
loop_
_space_group_symop_operation_xyz
x,y,z
-x,1/2-y,z
x,1/2-y,1/2-z
-x,y,1/2-z
-x,-y,-z
x,1/2+y,-z
-x,1/2+y,1/2+z
x,-y,1/2+z
1/2+x,1/2+y,z
1/2-x,-y,z
1/2+x,-y,1/2-z
1/2-x,1/2+y,1/2-z
1/2-x,1/2-y,-z
1/2+x,y,-z
1/2-x,y,1/2+z
1/2+x,1/2-y,1/2+z
loop_
_atom_site_type_symbol
_atom_site_label
_atom_site_fract_x
_atom_site_fract_y
_atom_site_fract_z
Si Si1 0.540852 0.073795 0.165511
Si Si2 0.896828 0.751354 0.440001
Si Si3 0.304201 0.358541 0.348460
Si Si4 0.432519 0.657874 0.432224
Si Si5 0.642247 0.250000 0.250000
Si Si6 0.586409 0.382069 0.695021
O O1 0.500000 0.250000 0.165921
O O2 0.573998 0.094265 0.101106
O O3 0.590395 0.111969 0.216800
O O4 0.486664 0.934839 0.184340
O O5 0.830384 0.797980 0.410917
O O6 0.895626 0.704709 0.508415
O O7 0.935079 0.939332 0.432341
O O8 0.250000 0.500000 0.352310
O O9 0.301623 0.203432 0.301122
O O10 0.363586 0.451589 0.311863
O O11 0.500000 0.750000 0.437829
O O12 0.401741 0.712673 0.369570
O O13 0.596416 0.250000 0.750000
#
# Coordination Sequence:
#
# PCOD9507616 Si02
#       6
#    16  16  16  16   8  16
#     4  11  19  39  64  93 137 172 214 272 361 413
#     4  10  23  41  66  98 131 182 229 282 345 409
#     4  10  23  43  65  88 131 187 231 286 340 402
#     4  11  23  38  64  98 138 175 221 280 347 423
#     4  10  21  36  70  88 120 185 222 270 340 433
#     4  11  26  41  61 103 143 173 220 287 345 418
#
# _framework density 24.437184999999999
#
# number of rings (size 3 to 8) (size 9 to 14) (size 15 to 20)
#    0.000    1.455    5.455    1.364    3.818    6.182 
#    3.273    3.636    0.000    1.091    0.000    0.000 
#    0.000    0.000    0.000    0.000    0.000    0.000 
#
# Total GULP energy -245040.027104 kJ/mol
# GULP energy per Si atom -5569.091525 kJ/mol
# Density = 2.438156 g / cm^3
# Si number density = 24.437185 Si / 1000 Ang^3
#
#
#
# Elastic Constant Matrix: (Units=GPa)
#
#
# Indices 1 2 3 4 5 6 
#
# 1 60.4567 -10.6327 12.7530 0.0000 0.0000 0.0000
# 2 -10.6327 86.1794 -12.7272 0.0000 0.0000 0.0000
# 3 12.7530 -12.7272 186.8749 0.0000 0.0000 0.0000
# 4 0.0000 0.0000 0.0000 9.5410 0.0000 0.0000
# 5 0.0000 0.0000 0.0000 0.0000 21.7781 0.0000
# 6 0.0000 0.0000 0.0000 0.0000 0.0000 42.6575
#
#
#
# Elastic Compliance Matrix: (Units=1/GPa)
#
#
# Indices 1 2 3 4 5 6 
#
# 1 0.017103 0.001957 -0.001034 0.000000 0.000000 0.000000
# 2 0.001957 0.011946 0.000680 0.000000 0.000000 0.000000
# 3 -0.001034 0.000680 0.005468 0.000000 0.000000 0.000000
# 4 0.000000 0.000000 0.000000 0.104811 0.000000 0.000000
# 5 0.000000 0.000000 0.000000 0.000000 0.045918 0.000000
# 6 0.000000 0.000000 0.000000 0.000000 0.000000 0.023443
#
#
# Mechanical properties :
#
#
# Convention : Reuss Voigt Hill
#
# Bulk Modulus (GPa) = 26.50835 34.69970 30.60403
# Shear Modulus (GPa) = 22.92992 37.73652 30.33322
#
# Velocity S-wave (km/s) = 3.06653 3.93393 3.52699
# Velocity P-wave (km/s) = 4.83831 5.90464 5.39787
#
# Compressibility (1/GPa) = 0.03772396
#
# Stress axis : x y z
#
# Youngs Moduli (GPa) = 58.46885 83.71266 182.88101
#
# Poissons Ratio (x) = -0.16386 0.18907
# Poissons Ratio (y) = -0.11445 -0.12435
# Poissons Ratio (z) = 0.06045 -0.05692
#
# Static dielectric constant tensor:
#      x y z
#    x 1.974290 0.000000 0.000000 
#    y 0.000000 1.819330 0.000000 
#    z 0.000000 0.000000 1.199810 
# 
# From -- ./inp_files/46506.got.cif
#   From: 2010.05.17/outbox.cif.g08.bks.cpg/sg68_24_cif.got.tgz:46506.got - 2010.06.03 18:57:09.
