data_PCOD9507017
_publ_section_title
;
Structure prediction by ZEFSAII (Michael W. Deem and Ramdas Pophale) SiO2 
 PCOD9507017
Probable space group: C C C A
;
_chemical_formula_sum "Si O2"
_cell_formula_units_Z 120
_cell_length_a 11.729772
_cell_length_b 16.995076
_cell_length_c 25.698237
_cell_angle_alpha 90.000000
_cell_angle_beta 90.000000
_cell_angle_gamma 90.000000
_cell_volume 5122.901571
_symmetry_space_group_name_H-M "C C C A"
_symmetry_group_IT_number 68
_space_group.IT_coordinate_system_code '2'
_symmetry_cell_setting 'orthorhombic'
loop_
_space_group_symop_operation_xyz
x,y,z
-x,1/2-y,z
x,1/2-y,1/2-z
-x,y,1/2-z
-x,-y,-z
x,1/2+y,-z
-x,1/2+y,1/2+z
x,-y,1/2+z
1/2+x,1/2+y,z
1/2-x,-y,z
1/2+x,-y,1/2-z
1/2-x,1/2+y,1/2-z
1/2-x,1/2-y,-z
1/2+x,y,-z
1/2-x,y,1/2+z
1/2+x,1/2-y,1/2+z
loop_
_atom_site_type_symbol
_atom_site_label
_atom_site_fract_x
_atom_site_fract_y
_atom_site_fract_z
Si Si1 0.224695 0.237913 0.565610
Si Si2 0.854180 0.181937 0.822785
Si Si3 0.532342 0.048690 0.189090
Si Si4 0.919420 0.630134 0.586742
Si Si5 0.250000 0.500000 0.448929
Si Si6 0.215910 0.342322 0.710658
Si Si7 0.353767 0.866193 0.479700
Si Si8 0.467700 0.364762 0.689277
O O1 0.194631 0.205920 0.621935
O O2 0.346040 0.195112 0.556839
O O3 0.252369 0.329251 0.556419
O O4 0.136732 0.199872 0.525167
O O5 0.779165 0.149793 0.773728
O O6 0.872336 0.271463 0.801461
O O7 0.945591 0.113185 0.833947
O O8 0.500000 0.051644 0.250000
O O9 0.659493 0.081556 0.185895
O O10 0.530338 0.957850 0.175145
O O11 0.838402 0.552522 0.584906
O O12 0.036568 0.618436 0.555487
O O13 0.949032 0.663901 0.644022
O O14 0.317823 0.442112 0.487454
O O15 0.340521 0.330008 0.687734
O O16 0.500000 0.354830 0.750000
#
# Coordination Sequence:
#
# PCOD9507017 Si02
#       8
#    16  16  16  16   8  16  16  16
#     4  10  22  41  67  94 122 168 221 275 334 402
#     4  10  20  38  65  91 128 177 225 265 323 408
#     4   9  20  37  59  88 130 178 218 263 320 391
#     4  11  23  42  67  92 130 173 218 270 333 403
#     4  10  24  44  68  92 124 178 218 276 336 410
#     4  10  20  38  59  93 136 176 217 272 324 392
#     4  10  22  43  65  93 126 158 218 278 336 381
#     4  11  23  39  62 100 136 172 218 271 331 405
#
# _framework density 23.424226000000001
#
# number of rings (size 3 to 8) (size 9 to 14) (size 15 to 20)
#    0.000    1.867    0.000    3.200    3.733    1.600 
#    7.200   12.000    0.000    0.000    0.000    0.000 
#    0.000    0.000    0.000    0.000    0.000    0.000 
#
# Total GULP energy -334497.435925 kJ/mol
# GULP energy per Si atom -5574.957265 kJ/mol
# Density = 2.337091 g / cm^3
# Si number density = 23.424226 Si / 1000 Ang^3
#
#
#
# Elastic Constant Matrix: (Units=GPa)
#
#
# Indices 1 2 3 4 5 6 
#
# 1 69.7749 25.5372 52.1991 0.0000 0.0000 0.0000
# 2 25.5372 86.6643 23.5009 0.0000 0.0000 0.0000
# 3 52.1991 23.5009 124.8450 0.0000 0.0000 0.0000
# 4 0.0000 0.0000 0.0000 16.8346 0.0000 0.0000
# 5 0.0000 0.0000 0.0000 0.0000 23.8407 0.0000
# 6 0.0000 0.0000 0.0000 0.0000 0.0000 30.5777
#
#
#
# Elastic Compliance Matrix: (Units=1/GPa)
#
#
# Indices 1 2 3 4 5 6 
#
# 1 0.022248 -0.004250 -0.008502 0.000000 0.000000 0.000000
# 2 -0.004250 0.012971 -0.000665 0.000000 0.000000 0.000000
# 3 -0.008502 -0.000665 0.011690 0.000000 0.000000 0.000000
# 4 0.000000 0.000000 0.000000 0.059401 0.000000 0.000000
# 5 0.000000 0.000000 0.000000 0.000000 0.041945 0.000000
# 6 0.000000 0.000000 0.000000 0.000000 0.000000 0.032704
#
#
# Mechanical properties :
#
#
# Convention : Reuss Voigt Hill
#
# Bulk Modulus (GPa) = 49.81257 53.75095 51.78176
# Shear Modulus (GPa) = 23.31169 26.25373 24.78271
#
# Velocity S-wave (km/s) = 3.15809 3.35146 3.25621
# Velocity P-wave (km/s) = 5.88300 6.16222 6.02422
#
# Compressibility (1/GPa) = 0.02007526
#
# Stress axis : x y z
#
# Youngs Moduli (GPa) = 44.94835 77.09256 85.54443
#
# Poissons Ratio (x) = 0.32766 0.72730
# Poissons Ratio (y) = 0.19104 0.05686
# Poissons Ratio (z) = 0.38215 0.05124
#
# Static dielectric constant tensor:
#      x y z
#    x 1.908710 0.000000 0.000000 
#    y 0.000000 1.965750 0.000000 
#    z 0.000000 0.000000 1.918090 
# 
# From -- ./inp_files/44655.got.cif
#   From: 2010.05.17/outbox.cif.g08.bks.cpg/sg68_23_cif.got.tgz:44655.got - 2010.06.03 18:57:09.
