data_PCOD9507199
_publ_section_title
;
Structure prediction by ZEFSAII (Michael W. Deem and Ramdas Pophale) SiO2 
 PCOD9507199
Probable space group: C C C A
;
_chemical_formula_sum "Si O2"
_cell_formula_units_Z 88
_cell_length_a 16.607314
_cell_length_b 9.945887
_cell_length_c 23.403337
_cell_angle_alpha 90.000000
_cell_angle_beta 90.000000
_cell_angle_gamma 90.000000
_cell_volume 3865.633748
_symmetry_space_group_name_H-M "C C C A"
_symmetry_group_IT_number 68
_space_group.IT_coordinate_system_code '2'
_symmetry_cell_setting 'orthorhombic'
loop_
_space_group_symop_operation_xyz
x,y,z
-x,1/2-y,z
x,1/2-y,1/2-z
-x,y,1/2-z
-x,-y,-z
x,1/2+y,-z
-x,1/2+y,1/2+z
x,-y,1/2+z
1/2+x,1/2+y,z
1/2-x,-y,z
1/2+x,-y,1/2-z
1/2-x,1/2+y,1/2-z
1/2-x,1/2-y,-z
1/2+x,y,-z
1/2-x,y,1/2+z
1/2+x,1/2-y,1/2+z
loop_
_atom_site_type_symbol
_atom_site_label
_atom_site_fract_x
_atom_site_fract_y
_atom_site_fract_z
Si Si1 0.907012 0.003077 0.879721
Si Si2 0.155546 0.482768 0.623832
Si Si3 0.190435 0.717711 0.316347
Si Si4 0.500000 0.750000 0.571633
Si Si5 0.909651 0.059857 0.504598
Si Si6 0.617042 0.245641 0.683276
O O1 0.844684 0.077561 0.838165
O O2 0.975018 0.117144 0.892749
O O3 0.929240 0.862514 0.850369
O O4 0.873362 0.961077 0.942291
O O5 0.250000 0.500000 0.634677
O O6 0.144677 0.331509 0.646474
O O7 0.138050 0.503737 0.557089
O O8 0.109081 0.595983 0.658838
O O9 0.174623 0.750000 0.250000
O O10 0.286822 0.722847 0.324086
O O11 0.427092 0.709949 0.528453
O O12 0.000000 0.000000 0.500000
O O13 0.598428 0.250000 0.750000
#
# Coordination Sequence:
#
# PCOD9507199 Si02
#       6
#    16  16  16   8  16  16
#     4  11  22  38  68  92 123 169 223 259 313 397
#     4  10  21  38  63  96 132 163 212 274 323 381
#     4  10  20  39  65  92 131 172 209 260 327 400
#     4  10  22  44  63  92 125 180 214 258 326 390
#     4  10  23  40  66  87 127 168 214 260 326 390
#     4  10  22  38  63  98 131 167 208 267 333 383
#
# _framework density 22.764703999999998
#
# number of rings (size 3 to 8) (size 9 to 14) (size 15 to 20)
#    0.000    1.818    1.818    1.636    5.091    4.364 
#    0.000    4.091    4.000    4.364    0.000    0.000 
#    0.000    0.000    0.000    0.000    0.000    0.000 
#
# Total GULP energy -245642.526624 kJ/mol
# GULP energy per Si atom -5582.784696 kJ/mol
# Density = 2.271289 g / cm^3
# Si number density = 22.764704 Si / 1000 Ang^3
#
#
#
# Elastic Constant Matrix: (Units=GPa)
#
#
# Indices 1 2 3 4 5 6 
#
# 1 58.7511 18.2529 12.8969 0.0000 0.0000 0.0000
# 2 18.2529 150.5531 51.8032 0.0000 0.0000 0.0000
# 3 12.8969 51.8032 140.2208 0.0000 0.0000 0.0000
# 4 0.0000 0.0000 0.0000 44.8351 0.0000 0.0000
# 5 0.0000 0.0000 0.0000 0.0000 -103.6545 0.0000
# 6 0.0000 0.0000 0.0000 0.0000 0.0000 24.0841
#
#
#
# Elastic Compliance Matrix: (Units=1/GPa)
#
#
# Indices 1 2 3 4 5 6 
#
# 1 0.017800 -0.001827 -0.000962 0.000000 0.000000 0.000000
# 2 -0.001827 0.007797 -0.002712 0.000000 0.000000 0.000000
# 3 -0.000962 -0.002712 0.008222 0.000000 0.000000 0.000000
# 4 0.000000 0.000000 0.000000 0.022304 0.000000 0.000000
# 5 0.000000 0.000000 0.000000 0.000000 -0.009647 0.000000
# 6 0.000000 0.000000 0.000000 0.000000 0.000000 0.041521
#
#
# Mechanical properties :
#
#
# Convention : Reuss Voigt Hill
#
# Bulk Modulus (GPa) = 43.82941 57.27010 50.54976
# Shear Modulus (GPa) = 46.90202 10.82441 28.86322
#
# Velocity S-wave (km/s) = 4.54397 2.18294 3.56461
# Velocity P-wave (km/s) = 6.84290 5.61833 6.26063
#
# Compressibility (1/GPa) = 0.02281573
#
# Stress axis : x y z
#
# Youngs Moduli (GPa) = 56.18046 128.25436 121.62176
#
# Poissons Ratio (x) = 0.23431 0.11702
# Poissons Ratio (y) = 0.10264 0.32990
# Poissons Ratio (z) = 0.05406 0.34789
#
# Static dielectric constant tensor:
#      x y z
#    x 1.894120 0.000000 0.000000 
#    y 0.000000 1.884120 0.000000 
#    z 0.000000 0.000000 1.820690 
# 
# From -- ./inp_files/46493.got.cif
#   From: 2010.05.17/outbox.cif.g08.bks.cpg/sg68_24_cif.got.tgz:46493.got - 2010.06.03 18:57:09.
