data_PCOD9507921
_publ_section_title
;
Structure prediction by ZEFSAII (Michael W. Deem and Ramdas Pophale) SiO2 
 PCOD9507921
Probable space group: C C C A
;
_chemical_formula_sum "Si O2"
_cell_formula_units_Z 112
_cell_length_a 12.025911
_cell_length_b 13.514384
_cell_length_c 31.307420
_cell_angle_alpha 90.000000
_cell_angle_beta 90.000000
_cell_angle_gamma 90.000000
_cell_volume 5088.168908
_symmetry_space_group_name_H-M "C C C A"
_symmetry_group_IT_number 68
_space_group.IT_coordinate_system_code '2'
_symmetry_cell_setting 'orthorhombic'
loop_
_space_group_symop_operation_xyz
x,y,z
-x,1/2-y,z
x,1/2-y,1/2-z
-x,y,1/2-z
-x,-y,-z
x,1/2+y,-z
-x,1/2+y,1/2+z
x,-y,1/2+z
1/2+x,1/2+y,z
1/2-x,-y,z
1/2+x,-y,1/2-z
1/2-x,1/2+y,1/2-z
1/2-x,1/2-y,-z
1/2+x,y,-z
1/2-x,y,1/2+z
1/2+x,1/2-y,1/2+z
loop_
_atom_site_type_symbol
_atom_site_label
_atom_site_fract_x
_atom_site_fract_y
_atom_site_fract_z
Si Si1 0.015321 0.050809 0.633274
Si Si2 0.165077 0.357864 0.237259
Si Si3 0.594173 0.164234 0.640340
Si Si4 0.374869 0.492766 0.449261
Si Si5 0.297618 0.112482 0.414040
Si Si6 0.948858 0.355577 0.995317
Si Si7 0.104162 0.074859 0.727063
O O1 0.109697 0.050731 0.597309
O O2 0.970229 0.938788 0.633793
O O3 0.073365 0.076262 0.677508
O O4 0.906522 0.112340 0.617437
O O5 0.119774 0.250000 0.250000
O O6 0.155187 0.354474 0.186093
O O7 0.114151 0.460101 0.256246
O O8 0.287213 0.368644 0.257448
O O9 0.500000 0.250000 0.641798
O O10 0.694017 0.174048 0.605472
O O11 0.250000 0.500000 0.463568
O O12 0.418768 0.602672 0.458312
O O13 0.451770 0.423616 0.477737
O O14 0.348720 0.139896 0.460445
O O15 0.250000 0.000000 0.416365
O O16 0.000000 0.250000 0.998249
O O17 0.000000 0.121674 0.750000
#
# Coordination Sequence:
#
# PCOD9507921 Si02
#       7
#    16  16  16  16  16  16  16
#     4  10  21  39  63  92 125 173 218 268 319 394
#     4  11  25  39  58  94 125 170 217 270 320 383
#     4  11  22  38  64  95 127 165 223 273 325 384
#     4  10  23  41  66  94 133 167 216 270 326 381
#     4   9  20  40  66  90 128 171 215 261 330 387
#     4  10  22  43  66  96 130 174 212 264 329 397
#     4  11  22  40  67  84 127 178 219 263 327 382
#
# _framework density 22.011846999999999
#
# number of rings (size 3 to 8) (size 9 to 14) (size 15 to 20)
#    0.000    1.714    1.429    2.143    6.000    3.714 
#    5.143    0.000    0.000    0.000    0.000    0.000 
#    0.000    0.000    0.000    0.000    0.000    0.000 
#
# Total GULP energy -312420.489196 kJ/mol
# GULP energy per Si atom -5578.937307 kJ/mol
# Density = 2.196175 g / cm^3
# Si number density = 22.011847 Si / 1000 Ang^3
#
#
#
# Elastic Constant Matrix: (Units=GPa)
#
#
# Indices 1 2 3 4 5 6 
#
# 1 100.7067 16.6927 59.3283 0.0000 0.0000 0.0000
# 2 16.6927 71.0596 19.1354 0.0000 0.0000 0.0000
# 3 59.3283 19.1354 79.4498 0.0000 0.0000 0.0000
# 4 0.0000 0.0000 0.0000 65.6991 0.0000 0.0000
# 5 0.0000 0.0000 0.0000 0.0000 2213.3710 0.0000
# 6 0.0000 0.0000 0.0000 0.0000 0.0000 18.4148
#
#
#
# Elastic Compliance Matrix: (Units=1/GPa)
#
#
# Indices 1 2 3 4 5 6 
#
# 1 0.017757 -0.000642 -0.013105 0.000000 0.000000 0.000000
# 2 -0.000642 0.015072 -0.003150 0.000000 0.000000 0.000000
# 3 -0.013105 -0.003150 0.023131 0.000000 0.000000 0.000000
# 4 0.000000 0.000000 0.000000 0.015221 0.000000 0.000000
# 5 0.000000 0.000000 0.000000 0.000000 0.000452 0.000000
# 6 0.000000 0.000000 0.000000 0.000000 0.000000 0.054304
#
#
# Mechanical properties :
#
#
# Convention : Reuss Voigt Hill
#
# Bulk Modulus (GPa) = 45.11689 49.05878 47.08784
# Shear Modulus (GPa) = 29.91861 469.90096 249.90979
#
# Velocity S-wave (km/s) = 3.69074 14.62668 10.66680
# Velocity P-wave (km/s) = 6.22119 17.53821 13.15850
#
# Compressibility (1/GPa) = 0.02216465
#
# Stress axis : x y z
#
# Youngs Moduli (GPa) = 56.31696 66.34840 43.23149
#
# Poissons Ratio (x) = 0.04261 0.56654
# Poissons Ratio (y) = 0.03617 0.13620
# Poissons Ratio (z) = 0.73803 0.20903
#
# Static dielectric constant tensor:
#      x y z
#    x 1.797470 0.000000 0.000000 
#    y 0.000000 2.323440 0.000000 
#    z 0.000000 0.000000 1.850900 
# 
# From -- ./inp_files/54810.got.cif
#   From: 2010.05.17/outbox.cif.g08.bks.cpg/sg68_28_cif.got.tgz:54810.got - 2010.06.03 18:57:09.
