data_PCOD9507443
_publ_section_title
;
Structure prediction by ZEFSAII (Michael W. Deem and Ramdas Pophale) SiO2 
 PCOD9507443
Probable space group: C C C A
;
_chemical_formula_sum "Si O2"
_cell_formula_units_Z 68
_cell_length_a 5.385116
_cell_length_b 24.730199
_cell_length_c 20.565143
_cell_angle_alpha 90.000000
_cell_angle_beta 90.000000
_cell_angle_gamma 90.000000
_cell_volume 2738.762720
_symmetry_space_group_name_H-M "C C C A"
_symmetry_group_IT_number 68
_space_group.IT_coordinate_system_code '2'
_symmetry_cell_setting 'orthorhombic'
loop_
_space_group_symop_operation_xyz
x,y,z
-x,1/2-y,z
x,1/2-y,1/2-z
-x,y,1/2-z
-x,-y,-z
x,1/2+y,-z
-x,1/2+y,1/2+z
x,-y,1/2+z
1/2+x,1/2+y,z
1/2-x,-y,z
1/2+x,-y,1/2-z
1/2-x,1/2+y,1/2-z
1/2-x,1/2-y,-z
1/2+x,y,-z
1/2-x,y,1/2+z
1/2+x,1/2-y,1/2+z
loop_
_atom_site_type_symbol
_atom_site_label
_atom_site_fract_x
_atom_site_fract_y
_atom_site_fract_z
Si Si1 0.389052 0.664387 0.145905
Si Si2 0.500000 0.250000 0.750000
Si Si3 0.581443 0.387960 0.462240
Si Si4 0.250000 0.500000 0.064922
Si Si5 0.000000 0.250000 0.458209
Si Si6 0.928512 0.051454 0.325113
O O1 0.347024 0.707891 0.203892
O O2 0.148795 0.637675 0.108634
O O3 0.510615 0.699701 0.089970
O O4 0.578185 0.616655 0.167792
O O5 0.315905 0.372925 0.491954
O O6 0.575522 0.453994 0.465936
O O7 0.395368 0.538558 0.114683
O O8 0.750000 0.250000 0.500000
O O9 0.000000 0.044907 0.250000
O O10 0.750000 0.000000 0.333510
#
# Coordination Sequence:
#
# PCOD9507443 Si02
#       6
#    16   4  16   8   8  16
#     4  10  23  42  74 103 147 188 251 313 379 445
#     4  10  20  44  76 106 144 188 256 326 376 456
#     4  11  24  42  68 103 143 189 241 298 363 442
#     4  10  24  38  64  98 140 196 240 300 366 442
#     4  11  24  49  78 107 142 193 246 306 374 445
#     4  11  22  41  65 103 147 197 247 303 380 461
#
# _framework density 24.828728000000002
#
# number of rings (size 3 to 8) (size 9 to 14) (size 15 to 20)
#    0.000    1.412    2.353    2.118    6.588    0.000 
#    4.235    0.000    0.000   13.412    0.000    0.000 
#    0.000    0.000    0.000    0.000    0.000    0.000 
#
# Total GULP energy -189321.109968 kJ/mol
# GULP energy per Si atom -5568.267940 kJ/mol
# Density = 2.477222 g / cm^3
# Si number density = 24.828728 Si / 1000 Ang^3
#
#
#
# Elastic Constant Matrix: (Units=GPa)
#
#
# Indices 1 2 3 4 5 6 
#
# 1 80.8013 27.3969 31.9483 0.0000 0.0000 0.0000
# 2 27.3969 197.7787 39.1493 0.0000 0.0000 0.0000
# 3 31.9483 39.1493 92.7563 0.0000 0.0000 0.0000
# 4 0.0000 0.0000 0.0000 75.8952 0.0000 0.0000
# 5 0.0000 0.0000 0.0000 0.0000 13.8128 0.0000
# 6 0.0000 0.0000 0.0000 0.0000 0.0000 22.4747
#
#
#
# Elastic Compliance Matrix: (Units=1/GPa)
#
#
# Indices 1 2 3 4 5 6 
#
# 1 0.014550 -0.001117 -0.004540 0.000000 0.000000 0.000000
# 2 -0.001117 0.005603 -0.001980 0.000000 0.000000 0.000000
# 3 -0.004540 -0.001980 0.013180 0.000000 0.000000 0.000000
# 4 0.000000 0.000000 0.000000 0.013176 0.000000 0.000000
# 5 0.000000 0.000000 0.000000 0.000000 0.072397 0.000000
# 6 0.000000 0.000000 0.000000 0.000000 0.000000 0.044495
#
#
# Mechanical properties :
#
#
# Convention : Reuss Voigt Hill
#
# Bulk Modulus (GPa) = 55.37369 63.14725 59.26047
# Shear Modulus (GPa) = 27.07180 40.62598 33.84889
#
# Velocity S-wave (km/s) = 3.30561 4.04945 3.69629
# Velocity P-wave (km/s) = 6.07619 6.88131 6.49124
#
# Compressibility (1/GPa) = 0.01805912
#
# Stress axis : x y z
#
# Youngs Moduli (GPa) = 68.72933 178.48200 75.87014
#
# Poissons Ratio (x) = 0.19933 0.34446
# Poissons Ratio (y) = 0.07676 0.15023
# Poissons Ratio (z) = 0.31204 0.35341
#
# Static dielectric constant tensor:
#      x y z
#    x 2.147910 0.000000 0.000000 
#    y 0.000000 2.467140 0.000000 
#    z 0.000000 0.000000 3.214190 
# 
# From -- ./inp_files/35120.got.cif
#   From: 2010.05.17/outbox.cif.g08.bks.cpg/sg68_18_cif.got.tgz:35120.got - 2010.06.03 18:57:09.
