data_PCOD9507364
_publ_section_title
;
Structure prediction by ZEFSAII (Michael W. Deem and Ramdas Pophale) SiO2 
 PCOD9507364
Probable space group: C C C A
;
_chemical_formula_sum "Si O2"
_cell_formula_units_Z 112
_cell_length_a 14.675125
_cell_length_b 11.175308
_cell_length_c 32.196216
_cell_angle_alpha 90.000000
_cell_angle_beta 90.000000
_cell_angle_gamma 90.000000
_cell_volume 5280.148574
_symmetry_space_group_name_H-M "C C C A"
_symmetry_group_IT_number 68
_space_group.IT_coordinate_system_code '2'
_symmetry_cell_setting 'orthorhombic'
loop_
_space_group_symop_operation_xyz
x,y,z
-x,1/2-y,z
x,1/2-y,1/2-z
-x,y,1/2-z
-x,-y,-z
x,1/2+y,-z
-x,1/2+y,1/2+z
x,-y,1/2+z
1/2+x,1/2+y,z
1/2-x,-y,z
1/2+x,-y,1/2-z
1/2-x,1/2+y,1/2-z
1/2-x,1/2-y,-z
1/2+x,y,-z
1/2-x,y,1/2+z
1/2+x,1/2-y,1/2+z
loop_
_atom_site_type_symbol
_atom_site_label
_atom_site_fract_x
_atom_site_fract_y
_atom_site_fract_z
Si Si1 0.063881 0.854748 0.180427
Si Si2 0.077598 0.502034 0.536011
Si Si3 0.189863 0.300107 0.629152
Si Si4 0.896379 0.443332 0.234801
Si Si5 0.258349 0.829097 0.960095
Si Si6 0.352622 0.298327 0.687339
Si Si7 0.436354 0.976502 0.371588
O O1 0.109677 0.789879 0.140969
O O2 0.000000 0.750000 0.199634
O O3 0.003224 0.957657 0.159812
O O4 0.126370 0.930643 0.212512
O O5 0.166415 0.590467 0.535857
O O6 0.138021 0.381426 0.536562
O O7 0.031455 0.526155 0.580841
O O8 0.000000 0.500000 0.500000
O O9 0.240378 0.274170 0.586055
O O10 0.254101 0.283403 0.668267
O O11 0.152153 0.435653 0.627092
O O12 0.847056 0.397947 0.276407
O O13 0.888541 0.327199 0.205025
O O14 0.000000 0.457345 0.250000
O O15 0.250000 0.750000 0.000000
O O16 0.411029 0.352019 0.649460
#
# Coordination Sequence:
#
# PCOD9507364 Si02
#       7
#    16  16  16  16  16  16  16
#     4  10  23  43  65  92 124 172 220 272 326 403
#     4  10  22  41  66 100 131 177 225 269 342 414
#     4  10  22  43  64  95 130 175 222 269 348 397
#     4  11  24  43  62  91 134 168 220 283 336 395
#     4  10  22  42  66  96 141 172 217 290 336 395
#     4  11  21  41  66  90 127 175 213 273 342 393
#     4  10  20  41  70  89 125 175 223 270 331 416
#
# _framework density 21.211525000000002
#
# number of rings (size 3 to 8) (size 9 to 14) (size 15 to 20)
#    0.000    1.714    2.857    1.286    2.000    1.429 
#   12.857    1.429    0.000    0.000    0.000    0.000 
#    0.000    0.000    0.000    0.000    0.000    0.000 
#
# Total GULP energy -311985.097919 kJ/mol
# GULP energy per Si atom -5571.162463 kJ/mol
# Density = 2.116325 g / cm^3
# Si number density = 21.211525 Si / 1000 Ang^3
#
#
#
# Elastic Constant Matrix: (Units=GPa)
#
#
# Indices 1 2 3 4 5 6 
#
# 1 50.0340 6.5795 25.0281 0.0000 0.0000 0.0000
# 2 6.5795 61.8960 49.0430 0.0000 0.0000 0.0000
# 3 25.0281 49.0430 152.7537 0.0000 0.0000 0.0000
# 4 0.0000 0.0000 0.0000 30.9604 0.0000 0.0000
# 5 0.0000 0.0000 0.0000 0.0000 42.3943 0.0000
# 6 0.0000 0.0000 0.0000 0.0000 0.0000 17.2417
#
#
#
# Elastic Compliance Matrix: (Units=1/GPa)
#
#
# Indices 1 2 3 4 5 6 
#
# 1 0.021793 0.000688 -0.003791 0.000000 0.000000 0.000000
# 2 0.000688 0.021690 -0.007076 0.000000 0.000000 0.000000
# 3 -0.003791 -0.007076 0.009440 0.000000 0.000000 0.000000
# 4 0.000000 0.000000 0.000000 0.032299 0.000000 0.000000
# 5 0.000000 0.000000 0.000000 0.000000 0.023588 0.000000
# 6 0.000000 0.000000 0.000000 0.000000 0.000000 0.057999
#
#
# Mechanical properties :
#
#
# Convention : Reuss Voigt Hill
#
# Bulk Modulus (GPa) = 30.71095 47.33165 39.02130
# Shear Modulus (GPa) = 25.24960 30.38815 27.81887
#
# Velocity S-wave (km/s) = 3.45392 3.78911 3.62539
# Velocity P-wave (km/s) = 5.51506 6.44249 5.99673
#
# Compressibility (1/GPa) = 0.03256167
#
# Stress axis : x y z
#
# Youngs Moduli (GPa) = 45.88729 46.10412 105.93626
#
# Poissons Ratio (x) = -0.03170 0.40164
# Poissons Ratio (y) = -0.03155 0.74965
# Poissons Ratio (z) = 0.17398 0.32625
#
# Static dielectric constant tensor:
#      x y z
#    x 1.611470 0.000000 0.000000 
#    y 0.000000 1.813410 0.000000 
#    z 0.000000 0.000000 1.967870 
# 
# From -- ./inp_files/55288.got.cif
#   From: 2010.05.17/outbox.cif.g08.bks.cpg/sg68_28_cif.got.tgz:55288.got - 2010.06.03 18:57:09.
