data_PCOD9507877
_publ_section_title
;
Structure prediction by ZEFSAII (Michael W. Deem and Ramdas Pophale) SiO2 
 PCOD9507877
Probable space group: C C C A
;
_chemical_formula_sum "Si O2"
_cell_formula_units_Z 116
_cell_length_a 24.702385
_cell_length_b 8.505837
_cell_length_c 28.283462
_cell_angle_alpha 90.000000
_cell_angle_beta 90.000000
_cell_angle_gamma 90.000000
_cell_volume 5942.764354
_symmetry_space_group_name_H-M "C C C A"
_symmetry_group_IT_number 68
_space_group.IT_coordinate_system_code '2'
_symmetry_cell_setting 'orthorhombic'
loop_
_space_group_symop_operation_xyz
x,y,z
-x,1/2-y,z
x,1/2-y,1/2-z
-x,y,1/2-z
-x,-y,-z
x,1/2+y,-z
-x,1/2+y,1/2+z
x,-y,1/2+z
1/2+x,1/2+y,z
1/2-x,-y,z
1/2+x,-y,1/2-z
1/2-x,1/2+y,1/2-z
1/2-x,1/2-y,-z
1/2+x,y,-z
1/2-x,y,1/2+z
1/2+x,1/2-y,1/2+z
loop_
_atom_site_type_symbol
_atom_site_label
_atom_site_fract_x
_atom_site_fract_y
_atom_site_fract_z
Si Si1 0.169296 0.217242 0.305149
Si Si2 0.000000 0.750000 0.750000
Si Si3 0.726063 0.676357 0.646776
Si Si4 0.940854 0.279073 0.876543
Si Si5 0.119343 0.049809 0.685269
Si Si6 0.922007 0.491486 0.788709
Si Si7 0.707323 0.391110 0.005438
Si Si8 0.839641 0.348390 0.935147
O O1 0.180033 0.250000 0.250000
O O2 0.225202 0.223245 0.332130
O O3 0.133306 0.366642 0.320880
O O4 0.134687 0.059661 0.308294
O O5 0.037879 0.862404 0.780907
O O6 0.750000 0.500000 0.637381
O O7 0.676292 0.643291 0.682747
O O8 0.701334 0.775757 0.603719
O O9 0.914597 0.116113 0.858453
O O10 0.945549 0.374797 0.827237
O O11 0.897696 0.365648 0.910260
O O12 0.000000 0.250000 0.897113
O O13 0.090170 0.070268 0.735744
O O14 0.750000 0.500000 0.033980
O O15 0.657576 0.300374 0.028868
O O16 0.750000 0.250000 0.000000
O O17 0.684847 0.498431 0.962118
#
# Coordination Sequence:
#
# PCOD9507877 Si02
#       8
#    16   4  16  16  16  16  16  16
#     4   9  18  33  51  81 117 161 199 236 283 339
#     4  12  20  36  58  72 112 160 214 244 274 312
#     4   9  18  32  58  86 126 154 185 236 294 349
#     4  11  24  38  57  85 116 148 200 252 287 327
#     4   9  18  37  53  81 116 162 199 237 283 328
#     4  11  21  34  58  80 114 161 211 243 278 329
#     4   9  19  37  65  89 115 142 176 222 289 371
#     4  10  21  39  60  88 115 146 186 234 292 364
#
# _framework density 19.519534
#
# number of rings (size 3 to 8) (size 9 to 14) (size 15 to 20)
#    0.000    2.207    2.069    1.655    0.000    6.069 
#    0.000    8.276    0.000    0.000    0.000    0.000 
#    0.000    0.000    0.000    0.000    0.000    0.000 
#
# Total GULP energy -323025.515012 kJ/mol
# GULP energy per Si atom -5569.405431 kJ/mol
# Density = 1.947511 g / cm^3
# Si number density = 19.519534 Si / 1000 Ang^3
#
#
#
# Elastic Constant Matrix: (Units=GPa)
#
#
# Indices 1 2 3 4 5 6 
#
# 1 111.5269 22.5524 38.2306 0.0000 0.0000 0.0000
# 2 22.5524 62.9336 31.1355 0.0000 0.0000 0.0000
# 3 38.2306 31.1355 59.9648 0.0000 0.0000 0.0000
# 4 0.0000 0.0000 0.0000 31.1887 0.0000 0.0000
# 5 0.0000 0.0000 0.0000 0.0000 16.6809 0.0000
# 6 0.0000 0.0000 0.0000 0.0000 0.0000 11.8600
#
#
#
# Elastic Compliance Matrix: (Units=1/GPa)
#
#
# Indices 1 2 3 4 5 6 
#
# 1 0.011495 -0.000664 -0.006984 0.000000 0.000000 0.000000
# 2 -0.000664 0.021421 -0.010699 0.000000 0.000000 0.000000
# 3 -0.006984 -0.010699 0.026684 0.000000 0.000000 0.000000
# 4 0.000000 0.000000 0.000000 0.032063 0.000000 0.000000
# 5 0.000000 0.000000 0.000000 0.000000 0.059949 0.000000
# 6 0.000000 0.000000 0.000000 0.000000 0.000000 0.084317
#
#
# Mechanical properties :
#
#
# Convention : Reuss Voigt Hill
#
# Bulk Modulus (GPa) = 43.65612 46.47358 45.06485
# Shear Modulus (GPa) = 17.84075 21.44637 19.64356
#
# Velocity S-wave (km/s) = 3.02651 3.31828 3.17575
# Velocity P-wave (km/s) = 5.88447 6.20820 6.04850
#
# Compressibility (1/GPa) = 0.02290630
#
# Stress axis : x y z
#
# Youngs Moduli (GPa) = 86.99693 46.68339 37.47557
#
# Poissons Ratio (x) = 0.03100 0.26171
# Poissons Ratio (y) = 0.05778 0.40095
# Poissons Ratio (z) = 0.60755 0.49946
#
# Static dielectric constant tensor:
#      x y z
#    x 1.654480 0.000000 0.000000 
#    y 0.000000 0.569980 0.000000 
#    z 0.000000 0.000000 1.732440 
# 
# From -- ./inp_files/56091.got.cif
#   From: 2010.05.17/outbox.cif.g08.bks.cpg/sg68_29_cif.got.tgz:56091.got - 2010.06.03 18:57:09.
