data_PCOD9507512
_publ_section_title
;
Structure prediction by ZEFSAII (Michael W. Deem and Ramdas Pophale) SiO2 
 PCOD9507512
Probable space group: C C C A
;
_chemical_formula_sum "Si O2"
_cell_formula_units_Z 68
_cell_length_a 4.782912
_cell_length_b 28.279922
_cell_length_c 23.910052
_cell_angle_alpha 90.000000
_cell_angle_beta 90.000000
_cell_angle_gamma 90.000000
_cell_volume 3234.082679
_symmetry_space_group_name_H-M "C C C A"
_symmetry_group_IT_number 68
_space_group.IT_coordinate_system_code '2'
_symmetry_cell_setting 'orthorhombic'
loop_
_space_group_symop_operation_xyz
x,y,z
-x,1/2-y,z
x,1/2-y,1/2-z
-x,y,1/2-z
-x,-y,-z
x,1/2+y,-z
-x,1/2+y,1/2+z
x,-y,1/2+z
1/2+x,1/2+y,z
1/2-x,-y,z
1/2+x,-y,1/2-z
1/2-x,1/2+y,1/2-z
1/2-x,1/2-y,-z
1/2+x,y,-z
1/2-x,y,1/2+z
1/2+x,1/2-y,1/2+z
loop_
_atom_site_type_symbol
_atom_site_label
_atom_site_fract_x
_atom_site_fract_y
_atom_site_fract_z
Si Si1 0.330780 0.367769 0.872004
Si Si2 0.591949 0.199013 0.537663
Si Si3 0.196592 0.555530 0.460198
Si Si4 0.000000 0.250000 0.250000
Si Si5 0.821354 0.836788 0.196469
O O1 0.494759 0.339239 0.919305
O O2 0.246419 0.415646 0.903577
O O3 0.557989 0.368713 0.821943
O O4 0.057237 0.339469 0.851391
O O5 0.500000 0.250000 0.560535
O O6 0.910837 0.195015 0.519344
O O7 0.250000 0.500000 0.449580
O O8 0.397710 0.566745 0.512949
O O9 0.809761 0.214515 0.212610
O O10 0.000000 0.853066 0.250000
#
# Coordination Sequence:
#
# PCOD9507512 Si02
#       5
#    16  16  16   4  16
#     4  12  23  38  66  92 122 171 212 266 320 389
#     4  10  21  35  50  79 120 158 198 242 298 377
#     4  10  21  40  68 103 137 168 209 265 324 394
#     4  12  26  48  62  88 126 164 230 288 322 372
#     4  12  26  42  63  90 123 163 221 278 319 372
#
# _framework density 21.026053999999998
#
# number of rings (size 3 to 8) (size 9 to 14) (size 15 to 20)
#    0.000    0.941    2.353    4.588    1.647    0.000 
#    0.000    0.000    0.000    2.824    3.059    0.000 
#    0.000    0.000    0.000    0.000    0.000    0.000 
#
# Total GULP energy -189960.284763 kJ/mol
# GULP energy per Si atom -5587.067199 kJ/mol
# Density = 2.097820 g / cm^3
# Si number density = 21.026054 Si / 1000 Ang^3
#
#
#
# Elastic Constant Matrix: (Units=GPa)
#
#
# Indices 1 2 3 4 5 6 
#
# 1 96.3488 24.5618 27.9111 0.0000 0.0000 0.0000
# 2 24.5618 83.9769 55.4430 0.0000 0.0000 0.0000
# 3 27.9111 55.4430 83.8207 0.0000 0.0000 0.0000
# 4 0.0000 0.0000 0.0000 -8.3050 0.0000 0.0000
# 5 0.0000 0.0000 0.0000 0.0000 58.8340 0.0000
# 6 0.0000 0.0000 0.0000 0.0000 0.0000 20.4827
#
#
#
# Elastic Compliance Matrix: (Units=1/GPa)
#
#
# Indices 1 2 3 4 5 6 
#
# 1 0.011592 -0.001495 -0.002871 0.000000 0.000000 0.000000
# 2 -0.001495 0.021333 -0.013613 0.000000 0.000000 0.000000
# 3 -0.002871 -0.013613 0.021890 0.000000 0.000000 0.000000
# 4 0.000000 0.000000 0.000000 -0.120410 0.000000 0.000000
# 5 0.000000 0.000000 0.000000 0.000000 0.016997 0.000000
# 6 0.000000 0.000000 0.000000 0.000000 0.000000 0.048822
#
#
# Mechanical properties :
#
#
# Convention : Reuss Voigt Hill
#
# Bulk Modulus (GPa) = 53.02938 53.33090 53.18014
# Shear Modulus (GPa) = 117.74020 24.61772 71.17896
#
# Velocity S-wave (km/s) = 7.49125 3.42544 5.82462
# Velocity P-wave (km/s) = 10.00503 6.40813 8.40133
#
# Compressibility (1/GPa) = 0.01885747
#
# Stress axis : x y z
#
# Youngs Moduli (GPa) = 86.26822 46.87679 45.68234
#
# Poissons Ratio (x) = 0.07007 0.13116
# Poissons Ratio (y) = 0.12895 0.62186
# Poissons Ratio (z) = 0.24769 0.63811
#
# Static dielectric constant tensor:
#      x y z
#    x 1.782870 0.000000 0.000000 
#    y 0.000000 1.759250 0.000000 
#    z 0.000000 0.000000 1.832130 
# 
# From -- ./inp_files/35086.got.cif
#   From: 2010.05.17/outbox.cif.g08.bks.cpg/sg68_18_cif.got.tgz:35086.got - 2010.06.03 18:57:09.
