data_PCOD9507296
_publ_section_title
;
Structure prediction by ZEFSAII (Michael W. Deem and Ramdas Pophale) SiO2 
 PCOD9507296
Probable space group: C C C A
;
_chemical_formula_sum "Si O2"
_cell_formula_units_Z 88
_cell_length_a 30.939833
_cell_length_b 5.353305
_cell_length_c 22.878998
_cell_angle_alpha 90.000000
_cell_angle_beta 90.000000
_cell_angle_gamma 90.000000
_cell_volume 3789.456737
_symmetry_space_group_name_H-M "C C C A"
_symmetry_group_IT_number 68
_space_group.IT_coordinate_system_code '2'
_symmetry_cell_setting 'orthorhombic'
loop_
_space_group_symop_operation_xyz
x,y,z
-x,1/2-y,z
x,1/2-y,1/2-z
-x,y,1/2-z
-x,-y,-z
x,1/2+y,-z
-x,1/2+y,1/2+z
x,-y,1/2+z
1/2+x,1/2+y,z
1/2-x,-y,z
1/2+x,-y,1/2-z
1/2-x,1/2+y,1/2-z
1/2-x,1/2-y,-z
1/2+x,y,-z
1/2-x,y,1/2+z
1/2+x,1/2-y,1/2+z
loop_
_atom_site_type_symbol
_atom_site_label
_atom_site_fract_x
_atom_site_fract_y
_atom_site_fract_z
Si Si1 0.839722 0.908068 0.659816
Si Si2 0.957197 0.165590 0.557300
Si Si3 0.636797 0.538515 0.967147
Si Si4 0.620253 0.250000 0.250000
Si Si5 0.250000 0.000000 0.289116
Si Si6 0.000000 0.750000 0.641524
Si Si7 0.583223 0.520564 0.149703
O O1 0.848591 0.065489 0.600387
O O2 0.872516 0.677529 0.647893
O O3 0.852398 0.024876 0.723023
O O4 0.788585 0.894870 0.669638
O O5 0.933847 0.399558 0.589942
O O6 0.000000 0.250000 0.521632
O O7 0.915847 0.025027 0.531778
O O8 0.979618 0.977529 0.603587
O O9 0.651356 0.777320 0.004576
O O10 0.591561 0.304607 0.194690
O O11 0.238632 0.750000 0.250000
O O12 0.957518 0.667603 0.675074
#
# Coordination Sequence:
#
# PCOD9507296 Si02
#       7
#    16  16  16   8   8   8  16
#     4  12  26  48  74 111 151 189 255 317 387 465
#     4  10  22  40  67  99 143 194 265 317 371 435
#     4  12  27  46  74 106 148 206 252 308 383 453
#     4  12  22  40  75  98 140 192 240 307 390 444
#     4  12  28  50  84 124 152 192 250 322 400 462
#     4  10  20  40  65  98 148 192 258 307 370 452
#     4  11  21  41  67 104 147 197 240 312 382 463
#
# _framework density 23.222328000000001
#
# number of rings (size 3 to 8) (size 9 to 14) (size 15 to 20)
#    0.000    0.727    4.545    2.727    2.545    0.727 
#    0.000   19.545    0.000    0.000    0.000    0.000 
#    0.000    0.000    0.000    0.000    0.000    0.000 
#
# Total GULP energy -245368.525082 kJ/mol
# GULP energy per Si atom -5576.557388 kJ/mol
# Density = 2.316947 g / cm^3
# Si number density = 23.222328 Si / 1000 Ang^3
#
#
#
# Elastic Constant Matrix: (Units=GPa)
#
#
# Indices 1 2 3 4 5 6 
#
# 1 140.1995 34.9933 31.1095 0.0000 0.0000 0.0000
# 2 34.9933 105.1932 18.4640 0.0000 0.0000 0.0000
# 3 31.1095 18.4640 100.0006 0.0000 0.0000 0.0000
# 4 0.0000 0.0000 0.0000 36.7839 0.0000 0.0000
# 5 0.0000 0.0000 0.0000 0.0000 48.3344 0.0000
# 6 0.0000 0.0000 0.0000 0.0000 0.0000 21.9931
#
#
#
# Elastic Compliance Matrix: (Units=1/GPa)
#
#
# Indices 1 2 3 4 5 6 
#
# 1 0.008189 -0.002353 -0.002113 0.000000 0.000000 0.000000
# 2 -0.002353 0.010501 -0.001207 0.000000 0.000000 0.000000
# 3 -0.002113 -0.001207 0.010880 0.000000 0.000000 0.000000
# 4 0.000000 0.000000 0.000000 0.027186 0.000000 0.000000
# 5 0.000000 0.000000 0.000000 0.000000 0.020689 0.000000
# 6 0.000000 0.000000 0.000000 0.000000 0.000000 0.045469
#
#
# Mechanical properties :
#
#
# Convention : Reuss Voigt Hill
#
# Bulk Modulus (GPa) = 54.87304 57.16965 56.02134
# Shear Modulus (GPa) = 35.62916 38.81072 37.21994
#
# Velocity S-wave (km/s) = 3.92122 4.09255 4.00780
# Velocity P-wave (km/s) = 6.64695 6.85593 6.75225
#
# Compressibility (1/GPa) = 0.01822388
#
# Stress axis : x y z
#
# Youngs Moduli (GPa) = 122.11630 95.22946 91.91078
#
# Poissons Ratio (x) = 0.22410 0.19421
# Poissons Ratio (y) = 0.28737 0.11092
# Poissons Ratio (z) = 0.25803 0.11492
#
# Static dielectric constant tensor:
#      x y z
#    x 1.974600 0.000000 0.000000 
#    y 0.000000 2.078930 0.000000 
#    z 0.000000 0.000000 1.892180 
# 
# From -- ./inp_files/47506.got.cif
#   From: 2010.05.17/outbox.cif.g08.bks.cpg/sg68_24_cif.got.tgz:47506.got - 2010.06.03 18:57:09.
