data_PCOD9507374
_publ_section_title
;
Structure prediction by ZEFSAII (Michael W. Deem and Ramdas Pophale) SiO2 
 PCOD9507374
Probable space group: C C C A
;
_chemical_formula_sum "Si O2"
_cell_formula_units_Z 104
_cell_length_a 16.220156
_cell_length_b 15.736872
_cell_length_c 16.379368
_cell_angle_alpha 90.000000
_cell_angle_beta 90.000000
_cell_angle_gamma 90.000000
_cell_volume 4180.907697
_symmetry_space_group_name_H-M "C C C A"
_symmetry_group_IT_number 68
_space_group.IT_coordinate_system_code '2'
_symmetry_cell_setting 'orthorhombic'
loop_
_space_group_symop_operation_xyz
x,y,z
-x,1/2-y,z
x,1/2-y,1/2-z
-x,y,1/2-z
-x,-y,-z
x,1/2+y,-z
-x,1/2+y,1/2+z
x,-y,1/2+z
1/2+x,1/2+y,z
1/2-x,-y,z
1/2+x,-y,1/2-z
1/2-x,1/2+y,1/2-z
1/2-x,1/2-y,-z
1/2+x,y,-z
1/2-x,y,1/2+z
1/2+x,1/2-y,1/2+z
loop_
_atom_site_type_symbol
_atom_site_label
_atom_site_fract_x
_atom_site_fract_y
_atom_site_fract_z
Si Si1 0.250000 0.500000 0.232327
Si Si2 0.311882 0.662647 0.255822
Si Si3 0.383486 0.385891 0.577051
Si Si4 0.128817 0.930512 0.407991
Si Si5 0.451223 0.092078 0.664640
Si Si6 0.047605 0.095190 0.664958
Si Si7 0.099683 0.741742 0.440341
O O1 0.266373 0.581141 0.286812
O O2 0.179033 0.541306 0.173176
O O3 0.265920 0.750000 0.250000
O O4 0.341930 0.634286 0.165057
O O5 0.389049 0.668950 0.317521
O O6 0.359478 0.480227 0.543938
O O7 0.481679 0.389258 0.596140
O O8 0.364230 0.312839 0.514061
O O9 0.145399 0.832892 0.432754
O O10 0.031288 0.922416 0.393053
O O11 0.500000 0.084814 0.750000
O O12 0.411473 0.998050 0.660472
O O13 0.098762 0.176901 0.636992
O O14 0.000000 0.111968 0.750000
O O15 0.000000 0.750000 0.454426
#
# Coordination Sequence:
#
# PCOD9507374 Si02
#       7
#     8  16  16  16  16  16  16
#     4  10  20  42  58  74 118 160 198 242 272 348
#     4  10  21  37  58  86 110 153 195 232 292 345
#     4   9  19  36  57  85 122 145 180 242 296 353
#     4   9  20  37  56  78 113 158 193 229 298 336
#     4   8  16  31  55  82 114 144 178 234 300 341
#     4   9  17  34  54  87 117 143 185 244 297 354
#     4  10  21  32  54  92 115 149 191 232 303 363
#
# _framework density 24.874980999999998
#
# number of rings (size 3 to 8) (size 9 to 14) (size 15 to 20)
#    0.000    2.769    0.000    2.769    2.154   10.462 
#    5.538    3.077    0.000    0.923    0.000    0.000 
#    0.000    0.000    0.000    0.000    0.000    0.000 
#
# Total GULP energy -289570.427616 kJ/mol
# GULP energy per Si atom -5568.662070 kJ/mol
# Density = 2.481836 g / cm^3
# Si number density = 24.874981 Si / 1000 Ang^3
#
#
#
# Elastic Constant Matrix: (Units=GPa)
#
#
# Indices 1 2 3 4 5 6 
#
# 1 35.9964 17.4129 -8.1761 0.0000 0.0000 0.0000
# 2 17.4129 212.9663 21.6445 0.0000 0.0000 0.0000
# 3 -8.1761 21.6445 42.8719 0.0000 0.0000 0.0000
# 4 0.0000 0.0000 0.0000 23.7276 0.0000 0.0000
# 5 0.0000 0.0000 0.0000 0.0000 8.2690 0.0000
# 6 0.0000 0.0000 0.0000 0.0000 0.0000 -25.7591
#
#
#
# Elastic Compliance Matrix: (Units=1/GPa)
#
#
# Indices 1 2 3 4 5 6 
#
# 1 0.031113 -0.003317 0.007608 0.000000 0.000000 0.000000
# 2 -0.003317 0.005303 -0.003310 0.000000 0.000000 0.000000
# 3 0.007608 -0.003310 0.026447 0.000000 0.000000 0.000000
# 4 0.000000 0.000000 0.000000 0.042145 0.000000 0.000000
# 5 0.000000 0.000000 0.000000 0.000000 0.120933 0.000000
# 6 0.000000 0.000000 0.000000 0.000000 0.000000 -0.038821
#
#
# Mechanical properties :
#
#
# Convention : Reuss Voigt Hill
#
# Bulk Modulus (GPa) = 15.42587 39.28856 27.35721
# Shear Modulus (GPa) = 24.18178 18.64439 21.41309
#
# Velocity S-wave (km/s) = 3.12129 2.74071 2.93717
# Velocity P-wave (km/s) = 4.38232 5.08370 4.74599
#
# Compressibility (1/GPa) = 0.06482618
#
# Stress axis : x y z
#
# Youngs Moduli (GPa) = 32.14056 188.56494 37.81092
#
# Poissons Ratio (x) = 0.62551 -0.28768
# Poissons Ratio (y) = 0.10662 0.12515
# Poissons Ratio (z) = -0.24454 0.62415
#
# Static dielectric constant tensor:
#      x y z
#    x 2.120980 0.000000 0.000000 
#    y 0.000000 2.067140 0.000000 
#    z 0.000000 0.000000 2.000200 
# 
# From -- ./inp_files/39618.got.cif
#   From: 2010.05.17/outbox.cif.g08.bks.cpg/sg68_20_cif.got.tgz:39618.got - 2010.06.03 18:57:09.
