data_PCOD9507340
_publ_section_title
;
Structure prediction by ZEFSAII (Michael W. Deem and Ramdas Pophale) SiO2 
 PCOD9507340
Probable space group: C C C A
;
_chemical_formula_sum "Si O2"
_cell_formula_units_Z 88
_cell_length_a 15.225222
_cell_length_b 28.809311
_cell_length_c 8.838973
_cell_angle_alpha 90.000000
_cell_angle_beta 90.000000
_cell_angle_gamma 90.000000
_cell_volume 3877.022425
_symmetry_space_group_name_H-M "C C C A"
_symmetry_group_IT_number 68
_space_group.IT_coordinate_system_code '2'
_symmetry_cell_setting 'orthorhombic'
loop_
_space_group_symop_operation_xyz
x,y,z
-x,1/2-y,z
x,1/2-y,1/2-z
-x,y,1/2-z
-x,-y,-z
x,1/2+y,-z
-x,1/2+y,1/2+z
x,-y,1/2+z
1/2+x,1/2+y,z
1/2-x,-y,z
1/2+x,-y,1/2-z
1/2-x,1/2+y,1/2-z
1/2-x,1/2-y,-z
1/2+x,y,-z
1/2-x,y,1/2+z
1/2+x,1/2-y,1/2+z
loop_
_atom_site_type_symbol
_atom_site_label
_atom_site_fract_x
_atom_site_fract_y
_atom_site_fract_z
Si Si1 0.844867 0.364260 0.785757
Si Si2 0.415730 0.643622 0.398457
Si Si3 0.750000 0.000000 0.523998
Si Si4 0.703081 0.205441 0.688666
Si Si5 0.190888 0.566502 0.778463
Si Si6 0.440989 0.204158 0.047245
O O1 0.898527 0.378070 0.933973
O O2 0.770905 0.332367 0.863366
O O3 0.783789 0.404025 0.710487
O O4 0.902639 0.330411 0.677628
O O5 0.351412 0.682501 0.325904
O O6 0.391354 0.601103 0.287737
O O7 0.504409 0.671553 0.430843
O O8 0.802215 0.964083 0.628873
O O9 0.689371 0.969271 0.416188
O O10 0.752819 0.250000 0.750000
O O11 0.640643 0.220070 0.553202
O O12 0.500000 0.250000 0.086253
#
# Coordination Sequence:
#
# PCOD9507340 Si02
#       6
#    16  16   8  16  16  16
#     4  11  25  41  65  97 133 177 233 280 330 399
#     4  11  23  40  63  95 136 174 221 280 341 391
#     4  10  20  40  76 100 136 170 232 278 338 422
#     4  11  23  41  62  89 127 181 238 275 315 401
#     4  10  21  42  69 107 129 176 225 281 339 406
#     4  12  26  43  63  96 139 189 229 277 338 391
#
# _framework density 22.697831999999998
#
# number of rings (size 3 to 8) (size 9 to 14) (size 15 to 20)
#    0.000    1.091    3.636    3.273    5.091    2.182 
#    0.000    0.000    0.000    6.545    0.000    0.000 
#    0.000    0.000    0.000    0.000    0.000    0.000 
#
# Total GULP energy -245351.422818 kJ/mol
# GULP energy per Si atom -5576.168700 kJ/mol
# Density = 2.264617 g / cm^3
# Si number density = 22.697832 Si / 1000 Ang^3
#
#
#
# Elastic Constant Matrix: (Units=GPa)
#
#
# Indices 1 2 3 4 5 6 
#
# 1 57.5348 20.2545 12.2415 0.0000 0.0000 0.0000
# 2 20.2545 113.9044 25.9071 0.0000 0.0000 0.0000
# 3 12.2415 25.9071 98.5894 0.0000 0.0000 0.0000
# 4 0.0000 0.0000 0.0000 34.9935 0.0000 0.0000
# 5 0.0000 0.0000 0.0000 0.0000 13.1441 0.0000
# 6 0.0000 0.0000 0.0000 0.0000 0.0000 28.7172
#
#
#
# Elastic Compliance Matrix: (Units=1/GPa)
#
#
# Indices 1 2 3 4 5 6 
#
# 1 0.018760 -0.002984 -0.001545 0.000000 0.000000 0.000000
# 2 -0.002984 0.009812 -0.002208 0.000000 0.000000 0.000000
# 3 -0.001545 -0.002208 0.010915 0.000000 0.000000 0.000000
# 4 0.000000 0.000000 0.000000 0.028577 0.000000 0.000000
# 5 0.000000 0.000000 0.000000 0.000000 0.076080 0.000000
# 6 0.000000 0.000000 0.000000 0.000000 0.000000 0.034822
#
#
# Mechanical properties :
#
#
# Convention : Reuss Voigt Hill
#
# Bulk Modulus (GPa) = 38.44304 42.98164 40.71234
# Shear Modulus (GPa) = 24.86176 29.47933 27.17054
#
# Velocity S-wave (km/s) = 3.31318 3.60776 3.46360
# Velocity P-wave (km/s) = 5.62226 6.02761 5.82846
#
# Compressibility (1/GPa) = 0.02601251
#
# Stress axis : x y z
#
# Youngs Moduli (GPa) = 53.30434 101.91437 91.61614
#
# Poissons Ratio (x) = 0.30416 0.14156
# Poissons Ratio (y) = 0.15909 0.20227
# Poissons Ratio (z) = 0.08236 0.22501
#
# Static dielectric constant tensor:
#      x y z
#    x 1.902810 0.000000 0.000000 
#    y 0.000000 1.847970 0.000000 
#    z 0.000000 0.000000 1.909170 
# 
# From -- ./inp_files/6405.got.cif
#   From: 2010.05.17/outbox.cif.g08.bks.cpg/sg68_4_cif.got.tgz:6405.got - 2010.06.03 18:57:09.
