data_PCOD9507735
_publ_section_title
;
Structure prediction by ZEFSAII (Michael W. Deem and Ramdas Pophale) SiO2 
 PCOD9507735
Probable space group: C C C A
;
_chemical_formula_sum "Si O2"
_cell_formula_units_Z 112
_cell_length_a 17.070440
_cell_length_b 13.135669
_cell_length_c 24.327148
_cell_angle_alpha 90.000000
_cell_angle_beta 90.000000
_cell_angle_gamma 90.000000
_cell_volume 5454.916524
_symmetry_space_group_name_H-M "C C C A"
_symmetry_group_IT_number 68
_space_group.IT_coordinate_system_code '2'
_symmetry_cell_setting 'orthorhombic'
loop_
_space_group_symop_operation_xyz
x,y,z
-x,1/2-y,z
x,1/2-y,1/2-z
-x,y,1/2-z
-x,-y,-z
x,1/2+y,-z
-x,1/2+y,1/2+z
x,-y,1/2+z
1/2+x,1/2+y,z
1/2-x,-y,z
1/2+x,-y,1/2-z
1/2-x,1/2+y,1/2-z
1/2-x,1/2-y,-z
1/2+x,y,-z
1/2-x,y,1/2+z
1/2+x,1/2-y,1/2+z
loop_
_atom_site_type_symbol
_atom_site_label
_atom_site_fract_x
_atom_site_fract_y
_atom_site_fract_z
Si Si1 0.909354 0.257192 0.816256
Si Si2 0.842713 0.520096 0.306585
Si Si3 0.160333 0.962184 0.179113
Si Si4 0.891009 0.063184 0.086980
Si Si5 0.652647 0.833772 0.985234
Si Si6 0.929891 0.011309 0.425839
Si Si7 0.323868 0.390285 0.014150
O O1 0.914614 0.250000 0.750000
O O2 0.870777 0.367677 0.826944
O O3 0.856227 0.158776 0.831232
O O4 0.000000 0.250000 0.837221
O O5 0.750000 0.500000 0.309370
O O6 0.863960 0.514651 0.242091
O O7 0.878985 0.437742 0.348115
O O8 0.250000 0.000000 0.172214
O O9 0.106702 0.017459 0.134477
O O10 0.978962 0.030282 0.074921
O O11 0.836145 0.974941 0.060580
O O12 0.871280 0.160986 0.049766
O O13 0.659954 0.721340 0.962736
O O14 0.592611 0.901734 0.951439
O O15 0.738880 0.884241 0.985542
O O16 0.886784 0.086742 0.467312
#
# Coordination Sequence:
#
# PCOD9507735 Si02
#       7
#    16  16  16  16  16  16  16
#     4   9  18  34  58  88 116 145 193 251 297 339
#     4  10  21  38  59  86 121 157 195 243 297 356
#     4  10  21  38  59  86 121 157 195 243 297 356
#     4  11  22  36  57  85 118 150 189 239 291 351
#     4  10  21  38  60  83 112 150 193 240 289 348
#     4  11  22  36  57  85 118 150 189 239 291 351
#     4  10  21  38  60  83 112 150 193 240 289 348
#
# _framework density 20.531936000000002
#
# number of rings (size 3 to 8) (size 9 to 14) (size 15 to 20)
#    0.000    1.857    0.000    6.000    2.000    4.000 
#    2.571    0.000    0.000    0.000    0.000    2.000 
#    0.000    0.000    0.000    0.000    0.000    0.000 
#
# Total GULP energy -312530.591912 kJ/mol
# GULP energy per Si atom -5580.903427 kJ/mol
# Density = 2.048520 g / cm^3
# Si number density = 20.531936 Si / 1000 Ang^3
#
#
#
# Elastic Constant Matrix: (Units=GPa)
#
#
# Indices 1 2 3 4 5 6 
#
# 1 99.4702 11.5555 18.2737 0.0000 0.0000 0.0000
# 2 11.5555 47.7889 -3.5726 0.0000 0.0000 0.0000
# 3 18.2737 -3.5726 86.3721 0.0000 0.0000 0.0000
# 4 0.0000 0.0000 0.0000 19.0828 0.0000 0.0000
# 5 0.0000 0.0000 0.0000 0.0000 32.4995 0.0000
# 6 0.0000 0.0000 0.0000 0.0000 0.0000 11.3502
#
#
#
# Elastic Compliance Matrix: (Units=1/GPa)
#
#
# Indices 1 2 3 4 5 6 
#
# 1 0.010820 -0.002796 -0.002405 0.000000 0.000000 0.000000
# 2 -0.002796 0.021713 0.001490 0.000000 0.000000 0.000000
# 3 -0.002405 0.001490 0.012148 0.000000 0.000000 0.000000
# 4 0.000000 0.000000 0.000000 0.052403 0.000000 0.000000
# 5 0.000000 0.000000 0.000000 0.000000 0.030770 0.000000
# 6 0.000000 0.000000 0.000000 0.000000 0.000000 0.088104
#
#
# Mechanical properties :
#
#
# Convention : Reuss Voigt Hill
#
# Bulk Modulus (GPa) = 26.83950 31.79381 29.31666
# Shear Modulus (GPa) = 21.20446 26.41150 23.80798
#
# Velocity S-wave (km/s) = 3.21714 3.59048 3.40892
# Velocity P-wave (km/s) = 5.18656 5.71904 5.45930
#
# Compressibility (1/GPa) = 0.03725852
#
# Stress axis : x y z
#
# Youngs Moduli (GPa) = 92.42262 46.05576 82.31661
#
# Poissons Ratio (x) = 0.12877 0.19796
# Poissons Ratio (y) = 0.25842 -0.12262
# Poissons Ratio (z) = 0.22226 -0.06861
#
# Static dielectric constant tensor:
#      x y z
#    x 1.716450 0.000000 0.000000 
#    y 0.000000 1.750360 0.000000 
#    z 0.000000 0.000000 1.761850 
# 
# From -- ./inp_files/45555.got.cif
#   From: 2010.05.17/outbox.cif.g08.bks.cpg/sg68_23_cif.got.tgz:45555.got - 2010.06.03 18:57:09.
