data_PCOD9507477
_publ_section_title
;
Structure prediction by ZEFSAII (Michael W. Deem and Ramdas Pophale) SiO2 
 PCOD9507477
Probable space group: C C C A
;
_chemical_formula_sum "Si O2"
_cell_formula_units_Z 80
_cell_length_a 15.054091
_cell_length_b 11.258079
_cell_length_c 24.052598
_cell_angle_alpha 90.000000
_cell_angle_beta 90.000000
_cell_angle_gamma 90.000000
_cell_volume 4076.437815
_symmetry_space_group_name_H-M "C C C A"
_symmetry_group_IT_number 68
_space_group.IT_coordinate_system_code '2'
_symmetry_cell_setting 'orthorhombic'
loop_
_space_group_symop_operation_xyz
x,y,z
-x,1/2-y,z
x,1/2-y,1/2-z
-x,y,1/2-z
-x,-y,-z
x,1/2+y,-z
-x,1/2+y,1/2+z
x,-y,1/2+z
1/2+x,1/2+y,z
1/2-x,-y,z
1/2+x,-y,1/2-z
1/2-x,1/2+y,1/2-z
1/2-x,1/2-y,-z
1/2+x,y,-z
1/2-x,y,1/2+z
1/2+x,1/2-y,1/2+z
loop_
_atom_site_type_symbol
_atom_site_label
_atom_site_fract_x
_atom_site_fract_y
_atom_site_fract_z
Si Si1 0.147018 0.029949 0.106175
Si Si2 0.656704 0.430638 0.899404
Si Si3 0.986499 0.416830 0.945033
Si Si4 0.104912 0.767980 0.685169
Si Si5 0.146618 0.766446 0.514041
O O1 0.125032 0.099874 0.162873
O O2 0.136538 0.131561 0.059730
O O3 0.250000 0.000000 0.106677
O O4 0.082501 0.923687 0.086133
O O5 0.750000 0.500000 0.905123
O O6 0.577106 0.523960 0.898110
O O7 0.655555 0.333403 0.850523
O O8 0.629824 0.356123 0.954419
O O9 0.923089 0.308400 0.967220
O O10 0.000000 0.500000 0.000000
O O11 0.123584 0.750000 0.750000
O O12 0.000000 0.750000 0.675076
O O13 0.250000 0.750000 0.500000
#
# Coordination Sequence:
#
# PCOD9507477 Si02
#       5
#    16  16  16  16  16
#     4  10  22  38  56  84 116 155 200 242 297 366
#     4  11  21  37  57  86 118 154 205 241 291 360
#     4  10  21  34  53  81 120 159 195 233 290 350
#     4  10  21  40  64  86 111 148 200 264 309 350
#     4  10  21  33  54  83 120 158 193 236 287 355
#
# _framework density 19.624977999999999
#
# number of rings (size 3 to 8) (size 9 to 14) (size 15 to 20)
#    0.000    1.800    4.000    0.000    5.600    0.800 
#    0.000    0.000    0.000    0.000    0.000    1.400 
#    0.000    0.000    0.000    0.000    0.000    0.000 
#
# Total GULP energy -222724.988838 kJ/mol
# GULP energy per Si atom -5568.124721 kJ/mol
# Density = 1.958031 g / cm^3
# Si number density = 19.624978 Si / 1000 Ang^3
#
#
#
# Elastic Constant Matrix: (Units=GPa)
#
#
# Indices 1 2 3 4 5 6 
#
# 1 150.9533 60.0603 38.4461 0.0000 0.0000 0.0000
# 2 60.0603 92.1627 48.1909 0.0000 0.0000 0.0000
# 3 38.4461 48.1909 71.0487 0.0000 0.0000 0.0000
# 4 0.0000 0.0000 0.0000 20.5574 0.0000 0.0000
# 5 0.0000 0.0000 0.0000 0.0000 19.3818 0.0000
# 6 0.0000 0.0000 0.0000 0.0000 0.0000 44.4918
#
#
#
# Elastic Compliance Matrix: (Units=1/GPa)
#
#
# Indices 1 2 3 4 5 6 
#
# 1 0.009031 -0.005160 -0.001387 0.000000 0.000000 0.000000
# 2 -0.005160 0.019762 -0.010612 0.000000 0.000000 0.000000
# 3 -0.001387 -0.010612 0.022023 0.000000 0.000000 0.000000
# 4 0.000000 0.000000 0.000000 0.048644 0.000000 0.000000
# 5 0.000000 0.000000 0.000000 0.000000 0.051595 0.000000
# 6 0.000000 0.000000 0.000000 0.000000 0.000000 0.022476
#
#
# Mechanical properties :
#
#
# Convention : Reuss Voigt Hill
#
# Bulk Modulus (GPa) = 60.61216 67.50660 64.05938
# Shear Modulus (GPa) = 23.43593 28.05071 25.74332
#
# Velocity S-wave (km/s) = 3.45945 3.78476 3.62576
# Velocity P-wave (km/s) = 6.84904 7.31930 7.08807
#
# Compressibility (1/GPa) = 0.01649834
#
# Stress axis : x y z
#
# Youngs Moduli (GPa) = 110.73210 50.60257 45.40687
#
# Poissons Ratio (x) = 0.26111 0.06297
# Poissons Ratio (y) = 0.57138 0.48185
# Poissons Ratio (z) = 0.15357 0.53699
#
# Static dielectric constant tensor:
#      x y z
#    x 1.757120 0.000000 0.000000 
#    y 0.000000 1.889510 0.000000 
#    z 0.000000 0.000000 1.655300 
# 
# From -- ./inp_files/45155.got.cif
#   From: 2010.05.17/outbox.cif.g08.bks.cpg/sg68_23_cif.got.tgz:45155.got - 2010.06.03 18:57:09.
