data_PCOD9507249
_publ_section_title
;
Structure prediction by ZEFSAII (Michael W. Deem and Ramdas Pophale) SiO2 
 PCOD9507249
Probable space group: C C C A
;
_chemical_formula_sum "Si O2"
_cell_formula_units_Z 80
_cell_length_a 9.049898
_cell_length_b 15.361570
_cell_length_c 26.580736
_cell_angle_alpha 90.000000
_cell_angle_beta 90.000000
_cell_angle_gamma 90.000000
_cell_volume 3695.270973
_symmetry_space_group_name_H-M "C C C A"
_symmetry_group_IT_number 68
_space_group.IT_coordinate_system_code '2'
_symmetry_cell_setting 'orthorhombic'
loop_
_space_group_symop_operation_xyz
x,y,z
-x,1/2-y,z
x,1/2-y,1/2-z
-x,y,1/2-z
-x,-y,-z
x,1/2+y,-z
-x,1/2+y,1/2+z
x,-y,1/2+z
1/2+x,1/2+y,z
1/2-x,-y,z
1/2+x,-y,1/2-z
1/2-x,1/2+y,1/2-z
1/2-x,1/2-y,-z
1/2+x,y,-z
1/2-x,y,1/2+z
1/2+x,1/2-y,1/2+z
loop_
_atom_site_type_symbol
_atom_site_label
_atom_site_fract_x
_atom_site_fract_y
_atom_site_fract_z
Si Si1 0.343376 0.229325 0.166510
Si Si2 0.940874 0.650521 0.697692
Si Si3 0.317484 0.096182 0.870141
Si Si4 0.094366 0.666632 0.446170
Si Si5 0.301003 0.905345 0.978644
O O1 0.500000 0.250000 0.190564
O O2 0.233569 0.165339 0.195651
O O3 0.268924 0.323862 0.156413
O O4 0.374680 0.183194 0.112470
O O5 0.000000 0.750000 0.694930
O O6 0.000000 0.612579 0.750000
O O7 0.016482 0.601207 0.651236
O O8 0.296454 0.115842 0.929092
O O9 0.250000 0.000000 0.861383
O O10 0.245725 0.654731 0.476031
O O11 0.000000 0.750000 0.463518
O O12 0.970402 0.594583 0.459815
O O13 0.250000 0.000000 0.995102
#
# Coordination Sequence:
#
# PCOD9507249 Si02
#       5
#    16  16  16  16  16
#     4  10  20  40  61  89 124 153 205 254 301 367
#     4   9  20  40  67  91 115 157 209 249 312 376
#     4  10  21  39  61  83 124 161 196 252 308 356
#     4  11  22  37  57  88 119 161 206 243 301 356
#     4  11  23  38  58  84 124 162 204 248 300 356
#
# _framework density 21.649291000000002
#
# number of rings (size 3 to 8) (size 9 to 14) (size 15 to 20)
#    0.000    1.800    4.000    1.200    2.800    0.800 
#    0.000   11.000    0.000    0.000    0.000    0.000 
#    0.000    0.000    0.000    0.000    0.000    0.000 
#
# Total GULP energy -223011.600322 kJ/mol
# GULP energy per Si atom -5575.290008 kJ/mol
# Density = 2.160002 g / cm^3
# Si number density = 21.649291 Si / 1000 Ang^3
#
#
#
# Elastic Constant Matrix: (Units=GPa)
#
#
# Indices 1 2 3 4 5 6 
#
# 1 135.4374 4.7616 47.9428 0.0000 0.0000 0.0000
# 2 4.7616 38.5736 2.6379 0.0000 0.0000 0.0000
# 3 47.9428 2.6379 80.1554 0.0000 0.0000 0.0000
# 4 0.0000 0.0000 0.0000 9.7695 0.0000 0.0000
# 5 0.0000 0.0000 0.0000 0.0000 24.6054 0.0000
# 6 0.0000 0.0000 0.0000 0.0000 0.0000 19.9842
#
#
#
# Elastic Compliance Matrix: (Units=1/GPa)
#
#
# Indices 1 2 3 4 5 6 
#
# 1 0.009390 -0.000777 -0.005591 0.000000 0.000000 0.000000
# 2 -0.000777 0.026047 -0.000393 0.000000 0.000000 0.000000
# 3 -0.005591 -0.000393 0.015833 0.000000 0.000000 0.000000
# 4 0.000000 0.000000 0.000000 0.102359 0.000000 0.000000
# 5 0.000000 0.000000 0.000000 0.000000 0.040642 0.000000
# 6 0.000000 0.000000 0.000000 0.000000 0.000000 0.050040
#
#
# Mechanical properties :
#
#
# Convention : Reuss Voigt Hill
#
# Bulk Modulus (GPa) = 26.49042 40.53900 33.51471
# Shear Modulus (GPa) = 18.49023 24.12675 21.30849
#
# Velocity S-wave (km/s) = 2.92564 3.34194 3.14069
# Velocity P-wave (km/s) = 4.86571 5.80150 5.35409
#
# Compressibility (1/GPa) = 0.03774950
#
# Stress axis : x y z
#
# Youngs Moduli (GPa) = 106.49826 38.39182 63.16071
#
# Poissons Ratio (x) = 0.02982 0.35311
# Poissons Ratio (y) = 0.08272 0.02480
# Poissons Ratio (z) = 0.59540 0.01507
#
# Static dielectric constant tensor:
#      x y z
#    x 1.909340 0.000000 0.000000 
#    y 0.000000 1.865850 0.000000 
#    z 0.000000 0.000000 1.805860 
# 
# From -- ./inp_files/53992.got.cif
#   From: 2010.05.17/outbox.cif.g08.bks.cpg/sg68_27_cif.got.tgz:53992.got - 2010.06.03 18:57:09.
