data_PCOD9507812
_publ_section_title
;
Structure prediction by ZEFSAII (Michael W. Deem and Ramdas Pophale) SiO2 
 PCOD9507812
Probable space group: C C C A
;
_chemical_formula_sum "Si O2"
_cell_formula_units_Z 104
_cell_length_a 8.401858
_cell_length_b 23.307539
_cell_length_c 28.103461
_cell_angle_alpha 90.000000
_cell_angle_beta 90.000000
_cell_angle_gamma 90.000000
_cell_volume 5503.406143
_symmetry_space_group_name_H-M "C C C A"
_symmetry_group_IT_number 68
_space_group.IT_coordinate_system_code '2'
_symmetry_cell_setting 'orthorhombic'
loop_
_space_group_symop_operation_xyz
x,y,z
-x,1/2-y,z
x,1/2-y,1/2-z
-x,y,1/2-z
-x,-y,-z
x,1/2+y,-z
-x,1/2+y,1/2+z
x,-y,1/2+z
1/2+x,1/2+y,z
1/2-x,-y,z
1/2+x,-y,1/2-z
1/2-x,1/2+y,1/2-z
1/2-x,1/2-y,-z
1/2+x,y,-z
1/2-x,y,1/2+z
1/2+x,1/2-y,1/2+z
loop_
_atom_site_type_symbol
_atom_site_label
_atom_site_fract_x
_atom_site_fract_y
_atom_site_fract_z
Si Si1 0.500000 0.250000 0.167489
Si Si2 0.427693 0.527520 0.802639
Si Si3 0.067612 0.570065 0.453865
Si Si4 0.939251 0.067583 0.443087
Si Si5 0.418377 0.417699 0.657998
Si Si6 0.250752 0.750000 0.750000
Si Si7 0.936396 0.376814 0.862253
Si Si8 0.000000 0.650778 0.750000
O O1 0.646098 0.259068 0.203234
O O2 0.534778 0.191010 0.140413
O O3 0.500000 0.533895 0.750000
O O4 0.250000 0.500000 0.802054
O O5 0.545535 0.484268 0.830693
O O6 0.436323 0.587846 0.830155
O O7 0.045387 0.501928 0.444316
O O8 0.252990 0.581995 0.445002
O O9 0.022878 0.585363 0.507822
O O10 0.959136 0.602312 0.415999
O O11 0.012642 0.092057 0.394712
O O12 0.236226 0.396626 0.657077
O O13 0.505506 0.386646 0.702203
O O14 0.147360 0.693240 0.744288
#
# Coordination Sequence:
#
# PCOD9507812 Si02
#       8
#     8  16  16  16  16   8  16   8
#     4  11  26  42  66  90 126 176 230 263 318 368
#     4  12  26  39  59  91 133 172 208 266 336 394
#     4  10  21  39  65  93 133 170 210 271 321 397
#     4  10  21  38  64  99 129 168 213 260 338 389
#     4  12  23  40  63 100 132 168 209 268 333 395
#     4  10  24  46  62  88 122 182 230 272 298 382
#     4  12  25  42  64  93 132 173 218 268 322 389
#     4  11  24  42  66  92 134 169 226 264 326 379
#
# _framework density 18.897387999999999
#
# number of rings (size 3 to 8) (size 9 to 14) (size 15 to 20)
#    0.000    0.923    3.846    3.231    6.462    1.231 
#    0.000    0.000    0.000    5.538    0.000    0.000 
#    0.000    0.000    0.000    0.000    0.000    0.000 
#
# Total GULP energy -290550.502801 kJ/mol
# GULP energy per Si atom -5587.509669 kJ/mol
# Density = 1.885438 g / cm^3
# Si number density = 18.897388 Si / 1000 Ang^3
#
#
#
# Elastic Constant Matrix: (Units=GPa)
#
#
# Indices 1 2 3 4 5 6 
#
# 1 76.2637 28.7626 32.0135 0.0000 0.0000 0.0000
# 2 28.7626 83.0165 23.7124 0.0000 0.0000 0.0000
# 3 32.0135 23.7124 135.1321 0.0000 0.0000 0.0000
# 4 0.0000 0.0000 0.0000 20.4374 0.0000 0.0000
# 5 0.0000 0.0000 0.0000 0.0000 34.2110 0.0000
# 6 0.0000 0.0000 0.0000 0.0000 0.0000 31.5515
#
#
#
# Elastic Compliance Matrix: (Units=1/GPa)
#
#
# Indices 1 2 3 4 5 6 
#
# 1 0.016159 -0.004743 -0.002996 0.000000 0.000000 0.000000
# 2 -0.004743 0.014073 -0.001346 0.000000 0.000000 0.000000
# 3 -0.002996 -0.001346 0.008346 0.000000 0.000000 0.000000
# 4 0.000000 0.000000 0.000000 0.048930 0.000000 0.000000
# 5 0.000000 0.000000 0.000000 0.000000 0.029230 0.000000
# 6 0.000000 0.000000 0.000000 0.000000 0.000000 0.031694
#
#
# Mechanical properties :
#
#
# Convention : Reuss Voigt Hill
#
# Bulk Modulus (GPa) = 48.99776 51.48772 50.24274
# Shear Modulus (GPa) = 28.83426 31.23491 30.03458
#
# Velocity S-wave (km/s) = 3.91043 4.06996 3.99099
# Velocity P-wave (km/s) = 6.80979 7.02789 6.91970
#
# Compressibility (1/GPa) = 0.02040910
#
# Stress axis : x y z
#
# Youngs Moduli (GPa) = 61.88625 71.05570 119.81672
#
# Poissons Ratio (x) = 0.33700 0.35895
# Poissons Ratio (y) = 0.29351 0.16127
# Poissons Ratio (z) = 0.18540 0.09564
#
# Static dielectric constant tensor:
#      x y z
#    x 1.683710 0.000000 0.000000 
#    y 0.000000 1.651300 0.000000 
#    z 0.000000 0.000000 1.645400 
# 
# From -- ./inp_files/54153.got.cif
#   From: 2010.05.17/outbox.cif.g08.bks.cpg/sg68_28_cif.got.tgz:54153.got - 2010.06.03 18:57:09.
