data_PCOD9507787
_publ_section_title
;
Structure prediction by ZEFSAII (Michael W. Deem and Ramdas Pophale) SiO2 
 PCOD9507787
Probable space group: C C C A
;
_chemical_formula_sum "Si O2"
_cell_formula_units_Z 96
_cell_length_a 23.951356
_cell_length_b 9.082605
_cell_length_c 22.294400
_cell_angle_alpha 90.000000
_cell_angle_beta 90.000000
_cell_angle_gamma 90.000000
_cell_volume 4849.939511
_symmetry_space_group_name_H-M "C C C A"
_symmetry_group_IT_number 68
_space_group.IT_coordinate_system_code '2'
_symmetry_cell_setting 'orthorhombic'
loop_
_space_group_symop_operation_xyz
x,y,z
-x,1/2-y,z
x,1/2-y,1/2-z
-x,y,1/2-z
-x,-y,-z
x,1/2+y,-z
-x,1/2+y,1/2+z
x,-y,1/2+z
1/2+x,1/2+y,z
1/2-x,-y,z
1/2+x,-y,1/2-z
1/2-x,1/2+y,1/2-z
1/2-x,1/2-y,-z
1/2+x,y,-z
1/2-x,y,1/2+z
1/2+x,1/2-y,1/2+z
loop_
_atom_site_type_symbol
_atom_site_label
_atom_site_fract_x
_atom_site_fract_y
_atom_site_fract_z
Si Si1 0.538242 0.120240 0.964968
Si Si2 0.852486 0.777453 0.492568
Si Si3 0.685666 0.489426 0.416757
Si Si4 0.870732 0.014445 0.885427
Si Si5 0.835553 0.223251 0.679359
Si Si6 0.719682 0.352926 0.695145
O O1 0.500000 0.250000 0.942105
O O2 0.572946 0.053654 0.910213
O O3 0.585556 0.204548 0.004970
O O4 0.500000 0.000000 0.000000
O O5 0.817812 0.641150 0.466657
O O6 0.837978 0.859212 0.554855
O O7 0.845412 0.909034 0.444878
O O8 0.750000 0.500000 0.401997
O O9 0.655578 0.428402 0.356401
O O10 0.878907 0.157076 0.844648
O O11 0.828577 0.907313 0.849784
O O12 0.836443 0.250000 0.750000
O O13 0.771962 0.274022 0.662722
O O14 0.700410 0.250000 0.750000
O O15 0.750000 0.500000 0.721086
#
# Coordination Sequence:
#
# PCOD9507787 Si02
#       6
#    16  16  16  16  16  16
#     4  12  23  42  67  89 117 159 216 272 328 381
#     4  11  22  41  57  96 127 161 212 254 332 392
#     4  11  23  35  60  92 136 168 200 253 317 391
#     4  10  21  38  63  93 126 163 211 268 312 380
#     4   9  21  40  61  91 133 182 216 238 301 383
#     4   9  19  38  61  91 131 176 215 245 294 376
#
# _framework density 19.794062
#
# number of rings (size 3 to 8) (size 9 to 14) (size 15 to 20)
#    0.000    1.667    3.333    0.500    2.333    8.667 
#    0.000    0.000    0.000    0.500    4.333    1.167 
#    0.000    0.000    0.000    0.000    0.000    0.000 
#
# Total GULP energy -267260.047134 kJ/mol
# GULP energy per Si atom -5567.917649 kJ/mol
# Density = 1.974901 g / cm^3
# Si number density = 19.794062 Si / 1000 Ang^3
#
#
#
# Elastic Constant Matrix: (Units=GPa)
#
#
# Indices 1 2 3 4 5 6 
#
# 1 62.1767 54.9251 51.2736 0.0000 0.0000 0.0000
# 2 54.9251 107.5827 70.4774 0.0000 0.0000 0.0000
# 3 51.2736 70.4774 114.7802 0.0000 0.0000 0.0000
# 4 0.0000 0.0000 0.0000 48.0185 0.0000 0.0000
# 5 0.0000 0.0000 0.0000 0.0000 24.8413 0.0000
# 6 0.0000 0.0000 0.0000 0.0000 0.0000 42.2757
#
#
#
# Elastic Compliance Matrix: (Units=1/GPa)
#
#
# Indices 1 2 3 4 5 6 
#
# 1 0.032545 -0.011863 -0.007254 0.000000 0.000000 0.000000
# 2 -0.011863 0.019875 -0.006904 0.000000 0.000000 0.000000
# 3 -0.007254 -0.006904 0.016192 0.000000 0.000000 0.000000
# 4 0.000000 0.000000 0.000000 0.020825 0.000000 0.000000
# 5 0.000000 0.000000 0.000000 0.000000 0.040256 0.000000
# 6 0.000000 0.000000 0.000000 0.000000 0.000000 0.023654
#
#
# Mechanical properties :
#
#
# Convention : Reuss Voigt Hill
#
# Bulk Modulus (GPa) = 60.35350 70.87687 65.61519
# Shear Modulus (GPa) = 23.70662 30.21799 26.96231
#
# Velocity S-wave (km/s) = 3.46448 3.91144 3.69472
# Velocity P-wave (km/s) = 6.82352 7.50227 7.17093
#
# Compressibility (1/GPa) = 0.01656905
#
# Stress axis : x y z
#
# Youngs Moduli (GPa) = 30.72692 50.31529 61.75971
#
# Poissons Ratio (x) = 0.59691 0.44799
# Poissons Ratio (y) = 0.36453 0.42639
# Poissons Ratio (z) = 0.22288 0.34737
#
# Static dielectric constant tensor:
#      x y z
#    x 1.755890 0.000000 0.000000 
#    y 0.000000 1.869770 0.000000 
#    z 0.000000 0.000000 1.802120 
# 
# From -- ./inp_files/46951.got.cif
#   From: 2010.05.17/outbox.cif.g08.bks.cpg/sg68_24_cif.got.tgz:46951.got - 2010.06.03 18:57:09.
