data_PCOD9507226
_publ_section_title
;
Structure prediction by ZEFSAII (Michael W. Deem and Ramdas Pophale) SiO2 
 PCOD9507226
Probable space group: C C C A
;
_chemical_formula_sum "Si O2"
_cell_formula_units_Z 104
_cell_length_a 20.505012
_cell_length_b 8.703802
_cell_length_c 27.063092
_cell_angle_alpha 90.000000
_cell_angle_beta 90.000000
_cell_angle_gamma 90.000000
_cell_volume 4829.992368
_symmetry_space_group_name_H-M "C C C A"
_symmetry_group_IT_number 68
_space_group.IT_coordinate_system_code '2'
_symmetry_cell_setting 'orthorhombic'
loop_
_space_group_symop_operation_xyz
x,y,z
-x,1/2-y,z
x,1/2-y,1/2-z
-x,y,1/2-z
-x,-y,-z
x,1/2+y,-z
-x,1/2+y,1/2+z
x,-y,1/2+z
1/2+x,1/2+y,z
1/2-x,-y,z
1/2+x,-y,1/2-z
1/2-x,1/2+y,1/2-z
1/2-x,1/2-y,-z
1/2+x,y,-z
1/2-x,y,1/2+z
1/2+x,1/2-y,1/2+z
loop_
_atom_site_type_symbol
_atom_site_label
_atom_site_fract_x
_atom_site_fract_y
_atom_site_fract_z
Si Si1 0.361143 0.787042 0.934474
Si Si2 0.285642 0.751134 0.103764
Si Si3 0.000000 0.250000 0.086465
Si Si4 0.696250 0.613011 0.210868
Si Si5 0.072048 0.065376 0.252742
Si Si6 0.103942 0.525485 0.636040
Si Si7 0.885900 0.939554 0.963028
O O1 0.285098 0.775138 0.919380
O O2 0.385272 0.619714 0.951355
O O3 0.400232 0.859372 0.888674
O O4 0.372274 0.903389 0.979913
O O5 0.282212 0.831072 0.157245
O O6 0.329470 0.600844 0.114818
O O7 0.327954 0.859085 0.067888
O O8 0.045805 0.360294 0.119474
O O9 0.047579 0.143561 0.053959
O O10 0.692633 0.750000 0.250000
O O11 0.750000 0.500000 0.230911
O O12 0.624906 0.533869 0.210126
O O13 0.063846 0.250000 0.250000
O O14 0.103496 0.021892 0.305061
O O15 0.000000 0.996319 0.250000
#
# Coordination Sequence:
#
# PCOD9507226 Si02
#       7
#    16  16   8  16  16  16  16
#     4  12  26  43  70 103 144 178 240 295 360 424
#     4  11  23  44  65 102 138 183 232 288 362 426
#     4  10  24  44  73  96 140 180 251 274 358 420
#     4  11  23  39  66 100 140 183 230 294 355 426
#     4  10  20  39  69 100 136 180 241 285 356 430
#     4  11  23  40  69 103 132 187 229 299 347 429
#     4  11  25  45  70 102 138 190 230 299 353 420
#
# _framework density 21.532126000000002
#
# number of rings (size 3 to 8) (size 9 to 14) (size 15 to 20)
#    0.000    1.077    3.077    5.077    4.308    4.308 
#    0.000    0.000    0.000    0.462    0.000    0.000 
#    0.000    0.000    0.000    0.000    0.000    0.000 
#
# Total GULP energy -290745.865233 kJ/mol
# GULP energy per Si atom -5591.266639 kJ/mol
# Density = 2.148312 g / cm^3
# Si number density = 21.532126 Si / 1000 Ang^3
#
#
#
# Elastic Constant Matrix: (Units=GPa)
#
#
# Indices 1 2 3 4 5 6 
#
# 1 109.0956 35.7107 -10.1161 0.0000 0.0000 0.0000
# 2 35.7107 98.1103 28.1832 0.0000 0.0000 0.0000
# 3 -10.1161 28.1832 73.2497 0.0000 0.0000 0.0000
# 4 0.0000 0.0000 0.0000 19.4366 0.0000 0.0000
# 5 0.0000 0.0000 0.0000 0.0000 30.9076 0.0000
# 6 0.0000 0.0000 0.0000 0.0000 0.0000 9.3134
#
#
#
# Elastic Compliance Matrix: (Units=1/GPa)
#
#
# Indices 1 2 3 4 5 6 
#
# 1 0.011145 -0.005058 0.003485 0.000000 0.000000 0.000000
# 2 -0.005058 0.013754 -0.005991 0.000000 0.000000 0.000000
# 3 0.003485 -0.005991 0.016438 0.000000 0.000000 0.000000
# 4 0.000000 0.000000 0.000000 0.051449 0.000000 0.000000
# 5 0.000000 0.000000 0.000000 0.000000 0.032355 0.000000
# 6 0.000000 0.000000 0.000000 0.000000 0.000000 0.107372
#
#
# Mechanical properties :
#
#
# Convention : Reuss Voigt Hill
#
# Bulk Modulus (GPa) = 38.15158 43.11237 40.63198
# Shear Modulus (GPa) = 19.50256 27.04339 23.27297
#
# Velocity S-wave (km/s) = 3.01282 3.54779 3.29119
# Velocity P-wave (km/s) = 5.46440 6.07027 5.77529
#
# Compressibility (1/GPa) = 0.02621124
#
# Stress axis : x y z
#
# Youngs Moduli (GPa) = 89.72613 72.70385 60.83405
#
# Poissons Ratio (x) = 0.36772 -0.21202
# Poissons Ratio (y) = 0.45382 0.36443
# Poissons Ratio (z) = -0.31271 0.43554
#
# Static dielectric constant tensor:
#      x y z
#    x 1.832220 0.000000 0.000000 
#    y 0.000000 1.812790 0.000000 
#    z 0.000000 0.000000 1.782950 
# 
# From -- ./inp_files/51852.got.cif
#   From: 2010.05.17/outbox.cif.g08.bks.cpg/sg68_26_cif.got.tgz:51852.got - 2010.06.03 18:57:09.
