data_PCOD9507809
_publ_section_title
;
Structure prediction by ZEFSAII (Michael W. Deem and Ramdas Pophale) SiO2 
 PCOD9507809
Probable space group: C C C A
;
_chemical_formula_sum "Si O2"
_cell_formula_units_Z 48
_cell_length_a 15.682593
_cell_length_b 10.070415
_cell_length_c 13.569663
_cell_angle_alpha 90.000000
_cell_angle_beta 90.000000
_cell_angle_gamma 90.000000
_cell_volume 2143.059860
_symmetry_space_group_name_H-M "C C C A"
_symmetry_group_IT_number 68
_space_group.IT_coordinate_system_code '2'
_symmetry_cell_setting 'orthorhombic'
loop_
_space_group_symop_operation_xyz
x,y,z
-x,1/2-y,z
x,1/2-y,1/2-z
-x,y,1/2-z
-x,-y,-z
x,1/2+y,-z
-x,1/2+y,1/2+z
x,-y,1/2+z
1/2+x,1/2+y,z
1/2-x,-y,z
1/2+x,-y,1/2-z
1/2-x,1/2+y,1/2-z
1/2-x,1/2-y,-z
1/2+x,y,-z
1/2-x,y,1/2+z
1/2+x,1/2-y,1/2+z
loop_
_atom_site_type_symbol
_atom_site_label
_atom_site_fract_x
_atom_site_fract_y
_atom_site_fract_z
Si Si1 0.339222 0.321505 0.978992
Si Si2 0.424399 0.052018 0.928265
Si Si3 0.171057 0.597209 0.761782
O O1 0.347838 0.405170 0.877814
O O2 0.401925 0.196447 0.971459
O O3 0.250000 0.250000 0.000000
O O4 0.357331 0.432146 0.059048
O O5 0.410499 0.075995 0.810102
O O6 0.500000 0.000000 0.000000
O O7 0.200117 0.750000 0.750000
O O8 0.250000 0.500000 0.742231
#
# Coordination Sequence:
#
# PCOD9507809 Si02
#       3
#    16  16  16
#     4  11  22  41  67  93 126 174 227 277 333 403
#     4  11  23  39  61  94 134 172 216 276 342 404
#     4  10  21  38  64  96 129 172 228 282 334 402
#
# _framework density 22.397881999999999
#
# number of rings (size 3 to 8) (size 9 to 14) (size 15 to 20)
#    0.000    1.333    0.000    8.000    0.000    1.333 
#    0.000    5.000    0.000    8.000    0.000    0.000 
#    0.000    0.000    0.000    0.000    0.000    0.000 
#
# Total GULP energy -133601.067439 kJ/mol
# GULP energy per Si atom -5566.711143 kJ/mol
# Density = 2.234690 g / cm^3
# Si number density = 22.397882 Si / 1000 Ang^3
#
#
#
# Elastic Constant Matrix: (Units=GPa)
#
#
# Indices 1 2 3 4 5 6 
#
# 1 104.5044 55.0699 59.4847 0.0000 0.0000 0.0000
# 2 55.0699 98.5884 56.3611 0.0000 0.0000 0.0000
# 3 59.4847 56.3611 134.0986 0.0000 0.0000 0.0000
# 4 0.0000 0.0000 0.0000 38.5376 0.0000 0.0000
# 5 0.0000 0.0000 0.0000 0.0000 22.8201 0.0000
# 6 0.0000 0.0000 0.0000 0.0000 0.0000 37.1741
#
#
#
# Elastic Compliance Matrix: (Units=1/GPa)
#
#
# Indices 1 2 3 4 5 6 
#
# 1 0.015141 -0.006078 -0.004162 0.000000 0.000000 0.000000
# 2 -0.006078 0.015791 -0.003941 0.000000 0.000000 0.000000
# 3 -0.004162 -0.003941 0.010960 0.000000 0.000000 0.000000
# 4 0.000000 0.000000 0.000000 0.025949 0.000000 0.000000
# 5 0.000000 0.000000 0.000000 0.000000 0.043821 0.000000
# 6 0.000000 0.000000 0.000000 0.000000 0.000000 0.026900
#
#
# Mechanical properties :
#
#
# Convention : Reuss Voigt Hill
#
# Bulk Modulus (GPa) = 73.90820 75.44699 74.67759
# Shear Modulus (GPa) = 29.16587 30.79140 29.97863
#
# Velocity S-wave (km/s) = 3.61248 3.71178 3.66246
# Velocity P-wave (km/s) = 7.10419 7.21995 7.16230
#
# Compressibility (1/GPa) = 0.01353030
#
# Stress axis : x y z
#
# Youngs Moduli (GPa) = 66.04650 63.32616 91.24483
#
# Poissons Ratio (x) = 0.38492 0.37973
# Poissons Ratio (y) = 0.40145 0.35957
# Poissons Ratio (z) = 0.27486 0.24955
#
# Static dielectric constant tensor:
#      x y z
#    x 1.935110 0.000000 0.000000 
#    y 0.000000 1.650730 0.000000 
#    z 0.000000 0.000000 2.065420 
# 
# From -- ./inp_files/13802.got.cif
#   From: 2010.05.17/outbox.cif.g08.bks.cpg/sg68_7_cif.got.tgz:13802.got - 2010.06.03 18:57:09.
