data_PCOD9507884
_publ_section_title
;
Structure prediction by ZEFSAII (Michael W. Deem and Ramdas Pophale) SiO2 
 PCOD9507884
Probable space group: C C C A
;
_chemical_formula_sum "Si O2"
_cell_formula_units_Z 128
_cell_length_a 25.230913
_cell_length_b 10.753171
_cell_length_c 24.376438
_cell_angle_alpha 90.000000
_cell_angle_beta 90.000000
_cell_angle_gamma 90.000000
_cell_volume 6613.627995
_symmetry_space_group_name_H-M "C C C A"
_symmetry_group_IT_number 68
_space_group.IT_coordinate_system_code '2'
_symmetry_cell_setting 'orthorhombic'
loop_
_space_group_symop_operation_xyz
x,y,z
-x,1/2-y,z
x,1/2-y,1/2-z
-x,y,1/2-z
-x,-y,-z
x,1/2+y,-z
-x,1/2+y,1/2+z
x,-y,1/2+z
1/2+x,1/2+y,z
1/2-x,-y,z
1/2+x,-y,1/2-z
1/2-x,1/2+y,1/2-z
1/2-x,1/2-y,-z
1/2+x,y,-z
1/2-x,y,1/2+z
1/2+x,1/2-y,1/2+z
loop_
_atom_site_type_symbol
_atom_site_label
_atom_site_fract_x
_atom_site_fract_y
_atom_site_fract_z
Si Si1 0.235631 0.716743 0.563016
Si Si2 0.645739 0.541451 0.453019
Si Si3 0.163768 0.147461 0.867754
Si Si4 0.702376 0.096882 0.246626
Si Si5 0.379250 0.400914 0.340853
Si Si6 0.311514 0.464018 0.931792
Si Si7 0.461452 0.134135 0.956580
Si Si8 0.480791 0.892985 0.586478
O O1 0.250000 0.750000 0.500000
O O2 0.203083 0.590853 0.563646
O O3 0.287724 0.709353 0.599056
O O4 0.195128 0.821020 0.583216
O O5 0.632709 0.431464 0.412073
O O6 0.654074 0.489558 0.514073
O O7 0.601210 0.645923 0.446709
O O8 0.188024 0.074147 0.816768
O O9 0.125963 0.252683 0.844465
O O10 0.714586 0.250000 0.250000
O O11 0.649304 0.070295 0.282704
O O12 0.750000 0.000000 0.262425
O O13 0.338145 0.460552 0.383685
O O14 0.436951 0.428813 0.367159
O O15 0.250000 0.500000 0.941600
O O16 0.500000 0.250000 0.944624
O O17 0.480633 0.012505 0.922602
O O18 0.461493 0.115459 0.022774
O O19 0.500000 0.750000 0.598360
#
# Coordination Sequence:
#
# PCOD9507884 Si02
#       8
#    16  16  16  16  16  16  16  16
#     4  12  22  32  53  88 127 159 192 232 293 373
#     4  12  22  35  57  81 123 163 192 244 308 369
#     4  11  22  39  59  88 125 163 203 244 298 367
#     4  10  23  41  61  88 125 168 213 251 295 361
#     4  11  22  38  63  84 117 159 203 254 301 359
#     4  12  21  33  51  87 123 157 194 235 293 366
#     4  10  23  38  55  87 121 154 200 250 313 378
#     4  10  21  39  61  85 117 156 201 258 311 365
#
# _framework density 19.353977
#
# number of rings (size 3 to 8) (size 9 to 14) (size 15 to 20)
#    0.000    1.000    5.000    2.250    3.500    1.000 
#    0.000    0.000    0.000    8.625    0.000    0.875 
#    0.000    0.000    0.000    0.000    0.000    0.000 
#
# Total GULP energy -356292.228206 kJ/mol
# GULP energy per Si atom -5567.066066 kJ/mol
# Density = 1.930993 g / cm^3
# Si number density = 19.353977 Si / 1000 Ang^3
#
#
#
# Elastic Constant Matrix: (Units=GPa)
#
#
# Indices 1 2 3 4 5 6 
#
# 1 104.6104 29.9095 27.5905 0.0000 0.0000 0.0000
# 2 29.9095 59.7170 9.7433 0.0000 0.0000 0.0000
# 3 27.5905 9.7433 95.1812 0.0000 0.0000 0.0000
# 4 0.0000 0.0000 0.0000 24.3458 0.0000 0.0000
# 5 0.0000 0.0000 0.0000 0.0000 -6.2353 0.0000
# 6 0.0000 0.0000 0.0000 0.0000 0.0000 28.2572
#
#
#
# Elastic Compliance Matrix: (Units=1/GPa)
#
#
# Indices 1 2 3 4 5 6 
#
# 1 0.011888 -0.005483 -0.002885 0.000000 0.000000 0.000000
# 2 -0.005483 0.019559 -0.000413 0.000000 0.000000 0.000000
# 3 -0.002885 -0.000413 0.011385 0.000000 0.000000 0.000000
# 4 0.000000 0.000000 0.000000 0.041075 0.000000 0.000000
# 5 0.000000 0.000000 0.000000 0.000000 -0.160378 0.000000
# 6 0.000000 0.000000 0.000000 0.000000 0.000000 0.035389
#
#
# Mechanical properties :
#
#
# Convention : Reuss Voigt Hill
#
# Bulk Modulus (GPa) = 39.57206 43.77725 41.67465
# Shear Modulus (GPa) = -331.19802 22.09121 -154.55341
#
# Velocity S-wave (km/s) = -13.09573 3.38217 -8.94592
# Velocity P-wave (km/s) = 14.42821 6.15796 9.22640
#
# Compressibility (1/GPa) = 0.02527036
#
# Stress axis : x y z
#
# Youngs Moduli (GPa) = 84.11919 51.12628 87.83706
#
# Poissons Ratio (x) = 0.28035 0.25338
# Poissons Ratio (y) = 0.46126 0.03625
# Poissons Ratio (z) = 0.24266 0.02110
#
# Static dielectric constant tensor:
#      x y z
#    x 1.713330 0.000000 0.000000 
#    y 0.000000 1.749540 0.000000 
#    z 0.000000 0.000000 1.682570 
# 
# From -- ./inp_files/47080.got.cif
#   From: 2010.05.17/outbox.cif.g08.bks.cpg/sg68_24_cif.got.tgz:47080.got - 2010.06.03 18:57:09.
