data_PCOD9507096
_publ_section_title
;
Structure prediction by ZEFSAII (Michael W. Deem and Ramdas Pophale) SiO2 
 PCOD9507096
Probable space group: C C C A
;
_chemical_formula_sum "Si O2"
_cell_formula_units_Z 88
_cell_length_a 5.435432
_cell_length_b 26.287481
_cell_length_c 28.844179
_cell_angle_alpha 90.000000
_cell_angle_beta 90.000000
_cell_angle_gamma 90.000000
_cell_volume 4121.366348
_symmetry_space_group_name_H-M "C C C A"
_symmetry_group_IT_number 68
_space_group.IT_coordinate_system_code '2'
_symmetry_cell_setting 'orthorhombic'
loop_
_space_group_symop_operation_xyz
x,y,z
-x,1/2-y,z
x,1/2-y,1/2-z
-x,y,1/2-z
-x,-y,-z
x,1/2+y,-z
-x,1/2+y,1/2+z
x,-y,1/2+z
1/2+x,1/2+y,z
1/2-x,-y,z
1/2+x,-y,1/2-z
1/2-x,1/2+y,1/2-z
1/2-x,1/2-y,-z
1/2+x,y,-z
1/2-x,y,1/2+z
1/2+x,1/2-y,1/2+z
loop_
_atom_site_type_symbol
_atom_site_label
_atom_site_fract_x
_atom_site_fract_y
_atom_site_fract_z
Si Si1 0.446365 0.196760 0.901117
Si Si2 0.887311 0.448276 0.704521
Si Si3 0.750000 0.500000 0.365816
Si Si4 0.102006 0.416578 0.977417
Si Si5 0.110095 0.585419 0.882604
Si Si6 0.946323 0.803244 0.459694
O O1 0.500000 0.250000 0.873437
O O2 0.476291 0.139519 0.882775
O O3 0.684412 0.199380 0.934662
O O4 0.174964 0.195756 0.923731
O O5 0.750000 0.500000 0.720741
O O6 0.704853 0.420082 0.669896
O O7 0.000000 0.422776 0.750000
O O8 0.097429 0.464501 0.668790
O O9 0.566420 0.537278 0.392534
O O10 0.180849 0.417964 0.923063
O O11 0.064646 0.355955 0.987171
O O12 0.336756 0.437184 0.006334
O O13 0.000000 0.750000 0.485031
#
# Coordination Sequence:
#
# PCOD9507096 Si02
#       6
#    16  16   8  16  16  16
#     4   9  18  34  58  88 125 164 208 254 306 372
#     4  10  20  38  64  97 127 148 191 262 335 384
#     4  10  22  38  66  88 126 152 194 262 324 380
#     4  11  23  37  56  83 125 172 217 260 300 363
#     4  10  23  37  62  91 126 167 210 256 317 377
#     4   9  18  33  54  82 117 159 213 271 321 355
#
# _framework density 21.352142000000001
#
# number of rings (size 3 to 8) (size 9 to 14) (size 15 to 20)
#    0.000    2.182    0.909    2.182    7.636    0.727 
#    0.000    1.818    0.000    0.000    0.000    3.818 
#    0.000    0.000    0.000    0.000    0.000    0.000 
#
# Total GULP energy -245261.820556 kJ/mol
# GULP energy per Si atom -5574.132285 kJ/mol
# Density = 2.130354 g / cm^3
# Si number density = 21.352142 Si / 1000 Ang^3
#
#
#
# Elastic Constant Matrix: (Units=GPa)
#
#
# Indices 1 2 3 4 5 6 
#
# 1 115.7750 34.9512 39.0514 0.0000 0.0000 0.0000
# 2 34.9512 102.1772 45.2730 0.0000 0.0000 0.0000
# 3 39.0514 45.2730 88.2251 0.0000 0.0000 0.0000
# 4 0.0000 0.0000 0.0000 11.5960 0.0000 0.0000
# 5 0.0000 0.0000 0.0000 0.0000 18.5133 0.0000
# 6 0.0000 0.0000 0.0000 0.0000 0.0000 28.2514
#
#
#
# Elastic Compliance Matrix: (Units=1/GPa)
#
#
# Indices 1 2 3 4 5 6 
#
# 1 0.010452 -0.001974 -0.003613 0.000000 0.000000 0.000000
# 2 -0.001974 0.013040 -0.005818 0.000000 0.000000 0.000000
# 3 -0.003613 -0.005818 0.015919 0.000000 0.000000 0.000000
# 4 0.000000 0.000000 0.000000 0.086236 0.000000 0.000000
# 5 0.000000 0.000000 0.000000 0.000000 0.054015 0.000000
# 6 0.000000 0.000000 0.000000 0.000000 0.000000 0.035396
#
#
# Mechanical properties :
#
#
# Convention : Reuss Voigt Hill
#
# Bulk Modulus (GPa) = 60.23741 60.52537 60.38139
# Shear Modulus (GPa) = 20.54198 24.13226 22.33712
#
# Velocity S-wave (km/s) = 3.10507 3.36550 3.23790
# Velocity P-wave (km/s) = 6.41311 6.59620 6.50530
#
# Compressibility (1/GPa) = 0.01660098
#
# Stress axis : x y z
#
# Youngs Moduli (GPa) = 95.67288 76.68748 62.81660
#
# Poissons Ratio (x) = 0.15141 0.22698
# Poissons Ratio (y) = 0.18889 0.36544
# Poissons Ratio (z) = 0.34570 0.44614
#
# Static dielectric constant tensor:
#      x y z
#    x 1.979900 0.000000 0.000000 
#    y 0.000000 1.841650 0.000000 
#    z 0.000000 0.000000 1.751150 
# 
# From -- ./inp_files/53391.got.cif
#   From: 2010.05.17/outbox.cif.g08.bks.cpg/sg68_27_cif.got.tgz:53391.got - 2010.06.03 18:57:09.
