data_PCOD9507731
_publ_section_title
;
Structure prediction by ZEFSAII (Michael W. Deem and Ramdas Pophale) SiO2 
 PCOD9507731
Probable space group: C C C A
;
_chemical_formula_sum "Si O2"
_cell_formula_units_Z 104
_cell_length_a 20.528701
_cell_length_b 18.864074
_cell_length_c 14.436804
_cell_angle_alpha 90.000000
_cell_angle_beta 90.000000
_cell_angle_gamma 90.000000
_cell_volume 5590.723592
_symmetry_space_group_name_H-M "C C C A"
_symmetry_group_IT_number 68
_space_group.IT_coordinate_system_code '2'
_symmetry_cell_setting 'orthorhombic'
loop_
_space_group_symop_operation_xyz
x,y,z
-x,1/2-y,z
x,1/2-y,1/2-z
-x,y,1/2-z
-x,-y,-z
x,1/2+y,-z
-x,1/2+y,1/2+z
x,-y,1/2+z
1/2+x,1/2+y,z
1/2-x,-y,z
1/2+x,-y,1/2-z
1/2-x,1/2+y,1/2-z
1/2-x,1/2-y,-z
1/2+x,y,-z
1/2-x,y,1/2+z
1/2+x,1/2-y,1/2+z
loop_
_atom_site_type_symbol
_atom_site_label
_atom_site_fract_x
_atom_site_fract_y
_atom_site_fract_z
Si Si1 0.397820 0.978881 0.502284
Si Si2 0.351705 0.750000 0.750000
Si Si3 0.990265 0.053035 0.641437
Si Si4 0.167307 0.130102 0.032332
Si Si5 0.276199 0.671416 0.271212
Si Si6 0.221930 0.920564 0.902690
Si Si7 0.063027 0.705032 0.080795
O O1 0.442622 0.949608 0.583968
O O2 0.340103 0.928195 0.469273
O O3 0.442740 0.998534 0.413152
O O4 0.365752 0.052697 0.535383
O O5 0.301819 0.815850 0.737894
O O6 0.396235 0.755899 0.839728
O O7 0.000000 0.038340 0.750000
O O8 0.959768 0.130654 0.626025
O O9 0.201560 0.148320 0.128057
O O10 0.222011 0.125159 0.952472
O O11 0.111752 0.185245 0.002204
O O12 0.303539 0.750000 0.250000
O O13 0.296084 0.615489 0.193631
O O14 0.250000 0.000000 0.888459
O O15 0.000000 0.750000 0.053378
#
# Coordination Sequence:
#
# PCOD9507731 Si02
#       7
#    16   8  16  16  16  16  16
#     4   9  22  38  59  90 120 159 206 247 314 366
#     4  10  21  38  58  94 117 158 206 248 318 366
#     4  10  21  38  58  87 118 161 204 255 299 362
#     4  10  21  41  60  88 126 153 206 257 305 376
#     4  10  23  38  63  92 123 163 199 257 320 373
#     4  10  21  40  61  93 125 161 205 262 316 379
#     4  11  22  38  59  85 122 160 207 251 300 373
#
# _framework density 18.602243000000001
#
# number of rings (size 3 to 8) (size 9 to 14) (size 15 to 20)
#    0.462    1.538    1.538    1.154    2.154    8.000 
#    0.000    0.000    0.000    0.000    0.000    0.000 
#    0.000    0.000    0.000    0.000    0.000    0.000 
#
# Total GULP energy -290221.687414 kJ/mol
# GULP energy per Si atom -5581.186296 kJ/mol
# Density = 1.855990 g / cm^3
# Si number density = 18.602243 Si / 1000 Ang^3
#
#
#
# Elastic Constant Matrix: (Units=GPa)
#
#
# Indices 1 2 3 4 5 6 
#
# 1 105.8840 28.2051 43.0994 0.0000 0.0000 0.0000
# 2 28.2051 30.3392 37.7420 0.0000 0.0000 0.0000
# 3 43.0994 37.7420 131.4841 0.0000 0.0000 0.0000
# 4 0.0000 0.0000 0.0000 18.2210 0.0000 0.0000
# 5 0.0000 0.0000 0.0000 0.0000 18.0249 0.0000
# 6 0.0000 0.0000 0.0000 0.0000 0.0000 27.1182
#
#
#
# Elastic Compliance Matrix: (Units=1/GPa)
#
#
# Indices 1 2 3 4 5 6 
#
# 1 0.012674 -0.010288 -0.001201 0.000000 0.000000 0.000000
# 2 -0.010288 0.059619 -0.013741 0.000000 0.000000 0.000000
# 3 -0.001201 -0.013741 0.011944 0.000000 0.000000 0.000000
# 4 0.000000 0.000000 0.000000 0.054882 0.000000 0.000000
# 5 0.000000 0.000000 0.000000 0.000000 0.055479 0.000000
# 6 0.000000 0.000000 0.000000 0.000000 0.000000 0.036876
#
#
# Mechanical properties :
#
#
# Convention : Reuss Voigt Hill
#
# Bulk Modulus (GPa) = 29.60711 53.97783 41.79247
# Shear Modulus (GPa) = 17.05371 23.25020 20.15196
#
# Velocity S-wave (km/s) = 3.03108 3.53917 3.29494
# Velocity P-wave (km/s) = 5.31040 6.76615 6.08199
#
# Compressibility (1/GPa) = 0.03377567
#
# Stress axis : x y z
#
# Youngs Moduli (GPa) = 78.90341 16.77322 83.72713
#
# Poissons Ratio (x) = 0.17256 0.10058
# Poissons Ratio (y) = 0.81175 1.15050
# Poissons Ratio (z) = 0.09478 0.23048
#
# Static dielectric constant tensor:
#      x y z
#    x 1.654590 0.000000 0.000000 
#    y 0.000000 1.651890 0.000000 
#    z 0.000000 0.000000 1.601390 
# 
# From -- ./inp_files/24638.got.cif
#   From: 2010.05.17/outbox.cif.g08.bks.cpg/sg68_13_cif.got.tgz:24638.got - 2010.06.03 18:57:09.
