data_PCOD9507260
_publ_section_title
;
Structure prediction by ZEFSAII (Michael W. Deem and Ramdas Pophale) SiO2 
 PCOD9507260
Probable space group: C C C A
;
_chemical_formula_sum "Si O2"
_cell_formula_units_Z 96
_cell_length_a 15.132638
_cell_length_b 16.461526
_cell_length_c 18.138260
_cell_angle_alpha 90.000000
_cell_angle_beta 90.000000
_cell_angle_gamma 90.000000
_cell_volume 4518.355089
_symmetry_space_group_name_H-M "C C C A"
_symmetry_group_IT_number 68
_space_group.IT_coordinate_system_code '2'
_symmetry_cell_setting 'orthorhombic'
loop_
_space_group_symop_operation_xyz
x,y,z
-x,1/2-y,z
x,1/2-y,1/2-z
-x,y,1/2-z
-x,-y,-z
x,1/2+y,-z
-x,1/2+y,1/2+z
x,-y,1/2+z
1/2+x,1/2+y,z
1/2-x,-y,z
1/2+x,-y,1/2-z
1/2-x,1/2+y,1/2-z
1/2-x,1/2-y,-z
1/2+x,y,-z
1/2-x,y,1/2+z
1/2+x,1/2-y,1/2+z
loop_
_atom_site_type_symbol
_atom_site_label
_atom_site_fract_x
_atom_site_fract_y
_atom_site_fract_z
Si Si1 0.038310 0.921031 0.537492
Si Si2 0.000000 0.250000 0.460781
Si Si3 0.286851 0.750000 0.750000
Si Si4 0.320953 0.210493 0.882396
Si Si5 0.437811 0.416560 0.691709
Si Si6 0.804659 0.415923 0.943512
Si Si7 0.407190 0.598406 0.709398
O O1 0.141941 0.921093 0.519789
O O2 0.999856 0.837642 0.501799
O O3 0.000318 0.925623 0.619953
O O4 0.000000 0.000000 0.500000
O O5 0.091344 0.250812 0.415034
O O6 0.231594 0.735774 0.824682
O O7 0.342583 0.668129 0.738197
O O8 0.355911 0.136031 0.832596
O O9 0.258057 0.163366 0.940037
O O10 0.500000 0.372428 0.750000
O O11 0.404181 0.501558 0.725193
O O12 0.750000 0.500000 0.932108
O O13 0.878153 0.404953 0.878047
O O14 0.500000 0.620712 0.750000
#
# Coordination Sequence:
#
# PCOD9507260 Si02
#       7
#    16   8   8  16  16  16  16
#     4  11  22  43  67  96 129 180 222 273 344 408
#     4  10  24  43  66 100 131 174 242 266 352 410
#     4  10  23  33  60  98 136 170 216 269 349 380
#     4  10  22  39  64  96 134 174 215 291 337 398
#     4  10  21  40  72  92 126 172 228 269 335 406
#     4  11  20  41  68  94 133 178 223 280 344 401
#     4  10  20  40  62  94 130 179 221 267 333 411
#
# _framework density 21.246670000000002
#
# number of rings (size 3 to 8) (size 9 to 14) (size 15 to 20)
#    0.000    1.667    3.333    1.250    4.667    0.667 
#    6.000    3.333    0.000    0.000    0.000    0.000 
#    0.000    0.000    0.000    0.000    0.000    0.000 
#
# Total GULP energy -267233.275118 kJ/mol
# GULP energy per Si atom -5567.359898 kJ/mol
# Density = 2.119831 g / cm^3
# Si number density = 21.246670 Si / 1000 Ang^3
#
#
#
# Elastic Constant Matrix: (Units=GPa)
#
#
# Indices 1 2 3 4 5 6 
#
# 1 97.6962 38.1183 31.9576 0.0000 0.0000 0.0000
# 2 38.1183 111.7662 31.4787 0.0000 0.0000 0.0000
# 3 31.9576 31.4787 52.4257 0.0000 0.0000 0.0000
# 4 0.0000 0.0000 0.0000 21.1924 0.0000 0.0000
# 5 0.0000 0.0000 0.0000 0.0000 35.6137 0.0000
# 6 0.0000 0.0000 0.0000 0.0000 0.0000 21.4184
#
#
#
# Elastic Compliance Matrix: (Units=1/GPa)
#
#
# Indices 1 2 3 4 5 6 
#
# 1 0.013449 -0.002741 -0.006552 0.000000 0.000000 0.000000
# 2 -0.002741 0.011327 -0.005130 0.000000 0.000000 0.000000
# 3 -0.006552 -0.005130 0.026149 0.000000 0.000000 0.000000
# 4 0.000000 0.000000 0.000000 0.047187 0.000000 0.000000
# 5 0.000000 0.000000 0.000000 0.000000 0.028079 0.000000
# 6 0.000000 0.000000 0.000000 0.000000 0.000000 0.046689
#
#
# Mechanical properties :
#
#
# Convention : Reuss Voigt Hill
#
# Bulk Modulus (GPa) = 45.29474 51.66636 48.48055
# Shear Modulus (GPa) = 23.91363 26.33380 25.12372
#
# Velocity S-wave (km/s) = 3.35852 3.52438 3.44245
# Velocity P-wave (km/s) = 6.03360 6.39780 6.21837
#
# Compressibility (1/GPa) = 0.02207762
#
# Stress axis : x y z
#
# Youngs Moduli (GPa) = 74.35700 88.28363 38.24240
#
# Poissons Ratio (x) = 0.24202 0.25056
# Poissons Ratio (y) = 0.20384 0.19619
# Poissons Ratio (z) = 0.48718 0.45292
#
# Static dielectric constant tensor:
#      x y z
#    x 1.900220 0.000000 0.000000 
#    y 0.000000 1.823680 0.000000 
#    z 0.000000 0.000000 1.815670 
# 
# From -- ./inp_files/38602.got.cif
#   From: 2010.05.17/outbox.cif.g08.bks.cpg/sg68_20_cif.got.tgz:38602.got - 2010.06.03 18:57:09.
