data_PCOD9507630
_publ_section_title
;
Structure prediction by ZEFSAII (Michael W. Deem and Ramdas Pophale) SiO2 
 PCOD9507630
Probable space group: C C C A
;
_chemical_formula_sum "Si O2"
_cell_formula_units_Z 88
_cell_length_a 20.052950
_cell_length_b 14.548256
_cell_length_c 15.139883
_cell_angle_alpha 90.000000
_cell_angle_beta 90.000000
_cell_angle_gamma 90.000000
_cell_volume 4416.840582
_symmetry_space_group_name_H-M "C C C A"
_symmetry_group_IT_number 68
_space_group.IT_coordinate_system_code '2'
_symmetry_cell_setting 'orthorhombic'
loop_
_space_group_symop_operation_xyz
x,y,z
-x,1/2-y,z
x,1/2-y,1/2-z
-x,y,1/2-z
-x,-y,-z
x,1/2+y,-z
-x,1/2+y,1/2+z
x,-y,1/2+z
1/2+x,1/2+y,z
1/2-x,-y,z
1/2+x,-y,1/2-z
1/2-x,1/2+y,1/2-z
1/2-x,1/2-y,-z
1/2+x,y,-z
1/2-x,y,1/2+z
1/2+x,1/2-y,1/2+z
loop_
_atom_site_type_symbol
_atom_site_label
_atom_site_fract_x
_atom_site_fract_y
_atom_site_fract_z
Si Si1 0.641242 0.585003 0.063033
Si Si2 0.750000 0.000000 0.678979
Si Si3 0.323563 0.748539 0.541004
Si Si4 0.868359 0.080638 0.058235
Si Si5 0.498361 0.640644 0.355432
Si Si6 0.754178 0.336451 0.695126
O O1 0.571204 0.603952 0.108046
O O2 0.699763 0.616770 0.129723
O O3 0.648953 0.647070 0.974219
O O4 0.642348 0.481871 0.028245
O O5 0.808405 0.951808 0.622142
O O6 0.722880 0.917315 0.740038
O O7 0.250000 0.750000 0.500000
O O8 0.362297 0.815862 0.476265
O O9 0.312982 0.790068 0.637645
O O10 0.940160 0.081900 0.104766
O O11 0.500000 0.750000 0.376927
O O12 0.500000 0.633102 0.250000
O O13 0.723837 0.250000 0.750000
#
# Coordination Sequence:
#
# PCOD9507630 Si02
#       6
#    16   8  16  16  16  16
#     4  11  22  40  62  88 122 164 206 254 311 378
#     4  12  22  36  60  92 124 164 202 258 312 370
#     4  10  21  37  57  86 120 161 198 246 304 368
#     4  12  23  41  62  90 125 163 208 255 313 375
#     4  11  24  40  65  92 121 161 211 265 311 365
#     4  11  22  36  60  92 126 162 203 256 314 370
#
# _framework density 19.923743999999999
#
# number of rings (size 3 to 8) (size 9 to 14) (size 15 to 20)
#    0.000    0.909    1.818    8.182    2.545    0.000 
#    0.000    0.000    0.000    0.000    0.000    2.545 
#    0.000    0.000    0.000    0.000    0.000    0.000 
#
# Total GULP energy -245674.048455 kJ/mol
# GULP energy per Si atom -5583.501101 kJ/mol
# Density = 1.987840 g / cm^3
# Si number density = 19.923744 Si / 1000 Ang^3
#
#
#
# Elastic Constant Matrix: (Units=GPa)
#
#
# Indices 1 2 3 4 5 6 
#
# 1 69.5847 -15.9950 16.9865 0.0000 0.0000 0.0000
# 2 -15.9950 52.8951 1.8178 0.0000 0.0000 0.0000
# 3 16.9865 1.8178 66.7333 0.0000 0.0000 0.0000
# 4 0.0000 0.0000 0.0000 54.4596 0.0000 0.0000
# 5 0.0000 0.0000 0.0000 0.0000 17.7651 0.0000
# 6 0.0000 0.0000 0.0000 0.0000 0.0000 23.8719
#
#
#
# Elastic Compliance Matrix: (Units=1/GPa)
#
#
# Indices 1 2 3 4 5 6 
#
# 1 0.016629 0.005179 -0.004374 0.000000 0.000000 0.000000
# 2 0.005179 0.020536 -0.001878 0.000000 0.000000 0.000000
# 3 -0.004374 -0.001878 0.016150 0.000000 0.000000 0.000000
# 4 0.000000 0.000000 0.000000 0.018362 0.000000 0.000000
# 5 0.000000 0.000000 0.000000 0.000000 0.056290 0.000000
# 6 0.000000 0.000000 0.000000 0.000000 0.000000 0.041890
#
#
# Mechanical properties :
#
#
# Convention : Reuss Voigt Hill
#
# Bulk Modulus (GPa) = 19.54302 21.64796 20.59549
# Shear Modulus (GPa) = 26.44676 31.64624 29.04650
#
# Velocity S-wave (km/s) = 3.64730 3.98976 3.82237
# Velocity P-wave (km/s) = 5.25046 5.66685 5.46262
#
# Compressibility (1/GPa) = 0.05116916
#
# Stress axis : x y z
#
# Youngs Moduli (GPa) = 60.13541 48.69519 61.92140
#
# Poissons Ratio (x) = -0.25218 0.27084
# Poissons Ratio (y) = -0.31143 0.11627
# Poissons Ratio (z) = 0.26303 0.09143
#
# Static dielectric constant tensor:
#      x y z
#    x 1.627010 0.000000 0.000000 
#    y 0.000000 1.707780 0.000000 
#    z 0.000000 0.000000 1.781790 
# 
# From -- ./inp_files/24362.got.cif
#   From: 2010.05.17/outbox.cif.g08.bks.cpg/sg68_13_cif.got.tgz:24362.got - 2010.06.03 18:57:09.
