data_PCOD9507550
_publ_section_title
;
Structure prediction by ZEFSAII (Michael W. Deem and Ramdas Pophale) SiO2 
 PCOD9507550
Probable space group: C C C A
;
_chemical_formula_sum "Si O2"
_cell_formula_units_Z 64
_cell_length_a 5.293050
_cell_length_b 31.566885
_cell_length_c 17.817781
_cell_angle_alpha 90.000000
_cell_angle_beta 90.000000
_cell_angle_gamma 90.000000
_cell_volume 2977.085732
_symmetry_space_group_name_H-M "C C C A"
_symmetry_group_IT_number 68
_space_group.IT_coordinate_system_code '2'
_symmetry_cell_setting 'orthorhombic'
loop_
_space_group_symop_operation_xyz
x,y,z
-x,1/2-y,z
x,1/2-y,1/2-z
-x,y,1/2-z
-x,-y,-z
x,1/2+y,-z
-x,1/2+y,1/2+z
x,-y,1/2+z
1/2+x,1/2+y,z
1/2-x,-y,z
1/2+x,-y,1/2-z
1/2-x,1/2+y,1/2-z
1/2-x,1/2-y,-z
1/2+x,y,-z
1/2-x,y,1/2+z
1/2+x,1/2-y,1/2+z
loop_
_atom_site_type_symbol
_atom_site_label
_atom_site_fract_x
_atom_site_fract_y
_atom_site_fract_z
Si Si1 0.628701 0.091851 0.541258
Si Si2 0.999524 0.473255 0.339146
Si Si3 0.348722 0.193906 0.956959
Si Si4 0.248469 0.202522 0.283472
O O1 0.913197 0.078999 0.519019
O O2 0.530763 0.070417 0.616783
O O3 0.636536 0.142668 0.545269
O O4 0.750000 0.500000 0.358319
O O5 0.000000 0.466322 0.250000
O O6 0.250000 0.500000 0.359123
O O7 0.272384 0.206445 0.872743
O O8 0.126394 0.207053 0.014462
O O9 0.249684 0.250000 0.250000
O O10 0.500000 0.181633 0.250000
O O11 0.000000 0.180817 0.250000
#
# Coordination Sequence:
#
# PCOD9507550 Si02
#       4
#    16  16  16  16
#     4  10  21  36  56  82 109 144 190 232 278 334
#     4  10  21  36  53  78 112 147 185 229 279 332
#     4  10  21  39  60  84 116 152 191 238 290 343
#     4  10  21  39  59  86 117 147 190 238 286 349
#
# _framework density 21.497533000000001
#
# number of rings (size 3 to 8) (size 9 to 14) (size 15 to 20)
#    0.000    2.000    0.000    3.000    0.000    4.000 
#    0.000   18.750    0.000    0.000    0.000    0.000 
#    0.000    0.000    0.000    0.000    0.000    0.000 
#
# Total GULP energy -178736.551792 kJ/mol
# GULP energy per Si atom -5585.517243 kJ/mol
# Density = 2.144860 g / cm^3
# Si number density = 21.497533 Si / 1000 Ang^3
#
#
#
# Elastic Constant Matrix: (Units=GPa)
#
#
# Indices 1 2 3 4 5 6 
#
# 1 193.8147 29.9539 55.9873 0.0000 0.0000 0.0000
# 2 29.9539 48.6078 23.0938 0.0000 0.0000 0.0000
# 3 55.9873 23.0938 115.3980 0.0000 0.0000 0.0000
# 4 0.0000 0.0000 0.0000 40.0859 0.0000 0.0000
# 5 0.0000 0.0000 0.0000 0.0000 28.3566 0.0000
# 6 0.0000 0.0000 0.0000 0.0000 0.0000 15.6139
#
#
#
# Elastic Compliance Matrix: (Units=1/GPa)
#
#
# Indices 1 2 3 4 5 6 
#
# 1 0.006303 -0.002687 -0.002520 0.000000 0.000000 0.000000
# 2 -0.002687 0.023880 -0.003475 0.000000 0.000000 0.000000
# 3 -0.002520 -0.003475 0.010584 0.000000 0.000000 0.000000
# 4 0.000000 0.000000 0.000000 0.024946 0.000000 0.000000
# 5 0.000000 0.000000 0.000000 0.000000 0.035265 0.000000
# 6 0.000000 0.000000 0.000000 0.000000 0.000000 0.064045
#
#
# Mechanical properties :
#
#
# Convention : Reuss Voigt Hill
#
# Bulk Modulus (GPa) = 42.73186 63.98787 53.35986
# Shear Modulus (GPa) = 26.28972 33.39700 29.84336
#
# Velocity S-wave (km/s) = 3.50082 3.94576 3.72993
# Velocity P-wave (km/s) = 6.02177 7.11256 6.58977
#
# Compressibility (1/GPa) = 0.02340174
#
# Stress axis : x y z
#
# Youngs Moduli (GPa) = 158.65931 41.87677 94.48303
#
# Poissons Ratio (x) = 0.11251 0.23812
# Poissons Ratio (y) = 0.42626 0.32837
# Poissons Ratio (z) = 0.39986 0.14554
#
# Static dielectric constant tensor:
#      x y z
#    x 1.352090 0.000000 0.000000 
#    y 0.000000 1.757340 0.000000 
#    z 0.000000 0.000000 1.748510 
# 
# From -- ./inp_files/27135.got.cif
#   From: 2010.05.17/outbox.cif.g08.bks.cpg/sg68_14_cif.got.tgz:27135.got - 2010.06.03 18:57:09.
