data_PCOD9507886
_publ_section_title
;
Structure prediction by ZEFSAII (Michael W. Deem and Ramdas Pophale) SiO2 
 PCOD9507886
Probable space group: C C C A
;
_chemical_formula_sum "Si O2"
_cell_formula_units_Z 56
_cell_length_a 4.976160
_cell_length_b 13.444318
_cell_length_c 34.405293
_cell_angle_alpha 90.000000
_cell_angle_beta 90.000000
_cell_angle_gamma 90.000000
_cell_volume 2301.751172
_symmetry_space_group_name_H-M "C C C A"
_symmetry_group_IT_number 68
_space_group.IT_coordinate_system_code '2'
_symmetry_cell_setting 'orthorhombic'
loop_
_space_group_symop_operation_xyz
x,y,z
-x,1/2-y,z
x,1/2-y,1/2-z
-x,y,1/2-z
-x,-y,-z
x,1/2+y,-z
-x,1/2+y,1/2+z
x,-y,1/2+z
1/2+x,1/2+y,z
1/2-x,-y,z
1/2+x,-y,1/2-z
1/2-x,1/2+y,1/2-z
1/2-x,1/2-y,-z
1/2+x,y,-z
1/2-x,y,1/2+z
1/2+x,1/2-y,1/2+z
loop_
_atom_site_type_symbol
_atom_site_label
_atom_site_fract_x
_atom_site_fract_y
_atom_site_fract_z
Si Si1 0.445374 0.869776 0.025299
Si Si2 0.036072 0.630219 0.611930
Si Si3 0.250000 0.500000 0.725301
Si Si4 0.532097 0.868103 0.838779
O O1 0.500000 0.750000 0.028483
O O2 0.480597 0.908972 0.068893
O O3 0.158180 0.896080 0.007912
O O4 0.829667 0.603964 0.646700
O O5 0.000000 0.750000 0.609849
O O6 0.336974 0.608060 0.625045
O O7 0.500000 0.454965 0.750000
O O8 0.407777 0.577904 0.698246
O O9 0.500000 0.750000 0.832362
#
# Coordination Sequence:
#
# PCOD9507886 Si02
#       4
#    16  16   8  16
#     4   9  15  23  40  73 114 151 192 245 294 337
#     4   9  17  31  53  81 116 157 202 245 292 358
#     4  12  26  44  66  94 124 154 198 256 318 388
#     4  10  21  39  61  87 118 156 199 245 301 367
#
# _framework density 24.329302999999999
#
# number of rings (size 3 to 8) (size 9 to 14) (size 15 to 20)
#    0.000    2.286    0.000    3.429    0.000    7.429 
#    0.000    1.429    0.000    0.000    0.000   20.000 
#    0.000    0.000    0.000    0.000    0.000    0.000 
#
# Total GULP energy -156654.093607 kJ/mol
# GULP energy per Si atom -5594.789057 kJ/mol
# Density = 2.427393 g / cm^3
# Si number density = 24.329303 Si / 1000 Ang^3
#
#
#
# Elastic Constant Matrix: (Units=GPa)
#
#
# Indices 1 2 3 4 5 6 
#
# 1 101.6794 -24.8683 33.2250 0.0000 0.0000 0.0000
# 2 -24.8683 82.4197 15.8645 0.0000 0.0000 0.0000
# 3 33.2250 15.8645 140.8202 0.0000 0.0000 0.0000
# 4 0.0000 0.0000 0.0000 8.4833 0.0000 0.0000
# 5 0.0000 0.0000 0.0000 0.0000 -36.6247 0.0000
# 6 0.0000 0.0000 0.0000 0.0000 0.0000 27.2872
#
#
#
# Elastic Compliance Matrix: (Units=1/GPa)
#
#
# Indices 1 2 3 4 5 6 
#
# 1 0.011949 0.004240 -0.003297 0.000000 0.000000 0.000000
# 2 0.004240 0.013906 -0.002567 0.000000 0.000000 0.000000
# 3 -0.003297 -0.002567 0.008168 0.000000 0.000000 0.000000
# 4 0.000000 0.000000 0.000000 0.117878 0.000000 0.000000
# 5 0.000000 0.000000 0.000000 0.000000 -0.027304 0.000000
# 6 0.000000 0.000000 0.000000 0.000000 0.000000 0.036647
#
#
# Mechanical properties :
#
#
# Convention : Reuss Voigt Hill
#
# Bulk Modulus (GPa) = 32.49291 41.48463 36.98877
# Shear Modulus (GPa) = 28.61194 19.87570 24.24382
#
# Velocity S-wave (km/s) = 3.43305 2.86133 3.16014
# Velocity P-wave (km/s) = 5.39434 5.29193 5.34338
#
# Compressibility (1/GPa) = 0.03077595
#
# Stress axis : x y z
#
# Youngs Moduli (GPa) = 83.68791 71.90905 122.42398
#
# Poissons Ratio (x) = -0.30489 0.40363
# Poissons Ratio (y) = -0.35484 0.31427
# Poissons Ratio (z) = 0.27591 0.18459
#
# Static dielectric constant tensor:
#      x y z
#    x 1.886730 0.000000 0.000000 
#    y 0.000000 2.103930 0.000000 
#    z 0.000000 0.000000 1.883230 
# 
# From -- ./inp_files/47990.got.cif
#   From: 2010.05.17/outbox.cif.g08.bks.cpg/sg68_24_cif.got.tgz:47990.got - 2010.06.03 18:57:09.
