data_PCOD9507470
_publ_section_title
;
Structure prediction by ZEFSAII (Michael W. Deem and Ramdas Pophale) SiO2 
 PCOD9507470
Probable space group: C C C A
;
_chemical_formula_sum "Si O2"
_cell_formula_units_Z 80
_cell_length_a 20.682433
_cell_length_b 16.334721
_cell_length_c 13.266410
_cell_angle_alpha 90.000000
_cell_angle_beta 90.000000
_cell_angle_gamma 90.000000
_cell_volume 4481.947471
_symmetry_space_group_name_H-M "C C C A"
_symmetry_group_IT_number 68
_space_group.IT_coordinate_system_code '2'
_symmetry_cell_setting 'orthorhombic'
loop_
_space_group_symop_operation_xyz
x,y,z
-x,1/2-y,z
x,1/2-y,1/2-z
-x,y,1/2-z
-x,-y,-z
x,1/2+y,-z
-x,1/2+y,1/2+z
x,-y,1/2+z
1/2+x,1/2+y,z
1/2-x,-y,z
1/2+x,-y,1/2-z
1/2-x,1/2+y,1/2-z
1/2-x,1/2-y,-z
1/2+x,y,-z
1/2-x,y,1/2+z
1/2+x,1/2-y,1/2+z
loop_
_atom_site_type_symbol
_atom_site_label
_atom_site_fract_x
_atom_site_fract_y
_atom_site_fract_z
Si Si1 0.626265 0.633611 0.257110
Si Si2 0.242696 0.161563 0.635244
Si Si3 0.574220 0.260924 0.587305
Si Si4 0.179143 0.175059 0.936148
Si Si5 0.679837 0.960852 0.724842
O O1 0.696771 0.659033 0.212492
O O2 0.607060 0.681827 0.358458
O O3 0.578074 0.668199 0.172503
O O4 0.630922 0.536231 0.265531
O O5 0.211977 0.251150 0.625732
O O6 0.271864 0.145164 0.524077
O O7 0.193221 0.092769 0.674577
O O8 0.500000 0.250000 0.560118
O O9 0.618292 0.287997 0.494879
O O10 0.161803 0.101996 0.862318
O O11 0.750000 0.000000 0.699527
#
# Coordination Sequence:
#
# PCOD9507470 Si02
#       5
#    16  16  16  16  16
#     4   9  19  35  57  82 109 143 190 232 280 336
#     4   9  20  33  54  85 115 149 175 225 294 349
#     4  10  21  39  61  77 106 157 201 227 270 333
#     4  10  21  33  58  80 116 149 186 229 282 341
#     4  10  21  32  52  87 122 140 177 233 295 343
#
# _framework density 17.849384000000001
#
# number of rings (size 3 to 8) (size 9 to 14) (size 15 to 20)
#    0.000    2.400    0.000    1.800   25.200    4.000 
#    0.000    1.000    4.400    1.200    0.000    0.000 
#    0.000    0.000    0.000    0.000    0.000    0.000 
#
# Total GULP energy -223120.571943 kJ/mol
# GULP energy per Si atom -5578.014299 kJ/mol
# Density = 1.780876 g / cm^3
# Si number density = 17.849384 Si / 1000 Ang^3
#
#
#
# Elastic Constant Matrix: (Units=GPa)
#
#
# Indices 1 2 3 4 5 6 
#
# 1 43.5967 32.9259 44.1693 0.0000 0.0000 0.0000
# 2 32.9259 132.4214 71.5753 0.0000 0.0000 0.0000
# 3 44.1693 71.5753 91.7695 0.0000 0.0000 0.0000
# 4 0.0000 0.0000 0.0000 13.2117 0.0000 0.0000
# 5 0.0000 0.0000 0.0000 0.0000 11.8982 0.0000
# 6 0.0000 0.0000 0.0000 0.0000 0.0000 11.4199
#
#
#
# Elastic Compliance Matrix: (Units=1/GPa)
#
#
# Indices 1 2 3 4 5 6 
#
# 1 0.044828 0.000892 -0.022272 0.000000 0.000000 0.000000
# 2 0.000892 0.013073 -0.010626 0.000000 0.000000 0.000000
# 3 -0.022272 -0.010626 0.029904 0.000000 0.000000 0.000000
# 4 0.000000 0.000000 0.000000 0.075691 0.000000 0.000000
# 5 0.000000 0.000000 0.000000 0.000000 0.084047 0.000000
# 6 0.000000 0.000000 0.000000 0.000000 0.000000 0.087566
#
#
# Mechanical properties :
#
#
# Convention : Reuss Voigt Hill
#
# Bulk Modulus (GPa) = 42.02703 62.79205 52.40954
# Shear Modulus (GPa) = 12.28347 15.24709 13.76528
#
# Velocity S-wave (km/s) = 2.62615 2.92586 2.78004
# Velocity P-wave (km/s) = 5.72643 6.83150 6.30323
#
# Compressibility (1/GPa) = 0.02379421
#
# Stress axis : x y z
#
# Youngs Moduli (GPa) = 22.30734 76.49256 33.44053
#
# Poissons Ratio (x) = -0.06822 0.74478
# Poissons Ratio (y) = -0.01989 0.35533
# Poissons Ratio (z) = 0.49682 0.81278
#
# Static dielectric constant tensor:
#      x y z
#    x 1.628080 0.000000 0.000000 
#    y 0.000000 1.629040 0.000000 
#    z 0.000000 0.000000 1.627540 
# 
# From -- ./inp_files/24302.got.cif
#   From: 2010.05.17/outbox.cif.g08.bks.cpg/sg68_13_cif.got.tgz:24302.got - 2010.06.03 18:57:09.
