data_PCOD9507493
_publ_section_title
;
Structure prediction by ZEFSAII (Michael W. Deem and Ramdas Pophale) SiO2 
 PCOD9507493
Probable space group: C C C A
;
_chemical_formula_sum "Si O2"
_cell_formula_units_Z 116
_cell_length_a 18.445660
_cell_length_b 27.239929
_cell_length_c 11.145938
_cell_angle_alpha 90.000000
_cell_angle_beta 90.000000
_cell_angle_gamma 90.000000
_cell_volume 5600.370940
_symmetry_space_group_name_H-M "C C C A"
_symmetry_group_IT_number 68
_space_group.IT_coordinate_system_code '2'
_symmetry_cell_setting 'orthorhombic'
loop_
_space_group_symop_operation_xyz
x,y,z
-x,1/2-y,z
x,1/2-y,1/2-z
-x,y,1/2-z
-x,-y,-z
x,1/2+y,-z
-x,1/2+y,1/2+z
x,-y,1/2+z
1/2+x,1/2+y,z
1/2-x,-y,z
1/2+x,-y,1/2-z
1/2-x,1/2+y,1/2-z
1/2-x,1/2-y,-z
1/2+x,y,-z
1/2-x,y,1/2+z
1/2+x,1/2-y,1/2+z
loop_
_atom_site_type_symbol
_atom_site_label
_atom_site_fract_x
_atom_site_fract_y
_atom_site_fract_z
Si Si1 0.547904 0.524888 0.602429
Si Si2 0.421226 0.573265 0.291201
Si Si3 0.578954 0.822777 0.932459
Si Si4 0.055406 0.608840 0.055123
Si Si5 0.292595 0.448700 0.435759
Si Si6 0.682985 0.134039 0.618946
Si Si7 0.681384 0.624136 0.758253
Si Si8 0.000000 0.750000 0.250000
O O1 0.500000 0.500000 0.500000
O O2 0.573308 0.486313 0.704093
O O3 0.496746 0.570933 0.625732
O O4 0.622525 0.541465 0.543105
O O5 0.500000 0.590220 0.250000
O O6 0.414562 0.588472 0.429523
O O7 0.364942 0.599180 0.204969
O O8 0.501814 0.847448 0.966687
O O9 0.631737 0.853394 0.845416
O O10 0.552393 0.779288 0.843364
O O11 0.630279 0.826750 0.052161
O O12 0.124417 0.619028 0.135366
O O13 0.250000 0.500000 0.449563
O O14 0.276716 0.403826 0.526322
O O15 0.288728 0.426601 0.300814
O O16 0.748962 0.154691 0.698574
#
# Coordination Sequence:
#
# PCOD9507493 Si02
#       8
#    16  16  16  16  16  16  16   4
#     4  10  21  34  54  83 127 174 241 283 308 372
#     4  11  22  36  61  89 129 188 227 283 323 381
#     4  11  23  46  72 105 125 164 222 279 348 421
#     4  11  21  42  63  91 129 176 232 280 336 389
#     4  11  24  40  52  86 132 187 239 282 324 381
#     4  11  24  42  62  98 139 181 226 280 341 405
#     4  11  24  39  65  89 134 172 216 279 342 403
#     4  12  24  48  88 106 124 156 222 288 354 432
#
# _framework density 20.712914000000001
#
# number of rings (size 3 to 8) (size 9 to 14) (size 15 to 20)
#    0.000    1.103    5.517    1.655    9.655    1.655 
#    0.000    0.690    0.000    1.655    0.000    0.000 
#    0.000    0.000    0.000    0.000    0.000    0.000 
#
# Total GULP energy -322995.140870 kJ/mol
# GULP energy per Si atom -5568.881739 kJ/mol
# Density = 2.066577 g / cm^3
# Si number density = 20.712914 Si / 1000 Ang^3
#
#
#
# Elastic Constant Matrix: (Units=GPa)
#
#
# Indices 1 2 3 4 5 6 
#
# 1 118.3112 12.7237 20.0533 0.0000 0.0000 0.0000
# 2 12.7237 40.1185 2.2536 0.0000 0.0000 0.0000
# 3 20.0533 2.2536 70.7902 0.0000 0.0000 0.0000
# 4 0.0000 0.0000 0.0000 15.5906 0.0000 0.0000
# 5 0.0000 0.0000 0.0000 0.0000 17.4154 0.0000
# 6 0.0000 0.0000 0.0000 0.0000 0.0000 19.4535
#
#
#
# Elastic Compliance Matrix: (Units=1/GPa)
#
#
# Indices 1 2 3 4 5 6 
#
# 1 0.009176 -0.002769 -0.002511 0.000000 0.000000 0.000000
# 2 -0.002769 0.025806 -0.000037 0.000000 0.000000 0.000000
# 3 -0.002511 -0.000037 0.014839 0.000000 0.000000 0.000000
# 4 0.000000 0.000000 0.000000 0.064141 0.000000 0.000000
# 5 0.000000 0.000000 0.000000 0.000000 0.057420 0.000000
# 6 0.000000 0.000000 0.000000 0.000000 0.000000 0.051405
#
#
# Mechanical properties :
#
#
# Convention : Reuss Voigt Hill
#
# Bulk Modulus (GPa) = 25.51910 33.25345 29.38628
# Shear Modulus (GPa) = 20.28530 23.43785 21.86158
#
# Velocity S-wave (km/s) = 3.13286 3.36751 3.25230
# Velocity P-wave (km/s) = 5.04317 5.58655 5.32180
#
# Compressibility (1/GPa) = 0.03918633
#
# Stress axis : x y z
#
# Youngs Moduli (GPa) = 108.98341 38.74997 67.39097
#
# Poissons Ratio (x) = 0.10730 0.16923
# Poissons Ratio (y) = 0.30178 0.00250
# Poissons Ratio (z) = 0.27367 0.00144
#
# Static dielectric constant tensor:
#      x y z
#    x 1.756920 0.000000 0.000000 
#    y 0.000000 1.819810 0.000000 
#    z 0.000000 0.000000 1.767970 
# 
# From -- ./inp_files/14832.got.cif
#   From: 2010.05.17/outbox.cif.g08.bks.cpg/sg68_8_cif.got.tgz:14832.got - 2010.06.03 18:57:09.
