data_PCOD9507587
_publ_section_title
;
Structure prediction by ZEFSAII (Michael W. Deem and Ramdas Pophale) SiO2 
 PCOD9507587
Probable space group: C C C A
;
_chemical_formula_sum "Si O2"
_cell_formula_units_Z 52
_cell_length_a 21.026192
_cell_length_b 5.092809
_cell_length_c 20.341310
_cell_angle_alpha 90.000000
_cell_angle_beta 90.000000
_cell_angle_gamma 90.000000
_cell_volume 2178.195884
_symmetry_space_group_name_H-M "C C C A"
_symmetry_group_IT_number 68
_space_group.IT_coordinate_system_code '2'
_symmetry_cell_setting 'orthorhombic'
loop_
_space_group_symop_operation_xyz
x,y,z
-x,1/2-y,z
x,1/2-y,1/2-z
-x,y,1/2-z
-x,-y,-z
x,1/2+y,-z
-x,1/2+y,1/2+z
x,-y,1/2+z
1/2+x,1/2+y,z
1/2-x,-y,z
1/2+x,-y,1/2-z
1/2-x,1/2+y,1/2-z
1/2-x,1/2-y,-z
1/2+x,y,-z
1/2-x,y,1/2+z
1/2+x,1/2-y,1/2+z
loop_
_atom_site_type_symbol
_atom_site_label
_atom_site_fract_x
_atom_site_fract_y
_atom_site_fract_z
Si Si1 0.681562 0.899817 0.453507
Si Si2 0.399719 0.134324 0.149585
Si Si3 0.704990 0.750000 0.750000
Si Si4 0.500000 0.250000 0.250000
Si Si5 0.500000 0.750000 0.546279
O O1 0.674863 0.621601 0.489433
O O2 0.750000 0.000000 0.426267
O O3 0.632820 0.908509 0.393368
O O4 0.342473 0.275476 0.187728
O O5 0.453126 0.077558 0.204554
O O6 0.439486 0.282666 0.093782
O O7 0.750000 0.500000 0.743899
O O8 0.500000 0.500000 0.500000
#
# Coordination Sequence:
#
# PCOD9507587 Si02
#       5
#    16  16   8   4   8
#     4  10  21  36  60  92 123 157 196 247 311 371
#     4  10  21  42  65  92 130 165 213 265 311 376
#     4  11  26  43  66  95 126 173 218 262 320 377
#     4   8  20  40  64  90 120 170 216 258 308 362
#     4  11  24  41  68  99 128 169 212 262 326 383
#
# _framework density 23.872965000000001
#
# number of rings (size 3 to 8) (size 9 to 14) (size 15 to 20)
#    0.000    1.846    0.000    2.769    0.000    8.615 
#    0.000    0.000    0.000   20.308    0.000    0.000 
#    0.000    0.000    0.000    0.000    0.000    0.000 
#
# Total GULP energy -145185.252434 kJ/mol
# GULP energy per Si atom -5584.048171 kJ/mol
# Density = 2.381863 g / cm^3
# Si number density = 23.872965 Si / 1000 Ang^3
#
#
#
# Elastic Constant Matrix: (Units=GPa)
#
#
# Indices 1 2 3 4 5 6 
#
# 1 168.8235 41.7524 88.9684 0.0000 0.0000 0.0000
# 2 41.7524 105.3951 40.6683 0.0000 0.0000 0.0000
# 3 88.9684 40.6683 142.5414 0.0000 0.0000 0.0000
# 4 0.0000 0.0000 0.0000 2.6748 0.0000 0.0000
# 5 0.0000 0.0000 0.0000 0.0000 35.6267 0.0000
# 6 0.0000 0.0000 0.0000 0.0000 0.0000 18.4185
#
#
#
# Elastic Compliance Matrix: (Units=1/GPa)
#
#
# Indices 1 2 3 4 5 6 
#
# 1 0.009055 -0.001580 -0.005201 0.000000 0.000000 0.000000
# 2 -0.001580 0.010938 -0.002134 0.000000 0.000000 0.000000
# 3 -0.005201 -0.002134 0.010871 0.000000 0.000000 0.000000
# 4 0.000000 0.000000 0.000000 0.373866 0.000000 0.000000
# 5 0.000000 0.000000 0.000000 0.000000 0.028069 0.000000
# 6 0.000000 0.000000 0.000000 0.000000 0.000000 0.054293
#
#
# Mechanical properties :
#
#
# Convention : Reuss Voigt Hill
#
# Bulk Modulus (GPa) = 76.73183 84.39313 80.56248
# Shear Modulus (GPa) = 9.81804 27.70204 18.76004
#
# Velocity S-wave (km/s) = 2.03016 3.41015 2.80630
# Velocity P-wave (km/s) = 6.14059 7.13675 6.65733
#
# Compressibility (1/GPa) = 0.01303240
#
# Stress axis : x y z
#
# Youngs Moduli (GPa) = 110.43627 91.42701 91.99130
#
# Poissons Ratio (x) = 0.14448 0.47844
# Poissons Ratio (y) = 0.17452 0.19633
# Poissons Ratio (z) = 0.57437 0.19513
#
# Static dielectric constant tensor:
#      x y z
#    x 2.013150 0.000000 0.000000 
#    y 0.000000 1.845420 0.000000 
#    z 0.000000 0.000000 1.904870 
# 
# From -- ./inp_files/34843.got.cif
#   From: 2010.05.17/outbox.cif.g08.bks.cpg/sg68_18_cif.got.tgz:34843.got - 2010.06.03 18:57:09.
