data_PCOD9507044
_publ_section_title
;
Structure prediction by ZEFSAII (Michael W. Deem and Ramdas Pophale) SiO2 
 PCOD9507044
Probable space group: C C C A
;
_chemical_formula_sum "Si O2"
_cell_formula_units_Z 76
_cell_length_a 14.139548
_cell_length_b 24.257565
_cell_length_c 12.405157
_cell_angle_alpha 90.000000
_cell_angle_beta 90.000000
_cell_angle_gamma 90.000000
_cell_volume 4254.857263
_symmetry_space_group_name_H-M "C C C A"
_symmetry_group_IT_number 68
_space_group.IT_coordinate_system_code '2'
_symmetry_cell_setting 'orthorhombic'
loop_
_space_group_symop_operation_xyz
x,y,z
-x,1/2-y,z
x,1/2-y,1/2-z
-x,y,1/2-z
-x,-y,-z
x,1/2+y,-z
-x,1/2+y,1/2+z
x,-y,1/2+z
1/2+x,1/2+y,z
1/2-x,-y,z
1/2+x,-y,1/2-z
1/2-x,1/2+y,1/2-z
1/2-x,1/2-y,-z
1/2+x,y,-z
1/2-x,y,1/2+z
1/2+x,1/2-y,1/2+z
loop_
_atom_site_type_symbol
_atom_site_label
_atom_site_fract_x
_atom_site_fract_y
_atom_site_fract_z
Si Si1 0.500000 0.750000 0.750000
Si Si2 0.250000 0.000000 0.780920
Si Si3 0.410189 0.644104 0.683816
Si Si4 0.614519 0.447978 0.945203
Si Si5 0.404206 0.426962 0.965751
Si Si6 0.711053 0.594836 0.646777
O O1 0.438948 0.708264 0.676847
O O2 0.189345 0.957208 0.850453
O O3 0.315040 0.962652 0.706104
O O4 0.500000 0.618824 0.750000
O O5 0.400005 0.612073 0.571940
O O6 0.322643 0.638967 0.766244
O O7 0.509373 0.428678 0.916523
O O8 0.611918 0.510230 0.993889
O O9 0.654479 0.406389 0.035000
O O10 0.320724 0.408861 0.885924
#
# Coordination Sequence:
#
# PCOD9507044 Si02
#       6
#     4   8  16  16  16  16
#     4   8  20  40  64  84  96 148 212 248 300 334
#     4  12  20  32  48  76 124 162 186 222 274 344
#     4  10  20  38  62  76 110 148 192 249 293 331
#     4  11  20  32  46  77 117 154 191 221 262 348
#     4  11  21  32  53  80 111 150 193 226 284 344
#     4  12  20  35  51  83 116 152 189 227 281 356
#
# _framework density 17.861939
#
# number of rings (size 3 to 8) (size 9 to 14) (size 15 to 20)
#    0.632    0.421    8.421    0.000    0.000    0.842 
#    0.000    1.053    0.000    0.000    0.000    0.000 
#    0.000    3.368    0.000    0.000    0.000    0.000 
#
# Total GULP energy -211626.835897 kJ/mol
# GULP energy per Si atom -5569.127260 kJ/mol
# Density = 1.782128 g / cm^3
# Si number density = 17.861939 Si / 1000 Ang^3
#
#
#
# Elastic Constant Matrix: (Units=GPa)
#
#
# Indices 1 2 3 4 5 6 
#
# 1 119.9535 22.9892 37.8879 0.0000 0.0000 0.0000
# 2 22.9892 71.0322 27.9471 0.0000 0.0000 0.0000
# 3 37.8879 27.9471 80.6617 0.0000 0.0000 0.0000
# 4 0.0000 0.0000 0.0000 11.4247 0.0000 0.0000
# 5 0.0000 0.0000 0.0000 0.0000 20.5513 0.0000
# 6 0.0000 0.0000 0.0000 0.0000 0.0000 20.8930
#
#
#
# Elastic Compliance Matrix: (Units=1/GPa)
#
#
# Indices 1 2 3 4 5 6 
#
# 1 0.009943 -0.001598 -0.004117 0.000000 0.000000 0.000000
# 2 -0.001598 0.016557 -0.004986 0.000000 0.000000 0.000000
# 3 -0.004117 -0.004986 0.016059 0.000000 0.000000 0.000000
# 4 0.000000 0.000000 0.000000 0.087530 0.000000 0.000000
# 5 0.000000 0.000000 0.000000 0.000000 0.048659 0.000000
# 6 0.000000 0.000000 0.000000 0.000000 0.000000 0.047863
#
#
# Mechanical properties :
#
#
# Convention : Reuss Voigt Hill
#
# Bulk Modulus (GPa) = 47.26539 49.92174 48.59356
# Shear Modulus (GPa) = 19.60289 22.76200 21.18245
#
# Velocity S-wave (km/s) = 3.31640 3.57365 3.44742
# Velocity P-wave (km/s) = 6.41745 6.71098 6.56586
#
# Compressibility (1/GPa) = 0.02115713
#
# Stress axis : x y z
#
# Youngs Moduli (GPa) = 100.57169 60.39721 62.27216
#
# Poissons Ratio (x) = 0.09654 0.25635
# Poissons Ratio (y) = 0.16075 0.31048
# Poissons Ratio (z) = 0.41402 0.30113
#
# Static dielectric constant tensor:
#      x y z
#    x 1.691340 0.000000 0.000000 
#    y 0.000000 1.600300 0.000000 
#    z 0.000000 0.000000 1.633240 
# 
# From -- ./inp_files/13266.got.cif
#   From: 2010.05.17/outbox.cif.g08.bks.cpg/sg68_7_cif.got.tgz:13266.got - 2010.06.03 18:57:09.
