data_PCOD9507910
_publ_section_title
;
Structure prediction by ZEFSAII (Michael W. Deem and Ramdas Pophale) SiO2 
 PCOD9507910
Probable space group: C C C A
;
_chemical_formula_sum "Si O2"
_cell_formula_units_Z 88
_cell_length_a 14.668078
_cell_length_b 18.033050
_cell_length_c 16.162382
_cell_angle_alpha 90.000000
_cell_angle_beta 90.000000
_cell_angle_gamma 90.000000
_cell_volume 4275.114636
_symmetry_space_group_name_H-M "C C C A"
_symmetry_group_IT_number 68
_space_group.IT_coordinate_system_code '2'
_symmetry_cell_setting 'orthorhombic'
loop_
_space_group_symop_operation_xyz
x,y,z
-x,1/2-y,z
x,1/2-y,1/2-z
-x,y,1/2-z
-x,-y,-z
x,1/2+y,-z
-x,1/2+y,1/2+z
x,-y,1/2+z
1/2+x,1/2+y,z
1/2-x,-y,z
1/2+x,-y,1/2-z
1/2-x,1/2+y,1/2-z
1/2-x,1/2-y,-z
1/2+x,y,-z
1/2-x,y,1/2+z
1/2+x,1/2-y,1/2+z
loop_
_atom_site_type_symbol
_atom_site_label
_atom_site_fract_x
_atom_site_fract_y
_atom_site_fract_z
Si Si1 0.681129 0.559842 0.166035
Si Si2 0.677422 0.827717 0.791152
Si Si3 0.536133 0.672727 0.560218
Si Si4 0.393668 0.476959 0.496787
Si Si5 0.891726 0.427484 0.860402
Si Si6 0.000000 0.465602 0.250000
O O1 0.750000 0.500000 0.207322
O O2 0.740804 0.633556 0.158213
O O3 0.649944 0.516781 0.083216
O O4 0.590612 0.575250 0.219493
O O5 0.702336 0.750000 0.750000
O O6 0.592512 0.816060 0.853856
O O7 0.653560 0.883192 0.715081
O O8 0.500000 0.750000 0.522580
O O9 0.598066 0.612623 0.510314
O O10 0.441782 0.633045 0.583818
O O11 0.500000 0.500000 0.500000
O O12 0.346857 0.514036 0.576666
O O13 0.969990 0.478579 0.821181
#
# Coordination Sequence:
#
# PCOD9507910 Si02
#       6
#    16  16  16  16  16   8
#     4  12  22  41  65  96 137 179 224 283 345 410
#     4  12  23  38  65 104 136 170 232 299 345 398
#     4  11  19  34  67 103 135 170 219 294 349 388
#     4  10  21  39  62  92 135 175 218 272 340 419
#     4  11  19  36  66 100 126 171 225 276 341 409
#     4  12  20  38  68  96 130 168 234 276 330 406
#
# _framework density 20.584243000000001
#
# number of rings (size 3 to 8) (size 9 to 14) (size 15 to 20)
#    0.000    0.727   10.909    0.000    0.000    0.000 
#    3.273    1.364    8.000    0.000    0.000    0.000 
#    0.000    0.000    0.000    0.000    0.000    0.000 
#
# Total GULP energy -244978.644127 kJ/mol
# GULP energy per Si atom -5567.696457 kJ/mol
# Density = 2.053739 g / cm^3
# Si number density = 20.584243 Si / 1000 Ang^3
#
#
#
# Elastic Constant Matrix: (Units=GPa)
#
#
# Indices 1 2 3 4 5 6 
#
# 1 98.9997 38.0437 19.6335 0.0000 0.0000 0.0000
# 2 38.0437 128.0706 28.3071 0.0000 0.0000 0.0000
# 3 19.6335 28.3071 44.5749 0.0000 0.0000 0.0000
# 4 0.0000 0.0000 0.0000 25.4030 0.0000 0.0000
# 5 0.0000 0.0000 0.0000 0.0000 10.7168 0.0000
# 6 0.0000 0.0000 0.0000 0.0000 0.0000 57.1836
#
#
#
# Elastic Compliance Matrix: (Units=1/GPa)
#
#
# Indices 1 2 3 4 5 6 
#
# 1 0.011847 -0.002752 -0.003470 0.000000 0.000000 0.000000
# 2 -0.002752 0.009722 -0.004962 0.000000 0.000000 0.000000
# 3 -0.003470 -0.004962 0.027114 0.000000 0.000000 0.000000
# 4 0.000000 0.000000 0.000000 0.039365 0.000000 0.000000
# 5 0.000000 0.000000 0.000000 0.000000 0.093312 0.000000
# 6 0.000000 0.000000 0.000000 0.000000 0.000000 0.017488
#
#
# Mechanical properties :
#
#
# Convention : Reuss Voigt Hill
#
# Bulk Modulus (GPa) = 38.00234 49.29042 43.64638
# Shear Modulus (GPa) = 21.74026 31.03807 26.38916
#
# Velocity S-wave (km/s) = 3.25339 3.88732 3.58440
# Velocity P-wave (km/s) = 5.71092 6.64425 6.19519
#
# Compressibility (1/GPa) = 0.02631417
#
# Stress axis : x y z
#
# Youngs Moduli (GPa) = 84.41054 102.85469 36.88154
#
# Poissons Ratio (x) = 0.28307 0.12799
# Poissons Ratio (y) = 0.23231 0.18301
# Poissons Ratio (z) = 0.29294 0.51037
#
# Static dielectric constant tensor:
#      x y z
#    x 1.629450 0.000000 0.000000 
#    y 0.000000 1.800200 0.000000 
#    z 0.000000 0.000000 1.903890 
# 
# From -- ./inp_files/30913.got.cif
#   From: 2010.05.17/outbox.cif.g08.bks.cpg/sg68_16_cif.got.tgz:30913.got - 2010.06.03 18:57:09.
