data_PCOD9507302
_publ_section_title
;
Structure prediction by ZEFSAII (Michael W. Deem and Ramdas Pophale) SiO2 
 PCOD9507302
Probable space group: C C C A
;
_chemical_formula_sum "Si O2"
_cell_formula_units_Z 72
_cell_length_a 14.803387
_cell_length_b 16.835197
_cell_length_c 14.988383
_cell_angle_alpha 90.000000
_cell_angle_beta 90.000000
_cell_angle_gamma 90.000000
_cell_volume 3735.373881
_symmetry_space_group_name_H-M "C C C A"
_symmetry_group_IT_number 68
_space_group.IT_coordinate_system_code '2'
_symmetry_cell_setting 'orthorhombic'
loop_
_space_group_symop_operation_xyz
x,y,z
-x,1/2-y,z
x,1/2-y,1/2-z
-x,y,1/2-z
-x,-y,-z
x,1/2+y,-z
-x,1/2+y,1/2+z
x,-y,1/2+z
1/2+x,1/2+y,z
1/2-x,-y,z
1/2+x,-y,1/2-z
1/2-x,1/2+y,1/2-z
1/2-x,1/2-y,-z
1/2+x,y,-z
1/2-x,y,1/2+z
1/2+x,1/2-y,1/2+z
loop_
_atom_site_type_symbol
_atom_site_label
_atom_site_fract_x
_atom_site_fract_y
_atom_site_fract_z
Si Si1 0.829930 0.941849 0.785968
Si Si2 0.761625 0.192097 0.163706
Si Si3 0.443203 0.673377 0.603554
Si Si4 0.414030 0.701841 0.401021
Si Si5 0.000000 0.449456 0.750000
O O1 0.793029 0.893025 0.700799
O O2 0.871696 0.873203 0.849328
O O3 0.750000 0.000000 0.821256
O O4 0.912137 0.997588 0.760714
O O5 0.758737 0.250000 0.250000
O O6 0.661839 0.184690 0.125868
O O7 0.833667 0.232686 0.097272
O O8 0.500000 0.750000 0.631452
O O9 0.447470 0.669959 0.496497
O O10 0.484410 0.602883 0.661630
O O11 0.500000 0.750000 0.359989
#
# Coordination Sequence:
#
# PCOD9507302 Si02
#       5
#    16  16  16  16   8
#     4  11  23  41  63  97 129 168 214 264 331 389
#     4  10  20  40  66  89 121 166 215 258 310 386
#     4  11  23  39  63  93 121 165 216 265 314 379
#     4  10  23  42  63  92 125 168 219 265 314 383
#     4  12  23  40  65  88 132 164 206 264 329 394
#
# _framework density 19.275179999999999
#
# number of rings (size 3 to 8) (size 9 to 14) (size 15 to 20)
#    0.000    1.333    2.222    3.667    3.111    4.000 
#    4.000    0.000    0.000    0.000    0.000    0.000 
#    0.000    0.000    0.000    0.000    0.000    0.000 
#
# Total GULP energy -200885.149559 kJ/mol
# GULP energy per Si atom -5580.143043 kJ/mol
# Density = 1.923131 g / cm^3
# Si number density = 19.275180 Si / 1000 Ang^3
#
#
#
# Elastic Constant Matrix: (Units=GPa)
#
#
# Indices 1 2 3 4 5 6 
#
# 1 139.7231 76.3560 21.8832 0.0000 0.0000 0.0000
# 2 76.3560 139.9840 41.8684 0.0000 0.0000 0.0000
# 3 21.8832 41.8684 69.8446 0.0000 0.0000 0.0000
# 4 0.0000 0.0000 0.0000 -991.0224 0.0000 0.0000
# 5 0.0000 0.0000 0.0000 0.0000 28.9988 0.0000
# 6 0.0000 0.0000 0.0000 0.0000 0.0000 50.9052
#
#
#
# Elastic Compliance Matrix: (Units=1/GPa)
#
#
# Indices 1 2 3 4 5 6 
#
# 1 0.010198 -0.005613 0.000170 0.000000 0.000000 0.000000
# 2 -0.005613 0.011794 -0.005311 0.000000 0.000000 0.000000
# 3 0.000170 -0.005311 0.017448 0.000000 0.000000 0.000000
# 4 0.000000 0.000000 0.000000 -0.001009 0.000000 0.000000
# 5 0.000000 0.000000 0.000000 0.000000 0.034484 0.000000
# 6 0.000000 0.000000 0.000000 0.000000 0.000000 0.019644
#
#
# Mechanical properties :
#
#
# Convention : Reuss Voigt Hill
#
# Bulk Modulus (GPa) = 55.77071 69.97409 62.87240
# Shear Modulus (GPa) = 41.65055 -168.26074 -63.30510
#
# Velocity S-wave (km/s) = 4.65352 -9.35326 -5.73708
# Velocity P-wave (km/s) = 7.60727 8.95897 3.34609
#
# Compressibility (1/GPa) = 0.01793056
#
# Stress axis : x y z
#
# Youngs Moduli (GPa) = 98.05792 84.78777 57.31273
#
# Poissons Ratio (x) = 0.47595 -0.00973
# Poissons Ratio (y) = 0.55044 0.30440
# Poissons Ratio (z) = -0.01665 0.45033
#
# Static dielectric constant tensor:
#      x y z
#    x 1.670030 0.000000 0.000000 
#    y 0.000000 1.682510 0.000000 
#    z 0.000000 0.000000 1.693990 
# 
# From -- ./inp_files/22019.got.cif
#   From: 2010.05.17/outbox.cif.g08.bks.cpg/sg68_12_cif.got.tgz:22019.got - 2010.06.03 18:57:09.
