data_PCOD9507923
_publ_section_title
;
Structure prediction by ZEFSAII (Michael W. Deem and Ramdas Pophale) SiO2 
 PCOD9507923
Probable space group: C C C A
;
_chemical_formula_sum "Si O2"
_cell_formula_units_Z 52
_cell_length_a 19.339035
_cell_length_b 22.343075
_cell_length_c 5.297938
_cell_angle_alpha 90.000000
_cell_angle_beta 90.000000
_cell_angle_gamma 90.000000
_cell_volume 2289.204623
_symmetry_space_group_name_H-M "C C C A"
_symmetry_group_IT_number 68
_space_group.IT_coordinate_system_code '2'
_symmetry_cell_setting 'orthorhombic'
loop_
_space_group_symop_operation_xyz
x,y,z
-x,1/2-y,z
x,1/2-y,1/2-z
-x,y,1/2-z
-x,-y,-z
x,1/2+y,-z
-x,1/2+y,1/2+z
x,-y,1/2+z
1/2+x,1/2+y,z
1/2-x,-y,z
1/2+x,-y,1/2-z
1/2-x,1/2+y,1/2-z
1/2-x,1/2-y,-z
1/2+x,y,-z
1/2-x,y,1/2+z
1/2+x,1/2-y,1/2+z
loop_
_atom_site_type_symbol
_atom_site_label
_atom_site_fract_x
_atom_site_fract_y
_atom_site_fract_z
Si Si1 0.081757 0.527991 0.725067
Si Si2 0.710188 0.822324 0.727263
Si Si3 0.500000 0.250000 0.750000
Si Si4 0.934573 0.853122 0.423886
O O1 0.111675 0.487279 0.498786
O O2 0.082890 0.595588 0.625793
O O3 0.000000 0.513423 0.750000
O O4 0.709945 0.750000 0.750000
O O5 0.746026 0.842403 0.470258
O O6 0.631709 0.842991 0.751586
O O7 0.454179 0.292886 0.573883
O O8 0.000000 0.869987 0.250000
#
# Coordination Sequence:
#
# PCOD9507923 Si02
#       4
#    16  16   4  16
#     4  10  21  39  63  93 126 168 216 265 324 385
#     4  10  24  42  63  89 130 178 216 254 321 404
#     4  12  26  36  60 106 132 164 204 278 342 376
#     4  12  25  41  65  98 136 165 217 280 329 387
#
# _framework density 22.715313999999999
#
# number of rings (size 3 to 8) (size 9 to 14) (size 15 to 20)
#    0.000    1.231    1.538    5.077   10.769    0.000 
#    0.000    0.000    0.000    5.538    0.000    0.000 
#    0.000    0.000    0.000    0.000    0.000    0.000 
#
# Total GULP energy -145581.973229 kJ/mol
# GULP energy per Si atom -5599.306663 kJ/mol
# Density = 2.266361 g / cm^3
# Si number density = 22.715314 Si / 1000 Ang^3
#
#
#
# Elastic Constant Matrix: (Units=GPa)
#
#
# Indices 1 2 3 4 5 6 
#
# 1 122.1472 10.6741 42.6716 0.0000 0.0000 0.0000
# 2 10.6741 103.3157 30.0425 0.0000 0.0000 0.0000
# 3 42.6716 30.0425 120.4586 0.0000 0.0000 0.0000
# 4 0.0000 0.0000 0.0000 24.7486 0.0000 0.0000
# 5 0.0000 0.0000 0.0000 0.0000 15.3331 0.0000
# 6 0.0000 0.0000 0.0000 0.0000 0.0000 1.8253
#
#
#
# Elastic Compliance Matrix: (Units=1/GPa)
#
#
# Indices 1 2 3 4 5 6 
#
# 1 0.009343 -0.000003 -0.003309 0.000000 0.000000 0.000000
# 2 -0.000003 0.010436 -0.002602 0.000000 0.000000 0.000000
# 3 -0.003309 -0.002602 0.010123 0.000000 0.000000 0.000000
# 4 0.000000 0.000000 0.000000 0.040406 0.000000 0.000000
# 5 0.000000 0.000000 0.000000 0.000000 0.065219 0.000000
# 6 0.000000 0.000000 0.000000 0.000000 0.000000 0.547870
#
#
# Mechanical properties :
#
#
# Convention : Reuss Voigt Hill
#
# Bulk Modulus (GPa) = 55.32726 56.96641 56.14684
# Shear Modulus (GPa) = 7.13014 25.88361 16.50688
#
# Velocity S-wave (km/s) = 1.77362 3.37928 2.69863
# Velocity P-wave (km/s) = 5.34827 6.35286 5.87209
#
# Compressibility (1/GPa) = 0.01807427
#
# Stress axis : x y z
#
# Youngs Moduli (GPa) = 107.03108 95.82307 98.78860
#
# Poissons Ratio (x) = 0.00030 0.32689
# Poissons Ratio (y) = 0.00033 0.25701
# Poissons Ratio (z) = 0.35416 0.24930
#
# Static dielectric constant tensor:
#      x y z
#    x 1.795730 0.000000 0.000000 
#    y 0.000000 1.866050 0.000000 
#    z 0.000000 0.000000 1.882640 
# 
# From -- ./inp_files/1298.got.cif
#   From: 2010.05.17/outbox.cif.g08.bks.cpg/sg68_1_cif.got.tgz:1298.got - 2010.06.03 18:57:09.
