data_PCOD9507404
_publ_section_title
;
Structure prediction by ZEFSAII (Michael W. Deem and Ramdas Pophale) SiO2 
 PCOD9507404
Probable space group: C C C A
;
_chemical_formula_sum "Si O2"
_cell_formula_units_Z 72
_cell_length_a 7.801038
_cell_length_b 26.397990
_cell_length_c 13.306643
_cell_angle_alpha 90.000000
_cell_angle_beta 90.000000
_cell_angle_gamma 90.000000
_cell_volume 2740.259922
_symmetry_space_group_name_H-M "C C C A"
_symmetry_group_IT_number 68
_space_group.IT_coordinate_system_code '2'
_symmetry_cell_setting 'orthorhombic'
loop_
_space_group_symop_operation_xyz
x,y,z
-x,1/2-y,z
x,1/2-y,1/2-z
-x,y,1/2-z
-x,-y,-z
x,1/2+y,-z
-x,1/2+y,1/2+z
x,-y,1/2+z
1/2+x,1/2+y,z
1/2-x,-y,z
1/2+x,-y,1/2-z
1/2-x,1/2+y,1/2-z
1/2-x,1/2-y,-z
1/2+x,y,-z
1/2-x,y,1/2+z
1/2+x,1/2-y,1/2+z
loop_
_atom_site_type_symbol
_atom_site_label
_atom_site_fract_x
_atom_site_fract_y
_atom_site_fract_z
Si Si1 0.000000 0.250000 0.583252
Si Si2 0.945051 0.576140 0.526840
Si Si3 0.000000 0.835892 0.750000
Si Si4 0.309801 0.686159 0.422094
Si Si5 0.728604 0.085114 0.166117
Si Si6 0.750000 0.500000 0.664901
O O1 0.133403 0.207832 0.623489
O O2 0.132830 0.286346 0.523675
O O3 0.840068 0.626318 0.562204
O O4 0.939029 0.582380 0.405733
O O5 0.874799 0.527205 0.585473
O O6 0.133245 0.576054 0.576375
O O7 0.958989 0.802745 0.844653
O O8 0.829428 0.868555 0.720993
O O9 0.708460 0.043904 0.253336
#
# Coordination Sequence:
#
# PCOD9507404 Si02
#       6
#     8  16   8  16  16   8
#     4  10  22  39  76 103 136 174 242 282 360 420
#     4  11  24  42  70  99 142 185 230 285 350 410
#     4  10  20  43  70  98 142 186 232 283 354 418
#     4  10  20  42  69 105 136 186 222 297 347 418
#     4  11  23  43  66  98 138 187 232 278 345 411
#     4  12  22  40  66 104 138 182 238 282 334 422
#
# _framework density 26.274878999999999
#
# number of rings (size 3 to 8) (size 9 to 14) (size 15 to 20)
#    0.000    1.333    4.444    3.333    0.000    5.778 
#    0.000    0.000    0.000   22.667    0.000    0.000 
#    0.000    0.000    0.000    0.000    0.000    0.000 
#
# Total GULP energy -200413.071781 kJ/mol
# GULP energy per Si atom -5567.029772 kJ/mol
# Density = 2.621508 g / cm^3
# Si number density = 26.274879 Si / 1000 Ang^3
#
#
#
# Elastic Constant Matrix: (Units=GPa)
#
#
# Indices 1 2 3 4 5 6 
#
# 1 81.0829 57.7114 16.3344 0.0000 0.0000 0.0000
# 2 57.7114 116.0135 24.9409 0.0000 0.0000 0.0000
# 3 16.3344 24.9409 111.8379 0.0000 0.0000 0.0000
# 4 0.0000 0.0000 0.0000 40.4097 0.0000 0.0000
# 5 0.0000 0.0000 0.0000 0.0000 42.6702 0.0000
# 6 0.0000 0.0000 0.0000 0.0000 0.0000 24.4399
#
#
#
# Elastic Compliance Matrix: (Units=1/GPa)
#
#
# Indices 1 2 3 4 5 6 
#
# 1 0.019146 -0.009373 -0.000706 0.000000 0.000000 0.000000
# 2 -0.009373 0.013642 -0.001673 0.000000 0.000000 0.000000
# 3 -0.000706 -0.001673 0.009418 0.000000 0.000000 0.000000
# 4 0.000000 0.000000 0.000000 0.024747 0.000000 0.000000
# 5 0.000000 0.000000 0.000000 0.000000 0.023436 0.000000
# 6 0.000000 0.000000 0.000000 0.000000 0.000000 0.040917
#
#
# Mechanical properties :
#
#
# Convention : Reuss Voigt Hill
#
# Bulk Modulus (GPa) = 53.47114 56.32308 54.89711
# Shear Modulus (GPa) = 31.04757 35.50046 33.27402
#
# Velocity S-wave (km/s) = 3.44124 3.67974 3.56249
# Velocity P-wave (km/s) = 6.01534 6.28782 6.15309
#
# Compressibility (1/GPa) = 0.01870168
#
# Stress axis : x y z
#
# Youngs Moduli (GPa) = 52.22927 73.30374 106.18149
#
# Poissons Ratio (x) = 0.68705 0.07499
# Poissons Ratio (y) = 0.48952 0.17768
# Poissons Ratio (z) = 0.03689 0.12266
#
# Static dielectric constant tensor:
#      x y z
#    x 2.749470 0.000000 0.000000 
#    y 0.000000 2.116180 0.000000 
#    z 0.000000 0.000000 2.219510 
# 
# From -- ./inp_files/19526.got.cif
#   From: 2010.05.17/outbox.cif.g08.bks.cpg/sg68_10_cif.got.tgz:19526.got - 2010.06.03 18:57:09.
