data_PCOD9507888
_publ_section_title
;
Structure prediction by ZEFSAII (Michael W. Deem and Ramdas Pophale) SiO2 
 PCOD9507888
Probable space group: C C C A
;
_chemical_formula_sum "Si O2"
_cell_formula_units_Z 128
_cell_length_a 20.235761
_cell_length_b 12.639189
_cell_length_c 23.153325
_cell_angle_alpha 90.000000
_cell_angle_beta 90.000000
_cell_angle_gamma 90.000000
_cell_volume 5921.777935
_symmetry_space_group_name_H-M "C C C A"
_symmetry_group_IT_number 68
_space_group.IT_coordinate_system_code '2'
_symmetry_cell_setting 'orthorhombic'
loop_
_space_group_symop_operation_xyz
x,y,z
-x,1/2-y,z
x,1/2-y,1/2-z
-x,y,1/2-z
-x,-y,-z
x,1/2+y,-z
-x,1/2+y,1/2+z
x,-y,1/2+z
1/2+x,1/2+y,z
1/2-x,-y,z
1/2+x,-y,1/2-z
1/2-x,1/2+y,1/2-z
1/2-x,1/2-y,-z
1/2+x,y,-z
1/2-x,y,1/2+z
1/2+x,1/2-y,1/2+z
loop_
_atom_site_type_symbol
_atom_site_label
_atom_site_fract_x
_atom_site_fract_y
_atom_site_fract_z
Si Si1 0.281482 0.187500 0.092378
Si Si2 0.469982 0.353942 0.532941
Si Si3 0.234399 0.891733 0.480400
Si Si4 0.393998 0.480641 0.958969
Si Si5 0.836446 0.423848 0.155609
Si Si6 0.304994 0.676242 0.693007
Si Si7 0.927937 0.718028 0.841106
Si Si8 0.165828 0.554786 0.712490
O O1 0.253345 0.292263 0.059704
O O2 0.232034 0.121558 0.132064
O O3 0.325478 0.248000 0.139534
O O4 0.284915 0.115353 0.034688
O O5 0.500000 0.250000 0.502716
O O6 0.535979 0.419749 0.547598
O O7 0.418341 0.418563 0.495073
O O8 0.435645 0.319905 0.592612
O O9 0.160499 0.906674 0.507469
O O10 0.250000 0.000000 0.447702
O O11 0.366809 0.498519 0.893950
O O12 0.882761 0.321239 0.159914
O O13 0.828357 0.467173 0.219274
O O14 0.312504 0.750000 0.750000
O O15 0.228992 0.628715 0.694497
O O16 0.340999 0.563017 0.687091
O O17 0.896119 0.625966 0.803704
O O18 0.000000 0.750000 0.820597
#
# Coordination Sequence:
#
# PCOD9507888 Si02
#       8
#    16  16  16  16  16  16  16  16
#     4  10  22  38  58  88 126 161 209 245 313 378
#     4  10  21  39  61  88 121 161 204 266 318 380
#     4  10  24  37  58  91 125 166 199 261 313 378
#     4  10  22  38  60  86 124 158 210 255 321 382
#     4  11  20  40  58  90 128 158 207 266 316 379
#     4  11  22  40  61  88 132 173 210 254 312 397
#     4  11  21  38  65  94 120 159 213 278 325 363
#     4  11  24  36  64  95 124 173 212 263 321 383
#
# _framework density 21.615130000000001
#
# number of rings (size 3 to 8) (size 9 to 14) (size 15 to 20)
#    0.000    1.500    5.000    0.375    5.250    4.000 
#    0.000    0.000    0.000    0.000    0.000    0.875 
#    0.000    0.000    0.000    0.000    0.000    0.000 
#
# Total GULP energy -356997.187325 kJ/mol
# GULP energy per Si atom -5578.081052 kJ/mol
# Density = 2.156593 g / cm^3
# Si number density = 21.615130 Si / 1000 Ang^3
#
#
#
# Elastic Constant Matrix: (Units=GPa)
#
#
# Indices 1 2 3 4 5 6 
#
# 1 71.0428 13.9685 7.8176 0.0000 0.0000 0.0000
# 2 13.9685 82.3044 21.3380 0.0000 0.0000 0.0000
# 3 7.8176 21.3380 81.9361 0.0000 0.0000 0.0000
# 4 0.0000 0.0000 0.0000 27.4974 0.0000 0.0000
# 5 0.0000 0.0000 0.0000 0.0000 92.3413 0.0000
# 6 0.0000 0.0000 0.0000 0.0000 0.0000 30.2925
#
#
#
# Elastic Compliance Matrix: (Units=1/GPa)
#
#
# Indices 1 2 3 4 5 6 
#
# 1 0.014611 -0.002272 -0.000802 0.000000 0.000000 0.000000
# 2 -0.002272 0.013383 -0.003268 0.000000 0.000000 0.000000
# 3 -0.000802 -0.003268 0.013132 0.000000 0.000000 0.000000
# 4 0.000000 0.000000 0.000000 0.036367 0.000000 0.000000
# 5 0.000000 0.000000 0.000000 0.000000 0.010829 0.000000
# 6 0.000000 0.000000 0.000000 0.000000 0.000000 0.033011
#
#
# Mechanical properties :
#
#
# Convention : Reuss Voigt Hill
#
# Bulk Modulus (GPa) = 35.16041 35.72571 35.44306
# Shear Modulus (GPa) = 34.84323 42.83685 38.84004
#
# Velocity S-wave (km/s) = 4.01931 4.45657 4.24357
# Velocity P-wave (km/s) = 6.15156 6.56089 6.35952
#
# Compressibility (1/GPa) = 0.02844108
#
# Stress axis : x y z
#
# Youngs Moduli (GPa) = 68.44164 74.72200 76.14762
#
# Poissons Ratio (x) = 0.16975 0.06110
# Poissons Ratio (y) = 0.15548 0.24889
# Poissons Ratio (z) = 0.05492 0.24423
#
# Static dielectric constant tensor:
#      x y z
#    x 1.817780 0.000000 0.000000 
#    y 0.000000 1.870580 0.000000 
#    z 0.000000 0.000000 1.816350 
# 
# From -- ./inp_files/47086.got.cif
#   From: 2010.05.17/outbox.cif.g08.bks.cpg/sg68_24_cif.got.tgz:47086.got - 2010.06.03 18:57:09.
