data_PCOD9507548
_publ_section_title
;
Structure prediction by ZEFSAII (Michael W. Deem and Ramdas Pophale) SiO2 
 PCOD9507548
Probable space group: C C C A
;
_chemical_formula_sum "Si O2"
_cell_formula_units_Z 80
_cell_length_a 12.229448
_cell_length_b 21.838560
_cell_length_c 13.224187
_cell_angle_alpha 90.000000
_cell_angle_beta 90.000000
_cell_angle_gamma 90.000000
_cell_volume 3531.830355
_symmetry_space_group_name_H-M "C C C A"
_symmetry_group_IT_number 68
_space_group.IT_coordinate_system_code '2'
_symmetry_cell_setting 'orthorhombic'
loop_
_space_group_symop_operation_xyz
x,y,z
-x,1/2-y,z
x,1/2-y,1/2-z
-x,y,1/2-z
-x,-y,-z
x,1/2+y,-z
-x,1/2+y,1/2+z
x,-y,1/2+z
1/2+x,1/2+y,z
1/2-x,-y,z
1/2+x,-y,1/2-z
1/2-x,1/2+y,1/2-z
1/2-x,1/2-y,-z
1/2+x,y,-z
1/2-x,y,1/2+z
1/2+x,1/2-y,1/2+z
loop_
_atom_site_type_symbol
_atom_site_label
_atom_site_fract_x
_atom_site_fract_y
_atom_site_fract_z
Si Si1 0.626330 0.078849 0.509281
Si Si2 0.496718 0.680301 0.923095
Si Si3 0.175531 0.320972 0.737700
Si Si4 0.991703 0.504644 0.857412
Si Si5 0.292987 0.431320 0.836798
O O1 0.563765 0.142849 0.511345
O O2 0.620116 0.035857 0.607197
O O3 0.738369 0.080860 0.447416
O O4 0.541375 0.042909 0.435349
O O5 0.500000 0.750000 0.955685
O O6 0.414557 0.675105 0.827254
O O7 0.614710 0.667276 0.870034
O O8 0.215769 0.250000 0.750000
O O9 0.257394 0.376146 0.764307
O O10 0.078417 0.559896 0.847855
O O11 0.000000 0.472342 0.750000
O O12 0.250000 0.500000 0.809169
#
# Coordination Sequence:
#
# PCOD9507548 Si02
#       5
#    16  16  16  16  16
#     4   9  19  35  54  77 108 139 181 226 267 327
#     4   8  14  26  52  81 102 133 176 227 271 310
#     4   8  14  26  49  80 109 134 174 226 273 316
#     4  10  21  36  53  77 111 146 176 224 279 325
#     4   9  18  32  52  80 109 140 185 222 268 333
#
# _framework density 22.651145
#
# number of rings (size 3 to 8) (size 9 to 14) (size 15 to 20)
#    0.000    3.200    0.000    1.200    8.400    0.000 
#    3.600    5.000    4.400    3.600    0.000    0.000 
#    0.000    0.000    0.000    0.000    0.000    0.000 
#
# Total GULP energy -222797.509838 kJ/mol
# GULP energy per Si atom -5569.937746 kJ/mol
# Density = 2.259959 g / cm^3
# Si number density = 22.651145 Si / 1000 Ang^3
#
#
#
# Elastic Constant Matrix: (Units=GPa)
#
#
# Indices 1 2 3 4 5 6 
#
# 1 42.4069 19.6803 -9.2955 0.0000 0.0000 0.0000
# 2 19.6803 104.2556 3.2263 0.0000 0.0000 0.0000
# 3 -9.2955 3.2263 30.7923 0.0000 0.0000 0.0000
# 4 0.0000 0.0000 0.0000 8.8179 0.0000 0.0000
# 5 0.0000 0.0000 0.0000 0.0000 13.6368 0.0000
# 6 0.0000 0.0000 0.0000 0.0000 0.0000 37.1909
#
#
#
# Elastic Compliance Matrix: (Units=1/GPa)
#
#
# Indices 1 2 3 4 5 6 
#
# 1 0.028172 -0.005599 0.009091 0.000000 0.000000 0.000000
# 2 -0.005599 0.010736 -0.002815 0.000000 0.000000 0.000000
# 3 0.009091 -0.002815 0.035515 0.000000 0.000000 0.000000
# 4 0.000000 0.000000 0.000000 0.113406 0.000000 0.000000
# 5 0.000000 0.000000 0.000000 0.000000 0.073331 0.000000
# 6 0.000000 0.000000 0.000000 0.000000 0.000000 0.026888
#
#
# Mechanical properties :
#
#
# Convention : Reuss Voigt Hill
#
# Bulk Modulus (GPa) = 13.19667 22.74188 17.96928
# Shear Modulus (GPa) = 16.02796 22.85201 19.43999
#
# Velocity S-wave (km/s) = 2.66296 3.17971 2.93274
# Velocity P-wave (km/s) = 3.91074 4.85207 4.40661
#
# Compressibility (1/GPa) = 0.07577668
#
# Stress axis : x y z
#
# Youngs Moduli (GPa) = 35.49565 93.14517 28.15711
#
# Poissons Ratio (x) = 0.52156 -0.25598
# Poissons Ratio (y) = 0.19876 0.07927
# Poissons Ratio (z) = -0.32270 0.26222
#
# Static dielectric constant tensor:
#      x y z
#    x 1.894000 0.000000 0.000000 
#    y 0.000000 1.921360 0.000000 
#    z 0.000000 0.000000 2.012720 
# 
# From -- ./inp_files/22156.got.cif
#   From: 2010.05.17/outbox.cif.g08.bks.cpg/sg68_12_cif.got.tgz:22156.got - 2010.06.03 18:57:09.
