data_PCOD9507608
_publ_section_title
;
Structure prediction by ZEFSAII (Michael W. Deem and Ramdas Pophale) SiO2 
 PCOD9507608
Probable space group: C C C A
;
_chemical_formula_sum "Si O2"
_cell_formula_units_Z 88
_cell_length_a 21.521844
_cell_length_b 13.994827
_cell_length_c 12.818107
_cell_angle_alpha 90.000000
_cell_angle_beta 90.000000
_cell_angle_gamma 90.000000
_cell_volume 3860.743117
_symmetry_space_group_name_H-M "C C C A"
_symmetry_group_IT_number 68
_space_group.IT_coordinate_system_code '2'
_symmetry_cell_setting 'orthorhombic'
loop_
_space_group_symop_operation_xyz
x,y,z
-x,1/2-y,z
x,1/2-y,1/2-z
-x,y,1/2-z
-x,-y,-z
x,1/2+y,-z
-x,1/2+y,1/2+z
x,-y,1/2+z
1/2+x,1/2+y,z
1/2-x,-y,z
1/2+x,-y,1/2-z
1/2-x,1/2+y,1/2-z
1/2-x,1/2-y,-z
1/2+x,y,-z
1/2-x,y,1/2+z
1/2+x,1/2-y,1/2+z
loop_
_atom_site_type_symbol
_atom_site_label
_atom_site_fract_x
_atom_site_fract_y
_atom_site_fract_z
Si Si1 0.078832 0.533929 0.379689
Si Si2 0.000000 0.099390 0.250000
Si Si3 0.818674 0.992388 0.045972
Si Si4 0.868735 0.155166 0.691250
Si Si5 0.935229 0.263599 0.518632
Si Si6 0.132742 0.178828 0.333370
O O1 0.022652 0.466337 0.346782
O O2 0.130000 0.486957 0.454834
O O3 0.107875 0.577021 0.273521
O O4 0.060136 0.629219 0.439644
O O5 0.935133 0.149511 0.215508
O O6 0.834887 0.083067 0.121788
O O7 0.750000 0.000000 0.000500
O O8 0.821443 0.898203 0.116612
O O9 0.845394 0.250000 0.750000
O O10 0.923722 0.194561 0.616281
O O11 0.880392 0.258953 0.436636
O O12 0.000000 0.250000 0.462011
O O13 0.163880 0.250000 0.250000
#
# Coordination Sequence:
#
# PCOD9507608 Si02
#       6
#    16   8  16  16  16  16
#     4  10  23  40  65 104 133 176 227 285 344 415
#     4  12  21  40  71 100 144 174 223 278 367 402
#     4  11  26  46  69  98 137 186 237 283 336 402
#     4  10  22  43  66  99 132 180 233 279 346 407
#     4  10  21  36  64  97 141 174 221 278 354 416
#     4  11  25  41  65 107 139 182 229 278 349 409
#
# _framework density 22.793538999999999
#
# number of rings (size 3 to 8) (size 9 to 14) (size 15 to 20)
#    0.000    1.455    1.818    2.455    5.091    5.455 
#    0.000    8.182    0.000    0.000    0.000    0.000 
#    0.000    0.000    0.000    0.000    0.000    0.000 
#
# Total GULP energy -245747.986265 kJ/mol
# GULP energy per Si atom -5585.181506 kJ/mol
# Density = 2.274166 g / cm^3
# Si number density = 22.793539 Si / 1000 Ang^3
#
#
#
# Elastic Constant Matrix: (Units=GPa)
#
#
# Indices 1 2 3 4 5 6 
#
# 1 63.1722 20.0610 8.1281 0.0000 0.0000 0.0000
# 2 20.0610 72.9455 43.8945 0.0000 0.0000 0.0000
# 3 8.1281 43.8945 88.6268 0.0000 0.0000 0.0000
# 4 0.0000 0.0000 0.0000 30.0173 0.0000 0.0000
# 5 0.0000 0.0000 0.0000 0.0000 13.7556 0.0000
# 6 0.0000 0.0000 0.0000 0.0000 0.0000 6.2406
#
#
#
# Elastic Compliance Matrix: (Units=1/GPa)
#
#
# Indices 1 2 3 4 5 6 
#
# 1 0.017420 -0.005455 0.001104 0.000000 0.000000 0.000000
# 2 -0.005455 0.021237 -0.010018 0.000000 0.000000 0.000000
# 3 0.001104 -0.010018 0.016144 0.000000 0.000000 0.000000
# 4 0.000000 0.000000 0.000000 0.033314 0.000000 0.000000
# 5 0.000000 0.000000 0.000000 0.000000 0.072698 0.000000
# 6 0.000000 0.000000 0.000000 0.000000 0.000000 0.160241
#
#
# Mechanical properties :
#
#
# Convention : Reuss Voigt Hill
#
# Bulk Modulus (GPa) = 38.36846 40.99018 39.67932
# Shear Modulus (GPa) = 13.94782 20.18011 17.06396
#
# Velocity S-wave (km/s) = 2.47639 2.97870 2.73908
# Velocity P-wave (km/s) = 5.00462 5.46374 5.23921
#
# Compressibility (1/GPa) = 0.02606308
#
# Stress axis : x y z
#
# Youngs Moduli (GPa) = 57.40513 47.08680 61.94390
#
# Poissons Ratio (x) = 0.25687 -0.06840
# Poissons Ratio (y) = 0.31316 0.62055
# Poissons Ratio (z) = -0.06339 0.47172
#
# Static dielectric constant tensor:
#      x y z
#    x 1.842990 0.000000 0.000000 
#    y 0.000000 1.881490 0.000000 
#    z 0.000000 0.000000 1.868720 
# 
# From -- ./inp_files/16303.got.cif
#   From: 2010.05.17/outbox.cif.g08.bks.cpg/sg68_9_cif.got.tgz:16303.got - 2010.06.03 18:57:09.
