data_PCOD9507421
_publ_section_title
;
Structure prediction by ZEFSAII (Michael W. Deem and Ramdas Pophale) SiO2 
 PCOD9507421
Probable space group: C C C A
;
_chemical_formula_sum "Si O2"
_cell_formula_units_Z 104
_cell_length_a 17.114643
_cell_length_b 18.714667
_cell_length_c 16.086415
_cell_angle_alpha 90.000000
_cell_angle_beta 90.000000
_cell_angle_gamma 90.000000
_cell_volume 5152.395792
_symmetry_space_group_name_H-M "C C C A"
_symmetry_group_IT_number 68
_space_group.IT_coordinate_system_code '2'
_symmetry_cell_setting 'orthorhombic'
loop_
_space_group_symop_operation_xyz
x,y,z
-x,1/2-y,z
x,1/2-y,1/2-z
-x,y,1/2-z
-x,-y,-z
x,1/2+y,-z
-x,1/2+y,1/2+z
x,-y,1/2+z
1/2+x,1/2+y,z
1/2-x,-y,z
1/2+x,-y,1/2-z
1/2-x,1/2+y,1/2-z
1/2-x,1/2-y,-z
1/2+x,y,-z
1/2-x,y,1/2+z
1/2+x,1/2-y,1/2+z
loop_
_atom_site_type_symbol
_atom_site_label
_atom_site_fract_x
_atom_site_fract_y
_atom_site_fract_z
Si Si1 0.356858 0.751026 0.657690
Si Si2 0.250000 0.000000 0.681526
Si Si3 0.144251 0.991878 0.833485
Si Si4 0.947062 0.315364 0.123879
Si Si5 0.226525 0.147659 0.094538
Si Si6 0.500000 0.932515 0.250000
Si Si7 0.267285 0.384821 0.096328
Si Si8 0.500000 0.750000 0.532404
O O1 0.390535 0.750000 0.750000
O O2 0.296450 0.814765 0.642788
O O3 0.305170 0.679878 0.646058
O O4 0.424354 0.756068 0.589328
O O5 0.318319 0.981130 0.746717
O O6 0.277847 0.066798 0.627860
O O7 0.189909 0.919630 0.862135
O O8 0.056083 0.977183 0.810071
O O9 0.168988 0.050836 0.900703
O O10 0.854077 0.308584 0.109202
O O11 0.954620 0.380886 0.186398
O O12 0.000000 0.250000 0.158621
O O13 0.985141 0.316653 0.031039
O O14 0.245117 0.142672 0.996776
#
# Coordination Sequence:
#
# PCOD9507421 Si02
#       8
#    16   8  16  16  16   8  16   8
#     4  12  25  42  71  95 129 185 229 287 352 408
#     4  10  20  44  58  96 136 160 228 264 328 416
#     4  10  23  40  64  96 134 176 219 278 333 411
#     4  10  24  41  64 103 136 171 226 288 342 410
#     4  12  23  43  71  98 130 185 223 288 346 409
#     4  12  23  42  68  98 141 182 214 278 360 407
#     4  10  22  43  63  96 131 170 231 275 329 416
#     4  10  25  47  58 100 138 168 232 287 341 418
#
# _framework density 20.184785000000002
#
# number of rings (size 3 to 8) (size 9 to 14) (size 15 to 20)
#    0.462    0.923    3.077    3.692    4.308    0.000 
#    5.538    0.769    0.000    0.000    0.000    0.000 
#    0.000    0.000    0.000    0.000    0.000    0.000 
#
# Total GULP energy -289868.636831 kJ/mol
# GULP energy per Si atom -5574.396862 kJ/mol
# Density = 2.013884 g / cm^3
# Si number density = 20.184785 Si / 1000 Ang^3
#
#
#
# Elastic Constant Matrix: (Units=GPa)
#
#
# Indices 1 2 3 4 5 6 
#
# 1 79.3302 13.7133 16.0578 0.0000 0.0000 0.0000
# 2 13.7133 51.6078 -2.7239 0.0000 0.0000 0.0000
# 3 16.0578 -2.7239 101.7672 0.0000 0.0000 0.0000
# 4 0.0000 0.0000 0.0000 29.0110 0.0000 0.0000
# 5 0.0000 0.0000 0.0000 0.0000 12.2910 0.0000
# 6 0.0000 0.0000 0.0000 0.0000 0.0000 18.0419
#
#
#
# Elastic Compliance Matrix: (Units=1/GPa)
#
#
# Indices 1 2 3 4 5 6 
#
# 1 0.013715 -0.003764 -0.002265 0.000000 0.000000 0.000000
# 2 -0.003764 0.020437 0.001141 0.000000 0.000000 0.000000
# 3 -0.002265 0.001141 0.010214 0.000000 0.000000 0.000000
# 4 0.000000 0.000000 0.000000 0.034470 0.000000 0.000000
# 5 0.000000 0.000000 0.000000 0.000000 0.081360 0.000000
# 6 0.000000 0.000000 0.000000 0.000000 0.000000 0.055427
#
#
# Mechanical properties :
#
#
# Convention : Reuss Voigt Hill
#
# Bulk Modulus (GPa) = 28.90943 31.86662 30.38802
# Shear Modulus (GPa) = 21.10342 25.57931 23.34137
#
# Velocity S-wave (km/s) = 3.23694 3.56372 3.40425
# Velocity P-wave (km/s) = 5.32202 5.72321 5.52626
#
# Compressibility (1/GPa) = 0.03459079
#
# Stress axis : x y z
#
# Youngs Moduli (GPa) = 72.91505 48.93025 97.90256
#
# Poissons Ratio (x) = 0.18416 0.22173
# Poissons Ratio (y) = 0.27444 -0.11170
# Poissons Ratio (z) = 0.16513 -0.05583
#
# Static dielectric constant tensor:
#      x y z
#    x 1.742290 0.000000 0.000000 
#    y 0.000000 1.763860 0.000000 
#    z 0.000000 0.000000 1.710730 
# 
# From -- ./inp_files/23833.got.cif
#   From: 2010.05.17/outbox.cif.g08.bks.cpg/sg68_12_cif.got.tgz:23833.got - 2010.06.03 18:57:09.
