data_PCOD9507380
_publ_section_title
;
Structure prediction by ZEFSAII (Michael W. Deem and Ramdas Pophale) SiO2 
 PCOD9507380
Probable space group: C C C A
;
_chemical_formula_sum "Si O2"
_cell_formula_units_Z 64
_cell_length_a 13.214582
_cell_length_b 17.287702
_cell_length_c 11.716559
_cell_angle_alpha 90.000000
_cell_angle_beta 90.000000
_cell_angle_gamma 90.000000
_cell_volume 2676.645041
_symmetry_space_group_name_H-M "C C C A"
_symmetry_group_IT_number 68
_space_group.IT_coordinate_system_code '2'
_symmetry_cell_setting 'orthorhombic'
loop_
_space_group_symop_operation_xyz
x,y,z
-x,1/2-y,z
x,1/2-y,1/2-z
-x,y,1/2-z
-x,-y,-z
x,1/2+y,-z
-x,1/2+y,1/2+z
x,-y,1/2+z
1/2+x,1/2+y,z
1/2-x,-y,z
1/2+x,-y,1/2-z
1/2-x,1/2+y,1/2-z
1/2-x,1/2-y,-z
1/2+x,y,-z
1/2-x,y,1/2+z
1/2+x,1/2-y,1/2+z
loop_
_atom_site_type_symbol
_atom_site_label
_atom_site_fract_x
_atom_site_fract_y
_atom_site_fract_z
Si Si1 0.596062 0.389912 0.168006
Si Si2 0.240930 0.907452 0.353835
Si Si3 0.454008 0.333045 0.580912
Si Si4 0.902778 0.043639 0.444462
O O1 0.500000 0.405789 0.250000
O O2 0.682465 0.362107 0.253923
O O3 0.640671 0.470783 0.120754
O O4 0.560977 0.340974 0.058428
O O5 0.346527 0.865038 0.375869
O O6 0.170308 0.913884 0.466793
O O7 0.250000 0.000000 0.329647
O O8 0.500000 0.250000 0.606493
O O9 0.541523 0.390602 0.624950
O O10 0.000000 0.000000 0.500000
#
# Coordination Sequence:
#
# PCOD9507380 Si02
#       4
#    16  16  16  16
#     4  11  21  41  71 104 140 193 258 304 363 455
#     4  12  22  40  74 109 136 197 256 314 370 438
#     4  11  25  45  70 105 158 195 239 315 387 451
#     4  10  20  42  64 106 145 183 249 317 366 426
#
# _framework density 23.910530000000001
#
# number of rings (size 3 to 8) (size 9 to 14) (size 15 to 20)
#    0.000    1.000   10.000    0.000    3.500    1.500 
#    0.000    0.000    5.500    5.250    0.000    1.750 
#    0.000    0.000    0.000    0.000    0.000    0.000 
#
# Total GULP energy -178566.553486 kJ/mol
# GULP energy per Si atom -5580.204796 kJ/mol
# Density = 2.385611 g / cm^3
# Si number density = 23.910530 Si / 1000 Ang^3
#
#
#
# Elastic Constant Matrix: (Units=GPa)
#
#
# Indices 1 2 3 4 5 6 
#
# 1 116.1086 27.8812 36.9963 0.0000 0.0000 0.0000
# 2 27.8812 117.8269 -4.5929 0.0000 0.0000 0.0000
# 3 36.9963 -4.5929 94.5255 0.0000 0.0000 0.0000
# 4 0.0000 0.0000 0.0000 -20.2521 0.0000 0.0000
# 5 0.0000 0.0000 0.0000 0.0000 35.2191 0.0000
# 6 0.0000 0.0000 0.0000 0.0000 0.0000 27.3871
#
#
#
# Elastic Compliance Matrix: (Units=1/GPa)
#
#
# Indices 1 2 3 4 5 6 
#
# 1 0.010623 -0.002681 -0.004288 0.000000 0.000000 0.000000
# 2 -0.002681 0.009180 0.001495 0.000000 0.000000 0.000000
# 3 -0.004288 0.001495 0.012330 0.000000 0.000000 0.000000
# 4 0.000000 0.000000 0.000000 -0.049378 0.000000 0.000000
# 5 0.000000 0.000000 0.000000 0.000000 0.028394 0.000000
# 6 0.000000 0.000000 0.000000 0.000000 0.000000 0.036514
#
#
# Mechanical properties :
#
#
# Convention : Reuss Voigt Hill
#
# Bulk Modulus (GPa) = 47.20185 49.89225 48.54705
# Shear Modulus (GPa) = 76.13770 26.34924 51.24347
#
# Velocity S-wave (km/s) = 5.64906 3.32323 4.63442
# Velocity P-wave (km/s) = 7.89513 5.96965 6.99892
#
# Compressibility (1/GPa) = 0.02118561
#
# Stress axis : x y z
#
# Youngs Moduli (GPa) = 94.13877 108.93650 81.10284
#
# Poissons Ratio (x) = 0.29203 0.34776
# Poissons Ratio (y) = 0.25236 -0.12127
# Poissons Ratio (z) = 0.40365 -0.16289
#
# Static dielectric constant tensor:
#      x y z
#    x 1.988710 0.000000 0.000000 
#    y 0.000000 2.021030 0.000000 
#    z 0.000000 0.000000 2.035950 
# 
# From -- ./inp_files/20472.got.cif
#   From: 2010.05.17/outbox.cif.g08.bks.cpg/sg68_11_cif.got.tgz:20472.got - 2010.06.03 18:57:09.
