data_PCOD9507241
_publ_section_title
;
Structure prediction by ZEFSAII (Michael W. Deem and Ramdas Pophale) SiO2 
 PCOD9507241
Probable space group: C C C A
;
_chemical_formula_sum "Si O2"
_cell_formula_units_Z 52
_cell_length_a 8.094808
_cell_length_b 22.372198
_cell_length_c 14.788908
_cell_angle_alpha 90.000000
_cell_angle_beta 90.000000
_cell_angle_gamma 90.000000
_cell_volume 2678.251235
_symmetry_space_group_name_H-M "C C C A"
_symmetry_group_IT_number 68
_space_group.IT_coordinate_system_code '2'
_symmetry_cell_setting 'orthorhombic'
loop_
_space_group_symop_operation_xyz
x,y,z
-x,1/2-y,z
x,1/2-y,1/2-z
-x,y,1/2-z
-x,-y,-z
x,1/2+y,-z
-x,1/2+y,1/2+z
x,-y,1/2+z
1/2+x,1/2+y,z
1/2-x,-y,z
1/2+x,-y,1/2-z
1/2-x,1/2+y,1/2-z
1/2-x,1/2-y,-z
1/2+x,y,-z
1/2-x,y,1/2+z
1/2+x,1/2-y,1/2+z
loop_
_atom_site_type_symbol
_atom_site_label
_atom_site_fract_x
_atom_site_fract_y
_atom_site_fract_z
Si Si1 0.835074 0.064751 0.449470
Si Si2 0.332395 0.633955 0.793269
Si Si3 0.698188 0.433850 0.863548
Si Si4 0.000000 0.750000 0.250000
O O1 0.728845 0.108098 0.386681
O O2 0.823209 0.082276 0.554689
O O3 0.019110 0.062095 0.410215
O O4 0.750000 0.000000 0.443530
O O5 0.500000 0.605727 0.750000
O O6 0.203043 0.614567 0.715880
O O7 0.381221 0.703485 0.801600
O O8 0.750000 0.500000 0.828905
#
# Coordination Sequence:
#
# PCOD9507241 Si02
#       4
#    16  16  16   4
#     4  11  21  35  59  93 123 151 186 237 296 352
#     4  10  20  40  60  80 115 156 198 235 290 331
#     4  11  21  35  59  93 123 151 186 237 296 352
#     4   8  24  40  66  72 116 158 202 246 280 328
#
# _framework density 19.415655000000001
#
# number of rings (size 3 to 8) (size 9 to 14) (size 15 to 20)
#    0.923    0.615    0.000    9.231    0.000    0.000 
#    0.000    4.615    0.000    0.000    0.000    0.000 
#    0.000    0.000    0.000    0.000    0.000    0.000 
#
# Total GULP energy -144971.316492 kJ/mol
# GULP energy per Si atom -5575.819865 kJ/mol
# Density = 1.937146 g / cm^3
# Si number density = 19.415655 Si / 1000 Ang^3
#
#
#
# Elastic Constant Matrix: (Units=GPa)
#
#
# Indices 1 2 3 4 5 6 
#
# 1 75.5943 9.8369 -3.1973 0.0000 0.0000 0.0000
# 2 9.8369 103.8001 52.2783 0.0000 0.0000 0.0000
# 3 -3.1973 52.2783 76.9376 0.0000 0.0000 0.0000
# 4 0.0000 0.0000 0.0000 26.4048 0.0000 0.0000
# 5 0.0000 0.0000 0.0000 0.0000 25.3147 0.0000
# 6 0.0000 0.0000 0.0000 0.0000 0.0000 26.2877
#
#
#
# Elastic Compliance Matrix: (Units=1/GPa)
#
#
# Indices 1 2 3 4 5 6 
#
# 1 0.013633 -0.002398 0.002196 0.000000 0.000000 0.000000
# 2 -0.002398 0.015068 -0.010338 0.000000 0.000000 0.000000
# 3 0.002196 -0.010338 0.020113 0.000000 0.000000 0.000000
# 4 0.000000 0.000000 0.000000 0.037872 0.000000 0.000000
# 5 0.000000 0.000000 0.000000 0.000000 0.039503 0.000000
# 6 0.000000 0.000000 0.000000 0.000000 0.000000 0.038041
#
#
# Mechanical properties :
#
#
# Convention : Reuss Voigt Hill
#
# Bulk Modulus (GPa) = 36.05621 41.57423 38.81522
# Shear Modulus (GPa) = 25.69965 28.76239 27.23102
#
# Velocity S-wave (km/s) = 3.64216 3.85307 3.74910
# Velocity P-wave (km/s) = 6.02479 6.42294 6.22705
#
# Compressibility (1/GPa) = 0.02773447
#
# Stress axis : x y z
#
# Youngs Moduli (GPa) = 73.34908 66.36619 49.71788
#
# Poissons Ratio (x) = 0.15915 -0.10918
# Poissons Ratio (y) = 0.17589 0.51399
# Poissons Ratio (z) = -0.16107 0.68610
#
# Static dielectric constant tensor:
#      x y z
#    x 1.767010 0.000000 0.000000 
#    y 0.000000 1.665610 0.000000 
#    z 0.000000 0.000000 1.705800 
# 
# From -- ./inp_files/4669.got.cif
#   From: 2010.05.17/outbox.cif.g08.bks.cpg/sg68_3_cif.got.tgz:4669.got - 2010.06.03 18:57:09.
