data_PCOD9507478
_publ_section_title
;
Structure prediction by ZEFSAII (Michael W. Deem and Ramdas Pophale) SiO2 
 PCOD9507478
Probable space group: C C C A
;
_chemical_formula_sum "Si O2"
_cell_formula_units_Z 96
_cell_length_a 25.038696
_cell_length_b 19.418950
_cell_length_c 8.431833
_cell_angle_alpha 90.000000
_cell_angle_beta 90.000000
_cell_angle_gamma 90.000000
_cell_volume 4099.769566
_symmetry_space_group_name_H-M "C C C A"
_symmetry_group_IT_number 68
_space_group.IT_coordinate_system_code '2'
_symmetry_cell_setting 'orthorhombic'
loop_
_space_group_symop_operation_xyz
x,y,z
-x,1/2-y,z
x,1/2-y,1/2-z
-x,y,1/2-z
-x,-y,-z
x,1/2+y,-z
-x,1/2+y,1/2+z
x,-y,1/2+z
1/2+x,1/2+y,z
1/2-x,-y,z
1/2+x,-y,1/2-z
1/2-x,1/2+y,1/2-z
1/2-x,1/2-y,-z
1/2+x,y,-z
1/2-x,y,1/2+z
1/2+x,1/2-y,1/2+z
loop_
_atom_site_type_symbol
_atom_site_label
_atom_site_fract_x
_atom_site_fract_y
_atom_site_fract_z
Si Si1 0.725555 0.825259 0.988495
Si Si2 0.605042 0.039192 0.363821
Si Si3 0.390828 0.665878 0.101333
Si Si4 0.542654 0.943988 0.553890
Si Si5 0.416203 0.684615 0.469017
Si Si6 0.181915 0.380375 0.664908
O O1 0.705276 0.836799 0.810964
O O2 0.750000 0.750000 0.000000
O O3 0.673292 0.826584 0.098053
O O4 0.769472 0.881854 0.040963
O O5 0.599601 0.097205 0.499533
O O6 0.658070 0.053355 0.259314
O O7 0.595078 0.967330 0.449998
O O8 0.558803 0.047886 0.234669
O O9 0.408020 0.667636 0.283345
O O10 0.417064 0.733086 0.019844
O O11 0.534140 0.863762 0.518704
O O12 0.500000 0.000000 0.500000
O O13 0.367293 0.659047 0.580680
#
# Coordination Sequence:
#
# PCOD9507478 Si02
#       6
#    16  16  16  16  16  16
#     4  11  19  29  56  91 133 175 227 256 311 407
#     4  10  23  40  66  95 134 172 228 287 350 411
#     4  10  21  37  62 100 137 178 213 280 346 398
#     4  11  23  43  70  94 121 175 234 284 348 437
#     4  10  21  38  62  96 138 169 223 279 354 406
#     4  10  21  33  55  92 130 177 217 277 316 388
#
# _framework density 23.415951
#
# number of rings (size 3 to 8) (size 9 to 14) (size 15 to 20)
#    0.000    1.667    1.667    3.000    4.667    2.000 
#    0.000    0.833    0.000   63.000    0.000    0.000 
#    0.000    0.000    0.000    0.000    0.000    0.000 
#
# Total GULP energy -268114.596458 kJ/mol
# GULP energy per Si atom -5585.720760 kJ/mol
# Density = 2.336265 g / cm^3
# Si number density = 23.415951 Si / 1000 Ang^3
#
#
#
# Elastic Constant Matrix: (Units=GPa)
#
#
# Indices 1 2 3 4 5 6 
#
# 1 67.3861 26.7471 5.5467 0.0000 0.0000 0.0000
# 2 26.7471 91.1282 2.5313 0.0000 0.0000 0.0000
# 3 5.5467 2.5313 86.5215 0.0000 0.0000 0.0000
# 4 0.0000 0.0000 0.0000 40.5258 0.0000 0.0000
# 5 0.0000 0.0000 0.0000 0.0000 31.7148 0.0000
# 6 0.0000 0.0000 0.0000 0.0000 0.0000 44.1090
#
#
#
# Elastic Compliance Matrix: (Units=1/GPa)
#
#
# Indices 1 2 3 4 5 6 
#
# 1 0.016872 -0.004926 -0.000938 0.000000 0.000000 0.000000
# 2 -0.004926 0.012421 -0.000048 0.000000 0.000000 0.000000
# 3 -0.000938 -0.000048 0.011619 0.000000 0.000000 0.000000
# 4 0.000000 0.000000 0.000000 0.024676 0.000000 0.000000
# 5 0.000000 0.000000 0.000000 0.000000 0.031531 0.000000
# 6 0.000000 0.000000 0.000000 0.000000 0.000000 0.022671
#
#
# Mechanical properties :
#
#
# Convention : Reuss Voigt Hill
#
# Bulk Modulus (GPa) = 34.37624 34.96511 34.67068
# Shear Modulus (GPa) = 35.38336 37.28396 36.33366
#
# Velocity S-wave (km/s) = 3.89148 3.99463 3.94339
# Velocity P-wave (km/s) = 5.90796 6.02002 5.96425
#
# Compressibility (1/GPa) = 0.02908986
#
# Stress axis : x y z
#
# Youngs Moduli (GPa) = 59.26864 80.51041 86.06356
#
# Poissons Ratio (x) = 0.39661 0.08069
# Poissons Ratio (y) = 0.29197 0.00409
# Poissons Ratio (z) = 0.05557 0.00383
#
# Static dielectric constant tensor:
#      x y z
#    x 2.006490 0.000000 0.000000 
#    y 0.000000 1.876760 0.000000 
#    z 0.000000 0.000000 1.888650 
# 
# From -- ./inp_files/8922.got.cif
#   From: 2010.05.17/outbox.cif.g08.bks.cpg/sg68_5_cif.got.tgz:8922.got - 2010.06.03 18:57:09.
