data_PCOD9507634
_publ_section_title
;
Structure prediction by ZEFSAII (Michael W. Deem and Ramdas Pophale) SiO2 
 PCOD9507634
Probable space group: C C C A
;
_chemical_formula_sum "Si O2"
_cell_formula_units_Z 68
_cell_length_a 5.457558
_cell_length_b 14.541389
_cell_length_c 35.738431
_cell_angle_alpha 90.000000
_cell_angle_beta 90.000000
_cell_angle_gamma 90.000000
_cell_volume 2836.218819
_symmetry_space_group_name_H-M "C C C A"
_symmetry_group_IT_number 68
_space_group.IT_coordinate_system_code '2'
_symmetry_cell_setting 'orthorhombic'
loop_
_space_group_symop_operation_xyz
x,y,z
-x,1/2-y,z
x,1/2-y,1/2-z
-x,y,1/2-z
-x,-y,-z
x,1/2+y,-z
-x,1/2+y,1/2+z
x,-y,1/2+z
1/2+x,1/2+y,z
1/2-x,-y,z
1/2+x,-y,1/2-z
1/2-x,1/2+y,1/2-z
1/2-x,1/2-y,-z
1/2+x,y,-z
1/2-x,y,1/2+z
1/2+x,1/2-y,1/2+z
loop_
_atom_site_type_symbol
_atom_site_label
_atom_site_fract_x
_atom_site_fract_y
_atom_site_fract_z
Si Si1 0.809891 0.898011 0.370185
Si Si2 0.500000 0.250000 0.750000
Si Si3 0.388201 0.352904 0.288498
Si Si4 0.309563 0.894432 0.397324
Si Si5 0.513735 0.638836 0.480931
O O1 0.897995 0.904679 0.327213
O O2 0.538675 0.854780 0.373788
O O3 0.037802 0.852682 0.391806
O O4 0.750000 0.000000 0.385391
O O5 0.382140 0.176627 0.721958
O O6 0.500000 0.250000 0.293086
O O7 0.500000 0.393508 0.250000
O O8 0.401389 0.889852 0.439747
O O9 0.250000 0.000000 0.386122
O O10 0.500000 0.750000 0.481714
O O11 0.238957 0.608543 0.492189
#
# Coordination Sequence:
#
# PCOD9507634 Si02
#       5
#    16   4  16  16  16
#     4  10  22  39  56  83 117 149 188 239 282 334
#     4   8  18  36  56  78 112 140 184 244 274 332
#     4   9  20  36  57  82 111 149 193 236 284 342
#     4  10  22  38  57  82 115 149 187 230 282 338
#     4  10  21  37  58  84 114 144 185 234 279 333
#
# _framework density 23.975583
#
# number of rings (size 3 to 8) (size 9 to 14) (size 15 to 20)
#    0.000    2.588    0.000    1.412    6.588    2.824 
#    2.118    0.000    0.000    0.000    0.000    0.000 
#    0.000    0.000    0.000    0.000    0.000    0.000 
#
# Total GULP energy -189337.005741 kJ/mol
# GULP energy per Si atom -5568.735463 kJ/mol
# Density = 2.392101 g / cm^3
# Si number density = 23.975583 Si / 1000 Ang^3
#
#
#
# Elastic Constant Matrix: (Units=GPa)
#
#
# Indices 1 2 3 4 5 6 
#
# 1 168.7777 13.6881 61.8508 0.0000 0.0000 0.0000
# 2 13.6881 67.3783 -1.5073 0.0000 0.0000 0.0000
# 3 61.8508 -1.5073 139.8710 0.0000 0.0000 0.0000
# 4 0.0000 0.0000 0.0000 30.8820 0.0000 0.0000
# 5 0.0000 0.0000 0.0000 0.0000 61.4041 0.0000
# 6 0.0000 0.0000 0.0000 0.0000 0.0000 -72.8616
#
#
#
# Elastic Compliance Matrix: (Units=1/GPa)
#
#
# Indices 1 2 3 4 5 6 
#
# 1 0.007227 -0.001540 -0.003212 0.000000 0.000000 0.000000
# 2 -0.001540 0.015173 0.000845 0.000000 0.000000 0.000000
# 3 -0.003212 0.000845 0.008579 0.000000 0.000000 0.000000
# 4 0.000000 0.000000 0.000000 0.032381 0.000000 0.000000
# 5 0.000000 0.000000 0.000000 0.000000 0.016286 0.000000
# 6 0.000000 0.000000 0.000000 0.000000 0.000000 -0.013725
#
#
# Mechanical properties :
#
#
# Convention : Reuss Voigt Hill
#
# Bulk Modulus (GPa) = 43.17117 58.23226 50.70172
# Shear Modulus (GPa) = 61.38067 24.01791 42.69929
#
# Velocity S-wave (km/s) = 5.06526 3.16850 4.22471
# Velocity P-wave (km/s) = 7.22873 6.14221 6.70751
#
# Compressibility (1/GPa) = 0.02316361
#
# Stress axis : x y z
#
# Youngs Moduli (GPa) = 138.36838 65.90504 116.56278
#
# Poissons Ratio (x) = 0.10150 0.37445
# Poissons Ratio (y) = 0.21310 -0.09844
# Poissons Ratio (z) = 0.44450 -0.05566
#
# Static dielectric constant tensor:
#      x y z
#    x 2.011730 0.000000 0.000000 
#    y 0.000000 1.923660 0.000000 
#    z 0.000000 0.000000 1.894050 
# 
# From -- ./inp_files/48177.got.cif
#   From: 2010.05.17/outbox.cif.g08.bks.cpg/sg68_25_cif.got.tgz:48177.got - 2010.06.03 18:57:09.
