data_PCOD9507030
_publ_section_title
;
Structure prediction by ZEFSAII (Michael W. Deem and Ramdas Pophale) SiO2 
 PCOD9507030
Probable space group: C C C A
;
_chemical_formula_sum "Si O2"
_cell_formula_units_Z 120
_cell_length_a 21.741534
_cell_length_b 11.743945
_cell_length_c 19.733176
_cell_angle_alpha 90.000000
_cell_angle_beta 90.000000
_cell_angle_gamma 90.000000
_cell_volume 5038.499050
_symmetry_space_group_name_H-M "C C C A"
_symmetry_group_IT_number 68
_space_group.IT_coordinate_system_code '2'
_symmetry_cell_setting 'orthorhombic'
loop_
_space_group_symop_operation_xyz
x,y,z
-x,1/2-y,z
x,1/2-y,1/2-z
-x,y,1/2-z
-x,-y,-z
x,1/2+y,-z
-x,1/2+y,1/2+z
x,-y,1/2+z
1/2+x,1/2+y,z
1/2-x,-y,z
1/2+x,-y,1/2-z
1/2-x,1/2+y,1/2-z
1/2-x,1/2-y,-z
1/2+x,y,-z
1/2-x,y,1/2+z
1/2+x,1/2-y,1/2+z
loop_
_atom_site_type_symbol
_atom_site_label
_atom_site_fract_x
_atom_site_fract_y
_atom_site_fract_z
Si Si1 0.206575 0.800612 0.381203
Si Si2 0.186426 0.989010 0.781846
Si Si3 0.553136 0.385990 0.915634
Si Si4 0.609505 0.107852 0.035469
Si Si5 0.340995 0.749348 0.350077
Si Si6 0.394190 0.343844 0.299651
Si Si7 0.500000 0.250000 0.462861
Si Si8 0.921464 0.554311 0.621319
O O1 0.205175 0.923288 0.343424
O O2 0.173579 0.829812 0.451851
O O3 0.274507 0.748785 0.385247
O O4 0.163656 0.718727 0.335613
O O5 0.130508 0.058773 0.750751
O O6 0.250000 0.000000 0.738811
O O7 0.170379 0.857195 0.799051
O O8 0.595780 0.495063 0.922438
O O9 0.600155 0.291425 0.892225
O O10 0.526992 0.348312 0.988161
O O11 0.491726 0.400710 0.871257
O O12 0.558857 0.192589 0.068439
O O13 0.597789 0.072850 0.957585
O O14 0.368277 0.622980 0.337336
O O15 0.424819 0.250000 0.250000
O O16 0.426016 0.421949 0.356744
#
# Coordination Sequence:
#
# PCOD9507030 Si02
#       8
#    16  16  16  16  16  16   8  16
#     4  10  23  39  66 101 134 176 222 283 347 398
#     4   9  20  41  68  89 126 179 227 270 340 411
#     4  11  21  41  64  95 136 175 232 267 338 425
#     4  11  23  38  67 100 135 184 227 279 344 416
#     4  11  21  41  66  97 134 175 223 288 342 407
#     4  10  24  45  67 100 131 173 236 285 340 414
#     4  10  20  38  60  94 128 186 228 262 322 422
#     4  11  24  40  69 102 132 181 228 283 345 413
#
# _framework density 23.816617999999998
#
# number of rings (size 3 to 8) (size 9 to 14) (size 15 to 20)
#    0.000    1.600    4.000    1.600    5.600    1.067 
#    0.000    2.000    2.933    1.600    0.000    0.000 
#    0.000    0.000    0.000    0.000    0.000    0.000 
#
# Total GULP energy -334258.413318 kJ/mol
# GULP energy per Si atom -5570.973555 kJ/mol
# Density = 2.376241 g / cm^3
# Si number density = 23.816618 Si / 1000 Ang^3
#
#
#
# Elastic Constant Matrix: (Units=GPa)
#
#
# Indices 1 2 3 4 5 6 
#
# 1 124.7974 28.5757 25.0713 0.0000 0.0000 0.0000
# 2 28.5757 144.7161 17.5054 0.0000 0.0000 0.0000
# 3 25.0713 17.5054 53.8527 0.0000 0.0000 0.0000
# 4 0.0000 0.0000 0.0000 34.7268 0.0000 0.0000
# 5 0.0000 0.0000 0.0000 0.0000 -14.5894 0.0000
# 6 0.0000 0.0000 0.0000 0.0000 0.0000 41.6904
#
#
#
# Elastic Compliance Matrix: (Units=1/GPa)
#
#
# Indices 1 2 3 4 5 6 
#
# 1 0.009081 -0.001334 -0.003794 0.000000 0.000000 0.000000
# 2 -0.001334 0.007389 -0.001781 0.000000 0.000000 0.000000
# 3 -0.003794 -0.001781 0.020914 0.000000 0.000000 0.000000
# 4 0.000000 0.000000 0.000000 0.028796 0.000000 0.000000
# 5 0.000000 0.000000 0.000000 0.000000 -0.068543 0.000000
# 6 0.000000 0.000000 0.000000 0.000000 0.000000 0.023986
#
#
# Mechanical properties :
#
#
# Convention : Reuss Voigt Hill
#
# Bulk Modulus (GPa) = 42.43333 51.74120 47.08727
# Shear Modulus (GPa) = 115.48335 29.17983 72.33159
#
# Velocity S-wave (km/s) = 6.97093 3.50407 5.51690
# Velocity P-wave (km/s) = 9.09105 6.17603 7.77144
#
# Compressibility (1/GPa) = 0.02356638
#
# Stress axis : x y z
#
# Youngs Moduli (GPa) = 110.12439 135.33770 47.81432
#
# Poissons Ratio (x) = 0.18056 0.18140
# Poissons Ratio (y) = 0.14692 0.08514
# Poissons Ratio (z) = 0.41779 0.24100
#
# Static dielectric constant tensor:
#      x y z
#    x 1.958970 0.000000 0.000000 
#    y 0.000000 1.997040 0.000000 
#    z 0.000000 0.000000 2.062370 
# 
# From -- ./inp_files/46706.got.cif
#   From: 2010.05.17/outbox.cif.g08.bks.cpg/sg68_24_cif.got.tgz:46706.got - 2010.06.03 18:57:09.
