data_PCOD9507432
_publ_section_title
;
Structure prediction by ZEFSAII (Michael W. Deem and Ramdas Pophale) SiO2 
 PCOD9507432
Probable space group: C C C A
;
_chemical_formula_sum "Si O2"
_cell_formula_units_Z 72
_cell_length_a 5.320976
_cell_length_b 26.579211
_cell_length_c 22.921678
_cell_angle_alpha 90.000000
_cell_angle_beta 90.000000
_cell_angle_gamma 90.000000
_cell_volume 3241.752036
_symmetry_space_group_name_H-M "C C C A"
_symmetry_group_IT_number 68
_space_group.IT_coordinate_system_code '2'
_symmetry_cell_setting 'orthorhombic'
loop_
_space_group_symop_operation_xyz
x,y,z
-x,1/2-y,z
x,1/2-y,1/2-z
-x,y,1/2-z
-x,-y,-z
x,1/2+y,-z
-x,1/2+y,1/2+z
x,-y,1/2+z
1/2+x,1/2+y,z
1/2-x,-y,z
1/2+x,-y,1/2-z
1/2-x,1/2+y,1/2-z
1/2-x,1/2-y,-z
1/2+x,y,-z
1/2-x,y,1/2+z
1/2+x,1/2-y,1/2+z
loop_
_atom_site_type_symbol
_atom_site_label
_atom_site_fract_x
_atom_site_fract_y
_atom_site_fract_z
Si Si1 0.000000 0.750000 0.961632
Si Si2 0.480771 0.193193 0.845834
Si Si3 0.518375 0.868434 0.816827
Si Si4 0.304051 0.442637 0.091368
Si Si5 0.540908 0.887702 0.480894
O O1 0.750000 0.750000 0.000000
O O2 0.195282 0.860807 0.011195
O O3 0.500000 0.250000 0.821195
O O4 0.215629 0.169155 0.828774
O O5 0.489567 0.203288 0.915692
O O6 0.719630 0.160379 0.827003
O O7 0.500000 0.885375 0.750000
O O8 0.469754 0.914360 0.860982
O O9 0.250000 0.500000 0.104611
O O10 0.046953 0.410602 0.080169
O O11 0.426030 0.434403 0.027431
#
# Coordination Sequence:
#
# PCOD9507432 Si02
#       5
#     8  16  16  16  16
#     4  10  20  44  69 100 141 170 208 278 354 430
#     4  10  25  47  69  99 130 175 223 283 350 391
#     4  12  26  45  67 100 134 181 245 275 322 416
#     4  10  22  41  64  95 136 171 215 276 340 393
#     4   8  19  36  62  92 125 166 215 273 332 404
#
# _framework density 22.210214000000001
#
# number of rings (size 3 to 8) (size 9 to 14) (size 15 to 20)
#    2.000    0.000    0.000    3.333    3.111    2.667 
#   12.000    2.222    0.000    0.000    0.000    0.000 
#    0.000    0.000    0.000    0.000    0.000    0.000 
#
# Total GULP energy -200866.773737 kJ/mol
# GULP energy per Si atom -5579.632604 kJ/mol
# Density = 2.215966 g / cm^3
# Si number density = 22.210214 Si / 1000 Ang^3
#
#
#
# Elastic Constant Matrix: (Units=GPa)
#
#
# Indices 1 2 3 4 5 6 
#
# 1 150.2418 7.4885 10.9440 0.0000 0.0000 0.0000
# 2 7.4885 102.4193 3.4126 0.0000 0.0000 0.0000
# 3 10.9440 3.4126 100.9884 0.0000 0.0000 0.0000
# 4 0.0000 0.0000 0.0000 12.6842 0.0000 0.0000
# 5 0.0000 0.0000 0.0000 0.0000 25.7622 0.0000
# 6 0.0000 0.0000 0.0000 0.0000 0.0000 23.6034
#
#
#
# Elastic Compliance Matrix: (Units=1/GPa)
#
#
# Indices 1 2 3 4 5 6 
#
# 1 0.006731 -0.000468 -0.000714 0.000000 0.000000 0.000000
# 2 -0.000468 0.009807 -0.000281 0.000000 0.000000 0.000000
# 3 -0.000714 -0.000281 0.009989 0.000000 0.000000 0.000000
# 4 0.000000 0.000000 0.000000 0.078838 0.000000 0.000000
# 5 0.000000 0.000000 0.000000 0.000000 0.038816 0.000000
# 6 0.000000 0.000000 0.000000 0.000000 0.000000 0.042367
#
#
# Mechanical properties :
#
#
# Convention : Reuss Voigt Hill
#
# Bulk Modulus (GPa) = 42.36884 44.14887 43.25886
# Shear Modulus (GPa) = 25.33676 34.53027 29.93352
#
# Velocity S-wave (km/s) = 3.38119 3.94725 3.67514
# Velocity P-wave (km/s) = 5.86183 6.37928 6.12602
#
# Compressibility (1/GPa) = 0.02360225
#
# Stress axis : x y z
#
# Youngs Moduli (GPa) = 148.56050 101.96404 100.11065
#
# Poissons Ratio (x) = 0.04776 0.07144
# Poissons Ratio (y) = 0.06958 0.02810
# Poissons Ratio (z) = 0.10602 0.02862
#
# Static dielectric constant tensor:
#      x y z
#    x 1.873380 0.000000 0.000000 
#    y 0.000000 1.842360 0.000000 
#    z 0.000000 0.000000 1.851330 
# 
# From -- ./inp_files/42246.got.cif
#   From: 2010.05.17/outbox.cif.g08.bks.cpg/sg68_22_cif.got.tgz:42246.got - 2010.06.03 18:57:09.
