data_PCOD9507769
_publ_section_title
;
Structure prediction by ZEFSAII (Michael W. Deem and Ramdas Pophale) SiO2 
 PCOD9507769
Probable space group: C C C A
;
_chemical_formula_sum "Si O2"
_cell_formula_units_Z 116
_cell_length_a 10.516588
_cell_length_b 25.209538
_cell_length_c 22.056592
_cell_angle_alpha 90.000000
_cell_angle_beta 90.000000
_cell_angle_gamma 90.000000
_cell_volume 5847.606722
_symmetry_space_group_name_H-M "C C C A"
_symmetry_group_IT_number 68
_space_group.IT_coordinate_system_code '2'
_symmetry_cell_setting 'orthorhombic'
loop_
_space_group_symop_operation_xyz
x,y,z
-x,1/2-y,z
x,1/2-y,1/2-z
-x,y,1/2-z
-x,-y,-z
x,1/2+y,-z
-x,1/2+y,1/2+z
x,-y,1/2+z
1/2+x,1/2+y,z
1/2-x,-y,z
1/2+x,-y,1/2-z
1/2-x,1/2+y,1/2-z
1/2-x,1/2-y,-z
1/2+x,y,-z
1/2-x,y,1/2+z
1/2+x,1/2-y,1/2+z
loop_
_atom_site_type_symbol
_atom_site_label
_atom_site_fract_x
_atom_site_fract_y
_atom_site_fract_z
Si Si1 0.198286 0.860910 0.434994
Si Si2 0.387403 0.208395 0.155962
Si Si3 0.095739 0.643221 0.459660
Si Si4 0.215772 0.698424 0.685494
Si Si5 0.850384 0.888090 0.265753
Si Si6 0.000000 0.250000 0.250000
Si Si7 0.357315 0.540937 0.879325
Si Si8 0.364923 0.459385 0.149484
O O1 0.313932 0.856659 0.482148
O O2 0.238175 0.822540 0.379771
O O3 0.179154 0.918413 0.403022
O O4 0.058061 0.848367 0.463513
O O5 0.500000 0.250000 0.152945
O O6 0.356785 0.186359 0.089651
O O7 0.278529 0.242789 0.187166
O O8 0.427634 0.156824 0.195236
O O9 0.117839 0.586150 0.428735
O O10 0.255707 0.651674 0.731379
O O11 0.073920 0.711539 0.703910
O O12 0.809134 0.928551 0.318568
O O13 0.893534 0.925424 0.210285
O O14 0.250000 0.500000 0.898292
O O15 0.497270 0.516320 0.866965
O O16 0.250000 0.500000 0.160001
#
# Coordination Sequence:
#
# PCOD9507769 Si02
#       8
#    16  16  16  16  16   4  16  16
#     4  10  23  44  64  92 126 171 214 282 315 392
#     4  11  21  38  65  92 120 169 217 257 319 387
#     4  10  23  42  65  95 127 166 231 268 330 384
#     4  11  23  41  61  90 131 169 209 257 329 384
#     4  10  21  38  61  92 125 165 207 264 315 398
#     4  12  24  44  54  96 136 164 208 258 314 400
#     4  10  22  40  62  93 126 163 218 269 321 394
#     4  10  22  40  63  93 128 165 213 267 340 388
#
# _framework density 19.837175999999999
#
# number of rings (size 3 to 8) (size 9 to 14) (size 15 to 20)
#    0.000    1.655    2.759    0.828    3.862    3.862 
#    6.207    2.759    0.000    0.000    0.000    0.000 
#    0.000    0.000    0.000    0.000    0.000    0.000 
#
# Total GULP energy -322956.703522 kJ/mol
# GULP energy per Si atom -5568.219026 kJ/mol
# Density = 1.979203 g / cm^3
# Si number density = 19.837176 Si / 1000 Ang^3
#
#
#
# Elastic Constant Matrix: (Units=GPa)
#
#
# Indices 1 2 3 4 5 6 
#
# 1 126.4604 51.2383 55.8868 0.0000 0.0000 0.0000
# 2 51.2383 66.1177 14.0450 0.0000 0.0000 0.0000
# 3 55.8868 14.0450 101.3033 0.0000 0.0000 0.0000
# 4 0.0000 0.0000 0.0000 12.4018 0.0000 0.0000
# 5 0.0000 0.0000 0.0000 0.0000 37.4106 0.0000
# 6 0.0000 0.0000 0.0000 0.0000 0.0000 294.1525
#
#
#
# Elastic Compliance Matrix: (Units=1/GPa)
#
#
# Indices 1 2 3 4 5 6 
#
# 1 0.015116 -0.010245 -0.006919 0.000000 0.000000 0.000000
# 2 -0.010245 0.022526 0.002529 0.000000 0.000000 0.000000
# 3 -0.006919 0.002529 0.013338 0.000000 0.000000 0.000000
# 4 0.000000 0.000000 0.000000 0.080633 0.000000 0.000000
# 5 0.000000 0.000000 0.000000 0.000000 0.026730 0.000000
# 6 0.000000 0.000000 0.000000 0.000000 0.000000 0.003400
#
#
# Mechanical properties :
#
#
# Convention : Reuss Voigt Hill
#
# Bulk Modulus (GPa) = 46.06046 59.58015 52.82030
# Shear Modulus (GPa) = 25.22064 80.30708 52.76386
#
# Velocity S-wave (km/s) = 3.56951 6.36954 5.16297
# Velocity P-wave (km/s) = 6.34494 9.17575 7.88837
#
# Compressibility (1/GPa) = 0.02171060
#
# Stress axis : x y z
#
# Youngs Moduli (GPa) = 66.15468 44.39220 74.97502
#
# Poissons Ratio (x) = 0.45478 0.51874
# Poissons Ratio (y) = 0.67773 -0.18958
# Poissons Ratio (z) = 0.45772 -0.11225
#
# Static dielectric constant tensor:
#      x y z
#    x 1.849660 0.000000 0.000000 
#    y 0.000000 1.744760 0.000000 
#    z 0.000000 0.000000 1.788610 
# 
# From -- ./inp_files/43512.got.cif
#   From: 2010.05.17/outbox.cif.g08.bks.cpg/sg68_22_cif.got.tgz:43512.got - 2010.06.03 18:57:09.
