data_PCOD9507097
_publ_section_title
;
Structure prediction by ZEFSAII (Michael W. Deem and Ramdas Pophale) SiO2 
 PCOD9507097
Probable space group: C C C A
;
_chemical_formula_sum "Si O2"
_cell_formula_units_Z 64
_cell_length_a 10.286422
_cell_length_b 9.304055
_cell_length_c 24.211679
_cell_angle_alpha 90.000000
_cell_angle_beta 90.000000
_cell_angle_gamma 90.000000
_cell_volume 2317.189296
_symmetry_space_group_name_H-M "C C C A"
_symmetry_group_IT_number 68
_space_group.IT_coordinate_system_code '2'
_symmetry_cell_setting 'orthorhombic'
loop_
_space_group_symop_operation_xyz
x,y,z
-x,1/2-y,z
x,1/2-y,1/2-z
-x,y,1/2-z
-x,-y,-z
x,1/2+y,-z
-x,1/2+y,1/2+z
x,-y,1/2+z
1/2+x,1/2+y,z
1/2-x,-y,z
1/2+x,-y,1/2-z
1/2-x,1/2+y,1/2-z
1/2-x,1/2-y,-z
1/2+x,y,-z
1/2-x,y,1/2+z
1/2+x,1/2-y,1/2+z
loop_
_atom_site_type_symbol
_atom_site_label
_atom_site_fract_x
_atom_site_fract_y
_atom_site_fract_z
Si Si1 0.115331 0.089491 0.398901
Si Si2 0.725817 0.348981 0.138646
Si Si3 0.123273 0.658704 0.480448
Si Si4 0.109433 0.420742 0.702845
O O1 0.150015 0.252188 0.380945
O O2 0.077180 0.081471 0.462859
O O3 0.250000 0.000000 0.401167
O O4 0.047714 0.009817 0.348501
O O5 0.750000 0.500000 0.167405
O O6 0.661332 0.394026 0.080086
O O7 0.649353 0.235696 0.177748
O O8 0.250000 0.750000 0.500000
O O9 0.000000 0.750000 0.466024
O O10 0.250000 0.500000 0.714650
O O11 0.000000 0.421976 0.750000
#
# Coordination Sequence:
#
# PCOD9507097 Si02
#       4
#    16  16  16  16
#     4   8  17  36  62  96 143 200 255 314 387 475
#     4   9  18  36  63 102 151 205 255 320 402 487
#     4  10  20  38  65 105 154 200 253 317 397 483
#     4   9  19  40  71 107 146 203 277 341 400 480
#
# _framework density 27.619667
#
# number of rings (size 3 to 8) (size 9 to 14) (size 15 to 20)
#    0.000    3.500    0.000    0.750    0.000    2.000 
#    0.000   38.750    0.000    1.500    0.000   38.500 
#    0.000    0.000    0.000    0.000    0.000    0.000 
#
# Total GULP energy -178852.968385 kJ/mol
# GULP energy per Si atom -5589.155262 kJ/mol
# Density = 2.755680 g / cm^3
# Si number density = 27.619667 Si / 1000 Ang^3
#
#
#
# Elastic Constant Matrix: (Units=GPa)
#
#
# Indices 1 2 3 4 5 6 
#
# 1 151.1100 63.3141 87.8875 0.0000 0.0000 0.0000
# 2 63.3141 229.9106 107.5358 0.0000 0.0000 0.0000
# 3 87.8875 107.5358 280.9650 0.0000 0.0000 0.0000
# 4 0.0000 0.0000 0.0000 35.9395 0.0000 0.0000
# 5 0.0000 0.0000 0.0000 0.0000 73.8219 0.0000
# 6 0.0000 0.0000 0.0000 0.0000 0.0000 39.9847
#
#
#
# Elastic Compliance Matrix: (Units=1/GPa)
#
#
# Indices 1 2 3 4 5 6 
#
# 1 0.008407 -0.001322 -0.002124 0.000000 0.000000 0.000000
# 2 -0.001322 0.005506 -0.001694 0.000000 0.000000 0.000000
# 3 -0.002124 -0.001694 0.004872 0.000000 0.000000 0.000000
# 4 0.000000 0.000000 0.000000 0.027825 0.000000 0.000000
# 5 0.000000 0.000000 0.000000 0.000000 0.013546 0.000000
# 6 0.000000 0.000000 0.000000 0.000000 0.000000 0.025010
#
#
# Mechanical properties :
#
#
# Convention : Reuss Voigt Hill
#
# Bulk Modulus (GPa) = 117.56995 131.05116 124.31056
# Shear Modulus (GPa) = 50.87591 56.83243 53.85417
#
# Velocity S-wave (km/s) = 4.29653 4.54109 4.42050
# Velocity P-wave (km/s) = 8.20204 8.66296 8.43565
#
# Compressibility (1/GPa) = 0.00850557
#
# Stress axis : x y z
#
# Youngs Moduli (GPa) = 118.95252 181.62845 205.26372
#
# Poissons Ratio (x) = 0.24006 0.43594
# Poissons Ratio (y) = 0.15722 0.34768
# Poissons Ratio (z) = 0.25263 0.30764
#
# Static dielectric constant tensor:
#      x y z
#    x 2.163480 0.000000 0.000000 
#    y 0.000000 2.191630 0.000000 
#    z 0.000000 0.000000 2.218440 
# 
# From -- ./inp_files/43861.got.cif
#   From: 2010.05.17/outbox.cif.g08.bks.cpg/sg68_22_cif.got.tgz:43861.got - 2010.06.03 18:57:09.
