data_PCOD9507306
_publ_section_title
;
Structure prediction by ZEFSAII (Michael W. Deem and Ramdas Pophale) SiO2 
 PCOD9507306
Probable space group: C C C A
;
_chemical_formula_sum "Si O2"
_cell_formula_units_Z 88
_cell_length_a 12.018859
_cell_length_b 21.992061
_cell_length_c 13.834289
_cell_angle_alpha 90.000000
_cell_angle_beta 90.000000
_cell_angle_gamma 90.000000
_cell_volume 3656.672079
_symmetry_space_group_name_H-M "C C C A"
_symmetry_group_IT_number 68
_space_group.IT_coordinate_system_code '2'
_symmetry_cell_setting 'orthorhombic'
loop_
_space_group_symop_operation_xyz
x,y,z
-x,1/2-y,z
x,1/2-y,1/2-z
-x,y,1/2-z
-x,-y,-z
x,1/2+y,-z
-x,1/2+y,1/2+z
x,-y,1/2+z
1/2+x,1/2+y,z
1/2-x,-y,z
1/2+x,-y,1/2-z
1/2-x,1/2+y,1/2-z
1/2-x,1/2-y,-z
1/2+x,y,-z
1/2-x,y,1/2+z
1/2+x,1/2-y,1/2+z
loop_
_atom_site_type_symbol
_atom_site_label
_atom_site_fract_x
_atom_site_fract_y
_atom_site_fract_z
Si Si1 0.924167 0.099719 0.098995
Si Si2 0.121819 0.476231 0.689807
Si Si3 0.318901 0.149628 0.381210
Si Si4 0.175164 0.941488 0.100904
Si Si5 0.728472 0.250000 0.250000
Si Si6 0.847516 0.166974 0.399155
O O1 0.811221 0.132602 0.132204
O O2 0.028224 0.143000 0.116464
O O3 0.940616 0.035653 0.152244
O O4 0.899193 0.081024 0.987924
O O5 0.250000 0.500000 0.685284
O O6 0.119149 0.414887 0.626890
O O7 0.109131 0.456336 0.801302
O O8 0.345248 0.197294 0.297909
O O9 0.336230 0.178342 0.486262
O O10 0.263725 0.888678 0.122976
O O11 0.250000 0.000000 0.071772
O O12 0.806089 0.221849 0.333599
#
# Coordination Sequence:
#
# PCOD9507306 Si02
#       6
#    16  16  16  16   8  16
#     4  10  22  40  66 103 138 169 222 286 346 410
#     4   9  18  39  63  96 135 174 215 275 342 404
#     4  10  22  42  68  96 134 177 229 280 331 406
#     4  10  20  40  66  95 141 176 220 279 343 414
#     4  12  24  45  68  97 136 188 234 279 324 403
#     4  11  24  42  69  99 134 181 225 279 345 398
#
# _framework density 24.065598000000001
#
# number of rings (size 3 to 8) (size 9 to 14) (size 15 to 20)
#    0.000    1.818    1.818    3.273    0.000    5.091 
#    0.000    8.182    0.000    4.364    0.000    0.000 
#    0.000    0.000    0.000    0.000    0.000    0.000 
#
# Total GULP energy -246532.366410 kJ/mol
# GULP energy per Si atom -5603.008327 kJ/mol
# Density = 2.401082 g / cm^3
# Si number density = 24.065598 Si / 1000 Ang^3
#
#
#
# Elastic Constant Matrix: (Units=GPa)
#
#
# Indices 1 2 3 4 5 6 
#
# 1 62.6604 3.7683 -18.2699 0.0000 0.0000 0.0000
# 2 3.7683 97.8240 14.8826 0.0000 0.0000 0.0000
# 3 -18.2699 14.8826 69.5675 0.0000 0.0000 0.0000
# 4 0.0000 0.0000 0.0000 56.6465 0.0000 0.0000
# 5 0.0000 0.0000 0.0000 0.0000 22.2013 0.0000
# 6 0.0000 0.0000 0.0000 0.0000 0.0000 24.6046
#
#
#
# Elastic Compliance Matrix: (Units=1/GPa)
#
#
# Indices 1 2 3 4 5 6 
#
# 1 0.017470 -0.001417 0.004891 0.000000 0.000000 0.000000
# 2 -0.001417 0.010681 -0.002657 0.000000 0.000000 0.000000
# 3 0.004891 -0.002657 0.016228 0.000000 0.000000 0.000000
# 4 0.000000 0.000000 0.000000 0.017653 0.000000 0.000000
# 5 0.000000 0.000000 0.000000 0.000000 0.045043 0.000000
# 6 0.000000 0.000000 0.000000 0.000000 0.000000 0.040643
#
#
# Mechanical properties :
#
#
# Convention : Reuss Voigt Hill
#
# Bulk Modulus (GPa) = 21.73296 25.64600 23.68948
# Shear Modulus (GPa) = 30.97475 36.00185 33.48830
#
# Velocity S-wave (km/s) = 3.59150 3.87200 3.73439
# Velocity P-wave (km/s) = 5.12336 5.53802 5.33472
#
# Compressibility (1/GPa) = 0.04601306
#
# Stress axis : x y z
#
# Youngs Moduli (GPa) = 57.23966 93.62163 61.62367
#
# Poissons Ratio (x) = 0.13267 -0.30142
# Poissons Ratio (y) = 0.08112 0.16375
# Poissons Ratio (z) = -0.27997 0.24877
#
# Static dielectric constant tensor:
#      x y z
#    x 1.993800 0.000000 0.000000 
#    y 0.000000 1.867730 0.000000 
#    z 0.000000 0.000000 1.948650 
# 
# From -- ./inp_files/22248.got.cif
#   From: 2010.05.17/outbox.cif.g08.bks.cpg/sg68_12_cif.got.tgz:22248.got - 2010.06.03 18:57:09.
