data_PCOD9507211
_publ_section_title
;
Structure prediction by ZEFSAII (Michael W. Deem and Ramdas Pophale) SiO2 
 PCOD9507211
Probable space group: C C C A
;
_chemical_formula_sum "Si O2"
_cell_formula_units_Z 116
_cell_length_a 13.114289
_cell_length_b 19.496727
_cell_length_c 21.793088
_cell_angle_alpha 90.000000
_cell_angle_beta 90.000000
_cell_angle_gamma 90.000000
_cell_volume 5572.181231
_symmetry_space_group_name_H-M "C C C A"
_symmetry_group_IT_number 68
_space_group.IT_coordinate_system_code '2'
_symmetry_cell_setting 'orthorhombic'
loop_
_space_group_symop_operation_xyz
x,y,z
-x,1/2-y,z
x,1/2-y,1/2-z
-x,y,1/2-z
-x,-y,-z
x,1/2+y,-z
-x,1/2+y,1/2+z
x,-y,1/2+z
1/2+x,1/2+y,z
1/2-x,-y,z
1/2+x,-y,1/2-z
1/2-x,1/2+y,1/2-z
1/2-x,1/2-y,-z
1/2+x,y,-z
1/2-x,y,1/2+z
1/2+x,1/2-y,1/2+z
loop_
_atom_site_type_symbol
_atom_site_label
_atom_site_fract_x
_atom_site_fract_y
_atom_site_fract_z
Si Si1 0.864532 0.797831 0.634949
Si Si2 0.843043 0.944994 0.477817
Si Si3 0.300318 0.072066 0.202024
Si Si4 0.005441 0.405799 0.083939
Si Si5 0.000000 0.250000 0.250000
Si Si6 0.211038 0.847371 0.589415
Si Si7 0.786365 0.922822 0.153594
Si Si8 0.491538 0.962997 0.638799
O O1 0.954637 0.830108 0.595677
O O2 0.818478 0.730396 0.603605
O O3 0.780813 0.858940 0.632345
O O4 0.919559 0.785673 0.701677
O O5 0.919953 0.940420 0.534602
O O6 0.793332 0.870981 0.461182
O O7 0.917270 0.960054 0.420206
O O8 0.750000 0.000000 0.484324
O O9 0.253540 0.126087 0.155069
O O10 0.279294 0.082717 0.272860
O O11 0.420947 0.064938 0.192469
O O12 0.250000 0.000000 0.183330
O O13 0.014269 0.455601 0.143434
O O14 0.887689 0.392139 0.070820
O O15 0.904166 0.921705 0.133016
O O16 0.750000 0.000000 0.136392
#
# Coordination Sequence:
#
# PCOD9507211 Si02
#       8
#    16  16  16  16   4  16  16  16
#     4  12  26  41  66  99 135 173 221 279 339 407
#     4  11  25  41  73  96 132 184 224 285 339 400
#     4  10  20  39  66  94 130 174 216 273 339 399
#     4  12  23  40  65  99 129 170 224 281 334 398
#     4  12  24  44  72  96 134 180 220 282 346 408
#     4  11  22  46  64  94 137 174 225 274 341 409
#     4  11  24  37  62  98 134 170 215 279 333 406
#     4  11  21  42  64  99 132 167 222 278 336 401
#
# _framework density 20.817701
#
# number of rings (size 3 to 8) (size 9 to 14) (size 15 to 20)
#    0.000    0.828    5.517    2.483    1.931    0.552 
#    0.000    4.138    0.000    3.310    0.000    0.000 
#    0.000    0.000    0.000    0.000    0.000    0.000 
#
# Total GULP energy -323454.380415 kJ/mol
# GULP energy per Si atom -5576.799662 kJ/mol
# Density = 2.077032 g / cm^3
# Si number density = 20.817701 Si / 1000 Ang^3
#
#
#
# Elastic Constant Matrix: (Units=GPa)
#
#
# Indices 1 2 3 4 5 6 
#
# 1 144.6575 51.2977 18.2732 0.0000 0.0000 0.0000
# 2 51.2977 111.2428 7.8012 0.0000 0.0000 0.0000
# 3 18.2732 7.8012 34.5142 0.0000 0.0000 0.0000
# 4 0.0000 0.0000 0.0000 -22.0333 0.0000 0.0000
# 5 0.0000 0.0000 0.0000 0.0000 24.5148 0.0000
# 6 0.0000 0.0000 0.0000 0.0000 0.0000 41.1360
#
#
#
# Elastic Compliance Matrix: (Units=1/GPa)
#
#
# Indices 1 2 3 4 5 6 
#
# 1 0.008721 -0.003757 -0.003768 0.000000 0.000000 0.000000
# 2 -0.003757 0.010753 -0.000441 0.000000 0.000000 0.000000
# 3 -0.003768 -0.000441 0.031068 0.000000 0.000000 0.000000
# 4 0.000000 0.000000 0.000000 -0.045386 0.000000 0.000000
# 5 0.000000 0.000000 0.000000 0.000000 0.040792 0.000000
# 6 0.000000 0.000000 0.000000 0.000000 0.000000 0.024310
#
#
# Mechanical properties :
#
#
# Convention : Reuss Voigt Hill
#
# Bulk Modulus (GPa) = 28.89407 49.46208 39.17807
# Shear Modulus (GPa) = 51.16255 22.92633 37.04444
#
# Velocity S-wave (km/s) = 4.96284 3.32217 4.22295
# Velocity P-wave (km/s) = 6.83736 6.20701 6.52979
#
# Compressibility (1/GPa) = 0.03460918
#
# Stress axis : x y z
#
# Youngs Moduli (GPa) = 114.66154 92.99759 32.18714
#
# Poissons Ratio (x) = 0.34943 0.12129
# Poissons Ratio (y) = 0.43083 0.01420
# Poissons Ratio (z) = 0.43206 0.04102
#
# Static dielectric constant tensor:
#      x y z
#    x 1.841250 0.000000 0.000000 
#    y 0.000000 1.764420 0.000000 
#    z 0.000000 0.000000 1.763720 
# 
# From -- ./inp_files/50353.got.cif
#   From: 2010.05.17/outbox.cif.g08.bks.cpg/sg68_26_cif.got.tgz:50353.got - 2010.06.03 18:57:09.
