data_PCOD9507328
_publ_section_title
;
Structure prediction by ZEFSAII (Michael W. Deem and Ramdas Pophale) SiO2 
 PCOD9507328
Probable space group: C C C A
;
_chemical_formula_sum "Si O2"
_cell_formula_units_Z 64
_cell_length_a 15.824111
_cell_length_b 13.571079
_cell_length_c 10.804327
_cell_angle_alpha 90.000000
_cell_angle_beta 90.000000
_cell_angle_gamma 90.000000
_cell_volume 2320.232038
_symmetry_space_group_name_H-M "C C C A"
_symmetry_group_IT_number 68
_space_group.IT_coordinate_system_code '2'
_symmetry_cell_setting 'orthorhombic'
loop_
_space_group_symop_operation_xyz
x,y,z
-x,1/2-y,z
x,1/2-y,1/2-z
-x,y,1/2-z
-x,-y,-z
x,1/2+y,-z
-x,1/2+y,1/2+z
x,-y,1/2+z
1/2+x,1/2+y,z
1/2-x,-y,z
1/2+x,-y,1/2-z
1/2-x,1/2+y,1/2-z
1/2-x,1/2-y,-z
1/2+x,y,-z
1/2-x,y,1/2+z
1/2+x,1/2-y,1/2+z
loop_
_atom_site_type_symbol
_atom_site_label
_atom_site_fract_x
_atom_site_fract_y
_atom_site_fract_z
Si Si1 0.505387 0.367531 0.892257
Si Si2 0.445506 0.147431 0.356246
Si Si3 0.693032 0.600495 0.449035
Si Si4 0.270057 0.617456 0.785128
O O1 0.500000 0.250000 0.882915
O O2 0.500000 0.400203 0.750000
O O3 0.592164 0.405941 0.954208
O O4 0.438537 0.390138 0.002736
O O5 0.500000 0.250000 0.368964
O O6 0.500000 0.094141 0.250000
O O7 0.354995 0.143802 0.290564
O O8 0.750000 0.500000 0.442049
O O9 0.721962 0.653477 0.574770
O O10 0.702322 0.651718 0.315083
O O11 0.250000 0.500000 0.800853
#
# Coordination Sequence:
#
# PCOD9507328 Si02
#       4
#    16  16  16  16
#     4  10  22  42  69  99 136 177 232 284 336 401
#     4  10  20  40  69  94 129 180 228 271 334 413
#     4  10  22  42  65  96 139 180 221 279 349 409
#     4  10  22  41  64  97 139 177 222 280 348 406
#
# _framework density 27.583448000000001
#
# number of rings (size 3 to 8) (size 9 to 14) (size 15 to 20)
#    0.000    2.000    2.500    0.000    3.500    0.000 
#    0.000   20.000    0.000    0.000    0.000    0.000 
#    0.000    0.000    0.000    0.000    0.000    0.000 
#
# Total GULP energy -178365.038279 kJ/mol
# GULP energy per Si atom -5573.907446 kJ/mol
# Density = 2.752067 g / cm^3
# Si number density = 27.583448 Si / 1000 Ang^3
#
#
#
# Elastic Constant Matrix: (Units=GPa)
#
#
# Indices 1 2 3 4 5 6 
#
# 1 75.0756 34.0478 -17.1316 0.0000 0.0000 0.0000
# 2 34.0478 189.0301 34.8554 0.0000 0.0000 0.0000
# 3 -17.1316 34.8554 322.1025 0.0000 0.0000 0.0000
# 4 0.0000 0.0000 0.0000 -563.5452 0.0000 0.0000
# 5 0.0000 0.0000 0.0000 0.0000 44.2824 0.0000
# 6 0.0000 0.0000 0.0000 0.0000 0.0000 31.0289
#
#
#
# Elastic Compliance Matrix: (Units=1/GPa)
#
#
# Indices 1 2 3 4 5 6 
#
# 1 0.014879 -0.002884 0.001103 0.000000 0.000000 0.000000
# 2 -0.002884 0.005957 -0.000798 0.000000 0.000000 0.000000
# 3 0.001103 -0.000798 0.003250 0.000000 0.000000 0.000000
# 4 0.000000 0.000000 0.000000 -0.001774 0.000000 0.000000
# 5 0.000000 0.000000 0.000000 0.000000 0.022582 0.000000
# 6 0.000000 0.000000 0.000000 0.000000 0.000000 0.032228
#
#
# Mechanical properties :
#
#
# Convention : Reuss Voigt Hill
#
# Bulk Modulus (GPa) = 52.82725 76.63905 64.73315
# Shear Modulus (GPa) = 56.44133 -62.01768 -2.78818
#
# Velocity S-wave (km/s) = 4.52840 -4.74684 -1.00648
# Velocity P-wave (km/s) = 6.82168 1.48275 4.70833
#
# Compressibility (1/GPa) = 0.01892962
#
# Stress axis : x y z
#
# Youngs Moduli (GPa) = 67.20699 167.87896 307.72661
#
# Poissons Ratio (x) = 0.48408 -0.33955
# Poissons Ratio (y) = 0.19379 0.24555
# Poissons Ratio (z) = -0.07416 0.13396
#
# Static dielectric constant tensor:
#      x y z
#    x 2.376140 0.000000 0.000000 
#    y 0.000000 2.308870 0.000000 
#    z 0.000000 0.000000 2.254010 
# 
# From -- ./inp_files/12781.got.cif
#   From: 2010.05.17/outbox.cif.g08.bks.cpg/sg68_7_cif.got.tgz:12781.got - 2010.06.03 18:57:09.
