data_PCOD9507243
_publ_section_title
;
Structure prediction by ZEFSAII (Michael W. Deem and Ramdas Pophale) SiO2 
 PCOD9507243
Probable space group: C C C A
;
_chemical_formula_sum "Si O2"
_cell_formula_units_Z 108
_cell_length_a 11.616060
_cell_length_b 20.738396
_cell_length_c 23.295599
_cell_angle_alpha 90.000000
_cell_angle_beta 90.000000
_cell_angle_gamma 90.000000
_cell_volume 5611.873743
_symmetry_space_group_name_H-M "C C C A"
_symmetry_group_IT_number 68
_space_group.IT_coordinate_system_code '2'
_symmetry_cell_setting 'orthorhombic'
loop_
_space_group_symop_operation_xyz
x,y,z
-x,1/2-y,z
x,1/2-y,1/2-z
-x,y,1/2-z
-x,-y,-z
x,1/2+y,-z
-x,1/2+y,1/2+z
x,-y,1/2+z
1/2+x,1/2+y,z
1/2-x,-y,z
1/2+x,-y,1/2-z
1/2-x,1/2+y,1/2-z
1/2-x,1/2-y,-z
1/2+x,y,-z
1/2-x,y,1/2+z
1/2+x,1/2-y,1/2+z
loop_
_atom_site_type_symbol
_atom_site_label
_atom_site_fract_x
_atom_site_fract_y
_atom_site_fract_z
Si Si1 0.346103 0.362233 0.114275
Si Si2 0.887654 0.002662 0.650438
Si Si3 0.654784 0.283174 0.151318
Si Si4 0.500000 0.250000 0.250000
Si Si5 0.500000 0.581241 0.250000
Si Si6 0.528314 0.176635 0.464501
Si Si7 0.585217 0.386702 0.920263
Si Si8 0.577665 0.187123 0.833631
O O1 0.408309 0.421321 0.146060
O O2 0.363027 0.293288 0.142710
O O3 0.408074 0.356200 0.052844
O O4 0.209897 0.371590 0.107140
O O5 0.936263 0.964412 0.704768
O O6 0.931878 0.962015 0.595220
O O7 0.750000 0.000000 0.651643
O O8 0.583647 0.293733 0.209815
O O9 0.602467 0.316643 0.094282
O O10 0.790571 0.294993 0.155135
O O11 0.578374 0.631406 0.214665
O O12 0.500000 0.250000 0.483662
O O13 0.586339 0.135674 0.514322
O O14 0.487924 0.345188 0.887647
O O15 0.500000 0.250000 0.818303
#
# Coordination Sequence:
#
# PCOD9507243 Si02
#       8
#    16  16  16   4   8  16  16  16
#     4  10  20  40  60  88 121 164 206 247 307 378
#     4   9  21  41  60  86 116 166 214 246 306 371
#     4  11  24  39  60  94 128 157 209 247 324 373
#     4  12  24  42  54  88 130 164 196 256 306 392
#     4  10  23  41  60  90 122 162 220 260 314 370
#     4  10  22  38  58  96 121 160 202 257 311 378
#     4  10  21  37  65  88 126 159 203 256 312 364
#     4  11  22  38  63  97 125 159 197 268 317 372
#
# _framework density 19.244909
#
# number of rings (size 3 to 8) (size 9 to 14) (size 15 to 20)
#    0.000    1.778    3.704    0.667    4.148    2.370 
#    2.667    0.000    0.000    0.000    0.000    0.000 
#    0.000    0.000    0.000    0.000    0.000    0.000 
#
# Total GULP energy -300970.123737 kJ/mol
# GULP energy per Si atom -5573.520810 kJ/mol
# Density = 1.920111 g / cm^3
# Si number density = 19.244909 Si / 1000 Ang^3
#
#
#
# Elastic Constant Matrix: (Units=GPa)
#
#
# Indices 1 2 3 4 5 6 
#
# 1 112.4798 33.5087 43.1668 0.0000 0.0000 0.0000
# 2 33.5087 103.6977 58.1013 0.0000 0.0000 0.0000
# 3 43.1668 58.1013 113.3672 0.0000 0.0000 0.0000
# 4 0.0000 0.0000 0.0000 -30.4038 0.0000 0.0000
# 5 0.0000 0.0000 0.0000 0.0000 10.8206 0.0000
# 6 0.0000 0.0000 0.0000 0.0000 0.0000 17.2187
#
#
#
# Elastic Compliance Matrix: (Units=1/GPa)
#
#
# Indices 1 2 3 4 5 6 
#
# 1 0.010606 -0.001634 -0.003201 0.000000 0.000000 0.000000
# 2 -0.001634 0.013780 -0.006440 0.000000 0.000000 0.000000
# 3 -0.003201 -0.006440 0.013340 0.000000 0.000000 0.000000
# 4 0.000000 0.000000 0.000000 -0.032891 0.000000 0.000000
# 5 0.000000 0.000000 0.000000 0.000000 0.092416 0.000000
# 6 0.000000 0.000000 0.000000 0.000000 0.000000 0.058076
#
#
# Mechanical properties :
#
#
# Convention : Reuss Voigt Hill
#
# Bulk Modulus (GPa) = 65.89307 66.56649 66.22978
# Shear Modulus (GPa) = 27.33197 12.51163 19.92180
#
# Velocity S-wave (km/s) = 3.77267 2.55252 3.22090
# Velocity P-wave (km/s) = 7.30006 6.58418 6.95134
#
# Compressibility (1/GPa) = 0.01517610
#
# Stress axis : x y z
#
# Youngs Moduli (GPa) = 94.28953 72.57075 74.96028
#
# Poissons Ratio (x) = 0.11855 0.23996
# Poissons Ratio (y) = 0.15402 0.48276
# Poissons Ratio (z) = 0.30183 0.46737
#
# Static dielectric constant tensor:
#      x y z
#    x 1.667760 0.000000 0.000000 
#    y 0.000000 1.705590 0.000000 
#    z 0.000000 0.000000 1.712920 
# 
# From -- ./inp_files/44611.got.cif
#   From: 2010.05.17/outbox.cif.g08.bks.cpg/sg68_23_cif.got.tgz:44611.got - 2010.06.03 18:57:09.
