data_PCOD9507666
_publ_section_title
;
Structure prediction by ZEFSAII (Michael W. Deem and Ramdas Pophale) SiO2 
 PCOD9507666
Probable space group: C C C A
;
_chemical_formula_sum "Si O2"
_cell_formula_units_Z 64
_cell_length_a 21.758364
_cell_length_b 9.689609
_cell_length_c 10.928604
_cell_angle_alpha 90.000000
_cell_angle_beta 90.000000
_cell_angle_gamma 90.000000
_cell_volume 2304.078015
_symmetry_space_group_name_H-M "C C C A"
_symmetry_group_IT_number 68
_space_group.IT_coordinate_system_code '2'
_symmetry_cell_setting 'orthorhombic'
loop_
_space_group_symop_operation_xyz
x,y,z
-x,1/2-y,z
x,1/2-y,1/2-z
-x,y,1/2-z
-x,-y,-z
x,1/2+y,-z
-x,1/2+y,1/2+z
x,-y,1/2+z
1/2+x,1/2+y,z
1/2-x,-y,z
1/2+x,-y,1/2-z
1/2-x,1/2+y,1/2-z
1/2-x,1/2-y,-z
1/2+x,y,-z
1/2-x,y,1/2+z
1/2+x,1/2-y,1/2+z
loop_
_atom_site_type_symbol
_atom_site_label
_atom_site_fract_x
_atom_site_fract_y
_atom_site_fract_z
Si Si1 0.675922 0.250000 0.250000
Si Si2 0.250000 0.500000 0.269790
Si Si3 0.381186 0.365831 0.001529
Si Si4 0.000000 0.250000 0.570363
Si Si5 0.500000 0.001687 0.250000
Si Si6 0.629474 0.115907 0.639141
O O1 0.718666 0.138315 0.320556
O O2 0.636308 0.185532 0.139192
O O3 0.308210 0.556975 0.195557
O O4 0.450473 0.319409 0.985222
O O5 0.374461 0.528032 0.011888
O O6 0.354003 0.273899 0.894244
O O7 0.020366 0.117089 0.649216
O O8 0.437096 0.921047 0.295063
#
# Coordination Sequence:
#
# PCOD9507666 Si02
#       6
#     8   8  16   8   8  16
#     4  10  22  39  60  87 122 166 212 258 316 378
#     4  10  22  40  62  88 122 170 212 254 312 370
#     4  10  21  37  61  91 123 161 207 259 314 372
#     4   9  16  34  60  81 114 162 200 241 308 379
#     4   9  18  36  60  85 120 161 206 253 308 369
#     4  10  22  39  62  92 126 164 210 259 312 371
#
# _framework density 27.776835999999999
#
# number of rings (size 3 to 8) (size 9 to 14) (size 15 to 20)
#    0.000    2.250    0.000    4.500    0.000   11.000 
#    0.000    2.500    0.000   10.500    0.000    0.000 
#    0.000    0.000    0.000    0.000    0.000    0.000 
#
# Total GULP energy -178372.591575 kJ/mol
# GULP energy per Si atom -5574.143487 kJ/mol
# Density = 2.771361 g / cm^3
# Si number density = 27.776836 Si / 1000 Ang^3
#
#
#
# Elastic Constant Matrix: (Units=GPa)
#
#
# Indices 1 2 3 4 5 6 
#
# 1 161.0030 34.1804 60.2342 0.0000 0.0000 0.0000
# 2 34.1804 88.2852 42.3866 0.0000 0.0000 0.0000
# 3 60.2342 42.3866 75.4152 0.0000 0.0000 0.0000
# 4 0.0000 0.0000 0.0000 29.8788 0.0000 0.0000
# 5 0.0000 0.0000 0.0000 0.0000 25.2406 0.0000
# 6 0.0000 0.0000 0.0000 0.0000 0.0000 42.5544
#
#
#
# Elastic Compliance Matrix: (Units=1/GPa)
#
#
# Indices 1 2 3 4 5 6 
#
# 1 0.008858 -0.000045 -0.007050 0.000000 0.000000 0.000000
# 2 -0.000045 0.015513 -0.008683 0.000000 0.000000 0.000000
# 3 -0.007050 -0.008683 0.023771 0.000000 0.000000 0.000000
# 4 0.000000 0.000000 0.000000 0.033469 0.000000 0.000000
# 5 0.000000 0.000000 0.000000 0.000000 0.039619 0.000000
# 6 0.000000 0.000000 0.000000 0.000000 0.000000 0.023499
#
#
# Mechanical properties :
#
#
# Convention : Reuss Voigt Hill
#
# Bulk Modulus (GPa) = 60.29004 66.47842 63.38423
# Shear Modulus (GPa) = 27.50076 32.06158 29.78117
#
# Velocity S-wave (km/s) = 3.14994 3.40112 3.27794
# Velocity P-wave (km/s) = 5.91454 6.27762 6.09878
#
# Compressibility (1/GPa) = 0.01658649
#
# Stress axis : x y z
#
# Youngs Moduli (GPa) = 112.89231 64.46115 42.06824
#
# Poissons Ratio (x) = 0.00289 0.29657
# Poissons Ratio (y) = 0.00506 0.36529
# Poissons Ratio (z) = 0.79586 0.55974
#
# Static dielectric constant tensor:
#      x y z
#    x 2.186220 0.000000 0.000000 
#    y 0.000000 2.316280 0.000000 
#    z 0.000000 0.000000 2.254130 
# 
# From -- ./inp_files/11811.got.cif
#   From: 2010.05.17/outbox.cif.g08.bks.cpg/sg68_6_cif.got.tgz:11811.got - 2010.06.03 18:57:09.
