data_PCOD9507390
_publ_section_title
;
Structure prediction by ZEFSAII (Michael W. Deem and Ramdas Pophale) SiO2 
 PCOD9507390
Probable space group: C C C A
;
_chemical_formula_sum "Si O2"
_cell_formula_units_Z 56
_cell_length_a 15.172878
_cell_length_b 5.078028
_cell_length_c 30.558740
_cell_angle_alpha 90.000000
_cell_angle_beta 90.000000
_cell_angle_gamma 90.000000
_cell_volume 2354.498947
_symmetry_space_group_name_H-M "C C C A"
_symmetry_group_IT_number 68
_space_group.IT_coordinate_system_code '2'
_symmetry_cell_setting 'orthorhombic'
loop_
_space_group_symop_operation_xyz
x,y,z
-x,1/2-y,z
x,1/2-y,1/2-z
-x,y,1/2-z
-x,-y,-z
x,1/2+y,-z
-x,1/2+y,1/2+z
x,-y,1/2+z
1/2+x,1/2+y,z
1/2-x,-y,z
1/2+x,-y,1/2-z
1/2-x,1/2+y,1/2-z
1/2-x,1/2-y,-z
1/2+x,y,-z
1/2-x,y,1/2+z
1/2+x,1/2-y,1/2+z
loop_
_atom_site_type_symbol
_atom_site_label
_atom_site_fract_x
_atom_site_fract_y
_atom_site_fract_z
Si Si1 0.353512 0.433012 0.342818
Si Si2 0.688523 0.250000 0.250000
Si Si3 0.151461 0.221802 0.480698
Si Si4 0.913514 0.590495 0.890163
O O1 0.250000 0.500000 0.351473
O O2 0.362723 0.328783 0.293645
O O3 0.393926 0.720563 0.349207
O O4 0.398145 0.211377 0.374406
O O5 0.750000 0.500000 0.261170
O O6 0.107527 0.500307 0.489538
O O7 0.250000 0.250000 0.500000
O O8 0.152128 0.137852 0.430625
O O9 0.000000 0.750000 0.907444
#
# Coordination Sequence:
#
# PCOD9507390 Si02
#       4
#    16   8  16  16
#     4  11  24  42  73  97 134 181 228 276 336 405
#     4  10  20  42  65 106 133 168 232 284 316 386
#     4  10  23  40  63  92 127 168 232 272 333 402
#     4  12  26  43  65 102 140 174 222 285 348 408
#
# _framework density 23.784255000000002
#
# number of rings (size 3 to 8) (size 9 to 14) (size 15 to 20)
#    0.000    1.143    0.000    6.857   12.000    1.143 
#    0.000    4.286    0.000    0.000    0.000    0.000 
#    0.000    0.000    0.000    0.000    0.000    0.000 
#
# Total GULP energy -156031.564875 kJ/mol
# GULP energy per Si atom -5572.555888 kJ/mol
# Density = 2.373012 g / cm^3
# Si number density = 23.784255 Si / 1000 Ang^3
#
#
#
# Elastic Constant Matrix: (Units=GPa)
#
#
# Indices 1 2 3 4 5 6 
#
# 1 89.4600 -5.6474 7.4564 0.0000 0.0000 0.0000
# 2 -5.6474 135.6311 1.8346 0.0000 0.0000 0.0000
# 3 7.4564 1.8346 116.0289 0.0000 0.0000 0.0000
# 4 0.0000 0.0000 0.0000 24.9861 0.0000 0.0000
# 5 0.0000 0.0000 0.0000 0.0000 -8.7590 0.0000
# 6 0.0000 0.0000 0.0000 0.0000 0.0000 24.9992
#
#
#
# Elastic Compliance Matrix: (Units=1/GPa)
#
#
# Indices 1 2 3 4 5 6 
#
# 1 0.011269 0.000479 -0.000732 0.000000 0.000000 0.000000
# 2 0.000479 0.007395 -0.000148 0.000000 0.000000 0.000000
# 3 -0.000732 -0.000148 0.008668 0.000000 0.000000 0.000000
# 4 0.000000 0.000000 0.000000 0.040022 0.000000 0.000000
# 5 0.000000 0.000000 0.000000 0.000000 -0.114169 0.000000
# 6 0.000000 0.000000 0.000000 0.000000 0.000000 0.040001
#
#
# Mechanical properties :
#
#
# Convention : Reuss Voigt Hill
#
# Bulk Modulus (GPa) = 37.69106 38.71189 38.20147
# Shear Modulus (GPa) = 1765.71840 30.74368 898.23104
#
# Velocity S-wave (km/s) = 27.27639 3.59918 19.45450
# Velocity P-wave (km/s) = 31.74718 5.79515 22.81959
#
# Compressibility (1/GPa) = 0.02653149
#
# Stress axis : x y z
#
# Youngs Moduli (GPa) = 88.73568 135.22851 115.36817
#
# Poissons Ratio (x) = -0.06479 0.08442
# Poissons Ratio (y) = -0.04252 0.01704
# Poissons Ratio (z) = 0.06494 0.01998
#
# Static dielectric constant tensor:
#      x y z
#    x 2.001970 0.000000 0.000000 
#    y 0.000000 2.062010 0.000000 
#    z 0.000000 0.000000 1.903510 
# 
# From -- ./inp_files/47936.got.cif
#   From: 2010.05.17/outbox.cif.g08.bks.cpg/sg68_24_cif.got.tgz:47936.got - 2010.06.03 18:57:09.
