data_PCOD9507157
_publ_section_title
;
Structure prediction by ZEFSAII (Michael W. Deem and Ramdas Pophale) SiO2 
 PCOD9507157
Probable space group: C C C A
;
_chemical_formula_sum "Si O2"
_cell_formula_units_Z 76
_cell_length_a 22.920208
_cell_length_b 13.966577
_cell_length_c 12.176852
_cell_angle_alpha 90.000000
_cell_angle_beta 90.000000
_cell_angle_gamma 90.000000
_cell_volume 3898.015504
_symmetry_space_group_name_H-M "C C C A"
_symmetry_group_IT_number 68
_space_group.IT_coordinate_system_code '2'
_symmetry_cell_setting 'orthorhombic'
loop_
_space_group_symop_operation_xyz
x,y,z
-x,1/2-y,z
x,1/2-y,1/2-z
-x,y,1/2-z
-x,-y,-z
x,1/2+y,-z
-x,1/2+y,1/2+z
x,-y,1/2+z
1/2+x,1/2+y,z
1/2-x,-y,z
1/2+x,-y,1/2-z
1/2-x,1/2+y,1/2-z
1/2-x,1/2-y,-z
1/2+x,y,-z
1/2-x,y,1/2+z
1/2+x,1/2-y,1/2+z
loop_
_atom_site_type_symbol
_atom_site_label
_atom_site_fract_x
_atom_site_fract_y
_atom_site_fract_z
Si Si1 0.583428 0.347954 0.027859
Si Si2 0.548402 0.354242 0.546103
Si Si3 0.335019 0.362931 0.267699
Si Si4 0.500000 0.750000 0.250000
Si Si5 0.858400 0.518624 0.452249
Si Si6 0.750000 0.000000 0.394671
O O1 0.611466 0.367814 0.145946
O O2 0.583055 0.234103 0.008636
O O3 0.514988 0.369530 0.008742
O O4 0.624340 0.406484 0.942333
O O5 0.536477 0.318416 0.669394
O O6 0.587827 0.444613 0.525797
O O7 0.323238 0.250000 0.250000
O O8 0.352276 0.422539 0.159408
O O9 0.279556 0.417293 0.321300
O O10 0.801069 0.534230 0.524443
#
# Coordination Sequence:
#
# PCOD9507157 Si02
#       6
#    16  16  16   4  16   8
#     4   9  21  38  61  94 126 153 212 257 313 382
#     4  10  20  39  61  92 126 165 202 257 312 391
#     4  11  22  43  65  92 124 172 213 264 330 366
#     4   8  20  36  56  86 128 154 196 240 320 376
#     4  11  22  41  63  90 126 166 214 264 311 373
#     4  10  26  42  58  94 126 164 224 264 302 382
#
# _framework density 19.497102000000002
#
# number of rings (size 3 to 8) (size 9 to 14) (size 15 to 20)
#    0.000    2.105    2.105    1.263    0.000    8.421 
#    5.684    0.000    0.000    0.000    0.000    0.000 
#    0.000    0.000    0.000    0.000    0.000    0.000 
#
# Total GULP energy -211804.384447 kJ/mol
# GULP energy per Si atom -5573.799591 kJ/mol
# Density = 1.945273 g / cm^3
# Si number density = 19.497102 Si / 1000 Ang^3
#
#
#
# Elastic Constant Matrix: (Units=GPa)
#
#
# Indices 1 2 3 4 5 6 
#
# 1 86.8184 50.3481 49.9436 0.0000 0.0000 0.0000
# 2 50.3481 105.1972 65.1270 0.0000 0.0000 0.0000
# 3 49.9436 65.1270 124.9858 0.0000 0.0000 0.0000
# 4 0.0000 0.0000 0.0000 26.4280 0.0000 0.0000
# 5 0.0000 0.0000 0.0000 0.0000 22.0357 0.0000
# 6 0.0000 0.0000 0.0000 0.0000 0.0000 37.1935
#
#
#
# Elastic Compliance Matrix: (Units=1/GPa)
#
#
# Indices 1 2 3 4 5 6 
#
# 1 0.017077 -0.005829 -0.003787 0.000000 0.000000 0.000000
# 2 -0.005829 0.016022 -0.006020 0.000000 0.000000 0.000000
# 3 -0.003787 -0.006020 0.012651 0.000000 0.000000 0.000000
# 4 0.000000 0.000000 0.000000 0.037839 0.000000 0.000000
# 5 0.000000 0.000000 0.000000 0.000000 0.045381 0.000000
# 6 0.000000 0.000000 0.000000 0.000000 0.000000 0.026886
#
#
# Mechanical properties :
#
#
# Convention : Reuss Voigt Hill
#
# Bulk Modulus (GPa) = 69.06185 71.98209 70.52197
# Shear Modulus (GPa) = 26.04806 27.23696 26.64251
#
# Velocity S-wave (km/s) = 3.65909 3.74167 3.70061
# Velocity P-wave (km/s) = 7.30414 7.46098 7.38298
#
# Compressibility (1/GPa) = 0.01447977
#
# Stress axis : x y z
#
# Youngs Moduli (GPa) = 58.55879 62.41228 79.04696
#
# Poissons Ratio (x) = 0.36379 0.29931
# Poissons Ratio (y) = 0.34133 0.47584
# Poissons Ratio (z) = 0.22173 0.37570
#
# Static dielectric constant tensor:
#      x y z
#    x 1.659420 0.000000 0.000000 
#    y 0.000000 1.707030 0.000000 
#    z 0.000000 0.000000 1.682110 
# 
# From -- ./inp_files/16251.got.cif
#   From: 2010.05.17/outbox.cif.g08.bks.cpg/sg68_9_cif.got.tgz:16251.got - 2010.06.03 18:57:09.
