data_PCOD9507250
_publ_section_title
;
Structure prediction by ZEFSAII (Michael W. Deem and Ramdas Pophale) SiO2 
 PCOD9507250
Probable space group: C C C A
;
_chemical_formula_sum "Si O2"
_cell_formula_units_Z 116
_cell_length_a 23.090517
_cell_length_b 19.194674
_cell_length_c 13.422140
_cell_angle_alpha 90.000000
_cell_angle_beta 90.000000
_cell_angle_gamma 90.000000
_cell_volume 5948.893059
_symmetry_space_group_name_H-M "C C C A"
_symmetry_group_IT_number 68
_space_group.IT_coordinate_system_code '2'
_symmetry_cell_setting 'orthorhombic'
loop_
_space_group_symop_operation_xyz
x,y,z
-x,1/2-y,z
x,1/2-y,1/2-z
-x,y,1/2-z
-x,-y,-z
x,1/2+y,-z
-x,1/2+y,1/2+z
x,-y,1/2+z
1/2+x,1/2+y,z
1/2-x,-y,z
1/2+x,-y,1/2-z
1/2-x,1/2+y,1/2-z
1/2-x,1/2-y,-z
1/2+x,y,-z
1/2-x,y,1/2+z
1/2+x,1/2-y,1/2+z
loop_
_atom_site_type_symbol
_atom_site_label
_atom_site_fract_x
_atom_site_fract_y
_atom_site_fract_z
Si Si1 0.834863 0.391838 0.730896
Si Si2 0.944404 0.575130 0.924929
Si Si3 0.385775 0.536747 0.260409
Si Si4 0.607198 0.700282 0.881685
Si Si5 0.227494 0.427464 0.131012
Si Si6 0.000000 0.750000 0.250000
Si Si7 0.341718 0.837546 0.515738
Si Si8 0.422473 0.426325 0.976118
O O1 0.882947 0.452943 0.736355
O O2 0.856584 0.323699 0.786318
O O3 0.778204 0.412308 0.791453
O O4 0.825042 0.378312 0.615806
O O5 0.937500 0.565744 0.806896
O O6 0.010020 0.589146 0.954800
O O7 0.900650 0.632137 0.967753
O O8 0.922982 0.501487 0.970723
O O9 0.328970 0.557378 0.197904
O O10 0.389353 0.565931 0.371491
O O11 0.544772 0.715173 0.829756
O O12 0.639295 0.761037 0.944726
O O13 0.602447 0.633354 0.953746
O O14 0.250000 0.500000 0.078732
O O15 0.208954 0.362222 0.061108
#
# Coordination Sequence:
#
# PCOD9507250 Si02
#       8
#    16  16  16  16  16   4  16  16
#     4  11  21  40  63  93 126 169 216 275 323 385
#     4  10  21  37  60  91 126 171 214 264 330 392
#     4  10  20  40  61  94 128 163 221 275 320 388
#     4  12  25  39  65  97 131 171 220 270 338 395
#     4   9  23  40  67  94 127 175 222 269 330 390
#     4  12  24  44  64  92 142 180 208 278 330 416
#     4  11  22  43  62  93 134 170 216 272 333 403
#     4  11  22  36  63  94 127 169 217 274 323 388
#
# _framework density 19.499426
#
# number of rings (size 3 to 8) (size 9 to 14) (size 15 to 20)
#    0.000    1.379    4.138    1.241    0.000    3.310 
#    0.000    4.138    0.000    3.310    0.000    0.000 
#    0.000    0.000    0.000    0.000    0.000    0.000 
#
# Total GULP energy -323209.390481 kJ/mol
# GULP energy per Si atom -5572.575698 kJ/mol
# Density = 1.945504 g / cm^3
# Si number density = 19.499426 Si / 1000 Ang^3
#
#
#
# Elastic Constant Matrix: (Units=GPa)
#
#
# Indices 1 2 3 4 5 6 
#
# 1 27.0686 -7.3438 5.8047 0.0000 0.0000 0.0000
# 2 -7.3438 51.2529 21.9440 0.0000 0.0000 0.0000
# 3 5.8047 21.9440 107.4863 0.0000 0.0000 0.0000
# 4 0.0000 0.0000 0.0000 32.9078 0.0000 0.0000
# 5 0.0000 0.0000 0.0000 0.0000 27.6794 0.0000
# 6 0.0000 0.0000 0.0000 0.0000 0.0000 17.0878
#
#
#
# Elastic Compliance Matrix: (Units=1/GPa)
#
#
# Indices 1 2 3 4 5 6 
#
# 1 0.039683 0.007236 -0.003620 0.000000 0.000000 0.000000
# 2 0.007236 0.022699 -0.005025 0.000000 0.000000 0.000000
# 3 -0.003620 -0.005025 0.010525 0.000000 0.000000 0.000000
# 4 0.000000 0.000000 0.000000 0.030388 0.000000 0.000000
# 5 0.000000 0.000000 0.000000 0.000000 0.036128 0.000000
# 6 0.000000 0.000000 0.000000 0.000000 0.000000 0.058521
#
#
# Mechanical properties :
#
#
# Convention : Reuss Voigt Hill
#
# Bulk Modulus (GPa) = 14.26772 25.17976 19.72374
# Shear Modulus (GPa) = 22.30892 26.56185 24.43538
#
# Velocity S-wave (km/s) = 3.38610 3.69478 3.54380
# Velocity P-wave (km/s) = 4.75609 5.58059 5.18476
#
# Compressibility (1/GPa) = 0.07008828
#
# Stress axis : x y z
#
# Youngs Moduli (GPa) = 25.19991 44.05411 95.01271
#
# Poissons Ratio (x) = -0.31877 0.34398
# Poissons Ratio (y) = -0.18235 0.47744
# Poissons Ratio (z) = 0.09123 0.22137
#
# Static dielectric constant tensor:
#      x y z
#    x 1.732810 0.000000 0.000000 
#    y 0.000000 1.756350 0.000000 
#    z 0.000000 0.000000 1.680540 
# 
# From -- ./inp_files/17237.got.cif
#   From: 2010.05.17/outbox.cif.g08.bks.cpg/sg68_9_cif.got.tgz:17237.got - 2010.06.03 18:57:09.
