data_PCOD9507466
_publ_section_title
;
Structure prediction by ZEFSAII (Michael W. Deem and Ramdas Pophale) SiO2 
 PCOD9507466
Probable space group: C C C A
;
_chemical_formula_sum "Si O2"
_cell_formula_units_Z 84
_cell_length_a 25.521607
_cell_length_b 8.105604
_cell_length_c 20.727749
_cell_angle_alpha 90.000000
_cell_angle_beta 90.000000
_cell_angle_gamma 90.000000
_cell_volume 4287.908805
_symmetry_space_group_name_H-M "C C C A"
_symmetry_group_IT_number 68
_space_group.IT_coordinate_system_code '2'
_symmetry_cell_setting 'orthorhombic'
loop_
_space_group_symop_operation_xyz
x,y,z
-x,1/2-y,z
x,1/2-y,1/2-z
-x,y,1/2-z
-x,-y,-z
x,1/2+y,-z
-x,1/2+y,1/2+z
x,-y,1/2+z
1/2+x,1/2+y,z
1/2-x,-y,z
1/2+x,-y,1/2-z
1/2-x,1/2+y,1/2-z
1/2-x,1/2-y,-z
1/2+x,y,-z
1/2-x,y,1/2+z
1/2+x,1/2-y,1/2+z
loop_
_atom_site_type_symbol
_atom_site_label
_atom_site_fract_x
_atom_site_fract_y
_atom_site_fract_z
Si Si1 0.252872 0.750000 0.250000
Si Si2 0.000000 0.750000 0.750000
Si Si3 0.906792 0.921972 0.818206
Si Si4 0.840174 0.038972 0.929820
Si Si5 0.349769 0.427916 0.691427
Si Si6 0.308809 0.415607 0.064513
Si Si7 0.750000 0.500000 0.150574
O O1 0.292518 0.874016 0.284916
O O2 0.225876 0.643625 0.304704
O O3 0.964953 0.869545 0.795776
O O4 0.879957 0.999559 0.753804
O O5 0.880085 0.740929 0.825064
O O6 0.890821 0.021852 0.882938
O O7 0.812391 0.217523 0.935524
O O8 0.796340 0.930598 0.892451
O O9 0.841954 0.973931 0.002201
O O10 0.339659 0.532864 0.628745
O O11 0.250000 0.500000 0.062532
#
# Coordination Sequence:
#
# PCOD9507466 Si02
#       7
#     8   4  16  16  16  16   8
#     4  10  21  32  50  75 112 151 204 245 286 344
#     4   8  18  40  76  94 112 152 208 270 348 378
#     4   9  19  39  65  89 114 149 200 265 316 379
#     4  12  24  36  55  81 125 163 212 247 303 360
#     4   9  18  36  53  79 113 151 194 247 300 353
#     4  12  25  35  54  82 126 178 208 240 289 369
#     4  12  22  34  50  80 116 160 198 248 292 366
#
# _framework density 19.589969
#
# number of rings (size 3 to 8) (size 9 to 14) (size 15 to 20)
#    0.000    1.905    4.762    2.857    4.000    0.762 
#    0.000    0.000    0.000   19.429    0.000    0.000 
#    0.000    0.000    0.000    0.000    0.000    0.000 
#
# Total GULP energy -233903.770820 kJ/mol
# GULP energy per Si atom -5569.137400 kJ/mol
# Density = 1.954538 g / cm^3
# Si number density = 19.589969 Si / 1000 Ang^3
#
#
#
# Elastic Constant Matrix: (Units=GPa)
#
#
# Indices 1 2 3 4 5 6 
#
# 1 84.5684 23.1757 33.2700 0.0000 0.0000 0.0000
# 2 23.1757 57.2085 43.7956 0.0000 0.0000 0.0000
# 3 33.2700 43.7956 146.3581 0.0000 0.0000 0.0000
# 4 0.0000 0.0000 0.0000 27.3902 0.0000 0.0000
# 5 0.0000 0.0000 0.0000 0.0000 -59.6934 0.0000
# 6 0.0000 0.0000 0.0000 0.0000 0.0000 17.3472
#
#
#
# Elastic Compliance Matrix: (Units=1/GPa)
#
#
# Indices 1 2 3 4 5 6 
#
# 1 0.013691 -0.004104 -0.001884 0.000000 0.000000 0.000000
# 2 -0.004104 0.023904 -0.006220 0.000000 0.000000 0.000000
# 3 -0.001884 -0.006220 0.009122 0.000000 0.000000 0.000000
# 4 0.000000 0.000000 0.000000 0.036509 0.000000 0.000000
# 5 0.000000 0.000000 0.000000 0.000000 -0.016752 0.000000
# 6 0.000000 0.000000 0.000000 0.000000 0.000000 0.057646
#
#
# Mechanical properties :
#
#
# Convention : Reuss Voigt Hill
#
# Bulk Modulus (GPa) = 44.84139 54.29084 49.56612
# Shear Modulus (GPa) = 32.05745 9.53505 20.79625
#
# Velocity S-wave (km/s) = 4.04966 2.20859 3.26172
# Velocity P-wave (km/s) = 6.69373 5.85471 6.28823
#
# Compressibility (1/GPa) = 0.02230082
#
# Stress axis : x y z
#
# Youngs Moduli (GPa) = 73.04269 41.83371 109.62345
#
# Poissons Ratio (x) = 0.17168 0.20655
# Poissons Ratio (y) = 0.29975 0.68187
# Poissons Ratio (z) = 0.13762 0.26021
#
# Static dielectric constant tensor:
#      x y z
#    x 1.704110 0.000000 0.000000 
#    y 0.000000 1.729720 0.000000 
#    z 0.000000 0.000000 1.769560 
# 
# From -- ./inp_files/41198.got.cif
#   From: 2010.05.17/outbox.cif.g08.bks.cpg/sg68_21_cif.got.tgz:41198.got - 2010.06.03 18:57:09.
