data_PCOD9507939
_publ_section_title
;
Structure prediction by ZEFSAII (Michael W. Deem and Ramdas Pophale) SiO2 
 PCOD9507939
Probable space group: C C C A
;
_chemical_formula_sum "Si O2"
_cell_formula_units_Z 80
_cell_length_a 11.792355
_cell_length_b 16.287275
_cell_length_c 20.288170
_cell_angle_alpha 90.000000
_cell_angle_beta 90.000000
_cell_angle_gamma 90.000000
_cell_volume 3896.654041
_symmetry_space_group_name_H-M "C C C A"
_symmetry_group_IT_number 68
_space_group.IT_coordinate_system_code '2'
_symmetry_cell_setting 'orthorhombic'
loop_
_space_group_symop_operation_xyz
x,y,z
-x,1/2-y,z
x,1/2-y,1/2-z
-x,y,1/2-z
-x,-y,-z
x,1/2+y,-z
-x,1/2+y,1/2+z
x,-y,1/2+z
1/2+x,1/2+y,z
1/2-x,-y,z
1/2+x,-y,1/2-z
1/2-x,1/2+y,1/2-z
1/2-x,1/2-y,-z
1/2+x,y,-z
1/2-x,y,1/2+z
1/2+x,1/2-y,1/2+z
loop_
_atom_site_type_symbol
_atom_site_label
_atom_site_fract_x
_atom_site_fract_y
_atom_site_fract_z
Si Si1 0.889268 0.191138 0.821690
Si Si2 0.504365 0.580505 0.579610
Si Si3 0.297066 0.300479 0.062659
Si Si4 0.804571 0.250000 0.250000
Si Si5 0.582515 0.402142 0.936630
Si Si6 0.500000 0.250000 0.639869
O O1 0.821865 0.235730 0.880393
O O2 0.793135 0.180838 0.765245
O O3 0.000000 0.250000 0.811562
O O4 0.937950 0.108970 0.853060
O O5 0.412016 0.648008 0.556739
O O6 0.453073 0.490756 0.589121
O O7 0.585021 0.583789 0.515722
O O8 0.204730 0.368063 0.082115
O O9 0.250000 0.250000 0.000000
O O10 0.891128 0.255282 0.311427
O O11 0.501125 0.330361 0.907241
#
# Coordination Sequence:
#
# PCOD9507939 Si02
#       6
#    16  16  16   8  16   8
#     4  10  21  39  65  90 123 169 223 265 319 389
#     4  10  23  35  62 101 131 164 206 278 346 391
#     4  11  19  35  62  92 129 170 212 259 337 399
#     4  11  23  42  66  90 121 181 234 262 304 403
#     4  11  21  39  61  97 135 160 214 276 340 401
#     4  11  24  40  70  90 128 177 226 262 328 397
#
# _framework density 20.530434
#
# number of rings (size 3 to 8) (size 9 to 14) (size 15 to 20)
#    0.000    1.400    4.000    2.100    1.400    0.000 
#    0.000    1.000   26.400    0.000    0.000    0.000 
#    0.000    0.000    0.000    0.000    0.000    0.000 
#
# Total GULP energy -222705.629786 kJ/mol
# GULP energy per Si atom -5567.640745 kJ/mol
# Density = 2.048371 g / cm^3
# Si number density = 20.530434 Si / 1000 Ang^3
#
#
#
# Elastic Constant Matrix: (Units=GPa)
#
#
# Indices 1 2 3 4 5 6 
#
# 1 98.8463 11.4825 26.5720 0.0000 0.0000 0.0000
# 2 11.4825 93.1766 17.3975 0.0000 0.0000 0.0000
# 3 26.5720 17.3975 65.7102 0.0000 0.0000 0.0000
# 4 0.0000 0.0000 0.0000 3.5042 0.0000 0.0000
# 5 0.0000 0.0000 0.0000 0.0000 44.8325 0.0000
# 6 0.0000 0.0000 0.0000 0.0000 0.0000 26.9065
#
#
#
# Elastic Compliance Matrix: (Units=1/GPa)
#
#
# Indices 1 2 3 4 5 6 
#
# 1 0.011379 -0.000571 -0.004450 0.000000 0.000000 0.000000
# 2 -0.000571 0.011319 -0.002766 0.000000 0.000000 0.000000
# 3 -0.004450 -0.002766 0.017750 0.000000 0.000000 0.000000
# 4 0.000000 0.000000 0.000000 0.285368 0.000000 0.000000
# 5 0.000000 0.000000 0.000000 0.000000 0.022305 0.000000
# 6 0.000000 0.000000 0.000000 0.000000 0.000000 0.037166
#
#
# Mechanical properties :
#
#
# Convention : Reuss Voigt Hill
#
# Bulk Modulus (GPa) = 40.20303 40.95967 40.58135
# Shear Modulus (GPa) = 12.22033 28.53404 20.37719
#
# Velocity S-wave (km/s) = 2.44238 3.73210 3.15387
# Velocity P-wave (km/s) = 5.25151 6.21011 5.75082
#
# Compressibility (1/GPa) = 0.02487375
#
# Stress axis : x y z
#
# Youngs Moduli (GPa) = 87.87778 88.34595 56.33723
#
# Poissons Ratio (x) = 0.05048 0.25072
# Poissons Ratio (y) = 0.05021 0.15582
# Poissons Ratio (z) = 0.39109 0.24435
#
# Static dielectric constant tensor:
#      x y z
#    x 1.756070 0.000000 0.000000 
#    y 0.000000 1.729710 0.000000 
#    z 0.000000 0.000000 1.833590 
# 
# From -- ./inp_files/37388.got.cif
#   From: 2010.05.17/outbox.cif.g08.bks.cpg/sg68_19_cif.got.tgz:37388.got - 2010.06.03 18:57:09.
