data_PCOD9507665
_publ_section_title
;
Structure prediction by ZEFSAII (Michael W. Deem and Ramdas Pophale) SiO2 
 PCOD9507665
Probable space group: C C C A
;
_chemical_formula_sum "Si O2"
_cell_formula_units_Z 96
_cell_length_a 19.397397
_cell_length_b 11.551962
_cell_length_c 19.205436
_cell_angle_alpha 90.000000
_cell_angle_beta 90.000000
_cell_angle_gamma 90.000000
_cell_volume 4303.515554
_symmetry_space_group_name_H-M "C C C A"
_symmetry_group_IT_number 68
_space_group.IT_coordinate_system_code '2'
_symmetry_cell_setting 'orthorhombic'
loop_
_space_group_symop_operation_xyz
x,y,z
-x,1/2-y,z
x,1/2-y,1/2-z
-x,y,1/2-z
-x,-y,-z
x,1/2+y,-z
-x,1/2+y,1/2+z
x,-y,1/2+z
1/2+x,1/2+y,z
1/2-x,-y,z
1/2+x,-y,1/2-z
1/2-x,1/2+y,1/2-z
1/2-x,1/2-y,-z
1/2+x,y,-z
1/2-x,y,1/2+z
1/2+x,1/2-y,1/2+z
loop_
_atom_site_type_symbol
_atom_site_label
_atom_site_fract_x
_atom_site_fract_y
_atom_site_fract_z
Si Si1 0.823366 0.049417 0.346293
Si Si2 0.646210 0.393181 0.874273
Si Si3 0.122088 0.307857 0.473583
Si Si4 0.899941 0.674364 0.183351
Si Si5 0.849798 0.250000 0.250000
Si Si6 0.191975 0.356504 0.609250
Si Si7 0.000000 0.250000 0.568919
O O1 0.866116 0.103897 0.410240
O O2 0.809034 0.153743 0.293117
O O3 0.750000 0.000000 0.370384
O O4 0.868184 0.952335 0.306660
O O5 0.622928 0.321981 0.942030
O O6 0.612279 0.327149 0.808704
O O7 0.729111 0.374256 0.870690
O O8 0.643915 0.531114 0.876435
O O9 0.183878 0.329247 0.527726
O O10 0.053117 0.317356 0.519278
O O11 0.922348 0.750000 0.250000
O O12 0.838689 0.750262 0.150776
O O13 0.956822 0.670517 0.122323
#
# Coordination Sequence:
#
# PCOD9507665 Si02
#       7
#    16  16  16  16   8  16   8
#     4  11  25  39  73 101 141 174 211 290 342 424
#     4  10  21  37  61  90 134 169 213 274 335 412
#     4  10  23  42  61  97 127 176 229 270 341 391
#     4  11  23  42  66 101 132 177 226 275 340 398
#     4  10  22  40  58  99 134 175 214 254 352 412
#     4  10  22  34  63  95 130 170 210 284 336 406
#     4  10  25  46  68  89 134 184 238 286 314 395
#
# _framework density 22.307342999999999
#
# number of rings (size 3 to 8) (size 9 to 14) (size 15 to 20)
#    0.000    1.667    0.000    3.750   14.000    0.667 
#    3.000    0.000    3.667    4.500    0.000    0.000 
#    0.000    0.000    0.000    0.000    0.000    0.000 
#
# Total GULP energy -267922.839306 kJ/mol
# GULP energy per Si atom -5581.725819 kJ/mol
# Density = 2.225657 g / cm^3
# Si number density = 22.307343 Si / 1000 Ang^3
#
#
#
# Elastic Constant Matrix: (Units=GPa)
#
#
# Indices 1 2 3 4 5 6 
#
# 1 70.5037 28.0053 26.7490 0.0000 0.0000 0.0000
# 2 28.0053 133.7890 46.3209 0.0000 0.0000 0.0000
# 3 26.7490 46.3209 130.6005 0.0000 0.0000 0.0000
# 4 0.0000 0.0000 0.0000 20.0688 0.0000 0.0000
# 5 0.0000 0.0000 0.0000 0.0000 -24.3060 0.0000
# 6 0.0000 0.0000 0.0000 0.0000 0.0000 12.3334
#
#
#
# Elastic Compliance Matrix: (Units=1/GPa)
#
#
# Indices 1 2 3 4 5 6 
#
# 1 0.016102 -0.002541 -0.002397 0.000000 0.000000 0.000000
# 2 -0.002541 0.008922 -0.002644 0.000000 0.000000 0.000000
# 3 -0.002397 -0.002644 0.009086 0.000000 0.000000 0.000000
# 4 0.000000 0.000000 0.000000 0.049828 0.000000 0.000000
# 5 0.000000 0.000000 0.000000 0.000000 -0.041142 0.000000
# 6 0.000000 0.000000 0.000000 0.000000 0.000000 0.081081
#
#
# Mechanical properties :
#
#
# Convention : Reuss Voigt Hill
#
# Bulk Modulus (GPa) = 52.78025 59.67151 56.22588
# Shear Modulus (GPa) = 34.39851 17.20710 25.80281
#
# Velocity S-wave (km/s) = 3.93112 2.78036 3.40471
# Velocity P-wave (km/s) = 6.65709 6.09221 6.38090
#
# Compressibility (1/GPa) = 0.01894648
#
# Stress axis : x y z
#
# Youngs Moduli (GPa) = 62.10312 112.08639 110.06442
#
# Poissons Ratio (x) = 0.28478 0.26381
# Poissons Ratio (y) = 0.15779 0.29100
# Poissons Ratio (z) = 0.14885 0.29635
#
# Static dielectric constant tensor:
#      x y z
#    x 1.827950 0.000000 0.000000 
#    y 0.000000 1.823330 0.000000 
#    z 0.000000 0.000000 1.872530 
# 
# From -- ./inp_files/33591.got.cif
#   From: 2010.05.17/outbox.cif.g08.bks.cpg/sg68_17_cif.got.tgz:33591.got - 2010.06.03 18:57:09.
