data_PCOD9507268
_publ_section_title
;
Structure prediction by ZEFSAII (Michael W. Deem and Ramdas Pophale) SiO2 
 PCOD9507268
Probable space group: C C C A
;
_chemical_formula_sum "Si O2"
_cell_formula_units_Z 52
_cell_length_a 18.458245
_cell_length_b 22.911632
_cell_length_c 5.492239
_cell_angle_alpha 90.000000
_cell_angle_beta 90.000000
_cell_angle_gamma 90.000000
_cell_volume 2322.714649
_symmetry_space_group_name_H-M "C C C A"
_symmetry_group_IT_number 68
_space_group.IT_coordinate_system_code '2'
_symmetry_cell_setting 'orthorhombic'
loop_
_space_group_symop_operation_xyz
x,y,z
-x,1/2-y,z
x,1/2-y,1/2-z
-x,y,1/2-z
-x,-y,-z
x,1/2+y,-z
-x,1/2+y,1/2+z
x,-y,1/2+z
1/2+x,1/2+y,z
1/2-x,-y,z
1/2+x,-y,1/2-z
1/2-x,1/2+y,1/2-z
1/2-x,1/2-y,-z
1/2+x,y,-z
1/2-x,y,1/2+z
1/2+x,1/2-y,1/2+z
loop_
_atom_site_type_symbol
_atom_site_label
_atom_site_fract_x
_atom_site_fract_y
_atom_site_fract_z
Si Si1 0.582848 0.476839 0.472244
Si Si2 0.069534 0.345303 0.423794
Si Si3 0.500000 0.750000 0.750000
Si Si4 0.773748 0.316583 0.069865
O O1 0.500000 0.500000 0.500000
O O2 0.616510 0.493714 0.733435
O O3 0.579422 0.407446 0.447685
O O4 0.146417 0.325863 0.315800
O O5 0.000000 0.352203 0.250000
O O6 0.049671 0.292243 0.595873
O O7 0.725614 0.341835 0.292469
O O8 0.750000 0.250000 0.000000
#
# Coordination Sequence:
#
# PCOD9507268 Si02
#       4
#    16  16   4  16
#     4  10  20  40  64 100 133 173 225 305 360 388
#     4  12  26  40  72 104 140 186 242 300 345 417
#     4  12  26  36  60 110 144 168 240 298 338 412
#     4  10  24  44  63  89 140 193 222 269 353 425
#
# _framework density 22.387599000000002
#
# number of rings (size 3 to 8) (size 9 to 14) (size 15 to 20)
#    0.000    1.231    3.077    4.154   12.923    0.000 
#    0.000    0.000    0.000    5.538    0.000    0.000 
#    0.000    0.000    0.000    0.000    0.000    0.000 
#
# Total GULP energy -144906.883599 kJ/mol
# GULP energy per Si atom -5573.341677 kJ/mol
# Density = 2.233664 g / cm^3
# Si number density = 22.387599 Si / 1000 Ang^3
#
#
#
# Elastic Constant Matrix: (Units=GPa)
#
#
# Indices 1 2 3 4 5 6 
#
# 1 88.8934 13.3585 -0.5345 0.0000 0.0000 0.0000
# 2 13.3585 138.8450 17.9563 0.0000 0.0000 0.0000
# 3 -0.5345 17.9563 164.4603 0.0000 0.0000 0.0000
# 4 0.0000 0.0000 0.0000 43.5746 0.0000 0.0000
# 5 0.0000 0.0000 0.0000 0.0000 32.9395 0.0000
# 6 0.0000 0.0000 0.0000 0.0000 0.0000 13.8028
#
#
#
# Elastic Compliance Matrix: (Units=1/GPa)
#
#
# Indices 1 2 3 4 5 6 
#
# 1 0.011419 -0.001119 0.000159 0.000000 0.000000 0.000000
# 2 -0.001119 0.007415 -0.000813 0.000000 0.000000 0.000000
# 3 0.000159 -0.000813 0.006170 0.000000 0.000000 0.000000
# 4 0.000000 0.000000 0.000000 0.022949 0.000000 0.000000
# 5 0.000000 0.000000 0.000000 0.000000 0.030359 0.000000
# 6 0.000000 0.000000 0.000000 0.000000 0.000000 0.072449
#
#
# Mechanical properties :
#
#
# Convention : Reuss Voigt Hill
#
# Bulk Modulus (GPa) = 46.60433 50.41770 48.51101
# Shear Modulus (GPa) = 30.96759 42.15795 36.56277
#
# Velocity S-wave (km/s) = 3.72324 4.34417 4.04563
# Velocity P-wave (km/s) = 6.27260 6.90881 6.59838
#
# Compressibility (1/GPa) = 0.02145723
#
# Stress axis : x y z
#
# Youngs Moduli (GPa) = 87.57662 134.85940 162.07970
#
# Poissons Ratio (x) = 0.15093 -0.02582
# Poissons Ratio (y) = 0.09802 0.13181
# Poissons Ratio (z) = -0.01395 0.10967
#
# Static dielectric constant tensor:
#      x y z
#    x 2.329360 0.000000 0.000000 
#    y 0.000000 1.864810 0.000000 
#    z 0.000000 0.000000 2.044340 
# 
# From -- ./inp_files/1284.got.cif
#   From: 2010.05.17/outbox.cif.g08.bks.cpg/sg68_1_cif.got.tgz:1284.got - 2010.06.03 18:57:09.
