data_PCOD9507811
_publ_section_title
;
Structure prediction by ZEFSAII (Michael W. Deem and Ramdas Pophale) SiO2 
 PCOD9507811
Probable space group: C C C A
;
_chemical_formula_sum "Si O2"
_cell_formula_units_Z 88
_cell_length_a 17.457497
_cell_length_b 15.844930
_cell_length_c 14.716207
_cell_angle_alpha 90.000000
_cell_angle_beta 90.000000
_cell_angle_gamma 90.000000
_cell_volume 4070.691488
_symmetry_space_group_name_H-M "C C C A"
_symmetry_group_IT_number 68
_space_group.IT_coordinate_system_code '2'
_symmetry_cell_setting 'orthorhombic'
loop_
_space_group_symop_operation_xyz
x,y,z
-x,1/2-y,z
x,1/2-y,1/2-z
-x,y,1/2-z
-x,-y,-z
x,1/2+y,-z
-x,1/2+y,1/2+z
x,-y,1/2+z
1/2+x,1/2+y,z
1/2-x,-y,z
1/2+x,-y,1/2-z
1/2-x,1/2+y,1/2-z
1/2-x,1/2-y,-z
1/2+x,y,-z
1/2-x,y,1/2+z
1/2+x,1/2-y,1/2+z
loop_
_atom_site_type_symbol
_atom_site_label
_atom_site_fract_x
_atom_site_fract_y
_atom_site_fract_z
Si Si1 0.051496 0.573227 0.831720
Si Si2 0.303081 0.250000 0.250000
Si Si3 0.923925 0.402683 0.481485
Si Si4 0.432717 0.624884 0.816772
Si Si5 0.770596 0.678432 0.927975
Si Si6 0.181009 0.553507 0.947459
O O1 0.073539 0.476799 0.803141
O O2 0.131788 0.606815 0.873957
O O3 0.000000 0.610685 0.750000
O O4 0.991971 0.575596 0.914715
O O5 0.357323 0.177771 0.206188
O O6 0.254406 0.293112 0.170995
O O7 0.951516 0.363264 0.576856
O O8 0.859672 0.344743 0.435122
O O9 0.877935 0.486641 0.510142
O O10 0.500000 0.652778 0.750000
O O11 0.750000 0.750000 0.000000
O O12 0.719757 0.602328 0.969255
O O13 0.250000 0.500000 0.902361
#
# Coordination Sequence:
#
# PCOD9507811 Si02
#       6
#    16   8  16  16  16  16
#     4  10  22  39  66  97 133 167 220 274 332 403
#     4  12  25  38  68  98 139 174 222 280 348 411
#     4  10  21  44  65  92 134 175 216 280 336 397
#     4  10  21  38  64  99 128 165 219 275 335 400
#     4  11  24  43  63  95 134 177 224 277 338 405
#     4   9  20  39  67  92 127 174 221 273 331 391
#
# _framework density 21.61795
#
# number of rings (size 3 to 8) (size 9 to 14) (size 15 to 20)
#    0.000    1.818    1.818    2.455    7.636    1.455 
#    0.000    0.909    0.000    1.091    0.000    0.000 
#    0.000    0.000    0.000    0.000    0.000    0.000 
#
# Total GULP energy -245584.500102 kJ/mol
# GULP energy per Si atom -5581.465911 kJ/mol
# Density = 2.156875 g / cm^3
# Si number density = 21.617950 Si / 1000 Ang^3
#
#
#
# Elastic Constant Matrix: (Units=GPa)
#
#
# Indices 1 2 3 4 5 6 
#
# 1 131.1190 22.7310 62.8665 0.0000 0.0000 0.0000
# 2 22.7310 49.4616 19.2161 0.0000 0.0000 0.0000
# 3 62.8665 19.2161 140.0980 0.0000 0.0000 0.0000
# 4 0.0000 0.0000 0.0000 23.5003 0.0000 0.0000
# 5 0.0000 0.0000 0.0000 0.0000 18.1345 0.0000
# 6 0.0000 0.0000 0.0000 0.0000 0.0000 13.7549
#
#
#
# Elastic Compliance Matrix: (Units=1/GPa)
#
#
# Indices 1 2 3 4 5 6 
#
# 1 0.010136 -0.003054 -0.004129 0.000000 0.000000 0.000000
# 2 -0.003054 0.022276 -0.001685 0.000000 0.000000 0.000000
# 3 -0.004129 -0.001685 0.009222 0.000000 0.000000 0.000000
# 4 0.000000 0.000000 0.000000 0.042553 0.000000 0.000000
# 5 0.000000 0.000000 0.000000 0.000000 0.055143 0.000000
# 6 0.000000 0.000000 0.000000 0.000000 0.000000 0.072701
#
#
# Mechanical properties :
#
#
# Convention : Reuss Voigt Hill
#
# Bulk Modulus (GPa) = 41.84612 58.92287 50.38449
# Shear Modulus (GPa) = 21.03194 25.46895 23.25044
#
# Velocity S-wave (km/s) = 3.12251 3.43613 3.28306
# Velocity P-wave (km/s) = 5.69203 6.56188 6.14237
#
# Compressibility (1/GPa) = 0.02389708
#
# Stress axis : x y z
#
# Youngs Moduli (GPa) = 98.65813 44.89180 108.43615
#
# Poissons Ratio (x) = 0.13709 0.44779
# Poissons Ratio (y) = 0.30129 0.18272
# Poissons Ratio (z) = 0.40741 0.07564
#
# Static dielectric constant tensor:
#      x y z
#    x 1.781800 0.000000 0.000000 
#    y 0.000000 1.922310 0.000000 
#    z 0.000000 0.000000 1.812010 
# 
# From -- ./inp_files/23623.got.cif
#   From: 2010.05.17/outbox.cif.g08.bks.cpg/sg68_12_cif.got.tgz:23623.got - 2010.06.03 18:57:09.
