data_PCOD9507685
_publ_section_title
;
Structure prediction by ZEFSAII (Michael W. Deem and Ramdas Pophale) SiO2 
 PCOD9507685
Probable space group: C C C A
;
_chemical_formula_sum "Si O2"
_cell_formula_units_Z 96
_cell_length_a 19.048751
_cell_length_b 12.813742
_cell_length_c 16.787062
_cell_angle_alpha 90.000000
_cell_angle_beta 90.000000
_cell_angle_gamma 90.000000
_cell_volume 4097.483135
_symmetry_space_group_name_H-M "C C C A"
_symmetry_group_IT_number 68
_space_group.IT_coordinate_system_code '2'
_symmetry_cell_setting 'orthorhombic'
loop_
_space_group_symop_operation_xyz
x,y,z
-x,1/2-y,z
x,1/2-y,1/2-z
-x,y,1/2-z
-x,-y,-z
x,1/2+y,-z
-x,1/2+y,1/2+z
x,-y,1/2+z
1/2+x,1/2+y,z
1/2-x,-y,z
1/2+x,-y,1/2-z
1/2-x,1/2+y,1/2-z
1/2-x,1/2-y,-z
1/2+x,y,-z
1/2-x,y,1/2+z
1/2+x,1/2-y,1/2+z
loop_
_atom_site_type_symbol
_atom_site_label
_atom_site_fract_x
_atom_site_fract_y
_atom_site_fract_z
Si Si1 0.744091 0.841565 0.137704
Si Si2 0.113725 0.951994 0.544706
Si Si3 0.873375 0.715146 0.978596
Si Si4 0.349354 0.510430 0.705715
Si Si5 0.327275 0.630705 0.867780
Si Si6 0.034910 0.438522 0.103359
O O1 0.695387 0.840143 0.059423
O O2 0.811289 0.917543 0.138423
O O3 0.770023 0.722068 0.147045
O O4 0.696062 0.902278 0.204102
O O5 0.138598 0.836206 0.531194
O O6 0.047925 0.948981 0.605872
O O7 0.174622 0.024103 0.580099
O O8 0.073055 0.994350 0.466833
O O9 0.937708 0.674648 0.925333
O O10 0.881867 0.688985 0.071912
O O11 0.346664 0.583683 0.782474
O O12 0.426569 0.476477 0.681986
#
# Coordination Sequence:
#
# PCOD9507685 Si02
#       6
#    16  16  16  16  16  16
#     4  10  22  40  60  90 128 165 208 261 326 393
#     4  10  21  37  63  93 122 163 215 266 316 384
#     4  10  21  39  65  92 120 161 219 273 319 384
#     4  10  22  41  63  88 129 170 206 265 328 391
#     4  11  23  38  63  96 124 165 215 266 332 393
#     4   9  20  40  61  87 125 166 209 261 323 385
#
# _framework density 23.429017000000002
#
# number of rings (size 3 to 8) (size 9 to 14) (size 15 to 20)
#    0.000    2.000    0.000    2.500    0.000    6.667 
#    0.000   11.667    0.000   12.000    0.000    0.000 
#    0.000    0.000    0.000    0.000    0.000    0.000 
#
# Total GULP energy -267396.411907 kJ/mol
# GULP energy per Si atom -5570.758581 kJ/mol
# Density = 2.337569 g / cm^3
# Si number density = 23.429017 Si / 1000 Ang^3
#
#
#
# Elastic Constant Matrix: (Units=GPa)
#
#
# Indices 1 2 3 4 5 6 
#
# 1 93.2664 36.5054 45.8546 0.0000 0.0000 0.0000
# 2 36.5054 167.0196 49.7883 0.0000 0.0000 0.0000
# 3 45.8546 49.7883 83.6357 0.0000 0.0000 0.0000
# 4 0.0000 0.0000 0.0000 16.0001 0.0000 0.0000
# 5 0.0000 0.0000 0.0000 0.0000 4.6016 0.0000
# 6 0.0000 0.0000 0.0000 0.0000 0.0000 29.2629
#
#
#
# Elastic Compliance Matrix: (Units=1/GPa)
#
#
# Indices 1 2 3 4 5 6 
#
# 1 0.014813 -0.000993 -0.007530 0.000000 0.000000 0.000000
# 2 -0.000993 0.007346 -0.003828 0.000000 0.000000 0.000000
# 3 -0.007530 -0.003828 0.018364 0.000000 0.000000 0.000000
# 4 0.000000 0.000000 0.000000 0.062500 0.000000 0.000000
# 5 0.000000 0.000000 0.000000 0.000000 0.217315 0.000000
# 6 0.000000 0.000000 0.000000 0.000000 0.000000 0.034173
#
#
# Mechanical properties :
#
#
# Convention : Reuss Voigt Hill
#
# Bulk Modulus (GPa) = 63.21333 67.57981 65.39657
# Shear Modulus (GPa) = 13.00434 24.09115 18.54774
#
# Velocity S-wave (km/s) = 2.35851 3.21013 2.81669
# Velocity P-wave (km/s) = 5.86993 6.53047 6.20899
#
# Compressibility (1/GPa) = 0.01581945
#
# Stress axis : x y z
#
# Youngs Moduli (GPa) = 67.50866 136.13605 54.45334
#
# Poissons Ratio (x) = 0.13516 0.41005
# Poissons Ratio (y) = 0.06703 0.20847
# Poissons Ratio (z) = 0.50837 0.52119
#
# Static dielectric constant tensor:
#      x y z
#    x 1.894140 0.000000 0.000000 
#    y 0.000000 1.923850 0.000000 
#    z 0.000000 0.000000 1.972070 
# 
# From -- ./inp_files/33556.got.cif
#   From: 2010.05.17/outbox.cif.g08.bks.cpg/sg68_17_cif.got.tgz:33556.got - 2010.06.03 18:57:09.
