data_PCOD9507081
_publ_section_title
;
Structure prediction by ZEFSAII (Michael W. Deem and Ramdas Pophale) SiO2 
 PCOD9507081
Probable space group: C C C A
;
_chemical_formula_sum "Si O2"
_cell_formula_units_Z 112
_cell_length_a 13.547534
_cell_length_b 25.202206
_cell_length_c 15.859160
_cell_angle_alpha 90.000000
_cell_angle_beta 90.000000
_cell_angle_gamma 90.000000
_cell_volume 5414.757199
_symmetry_space_group_name_H-M "C C C A"
_symmetry_group_IT_number 68
_space_group.IT_coordinate_system_code '2'
_symmetry_cell_setting 'orthorhombic'
loop_
_space_group_symop_operation_xyz
x,y,z
-x,1/2-y,z
x,1/2-y,1/2-z
-x,y,1/2-z
-x,-y,-z
x,1/2+y,-z
-x,1/2+y,1/2+z
x,-y,1/2+z
1/2+x,1/2+y,z
1/2-x,-y,z
1/2+x,-y,1/2-z
1/2-x,1/2+y,1/2-z
1/2-x,1/2-y,-z
1/2+x,y,-z
1/2-x,y,1/2+z
1/2+x,1/2-y,1/2+z
loop_
_atom_site_type_symbol
_atom_site_label
_atom_site_fract_x
_atom_site_fract_y
_atom_site_fract_z
Si Si1 0.852152 0.113317 0.096752
Si Si2 0.381305 0.754750 0.533744
Si Si3 0.614089 0.269170 0.841759
Si Si4 0.650238 0.351739 0.373936
Si Si5 0.384600 0.530930 0.234791
Si Si6 0.801774 0.918995 0.282901
Si Si7 0.425913 0.629613 0.923022
O O1 0.878077 0.166771 0.150061
O O2 0.737074 0.120608 0.071897
O O3 0.861456 0.059630 0.147563
O O4 0.925722 0.112294 0.019312
O O5 0.500000 0.750000 0.527651
O O6 0.346893 0.749792 0.435378
O O7 0.346620 0.709325 0.597419
O O8 0.370926 0.813294 0.572050
O O9 0.500000 0.250000 0.840761
O O10 0.655516 0.250000 0.750000
O O11 0.680503 0.369151 0.279438
O O12 0.537005 0.367643 0.388731
O O13 0.500000 0.535373 0.250000
O O14 0.312269 0.565069 0.295862
O O15 0.350302 0.470331 0.238455
O O16 0.860548 0.908623 0.367171
#
# Coordination Sequence:
#
# PCOD9507081 Si02
#       7
#    16  16  16  16  16  16  16
#     4  10  23  39  57  93 120 159 202 251 303 360
#     4   8  17  34  56  87 118 157 198 246 289 358
#     4   9  18  34  56  81 121 162 194 240 301 358
#     4  10  20  39  58  86 128 157 194 251 305 349
#     4  10  22  42  64  86 123 151 205 257 300 350
#     4  10  22  42  64  89 118 164 199 244 306 368
#     4  10  20  38  64  85 121 161 208 243 301 361
#
# _framework density 20.684214000000001
#
# number of rings (size 3 to 8) (size 9 to 14) (size 15 to 20)
#    0.000    2.429    0.000    2.143    2.000    4.000 
#   10.286   10.714    0.000    0.000    0.000    0.000 
#    0.000    0.000    0.000    0.000    0.000    0.000 
#
# Total GULP energy -312013.467869 kJ/mol
# GULP energy per Si atom -5571.669069 kJ/mol
# Density = 2.063714 g / cm^3
# Si number density = 20.684214 Si / 1000 Ang^3
#
#
#
# Elastic Constant Matrix: (Units=GPa)
#
#
# Indices 1 2 3 4 5 6 
#
# 1 127.7513 25.5155 3.7886 0.0000 0.0000 0.0000
# 2 25.5155 104.5372 58.6783 0.0000 0.0000 0.0000
# 3 3.7886 58.6783 60.9892 0.0000 0.0000 0.0000
# 4 0.0000 0.0000 0.0000 0.7699 0.0000 0.0000
# 5 0.0000 0.0000 0.0000 0.0000 0.7300 0.0000
# 6 0.0000 0.0000 0.0000 0.0000 0.0000 28.4308
#
#
#
# Elastic Compliance Matrix: (Units=1/GPa)
#
#
# Indices 1 2 3 4 5 6 
#
# 1 0.008506 -0.003869 0.003194 0.000000 0.000000 0.000000
# 2 -0.003869 0.022557 -0.021462 0.000000 0.000000 0.000000
# 3 0.003194 -0.021462 0.036847 0.000000 0.000000 0.000000
# 4 0.000000 0.000000 0.000000 1.298860 0.000000 0.000000
# 5 0.000000 0.000000 0.000000 0.000000 1.369895 0.000000
# 6 0.000000 0.000000 0.000000 0.000000 0.000000 0.035173
#
#
# Mechanical properties :
#
#
# Convention : Reuss Voigt Hill
#
# Bulk Modulus (GPa) = 42.30911 52.13806 47.22358
# Shear Modulus (GPa) = 1.77054 19.67249 10.72152
#
# Velocity S-wave (km/s) = 0.92620 3.08732 2.27918
# Velocity P-wave (km/s) = 4.65220 6.16199 5.45954
#
# Compressibility (1/GPa) = 0.02363557
#
# Stress axis : x y z
#
# Youngs Moduli (GPa) = 117.56806 44.33118 27.13911
#
# Poissons Ratio (x) = 0.17151 -0.08668
# Poissons Ratio (y) = 0.45486 0.58247
# Poissons Ratio (z) = -0.37550 0.95146
#
# Static dielectric constant tensor:
#      x y z
#    x 1.809900 0.000000 0.000000 
#    y 0.000000 1.733850 0.000000 
#    z 0.000000 0.000000 1.751440 
# 
# From -- ./inp_files/22733.got.cif
#   From: 2010.05.17/outbox.cif.g08.bks.cpg/sg68_12_cif.got.tgz:22733.got - 2010.06.03 18:57:09.
