data_PCOD9507330
_publ_section_title
;
Structure prediction by ZEFSAII (Michael W. Deem and Ramdas Pophale) SiO2 
 PCOD9507330
Probable space group: C C C A
;
_chemical_formula_sum "Si O2"
_cell_formula_units_Z 64
_cell_length_a 13.942537
_cell_length_b 20.444554
_cell_length_c 9.061822
_cell_angle_alpha 90.000000
_cell_angle_beta 90.000000
_cell_angle_gamma 90.000000
_cell_volume 2583.062852
_symmetry_space_group_name_H-M "C C C A"
_symmetry_group_IT_number 68
_space_group.IT_coordinate_system_code '2'
_symmetry_cell_setting 'orthorhombic'
loop_
_space_group_symop_operation_xyz
x,y,z
-x,1/2-y,z
x,1/2-y,1/2-z
-x,y,1/2-z
-x,-y,-z
x,1/2+y,-z
-x,1/2+y,1/2+z
x,-y,1/2+z
1/2+x,1/2+y,z
1/2-x,-y,z
1/2+x,-y,1/2-z
1/2-x,1/2+y,1/2-z
1/2-x,1/2-y,-z
1/2+x,y,-z
1/2-x,y,1/2+z
1/2+x,1/2-y,1/2+z
loop_
_atom_site_type_symbol
_atom_site_label
_atom_site_fract_x
_atom_site_fract_y
_atom_site_fract_z
Si Si1 0.655959 0.061743 0.207041
Si Si2 0.000000 0.750000 0.993733
Si Si3 0.676231 0.887530 0.383715
Si Si4 0.500000 0.845360 0.750000
Si Si5 0.000000 0.546140 0.750000
Si Si6 0.150988 0.250000 0.250000
O O1 0.753436 0.063632 0.298437
O O2 0.587160 0.109945 0.299601
O O3 0.581743 0.001419 0.177519
O O4 0.686470 0.095543 0.054350
O O5 0.916417 0.726347 0.885299
O O6 0.034382 0.696062 0.110202
O O7 0.565942 0.906820 0.348648
O O8 0.698918 0.814371 0.322525
#
# Coordination Sequence:
#
# PCOD9507330 Si02
#       6
#    16   8  16   8   8   8
#     4  11  27  46  73 109 146 194 247 310 364 441
#     4  10  20  40  70 102 144 198 238 288 358 446
#     4  12  27  47  74 112 149 193 248 301 379 440
#     4  10  22  43  68 101 146 192 244 292 364 428
#     4  11  26  50  80 102 144 199 254 310 360 429
#     4  11  24  42  74 111 152 188 242 305 370 449
#
# _framework density 24.776786999999999
#
# number of rings (size 3 to 8) (size 9 to 14) (size 15 to 20)
#    0.000    1.000    2.500    3.000    3.500    9.000 
#    0.000    0.000    0.000    0.000    0.000    0.000 
#    0.000    0.000    0.000    0.000    0.000    0.000 
#
# Total GULP energy -178508.646054 kJ/mol
# GULP energy per Si atom -5578.395189 kJ/mol
# Density = 2.472039 g / cm^3
# Si number density = 24.776787 Si / 1000 Ang^3
#
#
#
# Elastic Constant Matrix: (Units=GPa)
#
#
# Indices 1 2 3 4 5 6 
#
# 1 109.0205 19.1051 12.8123 0.0000 0.0000 0.0000
# 2 19.1051 120.0589 21.9663 0.0000 0.0000 0.0000
# 3 12.8123 21.9663 106.7951 0.0000 0.0000 0.0000
# 4 0.0000 0.0000 0.0000 53.7967 0.0000 0.0000
# 5 0.0000 0.0000 0.0000 0.0000 18.9036 0.0000
# 6 0.0000 0.0000 0.0000 0.0000 0.0000 8.3739
#
#
#
# Elastic Compliance Matrix: (Units=1/GPa)
#
#
# Indices 1 2 3 4 5 6 
#
# 1 0.009512 -0.001356 -0.000862 0.000000 0.000000 0.000000
# 2 -0.001356 0.008848 -0.001657 0.000000 0.000000 0.000000
# 3 -0.000862 -0.001657 0.009808 0.000000 0.000000 0.000000
# 4 0.000000 0.000000 0.000000 0.018589 0.000000 0.000000
# 5 0.000000 0.000000 0.000000 0.000000 0.052900 0.000000
# 6 0.000000 0.000000 0.000000 0.000000 0.000000 0.119418
#
#
# Mechanical properties :
#
#
# Convention : Reuss Voigt Hill
#
# Bulk Modulus (GPa) = 48.97860 49.29356 49.13608
# Shear Modulus (GPa) = 21.40127 35.01423 28.20775
#
# Velocity S-wave (km/s) = 2.94217 3.76332 3.37779
# Velocity P-wave (km/s) = 5.59935 6.23070 5.92344
#
# Compressibility (1/GPa) = 0.02041708
#
# Stress axis : x y z
#
# Youngs Moduli (GPa) = 105.13574 113.01709 101.95705
#
# Poissons Ratio (x) = 0.15323 0.08791
# Poissons Ratio (y) = 0.14254 0.16897
# Poissons Ratio (z) = 0.09065 0.18730
#
# Static dielectric constant tensor:
#      x y z
#    x 1.951430 0.000000 0.000000 
#    y 0.000000 2.124090 0.000000 
#    z 0.000000 0.000000 1.959750 
# 
# From -- ./inp_files/5061.got.cif
#   From: 2010.05.17/outbox.cif.g08.bks.cpg/sg68_3_cif.got.tgz:5061.got - 2010.06.03 18:57:09.
