data_PCOD9507974
_publ_section_title
;
Structure prediction by ZEFSAII (Michael W. Deem and Ramdas Pophale) SiO2 
 PCOD9507974
Probable space group: C C C A
;
_chemical_formula_sum "Si O2"
_cell_formula_units_Z 116
_cell_length_a 26.181316
_cell_length_b 11.985202
_cell_length_c 17.355370
_cell_angle_alpha 90.000000
_cell_angle_beta 90.000000
_cell_angle_gamma 90.000000
_cell_volume 5445.913105
_symmetry_space_group_name_H-M "C C C A"
_symmetry_group_IT_number 68
_space_group.IT_coordinate_system_code '2'
_symmetry_cell_setting 'orthorhombic'
loop_
_space_group_symop_operation_xyz
x,y,z
-x,1/2-y,z
x,1/2-y,1/2-z
-x,y,1/2-z
-x,-y,-z
x,1/2+y,-z
-x,1/2+y,1/2+z
x,-y,1/2+z
1/2+x,1/2+y,z
1/2-x,-y,z
1/2+x,-y,1/2-z
1/2-x,1/2+y,1/2-z
1/2-x,1/2-y,-z
1/2+x,y,-z
1/2-x,y,1/2+z
1/2+x,1/2-y,1/2+z
loop_
_atom_site_type_symbol
_atom_site_label
_atom_site_fract_x
_atom_site_fract_y
_atom_site_fract_z
Si Si1 0.704535 0.299405 0.671482
Si Si2 0.644245 0.638961 0.941506
Si Si3 0.798104 0.568525 0.910729
Si Si4 0.302030 0.366573 0.413358
Si Si5 0.533479 0.105344 0.102969
Si Si6 0.007054 0.378488 0.427694
Si Si7 0.124060 0.062658 0.110879
Si Si8 0.000000 0.750000 0.250000
O O1 0.725002 0.250000 0.750000
O O2 0.692698 0.187893 0.624321
O O3 0.749882 0.371349 0.634325
O O4 0.652540 0.370035 0.678289
O O5 0.656898 0.520147 0.904168
O O6 0.681417 0.737211 0.916652
O O7 0.586640 0.662791 0.919352
O O8 0.646631 0.619486 0.032979
O O9 0.750000 0.500000 0.878792
O O10 0.789468 0.593133 0.000831
O O11 0.351042 0.439406 0.386794
O O12 0.519881 0.161040 0.184486
O O13 0.532065 0.970089 0.106189
O O14 0.501893 0.121778 0.021970
O O15 0.063407 0.423159 0.400437
O O16 0.000000 0.250000 0.403091
#
# Coordination Sequence:
#
# PCOD9507974 Si02
#       8
#    16  16  16  16  16  16  16   4
#     4  12  25  42  60  91 135 172 212 273 336 404
#     4  10  21  39  68  96 123 170 222 276 316 402
#     4  11  21  38  66  93 123 166 221 268 322 389
#     4  11  21  41  66  92 128 166 221 269 324 388
#     4  10  24  41  69 102 139 178 226 282 357 414
#     4  10  22  44  73 101 130 180 238 290 328 422
#     4  10  23  39  68  96 124 171 224 274 327 388
#     4  12  24  48  66 104 148 178 212 306 372 408
#
# _framework density 21.300377000000001
#
# number of rings (size 3 to 8) (size 9 to 14) (size 15 to 20)
#    0.000    1.379    3.448    2.483    3.862    3.310 
#    3.724    0.345    0.000    0.000    0.000    0.000 
#    0.000    0.000    0.000    0.000    0.000    0.000 
#
# Total GULP energy -323116.890253 kJ/mol
# GULP energy per Si atom -5570.980866 kJ/mol
# Density = 2.125190 g / cm^3
# Si number density = 21.300377 Si / 1000 Ang^3
#
#
#
# Elastic Constant Matrix: (Units=GPa)
#
#
# Indices 1 2 3 4 5 6 
#
# 1 56.1351 11.7987 3.0123 0.0000 0.0000 0.0000
# 2 11.7987 119.9119 9.4242 0.0000 0.0000 0.0000
# 3 3.0123 9.4242 49.2435 0.0000 0.0000 0.0000
# 4 0.0000 0.0000 0.0000 8.5136 0.0000 0.0000
# 5 0.0000 0.0000 0.0000 0.0000 -99.9520 0.0000
# 6 0.0000 0.0000 0.0000 0.0000 0.0000 27.6765
#
#
#
# Elastic Compliance Matrix: (Units=1/GPa)
#
#
# Indices 1 2 3 4 5 6 
#
# 1 0.018220 -0.001731 -0.000783 0.000000 0.000000 0.000000
# 2 -0.001731 0.008631 -0.001546 0.000000 0.000000 0.000000
# 3 -0.000783 -0.001546 0.020651 0.000000 0.000000 0.000000
# 4 0.000000 0.000000 0.000000 0.117459 0.000000 0.000000
# 5 0.000000 0.000000 0.000000 0.000000 -0.010005 0.000000
# 6 0.000000 0.000000 0.000000 0.000000 0.000000 0.036132
#
#
# Mechanical properties :
#
#
# Convention : Reuss Voigt Hill
#
# Bulk Modulus (GPa) = 25.39256 30.41787 27.90522
# Shear Modulus (GPa) = 23.54755 0.65131 12.09943
#
# Velocity S-wave (km/s) = 3.32851 0.55357 2.38594
# Velocity P-wave (km/s) = 5.16905 3.83667 4.55187
#
# Compressibility (1/GPa) = 0.03938161
#
# Stress axis : x y z
#
# Youngs Moduli (GPa) = 54.88450 115.85749 48.42376
#
# Poissons Ratio (x) = 0.20057 0.03793
# Poissons Ratio (y) = 0.09502 0.07486
# Poissons Ratio (z) = 0.04299 0.17911
#
# Static dielectric constant tensor:
#      x y z
#    x 1.797160 0.000000 0.000000 
#    y 0.000000 1.800930 0.000000 
#    z 0.000000 0.000000 1.816030 
# 
# From -- ./inp_files/34175.got.cif
#   From: 2010.05.17/outbox.cif.g08.bks.cpg/sg68_18_cif.got.tgz:34175.got - 2010.06.03 18:57:09.
