data_PCOD9507041
_publ_section_title
;
Structure prediction by ZEFSAII (Michael W. Deem and Ramdas Pophale) SiO2 
 PCOD9507041
Probable space group: C C C A
;
_chemical_formula_sum "Si O2"
_cell_formula_units_Z 92
_cell_length_a 24.730493
_cell_length_b 9.081359
_cell_length_c 17.262995
_cell_angle_alpha 90.000000
_cell_angle_beta 90.000000
_cell_angle_gamma 90.000000
_cell_volume 3877.035371
_symmetry_space_group_name_H-M "C C C A"
_symmetry_group_IT_number 68
_space_group.IT_coordinate_system_code '2'
_symmetry_cell_setting 'orthorhombic'
loop_
_space_group_symop_operation_xyz
x,y,z
-x,1/2-y,z
x,1/2-y,1/2-z
-x,y,1/2-z
-x,-y,-z
x,1/2+y,-z
-x,1/2+y,1/2+z
x,-y,1/2+z
1/2+x,1/2+y,z
1/2-x,-y,z
1/2+x,-y,1/2-z
1/2-x,1/2+y,1/2-z
1/2-x,1/2-y,-z
1/2+x,y,-z
1/2-x,y,1/2+z
1/2+x,1/2-y,1/2+z
loop_
_atom_site_type_symbol
_atom_site_label
_atom_site_fract_x
_atom_site_fract_y
_atom_site_fract_z
Si Si1 0.914164 0.463197 0.828627
Si Si2 0.828467 0.250000 0.750000
Si Si3 0.153768 0.428852 0.885579
Si Si4 0.500000 0.750000 0.750000
Si Si5 0.385632 0.739519 0.373370
Si Si6 0.785975 0.122673 0.038414
Si Si7 0.936674 0.718658 0.460440
O O1 0.863598 0.379019 0.791089
O O2 0.963003 0.363902 0.796920
O O3 0.912860 0.637911 0.819134
O O4 0.919030 0.435134 0.921088
O O5 0.808022 0.162395 0.825874
O O6 0.131269 0.577119 0.847279
O O7 0.185304 0.456695 0.965129
O O8 0.101502 0.333148 0.912966
O O9 0.330364 0.813397 0.404454
O O10 0.421941 0.717020 0.449808
O O11 0.750000 0.000000 0.079431
O O12 0.750000 0.250000 0.000000
O O13 0.000000 0.750000 0.451722
#
# Coordination Sequence:
#
# PCOD9507041 Si02
#       7
#    16   8  16   4  16  16  16
#     4  10  21  39  64  85 127 173 217 263 313 386
#     4   9  22  41  64  76 124 178 210 250 315 377
#     4  10  22  40  63  94 124 169 215 260 319 394
#     4  10  20  44  64  86 124 202 228 242 320 396
#     4  11  23  37  64 103 130 157 216 281 328 377
#     4  11  22  40  71 102 130 163 206 270 341 399
#     4  10  20  38  61  90 129 166 203 264 332 377
#
# _framework density 23.729472999999999
#
# number of rings (size 3 to 8) (size 9 to 14) (size 15 to 20)
#    0.000    1.739    2.609    2.087    4.870    3.478 
#    0.000    0.000   11.478    0.000    0.000    0.000 
#    0.000    0.000    0.000    0.000    0.000    0.000 
#
# Total GULP energy -256861.215957 kJ/mol
# GULP energy per Si atom -5583.939477 kJ/mol
# Density = 2.367546 g / cm^3
# Si number density = 23.729473 Si / 1000 Ang^3
#
#
#
# Elastic Constant Matrix: (Units=GPa)
#
#
# Indices 1 2 3 4 5 6 
#
# 1 60.5626 4.4881 -5.3196 0.0000 0.0000 0.0000
# 2 4.4881 144.1321 20.5881 0.0000 0.0000 0.0000
# 3 -5.3196 20.5881 70.1007 0.0000 0.0000 0.0000
# 4 0.0000 0.0000 0.0000 29.4546 0.0000 0.0000
# 5 0.0000 0.0000 0.0000 0.0000 4.6211 0.0000
# 6 0.0000 0.0000 0.0000 0.0000 0.0000 27.0720
#
#
#
# Elastic Compliance Matrix: (Units=1/GPa)
#
#
# Indices 1 2 3 4 5 6 
#
# 1 0.016696 -0.000732 0.001482 0.000000 0.000000 0.000000
# 2 -0.000732 0.007274 -0.002192 0.000000 0.000000 0.000000
# 3 0.001482 -0.002192 0.015021 0.000000 0.000000 0.000000
# 4 0.000000 0.000000 0.000000 0.033951 0.000000 0.000000
# 5 0.000000 0.000000 0.000000 0.000000 0.216399 0.000000
# 6 0.000000 0.000000 0.000000 0.000000 0.000000 0.036939
#
#
# Mechanical properties :
#
#
# Convention : Reuss Voigt Hill
#
# Bulk Modulus (GPa) = 27.69435 34.92316 31.30876
# Shear Modulus (GPa) = 14.65421 29.23212 21.94317
#
# Velocity S-wave (km/s) = 2.48776 3.51364 3.04422
# Velocity P-wave (km/s) = 4.46633 5.58659 5.05758
#
# Compressibility (1/GPa) = 0.03610844
#
# Stress axis : x y z
#
# Youngs Moduli (GPa) = 59.89386 137.47698 66.57182
#
# Poissons Ratio (x) = 0.10057 -0.09865
# Poissons Ratio (y) = 0.04382 0.14591
# Poissons Ratio (z) = -0.08875 0.30132
#
# Static dielectric constant tensor:
#      x y z
#    x 1.897640 0.000000 0.000000 
#    y 0.000000 1.927090 0.000000 
#    z 0.000000 0.000000 1.993500 
# 
# From -- ./inp_files/41291.got.cif
#   From: 2010.05.17/outbox.cif.g08.bks.cpg/sg68_21_cif.got.tgz:41291.got - 2010.06.03 18:57:09.
