data_PCOD9507049
_publ_section_title
;
Structure prediction by ZEFSAII (Michael W. Deem and Ramdas Pophale) SiO2 
 PCOD9507049
Probable space group: C C C A
;
_chemical_formula_sum "Si O2"
_cell_formula_units_Z 76
_cell_length_a 15.879647
_cell_length_b 21.210783
_cell_length_c 11.725777
_cell_angle_alpha 90.000000
_cell_angle_beta 90.000000
_cell_angle_gamma 90.000000
_cell_volume 3949.473238
_symmetry_space_group_name_H-M "C C C A"
_symmetry_group_IT_number 68
_space_group.IT_coordinate_system_code '2'
_symmetry_cell_setting 'orthorhombic'
loop_
_space_group_symop_operation_xyz
x,y,z
-x,1/2-y,z
x,1/2-y,1/2-z
-x,y,1/2-z
-x,-y,-z
x,1/2+y,-z
-x,1/2+y,1/2+z
x,-y,1/2+z
1/2+x,1/2+y,z
1/2-x,-y,z
1/2+x,-y,1/2-z
1/2-x,1/2+y,1/2-z
1/2-x,1/2-y,-z
1/2+x,y,-z
1/2-x,y,1/2+z
1/2+x,1/2-y,1/2+z
loop_
_atom_site_type_symbol
_atom_site_label
_atom_site_fract_x
_atom_site_fract_y
_atom_site_fract_z
Si Si1 0.641849 0.134514 0.877531
Si Si2 0.457094 0.990922 0.125832
Si Si3 0.500000 0.250000 0.250000
Si Si4 0.850878 0.324157 0.867139
Si Si5 0.205250 0.750000 0.750000
Si Si6 0.799173 0.939400 0.290376
O O1 0.570464 0.082085 0.863449
O O2 0.648208 0.192257 0.790479
O O3 0.730130 0.097804 0.863004
O O4 0.638055 0.163140 0.001585
O O5 0.500000 0.006106 0.250000
O O6 0.373564 0.033994 0.131331
O O7 0.500000 0.000000 0.000000
O O8 0.563689 0.206768 0.178826
O O9 0.771364 0.278173 0.842559
O O10 0.833189 0.389929 0.801885
O O11 0.750000 0.000000 0.238446
#
# Coordination Sequence:
#
# PCOD9507049 Si02
#       6
#    16  16   4  16   8  16
#     4  10  21  39  62  88 119 165 208 259 310 377
#     4  11  24  40  60  95 129 162 204 260 329 382
#     4  10  24  36  56  94 122 168 202 254 320 380
#     4  10  20  38  62  87 123 161 214 255 313 374
#     4   9  20  39  59  86 115 160 220 254 299 374
#     4   9  21  38  62  88 119 160 208 256 310 373
#
# _framework density 19.243072000000002
#
# number of rings (size 3 to 8) (size 9 to 14) (size 15 to 20)
#    0.000    2.105    0.000    1.895    4.421    7.579 
#    3.789    0.000    0.000    0.000    0.000    0.000 
#    0.000    0.000    0.000    0.000    0.000    0.000 
#
# Total GULP energy -211824.090489 kJ/mol
# GULP energy per Si atom -5574.318171 kJ/mol
# Density = 1.919927 g / cm^3
# Si number density = 19.243072 Si / 1000 Ang^3
#
#
#
# Elastic Constant Matrix: (Units=GPa)
#
#
# Indices 1 2 3 4 5 6 
#
# 1 74.1000 52.1907 47.8169 0.0000 0.0000 0.0000
# 2 52.1907 110.2898 22.4967 0.0000 0.0000 0.0000
# 3 47.8169 22.4967 81.0038 0.0000 0.0000 0.0000
# 4 0.0000 0.0000 0.0000 -4.4516 0.0000 0.0000
# 5 0.0000 0.0000 0.0000 0.0000 4.7789 0.0000
# 6 0.0000 0.0000 0.0000 0.0000 0.0000 15.1644
#
#
#
# Elastic Compliance Matrix: (Units=1/GPa)
#
#
# Indices 1 2 3 4 5 6 
#
# 1 0.031927 -0.011941 -0.015531 0.000000 0.000000 0.000000
# 2 -0.011941 0.014077 0.003139 0.000000 0.000000 0.000000
# 3 -0.015531 0.003139 0.020641 0.000000 0.000000 0.000000
# 4 0.000000 0.000000 0.000000 -0.224640 0.000000 0.000000
# 5 0.000000 0.000000 0.000000 0.000000 0.209253 0.000000
# 6 0.000000 0.000000 0.000000 0.000000 0.000000 0.065944
#
#
# Mechanical properties :
#
#
# Convention : Reuss Voigt Hill
#
# Bulk Modulus (GPa) = 55.61363 56.71134 56.16249
# Shear Modulus (GPa) = 29.09329 12.62430 20.85879
#
# Velocity S-wave (km/s) = 3.89251 2.56411 3.29593
# Velocity P-wave (km/s) = 7.01182 6.18880 6.61312
#
# Compressibility (1/GPa) = 0.01798120
#
# Stress axis : x y z
#
# Youngs Moduli (GPa) = 31.32121 71.03709 48.44697
#
# Poissons Ratio (x) = 0.84822 0.75241
# Poissons Ratio (y) = 0.37399 -0.15207
# Poissons Ratio (z) = 0.48644 -0.22298
#
# Static dielectric constant tensor:
#      x y z
#    x 1.677290 0.000000 0.000000 
#    y 0.000000 1.683130 0.000000 
#    z 0.000000 0.000000 1.687920 
# 
# From -- ./inp_files/13249.got.cif
#   From: 2010.05.17/outbox.cif.g08.bks.cpg/sg68_7_cif.got.tgz:13249.got - 2010.06.03 18:57:09.
