data_PCOD9507980
_publ_section_title
;
Structure prediction by ZEFSAII (Michael W. Deem and Ramdas Pophale) SiO2 
 PCOD9507980
Probable space group: C C C A
;
_chemical_formula_sum "Si O2"
_cell_formula_units_Z 68
_cell_length_a 22.757132
_cell_length_b 30.087375
_cell_length_c 5.230173
_cell_angle_alpha 90.000000
_cell_angle_beta 90.000000
_cell_angle_gamma 90.000000
_cell_volume 3581.111819
_symmetry_space_group_name_H-M "C C C A"
_symmetry_group_IT_number 68
_space_group.IT_coordinate_system_code '2'
_symmetry_cell_setting 'orthorhombic'
loop_
_space_group_symop_operation_xyz
x,y,z
-x,1/2-y,z
x,1/2-y,1/2-z
-x,y,1/2-z
-x,-y,-z
x,1/2+y,-z
-x,1/2+y,1/2+z
x,-y,1/2+z
1/2+x,1/2+y,z
1/2-x,-y,z
1/2+x,-y,1/2-z
1/2-x,1/2+y,1/2-z
1/2-x,1/2-y,-z
1/2+x,y,-z
1/2-x,y,1/2+z
1/2+x,1/2-y,1/2+z
loop_
_atom_site_type_symbol
_atom_site_label
_atom_site_fract_x
_atom_site_fract_y
_atom_site_fract_z
Si Si1 0.905234 0.680295 0.135386
Si Si2 0.500000 0.750000 0.750000
Si Si3 0.428679 0.975632 0.227332
Si Si4 0.932450 0.625809 0.652392
Si Si5 0.273922 0.700430 0.936770
O O1 0.955409 0.717834 0.098462
O O2 0.923248 0.651444 0.384814
O O3 0.840514 0.700693 0.160501
O O4 0.900960 0.650776 0.883027
O O5 0.500000 0.977707 0.250000
O O6 0.414179 0.925651 0.142633
O O7 0.408292 0.990418 0.507794
O O8 0.000000 0.626383 0.750000
O O9 0.235028 0.678636 0.714309
O O10 0.250000 0.750000 0.000000
#
# Coordination Sequence:
#
# PCOD9507980 Si02
#       5
#    16   4  16  16  16
#     4  12  24  37  58  81 117 157 197 237 294 345
#     4  12  24  38  52  82 112 162 192 216 288 358
#     4   9  17  30  53  78 109 155 188 216 270 347
#     4  11  21  38  52  85 125 150 187 236 286 350
#     4  10  21  40  58  78 102 145 200 259 284 316
#
# _framework density 18.988515
#
# number of rings (size 3 to 8) (size 9 to 14) (size 15 to 20)
#    0.000    1.412    2.353    4.235    0.000    7.529 
#    0.000    0.000    0.000    0.000    0.000    0.000 
#    0.000   65.882    0.000    0.000    0.000    0.000 
#
# Total GULP energy -189513.668827 kJ/mol
# GULP energy per Si atom -5573.931436 kJ/mol
# Density = 1.894530 g / cm^3
# Si number density = 18.988515 Si / 1000 Ang^3
#
#
#
# Elastic Constant Matrix: (Units=GPa)
#
#
# Indices 1 2 3 4 5 6 
#
# 1 90.4069 24.5536 5.6692 0.0000 0.0000 0.0000
# 2 24.5536 89.6476 32.2851 0.0000 0.0000 0.0000
# 3 5.6692 32.2851 126.9032 0.0000 0.0000 0.0000
# 4 0.0000 0.0000 0.0000 6.5171 0.0000 0.0000
# 5 0.0000 0.0000 0.0000 0.0000 15.6636 0.0000
# 6 0.0000 0.0000 0.0000 0.0000 0.0000 -13.2906
#
#
#
# Elastic Compliance Matrix: (Units=1/GPa)
#
#
# Indices 1 2 3 4 5 6 
#
# 1 0.011963 -0.003395 0.000329 0.000000 0.000000 0.000000
# 2 -0.003395 0.013243 -0.003218 0.000000 0.000000 0.000000
# 3 0.000329 -0.003218 0.008684 0.000000 0.000000 0.000000
# 4 0.000000 0.000000 0.000000 0.153442 0.000000 0.000000
# 5 0.000000 0.000000 0.000000 0.000000 0.063842 0.000000
# 6 0.000000 0.000000 0.000000 0.000000 0.000000 -0.075241
#
#
# Mechanical properties :
#
#
# Convention : Reuss Voigt Hill
#
# Bulk Modulus (GPa) = 46.89712 47.99707 47.44709
# Shear Modulus (GPa) = 25.56141 18.07465 21.81803
#
# Velocity S-wave (km/s) = 3.67297 3.08859 3.39339
# Velocity P-wave (km/s) = 6.53750 6.16855 6.35570
#
# Compressibility (1/GPa) = 0.02132327
#
# Stress axis : x y z
#
# Youngs Moduli (GPa) = 83.59452 75.50927 115.15589
#
# Poissons Ratio (x) = 0.25636 -0.03792
# Poissons Ratio (y) = 0.28380 0.37052
# Poissons Ratio (z) = -0.02753 0.24296
#
# Static dielectric constant tensor:
#      x y z
#    x 1.701020 0.000000 0.000000 
#    y 0.000000 1.742400 0.000000 
#    z 0.000000 0.000000 1.762640 
# 
# From -- ./inp_files/1524.got.cif
#   From: 2010.05.17/outbox.cif.g08.bks.cpg/sg68_1_cif.got.tgz:1524.got - 2010.06.03 18:57:09.
