data_PCOD9507860
_publ_section_title
;
Structure prediction by ZEFSAII (Michael W. Deem and Ramdas Pophale) SiO2 
 PCOD9507860
Probable space group: C C C A
;
_chemical_formula_sum "Si O2"
_cell_formula_units_Z 68
_cell_length_a 14.392417
_cell_length_b 5.567994
_cell_length_c 35.704449
_cell_angle_alpha 90.000000
_cell_angle_beta 90.000000
_cell_angle_gamma 90.000000
_cell_volume 2861.243556
_symmetry_space_group_name_H-M "C C C A"
_symmetry_group_IT_number 68
_space_group.IT_coordinate_system_code '2'
_symmetry_cell_setting 'orthorhombic'
loop_
_space_group_symop_operation_xyz
x,y,z
-x,1/2-y,z
x,1/2-y,1/2-z
-x,y,1/2-z
-x,-y,-z
x,1/2+y,-z
-x,1/2+y,1/2+z
x,-y,1/2+z
1/2+x,1/2+y,z
1/2-x,-y,z
1/2+x,-y,1/2-z
1/2-x,1/2+y,1/2-z
1/2-x,1/2-y,-z
1/2+x,y,-z
1/2-x,y,1/2+z
1/2+x,1/2-y,1/2+z
loop_
_atom_site_type_symbol
_atom_site_label
_atom_site_fract_x
_atom_site_fract_y
_atom_site_fract_z
Si Si1 0.603153 0.863384 0.788498
Si Si2 0.500000 0.250000 0.750000
Si Si3 0.606157 0.967588 0.014039
Si Si4 0.138401 0.038907 0.399463
Si Si5 0.352586 0.458717 0.370087
O O1 0.500000 0.750000 0.794095
O O2 0.643488 0.750000 0.750000
O O3 0.656655 0.870778 0.827009
O O4 0.572572 0.126439 0.777457
O O5 0.612847 0.909651 0.057777
O O6 0.646760 0.234519 0.007171
O O7 0.500000 0.000000 0.000000
O O8 0.107143 0.272207 0.375298
O O9 0.250000 0.000000 0.395153
O O10 0.101355 0.773020 0.389151
O O11 0.250000 0.500000 0.386665
#
# Coordination Sequence:
#
# PCOD9507860 Si02
#       5
#    16   4  16  16  16
#     4   9  20  38  59  87 121 161 207 251 302 358
#     4   8  18  36  56  78 120 152 196 244 302 352
#     4  10  21  39  58  86 120 148 193 252 288 353
#     4  10  22  40  61  84 122 161 196 244 306 364
#     4  10  22  41  60  90 123 159 204 248 299 362
#
# _framework density 23.765889999999999
#
# number of rings (size 3 to 8) (size 9 to 14) (size 15 to 20)
#    0.000    2.588    0.000    1.412    6.588    0.941 
#   14.824    0.000    0.000    0.000    0.000    0.000 
#    0.000    0.000    0.000    0.000    0.000    0.000 
#
# Total GULP energy -189298.250561 kJ/mol
# GULP energy per Si atom -5567.595605 kJ/mol
# Density = 2.371180 g / cm^3
# Si number density = 23.765890 Si / 1000 Ang^3
#
#
#
# Elastic Constant Matrix: (Units=GPa)
#
#
# Indices 1 2 3 4 5 6 
#
# 1 76.1168 2.2506 -18.0743 0.0000 0.0000 0.0000
# 2 2.2506 161.8176 34.9068 0.0000 0.0000 0.0000
# 3 -18.0743 34.9068 107.4543 0.0000 0.0000 0.0000
# 4 0.0000 0.0000 0.0000 62.6879 0.0000 0.0000
# 5 0.0000 0.0000 0.0000 0.0000 30.0309 0.0000
# 6 0.0000 0.0000 0.0000 0.0000 0.0000 -156.7551
#
#
#
# Elastic Compliance Matrix: (Units=1/GPa)
#
#
# Indices 1 2 3 4 5 6 
#
# 1 0.013767 -0.000743 0.002557 0.000000 0.000000 0.000000
# 2 -0.000743 0.006686 -0.002297 0.000000 0.000000 0.000000
# 3 0.002557 -0.002297 0.010483 0.000000 0.000000 0.000000
# 4 0.000000 0.000000 0.000000 0.015952 0.000000 0.000000
# 5 0.000000 0.000000 0.000000 0.000000 0.033299 0.000000
# 6 0.000000 0.000000 0.000000 0.000000 0.000000 -0.006379
#
#
# Mechanical properties :
#
#
# Convention : Reuss Voigt Hill
#
# Bulk Modulus (GPa) = 33.36752 42.61720 37.99236
# Shear Modulus (GPa) = 58.98862 8.94646 33.96754
#
# Velocity S-wave (km/s) = 4.98744 1.94231 3.78465
# Velocity P-wave (km/s) = 6.87290 4.79595 5.92612
#
# Compressibility (1/GPa) = 0.02996926
#
# Stress axis : x y z
#
# Youngs Moduli (GPa) = 72.63825 149.57536 95.39697
#
# Poissons Ratio (x) = 0.11114 -0.24393
# Poissons Ratio (y) = 0.05397 0.21911
# Poissons Ratio (z) = -0.18574 0.34355
#
# Static dielectric constant tensor:
#      x y z
#    x 1.915040 0.000000 0.000000 
#    y 0.000000 2.041730 0.000000 
#    z 0.000000 0.000000 2.051350 
# 
# From -- ./inp_files/48176.got.cif
#   From: 2010.05.17/outbox.cif.g08.bks.cpg/sg68_25_cif.got.tgz:48176.got - 2010.06.03 18:57:09.
