data_PCOD9507826
_publ_section_title
;
Structure prediction by ZEFSAII (Michael W. Deem and Ramdas Pophale) SiO2 
 PCOD9507826
Probable space group: C C C A
;
_chemical_formula_sum "Si O2"
_cell_formula_units_Z 88
_cell_length_a 14.369576
_cell_length_b 23.570827
_cell_length_c 11.202272
_cell_angle_alpha 90.000000
_cell_angle_beta 90.000000
_cell_angle_gamma 90.000000
_cell_volume 3794.240780
_symmetry_space_group_name_H-M "C C C A"
_symmetry_group_IT_number 68
_space_group.IT_coordinate_system_code '2'
_symmetry_cell_setting 'orthorhombic'
loop_
_space_group_symop_operation_xyz
x,y,z
-x,1/2-y,z
x,1/2-y,1/2-z
-x,y,1/2-z
-x,-y,-z
x,1/2+y,-z
-x,1/2+y,1/2+z
x,-y,1/2+z
1/2+x,1/2+y,z
1/2-x,-y,z
1/2+x,-y,1/2-z
1/2-x,1/2+y,1/2-z
1/2-x,1/2-y,-z
1/2+x,y,-z
1/2-x,y,1/2+z
1/2+x,1/2-y,1/2+z
loop_
_atom_site_type_symbol
_atom_site_label
_atom_site_fract_x
_atom_site_fract_y
_atom_site_fract_z
Si Si1 0.088484 0.080299 0.516394
Si Si2 0.750000 0.500000 0.240243
Si Si3 0.307560 0.905656 0.068127
Si Si4 0.761163 0.218135 0.370408
Si Si5 0.425710 0.466878 0.122296
Si Si6 0.951290 0.690985 0.126659
O O1 0.200846 0.085148 0.520388
O O2 0.053494 0.144879 0.521886
O O3 0.033423 0.053162 0.632160
O O4 0.068072 0.033071 0.417142
O O5 0.692745 0.547245 0.169700
O O6 0.670163 0.465518 0.305932
O O7 0.314969 0.840605 0.106736
O O8 0.390148 0.924727 0.982737
O O9 0.796482 0.250000 0.250000
O O10 0.750000 0.250000 0.500000
O O11 0.655389 0.201294 0.339046
O O12 0.000000 0.750000 0.092510
O O13 0.000000 0.671209 0.250000
#
# Coordination Sequence:
#
# PCOD9507826 Si02
#       6
#    16   8  16  16  16  16
#     4  10  22  39  61  91 130 172 224 274 344 405
#     4  12  22  38  66  88 144 166 220 272 362 410
#     4  11  24  42  62  99 134 171 227 284 344 420
#     4  11  26  44  70 103 135 185 238 291 354 420
#     4  11  23  40  62  95 132 174 212 287 351 421
#     4  10  21  38  65  99 130 173 240 288 329 409
#
# _framework density 23.193045999999999
#
# number of rings (size 3 to 8) (size 9 to 14) (size 15 to 20)
#    0.000    1.273    5.455    0.000   10.182    0.000 
#    0.000    0.000    0.000    0.545    0.000    0.000 
#    0.000    0.000    0.000    0.000    0.000    0.000 
#
# Total GULP energy -244973.516136 kJ/mol
# GULP energy per Si atom -5567.579912 kJ/mol
# Density = 2.314026 g / cm^3
# Si number density = 23.193046 Si / 1000 Ang^3
#
#
#
# Elastic Constant Matrix: (Units=GPa)
#
#
# Indices 1 2 3 4 5 6 
#
# 1 111.3335 6.2397 13.7632 0.0000 0.0000 0.0000
# 2 6.2397 145.8838 19.7786 0.0000 0.0000 0.0000
# 3 13.7632 19.7786 38.0979 0.0000 0.0000 0.0000
# 4 0.0000 0.0000 0.0000 16.0425 0.0000 0.0000
# 5 0.0000 0.0000 0.0000 0.0000 -67.2436 0.0000
# 6 0.0000 0.0000 0.0000 0.0000 0.0000 8.0471
#
#
#
# Elastic Compliance Matrix: (Units=1/GPa)
#
#
# Indices 1 2 3 4 5 6 
#
# 1 0.009402 0.000063 -0.003429 0.000000 0.000000 0.000000
# 2 0.000063 0.007374 -0.003851 0.000000 0.000000 0.000000
# 3 -0.003429 -0.003851 0.029486 0.000000 0.000000 0.000000
# 4 0.000000 0.000000 0.000000 0.062334 0.000000 0.000000
# 5 0.000000 0.000000 0.000000 0.000000 -0.014871 0.000000
# 6 0.000000 0.000000 0.000000 0.000000 0.000000 0.124268
#
#
# Mechanical properties :
#
#
# Convention : Reuss Voigt Hill
#
# Bulk Modulus (GPa) = 31.41902 41.65313 36.53607
# Shear Modulus (GPa) = 20.57285 8.40477 14.48881
#
# Velocity S-wave (km/s) = 2.98153 1.90570 2.50212
# Velocity P-wave (km/s) = 5.04270 4.77918 4.91271
#
# Compressibility (1/GPa) = 0.03182786
#
# Stress axis : x y z
#
# Youngs Moduli (GPa) = 106.35538 135.60799 33.91408
#
# Poissons Ratio (x) = -0.00851 0.11630
# Poissons Ratio (y) = -0.00668 0.13060
# Poissons Ratio (z) = 0.36472 0.52223
#
# Static dielectric constant tensor:
#      x y z
#    x 1.869340 0.000000 0.000000 
#    y 0.000000 2.043670 0.000000 
#    z 0.000000 0.000000 2.098350 
# 
# From -- ./inp_files/13303.got.cif
#   From: 2010.05.17/outbox.cif.g08.bks.cpg/sg68_7_cif.got.tgz:13303.got - 2010.06.03 18:57:09.
