data_PCOD9507820
_publ_section_title
;
Structure prediction by ZEFSAII (Michael W. Deem and Ramdas Pophale) SiO2 
 PCOD9507820
Probable space group: C C C A
;
_chemical_formula_sum "Si O2"
_cell_formula_units_Z 88
_cell_length_a 17.387757
_cell_length_b 7.857690
_cell_length_c 32.735847
_cell_angle_alpha 90.000000
_cell_angle_beta 90.000000
_cell_angle_gamma 90.000000
_cell_volume 4472.620350
_symmetry_space_group_name_H-M "C C C A"
_symmetry_group_IT_number 68
_space_group.IT_coordinate_system_code '2'
_symmetry_cell_setting 'orthorhombic'
loop_
_space_group_symop_operation_xyz
x,y,z
-x,1/2-y,z
x,1/2-y,1/2-z
-x,y,1/2-z
-x,-y,-z
x,1/2+y,-z
-x,1/2+y,1/2+z
x,-y,1/2+z
1/2+x,1/2+y,z
1/2-x,-y,z
1/2+x,-y,1/2-z
1/2-x,1/2+y,1/2-z
1/2-x,1/2-y,-z
1/2+x,y,-z
1/2-x,y,1/2+z
1/2+x,1/2-y,1/2+z
loop_
_atom_site_type_symbol
_atom_site_label
_atom_site_fract_x
_atom_site_fract_y
_atom_site_fract_z
Si Si1 0.211285 0.314450 0.913234
Si Si2 0.393538 0.469208 0.472427
Si Si3 0.914175 0.053798 0.735917
Si Si4 0.000000 0.250000 0.030784
Si Si5 0.297568 0.250000 0.750000
Si Si6 0.195666 0.847137 0.327992
Si Si7 0.250000 0.500000 0.032504
O O1 0.250000 0.500000 0.915410
O O2 0.134190 0.336781 0.938945
O O3 0.191739 0.273437 0.866621
O O4 0.256213 0.164971 0.937806
O O5 0.437619 0.623530 0.449829
O O6 0.449015 0.370243 0.502594
O O7 0.322127 0.522298 0.501658
O O8 0.908898 0.250000 0.750000
O O9 0.884862 0.076673 0.688997
O O10 0.000000 0.998846 0.750000
O O11 0.852413 0.916668 0.752921
O O12 0.243096 0.269085 0.710430
O O13 0.250000 0.000000 0.342098
#
# Coordination Sequence:
#
# PCOD9507820 Si02
#       7
#    16  16  16   8   8  16   8
#     4  12  24  37  66  99 128 166 217 271 319 370
#     4  11  21  41  64  91 123 171 212 266 319 383
#     4  10  21  38  65  93 121 161 207 254 307 380
#     4  10  22  36  66  88 122 163 217 256 322 384
#     4  10  21  40  69  88 122 168 208 252 319 370
#     4  10  22  40  64  97 127 163 212 265 309 379
#     4  12  22  44  66  96 128 164 228 268 312 390
#
# _framework density 19.675266000000001
#
# number of rings (size 3 to 8) (size 9 to 14) (size 15 to 20)
#    0.000    1.273    4.545    1.909    2.545    0.000 
#    0.000    1.818    0.000    0.000    0.000    0.000 
#    0.000    0.000    0.000    0.000    0.000    0.000 
#
# Total GULP energy -244962.526463 kJ/mol
# GULP energy per Si atom -5567.330147 kJ/mol
# Density = 1.963048 g / cm^3
# Si number density = 19.675266 Si / 1000 Ang^3
#
#
#
# Elastic Constant Matrix: (Units=GPa)
#
#
# Indices 1 2 3 4 5 6 
#
# 1 105.4541 25.6241 38.5190 0.0000 0.0000 0.0000
# 2 25.6241 95.0449 27.9223 0.0000 0.0000 0.0000
# 3 38.5190 27.9223 100.0113 0.0000 0.0000 0.0000
# 4 0.0000 0.0000 0.0000 40.0696 0.0000 0.0000
# 5 0.0000 0.0000 0.0000 0.0000 9.1130 0.0000
# 6 0.0000 0.0000 0.0000 0.0000 0.0000 33.0182
#
#
#
# Elastic Compliance Matrix: (Units=1/GPa)
#
#
# Indices 1 2 3 4 5 6 
#
# 1 0.011353 -0.001935 -0.003832 0.000000 0.000000 0.000000
# 2 -0.001935 0.011791 -0.002547 0.000000 0.000000 0.000000
# 3 -0.003832 -0.002547 0.012186 0.000000 0.000000 0.000000
# 4 0.000000 0.000000 0.000000 0.024957 0.000000 0.000000
# 5 0.000000 0.000000 0.000000 0.000000 0.109733 0.000000
# 6 0.000000 0.000000 0.000000 0.000000 0.000000 0.030286
#
#
# Mechanical properties :
#
#
# Convention : Reuss Voigt Hill
#
# Bulk Modulus (GPa) = 53.47029 53.84903 53.65966
# Shear Modulus (GPa) = 22.40465 30.33649 26.37057
#
# Velocity S-wave (km/s) = 3.37816 3.93091 3.66497
# Velocity P-wave (km/s) = 6.51547 6.93044 6.72616
#
# Compressibility (1/GPa) = 0.01870197
#
# Stress axis : x y z
#
# Youngs Moduli (GPa) = 88.08440 84.80916 82.06204
#
# Poissons Ratio (x) = 0.16409 0.31448
# Poissons Ratio (y) = 0.17043 0.20900
# Poissons Ratio (z) = 0.33756 0.21599
#
# Static dielectric constant tensor:
#      x y z
#    x 1.798640 0.000000 0.000000 
#    y 0.000000 1.768270 0.000000 
#    z 0.000000 0.000000 1.692950 
# 
# From -- ./inp_files/55604.got.cif
#   From: 2010.05.17/outbox.cif.g08.bks.cpg/sg68_28_cif.got.tgz:55604.got - 2010.06.03 18:57:09.
