data_PCOD9507623
_publ_section_title
;
Structure prediction by ZEFSAII (Michael W. Deem and Ramdas Pophale) SiO2 
 PCOD9507623
Probable space group: C C C A
;
_chemical_formula_sum "Si O2"
_cell_formula_units_Z 64
_cell_length_a 38.875153
_cell_length_b 5.281871
_cell_length_c 14.819746
_cell_angle_alpha 90.000000
_cell_angle_beta 90.000000
_cell_angle_gamma 90.000000
_cell_volume 3042.990956
_symmetry_space_group_name_H-M "C C C A"
_symmetry_group_IT_number 68
_space_group.IT_coordinate_system_code '2'
_symmetry_cell_setting 'orthorhombic'
loop_
_space_group_symop_operation_xyz
x,y,z
-x,1/2-y,z
x,1/2-y,1/2-z
-x,y,1/2-z
-x,-y,-z
x,1/2+y,-z
-x,1/2+y,1/2+z
x,-y,1/2+z
1/2+x,1/2+y,z
1/2-x,-y,z
1/2+x,-y,1/2-z
1/2-x,1/2+y,1/2-z
1/2-x,1/2-y,-z
1/2+x,y,-z
1/2-x,y,1/2+z
1/2+x,1/2-y,1/2+z
loop_
_atom_site_type_symbol
_atom_site_label
_atom_site_fract_x
_atom_site_fract_y
_atom_site_fract_z
Si Si1 0.338709 0.386693 0.443923
Si Si2 0.417792 0.376367 0.440254
Si Si3 0.984794 0.503934 0.148078
Si Si4 0.731125 0.747348 0.642414
O O1 0.334900 0.677937 0.475808
O O2 0.377993 0.372524 0.410300
O O3 0.308909 0.293854 0.377966
O O4 0.423133 0.599155 0.515128
O O5 0.444178 0.455838 0.361553
O O6 0.000000 0.750000 0.101328
O O7 0.000000 0.503472 0.250000
O O8 0.000000 0.250000 0.107044
O O9 0.735446 0.750000 0.750000
O O10 0.750000 0.500000 0.605083
O O11 0.750000 0.000000 0.607844
#
# Coordination Sequence:
#
# PCOD9507623 Si02
#       4
#    16  16  16  16
#     4  10  21  37  58  85 116 147 191 236 282 338
#     4  10  21  37  58  83 114 149 186 234 288 339
#     4  10  21  37  56  81 114 143 187 239 275 341
#     4  10  21  37  57  83 118 153 192 233 280 335
#
# _framework density 21.031936999999999
#
# number of rings (size 3 to 8) (size 9 to 14) (size 15 to 20)
#    0.000    2.000    0.000    3.000    0.000    6.000 
#    4.500    0.000   11.000    0.000    0.000    0.000 
#    0.000    0.000    0.000    0.000    0.000    0.000 
#
# Total GULP energy -178344.565899 kJ/mol
# GULP energy per Si atom -5573.267684 kJ/mol
# Density = 2.098407 g / cm^3
# Si number density = 21.031937 Si / 1000 Ang^3
#
#
#
# Elastic Constant Matrix: (Units=GPa)
#
#
# Indices 1 2 3 4 5 6 
#
# 1 153.7299 56.7726 35.9240 0.0000 0.0000 0.0000
# 2 56.7726 173.0744 14.7956 0.0000 0.0000 0.0000
# 3 35.9240 14.7956 61.0141 0.0000 0.0000 0.0000
# 4 0.0000 0.0000 0.0000 -42.9153 0.0000 0.0000
# 5 0.0000 0.0000 0.0000 0.0000 529.9650 0.0000
# 6 0.0000 0.0000 0.0000 0.0000 0.0000 31.8687
#
#
#
# Elastic Compliance Matrix: (Units=1/GPa)
#
#
# Indices 1 2 3 4 5 6 
#
# 1 0.008407 -0.002384 -0.004372 0.000000 0.000000 0.000000
# 2 -0.002384 0.006576 -0.000191 0.000000 0.000000 0.000000
# 3 -0.004372 -0.000191 0.019010 0.000000 0.000000 0.000000
# 4 0.000000 0.000000 0.000000 -0.023302 0.000000 0.000000
# 5 0.000000 0.000000 0.000000 0.000000 0.001887 0.000000
# 6 0.000000 0.000000 0.000000 0.000000 0.000000 0.031379
#
#
# Mechanical properties :
#
#
# Convention : Reuss Voigt Hill
#
# Bulk Modulus (GPa) = 49.75231 66.97808 58.36520
# Shear Modulus (GPa) = 77.45892 122.47210 99.96551
#
# Velocity S-wave (km/s) = 6.07529 7.63923 6.90170
# Velocity P-wave (km/s) = 8.53927 10.47500 9.55627
#
# Compressibility (1/GPa) = 0.02009957
#
# Stress axis : x y z
#
# Youngs Moduli (GPa) = 118.94987 152.06380 52.60398
#
# Poissons Ratio (x) = 0.36251 0.22997
# Poissons Ratio (y) = 0.28357 0.01005
# Poissons Ratio (z) = 0.52002 0.02906
#
# Static dielectric constant tensor:
#      x y z
#    x 2.626680 0.000000 0.000000 
#    y 0.000000 1.768190 0.000000 
#    z 0.000000 0.000000 1.740460 
# 
# From -- ./inp_files/27128.got.cif
#   From: 2010.05.17/outbox.cif.g08.bks.cpg/sg68_14_cif.got.tgz:27128.got - 2010.06.03 18:57:09.
