data_PCOD9507880
_publ_section_title
;
Structure prediction by ZEFSAII (Michael W. Deem and Ramdas Pophale) SiO2 
 PCOD9507880
Probable space group: C C C A
;
_chemical_formula_sum "Si O2"
_cell_formula_units_Z 84
_cell_length_a 9.405362
_cell_length_b 20.845733
_cell_length_c 23.232507
_cell_angle_alpha 90.000000
_cell_angle_beta 90.000000
_cell_angle_gamma 90.000000
_cell_volume 4555.004005
_symmetry_space_group_name_H-M "C C C A"
_symmetry_group_IT_number 68
_space_group.IT_coordinate_system_code '2'
_symmetry_cell_setting 'orthorhombic'
loop_
_space_group_symop_operation_xyz
x,y,z
-x,1/2-y,z
x,1/2-y,1/2-z
-x,y,1/2-z
-x,-y,-z
x,1/2+y,-z
-x,1/2+y,1/2+z
x,-y,1/2+z
1/2+x,1/2+y,z
1/2-x,-y,z
1/2+x,-y,1/2-z
1/2-x,1/2+y,1/2-z
1/2-x,1/2-y,-z
1/2+x,y,-z
1/2-x,y,1/2+z
1/2+x,1/2-y,1/2+z
loop_
_atom_site_type_symbol
_atom_site_label
_atom_site_fract_x
_atom_site_fract_y
_atom_site_fract_z
Si Si1 0.473486 0.358539 0.186487
Si Si2 0.500000 0.250000 0.750000
Si Si3 0.541653 0.050113 0.074320
Si Si4 0.153300 0.775909 0.949686
Si Si5 0.855902 0.423957 0.465712
Si Si6 0.265179 0.261550 0.327001
O O1 0.500000 0.388176 0.250000
O O2 0.457651 0.409459 0.133859
O O3 0.342911 0.306416 0.190885
O O4 0.612724 0.314916 0.175423
O O5 0.379832 0.219891 0.707325
O O6 0.687780 0.064138 0.039911
O O7 0.556612 0.972640 0.075900
O O8 0.414727 0.067794 0.030658
O O9 0.132774 0.851485 0.946439
O O10 0.218015 0.749730 0.891447
O O11 0.000000 0.750000 0.961307
O O12 0.250000 0.750000 0.000000
#
# Coordination Sequence:
#
# PCOD9507880 Si02
#       6
#    16   4  16  16  16  16
#     4  11  21  39  62  92 122 166 212 255 312 391
#     4  12  20  42  56  92 120 174 200 258 322 374
#     4  10  21  39  65  85 125 170 212 254 314 369
#     4  12  24  35  58  94 129 158 202 262 319 374
#     4  10  21  39  60  90 123 167 206 256 310 380
#     4  11  22  37  60  90 130 161 206 259 322 377
#
# _framework density 18.441257
#
# number of rings (size 3 to 8) (size 9 to 14) (size 15 to 20)
#    0.000    1.143    4.762    2.857    2.667    0.000 
#    0.000    0.000    2.095   11.429    0.000    0.000 
#    0.000    0.000    0.000    0.000    0.000    0.000 
#
# Total GULP energy -233829.667694 kJ/mol
# GULP energy per Si atom -5567.373040 kJ/mol
# Density = 1.839928 g / cm^3
# Si number density = 18.441257 Si / 1000 Ang^3
#
#
#
# Elastic Constant Matrix: (Units=GPa)
#
#
# Indices 1 2 3 4 5 6 
#
# 1 124.6014 33.2610 65.6971 0.0000 0.0000 0.0000
# 2 33.2610 84.9272 48.5528 0.0000 0.0000 0.0000
# 3 65.6971 48.5528 145.7484 0.0000 0.0000 0.0000
# 4 0.0000 0.0000 0.0000 21.2801 0.0000 0.0000
# 5 0.0000 0.0000 0.0000 0.0000 42.1715 0.0000
# 6 0.0000 0.0000 0.0000 0.0000 0.0000 14.6991
#
#
#
# Elastic Compliance Matrix: (Units=1/GPa)
#
#
# Indices 1 2 3 4 5 6 
#
# 1 0.010740 -0.001777 -0.004249 0.000000 0.000000 0.000000
# 2 -0.001777 0.014839 -0.004142 0.000000 0.000000 0.000000
# 3 -0.004249 -0.004142 0.010156 0.000000 0.000000 0.000000
# 4 0.000000 0.000000 0.000000 0.046992 0.000000 0.000000
# 5 0.000000 0.000000 0.000000 0.000000 0.023713 0.000000
# 6 0.000000 0.000000 0.000000 0.000000 0.000000 0.068031
#
#
# Mechanical properties :
#
#
# Convention : Reuss Voigt Hill
#
# Bulk Modulus (GPa) = 64.94126 72.25542 68.59834
# Shear Modulus (GPa) = 25.00724 29.48122 27.24423
#
# Velocity S-wave (km/s) = 3.68645 4.00266 3.84780
# Velocity P-wave (km/s) = 7.30832 7.78641 7.55115
#
# Compressibility (1/GPa) = 0.01539853
#
# Stress axis : x y z
#
# Youngs Moduli (GPa) = 93.10589 67.39059 98.45968
#
# Poissons Ratio (x) = 0.11976 0.41839
# Poissons Ratio (y) = 0.16546 0.40784
# Poissons Ratio (z) = 0.39564 0.27915
#
# Static dielectric constant tensor:
#      x y z
#    x 1.673610 0.000000 0.000000 
#    y 0.000000 1.657360 0.000000 
#    z 0.000000 0.000000 1.668910 
# 
# From -- ./inp_files/43062.got.cif
#   From: 2010.05.17/outbox.cif.g08.bks.cpg/sg68_22_cif.got.tgz:43062.got - 2010.06.03 18:57:09.
