data_PCOD9507778
_publ_section_title
;
Structure prediction by ZEFSAII (Michael W. Deem and Ramdas Pophale) SiO2 
 PCOD9507778
Probable space group: C C C A
;
_chemical_formula_sum "Si O2"
_cell_formula_units_Z 56
_cell_length_a 5.472871
_cell_length_b 23.491770
_cell_length_c 18.019899
_cell_angle_alpha 90.000000
_cell_angle_beta 90.000000
_cell_angle_gamma 90.000000
_cell_volume 2316.772045
_symmetry_space_group_name_H-M "C C C A"
_symmetry_group_IT_number 68
_space_group.IT_coordinate_system_code '2'
_symmetry_cell_setting 'orthorhombic'
loop_
_space_group_symop_operation_xyz
x,y,z
-x,1/2-y,z
x,1/2-y,1/2-z
-x,y,1/2-z
-x,-y,-z
x,1/2+y,-z
-x,1/2+y,1/2+z
x,-y,1/2+z
1/2+x,1/2+y,z
1/2-x,-y,z
1/2+x,-y,1/2-z
1/2-x,1/2+y,1/2-z
1/2-x,1/2-y,-z
1/2+x,y,-z
1/2-x,y,1/2+z
1/2+x,1/2-y,1/2+z
loop_
_atom_site_type_symbol
_atom_site_label
_atom_site_fract_x
_atom_site_fract_y
_atom_site_fract_z
Si Si1 0.559200 0.860443 0.518601
Si Si2 0.500000 0.750000 0.088295
Si Si3 0.744819 0.560353 0.202636
Si Si4 0.611467 0.820109 0.831395
O O1 0.803595 0.891876 0.494959
O O2 0.513623 0.803749 0.468086
O O3 0.571691 0.839321 0.603253
O O4 0.726330 0.733160 0.141820
O O5 0.500000 0.554494 0.250000
O O6 0.750000 0.500000 0.158921
O O7 0.720199 0.623116 0.169091
O O8 0.000000 0.563628 0.250000
O O9 0.500000 0.813196 0.750000
#
# Coordination Sequence:
#
# PCOD9507778 Si02
#       4
#    16   8  16  16
#     4  10  21  40  59  78 117 168 199 232 302 370
#     4  10  22  42  58  82 130 170 194 238 315 376
#     4   9  19  37  59  86 121 156 196 258 323 359
#     4  10  21  38  62  92 121 159 216 259 293 360
#
# _framework density 24.171562000000002
#
# number of rings (size 3 to 8) (size 9 to 14) (size 15 to 20)
#    0.000    2.286    0.000    3.429    0.000    9.143 
#    0.000   24.286    0.000    6.857    0.000    2.000 
#    0.000    0.000    0.000    0.000    0.000    0.000 
#
# Total GULP energy -156011.379438 kJ/mol
# GULP energy per Si atom -5571.834980 kJ/mol
# Density = 2.411655 g / cm^3
# Si number density = 24.171562 Si / 1000 Ang^3
#
#
#
# Elastic Constant Matrix: (Units=GPa)
#
#
# Indices 1 2 3 4 5 6 
#
# 1 132.8041 -12.4643 31.5055 0.0000 0.0000 0.0000
# 2 -12.4643 88.3907 -12.4593 0.0000 0.0000 0.0000
# 3 31.5055 -12.4593 154.1227 0.0000 0.0000 0.0000
# 4 0.0000 0.0000 0.0000 -1.5846 0.0000 0.0000
# 5 0.0000 0.0000 0.0000 0.0000 36.2835 0.0000
# 6 0.0000 0.0000 0.0000 0.0000 0.0000 17.3678
#
#
#
# Elastic Compliance Matrix: (Units=1/GPa)
#
#
# Indices 1 2 3 4 5 6 
#
# 1 0.007985 0.000906 -0.001559 0.000000 0.000000 0.000000
# 2 0.000906 0.011547 0.000748 0.000000 0.000000 0.000000
# 3 -0.001559 0.000748 0.006868 0.000000 0.000000 0.000000
# 4 0.000000 0.000000 0.000000 -0.631074 0.000000 0.000000
# 5 0.000000 0.000000 0.000000 0.000000 0.027561 0.000000
# 6 0.000000 0.000000 0.000000 0.000000 0.000000 0.057578
#
#
# Mechanical properties :
#
#
# Convention : Reuss Voigt Hill
#
# Bulk Modulus (GPa) = 37.60843 43.16459 40.38651
# Shear Modulus (GPa) = -9.78735 34.99570 12.60418
#
# Velocity S-wave (km/s) = -2.01442 3.80913 2.28600
# Velocity P-wave (km/s) = 3.19095 6.10265 4.86952
#
# Compressibility (1/GPa) = 0.02658979
#
# Stress axis : x y z
#
# Youngs Moduli (GPa) = 125.23826 86.60513 145.61330
#
# Poissons Ratio (x) = -0.07848 0.22701
# Poissons Ratio (y) = -0.11349 -0.10895
# Poissons Ratio (z) = 0.19524 -0.06480
#
# Static dielectric constant tensor:
#      x y z
#    x 2.193850 0.000000 0.000000 
#    y 0.000000 2.036230 0.000000 
#    z 0.000000 0.000000 1.962990 
# 
# From -- ./inp_files/26992.got.cif
#   From: 2010.05.17/outbox.cif.g08.bks.cpg/sg68_14_cif.got.tgz:26992.got - 2010.06.03 18:57:09.
