data_PCOD9507011
_publ_section_title
;
Structure prediction by ZEFSAII (Michael W. Deem and Ramdas Pophale) SiO2 
 PCOD9507011
Probable space group: C C C A
;
_chemical_formula_sum "Si O2"
_cell_formula_units_Z 100
_cell_length_a 26.892911
_cell_length_b 8.556848
_cell_length_c 22.202508
_cell_angle_alpha 90.000000
_cell_angle_beta 90.000000
_cell_angle_gamma 90.000000
_cell_volume 5109.208985
_symmetry_space_group_name_H-M "C C C A"
_symmetry_group_IT_number 68
_space_group.IT_coordinate_system_code '2'
_symmetry_cell_setting 'orthorhombic'
loop_
_space_group_symop_operation_xyz
x,y,z
-x,1/2-y,z
x,1/2-y,1/2-z
-x,y,1/2-z
-x,-y,-z
x,1/2+y,-z
-x,1/2+y,1/2+z
x,-y,1/2+z
1/2+x,1/2+y,z
1/2-x,-y,z
1/2+x,-y,1/2-z
1/2-x,1/2+y,1/2-z
1/2-x,1/2-y,-z
1/2+x,y,-z
1/2-x,y,1/2+z
1/2+x,1/2-y,1/2+z
loop_
_atom_site_type_symbol
_atom_site_label
_atom_site_fract_x
_atom_site_fract_y
_atom_site_fract_z
Si Si1 0.750000 0.500000 0.033429
Si Si2 0.148148 0.933195 0.755625
Si Si3 0.500000 0.250000 0.250000
Si Si4 0.393707 0.579334 0.626709
Si Si5 0.750000 0.500000 0.817639
Si Si6 0.996606 0.060242 0.567303
Si Si7 0.925702 0.923220 0.337096
Si Si8 0.290749 0.308815 0.077525
O O1 0.714599 0.379484 0.070340
O O2 0.722156 0.615164 0.987035
O O3 0.154635 0.750000 0.750000
O O4 0.201843 0.001546 0.774700
O O5 0.114327 0.983157 0.812380
O O6 0.118930 0.989348 0.696321
O O7 0.466613 0.364788 0.289399
O O8 0.442297 0.517397 0.592882
O O9 0.404043 0.759615 0.641084
O O10 0.341744 0.599210 0.592496
O O11 0.745047 0.642433 0.866139
O O12 0.042198 0.000537 0.609120
O O13 0.000000 0.250000 0.568605
O O14 0.000000 0.000000 0.500000
#
# Coordination Sequence:
#
# PCOD9507011 Si02
#       8
#     8  16   4  16   8  16  16  16
#     4   9  18  36  55  82 112 162 213 253 298 372
#     4  11  23  38  61  92 122 153 206 264 313 368
#     4  12  16  40  70  84 116 160 222 242 284 398
#     4  10  20  38  59  84 116 163 203 248 315 383
#     4   9  22  40  53  84 126 156 189 259 322 374
#     4  10  22  39  59  86 122 158 204 254 310 370
#     4  11  20  38  64  85 115 165 204 245 308 382
#     4   9  19  34  57  80 116 157 205 255 310 368
#
# _framework density 19.572500999999999
#
# number of rings (size 3 to 8) (size 9 to 14) (size 15 to 20)
#    0.000    1.920    4.000    0.000    0.000    7.680 
#    0.000    6.000    0.000    0.000    0.000    0.000 
#    0.000    0.000    0.000    0.000    0.000    0.000 
#
# Total GULP energy -278368.063208 kJ/mol
# GULP energy per Si atom -5567.361264 kJ/mol
# Density = 1.952795 g / cm^3
# Si number density = 19.572501 Si / 1000 Ang^3
#
#
#
# Elastic Constant Matrix: (Units=GPa)
#
#
# Indices 1 2 3 4 5 6 
#
# 1 84.9596 5.0754 55.1990 0.0000 0.0000 0.0000
# 2 5.0754 47.3001 17.2126 0.0000 0.0000 0.0000
# 3 55.1990 17.2126 103.4623 0.0000 0.0000 0.0000
# 4 0.0000 0.0000 0.0000 20.7217 0.0000 0.0000
# 5 0.0000 0.0000 0.0000 0.0000 36.3008 0.0000
# 6 0.0000 0.0000 0.0000 0.0000 0.0000 13.8045
#
#
#
# Elastic Compliance Matrix: (Units=1/GPa)
#
#
# Indices 1 2 3 4 5 6 
#
# 1 0.018139 0.001677 -0.009956 0.000000 0.000000 0.000000
# 2 0.001677 0.022659 -0.004664 0.000000 0.000000 0.000000
# 3 -0.009956 -0.004664 0.015753 0.000000 0.000000 0.000000
# 4 0.000000 0.000000 0.000000 0.048259 0.000000 0.000000
# 5 0.000000 0.000000 0.000000 0.000000 0.027548 0.000000
# 6 0.000000 0.000000 0.000000 0.000000 0.000000 0.072440
#
#
# Mechanical properties :
#
#
# Convention : Reuss Voigt Hill
#
# Bulk Modulus (GPa) = 32.61214 43.41066 38.01140
# Shear Modulus (GPa) = 20.75496 24.71440 22.73468
#
# Velocity S-wave (km/s) = 3.25993 3.55732 3.41187
# Velocity P-wave (km/s) = 5.55589 6.25302 5.91474
#
# Compressibility (1/GPa) = 0.03066343
#
# Stress axis : x y z
#
# Youngs Moduli (GPa) = 55.13024 44.13248 63.47901
#
# Poissons Ratio (x) = -0.07400 0.63202
# Poissons Ratio (y) = -0.09244 0.29609
# Poissons Ratio (z) = 0.54890 0.20585
#
# Static dielectric constant tensor:
#      x y z
#    x 1.754280 0.000000 0.000000 
#    y 0.000000 1.669810 0.000000 
#    z 0.000000 0.000000 1.707860 
# 
# From -- ./inp_files/41604.got.cif
#   From: 2010.05.17/outbox.cif.g08.bks.cpg/sg68_21_cif.got.tgz:41604.got - 2010.06.03 18:57:09.
