data_PCOD9507784
_publ_section_title
;
Structure prediction by ZEFSAII (Michael W. Deem and Ramdas Pophale) SiO2 
 PCOD9507784
Probable space group: C C C A
;
_chemical_formula_sum "Si O2"
_cell_formula_units_Z 116
_cell_length_a 22.666507
_cell_length_b 25.502569
_cell_length_c 9.537823
_cell_angle_alpha 90.000000
_cell_angle_beta 90.000000
_cell_angle_gamma 90.000000
_cell_volume 5513.378251
_symmetry_space_group_name_H-M "C C C A"
_symmetry_group_IT_number 68
_space_group.IT_coordinate_system_code '2'
_symmetry_cell_setting 'orthorhombic'
loop_
_space_group_symop_operation_xyz
x,y,z
-x,1/2-y,z
x,1/2-y,1/2-z
-x,y,1/2-z
-x,-y,-z
x,1/2+y,-z
-x,1/2+y,1/2+z
x,-y,1/2+z
1/2+x,1/2+y,z
1/2-x,-y,z
1/2+x,-y,1/2-z
1/2-x,1/2+y,1/2-z
1/2-x,1/2-y,-z
1/2+x,y,-z
1/2-x,y,1/2+z
1/2+x,1/2-y,1/2+z
loop_
_atom_site_type_symbol
_atom_site_label
_atom_site_fract_x
_atom_site_fract_y
_atom_site_fract_z
Si Si1 0.034965 0.873758 0.885400
Si Si2 0.287955 0.048656 0.109424
Si Si3 0.038514 0.059058 0.936953
Si Si4 0.862841 0.188537 0.276599
Si Si5 0.900482 0.487892 0.212419
Si Si6 0.000000 0.750000 0.250000
Si Si7 0.435175 0.326551 0.046382
Si Si8 0.696311 0.094099 0.678366
O O1 0.090549 0.841616 0.827495
O O2 0.000000 0.895649 0.750000
O O3 0.025951 0.918709 0.007442
O O4 0.992319 0.828900 0.945450
O O5 0.295016 0.090930 0.987286
O O6 0.250000 0.000000 0.046531
O O7 0.249947 0.067009 0.240888
O O8 0.350613 0.027873 0.160003
O O9 0.068961 0.114227 0.895143
O O10 0.055136 0.017748 0.817052
O O11 0.068469 0.035976 0.076133
O O12 0.858234 0.250000 0.250000
O O13 0.882479 0.182676 0.438421
O O14 0.807507 0.152139 0.241924
O O15 0.862650 0.440986 0.286206
O O16 0.955074 0.785930 0.161734
#
# Coordination Sequence:
#
# PCOD9507784 Si02
#       8
#    16  16  16  16  16   4  16  16
#     4   8  17  39  60  87 124 168 210 266 317 383
#     4  10  22  37  67  94 126 172 215 275 340 409
#     4  10  21  38  62  97 133 170 217 271 316 402
#     4  11  21  40  68  90 124 174 225 271 329 403
#     4  11  19  39  64  94 134 169 215 261 337 397
#     4  12  20  40  62  92 124 176 228 278 326 376
#     4   9  21  37  61  89 126 163 224 275 313 380
#     4  11  22  39  64  97 125 167 225 271 331 411
#
# _framework density 21.039731
#
# number of rings (size 3 to 8) (size 9 to 14) (size 15 to 20)
#    0.828    1.103    2.759    2.069    1.931    1.931 
#    4.966    4.828    4.552    0.000    0.000    0.000 
#    0.000    0.000    0.000    0.000    0.000    0.000 
#
# Total GULP energy -323096.726019 kJ/mol
# GULP energy per Si atom -5570.633207 kJ/mol
# Density = 2.099184 g / cm^3
# Si number density = 21.039731 Si / 1000 Ang^3
#
#
#
# Elastic Constant Matrix: (Units=GPa)
#
#
# Indices 1 2 3 4 5 6 
#
# 1 49.8745 39.4648 25.3721 0.0000 0.0000 0.0000
# 2 39.4648 142.6952 51.1595 0.0000 0.0000 0.0000
# 3 25.3721 51.1595 99.7362 0.0000 0.0000 0.0000
# 4 0.0000 0.0000 0.0000 -23.2241 0.0000 0.0000
# 5 0.0000 0.0000 0.0000 0.0000 12.6602 0.0000
# 6 0.0000 0.0000 0.0000 0.0000 0.0000 8.4589
#
#
#
# Elastic Compliance Matrix: (Units=1/GPa)
#
#
# Indices 1 2 3 4 5 6 
#
# 1 0.026729 -0.006071 -0.003686 0.000000 0.000000 0.000000
# 2 -0.006071 0.009966 -0.003568 0.000000 0.000000 0.000000
# 3 -0.003686 -0.003568 0.012794 0.000000 0.000000 0.000000
# 4 0.000000 0.000000 0.000000 -0.043059 0.000000 0.000000
# 5 0.000000 0.000000 0.000000 0.000000 0.078988 0.000000
# 6 0.000000 0.000000 0.000000 0.000000 0.000000 0.118219
#
#
# Mechanical properties :
#
#
# Convention : Reuss Voigt Hill
#
# Bulk Modulus (GPa) = 43.78137 58.25544 51.01841
# Shear Modulus (GPa) = 21.01727 11.33294 16.17511
#
# Velocity S-wave (km/s) = 3.16402 2.32339 2.77571
# Velocity P-wave (km/s) = 5.84826 5.91151 5.87997
#
# Compressibility (1/GPa) = 0.02284076
#
# Stress axis : x y z
#
# Youngs Moduli (GPa) = 37.41229 100.34024 78.16135
#
# Poissons Ratio (x) = 0.60917 0.28807
# Poissons Ratio (y) = 0.22713 0.27885
# Poissons Ratio (z) = 0.13789 0.35798
#
# Static dielectric constant tensor:
#      x y z
#    x 1.821480 0.000000 0.000000 
#    y 0.000000 1.771230 0.000000 
#    z 0.000000 0.000000 1.868870 
# 
# From -- ./inp_files/9158.got.cif
#   From: 2010.05.17/outbox.cif.g08.bks.cpg/sg68_5_cif.got.tgz:9158.got - 2010.06.03 18:57:09.
