data_PCOD9507473
_publ_section_title
;
Structure prediction by ZEFSAII (Michael W. Deem and Ramdas Pophale) SiO2 
 PCOD9507473
Probable space group: C C C A
;
_chemical_formula_sum "Si O2"
_cell_formula_units_Z 120
_cell_length_a 18.124486
_cell_length_b 14.413803
_cell_length_c 20.834243
_cell_angle_alpha 90.000000
_cell_angle_beta 90.000000
_cell_angle_gamma 90.000000
_cell_volume 5442.795366
_symmetry_space_group_name_H-M "C C C A"
_symmetry_group_IT_number 68
_space_group.IT_coordinate_system_code '2'
_symmetry_cell_setting 'orthorhombic'
loop_
_space_group_symop_operation_xyz
x,y,z
-x,1/2-y,z
x,1/2-y,1/2-z
-x,y,1/2-z
-x,-y,-z
x,1/2+y,-z
-x,1/2+y,1/2+z
x,-y,1/2+z
1/2+x,1/2+y,z
1/2-x,-y,z
1/2+x,-y,1/2-z
1/2-x,1/2+y,1/2-z
1/2-x,1/2-y,-z
1/2+x,y,-z
1/2-x,y,1/2+z
1/2+x,1/2-y,1/2+z
loop_
_atom_site_type_symbol
_atom_site_label
_atom_site_fract_x
_atom_site_fract_y
_atom_site_fract_z
Si Si1 0.102926 0.623943 0.647615
Si Si2 0.650243 0.943473 0.012736
Si Si3 0.000000 0.750000 0.564355
Si Si4 0.101256 0.770993 0.049867
Si Si5 0.162714 0.485785 0.259645
Si Si6 0.632641 0.189921 0.310513
Si Si7 0.190318 0.360164 0.485014
Si Si8 0.305338 0.197021 0.660310
O O1 0.144621 0.578042 0.587560
O O2 0.031574 0.670576 0.612359
O O3 0.107399 0.546619 0.702986
O O4 0.147961 0.711528 0.676197
O O5 0.596266 0.876371 0.974145
O O6 0.728970 0.905327 0.990188
O O7 0.640133 0.049846 0.997416
O O8 0.059292 0.779960 0.509553
O O9 0.089087 0.778440 0.125455
O O10 0.177993 0.716617 0.039583
O O11 0.250000 0.500000 0.238424
O O12 0.134309 0.580084 0.293446
O O13 0.167780 0.398353 0.307476
O O14 0.607896 0.250000 0.250000
O O15 0.719641 0.210956 0.322994
O O16 0.183533 0.317846 0.415059
#
# Coordination Sequence:
#
# PCOD9507473 Si02
#       8
#    16  16   8  16  16  16  16  16
#     4  11  22  41  63  93 136 170 231 278 334 404
#     4  10  21  32  59  96 123 164 209 276 343 404
#     4  10  24  44  68  94 122 182 234 280 324 372
#     4  11  21  42  61  89 130 171 222 277 324 394
#     4  10  23  37  62  99 137 174 208 272 350 427
#     4  11  23  37  64  95 133 168 212 273 351 418
#     4  11  20  32  62  94 131 163 208 275 345 400
#     4  11  19  37  61  96 130 170 209 273 357 408
#
# _framework density 22.047495000000001
#
# number of rings (size 3 to 8) (size 9 to 14) (size 15 to 20)
#    0.000    1.333    4.000    4.000    7.467    0.000 
#    0.000    4.333    0.000    1.600    0.000    0.000 
#    0.000    0.000    0.000    0.000    0.000    0.000 
#
# Total GULP energy -334309.376836 kJ/mol
# GULP energy per Si atom -5571.822947 kJ/mol
# Density = 2.199731 g / cm^3
# Si number density = 22.047495 Si / 1000 Ang^3
#
#
#
# Elastic Constant Matrix: (Units=GPa)
#
#
# Indices 1 2 3 4 5 6 
#
# 1 33.2259 24.0751 30.7966 0.0000 0.0000 0.0000
# 2 24.0751 116.9586 41.4271 0.0000 0.0000 0.0000
# 3 30.7966 41.4271 148.4146 0.0000 0.0000 0.0000
# 4 0.0000 0.0000 0.0000 261.4398 0.0000 0.0000
# 5 0.0000 0.0000 0.0000 0.0000 20.8899 0.0000
# 6 0.0000 0.0000 0.0000 0.0000 0.0000 12.9736
#
#
#
# Elastic Compliance Matrix: (Units=1/GPa)
#
#
# Indices 1 2 3 4 5 6 
#
# 1 0.040713 -0.005979 -0.006779 0.000000 0.000000 0.000000
# 2 -0.005979 0.010366 -0.001653 0.000000 0.000000 0.000000
# 3 -0.006779 -0.001653 0.008606 0.000000 0.000000 0.000000
# 4 0.000000 0.000000 0.000000 0.003825 0.000000 0.000000
# 5 0.000000 0.000000 0.000000 0.000000 0.047870 0.000000
# 6 0.000000 0.000000 0.000000 0.000000 0.000000 0.077080
#
#
# Mechanical properties :
#
#
# Convention : Reuss Voigt Hill
#
# Bulk Modulus (GPa) = 32.40155 54.57742 43.48948
# Shear Modulus (GPa) = 21.97128 72.54734 47.25931
#
# Velocity S-wave (km/s) = 3.16023 5.74251 4.63484
# Velocity P-wave (km/s) = 5.29568 8.29318 6.95777
#
# Compressibility (1/GPa) = 0.03086272
#
# Stress axis : x y z
#
# Youngs Moduli (GPa) = 24.56224 96.46685 116.19907
#
# Poissons Ratio (x) = 0.57680 0.78772
# Poissons Ratio (y) = 0.14686 0.19206
# Poissons Ratio (z) = 0.16651 0.15944
#
# Static dielectric constant tensor:
#      x y z
#    x 2.677030 0.000000 0.000000 
#    y 0.000000 1.849860 0.000000 
#    z 0.000000 0.000000 1.801890 
# 
# From -- ./inp_files/40388.got.cif
#   From: 2010.05.17/outbox.cif.g08.bks.cpg/sg68_21_cif.got.tgz:40388.got - 2010.06.03 18:57:09.
