data_PCOD9507198
_publ_section_title
;
Structure prediction by ZEFSAII (Michael W. Deem and Ramdas Pophale) SiO2 
 PCOD9507198
Probable space group: C C C A
;
_chemical_formula_sum "Si O2"
_cell_formula_units_Z 112
_cell_length_a 14.698956
_cell_length_b 14.964618
_cell_length_c 25.084630
_cell_angle_alpha 90.000000
_cell_angle_beta 90.000000
_cell_angle_gamma 90.000000
_cell_volume 5517.722114
_symmetry_space_group_name_H-M "C C C A"
_symmetry_group_IT_number 68
_space_group.IT_coordinate_system_code '2'
_symmetry_cell_setting 'orthorhombic'
loop_
_space_group_symop_operation_xyz
x,y,z
-x,1/2-y,z
x,1/2-y,1/2-z
-x,y,1/2-z
-x,-y,-z
x,1/2+y,-z
-x,1/2+y,1/2+z
x,-y,1/2+z
1/2+x,1/2+y,z
1/2-x,-y,z
1/2+x,-y,1/2-z
1/2-x,1/2+y,1/2-z
1/2-x,1/2-y,-z
1/2+x,y,-z
1/2-x,y,1/2+z
1/2+x,1/2-y,1/2+z
loop_
_atom_site_type_symbol
_atom_site_label
_atom_site_fract_x
_atom_site_fract_y
_atom_site_fract_z
Si Si1 0.899808 0.121291 0.744915
Si Si2 0.801516 0.365116 0.111642
Si Si3 0.220081 0.290912 0.195019
Si Si4 0.127533 0.948701 0.138400
Si Si5 0.945952 0.976272 0.073674
Si Si6 0.849724 0.474623 0.325733
Si Si7 0.457702 0.350133 0.975345
O O1 0.823064 0.174657 0.710702
O O2 0.866114 0.099610 0.804588
O O3 0.000000 0.161014 0.750000
O O4 0.914643 0.028479 0.713169
O O5 0.783132 0.280115 0.148078
O O6 0.847235 0.446865 0.144679
O O7 0.702099 0.405221 0.098762
O O8 0.869936 0.345745 0.063418
O O9 0.185801 0.250000 0.250000
O O10 0.152010 0.369431 0.178138
O O11 0.030816 0.944891 0.110030
O O12 0.864542 0.991576 0.114660
O O13 0.929676 0.899538 0.030238
O O14 0.974194 0.073262 0.049090
O O15 0.750000 0.500000 0.305438
O O16 0.500000 0.250000 0.980702
#
# Coordination Sequence:
#
# PCOD9507198 Si02
#       7
#    16  16  16  16  16  16  16
#     4  11  21  37  61  90 133 173 208 257 322 397
#     4  10  21  39  65  91 127 170 215 266 331 393
#     4  11  21  36  60  96 133 171 212 265 325 400
#     4  10  20  39  65  91 125 172 211 259 328 409
#     4  10  21  43  64  93 125 168 227 275 340 395
#     4  10  22  38  61  88 130 175 208 265 322 394
#     4  10  22  43  68  91 125 167 221 292 333 392
#
# _framework density 20.298231999999999
#
# number of rings (size 3 to 8) (size 9 to 14) (size 15 to 20)
#    0.000    1.714    2.857    1.714    4.000    0.286 
#   12.857    0.714    0.000    0.000    0.000    0.000 
#    0.000    0.000    0.000    0.000    0.000    0.000 
#
# Total GULP energy -312127.386949 kJ/mol
# GULP energy per Si atom -5573.703338 kJ/mol
# Density = 2.025203 g / cm^3
# Si number density = 20.298232 Si / 1000 Ang^3
#
#
#
# Elastic Constant Matrix: (Units=GPa)
#
#
# Indices 1 2 3 4 5 6 
#
# 1 72.5894 50.4251 43.6812 0.0000 0.0000 0.0000
# 2 50.4251 152.4383 63.6850 0.0000 0.0000 0.0000
# 3 43.6812 63.6850 98.1224 0.0000 0.0000 0.0000
# 4 0.0000 0.0000 0.0000 32.7115 0.0000 0.0000
# 5 0.0000 0.0000 0.0000 0.0000 31.4352 0.0000
# 6 0.0000 0.0000 0.0000 0.0000 0.0000 3.4050
#
#
#
# Elastic Compliance Matrix: (Units=1/GPa)
#
#
# Indices 1 2 3 4 5 6 
#
# 1 0.020509 -0.004075 -0.006485 0.000000 0.000000 0.000000
# 2 -0.004075 0.009810 -0.004553 0.000000 0.000000 0.000000
# 3 -0.006485 -0.004553 0.016034 0.000000 0.000000 0.000000
# 4 0.000000 0.000000 0.000000 0.030570 0.000000 0.000000
# 5 0.000000 0.000000 0.000000 0.000000 0.031811 0.000000
# 6 0.000000 0.000000 0.000000 0.000000 0.000000 0.293686
#
#
# Mechanical properties :
#
#
# Convention : Reuss Voigt Hill
#
# Bulk Modulus (GPa) = 62.01046 70.97030 66.49038
# Shear Modulus (GPa) = 11.41493 24.53427 17.97460
#
# Velocity S-wave (km/s) = 2.37399 3.48039 2.97901
# Velocity P-wave (km/s) = 6.17498 7.15476 6.68285
#
# Compressibility (1/GPa) = 0.01612631
#
# Stress axis : x y z
#
# Youngs Moduli (GPa) = 48.75803 101.93532 62.36879
#
# Poissons Ratio (x) = 0.41537 0.40449
# Poissons Ratio (y) = 0.19868 0.28397
# Poissons Ratio (z) = 0.31622 0.46413
#
# Static dielectric constant tensor:
#      x y z
#    x 1.771290 0.000000 0.000000 
#    y 0.000000 1.802840 0.000000 
#    z 0.000000 0.000000 1.705830 
# 
# From -- ./inp_files/50987.got.cif
#   From: 2010.05.17/outbox.cif.g08.bks.cpg/sg68_26_cif.got.tgz:50987.got - 2010.06.03 18:57:09.
