data_PCOD9507767
_publ_section_title
;
Structure prediction by ZEFSAII (Michael W. Deem and Ramdas Pophale) SiO2 
 PCOD9507767
Probable space group: C C C A
;
_chemical_formula_sum "Si O2"
_cell_formula_units_Z 80
_cell_length_a 16.629863
_cell_length_b 8.573364
_cell_length_c 27.164355
_cell_angle_alpha 90.000000
_cell_angle_beta 90.000000
_cell_angle_gamma 90.000000
_cell_volume 3872.927185
_symmetry_space_group_name_H-M "C C C A"
_symmetry_group_IT_number 68
_space_group.IT_coordinate_system_code '2'
_symmetry_cell_setting 'orthorhombic'
loop_
_space_group_symop_operation_xyz
x,y,z
-x,1/2-y,z
x,1/2-y,1/2-z
-x,y,1/2-z
-x,-y,-z
x,1/2+y,-z
-x,1/2+y,1/2+z
x,-y,1/2+z
1/2+x,1/2+y,z
1/2-x,-y,z
1/2+x,-y,1/2-z
1/2-x,1/2+y,1/2-z
1/2-x,1/2-y,-z
1/2+x,y,-z
1/2-x,y,1/2+z
1/2+x,1/2-y,1/2+z
loop_
_atom_site_type_symbol
_atom_site_label
_atom_site_fract_x
_atom_site_fract_y
_atom_site_fract_z
Si Si1 0.930826 0.915280 0.533444
Si Si2 0.740664 0.813942 0.195350
Si Si3 0.918393 0.225567 0.364791
Si Si4 0.832340 0.904015 0.372901
Si Si5 0.169501 0.295053 0.528909
O O1 0.936302 0.842170 0.588557
O O2 0.903959 0.767407 0.502882
O O3 0.851957 0.025701 0.535463
O O4 0.000000 0.000000 0.500000
O O5 0.726640 0.750000 0.250000
O O6 0.662551 0.780245 0.161905
O O7 0.815615 0.713335 0.172792
O O8 0.750000 0.000000 0.195966
O O9 0.000000 0.250000 0.333962
O O10 0.900324 0.039835 0.373883
O O11 0.836590 0.793992 0.419932
O O12 0.750000 0.000000 0.377506
O O13 0.250000 0.250000 0.500000
#
# Coordination Sequence:
#
# PCOD9507767 Si02
#       5
#    16  16  16  16  16
#     4  12  24  38  56  85 127 173 211 257 320 381
#     4  11  23  44  70  96 125 163 210 269 338 404
#     4  11  23  41  63  91 128 170 215 266 320 388
#     4  10  21  38  61  91 123 161 210 263 319 381
#     4  12  22  35  56  83 116 160 214 261 302 366
#
# _framework density 20.656210999999999
#
# number of rings (size 3 to 8) (size 9 to 14) (size 15 to 20)
#    0.000    0.800    0.000   11.400    0.000    0.400 
#    0.000    3.000    0.000    1.200    0.000    0.000 
#    0.000    0.000    0.000    0.000    0.000    0.000 
#
# Total GULP energy -222789.541185 kJ/mol
# GULP energy per Si atom -5569.738530 kJ/mol
# Density = 2.060920 g / cm^3
# Si number density = 20.656211 Si / 1000 Ang^3
#
#
#
# Elastic Constant Matrix: (Units=GPa)
#
#
# Indices 1 2 3 4 5 6 
#
# 1 108.9582 62.6218 31.6242 0.0000 0.0000 0.0000
# 2 62.6218 162.1114 41.2892 0.0000 0.0000 0.0000
# 3 31.6242 41.2892 89.7454 0.0000 0.0000 0.0000
# 4 0.0000 0.0000 0.0000 35.8853 0.0000 0.0000
# 5 0.0000 0.0000 0.0000 0.0000 11.0154 0.0000
# 6 0.0000 0.0000 0.0000 0.0000 0.0000 35.2108
#
#
#
# Elastic Compliance Matrix: (Units=1/GPa)
#
#
# Indices 1 2 3 4 5 6 
#
# 1 0.012245 -0.004113 -0.002423 0.000000 0.000000 0.000000
# 2 -0.004113 0.008369 -0.002401 0.000000 0.000000 0.000000
# 3 -0.002423 -0.002401 0.013101 0.000000 0.000000 0.000000
# 4 0.000000 0.000000 0.000000 0.027867 0.000000 0.000000
# 5 0.000000 0.000000 0.000000 0.000000 0.090782 0.000000
# 6 0.000000 0.000000 0.000000 0.000000 0.000000 0.028400
#
#
# Mechanical properties :
#
#
# Convention : Reuss Voigt Hill
#
# Bulk Modulus (GPa) = 63.12478 70.20949 66.66713
# Shear Modulus (GPa) = 24.51972 31.44095 27.98033
#
# Velocity S-wave (km/s) = 3.44908 3.90565 3.68444
# Velocity P-wave (km/s) = 6.81818 7.37578 7.10245
#
# Compressibility (1/GPa) = 0.01584164
#
# Stress axis : x y z
#
# Youngs Moduli (GPa) = 81.66707 119.48953 76.33072
#
# Poissons Ratio (x) = 0.49146 0.18491
# Poissons Ratio (y) = 0.33590 0.18327
# Poissons Ratio (z) = 0.19784 0.28689
#
# Static dielectric constant tensor:
#      x y z
#    x 1.819950 0.000000 0.000000 
#    y 0.000000 1.783630 0.000000 
#    z 0.000000 0.000000 1.923660 
# 
# From -- ./inp_files/51300.got.cif
#   From: 2010.05.17/outbox.cif.g08.bks.cpg/sg68_26_cif.got.tgz:51300.got - 2010.06.03 18:57:09.
