data_PCOD9507713
_publ_section_title
;
Structure prediction by ZEFSAII (Michael W. Deem and Ramdas Pophale) SiO2 
 PCOD9507713
Probable space group: C C C A
;
_chemical_formula_sum "Si O2"
_cell_formula_units_Z 80
_cell_length_a 11.423400
_cell_length_b 25.298155
_cell_length_c 14.497381
_cell_angle_alpha 90.000000
_cell_angle_beta 90.000000
_cell_angle_gamma 90.000000
_cell_volume 4189.611818
_symmetry_space_group_name_H-M "C C C A"
_symmetry_group_IT_number 68
_space_group.IT_coordinate_system_code '2'
_symmetry_cell_setting 'orthorhombic'
loop_
_space_group_symop_operation_xyz
x,y,z
-x,1/2-y,z
x,1/2-y,1/2-z
-x,y,1/2-z
-x,-y,-z
x,1/2+y,-z
-x,1/2+y,1/2+z
x,-y,1/2+z
1/2+x,1/2+y,z
1/2-x,-y,z
1/2+x,-y,1/2-z
1/2-x,1/2+y,1/2-z
1/2-x,1/2-y,-z
1/2+x,y,-z
1/2-x,y,1/2+z
1/2+x,1/2-y,1/2+z
loop_
_atom_site_type_symbol
_atom_site_label
_atom_site_fract_x
_atom_site_fract_y
_atom_site_fract_z
Si Si1 0.303162 0.114905 0.077829
Si Si2 0.850531 0.544329 0.704988
Si Si3 0.009721 0.469354 0.596108
Si Si4 0.139600 0.809947 0.235781
Si Si5 0.739675 0.900607 0.631977
O O1 0.193642 0.085406 0.126426
O O2 0.417268 0.078670 0.095565
O O3 0.325885 0.168276 0.134743
O O4 0.282235 0.116821 0.968778
O O5 0.750000 0.500000 0.709529
O O6 0.839542 0.574783 0.802122
O O7 0.960390 0.512280 0.667058
O O8 0.136354 0.444377 0.617747
O O9 0.000000 0.500000 0.500000
O O10 0.180859 0.750000 0.250000
O O11 0.189983 0.851388 0.309999
O O12 0.000000 0.810847 0.250000
#
# Coordination Sequence:
#
# PCOD9507713 Si02
#       5
#    16  16  16  16  16
#     4  10  21  38  55  91 117 151 210 245 294 379
#     4   9  21  33  52  83 119 159 202 231 282 367
#     4  11  21  37  56  82 125 172 192 241 296 359
#     4  10  21  41  65  85 112 156 207 263 314 358
#     4  11  22  38  60  86 124 158 202 256 298 367
#
# _framework density 19.094847000000001
#
# number of rings (size 3 to 8) (size 9 to 14) (size 15 to 20)
#    0.000    1.800    4.000    0.000    2.800    0.800 
#    0.000    0.000    0.000    0.000    0.000    1.400 
#    0.000    0.000    0.000    0.000    0.000    0.000 
#
# Total GULP energy -223329.405459 kJ/mol
# GULP energy per Si atom -5583.235136 kJ/mol
# Density = 1.905139 g / cm^3
# Si number density = 19.094847 Si / 1000 Ang^3
#
#
#
# Elastic Constant Matrix: (Units=GPa)
#
#
# Indices 1 2 3 4 5 6 
#
# 1 53.1334 39.1064 42.1141 0.0000 0.0000 0.0000
# 2 39.1064 136.2942 70.7798 0.0000 0.0000 0.0000
# 3 42.1141 70.7798 201.6823 0.0000 0.0000 0.0000
# 4 0.0000 0.0000 0.0000 21.7849 0.0000 0.0000
# 5 0.0000 0.0000 0.0000 0.0000 24.2296 0.0000
# 6 0.0000 0.0000 0.0000 0.0000 0.0000 19.3845
#
#
#
# Elastic Compliance Matrix: (Units=1/GPa)
#
#
# Indices 1 2 3 4 5 6 
#
# 1 0.025621 -0.005592 -0.003388 0.000000 0.000000 0.000000
# 2 -0.005592 0.010193 -0.002409 0.000000 0.000000 0.000000
# 3 -0.003388 -0.002409 0.006511 0.000000 0.000000 0.000000
# 4 0.000000 0.000000 0.000000 0.045903 0.000000 0.000000
# 5 0.000000 0.000000 0.000000 0.000000 0.041272 0.000000
# 6 0.000000 0.000000 0.000000 0.000000 0.000000 0.051588
#
#
# Mechanical properties :
#
#
# Convention : Reuss Voigt Hill
#
# Bulk Modulus (GPa) = 51.15837 77.23451 64.19644
# Shear Modulus (GPa) = 23.76622 29.02043 26.39332
#
# Velocity S-wave (km/s) = 3.53177 3.90270 3.72186
# Velocity P-wave (km/s) = 6.59402 7.80024 7.22235
#
# Compressibility (1/GPa) = 0.01954714
#
# Stress axis : x y z
#
# Youngs Moduli (GPa) = 39.02973 98.10753 153.58062
#
# Poissons Ratio (x) = 0.54865 0.52026
# Poissons Ratio (y) = 0.21827 0.37004
# Poissons Ratio (z) = 0.13221 0.23638
#
# Static dielectric constant tensor:
#      x y z
#    x 1.724470 0.000000 0.000000 
#    y 0.000000 1.639710 0.000000 
#    z 0.000000 0.000000 1.730870 
# 
# From -- ./inp_files/20838.got.cif
#   From: 2010.05.17/outbox.cif.g08.bks.cpg/sg68_11_cif.got.tgz:20838.got - 2010.06.03 18:57:09.
