data_PCOD9507188
_publ_section_title
;
Structure prediction by ZEFSAII (Michael W. Deem and Ramdas Pophale) SiO2 
 PCOD9507188
Probable space group: C C C A
;
_chemical_formula_sum "Si O2"
_cell_formula_units_Z 116
_cell_length_a 9.257951
_cell_length_b 21.298057
_cell_length_c 26.708493
_cell_angle_alpha 90.000000
_cell_angle_beta 90.000000
_cell_angle_gamma 90.000000
_cell_volume 5266.283647
_symmetry_space_group_name_H-M "C C C A"
_symmetry_group_IT_number 68
_space_group.IT_coordinate_system_code '2'
_symmetry_cell_setting 'orthorhombic'
loop_
_space_group_symop_operation_xyz
x,y,z
-x,1/2-y,z
x,1/2-y,1/2-z
-x,y,1/2-z
-x,-y,-z
x,1/2+y,-z
-x,1/2+y,1/2+z
x,-y,1/2+z
1/2+x,1/2+y,z
1/2-x,-y,z
1/2+x,-y,1/2-z
1/2-x,1/2+y,1/2-z
1/2-x,1/2-y,-z
1/2+x,y,-z
1/2-x,y,1/2+z
1/2+x,1/2-y,1/2+z
loop_
_atom_site_type_symbol
_atom_site_label
_atom_site_fract_x
_atom_site_fract_y
_atom_site_fract_z
Si Si1 0.946803 0.420458 0.901248
Si Si2 0.108400 0.809904 0.472604
Si Si3 0.841657 0.737038 0.579733
Si Si4 0.811952 0.062327 0.176761
Si Si5 0.733678 0.317708 0.759395
Si Si6 0.000000 0.250000 0.750000
Si Si7 0.393225 0.466004 0.871748
Si Si8 0.290926 0.855091 0.647008
O O1 0.942176 0.375113 0.949077
O O2 0.794405 0.430427 0.872149
O O3 0.031295 0.486343 0.911079
O O4 0.053499 0.384391 0.862910
O O5 0.134006 0.808407 0.531893
O O6 0.260959 0.795452 0.445782
O O7 0.000000 0.750000 0.463282
O O8 0.733321 0.711452 0.621109
O O9 0.000000 0.750000 0.601294
O O10 0.819933 0.128523 0.204630
O O11 0.975549 0.044688 0.165120
O O12 0.750000 0.000000 0.204245
O O13 0.658679 0.250000 0.750000
O O14 0.756566 0.348796 0.705151
O O15 0.890482 0.294156 0.779471
O O16 0.250000 0.500000 0.850910
O O17 0.326801 0.398137 0.882227
#
# Coordination Sequence:
#
# PCOD9507188 Si02
#       8
#    16  16  16  16  16   4  16  16
#     4  10  21  38  67  90 122 168 214 273 326 390
#     4  10  20  39  64  93 127 162 218 265 330 406
#     4  10  23  37  59  96 126 167 211 267 333 402
#     4  10  22  41  66  97 129 175 231 275 327 400
#     4  10  23  37  61  96 134 174 223 272 327 391
#     4   8  20  40  60  98 136 168 226 270 332 392
#     4   9  22  42  61  92 126 166 221 269 331 393
#     4  11  22  39  60  88 132 173 212 273 330 389
#
# _framework density 22.026918999999999
#
# number of rings (size 3 to 8) (size 9 to 14) (size 15 to 20)
#    0.414    1.655    1.379    0.828    3.862    2.207 
#    0.000    5.517    0.000    5.793    0.000    0.000 
#    0.000    0.000    0.000    0.000    0.000    0.000 
#
# Total GULP energy -322965.597189 kJ/mol
# GULP energy per Si atom -5568.372365 kJ/mol
# Density = 2.197679 g / cm^3
# Si number density = 22.026919 Si / 1000 Ang^3
#
#
#
# Elastic Constant Matrix: (Units=GPa)
#
#
# Indices 1 2 3 4 5 6 
#
# 1 113.9155 22.8999 8.5836 0.0000 0.0000 0.0000
# 2 22.8999 106.6667 25.9385 0.0000 0.0000 0.0000
# 3 8.5836 25.9385 35.7815 0.0000 0.0000 0.0000
# 4 0.0000 0.0000 0.0000 23.4804 0.0000 0.0000
# 5 0.0000 0.0000 0.0000 0.0000 5.7214 0.0000
# 6 0.0000 0.0000 0.0000 0.0000 0.0000 16.0785
#
#
#
# Elastic Compliance Matrix: (Units=1/GPa)
#
#
# Indices 1 2 3 4 5 6 
#
# 1 0.009200 -0.001746 -0.000941 0.000000 0.000000 0.000000
# 2 -0.001746 0.011713 -0.008072 0.000000 0.000000 0.000000
# 3 -0.000941 -0.008072 0.034025 0.000000 0.000000 0.000000
# 4 0.000000 0.000000 0.000000 0.042589 0.000000 0.000000
# 5 0.000000 0.000000 0.000000 0.000000 0.174783 0.000000
# 6 0.000000 0.000000 0.000000 0.000000 0.000000 0.062195
#
#
# Mechanical properties :
#
#
# Convention : Reuss Voigt Hill
#
# Bulk Modulus (GPa) = 29.92295 41.24529 35.58412
# Shear Modulus (GPa) = 13.61793 22.31884 17.96839
#
# Velocity S-wave (km/s) = 2.48914 3.18662 2.85923
# Velocity P-wave (km/s) = 4.67710 5.68375 5.20482
#
# Compressibility (1/GPa) = 0.03341917
#
# Stress axis : x y z
#
# Youngs Moduli (GPa) = 108.69082 85.37695 29.39052
#
# Poissons Ratio (x) = 0.14910 0.02766
# Poissons Ratio (y) = 0.18981 0.23724
# Poissons Ratio (z) = 0.10229 0.68915
#
# Static dielectric constant tensor:
#      x y z
#    x 1.847990 0.000000 0.000000 
#    y 0.000000 2.034580 0.000000 
#    z 0.000000 0.000000 1.768070 
# 
# From -- ./inp_files/49653.got.cif
#   From: 2010.05.17/outbox.cif.g08.bks.cpg/sg68_25_cif.got.tgz:49653.got - 2010.06.03 18:57:09.
