data_PCOD9507724
_publ_section_title
;
Structure prediction by ZEFSAII (Michael W. Deem and Ramdas Pophale) SiO2 
 PCOD9507724
Probable space group: C C C A
;
_chemical_formula_sum "Si O2"
_cell_formula_units_Z 64
_cell_length_a 28.023844
_cell_length_b 5.401145
_cell_length_c 16.911279
_cell_angle_alpha 90.000000
_cell_angle_beta 90.000000
_cell_angle_gamma 90.000000
_cell_volume 2559.705478
_symmetry_space_group_name_H-M "C C C A"
_symmetry_group_IT_number 68
_space_group.IT_coordinate_system_code '2'
_symmetry_cell_setting 'orthorhombic'
loop_
_space_group_symop_operation_xyz
x,y,z
-x,1/2-y,z
x,1/2-y,1/2-z
-x,y,1/2-z
-x,-y,-z
x,1/2+y,-z
-x,1/2+y,1/2+z
x,-y,1/2+z
1/2+x,1/2+y,z
1/2-x,-y,z
1/2+x,-y,1/2-z
1/2-x,1/2+y,1/2-z
1/2-x,1/2-y,-z
1/2+x,y,-z
1/2-x,y,1/2+z
1/2+x,1/2-y,1/2+z
loop_
_atom_site_type_symbol
_atom_site_label
_atom_site_fract_x
_atom_site_fract_y
_atom_site_fract_z
Si Si1 0.055277 0.820930 0.530829
Si Si2 0.931125 0.497916 0.207885
Si Si3 0.174953 0.999348 0.274181
Si Si4 0.307764 0.992817 0.452411
O O1 0.075876 0.539495 0.525677
O O2 0.000000 0.750000 0.512927
O O3 0.058555 0.952767 0.616095
O O4 0.948323 0.750000 0.250000
O O5 0.874180 0.501024 0.223832
O O6 0.948924 0.250000 0.250000
O O7 0.200239 0.750000 0.250000
O O8 0.167497 0.998832 0.367482
O O9 0.199799 0.250000 0.250000
O O10 0.319009 0.236678 0.503272
O O11 0.250000 0.000000 0.438844
#
# Coordination Sequence:
#
# PCOD9507724 Si02
#       4
#    16  16  16  16
#     4  10  21  39  62  87 116 152 194 241 293 350
#     4  10  21  39  58  86 122 155 197 243 297 359
#     4  10  21  38  57  85 120 155 198 244 298 358
#     4  10  21  38  60  86 117 155 200 249 299 353
#
# _framework density 25.002873999999998
#
# number of rings (size 3 to 8) (size 9 to 14) (size 15 to 20)
#    0.000    2.000    0.000    3.000    0.000    1.500 
#    0.000   31.250    0.000    0.000    0.000    0.000 
#    0.000    0.000    0.000    0.000    0.000    0.000 
#
# Total GULP energy -178905.280771 kJ/mol
# GULP energy per Si atom -5590.790024 kJ/mol
# Density = 2.494597 g / cm^3
# Si number density = 25.002874 Si / 1000 Ang^3
#
#
#
# Elastic Constant Matrix: (Units=GPa)
#
#
# Indices 1 2 3 4 5 6 
#
# 1 111.1064 27.1900 11.5392 0.0000 0.0000 0.0000
# 2 27.1900 307.9048 93.3841 0.0000 0.0000 0.0000
# 3 11.5392 93.3841 169.8125 0.0000 0.0000 0.0000
# 4 0.0000 0.0000 0.0000 55.5738 0.0000 0.0000
# 5 0.0000 0.0000 0.0000 0.0000 1261.2974 0.0000
# 6 0.0000 0.0000 0.0000 0.0000 0.0000 -88.8242
#
#
#
# Elastic Compliance Matrix: (Units=1/GPa)
#
#
# Indices 1 2 3 4 5 6 
#
# 1 0.009206 -0.000748 -0.000214 0.000000 0.000000 0.000000
# 2 -0.000748 0.003959 -0.002126 0.000000 0.000000 0.000000
# 3 -0.000214 -0.002126 0.007073 0.000000 0.000000 0.000000
# 4 0.000000 0.000000 0.000000 0.017994 0.000000 0.000000
# 5 0.000000 0.000000 0.000000 0.000000 0.000793 0.000000
# 6 0.000000 0.000000 0.000000 0.000000 0.000000 -0.011258
#
#
# Mechanical properties :
#
#
# Convention : Reuss Voigt Hill
#
# Bulk Modulus (GPa) = 71.12221 94.78335 82.95278
# Shear Modulus (GPa) = 129.43632 276.05677 202.74654
#
# Velocity S-wave (km/s) = 7.20284 10.51902 9.01473
# Velocity P-wave (km/s) = 9.88342 13.62073 11.89971
#
# Compressibility (1/GPa) = 0.01406031
#
# Stress axis : x y z
#
# Youngs Moduli (GPa) = 108.62877 252.61225 141.39043
#
# Poissons Ratio (x) = 0.18894 0.03029
# Poissons Ratio (y) = 0.08125 0.30061
# Poissons Ratio (z) = 0.02327 0.53709
#
# Static dielectric constant tensor:
#      x y z
#    x 2.041690 0.000000 0.000000 
#    y 0.000000 2.090770 0.000000 
#    z 0.000000 0.000000 1.933070 
# 
# From -- ./inp_files/34274.got.cif
#   From: 2010.05.17/outbox.cif.g08.bks.cpg/sg68_18_cif.got.tgz:34274.got - 2010.06.03 18:57:09.
