data_PCOD9507256
_publ_section_title
;
Structure prediction by ZEFSAII (Michael W. Deem and Ramdas Pophale) SiO2 
 PCOD9507256
Probable space group: C C C A
;
_chemical_formula_sum "Si O2"
_cell_formula_units_Z 92
_cell_length_a 18.848984
_cell_length_b 18.271644
_cell_length_c 12.664836
_cell_angle_alpha 90.000000
_cell_angle_beta 90.000000
_cell_angle_gamma 90.000000
_cell_volume 4361.793903
_symmetry_space_group_name_H-M "C C C A"
_symmetry_group_IT_number 68
_space_group.IT_coordinate_system_code '2'
_symmetry_cell_setting 'orthorhombic'
loop_
_space_group_symop_operation_xyz
x,y,z
-x,1/2-y,z
x,1/2-y,1/2-z
-x,y,1/2-z
-x,-y,-z
x,1/2+y,-z
-x,1/2+y,1/2+z
x,-y,1/2+z
1/2+x,1/2+y,z
1/2-x,-y,z
1/2+x,-y,1/2-z
1/2-x,1/2+y,1/2-z
1/2-x,1/2-y,-z
1/2+x,y,-z
1/2-x,y,1/2+z
1/2+x,1/2-y,1/2+z
loop_
_atom_site_type_symbol
_atom_site_label
_atom_site_fract_x
_atom_site_fract_y
_atom_site_fract_z
Si Si1 0.500000 0.750000 0.750000
Si Si2 0.416729 0.227835 0.536486
Si Si3 0.707756 0.401066 0.835908
Si Si4 0.122492 0.879318 0.050019
Si Si5 0.834342 0.750000 0.750000
Si Si6 0.350190 0.458277 0.234590
Si Si7 0.039672 0.116680 0.896495
O O1 0.538204 0.691355 0.825278
O O2 0.500000 0.250000 0.542317
O O3 0.379914 0.290904 0.464419
O O4 0.383041 0.230574 0.650807
O O5 0.413279 0.145783 0.492482
O O6 0.708752 0.319998 0.788995
O O7 0.667304 0.456363 0.756302
O O8 0.788199 0.428211 0.841719
O O9 0.664350 0.404683 0.945744
O O10 0.154313 0.913052 0.156761
O O11 0.038928 0.900784 0.061487
O O12 0.424323 0.443406 0.176359
#
# Coordination Sequence:
#
# PCOD9507256 Si02
#       7
#     4  16  16  16   8  16  16
#     4  12  16  34  64 102 122 150 208 270 312 348
#     4   9  18  34  60  92 122 156 200 255 306 356
#     4  10  26  41  59  89 125 163 205 244 309 371
#     4  10  20  40  62  88 123 154 206 259 295 370
#     4  10  21  41  58  82 124 168 202 240 298 383
#     4  11  23  41  62  89 124 162 198 259 311 360
#     4  11  19  35  66  93 118 157 207 256 311 353
#
# _framework density 21.092238999999999
#
# number of rings (size 3 to 8) (size 9 to 14) (size 15 to 20)
#    0.000    1.739    4.348    0.261    0.000    8.348 
#    0.000   12.174    0.000    0.000    0.000    0.000 
#    0.000    0.000    0.000    0.000    0.000    0.000 
#
# Total GULP energy -256415.263735 kJ/mol
# GULP energy per Si atom -5574.244864 kJ/mol
# Density = 2.104423 g / cm^3
# Si number density = 21.092239 Si / 1000 Ang^3
#
#
#
# Elastic Constant Matrix: (Units=GPa)
#
#
# Indices 1 2 3 4 5 6 
#
# 1 61.8497 31.2108 32.4922 0.0000 0.0000 0.0000
# 2 31.2108 48.8047 20.1919 0.0000 0.0000 0.0000
# 3 32.4922 20.1919 90.2152 0.0000 0.0000 0.0000
# 4 0.0000 0.0000 0.0000 17.2102 0.0000 0.0000
# 5 0.0000 0.0000 0.0000 0.0000 16.3902 0.0000
# 6 0.0000 0.0000 0.0000 0.0000 0.0000 24.0669
#
#
#
# Elastic Compliance Matrix: (Units=1/GPa)
#
#
# Indices 1 2 3 4 5 6 
#
# 1 0.026876 -0.014528 -0.006428 0.000000 0.000000 0.000000
# 2 -0.014528 0.030434 -0.001579 0.000000 0.000000 0.000000
# 3 -0.006428 -0.001579 0.013753 0.000000 0.000000 0.000000
# 4 0.000000 0.000000 0.000000 0.058105 0.000000 0.000000
# 5 0.000000 0.000000 0.000000 0.000000 0.061012 0.000000
# 6 0.000000 0.000000 0.000000 0.000000 0.000000 0.041551
#
#
# Mechanical properties :
#
#
# Convention : Reuss Voigt Hill
#
# Bulk Modulus (GPa) = 38.47245 40.96214 39.71730
# Shear Modulus (GPa) = 17.51518 19.33179 18.42349
#
# Velocity S-wave (km/s) = 2.88481 3.03072 2.95866
# Velocity P-wave (km/s) = 5.41995 5.63113 5.52655
#
# Compressibility (1/GPa) = 0.02599262
#
# Stress axis : x y z
#
# Youngs Moduli (GPa) = 37.20739 32.85811 72.70995
#
# Poissons Ratio (x) = 0.47736 0.46740
# Poissons Ratio (y) = 0.54055 0.11483
# Poissons Ratio (z) = 0.23918 0.05189
#
# Static dielectric constant tensor:
#      x y z
#    x 1.754700 0.000000 0.000000 
#    y 0.000000 1.798350 0.000000 
#    z 0.000000 0.000000 1.812160 
# 
# From -- ./inp_files/15459.got.cif
#   From: 2010.05.17/outbox.cif.g08.bks.cpg/sg68_8_cif.got.tgz:15459.got - 2010.06.03 18:57:09.
