data_PCOD9507610
_publ_section_title
;
Structure prediction by ZEFSAII (Michael W. Deem and Ramdas Pophale) SiO2 
 PCOD9507610
Probable space group: C C C A
;
_chemical_formula_sum "Si O2"
_cell_formula_units_Z 72
_cell_length_a 9.678950
_cell_length_b 17.030301
_cell_length_c 20.454029
_cell_angle_alpha 90.000000
_cell_angle_beta 90.000000
_cell_angle_gamma 90.000000
_cell_volume 3371.548704
_symmetry_space_group_name_H-M "C C C A"
_symmetry_group_IT_number 68
_space_group.IT_coordinate_system_code '2'
_symmetry_cell_setting 'orthorhombic'
loop_
_space_group_symop_operation_xyz
x,y,z
-x,1/2-y,z
x,1/2-y,1/2-z
-x,y,1/2-z
-x,-y,-z
x,1/2+y,-z
-x,1/2+y,1/2+z
x,-y,1/2+z
1/2+x,1/2+y,z
1/2-x,-y,z
1/2+x,-y,1/2-z
1/2-x,1/2+y,1/2-z
1/2-x,1/2-y,-z
1/2+x,y,-z
1/2-x,y,1/2+z
1/2+x,1/2-y,1/2+z
loop_
_atom_site_type_symbol
_atom_site_label
_atom_site_fract_x
_atom_site_fract_y
_atom_site_fract_z
Si Si1 0.716790 0.118383 0.359840
Si Si2 0.000000 0.612125 0.250000
Si Si3 0.225350 0.289723 0.683213
Si Si4 0.524557 0.843682 0.116153
Si Si5 0.870579 0.055797 0.001178
O O1 0.624832 0.082570 0.299498
O O2 0.696716 0.213525 0.360989
O O3 0.670734 0.083112 0.428842
O O4 0.885454 0.113392 0.359016
O O5 0.912926 0.664725 0.300221
O O6 0.277555 0.250000 0.750000
O O7 0.341892 0.350289 0.661810
O O8 0.500000 0.750000 0.114271
O O9 0.580270 0.873390 0.046800
O O10 0.750000 0.000000 0.029125
O O11 0.000000 0.000000 0.000000
#
# Coordination Sequence:
#
# PCOD9507610 Si02
#       5
#    16   8  16  16  16
#     4  10  21  39  62  93 130 167 220 266 331 395
#     4  10  21  36  66 102 132 166 211 284 335 392
#     4   9  19  37  64 100 135 167 216 282 337 388
#     4  10  23  40  68 100 132 174 226 276 333 400
#     4  12  26  46  67  92 137 183 220 277 338 401
#
# _framework density 21.355170999999999
#
# number of rings (size 3 to 8) (size 9 to 14) (size 15 to 20)
#    0.000    1.778    2.222    3.000    3.111   15.556 
#    0.000    0.000    9.778    0.000    0.000    0.000 
#    0.000    0.000    0.000    0.000    0.000    0.000 
#
# Total GULP energy -200414.766987 kJ/mol
# GULP energy per Si atom -5567.076861 kJ/mol
# Density = 2.130657 g / cm^3
# Si number density = 21.355171 Si / 1000 Ang^3
#
#
#
# Elastic Constant Matrix: (Units=GPa)
#
#
# Indices 1 2 3 4 5 6 
#
# 1 177.0532 28.3020 47.9962 0.0000 0.0000 0.0000
# 2 28.3020 29.2893 19.1908 0.0000 0.0000 0.0000
# 3 47.9962 19.1908 67.4192 0.0000 0.0000 0.0000
# 4 0.0000 0.0000 0.0000 44.3099 0.0000 0.0000
# 5 0.0000 0.0000 0.0000 0.0000 36.0429 0.0000
# 6 0.0000 0.0000 0.0000 0.0000 0.0000 23.8245
#
#
#
# Elastic Compliance Matrix: (Units=1/GPa)
#
#
# Indices 1 2 3 4 5 6 
#
# 1 0.007469 -0.004589 -0.004011 0.000000 0.000000 0.000000
# 2 -0.004589 0.044790 -0.009482 0.000000 0.000000 0.000000
# 3 -0.004011 -0.009482 0.020387 0.000000 0.000000 0.000000
# 4 0.000000 0.000000 0.000000 0.022568 0.000000 0.000000
# 5 0.000000 0.000000 0.000000 0.000000 0.027745 0.000000
# 6 0.000000 0.000000 0.000000 0.000000 0.000000 0.041974
#
#
# Mechanical properties :
#
#
# Convention : Reuss Voigt Hill
#
# Bulk Modulus (GPa) = 27.41155 51.63774 39.52464
# Shear Modulus (GPa) = 23.44589 32.72031 28.08310
#
# Velocity S-wave (km/s) = 3.31706 3.91857 3.63029
# Velocity P-wave (km/s) = 5.24732 6.68630 6.01003
#
# Compressibility (1/GPa) = 0.03648097
#
# Stress axis : x y z
#
# Youngs Moduli (GPa) = 133.88911 22.32664 49.05072
#
# Poissons Ratio (x) = 0.10246 0.19674
# Poissons Ratio (y) = 0.61443 0.46511
# Poissons Ratio (z) = 0.53701 0.21171
#
# Static dielectric constant tensor:
#      x y z
#    x 1.854520 0.000000 0.000000 
#    y 0.000000 1.793520 0.000000 
#    z 0.000000 0.000000 1.990480 
# 
# From -- ./inp_files/36036.got.cif
#   From: 2010.05.17/outbox.cif.g08.bks.cpg/sg68_19_cif.got.tgz:36036.got - 2010.06.03 18:57:09.
