data_PCOD9507941
_publ_section_title
;
Structure prediction by ZEFSAII (Michael W. Deem and Ramdas Pophale) SiO2 
 PCOD9507941
Probable space group: C C C A
;
_chemical_formula_sum "Si O2"
_cell_formula_units_Z 80
_cell_length_a 13.371222
_cell_length_b 11.901879
_cell_length_c 23.332205
_cell_angle_alpha 90.000000
_cell_angle_beta 90.000000
_cell_angle_gamma 90.000000
_cell_volume 3713.149315
_symmetry_space_group_name_H-M "C C C A"
_symmetry_group_IT_number 68
_space_group.IT_coordinate_system_code '2'
_symmetry_cell_setting 'orthorhombic'
loop_
_space_group_symop_operation_xyz
x,y,z
-x,1/2-y,z
x,1/2-y,1/2-z
-x,y,1/2-z
-x,-y,-z
x,1/2+y,-z
-x,1/2+y,1/2+z
x,-y,1/2+z
1/2+x,1/2+y,z
1/2-x,-y,z
1/2+x,-y,1/2-z
1/2-x,1/2+y,1/2-z
1/2-x,1/2-y,-z
1/2+x,y,-z
1/2-x,y,1/2+z
1/2+x,1/2-y,1/2+z
loop_
_atom_site_type_symbol
_atom_site_label
_atom_site_fract_x
_atom_site_fract_y
_atom_site_fract_z
Si Si1 0.334544 0.908081 0.539336
Si Si2 0.643122 0.280745 0.363697
Si Si3 0.059153 0.582852 0.902104
Si Si4 0.157827 0.322421 0.087802
Si Si5 0.958945 0.911988 0.312973
O O1 0.353949 0.798178 0.578774
O O2 0.315090 0.868133 0.475133
O O3 0.250000 0.000000 0.557062
O O4 0.429477 0.988213 0.549359
O O5 0.750557 0.338564 0.368686
O O6 0.551289 0.365758 0.352955
O O7 0.622650 0.187450 0.315057
O O8 0.126618 0.691138 0.915290
O O9 0.945101 0.619418 0.895258
O O10 0.087067 0.520345 0.843240
O O11 0.000000 0.930858 0.250000
#
# Coordination Sequence:
#
# PCOD9507941 Si02
#       5
#    16  16  16  16  16
#     4  11  22  37  62  92 135 176 207 248 320 394
#     4  10  21  39  65  92 122 161 216 264 312 389
#     4  10  24  41  60  91 132 168 213 261 317 382
#     4  11  23  39  61  95 134 170 207 258 314 390
#     4  10  23  45  68  90 119 164 220 282 329 380
#
# _framework density 21.545052999999999
#
# number of rings (size 3 to 8) (size 9 to 14) (size 15 to 20)
#    0.000    1.600    2.000    2.400    2.800    6.400 
#    0.000    8.000    0.000    0.000    0.000    0.000 
#    0.000    0.000    0.000    0.000    0.000    0.000 
#
# Total GULP energy -223007.724817 kJ/mol
# GULP energy per Si atom -5575.193120 kJ/mol
# Density = 2.149602 g / cm^3
# Si number density = 21.545053 Si / 1000 Ang^3
#
#
#
# Elastic Constant Matrix: (Units=GPa)
#
#
# Indices 1 2 3 4 5 6 
#
# 1 102.0457 21.6954 24.0686 0.0000 0.0000 0.0000
# 2 21.6954 104.5144 30.1077 0.0000 0.0000 0.0000
# 3 24.0686 30.1077 93.4040 0.0000 0.0000 0.0000
# 4 0.0000 0.0000 0.0000 12.3799 0.0000 0.0000
# 5 0.0000 0.0000 0.0000 0.0000 25.0902 0.0000
# 6 0.0000 0.0000 0.0000 0.0000 0.0000 24.6480
#
#
#
# Elastic Compliance Matrix: (Units=1/GPa)
#
#
# Indices 1 2 3 4 5 6 
#
# 1 0.010662 -0.001567 -0.002242 0.000000 0.000000 0.000000
# 2 -0.001567 0.010778 -0.003070 0.000000 0.000000 0.000000
# 3 -0.002242 -0.003070 0.012274 0.000000 0.000000 0.000000
# 4 0.000000 0.000000 0.000000 0.080776 0.000000 0.000000
# 5 0.000000 0.000000 0.000000 0.000000 0.039856 0.000000
# 6 0.000000 0.000000 0.000000 0.000000 0.000000 0.040571
#
#
# Mechanical properties :
#
#
# Convention : Reuss Voigt Hill
#
# Bulk Modulus (GPa) = 50.11592 50.18973 50.15283
# Shear Modulus (GPa) = 23.22049 27.36310 25.29180
#
# Velocity S-wave (km/s) = 3.28649 3.56763 3.42994
# Velocity P-wave (km/s) = 6.14108 6.34952 6.24617
#
# Compressibility (1/GPa) = 0.01995374
#
# Stress axis : x y z
#
# Youngs Moduli (GPa) = 93.79485 92.78285 81.47569
#
# Poissons Ratio (x) = 0.14542 0.18268
# Poissons Ratio (y) = 0.14700 0.25015
# Poissons Ratio (z) = 0.21030 0.28487
#
# Static dielectric constant tensor:
#      x y z
#    x 1.875160 0.000000 0.000000 
#    y 0.000000 1.825880 0.000000 
#    z 0.000000 0.000000 1.744710 
# 
# From -- ./inp_files/45174.got.cif
#   From: 2010.05.17/outbox.cif.g08.bks.cpg/sg68_23_cif.got.tgz:45174.got - 2010.06.03 18:57:09.
