data_PCOD9507503
_publ_section_title
;
Structure prediction by ZEFSAII (Michael W. Deem and Ramdas Pophale) SiO2 
 PCOD9507503
Probable space group: C C C A
;
_chemical_formula_sum "Si O2"
_cell_formula_units_Z 88
_cell_length_a 9.515140
_cell_length_b 24.604157
_cell_length_c 19.741678
_cell_angle_alpha 90.000000
_cell_angle_beta 90.000000
_cell_angle_gamma 90.000000
_cell_volume 4621.763689
_symmetry_space_group_name_H-M "C C C A"
_symmetry_group_IT_number 68
_space_group.IT_coordinate_system_code '2'
_symmetry_cell_setting 'orthorhombic'
loop_
_space_group_symop_operation_xyz
x,y,z
-x,1/2-y,z
x,1/2-y,1/2-z
-x,y,1/2-z
-x,-y,-z
x,1/2+y,-z
-x,1/2+y,1/2+z
x,-y,1/2+z
1/2+x,1/2+y,z
1/2-x,-y,z
1/2+x,-y,1/2-z
1/2-x,1/2+y,1/2-z
1/2-x,1/2-y,-z
1/2+x,y,-z
1/2-x,y,1/2+z
1/2+x,1/2-y,1/2+z
loop_
_atom_site_type_symbol
_atom_site_label
_atom_site_fract_x
_atom_site_fract_y
_atom_site_fract_z
Si Si1 0.700685 0.361827 0.131264
Si Si2 0.138652 0.714840 0.958223
Si Si3 0.500000 0.879104 0.750000
Si Si4 0.034961 0.104211 0.974750
Si Si5 0.878167 0.961907 0.898273
Si Si6 0.880051 0.461685 0.850907
O O1 0.787102 0.309459 0.108211
O O2 0.595237 0.350398 0.193141
O O3 0.607497 0.382226 0.066445
O O4 0.806657 0.412333 0.142816
O O5 0.000000 0.750000 0.944692
O O6 0.250000 0.750000 0.000000
O O7 0.096064 0.661650 0.001426
O O8 0.397908 0.918147 0.792242
O O9 0.129493 0.072167 0.920582
O O10 0.033485 0.065594 0.040649
O O11 0.750000 0.000000 0.923876
O O12 0.980536 0.001126 0.856708
O O13 0.750000 0.500000 0.840428
#
# Coordination Sequence:
#
# PCOD9507503 Si02
#       6
#    16  16   8  16  16  16
#     4  10  22  38  60  89 127 165 202 262 303 382
#     4  11  22  38  65  93 124 153 208 272 341 380
#     4  10  22  40  56  87 128 168 219 236 304 370
#     4  10  21  34  57  91 122 153 200 256 313 368
#     4  11  20  34  56  86 125 158 201 247 304 357
#     4  11  24  34  58  85 125 173 205 243 294 376
#
# _framework density 19.04035
#
# number of rings (size 3 to 8) (size 9 to 14) (size 15 to 20)
#    0.000    1.455    5.455    1.091    7.636    0.000 
#    0.000    0.000    0.000    8.727    0.000   10.182 
#    0.000    0.000    0.000    0.000    0.000    0.000 
#
# Total GULP energy -245572.941316 kJ/mol
# GULP energy per Si atom -5581.203212 kJ/mol
# Density = 1.899701 g / cm^3
# Si number density = 19.040350 Si / 1000 Ang^3
#
#
#
# Elastic Constant Matrix: (Units=GPa)
#
#
# Indices 1 2 3 4 5 6 
#
# 1 114.9220 47.2775 37.5956 0.0000 0.0000 0.0000
# 2 47.2775 96.9050 21.0736 0.0000 0.0000 0.0000
# 3 37.5956 21.0736 53.1009 0.0000 0.0000 0.0000
# 4 0.0000 0.0000 0.0000 10.9167 0.0000 0.0000
# 5 0.0000 0.0000 0.0000 0.0000 22.9616 0.0000
# 6 0.0000 0.0000 0.0000 0.0000 0.0000 26.5448
#
#
#
# Elastic Compliance Matrix: (Units=1/GPa)
#
#
# Indices 1 2 3 4 5 6 
#
# 1 0.013075 -0.004778 -0.007361 0.000000 0.000000 0.000000
# 2 -0.004778 0.013040 -0.001792 0.000000 0.000000 0.000000
# 3 -0.007361 -0.001792 0.024755 0.000000 0.000000 0.000000
# 4 0.000000 0.000000 0.000000 0.091603 0.000000 0.000000
# 5 0.000000 0.000000 0.000000 0.000000 0.043551 0.000000
# 6 0.000000 0.000000 0.000000 0.000000 0.000000 0.037672
#
#
# Mechanical properties :
#
#
# Convention : Reuss Voigt Hill
#
# Bulk Modulus (GPa) = 43.46388 52.98015 48.22201
# Shear Modulus (GPa) = 19.28798 22.68336 20.98567
#
# Velocity S-wave (km/s) = 3.18623 3.45531 3.32349
# Velocity P-wave (km/s) = 6.03431 6.61850 6.33314
#
# Compressibility (1/GPa) = 0.02300761
#
# Stress axis : x y z
#
# Youngs Moduli (GPa) = 76.47932 76.68503 40.39598
#
# Poissons Ratio (x) = 0.36643 0.29736
# Poissons Ratio (y) = 0.36545 0.07239
# Poissons Ratio (z) = 0.56297 0.13743
#
# Static dielectric constant tensor:
#      x y z
#    x 1.727960 0.000000 0.000000 
#    y 0.000000 1.655490 0.000000 
#    z 0.000000 0.000000 1.689380 
# 
# From -- ./inp_files/36276.got.cif
#   From: 2010.05.17/outbox.cif.g08.bks.cpg/sg68_19_cif.got.tgz:36276.got - 2010.06.03 18:57:09.
