data_PCOD9507639
_publ_section_title
;
Structure prediction by ZEFSAII (Michael W. Deem and Ramdas Pophale) SiO2 
 PCOD9507639
Probable space group: C C C A
;
_chemical_formula_sum "Si O2"
_cell_formula_units_Z 104
_cell_length_a 8.513442
_cell_length_b 27.371579
_cell_length_c 22.487597
_cell_angle_alpha 90.000000
_cell_angle_beta 90.000000
_cell_angle_gamma 90.000000
_cell_volume 5240.202655
_symmetry_space_group_name_H-M "C C C A"
_symmetry_group_IT_number 68
_space_group.IT_coordinate_system_code '2'
_symmetry_cell_setting 'orthorhombic'
loop_
_space_group_symop_operation_xyz
x,y,z
-x,1/2-y,z
x,1/2-y,1/2-z
-x,y,1/2-z
-x,-y,-z
x,1/2+y,-z
-x,1/2+y,1/2+z
x,-y,1/2+z
1/2+x,1/2+y,z
1/2-x,-y,z
1/2+x,-y,1/2-z
1/2-x,1/2+y,1/2-z
1/2-x,1/2-y,-z
1/2+x,y,-z
1/2-x,y,1/2+z
1/2+x,1/2-y,1/2+z
loop_
_atom_site_type_symbol
_atom_site_label
_atom_site_fract_x
_atom_site_fract_y
_atom_site_fract_z
Si Si1 0.750000 0.500000 0.535436
Si Si2 0.228177 0.445268 0.684014
Si Si3 0.668732 0.868213 0.281204
Si Si4 0.456312 0.613959 0.594752
Si Si5 0.656221 0.099182 0.515174
Si Si6 0.044955 0.071800 0.111062
Si Si7 0.559601 0.695899 0.683719
O O1 0.677182 0.540890 0.492942
O O2 0.870595 0.527456 0.578424
O O3 0.250000 0.500000 0.710096
O O4 0.238814 0.402597 0.733567
O O5 0.084828 0.431776 0.638926
O O6 0.383137 0.441755 0.643342
O O7 0.500000 0.857447 0.250000
O O8 0.645310 0.902604 0.338342
O O9 0.758994 0.820564 0.306246
O O10 0.607537 0.612654 0.551723
O O11 0.308201 0.618319 0.549867
O O12 0.479890 0.659189 0.637920
O O13 0.509304 0.108121 0.558585
O O14 0.500000 0.750000 0.667547
O O15 0.500000 0.687592 0.750000
#
# Coordination Sequence:
#
# PCOD9507639 Si02
#       7
#     8  16  16  16  16  16  16
#     4  12  20  34  54  90 128 190 232 266 302 392
#     4  10  21  37  58  92 134 176 220 264 320 387
#     4  10  22  44  65  95 135 170 216 278 334 401
#     4  11  23  42  63  93 131 173 215 281 323 393
#     4  11  23  37  60  88 133 176 225 268 327 382
#     4  10  22  34  56  87 130 175 223 267 319 386
#     4  11  24  47  75  99 122 164 221 281 345 398
#
# _framework density 19.84656
#
# number of rings (size 3 to 8) (size 9 to 14) (size 15 to 20)
#    0.000    1.385    3.077    2.308    5.385    0.000 
#    5.538    2.308    0.000    0.000    0.000    0.000 
#    0.000    0.000    0.000    0.000    0.000    0.000 
#
# Total GULP energy -289717.188316 kJ/mol
# GULP energy per Si atom -5571.484391 kJ/mol
# Density = 1.980139 g / cm^3
# Si number density = 19.846560 Si / 1000 Ang^3
#
#
#
# Elastic Constant Matrix: (Units=GPa)
#
#
# Indices 1 2 3 4 5 6 
#
# 1 56.7000 38.2439 22.4017 0.0000 0.0000 0.0000
# 2 38.2439 102.4755 39.7113 0.0000 0.0000 0.0000
# 3 22.4017 39.7113 84.3218 0.0000 0.0000 0.0000
# 4 0.0000 0.0000 0.0000 23.2065 0.0000 0.0000
# 5 0.0000 0.0000 0.0000 0.0000 39.5519 0.0000
# 6 0.0000 0.0000 0.0000 0.0000 0.0000 20.7354
#
#
#
# Elastic Compliance Matrix: (Units=1/GPa)
#
#
# Indices 1 2 3 4 5 6 
#
# 1 0.024042 -0.007948 -0.002644 0.000000 0.000000 0.000000
# 2 -0.007948 0.014564 -0.004748 0.000000 0.000000 0.000000
# 3 -0.002644 -0.004748 0.014798 0.000000 0.000000 0.000000
# 4 0.000000 0.000000 0.000000 0.043091 0.000000 0.000000
# 5 0.000000 0.000000 0.000000 0.000000 0.025283 0.000000
# 6 0.000000 0.000000 0.000000 0.000000 0.000000 0.048227
#
#
# Mechanical properties :
#
#
# Convention : Reuss Voigt Hill
#
# Bulk Modulus (GPa) = 44.00459 49.35679 46.68069
# Shear Modulus (GPa) = 24.00848 26.24146 25.12497
#
# Velocity S-wave (km/s) = 3.48185 3.64017 3.56189
# Velocity P-wave (km/s) = 6.19556 6.52618 6.36302
#
# Compressibility (1/GPa) = 0.02272490
#
# Stress axis : x y z
#
# Youngs Moduli (GPa) = 41.59359 68.66089 67.57817
#
# Poissons Ratio (x) = 0.54571 0.17869
# Poissons Ratio (y) = 0.33058 0.32083
# Poissons Ratio (z) = 0.10998 0.32597
#
# Static dielectric constant tensor:
#      x y z
#    x 1.797580 0.000000 0.000000 
#    y 0.000000 1.696530 0.000000 
#    z 0.000000 0.000000 1.710570 
# 
# From -- ./inp_files/36559.got.cif
#   From: 2010.05.17/outbox.cif.g08.bks.cpg/sg68_19_cif.got.tgz:36559.got - 2010.06.03 18:57:09.
