data_PCOD9507607
_publ_section_title
;
Structure prediction by ZEFSAII (Michael W. Deem and Ramdas Pophale) SiO2 
 PCOD9507607
Probable space group: C C C A
;
_chemical_formula_sum "Si O2"
_cell_formula_units_Z 88
_cell_length_a 21.181196
_cell_length_b 13.221050
_cell_length_c 13.588943
_cell_angle_alpha 90.000000
_cell_angle_beta 90.000000
_cell_angle_gamma 90.000000
_cell_volume 3805.415682
_symmetry_space_group_name_H-M "C C C A"
_symmetry_group_IT_number 68
_space_group.IT_coordinate_system_code '2'
_symmetry_cell_setting 'orthorhombic'
loop_
_space_group_symop_operation_xyz
x,y,z
-x,1/2-y,z
x,1/2-y,1/2-z
-x,y,1/2-z
-x,-y,-z
x,1/2+y,-z
-x,1/2+y,1/2+z
x,-y,1/2+z
1/2+x,1/2+y,z
1/2-x,-y,z
1/2+x,-y,1/2-z
1/2-x,1/2+y,1/2-z
1/2-x,1/2-y,-z
1/2+x,y,-z
1/2-x,y,1/2+z
1/2+x,1/2-y,1/2+z
loop_
_atom_site_type_symbol
_atom_site_label
_atom_site_fract_x
_atom_site_fract_y
_atom_site_fract_z
Si Si1 0.378410 0.655774 0.189437
Si Si2 0.188401 0.553330 0.506910
Si Si3 0.664017 0.301873 0.148723
Si Si4 0.898400 0.127890 0.532291
Si Si5 0.000000 0.750000 0.590337
Si Si6 0.573708 0.546827 0.751410
O O1 0.351449 0.750000 0.250000
O O2 0.340109 0.623250 0.092852
O O3 0.447964 0.689927 0.152736
O O4 0.387531 0.556938 0.256342
O O5 0.250000 0.500000 0.548377
O O6 0.205331 0.616524 0.409359
O O7 0.137989 0.465145 0.482723
O O8 0.687004 0.250000 0.250000
O O9 0.647117 0.218936 0.066541
O O10 0.601030 0.365268 0.181095
O O11 0.957856 0.172676 0.474200
O O12 0.917412 0.084839 0.637744
O O13 0.500000 0.526888 0.750000
#
# Coordination Sequence:
#
# PCOD9507607 Si02
#       6
#    16  16  16  16   8  16
#     4  11  25  42  67 107 146 188 244 297 372 430
#     4  11  26  48  74 101 143 194 249 297 352 427
#     4  10  22  44  67 101 140 184 243 289 360 425
#     4  10  23  40  69 106 137 186 237 290 366 430
#     4  12  21  40  73 104 146 188 231 300 377 438
#     4  10  21  36  64 100 148 185 231 293 360 438
#
# _framework density 23.124938
#
# number of rings (size 3 to 8) (size 9 to 14) (size 15 to 20)
#    0.000    1.455    1.818    2.455    5.091    4.727 
#    0.000   12.727    0.000    0.000    0.000    0.000 
#    0.000    0.000    0.000    0.000    0.000    0.000 
#
# Total GULP energy -245956.218540 kJ/mol
# GULP energy per Si atom -5589.914058 kJ/mol
# Density = 2.307230 g / cm^3
# Si number density = 23.124938 Si / 1000 Ang^3
#
#
#
# Elastic Constant Matrix: (Units=GPa)
#
#
# Indices 1 2 3 4 5 6 
#
# 1 42.7238 15.0707 9.4013 0.0000 0.0000 0.0000
# 2 15.0707 139.9295 50.6133 0.0000 0.0000 0.0000
# 3 9.4013 50.6133 60.2139 0.0000 0.0000 0.0000
# 4 0.0000 0.0000 0.0000 31.9558 0.0000 0.0000
# 5 0.0000 0.0000 0.0000 0.0000 -7.0306 0.0000
# 6 0.0000 0.0000 0.0000 0.0000 0.0000 870.3877
#
#
#
# Elastic Compliance Matrix: (Units=1/GPa)
#
#
# Indices 1 2 3 4 5 6 
#
# 1 0.024553 -0.001807 -0.002314 0.000000 0.000000 0.000000
# 2 -0.001807 0.010401 -0.008461 0.000000 0.000000 0.000000
# 3 -0.002314 -0.008461 0.024081 0.000000 0.000000 0.000000
# 4 0.000000 0.000000 0.000000 0.031293 0.000000 0.000000
# 5 0.000000 0.000000 0.000000 0.000000 -0.142236 0.000000
# 6 0.000000 0.000000 0.000000 0.000000 0.000000 0.001149
#
#
# Mechanical properties :
#
#
# Convention : Reuss Voigt Hill
#
# Bulk Modulus (GPa) = 29.52462 43.67088 36.59775
# Shear Modulus (GPa) = -349.55348 190.24805 -79.65272
#
# Velocity S-wave (km/s) = -12.30800 9.08010 -5.87531
# Velocity P-wave (km/s) = 13.75454 11.35151 5.49229
#
# Compressibility (1/GPa) = 0.03387004
#
# Stress axis : x y z
#
# Youngs Moduli (GPa) = 40.72831 96.14043 41.52707
#
# Poissons Ratio (x) = 0.17375 0.09611
# Poissons Ratio (y) = 0.07361 0.35135
# Poissons Ratio (z) = 0.09426 0.81343
#
# Static dielectric constant tensor:
#      x y z
#    x 1.982040 0.000000 0.000000 
#    y 0.000000 1.932420 0.000000 
#    z 0.000000 0.000000 1.842730 
# 
# From -- ./inp_files/24377.got.cif
#   From: 2010.05.17/outbox.cif.g08.bks.cpg/sg68_13_cif.got.tgz:24377.got - 2010.06.03 18:57:09.
