data_PCOD9507303
_publ_section_title
;
Structure prediction by ZEFSAII (Michael W. Deem and Ramdas Pophale) SiO2 
 PCOD9507303
Probable space group: C C C A
;
_chemical_formula_sum "Si O2"
_cell_formula_units_Z 76
_cell_length_a 14.938770
_cell_length_b 18.471311
_cell_length_c 13.777861
_cell_angle_alpha 90.000000
_cell_angle_beta 90.000000
_cell_angle_gamma 90.000000
_cell_volume 3801.844593
_symmetry_space_group_name_H-M "C C C A"
_symmetry_group_IT_number 68
_space_group.IT_coordinate_system_code '2'
_symmetry_cell_setting 'orthorhombic'
loop_
_space_group_symop_operation_xyz
x,y,z
-x,1/2-y,z
x,1/2-y,1/2-z
-x,y,1/2-z
-x,-y,-z
x,1/2+y,-z
-x,1/2+y,1/2+z
x,-y,1/2+z
1/2+x,1/2+y,z
1/2-x,-y,z
1/2+x,-y,1/2-z
1/2-x,1/2+y,1/2-z
1/2-x,1/2-y,-z
1/2+x,y,-z
1/2-x,y,1/2+z
1/2+x,1/2-y,1/2+z
loop_
_atom_site_type_symbol
_atom_site_label
_atom_site_fract_x
_atom_site_fract_y
_atom_site_fract_z
Si Si1 0.129624 0.287163 0.582332
Si Si2 0.750000 0.500000 0.613681
Si Si3 0.942722 0.512181 0.154026
Si Si4 0.199545 0.359368 0.012369
Si Si5 0.500000 0.750000 0.750000
Si Si6 0.492971 0.384170 0.519372
O O1 0.168101 0.207056 0.558361
O O2 0.218847 0.334949 0.579904
O O3 0.069217 0.289847 0.678184
O O4 0.061088 0.318426 0.500520
O O5 0.838490 0.495084 0.677628
O O6 0.763972 0.429478 0.544983
O O7 0.967985 0.580043 0.085161
O O8 0.000000 0.513130 0.250000
O O9 0.960485 0.443666 0.085122
O O10 0.105001 0.371952 0.065354
#
# Coordination Sequence:
#
# PCOD9507303 Si02
#       6
#    16   8  16  16   4  16
#     4  11  22  39  64  92 128 168 214 272 335 391
#     4  10  20  40  66  92 128 164 220 270 316 406
#     4  10  22  39  60  93 128 167 215 271 328 388
#     4  10  21  40  64  88 123 172 210 260 336 399
#     4  12  24  40  64 100 132 156 228 286 320 408
#     4  10  20  41  62  89 128 167 215 267 330 394
#
# _framework density 19.990296000000001
#
# number of rings (size 3 to 8) (size 9 to 14) (size 15 to 20)
#    0.000    1.684    4.211    0.000    1.474    0.000 
#    7.579    0.000    0.000    1.263    0.000    0.000 
#    0.000    0.000    0.000    0.000    0.000    0.000 
#
# Total GULP energy -211672.057515 kJ/mol
# GULP energy per Si atom -5570.317303 kJ/mol
# Density = 1.994480 g / cm^3
# Si number density = 19.990296 Si / 1000 Ang^3
#
#
#
# Elastic Constant Matrix: (Units=GPa)
#
#
# Indices 1 2 3 4 5 6 
#
# 1 185.5454 43.1873 49.5117 0.0000 0.0000 0.0000
# 2 43.1873 99.0703 14.9413 0.0000 0.0000 0.0000
# 3 49.5117 14.9413 53.5188 0.0000 0.0000 0.0000
# 4 0.0000 0.0000 0.0000 8.7425 0.0000 0.0000
# 5 0.0000 0.0000 0.0000 0.0000 24.9995 0.0000
# 6 0.0000 0.0000 0.0000 0.0000 0.0000 34.5380
#
#
#
# Elastic Compliance Matrix: (Units=1/GPa)
#
#
# Indices 1 2 3 4 5 6 
#
# 1 0.007654 -0.002368 -0.006420 0.000000 0.000000 0.000000
# 2 -0.002368 0.011270 -0.000955 0.000000 0.000000 0.000000
# 3 -0.006420 -0.000955 0.024891 0.000000 0.000000 0.000000
# 4 0.000000 0.000000 0.000000 0.114383 0.000000 0.000000
# 5 0.000000 0.000000 0.000000 0.000000 0.040001 0.000000
# 6 0.000000 0.000000 0.000000 0.000000 0.000000 0.028954
#
#
# Mechanical properties :
#
#
# Convention : Reuss Voigt Hill
#
# Bulk Modulus (GPa) = 41.10460 61.49057 51.29759
# Shear Modulus (GPa) = 19.62721 29.02229 24.32475
#
# Velocity S-wave (km/s) = 3.13683 3.81441 3.49209
# Velocity P-wave (km/s) = 5.80745 7.08707 6.47893
#
# Compressibility (1/GPa) = 0.02432818
#
# Stress axis : x y z
#
# Youngs Moduli (GPa) = 130.65446 88.72841 40.17572
#
# Poissons Ratio (x) = 0.21014 0.25791
# Poissons Ratio (y) = 0.30943 0.03839
# Poissons Ratio (z) = 0.83874 0.08478
#
# Static dielectric constant tensor:
#      x y z
#    x 1.710930 0.000000 0.000000 
#    y 0.000000 1.775870 0.000000 
#    z 0.000000 0.000000 1.660660 
# 
# From -- ./inp_files/22209.got.cif
#   From: 2010.05.17/outbox.cif.g08.bks.cpg/sg68_12_cif.got.tgz:22209.got - 2010.06.03 18:57:09.
