data_PCOD9507161
_publ_section_title
;
Structure prediction by ZEFSAII (Michael W. Deem and Ramdas Pophale) SiO2 
 PCOD9507161
Probable space group: C C C A
;
_chemical_formula_sum "Si O2"
_cell_formula_units_Z 88
_cell_length_a 9.101422
_cell_length_b 21.931873
_cell_length_c 20.745750
_cell_angle_alpha 90.000000
_cell_angle_beta 90.000000
_cell_angle_gamma 90.000000
_cell_volume 4141.084704
_symmetry_space_group_name_H-M "C C C A"
_symmetry_group_IT_number 68
_space_group.IT_coordinate_system_code '2'
_symmetry_cell_setting 'orthorhombic'
loop_
_space_group_symop_operation_xyz
x,y,z
-x,1/2-y,z
x,1/2-y,1/2-z
-x,y,1/2-z
-x,-y,-z
x,1/2+y,-z
-x,1/2+y,1/2+z
x,-y,1/2+z
1/2+x,1/2+y,z
1/2-x,-y,z
1/2+x,-y,1/2-z
1/2-x,1/2+y,1/2-z
1/2-x,1/2-y,-z
1/2+x,y,-z
1/2-x,y,1/2+z
1/2+x,1/2-y,1/2+z
loop_
_atom_site_type_symbol
_atom_site_label
_atom_site_fract_x
_atom_site_fract_y
_atom_site_fract_z
Si Si1 0.008870 0.578459 0.952307
Si Si2 0.000000 0.093437 0.250000
Si Si3 0.467365 0.053849 0.100368
Si Si4 0.289087 0.641741 0.362694
Si Si5 0.272110 0.093265 0.851995
Si Si6 0.171340 0.764513 0.825512
O O1 0.110416 0.631284 0.924997
O O2 0.068471 0.516136 0.918418
O O3 0.848256 0.583278 0.921163
O O4 0.001378 0.578524 0.028478
O O5 0.896738 0.129046 0.301439
O O6 0.879016 0.064216 0.202657
O O7 0.338559 0.092041 0.133432
O O8 0.612095 0.064876 0.143027
O O9 0.236366 0.711161 0.359603
O O10 0.280263 0.166306 0.838965
O O11 0.184661 0.750000 0.750000
O O12 0.000000 0.750000 0.843257
#
# Coordination Sequence:
#
# PCOD9507161 Si02
#       6
#    16   8  16  16  16  16
#     4  10  22  44  65  85 128 176 204 246 326 391
#     4  10  20  39  62  86 126 168 212 245 320 374
#     4  11  24  40  63  96 128 161 212 271 309 367
#     4  11  21  39  66  94 119 171 216 254 312 383
#     4  11  21  39  66  94 119 171 216 254 312 383
#     4  11  18  39  68  84 125 177 212 244 318 402
#
# _framework density 21.250471999999998
#
# number of rings (size 3 to 8) (size 9 to 14) (size 15 to 20)
#    0.000    1.273    5.455    2.182    0.000    4.364 
#    0.000   20.909    0.000    0.000    0.000    0.000 
#    0.000    0.000    0.000    0.000    0.000    0.000 
#
# Total GULP energy -245375.555849 kJ/mol
# GULP energy per Si atom -5576.717178 kJ/mol
# Density = 2.120210 g / cm^3
# Si number density = 21.250472 Si / 1000 Ang^3
#
#
#
# Elastic Constant Matrix: (Units=GPa)
#
#
# Indices 1 2 3 4 5 6 
#
# 1 97.7044 26.1507 27.7015 0.0000 0.0000 0.0000
# 2 26.1507 118.8732 44.6383 0.0000 0.0000 0.0000
# 3 27.7015 44.6383 81.8077 0.0000 0.0000 0.0000
# 4 0.0000 0.0000 0.0000 22.6773 0.0000 0.0000
# 5 0.0000 0.0000 0.0000 0.0000 9.6716 0.0000
# 6 0.0000 0.0000 0.0000 0.0000 0.0000 19.5611
#
#
#
# Elastic Compliance Matrix: (Units=1/GPa)
#
#
# Indices 1 2 3 4 5 6 
#
# 1 0.011490 -0.001341 -0.003159 0.000000 0.000000 0.000000
# 2 -0.001341 0.010737 -0.005404 0.000000 0.000000 0.000000
# 3 -0.003159 -0.005404 0.016242 0.000000 0.000000 0.000000
# 4 0.000000 0.000000 0.000000 0.044097 0.000000 0.000000
# 5 0.000000 0.000000 0.000000 0.000000 0.103395 0.000000
# 6 0.000000 0.000000 0.000000 0.000000 0.000000 0.051122
#
#
# Mechanical properties :
#
#
# Convention : Reuss Voigt Hill
#
# Bulk Modulus (GPa) = 53.59100 55.04068 54.31584
# Shear Modulus (GPa) = 19.00337 23.70834 21.35585
#
# Velocity S-wave (km/s) = 2.99366 3.34378 3.17355
# Velocity P-wave (km/s) = 6.10105 6.39257 6.24851
#
# Compressibility (1/GPa) = 0.01865985
#
# Stress axis : x y z
#
# Youngs Moduli (GPa) = 87.03575 93.13757 61.56812
#
# Poissons Ratio (x) = 0.12494 0.19447
# Poissons Ratio (y) = 0.11676 0.33273
# Poissons Ratio (z) = 0.27491 0.50334
#
# Static dielectric constant tensor:
#      x y z
#    x 1.784300 0.000000 0.000000 
#    y 0.000000 1.841250 0.000000 
#    z 0.000000 0.000000 1.762060 
# 
# From -- ./inp_files/36310.got.cif
#   From: 2010.05.17/outbox.cif.g08.bks.cpg/sg68_19_cif.got.tgz:36310.got - 2010.06.03 18:57:09.
