data_PCOD9507727
_publ_section_title
;
Structure prediction by ZEFSAII (Michael W. Deem and Ramdas Pophale) SiO2 
 PCOD9507727
Probable space group: C C C A
;
_chemical_formula_sum "Si O2"
_cell_formula_units_Z 56
_cell_length_a 27.011838
_cell_length_b 5.416031
_cell_length_c 14.970855
_cell_angle_alpha 90.000000
_cell_angle_beta 90.000000
_cell_angle_gamma 90.000000
_cell_volume 2190.190455
_symmetry_space_group_name_H-M "C C C A"
_symmetry_group_IT_number 68
_space_group.IT_coordinate_system_code '2'
_symmetry_cell_setting 'orthorhombic'
loop_
_space_group_symop_operation_xyz
x,y,z
-x,1/2-y,z
x,1/2-y,1/2-z
-x,y,1/2-z
-x,-y,-z
x,1/2+y,-z
-x,1/2+y,1/2+z
x,-y,1/2+z
1/2+x,1/2+y,z
1/2-x,-y,z
1/2+x,-y,1/2-z
1/2-x,1/2+y,1/2-z
1/2-x,1/2-y,-z
1/2+x,y,-z
1/2-x,y,1/2+z
1/2+x,1/2-y,1/2+z
loop_
_atom_site_type_symbol
_atom_site_label
_atom_site_fract_x
_atom_site_fract_y
_atom_site_fract_z
Si Si1 0.064826 0.855234 0.974677
Si Si2 0.682203 0.679138 0.453581
Si Si3 0.282451 0.750000 0.250000
Si Si4 0.443035 0.494846 0.218340
O O1 0.123678 0.823753 0.978116
O O2 0.056241 0.014411 0.886542
O O3 0.046360 0.572956 0.958098
O O4 0.701041 0.413854 0.489285
O O5 0.689898 0.716897 0.346772
O O6 0.250000 0.500000 0.259366
O O7 0.416186 0.250000 0.250000
O O8 0.500000 0.494519 0.250000
O O9 0.419943 0.750000 0.250000
#
# Coordination Sequence:
#
# PCOD9507727 Si02
#       4
#    16  16   8  16
#     4  10  21  40  63  89 120 162 211 259 314 369
#     4  10  23  43  65  96 132 167 215 268 314 374
#     4  12  26  42  66 102 131 172 215 248 328 396
#     4  10  21  38  57  88 122 158 204 251 317 367
#
# _framework density 25.568550999999999
#
# number of rings (size 3 to 8) (size 9 to 14) (size 15 to 20)
#    0.000    1.714    0.000    3.429    2.000    3.429 
#    2.571   17.143    0.000    0.000    0.000    0.000 
#    0.000    0.000    0.000    0.000    0.000    0.000 
#
# Total GULP energy -156256.502463 kJ/mol
# GULP energy per Si atom -5580.589374 kJ/mol
# Density = 2.551036 g / cm^3
# Si number density = 25.568551 Si / 1000 Ang^3
#
#
#
# Elastic Constant Matrix: (Units=GPa)
#
#
# Indices 1 2 3 4 5 6 
#
# 1 37.7503 42.9531 2.8036 0.0000 0.0000 0.0000
# 2 42.9531 279.1401 39.5043 0.0000 0.0000 0.0000
# 3 2.8036 39.5043 90.6526 0.0000 0.0000 0.0000
# 4 0.0000 0.0000 0.0000 61.7446 0.0000 0.0000
# 5 0.0000 0.0000 0.0000 0.0000 11.2514 0.0000
# 6 0.0000 0.0000 0.0000 0.0000 0.0000 -27.6861
#
#
#
# Elastic Compliance Matrix: (Units=1/GPa)
#
#
# Indices 1 2 3 4 5 6 
#
# 1 0.032243 -0.005137 0.001241 0.000000 0.000000 0.000000
# 2 -0.005137 0.004636 -0.001862 0.000000 0.000000 0.000000
# 3 0.001241 -0.001862 0.011804 0.000000 0.000000 0.000000
# 4 0.000000 0.000000 0.000000 0.016196 0.000000 0.000000
# 5 0.000000 0.000000 0.000000 0.000000 0.088878 0.000000
# 6 0.000000 0.000000 0.000000 0.000000 0.000000 -0.036119
#
#
# Mechanical properties :
#
#
# Convention : Reuss Voigt Hill
#
# Bulk Modulus (GPa) = 26.90435 64.22943 45.56689
# Shear Modulus (GPa) = 35.32543 30.54747 32.93645
#
# Velocity S-wave (km/s) = 3.72102 3.46023 3.59299
# Velocity P-wave (km/s) = 5.38577 6.41399 5.92224
#
# Compressibility (1/GPa) = 0.03716871
#
# Stress axis : x y z
#
# Youngs Moduli (GPa) = 31.01469 215.68665 84.71744
#
# Poissons Ratio (x) = 1.10800 -0.10517
# Poissons Ratio (y) = 0.15933 0.15770
# Poissons Ratio (z) = -0.03850 0.40151
#
# Static dielectric constant tensor:
#      x y z
#    x 1.999580 0.000000 0.000000 
#    y 0.000000 -4.274970 0.000000 
#    z 0.000000 0.000000 2.364200 
# 
# From -- ./inp_files/18318.got.cif
#   From: 2010.05.17/outbox.cif.g08.bks.cpg/sg68_10_cif.got.tgz:18318.got - 2010.06.03 18:57:09.
