data_PCOD9507007
_publ_section_title
;
Structure prediction by ZEFSAII (Michael W. Deem and Ramdas Pophale) SiO2 
 PCOD9507007
Probable space group: C C C A
;
_chemical_formula_sum "Si O2"
_cell_formula_units_Z 56
_cell_length_a 8.317577
_cell_length_b 12.066881
_cell_length_c 20.542094
_cell_angle_alpha 90.000000
_cell_angle_beta 90.000000
_cell_angle_gamma 90.000000
_cell_volume 2061.752701
_symmetry_space_group_name_H-M "C C C A"
_symmetry_group_IT_number 68
_space_group.IT_coordinate_system_code '2'
_symmetry_cell_setting 'orthorhombic'
loop_
_space_group_symop_operation_xyz
x,y,z
-x,1/2-y,z
x,1/2-y,1/2-z
-x,y,1/2-z
-x,-y,-z
x,1/2+y,-z
-x,1/2+y,1/2+z
x,-y,1/2+z
1/2+x,1/2+y,z
1/2-x,-y,z
1/2+x,-y,1/2-z
1/2-x,1/2+y,1/2-z
1/2-x,1/2-y,-z
1/2+x,y,-z
1/2-x,y,1/2+z
1/2+x,1/2-y,1/2+z
loop_
_atom_site_type_symbol
_atom_site_label
_atom_site_fract_x
_atom_site_fract_y
_atom_site_fract_z
Si Si1 0.085244 0.428344 0.079064
Si Si2 0.721442 0.237828 0.147264
Si Si3 0.000000 0.250000 0.524940
Si Si4 0.553195 0.066967 0.315405
O O1 0.250000 0.500000 0.066840
O O2 0.125992 0.336399 0.134117
O O3 0.014462 0.359878 0.019040
O O4 0.960627 0.506052 0.116026
O O5 0.712485 0.356355 0.182315
O O6 0.592645 0.156630 0.180810
O O7 0.651788 0.251969 0.073494
O O8 0.500000 0.004662 0.250000
#
# Coordination Sequence:
#
# PCOD9507007 Si02
#       4
#    16  16   8  16
#     4  10  21  37  57  84 113 144 185 231 276 329
#     4   9  19  35  60  83 110 150 183 228 279 328
#     4  10  20  38  58  84 116 144 184 230 278 332
#     4   9  18  36  57  79 110 147 187 228 274 329
#
# _framework density 27.161358
#
# number of rings (size 3 to 8) (size 9 to 14) (size 15 to 20)
#    0.000    2.857    0.000    2.571    0.000   10.286 
#    0.000   16.429    0.000   12.000    0.000    0.000 
#    0.000    0.000    0.000    0.000    0.000    0.000 
#
# Total GULP energy -156456.512365 kJ/mol
# GULP energy per Si atom -5587.732584 kJ/mol
# Density = 2.709954 g / cm^3
# Si number density = 27.161358 Si / 1000 Ang^3
#
#
#
# Elastic Constant Matrix: (Units=GPa)
#
#
# Indices 1 2 3 4 5 6 
#
# 1 47.4112 30.7075 3.4995 0.0000 0.0000 0.0000
# 2 30.7075 99.7332 57.4906 0.0000 0.0000 0.0000
# 3 3.4995 57.4906 153.8003 0.0000 0.0000 0.0000
# 4 0.0000 0.0000 0.0000 55.0529 0.0000 0.0000
# 5 0.0000 0.0000 0.0000 0.0000 18.9650 0.0000
# 6 0.0000 0.0000 0.0000 0.0000 0.0000 55.2499
#
#
#
# Elastic Compliance Matrix: (Units=1/GPa)
#
#
# Indices 1 2 3 4 5 6 
#
# 1 0.027560 -0.010355 0.003244 0.000000 0.000000 0.000000
# 2 -0.010355 0.016672 -0.005996 0.000000 0.000000 0.000000
# 3 0.003244 -0.005996 0.008670 0.000000 0.000000 0.000000
# 4 0.000000 0.000000 0.000000 0.018164 0.000000 0.000000
# 5 0.000000 0.000000 0.000000 0.000000 0.052729 0.000000
# 6 0.000000 0.000000 0.000000 0.000000 0.000000 0.018100
#
#
# Mechanical properties :
#
#
# Convention : Reuss Voigt Hill
#
# Bulk Modulus (GPa) = 37.47407 53.81556 45.64481
# Shear Modulus (GPa) = 28.24791 39.80336 34.02563
#
# Velocity S-wave (km/s) = 3.22841 3.83226 3.54322
# Velocity P-wave (km/s) = 5.26532 6.27996 5.79489
#
# Compressibility (1/GPa) = 0.02668512
#
# Stress axis : x y z
#
# Youngs Moduli (GPa) = 36.28489 59.98206 115.34645
#
# Poissons Ratio (x) = 0.62114 -0.37416
# Poissons Ratio (y) = 0.37574 0.69165
# Poissons Ratio (z) = -0.11770 0.35967
#
# Static dielectric constant tensor:
#      x y z
#    x 2.193790 0.000000 0.000000 
#    y 0.000000 2.208830 0.000000 
#    z 0.000000 0.000000 2.111680 
# 
# From -- ./inp_files/36933.got.cif
#   From: 2010.05.17/outbox.cif.g08.bks.cpg/sg68_19_cif.got.tgz:36933.got - 2010.06.03 18:57:09.
