data_PCOD9507189
_publ_section_title
;
Structure prediction by ZEFSAII (Michael W. Deem and Ramdas Pophale) SiO2 
 PCOD9507189
Probable space group: C C C A
;
_chemical_formula_sum "Si O2"
_cell_formula_units_Z 116
_cell_length_a 16.031795
_cell_length_b 27.405900
_cell_length_c 13.032122
_cell_angle_alpha 90.000000
_cell_angle_beta 90.000000
_cell_angle_gamma 90.000000
_cell_volume 5725.868325
_symmetry_space_group_name_H-M "C C C A"
_symmetry_group_IT_number 68
_space_group.IT_coordinate_system_code '2'
_symmetry_cell_setting 'orthorhombic'
loop_
_space_group_symop_operation_xyz
x,y,z
-x,1/2-y,z
x,1/2-y,1/2-z
-x,y,1/2-z
-x,-y,-z
x,1/2+y,-z
-x,1/2+y,1/2+z
x,-y,1/2+z
1/2+x,1/2+y,z
1/2-x,-y,z
1/2+x,-y,1/2-z
1/2-x,1/2+y,1/2-z
1/2-x,1/2-y,-z
1/2+x,y,-z
1/2-x,y,1/2+z
1/2+x,1/2-y,1/2+z
loop_
_atom_site_type_symbol
_atom_site_label
_atom_site_fract_x
_atom_site_fract_y
_atom_site_fract_z
Si Si1 0.740647 0.056295 0.362263
Si Si2 0.394388 0.311940 0.903067
Si Si3 0.304582 0.625724 0.056295
Si Si4 0.597411 0.404581 0.743373
Si Si5 0.793640 0.792686 0.402172
Si Si6 0.165224 0.867228 0.273997
Si Si7 0.928554 0.789417 0.125047
Si Si8 0.500000 0.750000 0.250000
O O1 0.720067 0.087192 0.466242
O O2 0.827630 0.061895 0.298334
O O3 0.672562 0.080041 0.281680
O O4 0.750000 0.000000 0.392211
O O5 0.394113 0.363264 0.844962
O O6 0.304231 0.287569 0.921864
O O7 0.442347 0.280298 0.822662
O O8 0.439798 0.310922 0.011544
O O9 0.373471 0.611777 0.141968
O O10 0.220771 0.632055 0.123477
O O11 0.328775 0.675758 0.997759
O O12 0.500000 0.420039 0.750000
O O13 0.794038 0.830277 0.307286
O O14 0.845486 0.744845 0.374093
O O15 0.082988 0.836835 0.303860
O O16 0.000000 0.750000 0.145322
#
# Coordination Sequence:
#
# PCOD9507189 Si02
#       8
#    16  16  16  16  16  16  16   4
#     4  10  22  44  75 101 127 174 236 284 363 443
#     4  12  23  39  58  95 132 172 227 277 332 397
#     4  10  20  39  64  94 127 176 219 280 342 421
#     4  11  23  41  69 100 140 168 221 297 356 399
#     4  11  23  38  62  88 130 182 228 269 332 413
#     4  10  21  41  63  92 129 173 222 280 339 403
#     4  12  26  39  59  91 136 189 236 272 326 404
#     4  12  28  32  60 100 128 172 228 284 312 376
#
# _framework density 20.258935000000001
#
# number of rings (size 3 to 8) (size 9 to 14) (size 15 to 20)
#    0.000    1.103    6.897    0.828    5.793    3.310 
#    0.000    0.690    6.069    0.000    0.000    0.000 
#    0.000    0.000    0.000    0.000    0.000    0.000 
#
# Total GULP energy -323022.089981 kJ/mol
# GULP energy per Si atom -5569.346379 kJ/mol
# Density = 2.021283 g / cm^3
# Si number density = 20.258935 Si / 1000 Ang^3
#
#
#
# Elastic Constant Matrix: (Units=GPa)
#
#
# Indices 1 2 3 4 5 6 
#
# 1 85.3250 0.6333 32.0414 0.0000 0.0000 0.0000
# 2 0.6333 76.4572 41.6786 0.0000 0.0000 0.0000
# 3 32.0414 41.6786 130.1943 0.0000 0.0000 0.0000
# 4 0.0000 0.0000 0.0000 15.7970 0.0000 0.0000
# 5 0.0000 0.0000 0.0000 0.0000 64.5479 0.0000
# 6 0.0000 0.0000 0.0000 0.0000 0.0000 14.6390
#
#
#
# Elastic Compliance Matrix: (Units=1/GPa)
#
#
# Indices 1 2 3 4 5 6 
#
# 1 0.013163 0.002007 -0.003882 0.000000 0.000000 0.000000
# 2 0.002007 0.016150 -0.005664 0.000000 0.000000 0.000000
# 3 -0.003882 -0.005664 0.010449 0.000000 0.000000 0.000000
# 4 0.000000 0.000000 0.000000 0.063303 0.000000 0.000000
# 5 0.000000 0.000000 0.000000 0.000000 0.015492 0.000000
# 6 0.000000 0.000000 0.000000 0.000000 0.000000 0.068311
#
#
# Mechanical properties :
#
#
# Convention : Reuss Voigt Hill
#
# Bulk Modulus (GPa) = 40.51115 48.96479 44.73797
# Shear Modulus (GPa) = 23.78976 33.50499 28.64738
#
# Velocity S-wave (km/s) = 3.43050 4.07115 3.76448
# Velocity P-wave (km/s) = 5.97756 6.80595 6.40516
#
# Compressibility (1/GPa) = 0.02468456
#
# Stress axis : x y z
#
# Youngs Moduli (GPa) = 75.97200 61.91877 95.69929
#
# Poissons Ratio (x) = -0.12428 0.37150
# Poissons Ratio (y) = -0.15248 0.54205
# Poissons Ratio (z) = 0.29492 0.35071
#
# Static dielectric constant tensor:
#      x y z
#    x 1.779240 0.000000 0.000000 
#    y 0.000000 1.587210 0.000000 
#    z 0.000000 0.000000 1.748500 
# 
# From -- ./inp_files/14838.got.cif
#   From: 2010.05.17/outbox.cif.g08.bks.cpg/sg68_8_cif.got.tgz:14838.got - 2010.06.03 18:57:09.
