data_PCOD9507557
_publ_section_title
;
Structure prediction by ZEFSAII (Michael W. Deem and Ramdas Pophale) SiO2 
 PCOD9507557
Probable space group: C C C A
;
_chemical_formula_sum "Si O2"
_cell_formula_units_Z 56
_cell_length_a 15.002332
_cell_length_b 5.261861
_cell_length_c 31.544442
_cell_angle_alpha 90.000000
_cell_angle_beta 90.000000
_cell_angle_gamma 90.000000
_cell_volume 2490.124108
_symmetry_space_group_name_H-M "C C C A"
_symmetry_group_IT_number 68
_space_group.IT_coordinate_system_code '2'
_symmetry_cell_setting 'orthorhombic'
loop_
_space_group_symop_operation_xyz
x,y,z
-x,1/2-y,z
x,1/2-y,1/2-z
-x,y,1/2-z
-x,-y,-z
x,1/2+y,-z
-x,1/2+y,1/2+z
x,-y,1/2+z
1/2+x,1/2+y,z
1/2-x,-y,z
1/2+x,-y,1/2-z
1/2-x,1/2+y,1/2-z
1/2-x,1/2-y,-z
1/2+x,y,-z
1/2-x,y,1/2+z
1/2+x,1/2-y,1/2+z
loop_
_atom_site_type_symbol
_atom_site_label
_atom_site_fract_x
_atom_site_fract_y
_atom_site_fract_z
Si Si1 0.646787 0.944865 0.517646
Si Si2 0.392935 0.249117 0.659164
Si Si3 0.191299 0.250000 0.250000
Si Si4 0.108224 0.748271 0.110675
O O1 0.606649 0.727110 0.487184
O O2 0.640919 0.826807 0.564193
O O3 0.750000 0.000000 0.506682
O O4 0.500000 0.250000 0.657409
O O5 0.364477 0.206630 0.707329
O O6 0.362785 0.522508 0.642049
O O7 0.361827 0.019646 0.628804
O O8 0.250000 0.500000 0.243247
O O9 0.000000 0.750000 0.108976
#
# Coordination Sequence:
#
# PCOD9507557 Si02
#       4
#    16  16   8  16
#     4  10  21  36  54  80 115 153 190 233 290 346
#     4  10  22  41  61  84 118 156 191 234 292 348
#     4  12  25  40  61  92 120 148 194 240 285 342
#     4  10  21  37  60  86 111 149 198 239 282 340
#
# _framework density 22.488838000000001
#
# number of rings (size 3 to 8) (size 9 to 14) (size 15 to 20)
#    0.000    1.714    0.000    3.857    0.000    4.571 
#    0.000    5.714    0.000    0.000    0.000    0.000 
#    0.000    0.000    0.000    0.000    0.000    0.000 
#
# Total GULP energy -156580.100300 kJ/mol
# GULP energy per Si atom -5592.146439 kJ/mol
# Density = 2.243765 g / cm^3
# Si number density = 22.488838 Si / 1000 Ang^3
#
#
#
# Elastic Constant Matrix: (Units=GPa)
#
#
# Indices 1 2 3 4 5 6 
#
# 1 49.2980 31.2525 4.8985 0.0000 0.0000 0.0000
# 2 31.2525 176.6237 50.5927 0.0000 0.0000 0.0000
# 3 4.8985 50.5927 129.4927 0.0000 0.0000 0.0000
# 4 0.0000 0.0000 0.0000 36.7103 0.0000 0.0000
# 5 0.0000 0.0000 0.0000 0.0000 30.6481 0.0000
# 6 0.0000 0.0000 0.0000 0.0000 0.0000 -0.1497
#
#
#
# Elastic Compliance Matrix: (Units=1/GPa)
#
#
# Indices 1 2 3 4 5 6 
#
# 1 0.022923 -0.004287 0.000808 0.000000 0.000000 0.000000
# 2 -0.004287 0.007177 -0.002642 0.000000 0.000000 0.000000
# 3 0.000808 -0.002642 0.008724 0.000000 0.000000 0.000000
# 4 0.000000 0.000000 0.000000 0.027240 0.000000 0.000000
# 5 0.000000 0.000000 0.000000 0.000000 0.032628 0.000000
# 6 0.000000 0.000000 0.000000 0.000000 0.000000 -6.678670
#
#
# Mechanical properties :
#
#
# Convention : Reuss Voigt Hill
#
# Bulk Modulus (GPa) = 37.62088 58.76688 48.19388
# Shear Modulus (GPa) = -0.76233 31.35311 15.29539
#
# Velocity S-wave (km/s) = -0.58285 3.73790 2.61076
# Velocity P-wave (km/s) = 4.03882 6.69459 5.52854
#
# Compressibility (1/GPa) = 0.02658099
#
# Stress axis : x y z
#
# Youngs Moduli (GPa) = 43.62519 139.33100 114.62531
#
# Poissons Ratio (x) = 0.59737 -0.09262
# Poissons Ratio (y) = 0.18704 0.30283
# Poissons Ratio (z) = -0.03525 0.36810
#
# Static dielectric constant tensor:
#      x y z
#    x 1.840540 0.000000 0.000000 
#    y 0.000000 1.873560 0.000000 
#    z 0.000000 0.000000 1.784570 
# 
# From -- ./inp_files/47980.got.cif
#   From: 2010.05.17/outbox.cif.g08.bks.cpg/sg68_24_cif.got.tgz:47980.got - 2010.06.03 18:57:09.
