data_PCOD9507545
_publ_section_title
;
Structure prediction by ZEFSAII (Michael W. Deem and Ramdas Pophale) SiO2 
 PCOD9507545
Probable space group: C C C A
;
_chemical_formula_sum "Si O2"
_cell_formula_units_Z 88
_cell_length_a 20.791997
_cell_length_b 18.602215
_cell_length_c 12.499070
_cell_angle_alpha 90.000000
_cell_angle_beta 90.000000
_cell_angle_gamma 90.000000
_cell_volume 4834.355278
_symmetry_space_group_name_H-M "C C C A"
_symmetry_group_IT_number 68
_space_group.IT_coordinate_system_code '2'
_symmetry_cell_setting 'orthorhombic'
loop_
_space_group_symop_operation_xyz
x,y,z
-x,1/2-y,z
x,1/2-y,1/2-z
-x,y,1/2-z
-x,-y,-z
x,1/2+y,-z
-x,1/2+y,1/2+z
x,-y,1/2+z
1/2+x,1/2+y,z
1/2-x,-y,z
1/2+x,-y,1/2-z
1/2-x,1/2+y,1/2-z
1/2-x,1/2-y,-z
1/2+x,y,-z
1/2-x,y,1/2+z
1/2+x,1/2-y,1/2+z
loop_
_atom_site_type_symbol
_atom_site_label
_atom_site_fract_x
_atom_site_fract_y
_atom_site_fract_z
Si Si1 0.835968 0.750000 0.750000
Si Si2 0.571901 0.129347 0.745459
Si Si3 0.569033 0.034036 0.194616
Si Si4 0.378669 0.419000 0.978960
Si Si5 0.764009 0.176766 0.440051
Si Si6 0.814608 0.045687 0.858710
O O1 0.881833 0.810179 0.697327
O O2 0.793320 0.703680 0.671306
O O3 0.500000 0.157394 0.750000
O O4 0.572916 0.052915 0.685556
O O5 0.590933 0.110652 0.868636
O O6 0.500000 0.049568 0.250000
O O7 0.575128 0.070829 0.079240
O O8 0.631653 0.054602 0.266272
O O9 0.318945 0.366908 0.003443
O O10 0.348256 0.495596 0.947230
O O11 0.750000 0.250000 0.500000
O O12 0.708643 0.120166 0.410261
O O13 0.750000 0.000000 0.823722
#
# Coordination Sequence:
#
# PCOD9507545 Si02
#       6
#     8  16  16  16  16  16
#     4  10  21  36  52  84 117 138 200 232 286 352
#     4   9  19  35  57  82 111 150 183 239 288 341
#     4  10  21  36  61  87 116 155 192 246 299 349
#     4   9  20  38  55  83 115 142 198 232 289 354
#     4  10  22  36  56  84 110 153 190 238 292 341
#     4   9  20  37  56  85 114 152 195 240 290 341
#
# _framework density 18.203047999999999
#
# number of rings (size 3 to 8) (size 9 to 14) (size 15 to 20)
#    0.000    2.545    0.000    1.364    5.091    8.727 
#    0.000    0.000    0.000    1.091    0.000    0.000 
#    0.000    0.000    0.000    0.000    0.000    0.000 
#
# Total GULP energy -245101.041098 kJ/mol
# GULP energy per Si atom -5570.478207 kJ/mol
# Density = 1.816162 g / cm^3
# Si number density = 18.203048 Si / 1000 Ang^3
#
#
#
# Elastic Constant Matrix: (Units=GPa)
#
#
# Indices 1 2 3 4 5 6 
#
# 1 87.4122 30.1577 22.7006 0.0000 0.0000 0.0000
# 2 30.1577 94.8317 21.9091 0.0000 0.0000 0.0000
# 3 22.7006 21.9091 39.7336 0.0000 0.0000 0.0000
# 4 0.0000 0.0000 0.0000 19.8824 0.0000 0.0000
# 5 0.0000 0.0000 0.0000 0.0000 22.0403 0.0000
# 6 0.0000 0.0000 0.0000 0.0000 0.0000 13.3829
#
#
#
# Elastic Compliance Matrix: (Units=1/GPa)
#
#
# Indices 1 2 3 4 5 6 
#
# 1 0.014148 -0.003016 -0.006420 0.000000 0.000000 0.000000
# 2 -0.003016 0.012727 -0.005295 0.000000 0.000000 0.000000
# 3 -0.006420 -0.005295 0.031755 0.000000 0.000000 0.000000
# 4 0.000000 0.000000 0.000000 0.050296 0.000000 0.000000
# 5 0.000000 0.000000 0.000000 0.000000 0.045371 0.000000
# 6 0.000000 0.000000 0.000000 0.000000 0.000000 0.074722
#
#
# Mechanical properties :
#
#
# Convention : Reuss Voigt Hill
#
# Bulk Modulus (GPa) = 34.28321 41.27916 37.78118
# Shear Modulus (GPa) = 18.64252 20.87511 19.75882
#
# Velocity S-wave (km/s) = 3.20369 3.39011 3.29822
# Velocity P-wave (km/s) = 5.70610 6.16847 5.94178
#
# Compressibility (1/GPa) = 0.02916880
#
# Stress axis : x y z
#
# Youngs Moduli (GPa) = 70.68234 78.57067 31.49112
#
# Poissons Ratio (x) = 0.23697 0.20217
# Poissons Ratio (y) = 0.21318 0.16674
# Poissons Ratio (z) = 0.45377 0.41602
#
# Static dielectric constant tensor:
#      x y z
#    x 2.814040 0.000000 0.000000 
#    y 0.000000 1.631010 0.000000 
#    z 0.000000 0.000000 1.590630 
# 
# From -- ./inp_files/14424.got.cif
#   From: 2010.05.17/outbox.cif.g08.bks.cpg/sg68_8_cif.got.tgz:14424.got - 2010.06.03 18:57:09.
