data_PCOD9507777
_publ_section_title
;
Structure prediction by ZEFSAII (Michael W. Deem and Ramdas Pophale) SiO2 
 PCOD9507777
Probable space group: C C C A
;
_chemical_formula_sum "Si O2"
_cell_formula_units_Z 88
_cell_length_a 15.924836
_cell_length_b 10.867777
_cell_length_c 24.722668
_cell_angle_alpha 90.000000
_cell_angle_beta 90.000000
_cell_angle_gamma 90.000000
_cell_volume 4278.691986
_symmetry_space_group_name_H-M "C C C A"
_symmetry_group_IT_number 68
_space_group.IT_coordinate_system_code '2'
_symmetry_cell_setting 'orthorhombic'
loop_
_space_group_symop_operation_xyz
x,y,z
-x,1/2-y,z
x,1/2-y,1/2-z
-x,y,1/2-z
-x,-y,-z
x,1/2+y,-z
-x,1/2+y,1/2+z
x,-y,1/2+z
1/2+x,1/2+y,z
1/2-x,-y,z
1/2+x,-y,1/2-z
1/2-x,1/2+y,1/2-z
1/2-x,1/2-y,-z
1/2+x,y,-z
1/2-x,y,1/2+z
1/2+x,1/2-y,1/2+z
loop_
_atom_site_type_symbol
_atom_site_label
_atom_site_fract_x
_atom_site_fract_y
_atom_site_fract_z
Si Si1 0.590377 0.517504 0.772231
Si Si2 0.151215 0.488597 0.606920
Si Si3 0.156888 0.250000 0.250000
Si Si4 0.053149 0.378197 0.017382
Si Si5 0.400550 0.730468 0.912412
Si Si6 0.791147 0.372207 0.683773
O O1 0.500000 0.555972 0.750000
O O2 0.603852 0.529342 0.836002
O O3 0.604965 0.373508 0.758858
O O4 0.660246 0.592933 0.739094
O O5 0.250000 0.500000 0.617333
O O6 0.106744 0.592739 0.570920
O O7 0.137846 0.362567 0.574647
O O8 0.217682 0.277368 0.300958
O O9 0.000000 0.250000 0.024039
O O10 0.109736 0.354252 0.964625
O O11 0.000000 0.500000 0.000000
O O12 0.500000 0.750000 0.902846
O O13 0.355229 0.677741 0.859990
O O14 0.750000 0.500000 0.664624
#
# Coordination Sequence:
#
# PCOD9507777 Si02
#       6
#    16  16   8  16  16  16
#     4  11  23  39  63  95 131 173 222 265 334 401
#     4  12  25  44  69 102 138 178 227 290 343 400
#     4  10  21  40  57  90 138 168 210 276 331 406
#     4  11  24  48  72  97 136 178 230 286 337 408
#     4  11  22  43  68  93 133 172 230 276 334 411
#     4  10  21  38  62  91 129 170 213 274 331 396
#
# _framework density 20.567035000000001
#
# number of rings (size 3 to 8) (size 9 to 14) (size 15 to 20)
#    0.000    1.091    3.636    5.182    0.000    2.909 
#    6.545    1.818    0.000    0.000    0.000    0.000 
#    0.000    0.000    0.000    0.000    0.000    0.000 
#
# Total GULP energy -245861.384475 kJ/mol
# GULP energy per Si atom -5587.758738 kJ/mol
# Density = 2.052022 g / cm^3
# Si number density = 20.567035 Si / 1000 Ang^3
#
#
#
# Elastic Constant Matrix: (Units=GPa)
#
#
# Indices 1 2 3 4 5 6 
#
# 1 86.3727 10.7764 24.2099 0.0000 0.0000 0.0000
# 2 10.7764 81.2103 13.2315 0.0000 0.0000 0.0000
# 3 24.2099 13.2315 121.7126 0.0000 0.0000 0.0000
# 4 0.0000 0.0000 0.0000 19.2889 0.0000 0.0000
# 5 0.0000 0.0000 0.0000 0.0000 33.7067 0.0000
# 6 0.0000 0.0000 0.0000 0.0000 0.0000 20.4029
#
#
#
# Elastic Compliance Matrix: (Units=1/GPa)
#
#
# Indices 1 2 3 4 5 6 
#
# 1 0.012388 -0.001265 -0.002327 0.000000 0.000000 0.000000
# 2 -0.001265 0.012665 -0.001125 0.000000 0.000000 0.000000
# 3 -0.002327 -0.001125 0.008801 0.000000 0.000000 0.000000
# 4 0.000000 0.000000 0.000000 0.051843 0.000000 0.000000
# 5 0.000000 0.000000 0.000000 0.000000 0.029668 0.000000
# 6 0.000000 0.000000 0.000000 0.000000 0.000000 0.049013
#
#
# Mechanical properties :
#
#
# Convention : Reuss Voigt Hill
#
# Bulk Modulus (GPa) = 40.94898 42.85903 41.90400
# Shear Modulus (GPa) = 27.47999 30.75154 29.11576
#
# Velocity S-wave (km/s) = 3.65926 3.87096 3.76660
# Velocity P-wave (km/s) = 6.14872 6.39242 6.27176
#
# Compressibility (1/GPa) = 0.02442063
#
# Stress axis : x y z
#
# Youngs Moduli (GPa) = 80.72552 78.95853 113.62116
#
# Poissons Ratio (x) = 0.09986 0.26434
# Poissons Ratio (y) = 0.10210 0.12785
# Poissons Ratio (z) = 0.18781 0.08885
#
# Static dielectric constant tensor:
#      x y z
#    x 1.744940 0.000000 0.000000 
#    y 0.000000 1.769210 0.000000 
#    z 0.000000 0.000000 1.727010 
# 
# From -- ./inp_files/44249.got.cif
#   From: 2010.05.17/outbox.cif.g08.bks.cpg/sg68_23_cif.got.tgz:44249.got - 2010.06.03 18:57:09.
