data_PCOD9507481
_publ_section_title
;
Structure prediction by ZEFSAII (Michael W. Deem and Ramdas Pophale) SiO2 
 PCOD9507481
Probable space group: C C C A
;
_chemical_formula_sum "Si O2"
_cell_formula_units_Z 116
_cell_length_a 22.614358
_cell_length_b 7.882934
_cell_length_c 26.601423
_cell_angle_alpha 90.000000
_cell_angle_beta 90.000000
_cell_angle_gamma 90.000000
_cell_volume 4742.168950
_symmetry_space_group_name_H-M "C C C A"
_symmetry_group_IT_number 68
_space_group.IT_coordinate_system_code '2'
_symmetry_cell_setting 'orthorhombic'
loop_
_space_group_symop_operation_xyz
x,y,z
-x,1/2-y,z
x,1/2-y,1/2-z
-x,y,1/2-z
-x,-y,-z
x,1/2+y,-z
-x,1/2+y,1/2+z
x,-y,1/2+z
1/2+x,1/2+y,z
1/2-x,-y,z
1/2+x,-y,1/2-z
1/2-x,1/2+y,1/2-z
1/2-x,1/2-y,-z
1/2+x,y,-z
1/2-x,y,1/2+z
1/2+x,1/2-y,1/2+z
loop_
_atom_site_type_symbol
_atom_site_label
_atom_site_fract_x
_atom_site_fract_y
_atom_site_fract_z
Si Si1 0.311499 0.054860 0.132789
Si Si2 0.361056 0.557210 0.268079
Si Si3 0.605471 0.232131 0.005416
Si Si4 0.000000 0.250000 0.750000
Si Si5 0.184423 0.442242 0.666488
Si Si6 0.680166 0.453693 0.938161
Si Si7 0.065347 0.989336 0.577442
Si Si8 0.487382 0.952712 0.181072
O O1 0.314505 0.256179 0.142182
O O2 0.250000 0.000000 0.107692
O O3 0.314150 0.970490 0.187874
O O4 0.369022 0.997921 0.102398
O O5 0.360567 0.750000 0.250000
O O6 0.350166 0.447794 0.218436
O O7 0.422549 0.519216 0.295397
O O8 0.663200 0.306983 0.976732
O O9 0.565635 0.167818 0.959826
O O10 0.634506 0.094051 0.041648
O O11 0.566848 0.352954 0.040124
O O12 0.022669 0.394373 0.708772
O O13 0.250000 0.500000 0.680524
O O14 0.165173 0.568334 0.621214
O O15 0.750000 0.500000 0.940065
O O16 0.017907 0.983575 0.621680
O O17 0.500000 0.750000 0.189816
#
# Coordination Sequence:
#
# PCOD9507481 Si02
#       8
#    16  16  16   4  16  16  16  16
#     4  11  23  38  59  93 139 186 231 276 333 403
#     4  11  24  41  67  91 132 174 219 281 351 413
#     4  10  21  41  59  95 128 182 230 281 343 396
#     4  12  26  48  84 106 144 164 222 276 360 444
#     4  11  23  37  57  95 136 184 236 273 328 409
#     4  10  21  33  58  87 133 181 235 279 318 384
#     4  10  24  43  70  96 140 178 232 288 348 409
#     4  11  27  52  75 112 135 175 225 294 365 444
#
# _framework density 24.461379999999998
#
# number of rings (size 3 to 8) (size 9 to 14) (size 15 to 20)
#    0.000    1.379    1.379    3.103   11.586    2.207 
#    4.966    0.690    0.000    0.000    0.000    0.000 
#    0.000    0.000    0.000    0.000    0.000    0.000 
#
# Total GULP energy -323987.266430 kJ/mol
# GULP energy per Si atom -5585.987352 kJ/mol
# Density = 2.440571 g / cm^3
# Si number density = 24.461380 Si / 1000 Ang^3
#
#
#
# Elastic Constant Matrix: (Units=GPa)
#
#
# Indices 1 2 3 4 5 6 
#
# 1 53.8556 13.9994 36.8300 0.0000 0.0000 0.0000
# 2 13.9994 69.0897 40.4721 0.0000 0.0000 0.0000
# 3 36.8300 40.4721 176.1341 0.0000 0.0000 0.0000
# 4 0.0000 0.0000 0.0000 103.9906 0.0000 0.0000
# 5 0.0000 0.0000 0.0000 0.0000 83.1284 0.0000
# 6 0.0000 0.0000 0.0000 0.0000 0.0000 11.0934
#
#
#
# Elastic Compliance Matrix: (Units=1/GPa)
#
#
# Indices 1 2 3 4 5 6 
#
# 1 0.021910 -0.002029 -0.004115 0.000000 0.000000 0.000000
# 2 -0.002029 0.016913 -0.003462 0.000000 0.000000 0.000000
# 3 -0.004115 -0.003462 0.007333 0.000000 0.000000 0.000000
# 4 0.000000 0.000000 0.000000 0.009616 0.000000 0.000000
# 5 0.000000 0.000000 0.000000 0.000000 0.012030 0.000000
# 6 0.000000 0.000000 0.000000 0.000000 0.000000 0.090144
#
#
# Mechanical properties :
#
#
# Convention : Reuss Voigt Hill
#
# Bulk Modulus (GPa) = 37.11380 53.52028 45.31704
# Shear Modulus (GPa) = 26.86153 53.49433 40.17793
#
# Velocity S-wave (km/s) = 3.31738 4.68149 4.05718
# Velocity P-wave (km/s) = 5.46614 7.15184 6.36504
#
# Compressibility (1/GPa) = 0.02694416
#
# Stress axis : x y z
#
# Youngs Moduli (GPa) = 45.64167 59.12579 136.36061
#
# Poissons Ratio (x) = 0.11996 0.56115
# Poissons Ratio (y) = 0.09260 0.47209
# Poissons Ratio (z) = 0.18782 0.20470
#
# Static dielectric constant tensor:
#      x y z
#    x 1.940180 0.000000 0.000000 
#    y 0.000000 1.995540 0.000000 
#    z 0.000000 0.000000 1.956480 
# 
# From -- ./inp_files/52180.got.cif
#   From: 2010.05.17/outbox.cif.g08.bks.cpg/sg68_27_cif.got.tgz:52180.got - 2010.06.03 18:57:09.
