data_PCOD9507019
_publ_section_title
;
Structure prediction by ZEFSAII (Michael W. Deem and Ramdas Pophale) SiO2 
 PCOD9507019
Probable space group: C C C A
;
_chemical_formula_sum "Si O2"
_cell_formula_units_Z 88
_cell_length_a 20.700724
_cell_length_b 20.360879
_cell_length_c 8.793686
_cell_angle_alpha 90.000000
_cell_angle_beta 90.000000
_cell_angle_gamma 90.000000
_cell_volume 3706.406186
_symmetry_space_group_name_H-M "C C C A"
_symmetry_group_IT_number 68
_space_group.IT_coordinate_system_code '2'
_symmetry_cell_setting 'orthorhombic'
loop_
_space_group_symop_operation_xyz
x,y,z
-x,1/2-y,z
x,1/2-y,1/2-z
-x,y,1/2-z
-x,-y,-z
x,1/2+y,-z
-x,1/2+y,1/2+z
x,-y,1/2+z
1/2+x,1/2+y,z
1/2-x,-y,z
1/2+x,-y,1/2-z
1/2-x,1/2+y,1/2-z
1/2-x,1/2-y,-z
1/2+x,y,-z
1/2-x,y,1/2+z
1/2+x,1/2-y,1/2+z
loop_
_atom_site_type_symbol
_atom_site_label
_atom_site_fract_x
_atom_site_fract_y
_atom_site_fract_z
Si Si1 0.060651 0.159918 0.010944
Si Si2 0.309939 0.160823 0.990048
Si Si3 0.633272 0.545261 0.367721
Si Si4 0.736307 0.250000 0.250000
Si Si5 0.500000 0.250000 0.750000
Si Si6 0.000000 0.440991 0.250000
Si Si7 0.500000 0.750000 0.750000
Si Si8 0.184583 0.578963 0.955390
O O1 0.049148 0.212358 0.142268
O O2 0.133429 0.134797 0.996251
O O3 0.022789 0.099889 0.098672
O O4 0.037459 0.198545 0.861155
O O5 0.371854 0.115468 0.955826
O O6 0.283652 0.204981 0.851863
O O7 0.307732 0.206580 0.137820
O O8 0.254929 0.106066 0.015506
O O9 0.563706 0.522246 0.305670
O O10 0.665452 0.486698 0.457711
O O11 0.675094 0.563978 0.221291
#
# Coordination Sequence:
#
# PCOD9507019 Si02
#       8
#    16  16  16   8   4   8   4  16
#     4   9  20  39  60  95 126 173 224 276 345 408
#     4  11  23  46  67 106 134 181 224 286 358 415
#     4  11  25  44  69  96 137 181 236 289 344 429
#     4  10  24  44  70 101 143 173 221 284 348 426
#     4   8  16  40  64  84 134 182 220 272 344 434
#     4   9  22  46  64  90 130 186 229 282 356 413
#     4  10  20  38  60 100 134 170 220 290 332 430
#     4  11  25  41  67  96 134 177 226 287 344 420
#
# _framework density 23.742675999999999
#
# number of rings (size 3 to 8) (size 9 to 14) (size 15 to 20)
#    0.000    1.818    1.818    0.545    2.545    8.000 
#   16.364    0.000    0.000    0.000    0.000    0.000 
#    0.000    0.000    0.000    0.000    0.000    0.000 
#
# Total GULP energy -245951.383657 kJ/mol
# GULP energy per Si atom -5589.804174 kJ/mol
# Density = 2.368864 g / cm^3
# Si number density = 23.742676 Si / 1000 Ang^3
#
#
#
# Elastic Constant Matrix: (Units=GPa)
#
#
# Indices 1 2 3 4 5 6 
#
# 1 62.1771 14.6810 11.6787 0.0000 0.0000 0.0000
# 2 14.6810 105.9375 56.2867 0.0000 0.0000 0.0000
# 3 11.6787 56.2867 128.9190 0.0000 0.0000 0.0000
# 4 0.0000 0.0000 0.0000 58.9128 0.0000 0.0000
# 5 0.0000 0.0000 0.0000 0.0000 18.8127 0.0000
# 6 0.0000 0.0000 0.0000 0.0000 0.0000 32.8672
#
#
#
# Elastic Compliance Matrix: (Units=1/GPa)
#
#
# Indices 1 2 3 4 5 6 
#
# 1 0.016669 -0.001963 -0.000653 0.000000 0.000000 0.000000
# 2 -0.001963 0.012522 -0.005289 0.000000 0.000000 0.000000
# 3 -0.000653 -0.005289 0.010125 0.000000 0.000000 0.000000
# 4 0.000000 0.000000 0.000000 0.016974 0.000000 0.000000
# 5 0.000000 0.000000 0.000000 0.000000 0.053156 0.000000
# 6 0.000000 0.000000 0.000000 0.000000 0.000000 0.030425
#
#
# Mechanical properties :
#
#
# Convention : Reuss Voigt Hill
#
# Bulk Modulus (GPa) = 42.54284 51.36961 46.95623
# Shear Modulus (GPa) = 30.57772 36.41102 33.49437
#
# Velocity S-wave (km/s) = 3.59260 3.92033 3.76004
# Velocity P-wave (km/s) = 5.93011 6.49422 6.21857
#
# Compressibility (1/GPa) = 0.02350572
#
# Stress axis : x y z
#
# Youngs Moduli (GPa) = 59.99064 79.86022 98.76262
#
# Poissons Ratio (x) = 0.15678 0.06449
# Poissons Ratio (y) = 0.11777 0.52238
# Poissons Ratio (z) = 0.03917 0.42240
#
# Static dielectric constant tensor:
#      x y z
#    x 1.901390 0.000000 0.000000 
#    y 0.000000 1.982750 0.000000 
#    z 0.000000 0.000000 1.882890 
# 
# From -- ./inp_files/8059.got.cif
#   From: 2010.05.17/outbox.cif.g08.bks.cpg/sg68_5_cif.got.tgz:8059.got - 2010.06.03 18:57:09.
