data_PCOD9507489
_publ_section_title
;
Structure prediction by ZEFSAII (Michael W. Deem and Ramdas Pophale) SiO2 
 PCOD9507489
Probable space group: C C C A
;
_chemical_formula_sum "Si O2"
_cell_formula_units_Z 56
_cell_length_a 14.320124
_cell_length_b 5.096638
_cell_length_c 32.264852
_cell_angle_alpha 90.000000
_cell_angle_beta 90.000000
_cell_angle_gamma 90.000000
_cell_volume 2354.833708
_symmetry_space_group_name_H-M "C C C A"
_symmetry_group_IT_number 68
_space_group.IT_coordinate_system_code '2'
_symmetry_cell_setting 'orthorhombic'
loop_
_space_group_symop_operation_xyz
x,y,z
-x,1/2-y,z
x,1/2-y,1/2-z
-x,y,1/2-z
-x,-y,-z
x,1/2+y,-z
-x,1/2+y,1/2+z
x,-y,1/2+z
1/2+x,1/2+y,z
1/2-x,-y,z
1/2+x,-y,1/2-z
1/2-x,1/2+y,1/2-z
1/2-x,1/2-y,-z
1/2+x,y,-z
1/2-x,y,1/2+z
1/2+x,1/2-y,1/2+z
loop_
_atom_site_type_symbol
_atom_site_label
_atom_site_fract_x
_atom_site_fract_y
_atom_site_fract_z
Si Si1 0.644898 0.557431 0.017710
Si Si2 0.250000 0.500000 0.223933
Si Si3 0.612506 0.242705 0.341741
Si Si4 0.387945 0.239674 0.891914
O O1 0.750000 0.500000 0.003043
O O2 0.647732 0.665474 0.063962
O O3 0.600489 0.273389 0.012123
O O4 0.287998 0.750000 0.250000
O O5 0.330586 0.362797 0.196407
O O6 0.500000 0.250000 0.334718
O O7 0.636068 0.444761 0.379044
O O8 0.638850 0.949933 0.356303
O O9 0.500000 0.250000 0.894699
#
# Coordination Sequence:
#
# PCOD9507489 Si02
#       4
#    16   8  16  16
#     4  10  21  34  51  83 122 161 210 264 319 372
#     4  12  26  44  70 102 130 168 214 262 334 414
#     4  10  23  42  64  95 128 164 213 265 320 390
#     4  10  21  38  61  87 120 167 215 260 320 380
#
# _framework density 23.780868999999999
#
# number of rings (size 3 to 8) (size 9 to 14) (size 15 to 20)
#    0.000    1.714    0.000    3.429    4.000    1.714 
#    0.000    1.429    0.000    0.000    0.000    0.000 
#    0.000    0.000    0.000    0.000    0.000    0.000 
#
# Total GULP energy -156549.507516 kJ/mol
# GULP energy per Si atom -5591.053840 kJ/mol
# Density = 2.372674 g / cm^3
# Si number density = 23.780869 Si / 1000 Ang^3
#
#
#
# Elastic Constant Matrix: (Units=GPa)
#
#
# Indices 1 2 3 4 5 6 
#
# 1 96.5376 23.6411 19.8434 0.0000 0.0000 0.0000
# 2 23.6411 156.2525 40.0904 0.0000 0.0000 0.0000
# 3 19.8434 40.0904 100.6982 0.0000 0.0000 0.0000
# 4 0.0000 0.0000 0.0000 43.2166 0.0000 0.0000
# 5 0.0000 0.0000 0.0000 0.0000 28.2319 0.0000
# 6 0.0000 0.0000 0.0000 0.0000 0.0000 6.6289
#
#
#
# Elastic Compliance Matrix: (Units=1/GPa)
#
#
# Indices 1 2 3 4 5 6 
#
# 1 0.011006 -0.001235 -0.001677 0.000000 0.000000 0.000000
# 2 -0.001235 0.007267 -0.002650 0.000000 0.000000 0.000000
# 3 -0.001677 -0.002650 0.011316 0.000000 0.000000 0.000000
# 4 0.000000 0.000000 0.000000 0.023139 0.000000 0.000000
# 5 0.000000 0.000000 0.000000 0.000000 0.035421 0.000000
# 6 0.000000 0.000000 0.000000 0.000000 0.000000 0.150855
#
#
# Mechanical properties :
#
#
# Convention : Reuss Voigt Hill
#
# Bulk Modulus (GPa) = 54.15631 57.84869 56.00250
# Shear Modulus (GPa) = 19.50976 33.60969 26.55973
#
# Velocity S-wave (km/s) = 2.86737 3.76348 3.34556
# Velocity P-wave (km/s) = 5.81248 6.57750 6.20679
#
# Compressibility (1/GPa) = 0.01846507
#
# Stress axis : x y z
#
# Youngs Moduli (GPa) = 90.86114 137.61646 88.37001
#
# Poissons Ratio (x) = 0.16994 0.14821
# Poissons Ratio (y) = 0.11220 0.23415
# Poissons Ratio (z) = 0.15239 0.36464
#
# Static dielectric constant tensor:
#      x y z
#    x 1.914720 0.000000 0.000000 
#    y 0.000000 1.993850 0.000000 
#    z 0.000000 0.000000 1.892200 
# 
# From -- ./inp_files/52748.got.cif
#   From: 2010.05.17/outbox.cif.g08.bks.cpg/sg68_27_cif.got.tgz:52748.got - 2010.06.03 18:57:09.
