data_PCOD9507270
_publ_section_title
;
Structure prediction by ZEFSAII (Michael W. Deem and Ramdas Pophale) SiO2 
 PCOD9507270
Probable space group: C C C A
;
_chemical_formula_sum "Si O2"
_cell_formula_units_Z 60
_cell_length_a 14.406156
_cell_length_b 15.786792
_cell_length_c 11.307249
_cell_angle_alpha 90.000000
_cell_angle_beta 90.000000
_cell_angle_gamma 90.000000
_cell_volume 2571.573586
_symmetry_space_group_name_H-M "C C C A"
_symmetry_group_IT_number 68
_space_group.IT_coordinate_system_code '2'
_symmetry_cell_setting 'orthorhombic'
loop_
_space_group_symop_operation_xyz
x,y,z
-x,1/2-y,z
x,1/2-y,1/2-z
-x,y,1/2-z
-x,-y,-z
x,1/2+y,-z
-x,1/2+y,1/2+z
x,-y,1/2+z
1/2+x,1/2+y,z
1/2-x,-y,z
1/2+x,-y,1/2-z
1/2-x,1/2+y,1/2-z
1/2-x,1/2-y,-z
1/2+x,y,-z
1/2-x,y,1/2+z
1/2+x,1/2-y,1/2+z
loop_
_atom_site_type_symbol
_atom_site_label
_atom_site_fract_x
_atom_site_fract_y
_atom_site_fract_z
Si Si1 0.000000 0.434051 0.750000
Si Si2 0.000000 0.250000 0.250000
Si Si3 0.894672 0.158078 0.571445
Si Si4 0.100513 0.171583 0.466619
Si Si5 0.849035 0.501826 0.079476
O O1 0.915728 0.373823 0.796571
O O2 0.943348 0.491695 0.656902
O O3 0.929768 0.303133 0.333963
O O4 0.853979 0.248946 0.536558
O O5 0.000479 0.162001 0.526970
O O6 0.851404 0.082599 0.497644
O O7 0.148689 0.082818 0.491491
O O8 0.750000 0.500000 0.146517
#
# Coordination Sequence:
#
# PCOD9507270 Si02
#       5
#     8   4  16  16  16
#     4  10  20  40  64  84 120 164 200 248 310 360
#     4   8  16  34  64  88 112 162 204 236 304 360
#     4   9  20  36  59  86 116 155 202 251 300 356
#     4   9  19  36  61  88 120 158 201 248 295 356
#     4  11  24  38  58  90 124 160 205 253 299 357
#
# _framework density 23.332018000000001
#
# number of rings (size 3 to 8) (size 9 to 14) (size 15 to 20)
#    0.000    2.667    0.000    3.200    0.000   20.267 
#    0.000    0.000    0.000    9.600    0.000    0.000 
#    0.000    0.000    0.000    0.000    0.000    0.000 
#
# Total GULP energy -167087.885580 kJ/mol
# GULP energy per Si atom -5569.596186 kJ/mol
# Density = 2.327891 g / cm^3
# Si number density = 23.332018 Si / 1000 Ang^3
#
#
#
# Elastic Constant Matrix: (Units=GPa)
#
#
# Indices 1 2 3 4 5 6 
#
# 1 98.1722 28.6583 5.3166 0.0000 0.0000 0.0000
# 2 28.6583 128.5759 1.2824 0.0000 0.0000 0.0000
# 3 5.3166 1.2824 55.1843 0.0000 0.0000 0.0000
# 4 0.0000 0.0000 0.0000 11.4788 0.0000 0.0000
# 5 0.0000 0.0000 0.0000 0.0000 7.6933 0.0000
# 6 0.0000 0.0000 0.0000 0.0000 0.0000 36.5578
#
#
#
# Elastic Compliance Matrix: (Units=1/GPa)
#
#
# Indices 1 2 3 4 5 6 
#
# 1 0.010950 -0.002431 -0.000998 0.000000 0.000000 0.000000
# 2 -0.002431 0.008319 0.000041 0.000000 0.000000 0.000000
# 3 -0.000998 0.000041 0.018216 0.000000 0.000000 0.000000
# 4 0.000000 0.000000 0.000000 0.087117 0.000000 0.000000
# 5 0.000000 0.000000 0.000000 0.000000 0.129984 0.000000
# 6 0.000000 0.000000 0.000000 0.000000 0.000000 0.027354
#
#
# Mechanical properties :
#
#
# Convention : Reuss Voigt Hill
#
# Bulk Modulus (GPa) = 32.56425 39.16079 35.86252
# Shear Modulus (GPa) = 16.72509 27.59099 22.15804
#
# Velocity S-wave (km/s) = 2.68027 3.44254 3.08504
# Velocity P-wave (km/s) = 4.85445 5.71156 5.30036
#
# Compressibility (1/GPa) = 0.03070852
#
# Stress axis : x y z
#
# Youngs Moduli (GPa) = 91.32584 120.20873 54.89580
#
# Poissons Ratio (x) = 0.29218 0.05481
# Poissons Ratio (y) = 0.22198 -0.00224
# Poissons Ratio (z) = 0.09118 -0.00491
#
# Static dielectric constant tensor:
#      x y z
#    x 1.635540 0.000000 0.000000 
#    y 0.000000 2.088580 0.000000 
#    z 0.000000 0.000000 2.111050 
# 
# From -- ./inp_files/13967.got.cif
#   From: 2010.05.17/outbox.cif.g08.bks.cpg/sg68_7_cif.got.tgz:13967.got - 2010.06.03 18:57:09.
