data_PCOD9507119
_publ_section_title
;
Structure prediction by ZEFSAII (Michael W. Deem and Ramdas Pophale) SiO2 
 PCOD9507119
Probable space group: C C C A
;
_chemical_formula_sum "Si O2"
_cell_formula_units_Z 108
_cell_length_a 14.605243
_cell_length_b 26.016521
_cell_length_c 12.938375
_cell_angle_alpha 90.000000
_cell_angle_beta 90.000000
_cell_angle_gamma 90.000000
_cell_volume 4916.292826
_symmetry_space_group_name_H-M "C C C A"
_symmetry_group_IT_number 68
_space_group.IT_coordinate_system_code '2'
_symmetry_cell_setting 'orthorhombic'
loop_
_space_group_symop_operation_xyz
x,y,z
-x,1/2-y,z
x,1/2-y,1/2-z
-x,y,1/2-z
-x,-y,-z
x,1/2+y,-z
-x,1/2+y,1/2+z
x,-y,1/2+z
1/2+x,1/2+y,z
1/2-x,-y,z
1/2+x,-y,1/2-z
1/2-x,1/2+y,1/2-z
1/2-x,1/2-y,-z
1/2+x,y,-z
1/2-x,y,1/2+z
1/2+x,1/2-y,1/2+z
loop_
_atom_site_type_symbol
_atom_site_label
_atom_site_fract_x
_atom_site_fract_y
_atom_site_fract_z
Si Si1 0.401551 0.400882 0.283662
Si Si2 0.000000 0.750000 0.750000
Si Si3 0.366188 0.695044 0.413418
Si Si4 0.174733 0.296048 0.829339
Si Si5 0.000000 0.250000 0.930030
Si Si6 0.430132 0.451866 0.505742
Si Si7 0.851986 0.492829 0.292611
Si Si8 0.940200 0.902503 0.841239
O O1 0.500000 0.379726 0.250000
O O2 0.330808 0.353569 0.281313
O O3 0.399314 0.428318 0.397063
O O4 0.390340 0.449551 0.207100
O O5 0.928065 0.720115 0.677086
O O6 0.259100 0.708833 0.409361
O O7 0.427959 0.712879 0.509583
O O8 0.365253 0.634633 0.387221
O O9 0.191855 0.250000 0.750000
O O10 0.072782 0.286012 0.872235
O O11 0.500000 0.500000 0.500000
O O12 0.356034 0.468890 0.592295
O O13 0.490128 0.410339 0.565729
O O14 0.750000 0.500000 0.254490
O O15 0.903328 0.454806 0.212328
O O16 0.000000 0.877820 0.750000
#
# Coordination Sequence:
#
# PCOD9507119 Si02
#       8
#    16   4  16  16   8  16  16  16
#     4  12  23  43  70  95 135 185 226 281 360 410
#     4  10  20  40  70  98 126 172 222 284 342 392
#     4  11  22  43  71  96 134 180 229 285 347 412
#     4  12  26  46  68 103 138 182 235 290 348 422
#     4  11  25  45  67 100 140 176 233 289 355 413
#     4  11  21  42  66  92 130 177 222 271 340 419
#     4  11  23  40  61 100 134 171 225 286 341 418
#     4  10  20  38  66  96 130 173 228 279 345 411
#
# _framework density 21.967772
#
# number of rings (size 3 to 8) (size 9 to 14) (size 15 to 20)
#    0.000    0.889    4.444    3.778    0.000    0.593 
#    2.667    0.000    0.000    0.000    0.000    0.000 
#    0.000    0.000    0.000    0.000    0.000    0.000 
#
# Total GULP energy -300945.479188 kJ/mol
# GULP energy per Si atom -5573.064429 kJ/mol
# Density = 2.191777 g / cm^3
# Si number density = 21.967772 Si / 1000 Ang^3
#
#
#
# Elastic Constant Matrix: (Units=GPa)
#
#
# Indices 1 2 3 4 5 6 
#
# 1 115.9771 20.1455 0.7771 0.0000 0.0000 0.0000
# 2 20.1455 106.3218 22.1432 0.0000 0.0000 0.0000
# 3 0.7771 22.1432 54.6177 0.0000 0.0000 0.0000
# 4 0.0000 0.0000 0.0000 -11.9860 0.0000 0.0000
# 5 0.0000 0.0000 0.0000 0.0000 28.3186 0.0000
# 6 0.0000 0.0000 0.0000 0.0000 0.0000 21.9434
#
#
#
# Elastic Compliance Matrix: (Units=1/GPa)
#
#
# Indices 1 2 3 4 5 6 
#
# 1 0.008934 -0.001820 0.000611 0.000000 0.000000 0.000000
# 2 -0.001820 0.010644 -0.004289 0.000000 0.000000 0.000000
# 3 0.000611 -0.004289 0.020039 0.000000 0.000000 0.000000
# 4 0.000000 0.000000 0.000000 -0.083430 0.000000 0.000000
# 5 0.000000 0.000000 0.000000 0.000000 0.035312 0.000000
# 6 0.000000 0.000000 0.000000 0.000000 0.000000 0.045572
#
#
# Mechanical properties :
#
#
# Convention : Reuss Voigt Hill
#
# Bulk Modulus (GPa) = 34.94022 40.33867 37.63945
# Shear Modulus (GPa) = 86.79274 23.24524 55.01899
#
# Velocity S-wave (km/s) = 6.29245 3.25645 5.00996
# Velocity P-wave (km/s) = 8.29053 5.70455 7.11600
#
# Compressibility (1/GPa) = 0.02862031
#
# Stress axis : x y z
#
# Youngs Moduli (GPa) = 111.92629 93.95346 49.90181
#
# Poissons Ratio (x) = 0.17100 -0.03048
# Poissons Ratio (y) = 0.20371 0.21404
# Poissons Ratio (z) = -0.06836 0.40299
#
# Static dielectric constant tensor:
#      x y z
#    x 1.993360 0.000000 0.000000 
#    y 0.000000 1.955890 0.000000 
#    z 0.000000 0.000000 1.819400 
# 
# From -- ./inp_files/22659.got.cif
#   From: 2010.05.17/outbox.cif.g08.bks.cpg/sg68_12_cif.got.tgz:22659.got - 2010.06.03 18:57:09.
