data_PCOD9507210
_publ_section_title
;
Structure prediction by ZEFSAII (Michael W. Deem and Ramdas Pophale) SiO2 
 PCOD9507210
Probable space group: C C C A
;
_chemical_formula_sum "Si O2"
_cell_formula_units_Z 80
_cell_length_a 14.467141
_cell_length_b 9.710131
_cell_length_c 24.291909
_cell_angle_alpha 90.000000
_cell_angle_beta 90.000000
_cell_angle_gamma 90.000000
_cell_volume 3412.474767
_symmetry_space_group_name_H-M "C C C A"
_symmetry_group_IT_number 68
_space_group.IT_coordinate_system_code '2'
_symmetry_cell_setting 'orthorhombic'
loop_
_space_group_symop_operation_xyz
x,y,z
-x,1/2-y,z
x,1/2-y,1/2-z
-x,y,1/2-z
-x,-y,-z
x,1/2+y,-z
-x,1/2+y,1/2+z
x,-y,1/2+z
1/2+x,1/2+y,z
1/2-x,-y,z
1/2+x,-y,1/2-z
1/2-x,1/2+y,1/2-z
1/2-x,1/2-y,-z
1/2+x,y,-z
1/2-x,y,1/2+z
1/2+x,1/2-y,1/2+z
loop_
_atom_site_type_symbol
_atom_site_label
_atom_site_fract_x
_atom_site_fract_y
_atom_site_fract_z
Si Si1 0.729078 0.212414 0.086212
Si Si2 0.449831 0.881692 0.580747
Si Si3 0.154526 0.742673 0.689556
Si Si4 0.839270 0.410577 0.017069
Si Si5 0.489644 0.478172 0.810780
O O1 0.650582 0.325113 0.097915
O O2 0.776569 0.186563 0.143817
O O3 0.813891 0.266457 0.046859
O O4 0.672604 0.104699 0.048551
O O5 0.500000 0.750000 0.553073
O O6 0.426903 0.011743 0.541922
O O7 0.501061 0.925585 0.636439
O O8 0.198049 0.750000 0.750000
O O9 0.106377 0.892358 0.679523
O O10 0.069488 0.636666 0.691017
O O11 0.750000 0.500000 0.032123
O O12 0.500000 0.544433 0.750000
#
# Coordination Sequence:
#
# PCOD9507210 Si02
#       5
#    16  16  16  16  16
#     4  10  20  39  66  91 120 168 219 273 326 386
#     4  11  23  39  61  92 132 173 211 270 337 397
#     4   9  18  37  68  96 122 165 217 274 330 388
#     4   9  20  39  64  88 124 172 216 273 325 387
#     4   9  19  38  63  94 131 166 212 269 329 398
#
# _framework density 23.443397000000001
#
# number of rings (size 3 to 8) (size 9 to 14) (size 15 to 20)
#    0.000    2.400    2.000    1.200    0.000    2.800 
#    3.600    4.000    0.000    0.000    0.000    0.000 
#    0.000    0.000    0.000    0.000    0.000    0.000 
#
# Total GULP energy -223010.230694 kJ/mol
# GULP energy per Si atom -5575.255767 kJ/mol
# Density = 2.339004 g / cm^3
# Si number density = 23.443397 Si / 1000 Ang^3
#
#
#
# Elastic Constant Matrix: (Units=GPa)
#
#
# Indices 1 2 3 4 5 6 
#
# 1 50.3650 5.7983 49.4130 0.0000 0.0000 0.0000
# 2 5.7983 61.0378 42.6253 0.0000 0.0000 0.0000
# 3 49.4130 42.6253 172.4091 0.0000 0.0000 0.0000
# 4 0.0000 0.0000 0.0000 32.6614 0.0000 0.0000
# 5 0.0000 0.0000 0.0000 0.0000 34.2384 0.0000
# 6 0.0000 0.0000 0.0000 0.0000 0.0000 19.3664
#
#
#
# Elastic Compliance Matrix: (Units=1/GPa)
#
#
# Indices 1 2 3 4 5 6 
#
# 1 0.028259 0.003592 -0.008987 0.000000 0.000000 0.000000
# 2 0.003592 0.020259 -0.006038 0.000000 0.000000 0.000000
# 3 -0.008987 -0.006038 0.009869 0.000000 0.000000 0.000000
# 4 0.000000 0.000000 0.000000 0.030617 0.000000 0.000000
# 5 0.000000 0.000000 0.000000 0.000000 0.029207 0.000000
# 6 0.000000 0.000000 0.000000 0.000000 0.000000 0.051636
#
#
# Mechanical properties :
#
#
# Convention : Reuss Voigt Hill
#
# Bulk Modulus (GPa) = 28.15378 53.27611 40.71495
# Shear Modulus (GPa) = 24.44361 29.65161 27.04761
#
# Velocity S-wave (km/s) = 3.23254 3.56029 3.40036
# Velocity P-wave (km/s) = 5.09585 6.29886 5.72902
#
# Compressibility (1/GPa) = 0.03551921
#
# Stress axis : x y z
#
# Youngs Moduli (GPa) = 35.38739 49.36153 101.33110
#
# Poissons Ratio (x) = -0.17728 0.91066
# Poissons Ratio (y) = -0.12710 0.61183
# Poissons Ratio (z) = 0.31803 0.29804
#
# Static dielectric constant tensor:
#      x y z
#    x 1.911330 0.000000 0.000000 
#    y 0.000000 2.007280 0.000000 
#    z 0.000000 0.000000 1.890720 
# 
# From -- ./inp_files/45196.got.cif
#   From: 2010.05.17/outbox.cif.g08.bks.cpg/sg68_23_cif.got.tgz:45196.got - 2010.06.03 18:57:09.
