data_PCOD9507773
_publ_section_title
;
Structure prediction by ZEFSAII (Michael W. Deem and Ramdas Pophale) SiO2 
 PCOD9507773
Probable space group: C C C A
;
_chemical_formula_sum "Si O2"
_cell_formula_units_Z 80
_cell_length_a 16.528711
_cell_length_b 11.126677
_cell_length_c 23.919979
_cell_angle_alpha 90.000000
_cell_angle_beta 90.000000
_cell_angle_gamma 90.000000
_cell_volume 4399.114452
_symmetry_space_group_name_H-M "C C C A"
_symmetry_group_IT_number 68
_space_group.IT_coordinate_system_code '2'
_symmetry_cell_setting 'orthorhombic'
loop_
_space_group_symop_operation_xyz
x,y,z
-x,1/2-y,z
x,1/2-y,1/2-z
-x,y,1/2-z
-x,-y,-z
x,1/2+y,-z
-x,1/2+y,1/2+z
x,-y,1/2+z
1/2+x,1/2+y,z
1/2-x,-y,z
1/2+x,-y,1/2-z
1/2-x,1/2+y,1/2-z
1/2-x,1/2-y,-z
1/2+x,y,-z
1/2-x,y,1/2+z
1/2+x,1/2-y,1/2+z
loop_
_atom_site_type_symbol
_atom_site_label
_atom_site_fract_x
_atom_site_fract_y
_atom_site_fract_z
Si Si1 0.031597 0.881383 0.032246
Si Si2 0.953456 0.366308 0.662101
Si Si3 0.261706 0.862908 0.661067
Si Si4 0.356986 0.750000 0.250000
Si Si5 0.724054 0.629921 0.531175
Si Si6 0.500000 0.435472 0.750000
O O1 0.015599 0.889422 0.098819
O O2 0.127848 0.875567 0.029742
O O3 0.000000 0.750000 0.012254
O O4 0.000000 0.000000 0.000000
O O5 0.857630 0.337977 0.664674
O O6 0.000000 0.250000 0.683507
O O7 0.974616 0.481005 0.698674
O O8 0.202136 0.782618 0.698345
O O9 0.242750 0.860577 0.594802
O O10 0.250000 0.000000 0.680629
O O11 0.420454 0.643425 0.236528
O O12 0.750000 0.500000 0.507597
O O13 0.750000 0.750000 0.500000
#
# Coordination Sequence:
#
# PCOD9507773 Si02
#       6
#    16  16  16   8  16   8
#     4  10  21  39  60  90 121 156 200 243 293 356
#     4  10  22  39  61  86 119 158 198 240 295 355
#     4  10  21  40  59  84 121 157 195 244 302 349
#     4  11  24  38  59  88 116 150 201 248 298 361
#     4  10  21  38  62  87 120 159 197 244 298 355
#     4  11  23  40  56  88 117 149 198 250 300 351
#
# _framework density 18.185478
#
# number of rings (size 3 to 8) (size 9 to 14) (size 15 to 20)
#    0.000    1.800    2.000    1.500    2.800    1.600 
#    3.600    1.000    0.000    0.000    0.000    0.000 
#    0.000    0.000    0.000    0.000    0.000    0.000 
#
# Total GULP energy -223008.756040 kJ/mol
# GULP energy per Si atom -5575.218901 kJ/mol
# Density = 1.814409 g / cm^3
# Si number density = 18.185478 Si / 1000 Ang^3
#
#
#
# Elastic Constant Matrix: (Units=GPa)
#
#
# Indices 1 2 3 4 5 6 
#
# 1 70.0668 49.7681 31.5641 0.0000 0.0000 0.0000
# 2 49.7681 155.2651 62.5805 0.0000 0.0000 0.0000
# 3 31.5641 62.5805 78.3553 0.0000 0.0000 0.0000
# 4 0.0000 0.0000 0.0000 34.5634 0.0000 0.0000
# 5 0.0000 0.0000 0.0000 0.0000-1532.7144 0.0000
# 6 0.0000 0.0000 0.0000 0.0000 0.0000 34.8030
#
#
#
# Elastic Compliance Matrix: (Units=1/GPa)
#
#
# Indices 1 2 3 4 5 6 
#
# 1 0.019371 -0.004519 -0.004194 0.000000 0.000000 0.000000
# 2 -0.004519 0.010552 -0.006608 0.000000 0.000000 0.000000
# 3 -0.004194 -0.006608 0.019729 0.000000 0.000000 0.000000
# 4 0.000000 0.000000 0.000000 0.028932 0.000000 0.000000
# 5 0.000000 0.000000 0.000000 0.000000 -0.000652 0.000000
# 6 0.000000 0.000000 0.000000 0.000000 0.000000 0.028733
#
#
# Mechanical properties :
#
#
# Convention : Reuss Voigt Hill
#
# Bulk Modulus (GPa) = 52.59972 65.72363 59.16167
# Shear Modulus (GPa) = 34.80826 -282.01798 -123.60486
#
# Velocity S-wave (km/s) = 4.37975 -12.46657 -8.25328
# Velocity P-wave (km/s) = 7.38669 13.07675 7.63014
#
# Compressibility (1/GPa) = 0.01901151
#
# Stress axis : x y z
#
# Youngs Moduli (GPa) = 51.62312 94.76734 50.68593
#
# Poissons Ratio (x) = 0.42821 0.21260
# Poissons Ratio (y) = 0.23326 0.33491
# Poissons Ratio (z) = 0.21653 0.62618
#
# Static dielectric constant tensor:
#      x y z
#    x 1.607110 0.000000 0.000000 
#    y 0.000000 1.852870 0.000000 
#    z 0.000000 0.000000 1.625240 
# 
# From -- ./inp_files/51325.got.cif
#   From: 2010.05.17/outbox.cif.g08.bks.cpg/sg68_26_cif.got.tgz:51325.got - 2010.06.03 18:57:09.
