data_PCOD9507239
_publ_section_title
;
Structure prediction by ZEFSAII (Michael W. Deem and Ramdas Pophale) SiO2 
 PCOD9507239
Probable space group: C C C A
;
_chemical_formula_sum "Si O2"
_cell_formula_units_Z 96
_cell_length_a 9.721615
_cell_length_b 24.425721
_cell_length_c 20.464836
_cell_angle_alpha 90.000000
_cell_angle_beta 90.000000
_cell_angle_gamma 90.000000
_cell_volume 4859.527887
_symmetry_space_group_name_H-M "C C C A"
_symmetry_group_IT_number 68
_space_group.IT_coordinate_system_code '2'
_symmetry_cell_setting 'orthorhombic'
loop_
_space_group_symop_operation_xyz
x,y,z
-x,1/2-y,z
x,1/2-y,1/2-z
-x,y,1/2-z
-x,-y,-z
x,1/2+y,-z
-x,1/2+y,1/2+z
x,-y,1/2+z
1/2+x,1/2+y,z
1/2-x,-y,z
1/2+x,-y,1/2-z
1/2-x,1/2+y,1/2-z
1/2-x,1/2-y,-z
1/2+x,y,-z
1/2-x,y,1/2+z
1/2+x,1/2-y,1/2+z
loop_
_atom_site_type_symbol
_atom_site_label
_atom_site_fract_x
_atom_site_fract_y
_atom_site_fract_z
Si Si1 0.980643 0.617097 0.064165
Si Si2 0.536937 0.124580 0.920711
Si Si3 0.253427 0.830572 0.877521
Si Si4 0.728291 0.208667 0.407863
Si Si5 0.160742 0.165177 0.735690
Si Si6 0.234741 0.436786 0.841605
O O1 0.891472 0.673429 0.057665
O O2 0.881603 0.576054 0.103407
O O3 0.115714 0.632068 0.105080
O O4 0.022818 0.598625 0.992323
O O5 0.387445 0.140145 0.895408
O O6 0.629196 0.179629 0.926556
O O7 0.623687 0.086562 0.871959
O O8 0.270169 0.773334 0.916075
O O9 0.257814 0.818680 0.800260
O O10 0.701651 0.196300 0.330640
O O11 0.191316 0.101789 0.718595
O O12 0.000000 0.174162 0.750000
O O13 0.250000 0.500000 0.826199
#
# Coordination Sequence:
#
# PCOD9507239 Si02
#       6
#    16  16  16  16  16  16
#     4  10  21  38  60  86 120 159 197 238 286 358
#     4  10  23  39  55  90 124 150 195 249 290 346
#     4  12  20  35  61  87 118 161 198 230 291 356
#     4  10  22  34  57  88 125 162 188 235 287 348
#     4  10  20  40  59  86 114 152 204 248 285 358
#     4  10  23  45  63  83 117 155 197 262 316 339
#
# _framework density 19.755005000000001
#
# number of rings (size 3 to 8) (size 9 to 14) (size 15 to 20)
#    0.000    2.000    3.333    3.500    0.000    8.000 
#    3.000    4.167    0.000    0.000    0.000    0.000 
#    0.000    0.000    0.000    0.000    0.000    0.000 
#
# Total GULP energy -268132.650042 kJ/mol
# GULP energy per Si atom -5586.096876 kJ/mol
# Density = 1.971004 g / cm^3
# Si number density = 19.755005 Si / 1000 Ang^3
#
#
#
# Elastic Constant Matrix: (Units=GPa)
#
#
# Indices 1 2 3 4 5 6 
#
# 1 117.4219 10.7498 0.4096 0.0000 0.0000 0.0000
# 2 10.7498 79.8632 -13.0526 0.0000 0.0000 0.0000
# 3 0.4096 -13.0526 33.8920 0.0000 0.0000 0.0000
# 4 0.0000 0.0000 0.0000 10.8798 0.0000 0.0000
# 5 0.0000 0.0000 0.0000 0.0000 1.3548 0.0000
# 6 0.0000 0.0000 0.0000 0.0000 0.0000 8.4990
#
#
#
# Elastic Compliance Matrix: (Units=1/GPa)
#
#
# Indices 1 2 3 4 5 6 
#
# 1 0.008634 -0.001258 -0.000589 0.000000 0.000000 0.000000
# 2 -0.001258 0.013546 0.005232 0.000000 0.000000 0.000000
# 3 -0.000589 0.005232 0.031528 0.000000 0.000000 0.000000
# 4 0.000000 0.000000 0.000000 0.091914 0.000000 0.000000
# 5 0.000000 0.000000 0.000000 0.000000 0.738094 0.000000
# 6 0.000000 0.000000 0.000000 0.000000 0.000000 0.117661
#
#
# Mechanical properties :
#
#
# Convention : Reuss Voigt Hill
#
# Bulk Modulus (GPa) = 16.53533 25.26564 20.90048
# Shear Modulus (GPa) = 4.92725 19.68473 12.30599
#
# Velocity S-wave (km/s) = 1.58101 3.16007 2.49856
# Velocity P-wave (km/s) = 3.42362 5.11195 4.35047
#
# Compressibility (1/GPa) = 0.06047657
#
# Stress axis : x y z
#
# Youngs Moduli (GPa) = 115.82712 73.82299 31.71820
#
# Poissons Ratio (x) = 0.09290 0.01868
# Poissons Ratio (y) = 0.14575 -0.16595
# Poissons Ratio (z) = 0.06822 -0.38625
#
# Static dielectric constant tensor:
#      x y z
#    x 1.666870 0.000000 0.000000 
#    y 0.000000 1.690460 0.000000 
#    z 0.000000 0.000000 1.716140 
# 
# From -- ./inp_files/36484.got.cif
#   From: 2010.05.17/outbox.cif.g08.bks.cpg/sg68_19_cif.got.tgz:36484.got - 2010.06.03 18:57:09.
