data_PCOD9507612
_publ_section_title
;
Structure prediction by ZEFSAII (Michael W. Deem and Ramdas Pophale) SiO2 
 PCOD9507612
Probable space group: C C C A
;
_chemical_formula_sum "Si O2"
_cell_formula_units_Z 56
_cell_length_a 32.569481
_cell_length_b 13.015360
_cell_length_c 4.952772
_cell_angle_alpha 90.000000
_cell_angle_beta 90.000000
_cell_angle_gamma 90.000000
_cell_volume 2099.497486
_symmetry_space_group_name_H-M "C C C A"
_symmetry_group_IT_number 68
_space_group.IT_coordinate_system_code '2'
_symmetry_cell_setting 'orthorhombic'
loop_
_space_group_symop_operation_xyz
x,y,z
-x,1/2-y,z
x,1/2-y,1/2-z
-x,y,1/2-z
-x,-y,-z
x,1/2+y,-z
-x,1/2+y,1/2+z
x,-y,1/2+z
1/2+x,1/2+y,z
1/2-x,-y,z
1/2+x,-y,1/2-z
1/2-x,1/2+y,1/2-z
1/2-x,1/2-y,-z
1/2+x,y,-z
1/2-x,y,1/2+z
1/2+x,1/2-y,1/2+z
loop_
_atom_site_type_symbol
_atom_site_label
_atom_site_fract_x
_atom_site_fract_y
_atom_site_fract_z
Si Si1 0.685572 0.444945 0.035193
Si Si2 0.781090 0.750000 0.750000
Si Si3 0.899591 0.871960 0.230769
Si Si4 0.954315 0.372718 0.277466
O O1 0.703526 0.533319 0.834241
O O2 0.691072 0.345288 0.845964
O O3 0.638855 0.433556 0.147168
O O4 0.750000 0.750000 0.500000
O O5 0.888497 0.750000 0.250000
O O6 0.937940 0.890565 0.424723
O O7 0.917921 0.895526 0.936195
O O8 0.958250 0.250000 0.250000
O O9 0.000000 0.416681 0.250000
#
# Coordination Sequence:
#
# PCOD9507612 Si02
#       4
#    16   8  16  16
#     4  12  28  47  77 111 151 196 247 306 375 455
#     4  12  30  52  82 112 149 190 241 306 378 464
#     4  10  21  36  66  96 142 195 247 311 371 438
#     4   9  17  31  56  96 137 189 252 315 368 430
#
# _framework density 26.67305
#
# number of rings (size 3 to 8) (size 9 to 14) (size 15 to 20)
#    0.000    1.429    0.000    4.286   12.000    6.857 
#    0.000    0.000    0.000   17.143    0.000    0.000 
#    0.000    0.000    0.000    0.000    0.000    0.000 
#
# Total GULP energy -156248.302708 kJ/mol
# GULP energy per Si atom -5580.296525 kJ/mol
# Density = 2.661234 g / cm^3
# Si number density = 26.673050 Si / 1000 Ang^3
#
#
#
# Elastic Constant Matrix: (Units=GPa)
#
#
# Indices 1 2 3 4 5 6 
#
# 1 106.7814 14.3984 36.5582 0.0000 0.0000 0.0000
# 2 14.3984 109.9711 25.2769 0.0000 0.0000 0.0000
# 3 36.5582 25.2769 194.8164 0.0000 0.0000 0.0000
# 4 0.0000 0.0000 0.0000 10.8438 0.0000 0.0000
# 5 0.0000 0.0000 0.0000 0.0000 58.6799 0.0000
# 6 0.0000 0.0000 0.0000 0.0000 0.0000 33.4066
#
#
#
# Elastic Compliance Matrix: (Units=1/GPa)
#
#
# Indices 1 2 3 4 5 6 
#
# 1 0.010096 -0.000914 -0.001776 0.000000 0.000000 0.000000
# 2 -0.000914 0.009455 -0.001055 0.000000 0.000000 0.000000
# 3 -0.001776 -0.001055 0.005603 0.000000 0.000000 0.000000
# 4 0.000000 0.000000 0.000000 0.092218 0.000000 0.000000
# 5 0.000000 0.000000 0.000000 0.000000 0.017042 0.000000
# 6 0.000000 0.000000 0.000000 0.000000 0.000000 0.029934
#
#
# Mechanical properties :
#
#
# Convention : Reuss Voigt Hill
#
# Bulk Modulus (GPa) = 56.60984 62.67067 59.64025
# Shear Modulus (GPa) = 28.13297 42.94176 35.53737
#
# Velocity S-wave (km/s) = 3.25119 4.01675 3.65407
# Velocity P-wave (km/s) = 5.94671 6.71262 6.34124
#
# Compressibility (1/GPa) = 0.01766477
#
# Stress axis : x y z
#
# Youngs Moduli (GPa) = 99.04729 105.75859 178.46772
#
# Poissons Ratio (x) = 0.09663 0.31697
# Poissons Ratio (y) = 0.09049 0.18835
# Poissons Ratio (z) = 0.17591 0.11161
#
# Static dielectric constant tensor:
#      x y z
#    x 2.079620 0.000000 0.000000 
#    y 0.000000 2.266950 0.000000 
#    z 0.000000 0.000000 -2.034390 
# 
# From -- ./inp_files/2555.got.cif
#   From: 2010.05.17/outbox.cif.g08.bks.cpg/sg68_2_cif.got.tgz:2555.got - 2010.06.03 18:57:09.
