data_PCOD9507678
_publ_section_title
;
Structure prediction by ZEFSAII (Michael W. Deem and Ramdas Pophale) SiO2 
 PCOD9507678
Probable space group: C C C A
;
_chemical_formula_sum "Si O2"
_cell_formula_units_Z 112
_cell_length_a 29.984081
_cell_length_b 14.468439
_cell_length_c 14.937963
_cell_angle_alpha 90.000000
_cell_angle_beta 90.000000
_cell_angle_gamma 90.000000
_cell_volume 6480.429636
_symmetry_space_group_name_H-M "C C C A"
_symmetry_group_IT_number 68
_space_group.IT_coordinate_system_code '2'
_symmetry_cell_setting 'orthorhombic'
loop_
_space_group_symop_operation_xyz
x,y,z
-x,1/2-y,z
x,1/2-y,1/2-z
-x,y,1/2-z
-x,-y,-z
x,1/2+y,-z
-x,1/2+y,1/2+z
x,-y,1/2+z
1/2+x,1/2+y,z
1/2-x,-y,z
1/2+x,-y,1/2-z
1/2-x,1/2+y,1/2-z
1/2-x,1/2-y,-z
1/2+x,y,-z
1/2-x,y,1/2+z
1/2+x,1/2-y,1/2+z
loop_
_atom_site_type_symbol
_atom_site_label
_atom_site_fract_x
_atom_site_fract_y
_atom_site_fract_z
Si Si1 0.183795 0.682537 0.165441
Si Si2 0.583692 0.912184 0.058176
Si Si3 0.897118 0.062043 0.405324
Si Si4 0.993650 0.139408 0.354195
Si Si5 0.647441 0.745346 0.022629
Si Si6 0.144926 0.485869 0.216856
Si Si7 0.288076 0.173274 0.827823
O O1 0.180369 0.750000 0.250000
O O2 0.157794 0.588456 0.187115
O O3 0.236091 0.660133 0.151767
O O4 0.164440 0.732049 0.077846
O O5 0.531846 0.903639 0.082957
O O6 0.605226 0.814038 0.030392
O O7 0.608664 0.944441 0.148419
O O8 0.594799 0.985177 0.980782
O O9 0.944653 0.107479 0.381725
O O10 0.866091 0.144843 0.440775
O O11 0.874631 0.019832 0.316598
O O12 0.000000 0.250000 0.359494
O O13 0.000000 0.113028 0.250000
O O14 0.685398 0.789777 0.085645
O O15 0.187868 0.419410 0.206371
O O16 0.292503 0.250000 0.750000
#
# Coordination Sequence:
#
# PCOD9507678 Si02
#       7
#    16  16  16  16  16  16  16
#     4  11  23  41  59  87 125 160 200 252 304 370
#     4  11  23  39  61  89 121 162 198 250 309 365
#     4  12  22  39  64  87 126 158 202 255 303 376
#     4  11  22  37  63  92 118 155 203 255 309 363
#     4  11  22  39  62  89 117 163 205 246 308 367
#     4  11  22  38  62  89 116 161 203 245 307 363
#     4  10  21  37  63  88 121 155 204 258 299 354
#
# _framework density 17.282806000000001
#
# number of rings (size 3 to 8) (size 9 to 14) (size 15 to 20)
#    0.000    1.000    5.714    2.143    0.000    0.000 
#    0.000    0.000    0.000    0.000    0.000    2.000 
#    0.000    0.000    0.000    0.000    0.000    0.000 
#
# Total GULP energy -312854.379201 kJ/mol
# GULP energy per Si atom -5586.685343 kJ/mol
# Density = 1.724347 g / cm^3
# Si number density = 17.282806 Si / 1000 Ang^3
#
#
#
# Elastic Constant Matrix: (Units=GPa)
#
#
# Indices 1 2 3 4 5 6 
#
# 1 76.2593 5.2182 30.4589 0.0000 0.0000 0.0000
# 2 5.2182 61.0878 22.4175 0.0000 0.0000 0.0000
# 3 30.4589 22.4175 113.8446 0.0000 0.0000 0.0000
# 4 0.0000 0.0000 0.0000 31.2028 0.0000 0.0000
# 5 0.0000 0.0000 0.0000 0.0000 22.6299 0.0000
# 6 0.0000 0.0000 0.0000 0.0000 0.0000 23.7867
#
#
#
# Elastic Compliance Matrix: (Units=1/GPa)
#
#
# Indices 1 2 3 4 5 6 
#
# 1 0.014684 0.000202 -0.003969 0.000000 0.000000 0.000000
# 2 0.000202 0.017648 -0.003529 0.000000 0.000000 0.000000
# 3 -0.003969 -0.003529 0.010541 0.000000 0.000000 0.000000
# 4 0.000000 0.000000 0.000000 0.032048 0.000000 0.000000
# 5 0.000000 0.000000 0.000000 0.000000 0.044189 0.000000
# 6 0.000000 0.000000 0.000000 0.000000 0.000000 0.042040
#
#
# Mechanical properties :
#
#
# Convention : Reuss Voigt Hill
#
# Bulk Modulus (GPa) = 35.35894 40.82008 38.08951
# Shear Modulus (GPa) = 27.00232 28.39703 27.69968
#
# Velocity S-wave (km/s) = 3.95698 4.05789 4.00775
# Velocity P-wave (km/s) = 6.43276 6.75466 6.59568
#
# Compressibility (1/GPa) = 0.02828139
#
# Stress axis : x y z
#
# Youngs Moduli (GPa) = 68.09938 56.66459 94.87122
#
# Poissons Ratio (x) = -0.01145 0.37650
# Poissons Ratio (y) = -0.01376 0.33481
# Poissons Ratio (z) = 0.27026 0.19997
#
# Static dielectric constant tensor:
#      x y z
#    x 1.566480 0.000000 0.000000 
#    y 0.000000 1.559370 0.000000 
#    z 0.000000 0.000000 1.557350 
# 
# From -- ./inp_files/13581.got.cif
#   From: 2010.05.17/outbox.cif.g08.bks.cpg/sg68_7_cif.got.tgz:13581.got - 2010.06.03 18:57:09.
