data_PCOD9507658
_publ_section_title
;
Structure prediction by ZEFSAII (Michael W. Deem and Ramdas Pophale) SiO2 
 PCOD9507658
Probable space group: C C C A
;
_chemical_formula_sum "Si O2"
_cell_formula_units_Z 72
_cell_length_a 9.542663
_cell_length_b 11.651492
_cell_length_c 29.419117
_cell_angle_alpha 90.000000
_cell_angle_beta 90.000000
_cell_angle_gamma 90.000000
_cell_volume 3271.001639
_symmetry_space_group_name_H-M "C C C A"
_symmetry_group_IT_number 68
_space_group.IT_coordinate_system_code '2'
_symmetry_cell_setting 'orthorhombic'
loop_
_space_group_symop_operation_xyz
x,y,z
-x,1/2-y,z
x,1/2-y,1/2-z
-x,y,1/2-z
-x,-y,-z
x,1/2+y,-z
-x,1/2+y,1/2+z
x,-y,1/2+z
1/2+x,1/2+y,z
1/2-x,-y,z
1/2+x,-y,1/2-z
1/2-x,1/2+y,1/2-z
1/2-x,1/2-y,-z
1/2+x,y,-z
1/2-x,y,1/2+z
1/2+x,1/2-y,1/2+z
loop_
_atom_site_type_symbol
_atom_site_label
_atom_site_fract_x
_atom_site_fract_y
_atom_site_fract_z
Si Si1 0.500000 0.443518 0.750000
Si Si2 0.282461 0.133413 0.413736
Si Si3 0.500000 0.250000 0.916757
Si Si4 0.373696 0.913910 0.008816
Si Si5 0.373931 0.402717 0.178363
Si Si6 0.733040 0.250000 0.750000
O O1 0.511612 0.527282 0.793326
O O2 0.368662 0.359046 0.758025
O O3 0.136924 0.189476 0.394930
O O4 0.335419 0.164648 0.464443
O O5 0.394949 0.136187 0.373338
O O6 0.250000 0.000000 0.422014
O O7 0.576496 0.160253 0.949225
O O8 0.250000 0.000000 0.021209
O O9 0.500000 0.000000 0.000000
O O10 0.250000 0.500000 0.176275
O O11 0.325549 0.293728 0.208003
#
# Coordination Sequence:
#
# PCOD9507658 Si02
#       6
#     8  16   8  16  16   8
#     4   9  18  35  60  78 116 151 182 245 302 358
#     4  10  21  37  60  95 120 159 212 260 304 376
#     4  12  22  40  68  83 126 171 206 258 326 362
#     4  11  22  41  64  91 128 168 211 257 316 376
#     4   9  19  35  59  87 117 151 200 246 303 364
#     4   9  18  35  58  84 106 151 192 225 306 368
#
# _framework density 22.011606
#
# number of rings (size 3 to 8) (size 9 to 14) (size 15 to 20)
#    0.000    2.000    4.444    0.667    0.000    5.778 
#    0.000    2.222    0.000    0.000    0.000    0.000 
#    0.000    0.000    0.000    0.000    0.000    0.000 
#
# Total GULP energy -200630.481464 kJ/mol
# GULP energy per Si atom -5573.068930 kJ/mol
# Density = 2.196151 g / cm^3
# Si number density = 22.011606 Si / 1000 Ang^3
#
#
#
# Elastic Constant Matrix: (Units=GPa)
#
#
# Indices 1 2 3 4 5 6 
#
# 1 72.6073 26.8539 -0.0392 0.0000 0.0000 0.0000
# 2 26.8539 78.3079 21.6067 0.0000 0.0000 0.0000
# 3 -0.0392 21.6067 88.6563 0.0000 0.0000 0.0000
# 4 0.0000 0.0000 0.0000 7.1833 0.0000 0.0000
# 5 0.0000 0.0000 0.0000 0.0000 31.5014 0.0000
# 6 0.0000 0.0000 0.0000 0.0000 0.0000 30.8623
#
#
#
# Elastic Compliance Matrix: (Units=1/GPa)
#
#
# Indices 1 2 3 4 5 6 
#
# 1 0.015942 -0.005863 0.001436 0.000000 0.000000 0.000000
# 2 -0.005863 0.015847 -0.003865 0.000000 0.000000 0.000000
# 3 0.001436 -0.003865 0.012222 0.000000 0.000000 0.000000
# 4 0.000000 0.000000 0.000000 0.139211 0.000000 0.000000
# 5 0.000000 0.000000 0.000000 0.000000 0.031745 0.000000
# 6 0.000000 0.000000 0.000000 0.000000 0.000000 0.032402
#
#
# Mechanical properties :
#
#
# Convention : Reuss Voigt Hill
#
# Bulk Modulus (GPa) = 36.46005 37.37937 36.91971
# Shear Modulus (GPa) = 18.30863 26.65276 22.48070
#
# Velocity S-wave (km/s) = 2.88717 3.48350 3.19926
# Velocity P-wave (km/s) = 5.26444 5.76179 5.51872
#
# Compressibility (1/GPa) = 0.02742728
#
# Stress axis : x y z
#
# Youngs Moduli (GPa) = 62.72746 63.10311 81.81947
#
# Poissons Ratio (x) = 0.36998 -0.11749
# Poissons Ratio (y) = 0.36778 0.31621
# Poissons Ratio (z) = -0.09007 0.24388
#
# Static dielectric constant tensor:
#      x y z
#    x 1.828100 0.000000 0.000000 
#    y 0.000000 1.868680 0.000000 
#    z 0.000000 0.000000 1.910000 
# 
# From -- ./inp_files/50047.got.cif
#   From: 2010.05.17/outbox.cif.g08.bks.cpg/sg68_26_cif.got.tgz:50047.got - 2010.06.03 18:57:09.
