data_PCOD9507869
_publ_section_title
;
Structure prediction by ZEFSAII (Michael W. Deem and Ramdas Pophale) SiO2 
 PCOD9507869
Probable space group: C C C A
;
_chemical_formula_sum "Si O2"
_cell_formula_units_Z 64
_cell_length_a 9.228988
_cell_length_b 12.562236
_cell_length_c 22.194392
_cell_angle_alpha 90.000000
_cell_angle_beta 90.000000
_cell_angle_gamma 90.000000
_cell_volume 2573.145128
_symmetry_space_group_name_H-M "C C C A"
_symmetry_group_IT_number 68
_space_group.IT_coordinate_system_code '2'
_symmetry_cell_setting 'orthorhombic'
loop_
_space_group_symop_operation_xyz
x,y,z
-x,1/2-y,z
x,1/2-y,1/2-z
-x,y,1/2-z
-x,-y,-z
x,1/2+y,-z
-x,1/2+y,1/2+z
x,-y,1/2+z
1/2+x,1/2+y,z
1/2-x,-y,z
1/2+x,-y,1/2-z
1/2-x,1/2+y,1/2-z
1/2-x,1/2-y,-z
1/2+x,y,-z
1/2-x,y,1/2+z
1/2+x,1/2-y,1/2+z
loop_
_atom_site_type_symbol
_atom_site_label
_atom_site_fract_x
_atom_site_fract_y
_atom_site_fract_z
Si Si1 0.143120 0.704867 0.348797
Si Si2 0.616354 0.923121 0.968252
Si Si3 0.936493 0.870574 0.810267
Si Si4 0.334953 0.610592 0.094008
O O1 0.087649 0.642298 0.408148
O O2 0.262608 0.634543 0.313381
O O3 0.240006 0.804401 0.370269
O O4 0.000000 0.750000 0.317506
O O5 0.750000 0.000000 0.954447
O O6 0.648575 0.847943 0.025854
O O7 0.500000 0.000000 0.000000
O O8 0.000000 0.750000 0.808336
O O9 0.000000 0.924371 0.750000
O O10 0.013898 0.910350 0.871111
O O11 0.250000 0.500000 0.091364
#
# Coordination Sequence:
#
# PCOD9507869 Si02
#       4
#    16  16  16  16
#     4  11  22  37  62  93 124 163 210 264 326 389
#     4  11  22  37  58  90 132 167 206 259 316 385
#     4   9  20  41  64  87 123 172 221 271 325 380
#     4  10  21  39  59  87 127 171 212 258 313 380
#
# _framework density 24.872287
#
# number of rings (size 3 to 8) (size 9 to 14) (size 15 to 20)
#    0.000    1.750    0.000    5.250    0.000    3.000 
#    0.000   16.250    0.000    0.000    0.000    0.000 
#    0.000    0.000    0.000    0.000    0.000    0.000 
#
# Total GULP energy -178857.384373 kJ/mol
# GULP energy per Si atom -5589.293262 kJ/mol
# Density = 2.481568 g / cm^3
# Si number density = 24.872287 Si / 1000 Ang^3
#
#
#
# Elastic Constant Matrix: (Units=GPa)
#
#
# Indices 1 2 3 4 5 6 
#
# 1 196.2454 23.6429 60.3717 0.0000 0.0000 0.0000
# 2 23.6429 57.7743 18.5797 0.0000 0.0000 0.0000
# 3 60.3717 18.5797 138.1529 0.0000 0.0000 0.0000
# 4 0.0000 0.0000 0.0000 18.0449 0.0000 0.0000
# 5 0.0000 0.0000 0.0000 0.0000 17.4719 0.0000
# 6 0.0000 0.0000 0.0000 0.0000 0.0000 34.5859
#
#
#
# Elastic Compliance Matrix: (Units=1/GPa)
#
#
# Indices 1 2 3 4 5 6 
#
# 1 0.006042 -0.001697 -0.002412 0.000000 0.000000 0.000000
# 2 -0.001697 0.018568 -0.001756 0.000000 0.000000 0.000000
# 3 -0.002412 -0.001756 0.008529 0.000000 0.000000 0.000000
# 4 0.000000 0.000000 0.000000 0.055417 0.000000 0.000000
# 5 0.000000 0.000000 0.000000 0.000000 0.057235 0.000000
# 6 0.000000 0.000000 0.000000 0.000000 0.000000 0.028914
#
#
# Mechanical properties :
#
#
# Convention : Reuss Voigt Hill
#
# Bulk Modulus (GPa) = 46.70898 66.37348 56.54123
# Shear Modulus (GPa) = 25.83049 33.32575 29.57812
#
# Velocity S-wave (km/s) = 3.22611 3.66440 3.45222
# Velocity P-wave (km/s) = 5.71816 6.68187 6.21871
#
# Compressibility (1/GPa) = 0.02140916
#
# Stress axis : x y z
#
# Youngs Moduli (GPa) = 165.50370 53.85688 117.25315
#
# Poissons Ratio (x) = 0.09139 0.28283
# Poissons Ratio (y) = 0.28084 0.20585
# Poissons Ratio (z) = 0.39922 0.09455
#
# Static dielectric constant tensor:
#      x y z
#    x 2.031340 0.000000 0.000000 
#    y 0.000000 2.077820 0.000000 
#    z 0.000000 0.000000 2.126140 
# 
# From -- ./inp_files/42742.got.cif
#   From: 2010.05.17/outbox.cif.g08.bks.cpg/sg68_22_cif.got.tgz:42742.got - 2010.06.03 18:57:09.
