data_PCOD9507741
_publ_section_title
;
Structure prediction by ZEFSAII (Michael W. Deem and Ramdas Pophale) SiO2 
 PCOD9507741
Probable space group: C C C A
;
_chemical_formula_sum "Si O2"
_cell_formula_units_Z 112
_cell_length_a 26.825363
_cell_length_b 12.302983
_cell_length_c 15.765126
_cell_angle_alpha 90.000000
_cell_angle_beta 90.000000
_cell_angle_gamma 90.000000
_cell_volume 5202.995827
_symmetry_space_group_name_H-M "C C C A"
_symmetry_group_IT_number 68
_space_group.IT_coordinate_system_code '2'
_symmetry_cell_setting 'orthorhombic'
loop_
_space_group_symop_operation_xyz
x,y,z
-x,1/2-y,z
x,1/2-y,1/2-z
-x,y,1/2-z
-x,-y,-z
x,1/2+y,-z
-x,1/2+y,1/2+z
x,-y,1/2+z
1/2+x,1/2+y,z
1/2-x,-y,z
1/2+x,-y,1/2-z
1/2-x,1/2+y,1/2-z
1/2-x,1/2-y,-z
1/2+x,y,-z
1/2-x,y,1/2+z
1/2+x,1/2-y,1/2+z
loop_
_atom_site_type_symbol
_atom_site_label
_atom_site_fract_x
_atom_site_fract_y
_atom_site_fract_z
Si Si1 0.109428 0.379945 0.550805
Si Si2 0.804897 0.453605 0.171506
Si Si3 0.902246 0.475545 0.618500
Si Si4 0.050100 0.908045 0.780671
Si Si5 0.305827 0.757240 0.035434
Si Si6 0.852432 0.084300 0.149099
Si Si7 0.494553 0.923698 0.916723
O O1 0.102823 0.454037 0.466655
O O2 0.151246 0.291240 0.531310
O O3 0.131134 0.463160 0.621259
O O4 0.052260 0.344310 0.568519
O O5 0.750000 0.500000 0.169013
O O6 0.845174 0.545908 0.143435
O O7 0.807904 0.350551 0.108319
O O8 0.820139 0.417791 0.265953
O O9 0.921638 0.547525 0.697784
O O10 0.948419 0.393499 0.605354
O O11 0.094697 0.853470 0.833913
O O12 0.000000 0.852333 0.750000
O O13 0.027034 0.002156 0.840491
O O14 0.322210 0.643747 0.076284
O O15 0.250000 0.750000 0.000000
O O16 0.500000 0.000000 0.000000
#
# Coordination Sequence:
#
# PCOD9507741 Si02
#       7
#    16  16  16  16  16  16  16
#     4   9  19  34  57  84 114 158 198 242 302 370
#     4  10  22  38  60  85 114 157 204 250 305 368
#     4   8  15  29  53  81 113 147 192 242 291 362
#     4   8  14  28  54  86 112 149 190 240 310 366
#     4  11  25  37  58  85 123 160 204 253 308 364
#     4  10  21  38  60  86 122 157 201 258 306 366
#     4   8  13  26  51  81 112 149 191 237 295 362
#
# _framework density 21.526060999999999
#
# number of rings (size 3 to 8) (size 9 to 14) (size 15 to 20)
#    0.000    2.857    0.000    0.429    6.000    0.000 
#    0.000    0.000    0.000  115.714    0.000    0.000 
#    0.000    9.143    0.000    0.000    0.000    0.000 
#
# Total GULP energy -311751.316970 kJ/mol
# GULP energy per Si atom -5566.987803 kJ/mol
# Density = 2.147707 g / cm^3
# Si number density = 21.526061 Si / 1000 Ang^3
#
#
#
# Elastic Constant Matrix: (Units=GPa)
#
#
# Indices 1 2 3 4 5 6 
#
# 1 230.2903 26.4298 20.2457 0.0000 0.0000 0.0000
# 2 26.4298 48.2514 12.0966 0.0000 0.0000 0.0000
# 3 20.2457 12.0966 74.6137 0.0000 0.0000 0.0000
# 4 0.0000 0.0000 0.0000 15.0385 0.0000 0.0000
# 5 0.0000 0.0000 0.0000 0.0000 46.0913 0.0000
# 6 0.0000 0.0000 0.0000 0.0000 0.0000 -12.0824
#
#
#
# Elastic Compliance Matrix: (Units=1/GPa)
#
#
# Indices 1 2 3 4 5 6 
#
# 1 0.004690 -0.002345 -0.000892 0.000000 0.000000 0.000000
# 2 -0.002345 0.022776 -0.003056 0.000000 0.000000 0.000000
# 3 -0.000892 -0.003056 0.014140 0.000000 0.000000 0.000000
# 4 0.000000 0.000000 0.000000 0.066496 0.000000 0.000000
# 5 0.000000 0.000000 0.000000 0.000000 0.021696 0.000000
# 6 0.000000 0.000000 0.000000 0.000000 0.000000 -0.082765
#
#
# Mechanical properties :
#
#
# Convention : Reuss Voigt Hill
#
# Bulk Modulus (GPa) = 34.46119 52.29994 43.38057
# Shear Modulus (GPa) = 72.15782 29.43504 50.79643
#
# Velocity S-wave (km/s) = 5.79603 3.70187 4.86301
# Velocity P-wave (km/s) = 7.79972 6.52845 7.19223
#
# Compressibility (1/GPa) = 0.02901815
#
# Stress axis : x y z
#
# Youngs Moduli (GPa) = 213.22186 43.90675 70.72158
#
# Poissons Ratio (x) = 0.10297 0.06311
# Poissons Ratio (y) = 0.50005 0.21613
# Poissons Ratio (z) = 0.19027 0.13418
#
# Static dielectric constant tensor:
#      x y z
#    x 1.807560 0.000000 0.000000 
#    y 0.000000 1.826630 0.000000 
#    z 0.000000 0.000000 1.808470 
# 
# From -- ./inp_files/22579.got.cif
#   From: 2010.05.17/outbox.cif.g08.bks.cpg/sg68_12_cif.got.tgz:22579.got - 2010.06.03 18:57:09.
