data_PCOD9507872
_publ_section_title
;
Structure prediction by ZEFSAII (Michael W. Deem and Ramdas Pophale) SiO2 
 PCOD9507872
Probable space group: C C C A
;
_chemical_formula_sum "Si O2"
_cell_formula_units_Z 112
_cell_length_a 33.928246
_cell_length_b 25.247420
_cell_length_c 5.633227
_cell_angle_alpha 90.000000
_cell_angle_beta 90.000000
_cell_angle_gamma 90.000000
_cell_volume 4825.426060
_symmetry_space_group_name_H-M "C C C A"
_symmetry_group_IT_number 68
_space_group.IT_coordinate_system_code '2'
_symmetry_cell_setting 'orthorhombic'
loop_
_space_group_symop_operation_xyz
x,y,z
-x,1/2-y,z
x,1/2-y,1/2-z
-x,y,1/2-z
-x,-y,-z
x,1/2+y,-z
-x,1/2+y,1/2+z
x,-y,1/2+z
1/2+x,1/2+y,z
1/2-x,-y,z
1/2+x,-y,1/2-z
1/2-x,1/2+y,1/2-z
1/2-x,1/2-y,-z
1/2+x,y,-z
1/2-x,y,1/2+z
1/2+x,1/2-y,1/2+z
loop_
_atom_site_type_symbol
_atom_site_label
_atom_site_fract_x
_atom_site_fract_y
_atom_site_fract_z
Si Si1 0.954998 0.806257 0.656684
Si Si2 0.984151 0.559595 0.495860
Si Si3 0.162097 0.885568 0.883232
Si Si4 0.094083 0.395573 0.417378
Si Si5 0.391414 0.810343 0.693478
Si Si6 0.773005 0.810232 0.740462
Si Si7 0.265983 0.939376 0.594195
O O1 0.938280 0.750000 0.750000
O O2 0.933611 0.856467 0.766518
O O3 0.937810 0.808192 0.389151
O O4 0.000000 0.806030 0.750000
O O5 0.936919 0.562379 0.483666
O O6 0.000000 0.580342 0.750000
O O7 0.000000 0.500000 0.500000
O O8 0.000000 0.585348 0.250000
O O9 0.129733 0.917819 0.735871
O O10 0.192857 0.852999 0.724362
O O11 0.188453 0.924835 0.043720
O O12 0.137651 0.837806 0.005048
O O13 0.111110 0.353972 0.602962
O O14 0.379871 0.750000 0.750000
O O15 0.788447 0.750000 0.750000
O O16 0.756588 0.814901 0.467075
O O17 0.255528 0.918460 0.855346
O O18 0.250000 0.000000 0.605726
#
# Coordination Sequence:
#
# PCOD9507872 Si02
#       7
#    16  16  16  16  16  16  16
#     4  10  21  39  59  91 138 184 246 290 345 412
#     4  10  24  48  75  98 133 183 235 303 358 422
#     4  11  26  40  69  99 145 184 234 292 369 426
#     4  11  25  40  67  99 140 183 238 287 367 426
#     4  11  25  41  62  99 147 195 235 292 356 432
#     4  10  23  40  63  95 133 183 236 274 330 411
#     4  10  23  47  77 105 138 182 238 305 370 433
#
# _framework density 23.210384000000001
#
# number of rings (size 3 to 8) (size 9 to 14) (size 15 to 20)
#    0.000    1.571    1.429    1.286   12.000    0.571 
#    0.000    5.714    0.000    0.000    0.000    0.000 
#    0.000    0.000    0.000    0.000    0.000    0.000 
#
# Total GULP energy -311892.124072 kJ/mol
# GULP energy per Si atom -5569.502216 kJ/mol
# Density = 2.315756 g / cm^3
# Si number density = 23.210384 Si / 1000 Ang^3
#
#
#
# Elastic Constant Matrix: (Units=GPa)
#
#
# Indices 1 2 3 4 5 6 
#
# 1 110.0961 36.5005 22.6708 0.0000 0.0000 0.0000
# 2 36.5005 85.5923 2.2711 0.0000 0.0000 0.0000
# 3 22.6708 2.2711 111.7001 0.0000 0.0000 0.0000
# 4 0.0000 0.0000 0.0000 21.0432 0.0000 0.0000
# 5 0.0000 0.0000 0.0000 0.0000 -4.5692 0.0000
# 6 0.0000 0.0000 0.0000 0.0000 0.0000 11.5039
#
#
#
# Elastic Compliance Matrix: (Units=1/GPa)
#
#
# Indices 1 2 3 4 5 6 
#
# 1 0.011073 -0.004665 -0.002152 0.000000 0.000000 0.000000
# 2 -0.004665 0.013655 0.000669 0.000000 0.000000 0.000000
# 3 -0.002152 0.000669 0.009376 0.000000 0.000000 0.000000
# 4 0.000000 0.000000 0.000000 0.047521 0.000000 0.000000
# 5 0.000000 0.000000 0.000000 0.000000 -0.218856 0.000000
# 6 0.000000 0.000000 0.000000 0.000000 0.000000 0.086927
#
#
# Mechanical properties :
#
#
# Convention : Reuss Voigt Hill
#
# Bulk Modulus (GPa) = 45.85673 47.80817 46.83245
# Shear Modulus (GPa) = -162.66050 21.99197 -70.33427
#
# Velocity S-wave (km/s) = -8.38052 3.08150 -5.51078
# Velocity P-wave (km/s) = 8.59326 5.77090 4.50227
#
# Compressibility (1/GPa) = 0.02180705
#
# Stress axis : x y z
#
# Youngs Moduli (GPa) = 90.31178 73.23416 106.65742
#
# Poissons Ratio (x) = 0.34162 0.22958
# Poissons Ratio (y) = 0.42129 -0.07137
# Poissons Ratio (z) = 0.19440 -0.04900
#
# Static dielectric constant tensor:
#      x y z
#    x 1.944220 0.000000 0.000000 
#    y 0.000000 -0.531910 0.000000 
#    z 0.000000 0.000000 2.024160 
# 
# From -- ./inp_files/2944.got.cif
#   From: 2010.05.17/outbox.cif.g08.bks.cpg/sg68_2_cif.got.tgz:2944.got - 2010.06.03 18:57:09.
