data_PCOD9507121
_publ_section_title
;
Structure prediction by ZEFSAII (Michael W. Deem and Ramdas Pophale) SiO2 
 PCOD9507121
Probable space group: C C C A
;
_chemical_formula_sum "Si O2"
_cell_formula_units_Z 104
_cell_length_a 21.599015
_cell_length_b 30.056376
_cell_length_c 8.878214
_cell_angle_alpha 90.000000
_cell_angle_beta 90.000000
_cell_angle_gamma 90.000000
_cell_volume 5763.631021
_symmetry_space_group_name_H-M "C C C A"
_symmetry_group_IT_number 68
_space_group.IT_coordinate_system_code '2'
_symmetry_cell_setting 'orthorhombic'
loop_
_space_group_symop_operation_xyz
x,y,z
-x,1/2-y,z
x,1/2-y,1/2-z
-x,y,1/2-z
-x,-y,-z
x,1/2+y,-z
-x,1/2+y,1/2+z
x,-y,1/2+z
1/2+x,1/2+y,z
1/2-x,-y,z
1/2+x,-y,1/2-z
1/2-x,1/2+y,1/2-z
1/2-x,1/2-y,-z
1/2+x,y,-z
1/2-x,y,1/2+z
1/2+x,1/2-y,1/2+z
loop_
_atom_site_type_symbol
_atom_site_label
_atom_site_fract_x
_atom_site_fract_y
_atom_site_fract_z
Si Si1 0.000000 0.750000 0.504055
Si Si2 0.126545 0.212421 0.867298
Si Si3 0.718833 0.434055 0.718960
Si Si4 0.500000 0.825087 0.250000
Si Si5 0.677098 0.638682 0.658361
Si Si6 0.372422 0.361502 0.673739
Si Si7 0.250000 0.500000 0.527633
Si Si8 0.789924 0.706087 0.663367
O O1 0.942322 0.729030 0.413828
O O2 0.015569 0.708558 0.612811
O O3 0.145169 0.250000 0.750000
O O4 0.136425 0.164263 0.786140
O O5 0.170071 0.213698 0.013587
O O6 0.783919 0.405829 0.706601
O O7 0.664656 0.399129 0.736781
O O8 0.711761 0.467422 0.580055
O O9 0.716238 0.465567 0.863942
O O10 0.439810 0.855846 0.254932
O O11 0.637319 0.631457 0.505865
O O12 0.732822 0.673729 0.626070
O O13 0.335350 0.317223 0.717132
O O14 0.770703 0.750000 0.750000
#
# Coordination Sequence:
#
# PCOD9507121 Si02
#       8
#     8  16  16   8  16  16   8  16
#     4  11  23  40  54  80 112 172 230 256 286 344
#     4  12  24  36  55  81 117 165 209 260 294 343
#     4  10  21  38  64  98 125 152 190 245 317 390
#     4  11  22  38  62  76 120 170 220 256 292 342
#     4  11  23  37  58  90 124 150 199 257 314 365
#     4  11  22  38  58  87 120 162 207 249 296 369
#     4  10  20  38  66  98 126 152 180 244 324 392
#     4  11  21  36  55  81 118 158 199 253 309 360
#
# _framework density 18.044181999999999
#
# number of rings (size 3 to 8) (size 9 to 14) (size 15 to 20)
#    0.000    1.077    3.077    5.308    2.154    1.846 
#    0.000    0.000    0.000    0.923    0.000    0.000 
#    0.000    0.000    0.000    0.000    0.000    0.000 
#
# Total GULP energy -289840.491647 kJ/mol
# GULP energy per Si atom -5573.855609 kJ/mol
# Density = 1.800311 g / cm^3
# Si number density = 18.044182 Si / 1000 Ang^3
#
#
#
# Elastic Constant Matrix: (Units=GPa)
#
#
# Indices 1 2 3 4 5 6 
#
# 1 111.7846 37.5277 22.8827 0.0000 0.0000 0.0000
# 2 37.5277 93.0319 31.5268 0.0000 0.0000 0.0000
# 3 22.8827 31.5268 83.3253 0.0000 0.0000 0.0000
# 4 0.0000 0.0000 0.0000 -100.9329 0.0000 0.0000
# 5 0.0000 0.0000 0.0000 0.0000 16.9154 0.0000
# 6 0.0000 0.0000 0.0000 0.0000 0.0000 6.7804
#
#
#
# Elastic Compliance Matrix: (Units=1/GPa)
#
#
# Indices 1 2 3 4 5 6 
#
# 1 0.010502 -0.003738 -0.001470 0.000000 0.000000 0.000000
# 2 -0.003738 0.013661 -0.004142 0.000000 0.000000 0.000000
# 3 -0.001470 -0.004142 0.013972 0.000000 0.000000 0.000000
# 4 0.000000 0.000000 0.000000 -0.009908 0.000000 0.000000
# 5 0.000000 0.000000 0.000000 0.000000 0.059118 0.000000
# 6 0.000000 0.000000 0.000000 0.000000 0.000000 0.147483
#
#
# Mechanical properties :
#
#
# Convention : Reuss Voigt Hill
#
# Bulk Modulus (GPa) = 51.45479 52.44623 51.95051
# Shear Modulus (GPa) = 19.23042 -2.36712 8.43165
#
# Velocity S-wave (km/s) = 3.26811 -1.14660 2.16401
# Velocity P-wave (km/s) = 6.54359 5.23217 5.92428
#
# Compressibility (1/GPa) = 0.01943454
#
# Stress axis : x y z
#
# Youngs Moduli (GPa) = 95.22399 73.20337 71.57229
#
# Poissons Ratio (x) = 0.27365 0.10518
# Poissons Ratio (y) = 0.35596 0.29645
# Poissons Ratio (z) = 0.13994 0.30321
#
# Static dielectric constant tensor:
#      x y z
#    x 1.684030 0.000000 0.000000 
#    y 0.000000 1.426760 0.000000 
#    z 0.000000 0.000000 1.765500 
# 
# From -- ./inp_files/7420.got.cif
#   From: 2010.05.17/outbox.cif.g08.bks.cpg/sg68_4_cif.got.tgz:7420.got - 2010.06.03 18:57:09.
