data_PCOD9507309
_publ_section_title
;
Structure prediction by ZEFSAII (Michael W. Deem and Ramdas Pophale) SiO2 
 PCOD9507309
Probable space group: C C C A
;
_chemical_formula_sum "Si O2"
_cell_formula_units_Z 72
_cell_length_a 17.485016
_cell_length_b 20.198627
_cell_length_c 8.771269
_cell_angle_alpha 90.000000
_cell_angle_beta 90.000000
_cell_angle_gamma 90.000000
_cell_volume 3097.778161
_symmetry_space_group_name_H-M "C C C A"
_symmetry_group_IT_number 68
_space_group.IT_coordinate_system_code '2'
_symmetry_cell_setting 'orthorhombic'
loop_
_space_group_symop_operation_xyz
x,y,z
-x,1/2-y,z
x,1/2-y,1/2-z
-x,y,1/2-z
-x,-y,-z
x,1/2+y,-z
-x,1/2+y,1/2+z
x,-y,1/2+z
1/2+x,1/2+y,z
1/2-x,-y,z
1/2+x,-y,1/2-z
1/2-x,1/2+y,1/2-z
1/2-x,1/2-y,-z
1/2+x,y,-z
1/2-x,y,1/2+z
1/2+x,1/2-y,1/2+z
loop_
_atom_site_type_symbol
_atom_site_label
_atom_site_fract_x
_atom_site_fract_y
_atom_site_fract_z
Si Si1 0.000000 0.489390 0.750000
Si Si2 0.083495 0.921078 0.527067
Si Si3 0.368293 0.778948 0.085534
Si Si4 0.772276 0.428207 0.837092
Si Si5 0.196423 0.339194 0.936984
O O1 0.937273 0.538377 0.677657
O O2 0.030490 0.445804 0.610838
O O3 0.080935 0.842315 0.547739
O O4 0.169168 0.938265 0.475711
O O5 0.387506 0.750000 0.250000
O O6 0.280051 0.805647 0.088495
O O7 0.364045 0.718790 0.965494
O O8 0.750000 0.500000 0.779885
O O9 0.814794 0.385323 0.708679
O O10 0.704659 0.384310 0.911193
#
# Coordination Sequence:
#
# PCOD9507309 Si02
#       5
#     8  16  16  16  16
#     4  10  24  52  67  97 130 184 242 292 326 382
#     4  10  25  43  75  92 134 180 233 287 338 400
#     4  10  20  40  66  98 134 183 211 274 349 415
#     4  11  23  37  65 111 134 176 215 280 357 422
#     4  10  21  36  61  99 148 167 212 264 345 431
#
# _framework density 23.242463999999998
#
# number of rings (size 3 to 8) (size 9 to 14) (size 15 to 20)
#    0.000    1.778    2.222    0.667    9.333    0.000 
#    4.000    0.556    4.889    0.000    0.000    0.000 
#    0.000    0.000    0.000    0.000    0.000    0.000 
#
# Total GULP energy -201433.147162 kJ/mol
# GULP energy per Si atom -5595.365199 kJ/mol
# Density = 2.318956 g / cm^3
# Si number density = 23.242464 Si / 1000 Ang^3
#
#
#
# Elastic Constant Matrix: (Units=GPa)
#
#
# Indices 1 2 3 4 5 6 
#
# 1 26.3421 40.4414 14.7632 0.0000 0.0000 0.0000
# 2 40.4414 206.2532 93.8209 0.0000 0.0000 0.0000
# 3 14.7632 93.8209 124.8608 0.0000 0.0000 0.0000
# 4 0.0000 0.0000 0.0000 50.0656 0.0000 0.0000
# 5 0.0000 0.0000 0.0000 0.0000 21.9756 0.0000
# 6 0.0000 0.0000 0.0000 0.0000 0.0000 27.8558
#
#
#
# Elastic Compliance Matrix: (Units=1/GPa)
#
#
# Indices 1 2 3 4 5 6 
#
# 1 0.054789 -0.011844 0.002422 0.000000 0.000000 0.000000
# 2 -0.011844 0.009927 -0.006059 0.000000 0.000000 0.000000
# 3 0.002422 -0.006059 0.012275 0.000000 0.000000 0.000000
# 4 0.000000 0.000000 0.000000 0.019974 0.000000 0.000000
# 5 0.000000 0.000000 0.000000 0.000000 0.045505 0.000000
# 6 0.000000 0.000000 0.000000 0.000000 0.000000 0.035899
#
#
# Mechanical properties :
#
#
# Convention : Reuss Voigt Hill
#
# Bulk Modulus (GPa) = 21.72581 72.83414 47.27997
# Shear Modulus (GPa) = 22.25454 33.87478 28.06466
#
# Velocity S-wave (km/s) = 3.09770 3.82180 3.47864
# Velocity P-wave (km/s) = 4.70766 7.13299 6.04325
#
# Compressibility (1/GPa) = 0.04602821
#
# Stress axis : x y z
#
# Youngs Moduli (GPa) = 18.25194 100.73785 81.46660
#
# Poissons Ratio (x) = 1.19319 -0.19730
# Poissons Ratio (y) = 0.21618 0.49357
# Poissons Ratio (z) = -0.04420 0.61032
#
# Static dielectric constant tensor:
#      x y z
#    x 1.883380 0.000000 0.000000 
#    y 0.000000 1.905650 0.000000 
#    z 0.000000 0.000000 1.878720 
# 
# From -- ./inp_files/6943.got.cif
#   From: 2010.05.17/outbox.cif.g08.bks.cpg/sg68_4_cif.got.tgz:6943.got - 2010.06.03 18:57:09.
