data_PCOD9507123
_publ_section_title
;
Structure prediction by ZEFSAII (Michael W. Deem and Ramdas Pophale) SiO2 
 PCOD9507123
Probable space group: C C C A
;
_chemical_formula_sum "Si O2"
_cell_formula_units_Z 100
_cell_length_a 14.219009
_cell_length_b 25.485430
_cell_length_c 13.342361
_cell_angle_alpha 90.000000
_cell_angle_beta 90.000000
_cell_angle_gamma 90.000000
_cell_volume 4834.972204
_symmetry_space_group_name_H-M "C C C A"
_symmetry_group_IT_number 68
_space_group.IT_coordinate_system_code '2'
_symmetry_cell_setting 'orthorhombic'
loop_
_space_group_symop_operation_xyz
x,y,z
-x,1/2-y,z
x,1/2-y,1/2-z
-x,y,1/2-z
-x,-y,-z
x,1/2+y,-z
-x,1/2+y,1/2+z
x,-y,1/2+z
1/2+x,1/2+y,z
1/2-x,-y,z
1/2+x,-y,1/2-z
1/2-x,1/2+y,1/2-z
1/2-x,1/2-y,-z
1/2+x,y,-z
1/2-x,y,1/2+z
1/2+x,1/2-y,1/2+z
loop_
_atom_site_type_symbol
_atom_site_label
_atom_site_fract_x
_atom_site_fract_y
_atom_site_fract_z
Si Si1 0.643350 0.318809 0.874481
Si Si2 0.354470 0.981249 0.083434
Si Si3 0.500000 0.616842 0.750000
Si Si4 0.447350 0.535514 0.610690
Si Si5 0.500000 0.250000 0.750000
Si Si6 0.428174 0.200747 0.096174
Si Si7 0.105826 0.070813 0.286587
Si Si8 0.287029 0.750000 0.750000
O O1 0.558378 0.288548 0.820301
O O2 0.647796 0.379064 0.840852
O O3 0.729429 0.287299 0.825336
O O4 0.622092 0.313750 0.992187
O O5 0.344110 0.948580 0.185655
O O6 0.250000 0.000000 0.055835
O O7 0.439521 0.024313 0.099593
O O8 0.400347 0.947869 0.993102
O O9 0.427180 0.576008 0.699563
O O10 0.476971 0.652550 0.845970
O O11 0.404597 0.479239 0.641082
O O12 0.500000 0.250000 0.082660
O O13 0.350976 0.216638 0.176950
O O14 0.000000 0.084170 0.250000
#
# Coordination Sequence:
#
# PCOD9507123 Si02
#       8
#    16  16   8  16   4  16  16   8
#     4  11  24  41  74  97 138 178 229 290 357 410
#     4  10  22  42  66  94 144 183 228 284 346 414
#     4  12  23  43  76  94 139 189 228 288 358 420
#     4  10  23  43  64 101 137 182 234 283 345 432
#     4  10  20  38  66  98 128 172 222 272 350 412
#     4  12  25  48  72 100 138 189 236 287 367 428
#     4  10  21  42  66  98 138 178 231 283 341 423
#     4  11  25  51  63 110 140 168 241 317 333 423
#
# _framework density 20.682642000000001
#
# number of rings (size 3 to 8) (size 9 to 14) (size 15 to 20)
#    0.000    1.280    5.600    0.480    6.720    1.920 
#    2.880    0.000    0.000    0.000    0.000    0.000 
#    0.000    0.000    0.000    0.000    0.000    0.000 
#
# Total GULP energy -278893.747347 kJ/mol
# GULP energy per Si atom -5577.874947 kJ/mol
# Density = 2.063557 g / cm^3
# Si number density = 20.682642 Si / 1000 Ang^3
#
#
#
# Elastic Constant Matrix: (Units=GPa)
#
#
# Indices 1 2 3 4 5 6 
#
# 1 58.2303 17.4266 23.9604 0.0000 0.0000 0.0000
# 2 17.4266 105.1856 32.8742 0.0000 0.0000 0.0000
# 3 23.9604 32.8742 159.1383 0.0000 0.0000 0.0000
# 4 0.0000 0.0000 0.0000 12.2533 0.0000 0.0000
# 5 0.0000 0.0000 0.0000 0.0000 19.9414 0.0000
# 6 0.0000 0.0000 0.0000 0.0000 0.0000 -23.7087
#
#
#
# Elastic Compliance Matrix: (Units=1/GPa)
#
#
# Indices 1 2 3 4 5 6 
#
# 1 0.018853 -0.002391 -0.002345 0.000000 0.000000 0.000000
# 2 -0.002391 0.010466 -0.001802 0.000000 0.000000 0.000000
# 3 -0.002345 -0.001802 0.007009 0.000000 0.000000 0.000000
# 4 0.000000 0.000000 0.000000 0.081610 0.000000 0.000000
# 5 0.000000 0.000000 0.000000 0.000000 0.050147 0.000000
# 6 0.000000 0.000000 0.000000 0.000000 0.000000 -0.042179
#
#
# Mechanical properties :
#
#
# Convention : Reuss Voigt Hill
#
# Bulk Modulus (GPa) = 43.00395 52.34186 47.67290
# Shear Modulus (GPa) = 34.07522 18.25008 26.16265
#
# Velocity S-wave (km/s) = 4.06338 2.97372 3.56048
# Velocity P-wave (km/s) = 6.54616 6.09531 6.32475
#
# Compressibility (1/GPa) = 0.02325368
#
# Stress axis : x y z
#
# Youngs Moduli (GPa) = 53.04062 95.54459 142.67041
#
# Poissons Ratio (x) = 0.22842 0.33453
# Poissons Ratio (y) = 0.12681 0.25711
# Poissons Ratio (z) = 0.12437 0.17218
#
# Static dielectric constant tensor:
#      x y z
#    x 1.717200 0.000000 0.000000 
#    y 0.000000 1.716520 0.000000 
#    z 0.000000 0.000000 1.729080 
# 
# From -- ./inp_files/22571.got.cif
#   From: 2010.05.17/outbox.cif.g08.bks.cpg/sg68_12_cif.got.tgz:22571.got - 2010.06.03 18:57:09.
