data_PCOD9507604
_publ_section_title
;
Structure prediction by ZEFSAII (Michael W. Deem and Ramdas Pophale) SiO2 
 PCOD9507604
Probable space group: C C C A
;
_chemical_formula_sum "Si O2"
_cell_formula_units_Z 116
_cell_length_a 9.640790
_cell_length_b 23.789160
_cell_length_c 21.953626
_cell_angle_alpha 90.000000
_cell_angle_beta 90.000000
_cell_angle_gamma 90.000000
_cell_volume 5034.982803
_symmetry_space_group_name_H-M "C C C A"
_symmetry_group_IT_number 68
_space_group.IT_coordinate_system_code '2'
_symmetry_cell_setting 'orthorhombic'
loop_
_space_group_symop_operation_xyz
x,y,z
-x,1/2-y,z
x,1/2-y,1/2-z
-x,y,1/2-z
-x,-y,-z
x,1/2+y,-z
-x,1/2+y,1/2+z
x,-y,1/2+z
1/2+x,1/2+y,z
1/2-x,-y,z
1/2+x,-y,1/2-z
1/2-x,1/2+y,1/2-z
1/2-x,1/2-y,-z
1/2+x,y,-z
1/2-x,y,1/2+z
1/2+x,1/2-y,1/2+z
loop_
_atom_site_type_symbol
_atom_site_label
_atom_site_fract_x
_atom_site_fract_y
_atom_site_fract_z
Si Si1 0.154116 0.695607 0.929637
Si Si2 0.574413 0.372374 0.692253
Si Si3 0.441396 0.558955 0.601297
Si Si4 0.929021 0.644774 0.005928
Si Si5 0.626306 0.933719 0.108653
Si Si6 0.641658 0.241482 0.360906
Si Si7 0.500000 0.750000 0.750000
Si Si8 0.882762 0.383879 0.698351
O O1 0.099993 0.665628 0.867844
O O2 0.291986 0.666741 0.959239
O O3 0.223600 0.751719 0.900807
O O4 0.034237 0.690716 0.978418
O O5 0.500000 0.343800 0.750000
O O6 0.471466 0.418954 0.665267
O O7 0.723239 0.395549 0.713963
O O8 0.481473 0.602726 0.548469
O O9 0.426090 0.493938 0.583375
O O10 0.287281 0.569491 0.627373
O O11 0.559210 0.570882 0.650848
O O12 0.884850 0.608854 0.947398
O O13 0.500000 0.250000 0.397761
O O14 0.388761 0.224237 0.298843
O O15 0.631143 0.177822 0.334025
O O16 0.000000 0.381127 0.750000
#
# Coordination Sequence:
#
# PCOD9507604 Si02
#       8
#    16  16  16  16  16  16   4  16
#     4  10  21  36  63  89 119 159 207 247 309 364
#     4  10  21  38  55  82 121 155 199 256 313 360
#     4  11  21  36  55  81 111 156 209 249 299 361
#     4  11  19  38  56  83 117 156 202 256 291 361
#     4  10  23  36  53  80 117 159 198 253 309 343
#     4   9  17  34  58  92 116 150 190 242 301 364
#     4   8  16  32  64  84 126 140 188 248 292 376
#     4  11  20  35  60  88 112 156 207 245 306 375
#
# _framework density 23.038806999999998
#
# number of rings (size 3 to 8) (size 9 to 14) (size 15 to 20)
#    0.414    1.379    4.828    1.241    0.000    1.103 
#    0.000    0.690    0.000    0.000    0.000   92.690 
#    0.000    0.000    0.000    0.000    0.000    0.000 
#
# Total GULP energy -322883.766122 kJ/mol
# GULP energy per Si atom -5566.961485 kJ/mol
# Density = 2.298637 g / cm^3
# Si number density = 23.038807 Si / 1000 Ang^3
#
#
#
# Elastic Constant Matrix: (Units=GPa)
#
#
# Indices 1 2 3 4 5 6 
#
# 1 149.1776 28.8987 60.2888 0.0000 0.0000 0.0000
# 2 28.8987 43.7713 20.5852 0.0000 0.0000 0.0000
# 3 60.2888 20.5852 129.7144 0.0000 0.0000 0.0000
# 4 0.0000 0.0000 0.0000 10.8416 0.0000 0.0000
# 5 0.0000 0.0000 0.0000 0.0000 57.1607 0.0000
# 6 0.0000 0.0000 0.0000 0.0000 0.0000 23.7879
#
#
#
# Elastic Compliance Matrix: (Units=1/GPa)
#
#
# Indices 1 2 3 4 5 6 
#
# 1 0.008934 -0.004264 -0.003476 0.000000 0.000000 0.000000
# 2 -0.004264 0.026724 -0.002259 0.000000 0.000000 0.000000
# 3 -0.003476 -0.002259 0.009683 0.000000 0.000000 0.000000
# 4 0.000000 0.000000 0.000000 0.092237 0.000000 0.000000
# 5 0.000000 0.000000 0.000000 0.000000 0.017495 0.000000
# 6 0.000000 0.000000 0.000000 0.000000 0.000000 0.042038
#
#
# Mechanical properties :
#
#
# Convention : Reuss Voigt Hill
#
# Bulk Modulus (GPa) = 39.45807 60.24540 49.85174
# Shear Modulus (GPa) = 22.16744 32.55074 27.35909
#
# Velocity S-wave (km/s) = 3.10527 3.76289 3.44978
# Velocity P-wave (km/s) = 5.47913 6.71457 6.12806
#
# Compressibility (1/GPa) = 0.02534336
#
# Stress axis : x y z
#
# Youngs Moduli (GPa) = 111.93058 37.42010 103.27135
#
# Poissons Ratio (x) = 0.15955 0.35894
# Poissons Ratio (y) = 0.47726 0.23331
# Poissons Ratio (z) = 0.38904 0.08454
#
# Static dielectric constant tensor:
#      x y z
#    x 1.920790 0.000000 0.000000 
#    y 0.000000 1.934500 0.000000 
#    z 0.000000 0.000000 1.935490 
# 
# From -- ./inp_files/43629.got.cif
#   From: 2010.05.17/outbox.cif.g08.bks.cpg/sg68_22_cif.got.tgz:43629.got - 2010.06.03 18:57:09.
