data_PCOD9507003
_publ_section_title
;
Structure prediction by ZEFSAII (Michael W. Deem and Ramdas Pophale) SiO2 
 PCOD9507003
Probable space group: C C C A
;
_chemical_formula_sum "Si O2"
_cell_formula_units_Z 112
_cell_length_a 18.913192
_cell_length_b 25.987087
_cell_length_c 13.598763
_cell_angle_alpha 90.000000
_cell_angle_beta 90.000000
_cell_angle_gamma 90.000000
_cell_volume 6683.775233
_symmetry_space_group_name_H-M "C C C A"
_symmetry_group_IT_number 68
_space_group.IT_coordinate_system_code '2'
_symmetry_cell_setting 'orthorhombic'
loop_
_space_group_symop_operation_xyz
x,y,z
-x,1/2-y,z
x,1/2-y,1/2-z
-x,y,1/2-z
-x,-y,-z
x,1/2+y,-z
-x,1/2+y,1/2+z
x,-y,1/2+z
1/2+x,1/2+y,z
1/2-x,-y,z
1/2+x,-y,1/2-z
1/2-x,1/2+y,1/2-z
1/2-x,1/2-y,-z
1/2+x,y,-z
1/2-x,y,1/2+z
1/2+x,1/2-y,1/2+z
loop_
_atom_site_type_symbol
_atom_site_label
_atom_site_fract_x
_atom_site_fract_y
_atom_site_fract_z
Si Si1 0.808083 0.454437 0.621005
Si Si2 0.641825 0.310450 0.624514
Si Si3 0.151405 0.311626 0.150061
Si Si4 0.237078 0.373192 0.517478
Si Si5 0.992773 0.369104 0.361736
Si Si6 0.067942 0.030568 0.466331
Si Si7 0.820080 0.964691 0.149655
O O1 0.750000 0.500000 0.610898
O O2 0.774005 0.404856 0.570214
O O3 0.877732 0.465147 0.557129
O O4 0.825003 0.449630 0.736047
O O5 0.668768 0.322966 0.735277
O O6 0.648432 0.248698 0.624669
O O7 0.687306 0.332659 0.535990
O O8 0.565023 0.338274 0.614974
O O9 0.070984 0.329111 0.137495
O O10 0.204533 0.344553 0.083515
O O11 0.193483 0.414651 0.582342
O O12 0.963883 0.415584 0.428086
O O13 0.000000 0.389512 0.250000
O O14 0.113674 0.999149 0.385294
O O15 0.000000 0.000000 0.500000
O O16 0.750000 0.000000 0.138084
#
# Coordination Sequence:
#
# PCOD9507003 Si02
#       7
#    16  16  16  16  16  16  16
#     4  11  23  38  58  80 116 157 184 233 280 336
#     4  10  22  35  59  85 110 144 186 240 287 337
#     4  10  20  38  57  84 113 142 188 238 288 334
#     4  12  19  38  56  87 111 150 188 233 286 339
#     4  10  21  36  57  81 113 147 183 231 284 332
#     4  12  23  37  55  85 116 149 189 230 280 339
#     4  11  22  38  57  82 117 154 194 229 279 344
#
# _framework density 16.756996999999998
#
# number of rings (size 3 to 8) (size 9 to 14) (size 15 to 20)
#    0.000    1.143    4.286    2.571    2.000    4.000 
#    0.000    0.000    0.000    0.000    0.000    0.000 
#    0.000    0.000    0.000    0.000    0.000    0.000 
#
# Total GULP energy -312336.993181 kJ/mol
# GULP energy per Si atom -5577.446307 kJ/mol
# Density = 1.671886 g / cm^3
# Si number density = 16.756997 Si / 1000 Ang^3
#
#
#
# Elastic Constant Matrix: (Units=GPa)
#
#
# Indices 1 2 3 4 5 6 
#
# 1 61.0565 22.5390 27.0377 0.0000 0.0000 0.0000
# 2 22.5390 78.8332 52.1329 0.0000 0.0000 0.0000
# 3 27.0377 52.1329 106.4314 0.0000 0.0000 0.0000
# 4 0.0000 0.0000 0.0000 29.2202 0.0000 0.0000
# 5 0.0000 0.0000 0.0000 0.0000 12.3918 0.0000
# 6 0.0000 0.0000 0.0000 0.0000 0.0000 34.8078
#
#
#
# Elastic Compliance Matrix: (Units=1/GPa)
#
#
# Indices 1 2 3 4 5 6 
#
# 1 0.019023 -0.003318 -0.003208 0.000000 0.000000 0.000000
# 2 -0.003318 0.019341 -0.008631 0.000000 0.000000 0.000000
# 3 -0.003208 -0.008631 0.014438 0.000000 0.000000 0.000000
# 4 0.000000 0.000000 0.000000 0.034223 0.000000 0.000000
# 5 0.000000 0.000000 0.000000 0.000000 0.080698 0.000000
# 6 0.000000 0.000000 0.000000 0.000000 0.000000 0.028729
#
#
# Mechanical properties :
#
#
# Convention : Reuss Voigt Hill
#
# Bulk Modulus (GPa) = 44.46359 49.97115 47.21737
# Shear Modulus (GPa) = 21.34352 24.92473 23.13413
#
# Velocity S-wave (km/s) = 3.57278 3.86090 3.71963
# Velocity P-wave (km/s) = 6.60391 7.05416 6.83274
#
# Compressibility (1/GPa) = 0.02249031
#
# Stress axis : x y z
#
# Youngs Moduli (GPa) = 52.56671 51.70265 69.26020
#
# Poissons Ratio (x) = 0.17154 0.22216
# Poissons Ratio (y) = 0.17440 0.59779
# Poissons Ratio (z) = 0.16861 0.44625
#
# Static dielectric constant tensor:
#      x y z
#    x 1.544140 0.000000 0.000000 
#    y 0.000000 1.586240 0.000000 
#    z 0.000000 0.000000 1.558950 
# 
# From -- ./inp_files/22755.got.cif
#   From: 2010.05.17/outbox.cif.g08.bks.cpg/sg68_12_cif.got.tgz:22755.got - 2010.06.03 18:57:09.
