data_PCOD9507578
_publ_section_title
;
Structure prediction by ZEFSAII (Michael W. Deem and Ramdas Pophale) SiO2 
 PCOD9507578
Probable space group: C C C A
;
_chemical_formula_sum "Si O2"
_cell_formula_units_Z 72
_cell_length_a 17.938598
_cell_length_b 8.980680
_cell_length_c 23.487804
_cell_angle_alpha 90.000000
_cell_angle_beta 90.000000
_cell_angle_gamma 90.000000
_cell_volume 3783.904209
_symmetry_space_group_name_H-M "C C C A"
_symmetry_group_IT_number 68
_space_group.IT_coordinate_system_code '2'
_symmetry_cell_setting 'orthorhombic'
loop_
_space_group_symop_operation_xyz
x,y,z
-x,1/2-y,z
x,1/2-y,1/2-z
-x,y,1/2-z
-x,-y,-z
x,1/2+y,-z
-x,1/2+y,1/2+z
x,-y,1/2+z
1/2+x,1/2+y,z
1/2-x,-y,z
1/2+x,-y,1/2-z
1/2-x,1/2+y,1/2-z
1/2-x,1/2-y,-z
1/2+x,y,-z
1/2-x,y,1/2+z
1/2+x,1/2-y,1/2+z
loop_
_atom_site_type_symbol
_atom_site_label
_atom_site_fract_x
_atom_site_fract_y
_atom_site_fract_z
Si Si1 0.635438 0.723788 0.920595
Si Si2 0.500000 0.250000 0.339213
Si Si3 0.837759 0.463194 0.029551
Si Si4 0.282666 0.167482 0.637558
Si Si5 0.500000 0.994994 0.250000
Si Si6 0.126694 0.250000 0.250000
O O1 0.569498 0.702901 0.876970
O O2 0.713661 0.735037 0.886186
O O3 0.625255 0.884134 0.950953
O O4 0.635440 0.605164 0.971008
O O5 0.519567 0.107267 0.301022
O O6 0.750000 0.500000 0.021535
O O7 0.838501 0.351894 0.083724
O O8 0.322655 0.224133 0.694133
O O9 0.250000 0.000000 0.648168
O O10 0.571347 0.889790 0.240029
#
# Coordination Sequence:
#
# PCOD9507578 Si02
#       6
#    16   8  16  16   8   8
#     4  10  21  36  58  83 115 153 191 233 287 344
#     4  11  24  42  56  80 122 163 192 238 298 341
#     4   9  18  36  57  84 115 144 183 241 292 335
#     4   9  19  36  59  88 116 143 187 241 290 342
#     4  10  24  42  58  82 122 154 188 246 298 330
#     4  11  22  40  66  89 110 152 202 239 280 352
#
# _framework density 19.027964999999998
#
# number of rings (size 3 to 8) (size 9 to 14) (size 15 to 20)
#    0.000    2.667    0.000    5.333    0.000    8.000 
#    0.000    2.222    0.000    0.000    0.000    0.000 
#    0.000    0.000    0.000    0.000    0.000    0.000 
#
# Total GULP energy -200860.824567 kJ/mol
# GULP energy per Si atom -5579.467349 kJ/mol
# Density = 1.898466 g / cm^3
# Si number density = 19.027965 Si / 1000 Ang^3
#
#
#
# Elastic Constant Matrix: (Units=GPa)
#
#
# Indices 1 2 3 4 5 6 
#
# 1 37.8888 21.8236 47.7288 0.0000 0.0000 0.0000
# 2 21.8236 51.8993 44.3277 0.0000 0.0000 0.0000
# 3 47.7288 44.3277 146.8582 0.0000 0.0000 0.0000
# 4 0.0000 0.0000 0.0000 15.4025 0.0000 0.0000
# 5 0.0000 0.0000 0.0000 0.0000 15.8247 0.0000
# 6 0.0000 0.0000 0.0000 0.0000 0.0000 15.2812
#
#
#
# Elastic Compliance Matrix: (Units=1/GPa)
#
#
# Indices 1 2 3 4 5 6 
#
# 1 0.047735 -0.009192 -0.012740 0.000000 0.000000 0.000000
# 2 -0.009192 0.027731 -0.005383 0.000000 0.000000 0.000000
# 3 -0.012740 -0.005383 0.012574 0.000000 0.000000 0.000000
# 4 0.000000 0.000000 0.000000 0.064924 0.000000 0.000000
# 5 0.000000 0.000000 0.000000 0.000000 0.063192 0.000000
# 6 0.000000 0.000000 0.000000 0.000000 0.000000 0.065440
#
#
# Mechanical properties :
#
#
# Convention : Reuss Voigt Hill
#
# Bulk Modulus (GPa) = 29.92913 51.60073 40.76493
# Shear Modulus (GPa) = 14.39415 17.48610 15.94013
#
# Velocity S-wave (km/s) = 2.75339 3.03474 2.89748
# Velocity P-wave (km/s) = 5.08639 6.28146 5.71525
#
# Compressibility (1/GPa) = 0.03341226
#
# Stress axis : x y z
#
# Youngs Moduli (GPa) = 20.94878 36.06090 79.52630
#
# Poissons Ratio (x) = 0.33146 1.01313
# Poissons Ratio (y) = 0.19255 0.42809
# Poissons Ratio (z) = 0.26688 0.19412
#
# Static dielectric constant tensor:
#      x y z
#    x 1.651940 0.000000 0.000000 
#    y 0.000000 1.676960 0.000000 
#    z 0.000000 0.000000 1.661070 
# 
# From -- ./inp_files/36088.got.cif
#   From: 2010.05.17/outbox.cif.g08.bks.cpg/sg68_19_cif.got.tgz:36088.got - 2010.06.03 18:57:09.
