data_PCOD9507901
_publ_section_title
;
Structure prediction by ZEFSAII (Michael W. Deem and Ramdas Pophale) SiO2 
 PCOD9507901
Probable space group: C C C A
;
_chemical_formula_sum "Si O2"
_cell_formula_units_Z 60
_cell_length_a 27.295142
_cell_length_b 5.120304
_cell_length_c 20.678379
_cell_angle_alpha 90.000000
_cell_angle_beta 90.000000
_cell_angle_gamma 90.000000
_cell_volume 2889.998354
_symmetry_space_group_name_H-M "C C C A"
_symmetry_group_IT_number 68
_space_group.IT_coordinate_system_code '2'
_symmetry_cell_setting 'orthorhombic'
loop_
_space_group_symop_operation_xyz
x,y,z
-x,1/2-y,z
x,1/2-y,1/2-z
-x,y,1/2-z
-x,-y,-z
x,1/2+y,-z
-x,1/2+y,1/2+z
x,-y,1/2+z
1/2+x,1/2+y,z
1/2-x,-y,z
1/2+x,-y,1/2-z
1/2-x,1/2+y,1/2-z
1/2-x,1/2-y,-z
1/2+x,y,-z
1/2-x,y,1/2+z
1/2+x,1/2-y,1/2+z
loop_
_atom_site_type_symbol
_atom_site_label
_atom_site_fract_x
_atom_site_fract_y
_atom_site_fract_z
Si Si1 0.785008 0.250000 0.750000
Si Si2 0.214990 0.750986 0.392843
Si Si3 0.531114 0.510402 0.875629
Si Si4 0.115208 0.683139 0.038008
Si Si5 0.000000 0.750000 0.250000
O O1 0.750000 0.500000 0.752861
O O2 0.809479 0.270511 0.679347
O O3 0.250000 0.500000 0.403822
O O4 0.172218 0.801460 0.443735
O O5 0.250000 0.000000 0.393264
O O6 0.500000 0.750000 0.905446
O O7 0.584479 0.551490 0.904451
O O8 0.530891 0.571465 0.798913
O O9 0.500000 0.250000 0.887582
O O10 0.103468 0.482604 0.979714
#
# Coordination Sequence:
#
# PCOD9507901 Si02
#       5
#     8  16  16  16   4
#     4   8  16  33  58  82 109 148 203 250 311 364
#     4  10  21  39  62  88 124 165 208 262 312 366
#     4  10  22  42  67  91 125 158 205 265 316 383
#     4  12  26  40  60  94 126 169 219 248 309 379
#     4   8  22  42  70  96 118 156 202 254 348 384
#
# _framework density 20.761255999999999
#
# number of rings (size 3 to 8) (size 9 to 14) (size 15 to 20)
#    0.800    1.067    0.000    3.600    0.000    7.467 
#    0.000    0.000   11.733    0.000    0.000    0.000 
#    0.000    0.000    0.000    0.000    0.000    0.000 
#
# Total GULP energy -167023.290656 kJ/mol
# GULP energy per Si atom -5567.443022 kJ/mol
# Density = 2.071400 g / cm^3
# Si number density = 20.761256 Si / 1000 Ang^3
#
#
#
# Elastic Constant Matrix: (Units=GPa)
#
#
# Indices 1 2 3 4 5 6 
#
# 1 75.3767 40.3421 30.1035 0.0000 0.0000 0.0000
# 2 40.3421 172.1662 20.8389 0.0000 0.0000 0.0000
# 3 30.1035 20.8389 58.3040 0.0000 0.0000 0.0000
# 4 0.0000 0.0000 0.0000 36.3841 0.0000 0.0000
# 5 0.0000 0.0000 0.0000 0.0000 30.4599 0.0000
# 6 0.0000 0.0000 0.0000 0.0000 0.0000 10.3519
#
#
#
# Elastic Compliance Matrix: (Units=1/GPa)
#
#
# Indices 1 2 3 4 5 6 
#
# 1 0.018342 -0.003294 -0.008293 0.000000 0.000000 0.000000
# 2 -0.003294 0.006663 -0.000681 0.000000 0.000000 0.000000
# 3 -0.008293 -0.000681 0.021676 0.000000 0.000000 0.000000
# 4 0.000000 0.000000 0.000000 0.027485 0.000000 0.000000
# 5 0.000000 0.000000 0.000000 0.000000 0.032830 0.000000
# 6 0.000000 0.000000 0.000000 0.000000 0.000000 0.096601
#
#
# Mechanical properties :
#
#
# Convention : Reuss Voigt Hill
#
# Bulk Modulus (GPa) = 45.15514 54.26843 49.71179
# Shear Modulus (GPa) = 21.23025 29.74333 25.48679
#
# Velocity S-wave (km/s) = 3.20127 3.78912 3.50753
# Velocity P-wave (km/s) = 5.95492 6.73345 6.35611
#
# Compressibility (1/GPa) = 0.02214587
#
# Stress axis : x y z
#
# Youngs Moduli (GPa) = 54.52076 150.09200 46.13303
#
# Poissons Ratio (x) = 0.49441 0.38257
# Poissons Ratio (y) = 0.17960 0.03140
# Poissons Ratio (z) = 0.45213 0.10214
#
# Static dielectric constant tensor:
#      x y z
#    x 1.665780 0.000000 0.000000 
#    y 0.000000 1.738440 0.000000 
#    z 0.000000 0.000000 1.831460 
# 
# From -- ./inp_files/40583.got.cif
#   From: 2010.05.17/outbox.cif.g08.bks.cpg/sg68_21_cif.got.tgz:40583.got - 2010.06.03 18:57:09.
