data_PCOD9507385
_publ_section_title
;
Structure prediction by ZEFSAII (Michael W. Deem and Ramdas Pophale) SiO2 
 PCOD9507385
Probable space group: C C C A
;
_chemical_formula_sum "Si O2"
_cell_formula_units_Z 88
_cell_length_a 21.431938
_cell_length_b 15.071337
_cell_length_c 11.459183
_cell_angle_alpha 90.000000
_cell_angle_beta 90.000000
_cell_angle_gamma 90.000000
_cell_volume 3701.407326
_symmetry_space_group_name_H-M "C C C A"
_symmetry_group_IT_number 68
_space_group.IT_coordinate_system_code '2'
_symmetry_cell_setting 'orthorhombic'
loop_
_space_group_symop_operation_xyz
x,y,z
-x,1/2-y,z
x,1/2-y,1/2-z
-x,y,1/2-z
-x,-y,-z
x,1/2+y,-z
-x,1/2+y,1/2+z
x,-y,1/2+z
1/2+x,1/2+y,z
1/2-x,-y,z
1/2+x,-y,1/2-z
1/2-x,1/2+y,1/2-z
1/2-x,1/2-y,-z
1/2+x,y,-z
1/2-x,y,1/2+z
1/2+x,1/2-y,1/2+z
loop_
_atom_site_type_symbol
_atom_site_label
_atom_site_fract_x
_atom_site_fract_y
_atom_site_fract_z
Si Si1 0.624613 0.660241 0.323298
Si Si2 0.632864 0.704601 0.993781
Si Si3 0.771876 0.600592 0.658329
Si Si4 0.822530 0.750000 0.250000
Si Si5 0.569407 0.003118 0.236620
Si Si6 0.431601 0.958838 0.014516
O O1 0.625006 0.750000 0.250000
O O2 0.632519 0.696836 0.452353
O O3 0.681440 0.603146 0.270284
O O4 0.565280 0.601178 0.296159
O O5 0.637906 0.713758 0.856667
O O6 0.690029 0.647699 0.051616
O O7 0.573122 0.646707 0.032271
O O8 0.750000 0.500000 0.634880
O O9 0.719054 0.670530 0.696660
O O10 0.500000 0.042790 0.250000
O O11 0.596327 0.004833 0.368678
O O12 0.599650 0.032552 0.113725
O O13 0.500000 0.000000 0.000000
#
# Coordination Sequence:
#
# PCOD9507385 Si02
#       6
#    16  16  16   8  16  16
#     4  10  20  42  64  91 132 174 232 287 347 419
#     4  11  24  44  67  97 149 185 236 305 357 433
#     4  11  24  42  70 100 138 188 246 295 361 424
#     4  12  26  44  66 106 152 190 244 306 364 428
#     4  10  21  39  66  95 132 172 232 290 351 430
#     4  10  22  42  68 102 135 181 235 294 363 434
#
# _framework density 23.774742
#
# number of rings (size 3 to 8) (size 9 to 14) (size 15 to 20)
#    0.000    1.455    6.364    0.545    2.545    4.000 
#    0.000    0.000    0.000    0.000    0.000    1.273 
#    0.000    0.000    0.000    0.000    0.000    0.000 
#
# Total GULP energy -245082.321988 kJ/mol
# GULP energy per Si atom -5570.052772 kJ/mol
# Density = 2.372063 g / cm^3
# Si number density = 23.774742 Si / 1000 Ang^3
#
#
#
# Elastic Constant Matrix: (Units=GPa)
#
#
# Indices 1 2 3 4 5 6 
#
# 1 40.9285 23.5260 10.2858 0.0000 0.0000 0.0000
# 2 23.5260 92.0538 31.1527 0.0000 0.0000 0.0000
# 3 10.2858 31.1527 210.7237 0.0000 0.0000 0.0000
# 4 0.0000 0.0000 0.0000 24.6971 0.0000 0.0000
# 5 0.0000 0.0000 0.0000 0.0000 21.6814 0.0000
# 6 0.0000 0.0000 0.0000 0.0000 0.0000 5.6574
#
#
#
# Elastic Compliance Matrix: (Units=1/GPa)
#
#
# Indices 1 2 3 4 5 6 
#
# 1 0.028662 -0.007213 -0.000333 0.000000 0.000000 0.000000
# 2 -0.007213 0.013250 -0.001607 0.000000 0.000000 0.000000
# 3 -0.000333 -0.001607 0.004999 0.000000 0.000000 0.000000
# 4 0.000000 0.000000 0.000000 0.040491 0.000000 0.000000
# 5 0.000000 0.000000 0.000000 0.000000 0.046122 0.000000
# 6 0.000000 0.000000 0.000000 0.000000 0.000000 0.176759
#
#
# Mechanical properties :
#
#
# Convention : Reuss Voigt Hill
#
# Bulk Modulus (GPa) = 34.95572 52.62612 43.79092
# Shear Modulus (GPa) = 14.78748 28.98996 21.88872
#
# Velocity S-wave (km/s) = 2.49666 3.49572 3.03755
# Velocity P-wave (km/s) = 4.80062 6.20297 5.54629
#
# Compressibility (1/GPa) = 0.02860762
#
# Stress axis : x y z
#
# Youngs Moduli (GPa) = 34.88908 75.47006 200.02635
#
# Poissons Ratio (x) = 0.54433 0.06656
# Poissons Ratio (y) = 0.25164 0.32141
# Poissons Ratio (z) = 0.01161 0.12127
#
# Static dielectric constant tensor:
#      x y z
#    x 2.001090 0.000000 0.000000 
#    y 0.000000 2.001650 0.000000 
#    z 0.000000 0.000000 2.015940 
# 
# From -- ./inp_files/16332.got.cif
#   From: 2010.05.17/outbox.cif.g08.bks.cpg/sg68_9_cif.got.tgz:16332.got - 2010.06.03 18:57:09.
