data_PCOD9507227
_publ_section_title
;
Structure prediction by ZEFSAII (Michael W. Deem and Ramdas Pophale) SiO2 
 PCOD9507227
Probable space group: C C C A
;
_chemical_formula_sum "Si O2"
_cell_formula_units_Z 60
_cell_length_a 8.863764
_cell_length_b 14.468413
_cell_length_c 21.878362
_cell_angle_alpha 90.000000
_cell_angle_beta 90.000000
_cell_angle_gamma 90.000000
_cell_volume 2805.781746
_symmetry_space_group_name_H-M "C C C A"
_symmetry_group_IT_number 68
_space_group.IT_coordinate_system_code '2'
_symmetry_cell_setting 'orthorhombic'
loop_
_space_group_symop_operation_xyz
x,y,z
-x,1/2-y,z
x,1/2-y,1/2-z
-x,y,1/2-z
-x,-y,-z
x,1/2+y,-z
-x,1/2+y,1/2+z
x,-y,1/2+z
1/2+x,1/2+y,z
1/2-x,-y,z
1/2+x,-y,1/2-z
1/2-x,1/2+y,1/2-z
1/2-x,1/2-y,-z
1/2+x,y,-z
1/2-x,y,1/2+z
1/2+x,1/2-y,1/2+z
loop_
_atom_site_type_symbol
_atom_site_label
_atom_site_fract_x
_atom_site_fract_y
_atom_site_fract_z
Si Si1 0.211428 0.183038 0.584551
Si Si2 0.500000 0.750000 0.482368
Si Si3 0.793691 0.682851 0.304602
Si Si4 0.000000 0.750000 0.750000
Si Si5 0.000000 0.026597 0.750000
Si Si6 0.750000 0.000000 0.839572
O O1 0.379659 0.196160 0.558492
O O2 0.178093 0.268411 0.630634
O O3 0.098506 0.186108 0.527511
O O4 0.203729 0.088620 0.621703
O O5 0.845494 0.750000 0.250000
O O6 0.613003 0.688913 0.292066
O O7 0.885718 0.590032 0.291088
O O8 0.889920 0.974823 0.796132
#
# Coordination Sequence:
#
# PCOD9507227 Si02
#       6
#    16   8  16   4   8   8
#     4  11  23  42  66  92 126 166 222 262 313 373
#     4  10  25  44  66  86 116 183 228 254 296 386
#     4  10  20  39  69  93 125 171 208 258 315 405
#     4   8  18  28  64  98 112 156 216 250 302 364
#     4  12  25  39  62 102 136 170 202 253 352 393
#     4  12  26  40  64  98 136 162 204 280 328 384
#
# _framework density 21.384416000000002
#
# number of rings (size 3 to 8) (size 9 to 14) (size 15 to 20)
#    0.800    0.533    2.667    2.800    0.000    7.467 
#    0.000    0.000    0.000    0.000    0.000    0.000 
#    0.000    0.000    0.000    0.000    0.000    0.000 
#
# Total GULP energy -167548.455325 kJ/mol
# GULP energy per Si atom -5584.948511 kJ/mol
# Density = 2.133574 g / cm^3
# Si number density = 21.384416 Si / 1000 Ang^3
#
#
#
# Elastic Constant Matrix: (Units=GPa)
#
#
# Indices 1 2 3 4 5 6 
#
# 1 136.7310 8.6021 22.3504 0.0000 0.0000 0.0000
# 2 8.6021 43.1197 11.9308 0.0000 0.0000 0.0000
# 3 22.3504 11.9308 87.0057 0.0000 0.0000 0.0000
# 4 0.0000 0.0000 0.0000 19.5664 0.0000 0.0000
# 5 0.0000 0.0000 0.0000 0.0000 83.3329 0.0000
# 6 0.0000 0.0000 0.0000 0.0000 0.0000 20.5768
#
#
#
# Elastic Compliance Matrix: (Units=1/GPa)
#
#
# Indices 1 2 3 4 5 6 
#
# 1 0.007678 -0.001025 -0.001832 0.000000 0.000000 0.000000
# 2 -0.001025 0.024243 -0.003061 0.000000 0.000000 0.000000
# 3 -0.001832 -0.003061 0.012384 0.000000 0.000000 0.000000
# 4 0.000000 0.000000 0.000000 0.051108 0.000000 0.000000
# 5 0.000000 0.000000 0.000000 0.000000 0.012000 0.000000
# 6 0.000000 0.000000 0.000000 0.000000 0.000000 0.048598
#
#
# Mechanical properties :
#
#
# Convention : Reuss Voigt Hill
#
# Bulk Modulus (GPa) = 30.79879 39.18035 34.98957
# Shear Modulus (GPa) = 27.98478 39.62678 33.80578
#
# Velocity S-wave (km/s) = 3.62146 4.30940 3.98032
# Velocity P-wave (km/s) = 5.64981 6.56680 6.12549
#
# Compressibility (1/GPa) = 0.03246881
#
# Stress axis : x y z
#
# Youngs Moduli (GPa) = 130.25048 41.24962 80.75076
#
# Poissons Ratio (x) = 0.04227 0.14791
# Poissons Ratio (y) = 0.13348 0.24718
# Poissons Ratio (z) = 0.23858 0.12627
#
# Static dielectric constant tensor:
#      x y z
#    x 1.834720 0.000000 0.000000 
#    y 0.000000 1.889180 0.000000 
#    z 0.000000 0.000000 1.746670 
# 
# From -- ./inp_files/27748.got.cif
#   From: 2010.05.17/outbox.cif.g08.bks.cpg/sg68_14_cif.got.tgz:27748.got - 2010.06.03 18:57:09.
