data_PCOD9507669
_publ_section_title
;
Structure prediction by ZEFSAII (Michael W. Deem and Ramdas Pophale) SiO2 
 PCOD9507669
Probable space group: C C C A
;
_chemical_formula_sum "Si O2"
_cell_formula_units_Z 52
_cell_length_a 5.116501
_cell_length_b 14.020010
_cell_length_c 29.117475
_cell_angle_alpha 90.000000
_cell_angle_beta 90.000000
_cell_angle_gamma 90.000000
_cell_volume 2088.695341
_symmetry_space_group_name_H-M "C C C A"
_symmetry_group_IT_number 68
_space_group.IT_coordinate_system_code '2'
_symmetry_cell_setting 'orthorhombic'
loop_
_space_group_symop_operation_xyz
x,y,z
-x,1/2-y,z
x,1/2-y,1/2-z
-x,y,1/2-z
-x,-y,-z
x,1/2+y,-z
-x,1/2+y,1/2+z
x,-y,1/2+z
1/2+x,1/2+y,z
1/2-x,-y,z
1/2+x,-y,1/2-z
1/2-x,1/2+y,1/2-z
1/2-x,1/2-y,-z
1/2+x,y,-z
1/2-x,y,1/2+z
1/2+x,1/2-y,1/2+z
loop_
_atom_site_type_symbol
_atom_site_label
_atom_site_fract_x
_atom_site_fract_y
_atom_site_fract_z
Si Si1 0.500000 0.750000 0.750000
Si Si2 0.622090 0.147790 0.482657
Si Si3 0.223943 0.113888 0.321136
Si Si4 0.778063 0.112989 0.880964
O O1 0.685684 0.819729 0.720401
O O2 0.500000 0.250000 0.498103
O O3 0.337063 0.098941 0.485199
O O4 0.733496 0.155978 0.431442
O O5 0.439060 0.133060 0.360235
O O6 0.943122 0.136525 0.343337
O O7 0.250000 0.000000 0.309515
O O8 0.750000 0.000000 0.888041
#
# Coordination Sequence:
#
# PCOD9507669 Si02
#       4
#     4  16  16  16
#     4  12  28  50  80 108 132 202 232 294 388 432
#     4  10  21  37  61  96 137 179 228 283 329 399
#     4  10  25  46  71 105 143 176 234 296 347 428
#     4  10  22  43  67  97 140 183 222 288 349 404
#
# _framework density 24.895921000000001
#
# number of rings (size 3 to 8) (size 9 to 14) (size 15 to 20)
#    0.000    1.846    0.000    1.846    2.154    8.615 
#    0.000    0.000    0.000    0.000    0.000    0.000 
#    0.000    0.000    0.000    0.000    0.000    0.000 
#
# Total GULP energy -145349.544769 kJ/mol
# GULP energy per Si atom -5590.367106 kJ/mol
# Density = 2.483926 g / cm^3
# Si number density = 24.895921 Si / 1000 Ang^3
#
#
#
# Elastic Constant Matrix: (Units=GPa)
#
#
# Indices 1 2 3 4 5 6 
#
# 1 116.8402 -1.6722 19.2562 0.0000 0.0000 0.0000
# 2 -1.6722 111.0925 49.1568 0.0000 0.0000 0.0000
# 3 19.2562 49.1568 139.9914 0.0000 0.0000 0.0000
# 4 0.0000 0.0000 0.0000 35.0898 0.0000 0.0000
# 5 0.0000 0.0000 0.0000 0.0000 30.1119 0.0000
# 6 0.0000 0.0000 0.0000 0.0000 0.0000 20.7019
#
#
#
# Elastic Compliance Matrix: (Units=1/GPa)
#
#
# Indices 1 2 3 4 5 6 
#
# 1 0.008816 0.000792 -0.001491 0.000000 0.000000 0.000000
# 2 0.000792 0.010729 -0.003876 0.000000 0.000000 0.000000
# 3 -0.001491 -0.003876 0.008709 0.000000 0.000000 0.000000
# 4 0.000000 0.000000 0.000000 0.028498 0.000000 0.000000
# 5 0.000000 0.000000 0.000000 0.000000 0.033209 0.000000
# 6 0.000000 0.000000 0.000000 0.000000 0.000000 0.048305
#
#
# Mechanical properties :
#
#
# Convention : Reuss Voigt Hill
#
# Bulk Modulus (GPa) = 52.34405 55.71173 54.02789
# Shear Modulus (GPa) = 32.51313 37.25961 34.88637
#
# Velocity S-wave (km/s) = 3.61773 3.87281 3.74744
# Velocity P-wave (km/s) = 6.20656 6.51342 6.36184
#
# Compressibility (1/GPa) = 0.01910437
#
# Stress axis : x y z
#
# Youngs Moduli (GPa) = 113.43342 93.20862 114.81733
#
# Poissons Ratio (x) = -0.07386 0.17118
# Poissons Ratio (y) = -0.08988 0.44506
# Poissons Ratio (z) = 0.16911 0.36130
#
# Static dielectric constant tensor:
#      x y z
#    x 3.150810 0.000000 0.000000 
#    y 0.000000 3.026710 0.000000 
#    z 0.000000 0.000000 1.885760 
# 
# From -- ./inp_files/47922.got.cif
#   From: 2010.05.17/outbox.cif.g08.bks.cpg/sg68_24_cif.got.tgz:47922.got - 2010.06.03 18:57:09.
