data_PCOD9507178
_publ_section_title
;
Structure prediction by ZEFSAII (Michael W. Deem and Ramdas Pophale) SiO2 
 PCOD9507178
Probable space group: C C C A
;
_chemical_formula_sum "Si O2"
_cell_formula_units_Z 84
_cell_length_a 21.658218
_cell_length_b 18.684080
_cell_length_c 8.611584
_cell_angle_alpha 90.000000
_cell_angle_beta 90.000000
_cell_angle_gamma 90.000000
_cell_volume 3484.796975
_symmetry_space_group_name_H-M "C C C A"
_symmetry_group_IT_number 68
_space_group.IT_coordinate_system_code '2'
_symmetry_cell_setting 'orthorhombic'
loop_
_space_group_symop_operation_xyz
x,y,z
-x,1/2-y,z
x,1/2-y,1/2-z
-x,y,1/2-z
-x,-y,-z
x,1/2+y,-z
-x,1/2+y,1/2+z
x,-y,1/2+z
1/2+x,1/2+y,z
1/2-x,-y,z
1/2+x,-y,1/2-z
1/2-x,1/2+y,1/2-z
1/2-x,1/2-y,-z
1/2+x,y,-z
1/2-x,y,1/2+z
1/2+x,1/2-y,1/2+z
loop_
_atom_site_type_symbol
_atom_site_label
_atom_site_fract_x
_atom_site_fract_y
_atom_site_fract_z
Si Si1 0.881905 0.537075 0.759999
Si Si2 0.250000 0.000000 0.381227
Si Si3 0.306079 0.347274 0.031416
Si Si4 0.000000 0.250000 0.250000
Si Si5 0.722375 0.250000 0.750000
Si Si6 0.954495 0.437503 0.562277
Si Si7 0.565740 0.351549 0.510518
O O1 0.810072 0.522646 0.782642
O O2 0.918813 0.464456 0.714117
O O3 0.903164 0.585261 0.615872
O O4 0.906604 0.570608 0.920243
O O5 0.223803 0.927637 0.466582
O O6 0.262085 0.300445 0.138787
O O7 0.310039 0.306796 0.864885
O O8 0.375645 0.337030 0.096819
O O9 0.955998 0.204964 0.362174
O O10 0.000000 0.500000 0.500000
O O11 0.001737 0.372497 0.571217
#
# Coordination Sequence:
#
# PCOD9507178 Si02
#       7
#    16   8  16   4   8  16  16
#     4  11  23  41  65 102 142 177 231 308 370 434
#     4  12  26  44  76 116 142 190 254 308 380 434
#     4  11  25  47  75 108 147 197 250 309 365 454
#     4  12  22  44  72  98 136 206 252 272 358 472
#     4  10  25  50  70 104 160 201 238 304 388 436
#     4  10  20  39  63  93 135 179 223 293 368 415
#     4  11  22  41  68 101 136 191 247 295 359 434
#
# _framework density 24.104704999999999
#
# number of rings (size 3 to 8) (size 9 to 14) (size 15 to 20)
#    0.000    1.143    1.905    5.714    0.000    8.381 
#    3.429    0.000    0.000    0.000    0.000    0.000 
#    0.000    0.000    0.000    0.000    0.000    0.000 
#
# Total GULP energy -234465.010700 kJ/mol
# GULP energy per Si atom -5582.500255 kJ/mol
# Density = 2.404984 g / cm^3
# Si number density = 24.104705 Si / 1000 Ang^3
#
#
#
# Elastic Constant Matrix: (Units=GPa)
#
#
# Indices 1 2 3 4 5 6 
#
# 1 201.3539 53.2768 38.0474 0.0000 0.0000 0.0000
# 2 53.2768 103.8291 19.7348 0.0000 0.0000 0.0000
# 3 38.0474 19.7348 78.1202 0.0000 0.0000 0.0000
# 4 0.0000 0.0000 0.0000 41.6636 0.0000 0.0000
# 5 0.0000 0.0000 0.0000 0.0000 15.4289 0.0000
# 6 0.0000 0.0000 0.0000 0.0000 0.0000 25.6965
#
#
#
# Elastic Compliance Matrix: (Units=1/GPa)
#
#
# Indices 1 2 3 4 5 6 
#
# 1 0.006115 -0.002701 -0.002296 0.000000 0.000000 0.000000
# 2 -0.002701 0.011310 -0.001542 0.000000 0.000000 0.000000
# 3 -0.002296 -0.001542 0.014308 0.000000 0.000000 0.000000
# 4 0.000000 0.000000 0.000000 0.024002 0.000000 0.000000
# 5 0.000000 0.000000 0.000000 0.000000 0.064813 0.000000
# 6 0.000000 0.000000 0.000000 0.000000 0.000000 0.038916
#
#
# Mechanical properties :
#
#
# Convention : Reuss Voigt Hill
#
# Bulk Modulus (GPa) = 53.60141 67.26901 60.43521
# Shear Modulus (GPa) = 27.97035 34.70742 31.33889
#
# Velocity S-wave (km/s) = 3.41011 3.79867 3.60962
# Velocity P-wave (km/s) = 6.14739 6.87076 6.51912
#
# Compressibility (1/GPa) = 0.01865622
#
# Stress axis : x y z
#
# Youngs Moduli (GPa) = 163.53384 88.41477 69.88926
#
# Poissons Ratio (x) = 0.23884 0.16045
# Poissons Ratio (y) = 0.44176 0.10774
# Poissons Ratio (z) = 0.37544 0.13630
#
# Static dielectric constant tensor:
#      x y z
#    x 2.007010 0.000000 0.000000 
#    y 0.000000 2.041740 0.000000 
#    z 0.000000 0.000000 1.993720 
# 
# From -- ./inp_files/7979.got.cif
#   From: 2010.05.17/outbox.cif.g08.bks.cpg/sg68_4_cif.got.tgz:7979.got - 2010.06.03 18:57:09.
