data_PCOD9507533
_publ_section_title
;
Structure prediction by ZEFSAII (Michael W. Deem and Ramdas Pophale) SiO2 
 PCOD9507533
Probable space group: C C C A
;
_chemical_formula_sum "Si O2"
_cell_formula_units_Z 44
_cell_length_a 5.146163
_cell_length_b 15.563247
_cell_length_c 21.616762
_cell_angle_alpha 90.000000
_cell_angle_beta 90.000000
_cell_angle_gamma 90.000000
_cell_volume 1731.308212
_symmetry_space_group_name_H-M "C C C A"
_symmetry_group_IT_number 68
_space_group.IT_coordinate_system_code '2'
_symmetry_cell_setting 'orthorhombic'
loop_
_space_group_symop_operation_xyz
x,y,z
-x,1/2-y,z
x,1/2-y,1/2-z
-x,y,1/2-z
-x,-y,-z
x,1/2+y,-z
-x,1/2+y,1/2+z
x,-y,1/2+z
1/2+x,1/2+y,z
1/2-x,-y,z
1/2+x,-y,1/2-z
1/2-x,1/2+y,1/2-z
1/2-x,1/2-y,-z
1/2+x,y,-z
1/2-x,y,1/2+z
1/2+x,1/2-y,1/2+z
loop_
_atom_site_type_symbol
_atom_site_label
_atom_site_fract_x
_atom_site_fract_y
_atom_site_fract_z
Si Si1 0.642623 0.164470 0.648229
Si Si2 0.524089 0.854449 0.533180
Si Si3 0.000000 0.250000 0.750000
Si Si4 0.500000 0.444721 0.750000
O O1 0.500000 0.250000 0.622767
O O2 0.827399 0.124366 0.596560
O O3 0.441980 0.106453 0.686078
O O4 0.821833 0.195183 0.704826
O O5 0.500000 0.750000 0.533146
O O6 0.231354 0.883743 0.519291
O O7 0.750000 0.500000 0.765292
#
# Coordination Sequence:
#
# PCOD9507533 Si02
#       4
#    16  16   4   8
#     4  12  23  40  67  95 131 169 216 270 323 390
#     4  10  21  35  59  97 130 160 206 271 326 370
#     4  12  20  36  64 100 124 166 214 268 314 390
#     4  12  28  44  63  95 136 174 216 268 332 390
#
# _framework density 25.414307000000001
#
# number of rings (size 3 to 8) (size 9 to 14) (size 15 to 20)
#    0.000    0.727    5.455    4.364    0.000    0.000 
#    0.000    0.000    0.000    6.545    0.000    0.000 
#    0.000    0.000    0.000    0.000    0.000    0.000 
#
# Total GULP energy -123103.584985 kJ/mol
# GULP energy per Si atom -5595.617499 kJ/mol
# Density = 2.535646 g / cm^3
# Si number density = 25.414307 Si / 1000 Ang^3
#
#
#
# Elastic Constant Matrix: (Units=GPa)
#
#
# Indices 1 2 3 4 5 6 
#
# 1 109.9889 -4.1115 18.6822 0.0000 0.0000 0.0000
# 2 -4.1115 32.0632 5.4958 0.0000 0.0000 0.0000
# 3 18.6822 5.4958 135.9355 0.0000 0.0000 0.0000
# 4 0.0000 0.0000 0.0000 74.4296 0.0000 0.0000
# 5 0.0000 0.0000 0.0000 0.0000 21.1123 0.0000
# 6 0.0000 0.0000 0.0000 0.0000 0.0000 20.1796
#
#
#
# Elastic Compliance Matrix: (Units=1/GPa)
#
#
# Indices 1 2 3 4 5 6 
#
# 1 0.009374 0.001433 -0.001346 0.000000 0.000000 0.000000
# 2 0.001433 0.031625 -0.001475 0.000000 0.000000 0.000000
# 3 -0.001346 -0.001475 0.007601 0.000000 0.000000 0.000000
# 4 0.000000 0.000000 0.000000 0.013436 0.000000 0.000000
# 5 0.000000 0.000000 0.000000 0.000000 0.047366 0.000000
# 6 0.000000 0.000000 0.000000 0.000000 0.000000 0.049555
#
#
# Mechanical properties :
#
#
# Convention : Reuss Voigt Hill
#
# Bulk Modulus (GPa) = 21.82342 35.34673 28.58508
# Shear Modulus (GPa) = 28.24726 40.33906 34.29316
#
# Velocity S-wave (km/s) = 3.33749 3.98836 3.67735
# Velocity P-wave (km/s) = 4.84329 5.92856 5.41319
#
# Compressibility (1/GPa) = 0.04582233
#
# Stress axis : x y z
#
# Youngs Moduli (GPa) = 106.67747 31.62050 131.55989
#
# Poissons Ratio (x) = -0.04531 0.17711
# Poissons Ratio (y) = -0.15285 0.19412
# Poissons Ratio (z) = 0.14361 0.04666
#
# Static dielectric constant tensor:
#      x y z
#    x 2.453120 0.000000 0.000000 
#    y 0.000000 2.300060 0.000000 
#    z 0.000000 0.000000 1.968320 
# 
# From -- ./inp_files/34730.got.cif
#   From: 2010.05.17/outbox.cif.g08.bks.cpg/sg68_18_cif.got.tgz:34730.got - 2010.06.03 18:57:09.
