data_PCOD9507420
_publ_section_title
;
Structure prediction by ZEFSAII (Michael W. Deem and Ramdas Pophale) SiO2 
 PCOD9507420
Probable space group: C C C A
;
_chemical_formula_sum "Si O2"
_cell_formula_units_Z 64
_cell_length_a 22.447401
_cell_length_b 7.865965
_cell_length_c 16.476241
_cell_angle_alpha 90.000000
_cell_angle_beta 90.000000
_cell_angle_gamma 90.000000
_cell_volume 2909.217627
_symmetry_space_group_name_H-M "C C C A"
_symmetry_group_IT_number 68
_space_group.IT_coordinate_system_code '2'
_symmetry_cell_setting 'orthorhombic'
loop_
_space_group_symop_operation_xyz
x,y,z
-x,1/2-y,z
x,1/2-y,1/2-z
-x,y,1/2-z
-x,-y,-z
x,1/2+y,-z
-x,1/2+y,1/2+z
x,-y,1/2+z
1/2+x,1/2+y,z
1/2-x,-y,z
1/2+x,-y,1/2-z
1/2-x,1/2+y,1/2-z
1/2-x,1/2-y,-z
1/2+x,y,-z
1/2-x,y,1/2+z
1/2+x,1/2-y,1/2+z
loop_
_atom_site_type_symbol
_atom_site_label
_atom_site_fract_x
_atom_site_fract_y
_atom_site_fract_z
Si Si1 0.000000 0.250000 0.937513
Si Si2 0.811675 0.101537 0.095895
Si Si3 0.074624 0.591893 0.313187
Si Si4 0.871075 0.730135 0.453440
Si Si5 0.872272 0.750000 0.750000
O O1 0.982944 0.100534 0.872953
O O2 0.939228 0.273084 0.986299
O O3 0.829516 0.202521 0.175450
O O4 0.750000 0.000000 0.100961
O O5 0.860002 0.954026 0.082185
O O6 0.821877 0.222072 0.018584
O O7 0.072309 0.750000 0.250000
O O8 0.126489 0.638518 0.378496
O O9 0.088072 0.413857 0.272420
#
# Coordination Sequence:
#
# PCOD9507420 Si02
#       5
#     8  16  16  16   8
#     4   8  21  42  74  95 146 184 226 305 362 414
#     4  12  26  45  70 106 143 193 245 304 362 439
#     4  10  20  43  71 104 146 183 237 307 358 434
#     4  10  23  45  70 100 148 186 241 300 369 427
#     4  12  24  44  73 104 140 195 254 294 380 436
#
# _framework density 21.999043
#
# number of rings (size 3 to 8) (size 9 to 14) (size 15 to 20)
#    1.500    0.000    2.500    2.625    0.000    3.000 
#    0.000   10.000    0.000    0.000    0.000    0.000 
#    0.000    0.000    0.000    0.000    0.000    0.000 
#
# Total GULP energy -178401.952104 kJ/mol
# GULP energy per Si atom -5575.061003 kJ/mol
# Density = 2.194897 g / cm^3
# Si number density = 21.999043 Si / 1000 Ang^3
#
#
#
# Elastic Constant Matrix: (Units=GPa)
#
#
# Indices 1 2 3 4 5 6 
#
# 1 90.4906 18.3112 6.1678 0.0000 0.0000 0.0000
# 2 18.3112 108.9289 43.3152 0.0000 0.0000 0.0000
# 3 6.1678 43.3152 67.2523 0.0000 0.0000 0.0000
# 4 0.0000 0.0000 0.0000 32.6674 0.0000 0.0000
# 5 0.0000 0.0000 0.0000 0.0000 9.3575 0.0000
# 6 0.0000 0.0000 0.0000 0.0000 0.0000 21.1575
#
#
#
# Elastic Compliance Matrix: (Units=1/GPa)
#
#
# Indices 1 2 3 4 5 6 
#
# 1 0.011443 -0.002025 0.000255 0.000000 0.000000 0.000000
# 2 -0.002025 0.012699 -0.007994 0.000000 0.000000 0.000000
# 3 0.000255 -0.007994 0.019994 0.000000 0.000000 0.000000
# 4 0.000000 0.000000 0.000000 0.030612 0.000000 0.000000
# 5 0.000000 0.000000 0.000000 0.000000 0.106866 0.000000
# 6 0.000000 0.000000 0.000000 0.000000 0.000000 0.047265
#
#
# Mechanical properties :
#
#
# Convention : Reuss Voigt Hill
#
# Bulk Modulus (GPa) = 40.63472 44.69558 42.66515
# Shear Modulus (GPa) = 19.48486 25.89499 22.68992
#
# Velocity S-wave (km/s) = 2.97932 3.43461 3.21503
# Velocity P-wave (km/s) = 5.50876 6.00748 5.76352
#
# Compressibility (1/GPa) = 0.02460950
#
# Stress axis : x y z
#
# Youngs Moduli (GPa) = 87.38760 78.74452 50.01396
#
# Poissons Ratio (x) = 0.15945 -0.01274
# Poissons Ratio (y) = 0.17695 0.39979
# Poissons Ratio (z) = -0.02226 0.62945
#
# Static dielectric constant tensor:
#      x y z
#    x 1.821940 0.000000 0.000000 
#    y 0.000000 1.816600 0.000000 
#    z 0.000000 0.000000 1.881340 
# 
# From -- ./inp_files/33389.got.cif
#   From: 2010.05.17/outbox.cif.g08.bks.cpg/sg68_17_cif.got.tgz:33389.got - 2010.06.03 18:57:09.
