data_PCOD9507371
_publ_section_title
;
Structure prediction by ZEFSAII (Michael W. Deem and Ramdas Pophale) SiO2 
 PCOD9507371
Probable space group: C C C A
;
_chemical_formula_sum "Si O2"
_cell_formula_units_Z 112
_cell_length_a 14.761252
_cell_length_b 26.191101
_cell_length_c 14.300713
_cell_angle_alpha 90.000000
_cell_angle_beta 90.000000
_cell_angle_gamma 90.000000
_cell_volume 5528.847876
_symmetry_space_group_name_H-M "C C C A"
_symmetry_group_IT_number 68
_space_group.IT_coordinate_system_code '2'
_symmetry_cell_setting 'orthorhombic'
loop_
_space_group_symop_operation_xyz
x,y,z
-x,1/2-y,z
x,1/2-y,1/2-z
-x,y,1/2-z
-x,-y,-z
x,1/2+y,-z
-x,1/2+y,1/2+z
x,-y,1/2+z
1/2+x,1/2+y,z
1/2-x,-y,z
1/2+x,-y,1/2-z
1/2-x,1/2+y,1/2-z
1/2-x,1/2-y,-z
1/2+x,y,-z
1/2-x,y,1/2+z
1/2+x,1/2-y,1/2+z
loop_
_atom_site_type_symbol
_atom_site_label
_atom_site_fract_x
_atom_site_fract_y
_atom_site_fract_z
Si Si1 0.517451 0.472760 0.629899
Si Si2 0.096005 0.433754 0.554223
Si Si3 0.567734 0.632098 0.328683
Si Si4 0.604530 0.305483 0.220451
Si Si5 0.770704 0.107599 0.696364
Si Si6 0.573983 0.367163 0.045291
Si Si7 0.679550 0.959803 0.866886
O O1 0.444118 0.512253 0.588782
O O2 0.581506 0.441634 0.556368
O O3 0.457389 0.428013 0.671125
O O4 0.591550 0.510398 0.674678
O O5 0.190034 0.418403 0.601894
O O6 0.022034 0.390259 0.579411
O O7 0.500000 0.655193 0.250000
O O8 0.673353 0.633728 0.306626
O O9 0.561060 0.648226 0.437429
O O10 0.640142 0.250000 0.250000
O O11 0.500000 0.306783 0.250000
O O12 0.658438 0.349414 0.273025
O O13 0.606373 0.321259 0.111198
O O14 0.771956 0.066497 0.779527
O O15 0.641305 0.415917 0.063363
O O16 0.750000 0.000000 0.910604
#
# Coordination Sequence:
#
# PCOD9507371 Si02
#       7
#    16  16  16  16  16  16  16
#     4   9  20  34  49  75 122 174 214 257 302 361
#     4   9  18  34  53  79 119 164 208 261 319 362
#     4  11  24  40  56  87 133 178 218 250 307 388
#     4  10  20  41  72 101 120 141 200 281 342 384
#     4  11  23  36  62  92 124 167 214 273 318 379
#     4   9  20  40  60  86 128 165 201 274 326 365
#     4  10  21  34  51  85 122 167 221 264 308 362
#
# _framework density 20.257384999999999
#
# number of rings (size 3 to 8) (size 9 to 14) (size 15 to 20)
#    0.000    2.143    1.429    1.714    6.000    0.000 
#    2.571    0.714    0.000    2.143    0.000    0.000 
#    0.000    0.000    0.000    0.000    0.000    0.000 
#
# Total GULP energy -311941.128482 kJ/mol
# GULP energy per Si atom -5570.377294 kJ/mol
# Density = 2.021128 g / cm^3
# Si number density = 20.257385 Si / 1000 Ang^3
#
#
#
# Elastic Constant Matrix: (Units=GPa)
#
#
# Indices 1 2 3 4 5 6 
#
# 1 87.6594 -0.3818 25.0287 0.0000 0.0000 0.0000
# 2 -0.3818 58.7297 32.9204 0.0000 0.0000 0.0000
# 3 25.0287 32.9204 89.9275 0.0000 0.0000 0.0000
# 4 0.0000 0.0000 0.0000 12.3333 0.0000 0.0000
# 5 0.0000 0.0000 0.0000 0.0000 22.4588 0.0000
# 6 0.0000 0.0000 0.0000 0.0000 0.0000 11.6277
#
#
#
# Elastic Compliance Matrix: (Units=1/GPa)
#
#
# Indices 1 2 3 4 5 6 
#
# 1 0.012700 0.002597 -0.004485 0.000000 0.000000 0.000000
# 2 0.002597 0.021954 -0.008760 0.000000 0.000000 0.000000
# 3 -0.004485 -0.008760 0.015575 0.000000 0.000000 0.000000
# 4 0.000000 0.000000 0.000000 0.081082 0.000000 0.000000
# 5 0.000000 0.000000 0.000000 0.000000 0.044526 0.000000
# 6 0.000000 0.000000 0.000000 0.000000 0.000000 0.086001
#
#
# Mechanical properties :
#
#
# Convention : Reuss Voigt Hill
#
# Bulk Modulus (GPa) = 34.56295 39.05014 36.80655
# Shear Modulus (GPa) = 17.07776 21.20057 19.13917
#
# Velocity S-wave (km/s) = 2.90666 3.23857 3.07709
# Velocity P-wave (km/s) = 5.32577 5.77090 5.55280
#
# Compressibility (1/GPa) = 0.02893271
#
# Stress axis : x y z
#
# Youngs Moduli (GPa) = 78.74188 45.54945 64.20511
#
# Poissons Ratio (x) = -0.11828 0.28797
# Poissons Ratio (y) = -0.20447 0.56241
# Poissons Ratio (z) = 0.35317 0.39900
#
# Static dielectric constant tensor:
#      x y z
#    x 1.748080 0.000000 0.000000 
#    y 0.000000 1.708360 0.000000 
#    z 0.000000 0.000000 1.875770 
# 
# From -- ./inp_files/22739.got.cif
#   From: 2010.05.17/outbox.cif.g08.bks.cpg/sg68_12_cif.got.tgz:22739.got - 2010.06.03 18:57:09.
