data_PCOD9507022
_publ_section_title
;
Structure prediction by ZEFSAII (Michael W. Deem and Ramdas Pophale) SiO2 
 PCOD9507022
Probable space group: C C C A
;
_chemical_formula_sum "Si O2"
_cell_formula_units_Z 68
_cell_length_a 12.386262
_cell_length_b 20.516000
_cell_length_c 13.650564
_cell_angle_alpha 90.000000
_cell_angle_beta 90.000000
_cell_angle_gamma 90.000000
_cell_volume 3468.834246
_symmetry_space_group_name_H-M "C C C A"
_symmetry_group_IT_number 68
_space_group.IT_coordinate_system_code '2'
_symmetry_cell_setting 'orthorhombic'
loop_
_space_group_symop_operation_xyz
x,y,z
-x,1/2-y,z
x,1/2-y,1/2-z
-x,y,1/2-z
-x,-y,-z
x,1/2+y,-z
-x,1/2+y,1/2+z
x,-y,1/2+z
1/2+x,1/2+y,z
1/2-x,-y,z
1/2+x,-y,1/2-z
1/2-x,1/2+y,1/2-z
1/2-x,1/2-y,-z
1/2+x,y,-z
1/2-x,y,1/2+z
1/2+x,1/2-y,1/2+z
loop_
_atom_site_type_symbol
_atom_site_label
_atom_site_fract_x
_atom_site_fract_y
_atom_site_fract_z
Si Si1 0.374291 0.374128 0.608608
Si Si2 0.868781 0.170218 0.596738
Si Si3 0.037062 0.443161 0.929163
Si Si4 0.000000 0.025992 0.250000
Si Si5 0.500000 0.750000 0.750000
Si Si6 0.500000 0.250000 0.558524
O O1 0.253607 0.347948 0.618385
O O2 0.380266 0.402217 0.496396
O O3 0.419341 0.428268 0.685294
O O4 0.452577 0.311532 0.615468
O O5 0.902892 0.219158 0.508004
O O6 0.935517 0.104154 0.582814
O O7 0.922656 0.205084 0.687797
O O8 0.062710 0.478226 0.826286
O O9 0.000000 0.500000 0.000000
#
# Coordination Sequence:
#
# PCOD9507022 Si02
#       6
#    16  16  16   8   4   8
#     4  10  21  38  61  85 116 156 194 241 295 343
#     4  10  20  38  60  83 117 160 193 237 298 350
#     4   9  20  39  56  81 118 149 193 242 282 343
#     4  10  21  37  56  87 121 150 194 246 286 344
#     4  10  22  36  56  88 122 150 200 248 288 360
#     4   9  20  38  58  85 116 148 196 244 284 348
#
# _framework density 19.603127000000001
#
# number of rings (size 3 to 8) (size 9 to 14) (size 15 to 20)
#    0.000    2.353    0.000    1.412    0.000    6.118 
#    0.000   28.235    0.000    0.000    0.000    0.000 
#    0.000    0.000    0.000    0.000    0.000    0.000 
#
# Total GULP energy -189380.552733 kJ/mol
# GULP energy per Si atom -5570.016257 kJ/mol
# Density = 1.955851 g / cm^3
# Si number density = 19.603127 Si / 1000 Ang^3
#
#
#
# Elastic Constant Matrix: (Units=GPa)
#
#
# Indices 1 2 3 4 5 6 
#
# 1 109.3905 25.8446 40.5410 0.0000 0.0000 0.0000
# 2 25.8446 117.6436 45.8994 0.0000 0.0000 0.0000
# 3 40.5410 45.8994 97.6798 0.0000 0.0000 0.0000
# 4 0.0000 0.0000 0.0000 47.6251 0.0000 0.0000
# 5 0.0000 0.0000 0.0000 0.0000 38.5636 0.0000
# 6 0.0000 0.0000 0.0000 0.0000 0.0000 -42.3674
#
#
#
# Elastic Compliance Matrix: (Units=1/GPa)
#
#
# Indices 1 2 3 4 5 6 
#
# 1 0.010860 -0.000768 -0.004146 0.000000 0.000000 0.000000
# 2 -0.000768 0.010463 -0.004598 0.000000 0.000000 0.000000
# 3 -0.004146 -0.004598 0.014119 0.000000 0.000000 0.000000
# 4 0.000000 0.000000 0.000000 0.020997 0.000000 0.000000
# 5 0.000000 0.000000 0.000000 0.000000 0.025931 0.000000
# 6 0.000000 0.000000 0.000000 0.000000 0.000000 -0.023603
#
#
# Mechanical properties :
#
#
# Convention : Reuss Voigt Hill
#
# Bulk Modulus (GPa) = 60.91131 61.03157 60.97144
# Shear Modulus (GPa) = 60.05060 22.92620 41.48840
#
# Velocity S-wave (km/s) = 5.54073 3.42353 4.60544
# Velocity P-wave (km/s) = 8.48956 6.84314 7.71042
#
# Compressibility (1/GPa) = 0.01641731
#
# Stress axis : x y z
#
# Youngs Moduli (GPa) = 92.08392 95.57687 70.82733
#
# Poissons Ratio (x) = 0.07340 0.29367
# Poissons Ratio (y) = 0.07072 0.32564
# Poissons Ratio (z) = 0.38181 0.43943
#
# Static dielectric constant tensor:
#      x y z
#    x 1.662160 0.000000 0.000000 
#    y 0.000000 1.699760 0.000000 
#    z 0.000000 0.000000 1.756540 
# 
# From -- ./inp_files/20711.got.cif
#   From: 2010.05.17/outbox.cif.g08.bks.cpg/sg68_11_cif.got.tgz:20711.got - 2010.06.03 18:57:09.
