data_PCOD9507060
_publ_section_title
;
Structure prediction by ZEFSAII (Michael W. Deem and Ramdas Pophale) SiO2 
 PCOD9507060
Probable space group: C C C A
;
_chemical_formula_sum "Si O2"
_cell_formula_units_Z 104
_cell_length_a 20.558719
_cell_length_b 14.350539
_cell_length_c 16.309488
_cell_angle_alpha 90.000000
_cell_angle_beta 90.000000
_cell_angle_gamma 90.000000
_cell_volume 4811.767023
_symmetry_space_group_name_H-M "C C C A"
_symmetry_group_IT_number 68
_space_group.IT_coordinate_system_code '2'
_symmetry_cell_setting 'orthorhombic'
loop_
_space_group_symop_operation_xyz
x,y,z
-x,1/2-y,z
x,1/2-y,1/2-z
-x,y,1/2-z
-x,-y,-z
x,1/2+y,-z
-x,1/2+y,1/2+z
x,-y,1/2+z
1/2+x,1/2+y,z
1/2-x,-y,z
1/2+x,-y,1/2-z
1/2-x,1/2+y,1/2-z
1/2-x,1/2-y,-z
1/2+x,y,-z
1/2-x,y,1/2+z
1/2+x,1/2-y,1/2+z
loop_
_atom_site_type_symbol
_atom_site_label
_atom_site_fract_x
_atom_site_fract_y
_atom_site_fract_z
Si Si1 0.427644 0.409294 0.445905
Si Si2 0.596865 0.390244 0.599840
Si Si3 0.667914 0.295714 0.166568
Si Si4 0.208202 0.096538 0.230491
Si Si5 0.500000 0.250000 0.527343
Si Si6 0.306570 0.624117 0.550560
Si Si7 0.171395 0.579553 0.589270
O O1 0.443475 0.515021 0.419905
O O2 0.378674 0.371272 0.375931
O O3 0.482495 0.333818 0.464476
O O4 0.391700 0.407905 0.534690
O O5 0.640690 0.403597 0.680418
O O6 0.553584 0.298165 0.586629
O O7 0.651427 0.383584 0.529811
O O8 0.640169 0.250000 0.250000
O O9 0.738677 0.335059 0.190847
O O10 0.676426 0.214540 0.100637
O O11 0.186417 0.123253 0.322796
O O12 0.250000 0.000000 0.230895
O O13 0.230346 0.615575 0.532245
O O14 0.321883 0.531366 0.602684
#
# Coordination Sequence:
#
# PCOD9507060 Si02
#       7
#    16  16  16  16   8  16  16
#     4  11  25  44  69  92 132 182 232 282 344 401
#     4  11  25  42  70  94 132 185 230 278 344 403
#     4  12  22  38  67 104 137 167 216 283 353 420
#     4  12  22  39  65 105 140 168 212 280 357 421
#     4  12  26  48  66  90 130 186 250 288 315 405
#     4  10  20  38  62  95 133 168 208 268 348 412
#     4  10  21  40  63 100 138 168 207 274 354 423
#
# _framework density 21.613681
#
# number of rings (size 3 to 8) (size 9 to 14) (size 15 to 20)
#    0.000    0.923    6.154    1.385    4.308    1.231 
#    0.000    1.923    0.000    1.846    0.000    0.000 
#    0.000    0.000    0.000    0.000    0.000    0.000 
#
# Total GULP energy -290354.232603 kJ/mol
# GULP energy per Si atom -5583.735242 kJ/mol
# Density = 2.156449 g / cm^3
# Si number density = 21.613681 Si / 1000 Ang^3
#
#
#
# Elastic Constant Matrix: (Units=GPa)
#
#
# Indices 1 2 3 4 5 6 
#
# 1 38.9737 6.0741 19.5661 0.0000 0.0000 0.0000
# 2 6.0741 82.4407 19.1469 0.0000 0.0000 0.0000
# 3 19.5661 19.1469 70.7806 0.0000 0.0000 0.0000
# 4 0.0000 0.0000 0.0000 19.5725 0.0000 0.0000
# 5 0.0000 0.0000 0.0000 0.0000 8.6531 0.0000
# 6 0.0000 0.0000 0.0000 0.0000 0.0000 13.5816
#
#
#
# Elastic Compliance Matrix: (Units=1/GPa)
#
#
# Indices 1 2 3 4 5 6 
#
# 1 0.029800 -0.000301 -0.008156 0.000000 0.000000 0.000000
# 2 -0.000301 0.012946 -0.003419 0.000000 0.000000 0.000000
# 3 -0.008156 -0.003419 0.017308 0.000000 0.000000 0.000000
# 4 0.000000 0.000000 0.000000 0.051092 0.000000 0.000000
# 5 0.000000 0.000000 0.000000 0.000000 0.115566 0.000000
# 6 0.000000 0.000000 0.000000 0.000000 0.000000 0.073629
#
#
# Mechanical properties :
#
#
# Convention : Reuss Voigt Hill
#
# Bulk Modulus (GPa) = 27.54734 31.30769 29.42751
# Shear Modulus (GPa) = 14.87239 18.18863 16.53051
#
# Velocity S-wave (km/s) = 2.62601 2.90407 2.76853
# Velocity P-wave (km/s) = 4.68696 5.07557 4.88513
#
# Compressibility (1/GPa) = 0.03630115
#
# Stress axis : x y z
#
# Youngs Moduli (GPa) = 33.55713 77.24311 57.77804
#
# Poissons Ratio (x) = 0.02328 0.47125
# Poissons Ratio (y) = 0.01011 0.19753
# Poissons Ratio (z) = 0.27370 0.26408
#
# Static dielectric constant tensor:
#      x y z
#    x 1.816060 0.000000 0.000000 
#    y 0.000000 1.861360 0.000000 
#    z 0.000000 0.000000 1.797950 
# 
# From -- ./inp_files/33020.got.cif
#   From: 2010.05.17/outbox.cif.g08.bks.cpg/sg68_17_cif.got.tgz:33020.got - 2010.06.03 18:57:09.
