data_PCOD9507124
_publ_section_title
;
Structure prediction by ZEFSAII (Michael W. Deem and Ramdas Pophale) SiO2 
 PCOD9507124
Probable space group: C C C A
;
_chemical_formula_sum "Si O2"
_cell_formula_units_Z 104
_cell_length_a 9.479966
_cell_length_b 26.601982
_cell_length_c 20.180472
_cell_angle_alpha 90.000000
_cell_angle_beta 90.000000
_cell_angle_gamma 90.000000
_cell_volume 5089.230189
_symmetry_space_group_name_H-M "C C C A"
_symmetry_group_IT_number 68
_space_group.IT_coordinate_system_code '2'
_symmetry_cell_setting 'orthorhombic'
loop_
_space_group_symop_operation_xyz
x,y,z
-x,1/2-y,z
x,1/2-y,1/2-z
-x,y,1/2-z
-x,-y,-z
x,1/2+y,-z
-x,1/2+y,1/2+z
x,-y,1/2+z
1/2+x,1/2+y,z
1/2-x,-y,z
1/2+x,-y,1/2-z
1/2-x,1/2+y,1/2-z
1/2-x,1/2-y,-z
1/2+x,y,-z
1/2-x,y,1/2+z
1/2+x,1/2-y,1/2+z
loop_
_atom_site_type_symbol
_atom_site_label
_atom_site_fract_x
_atom_site_fract_y
_atom_site_fract_z
Si Si1 0.000000 0.750000 0.979036
Si Si2 0.960437 0.171274 0.908801
Si Si3 0.863741 0.195356 0.714849
Si Si4 0.648775 0.324046 0.605013
Si Si5 0.676249 0.950561 0.083726
Si Si6 0.591160 0.131540 0.691790
Si Si7 0.928562 0.411810 0.001715
O O1 0.878776 0.771906 0.932317
O O2 0.945848 0.706187 0.026545
O O3 0.809705 0.172033 0.872415
O O4 0.082596 0.194231 0.861915
O O5 0.996343 0.116883 0.939846
O O6 0.847311 0.250000 0.750000
O O7 0.721058 0.164287 0.717782
O O8 0.000000 0.170715 0.750000
O O9 0.523885 0.332238 0.657113
O O10 0.622118 0.368315 0.551853
O O11 0.652095 0.908080 0.139190
O O12 0.790961 0.936036 0.028817
O O13 0.750000 0.000000 0.114088
O O14 0.529037 0.949321 0.042932
O O15 0.500000 0.105995 0.750000
#
# Coordination Sequence:
#
# PCOD9507124 Si02
#       7
#     8  16  16  16  16  16  16
#     4  10  22  30  56  92 124 166 212 258 316 382
#     4  11  20  38  58  86 131 163 214 264 322 380
#     4  11  24  40  61  87 121 174 226 270 308 372
#     4  10  22  37  61  88 128 170 206 259 318 381
#     4  11  22  42  71 100 129 162 206 270 339 405
#     4  11  25  44  63  87 126 171 219 265 313 376
#     4  10  20  38  66  99 129 159 200 262 337 396
#
# _framework density 20.435310999999999
#
# number of rings (size 3 to 8) (size 9 to 14) (size 15 to 20)
#    0.000    1.385    3.077    2.769    0.000    5.231 
#    0.000    1.538    0.000    0.000    0.000    0.000 
#    0.000    0.000    0.000    0.000    0.000    0.000 
#
# Total GULP energy -290193.502192 kJ/mol
# GULP energy per Si atom -5580.644273 kJ/mol
# Density = 2.038880 g / cm^3
# Si number density = 20.435311 Si / 1000 Ang^3
#
#
#
# Elastic Constant Matrix: (Units=GPa)
#
#
# Indices 1 2 3 4 5 6 
#
# 1 136.4465 26.3842 35.3220 0.0000 0.0000 0.0000
# 2 26.3842 44.8887 17.3868 0.0000 0.0000 0.0000
# 3 35.3220 17.3868 71.1901 0.0000 0.0000 0.0000
# 4 0.0000 0.0000 0.0000 10.7689 0.0000 0.0000
# 5 0.0000 0.0000 0.0000 0.0000 34.7699 0.0000
# 6 0.0000 0.0000 0.0000 0.0000 0.0000 20.9170
#
#
#
# Elastic Compliance Matrix: (Units=1/GPa)
#
#
# Indices 1 2 3 4 5 6 
#
# 1 0.008996 -0.003930 -0.003503 0.000000 0.000000 0.000000
# 2 -0.003930 0.026322 -0.004479 0.000000 0.000000 0.000000
# 3 -0.003503 -0.004479 0.016879 0.000000 0.000000 0.000000
# 4 0.000000 0.000000 0.000000 0.092860 0.000000 0.000000
# 5 0.000000 0.000000 0.000000 0.000000 0.028760 0.000000
# 6 0.000000 0.000000 0.000000 0.000000 0.000000 0.047808
#
#
# Mechanical properties :
#
#
# Convention : Reuss Voigt Hill
#
# Bulk Modulus (GPa) = 35.24592 45.63461 40.44027
# Shear Modulus (GPa) = 19.61494 24.85331 22.23413
#
# Velocity S-wave (km/s) = 3.10151 3.49118 3.30210
# Velocity P-wave (km/s) = 5.48734 6.21537 5.86267
#
# Compressibility (1/GPa) = 0.02837208
#
# Stress axis : x y z
#
# Youngs Moduli (GPa) = 111.16227 37.99069 59.24527
#
# Poissons Ratio (x) = 0.14932 0.20756
# Poissons Ratio (y) = 0.43692 0.26533
# Poissons Ratio (z) = 0.38945 0.17014
#
# Static dielectric constant tensor:
#      x y z
#    x 1.726900 0.000000 0.000000 
#    y 0.000000 1.751780 0.000000 
#    z 0.000000 0.000000 1.779870 
# 
# From -- ./inp_files/36555.got.cif
#   From: 2010.05.17/outbox.cif.g08.bks.cpg/sg68_19_cif.got.tgz:36555.got - 2010.06.03 18:57:09.
