data_PCOD9507722
_publ_section_title
;
Structure prediction by ZEFSAII (Michael W. Deem and Ramdas Pophale) SiO2 
 PCOD9507722
Probable space group: C C C A
;
_chemical_formula_sum "Si O2"
_cell_formula_units_Z 72
_cell_length_a 28.440924
_cell_length_b 4.932207
_cell_length_c 22.745855
_cell_angle_alpha 90.000000
_cell_angle_beta 90.000000
_cell_angle_gamma 90.000000
_cell_volume 3190.709485
_symmetry_space_group_name_H-M "C C C A"
_symmetry_group_IT_number 68
_space_group.IT_coordinate_system_code '2'
_symmetry_cell_setting 'orthorhombic'
loop_
_space_group_symop_operation_xyz
x,y,z
-x,1/2-y,z
x,1/2-y,1/2-z
-x,y,1/2-z
-x,-y,-z
x,1/2+y,-z
-x,1/2+y,1/2+z
x,-y,1/2+z
1/2+x,1/2+y,z
1/2-x,-y,z
1/2+x,-y,1/2-z
1/2-x,1/2+y,1/2-z
1/2-x,1/2-y,-z
1/2+x,y,-z
1/2-x,y,1/2+z
1/2+x,1/2-y,1/2+z
loop_
_atom_site_type_symbol
_atom_site_label
_atom_site_fract_x
_atom_site_fract_y
_atom_site_fract_z
Si Si1 0.851481 0.510893 0.459291
Si Si2 0.800861 0.003633 0.794131
Si Si3 0.603395 0.154805 0.360192
Si Si4 0.445339 0.331121 0.685370
Si Si5 0.250000 0.000000 0.955562
O O1 0.853874 0.204142 0.482763
O O2 0.887435 0.661132 0.416972
O O3 0.800667 0.515983 0.425745
O O4 0.794967 0.250000 0.750000
O O5 0.846228 0.071742 0.832805
O O6 0.808445 0.750000 0.750000
O O7 0.750000 0.000000 0.827168
O O8 0.569929 0.357933 0.322878
O O9 0.577759 0.866580 0.363040
O O10 0.500000 0.250000 0.684380
O O11 0.426918 0.250000 0.750000
O O12 0.250000 0.250000 0.000000
#
# Coordination Sequence:
#
# PCOD9507722 Si02
#       5
#    16  16  16  16   8
#     4  10  21  39  59  87 123 163 207 258 299 350
#     4  10  21  38  56  86 129 166 200 242 297 377
#     4  12  22  39  66  91 120 166 207 251 309 377
#     4  11  24  42  66  94 122 153 203 265 318 370
#     4   8  16  34  54  76 112 154 200 244 284 326
#
# _framework density 22.565511999999998
#
# number of rings (size 3 to 8) (size 9 to 14) (size 15 to 20)
#    0.000    1.556    0.000    6.000    0.000    1.778 
#   22.000    0.000    0.000   13.333    0.000    0.000 
#    0.000    0.000    0.000    0.000    0.000    0.000 
#
# Total GULP energy -200771.283270 kJ/mol
# GULP energy per Si atom -5576.980091 kJ/mol
# Density = 2.251415 g / cm^3
# Si number density = 22.565512 Si / 1000 Ang^3
#
#
#
# Elastic Constant Matrix: (Units=GPa)
#
#
# Indices 1 2 3 4 5 6 
#
# 1 104.8101 19.1057 16.9351 0.0000 0.0000 0.0000
# 2 19.1057 157.7427 -1.6394 0.0000 0.0000 0.0000
# 3 16.9351 -1.6394 27.0241 0.0000 0.0000 0.0000
# 4 0.0000 0.0000 0.0000 25.8713 0.0000 0.0000
# 5 0.0000 0.0000 0.0000 0.0000 15.1081 0.0000
# 6 0.0000 0.0000 0.0000 0.0000 0.0000 37.3107
#
#
#
# Elastic Compliance Matrix: (Units=1/GPa)
#
#
# Indices 1 2 3 4 5 6 
#
# 1 0.010914 -0.001394 -0.006924 0.000000 0.000000 0.000000
# 2 -0.001394 0.006521 0.001269 0.000000 0.000000 0.000000
# 3 -0.006924 0.001269 0.041420 0.000000 0.000000 0.000000
# 4 0.000000 0.000000 0.000000 0.038653 0.000000 0.000000
# 5 0.000000 0.000000 0.000000 0.000000 0.066190 0.000000
# 6 0.000000 0.000000 0.000000 0.000000 0.000000 0.026802
#
#
# Mechanical properties :
#
#
# Convention : Reuss Voigt Hill
#
# Bulk Modulus (GPa) = 22.34241 39.81998 31.08119
# Shear Modulus (GPa) = 22.77732 32.66971 27.72351
#
# Velocity S-wave (km/s) = 3.18053 3.80909 3.50891
# Velocity P-wave (km/s) = 4.83842 6.08525 5.49730
#
# Compressibility (1/GPa) = 0.04475794
#
# Stress axis : x y z
#
# Youngs Moduli (GPa) = 91.62623 153.34013 24.14294
#
# Poissons Ratio (x) = 0.21373 0.16716
# Poissons Ratio (y) = 0.12771 -0.03064
# Poissons Ratio (z) = 0.63441 -0.19460
#
# Static dielectric constant tensor:
#      x y z
#    x 1.959100 0.000000 0.000000 
#    y 0.000000 1.812420 0.000000 
#    z 0.000000 0.000000 1.881660 
# 
# From -- ./inp_files/47147.got.cif
#   From: 2010.05.17/outbox.cif.g08.bks.cpg/sg68_24_cif.got.tgz:47147.got - 2010.06.03 18:57:09.
