data_PCOD9507207
_publ_section_title
;
Structure prediction by ZEFSAII (Michael W. Deem and Ramdas Pophale) SiO2 
 PCOD9507207
Probable space group: C C C A
;
_chemical_formula_sum "Si O2"
_cell_formula_units_Z 96
_cell_length_a 13.414408
_cell_length_b 15.930773
_cell_length_c 18.466058
_cell_angle_alpha 90.000000
_cell_angle_beta 90.000000
_cell_angle_gamma 90.000000
_cell_volume 3946.231473
_symmetry_space_group_name_H-M "C C C A"
_symmetry_group_IT_number 68
_space_group.IT_coordinate_system_code '2'
_symmetry_cell_setting 'orthorhombic'
loop_
_space_group_symop_operation_xyz
x,y,z
-x,1/2-y,z
x,1/2-y,1/2-z
-x,y,1/2-z
-x,-y,-z
x,1/2+y,-z
-x,1/2+y,1/2+z
x,-y,1/2+z
1/2+x,1/2+y,z
1/2-x,-y,z
1/2+x,-y,1/2-z
1/2-x,1/2+y,1/2-z
1/2-x,1/2-y,-z
1/2+x,y,-z
1/2-x,y,1/2+z
1/2+x,1/2-y,1/2+z
loop_
_atom_site_type_symbol
_atom_site_label
_atom_site_fract_x
_atom_site_fract_y
_atom_site_fract_z
Si Si1 0.031715 0.530591 0.079399
Si Si2 0.414322 0.128132 0.200070
Si Si3 0.140514 0.372027 0.125578
Si Si4 0.694030 0.814686 0.350260
Si Si5 0.219929 0.594107 0.000741
Si Si6 0.661961 0.959378 0.260949
O O1 0.052560 0.441279 0.119395
O O2 0.957550 0.590255 0.124320
O O3 0.131599 0.582415 0.059529
O O4 0.000000 0.500000 0.000000
O O5 0.500000 0.169276 0.250000
O O6 0.309235 0.177076 0.182067
O O7 0.397753 0.043470 0.247896
O O8 0.143285 0.276235 0.151035
O O9 0.203232 0.420523 0.187073
O O10 0.188697 0.370132 0.046649
O O11 0.696048 0.849255 0.432137
O O12 0.626933 0.878778 0.303665
O O13 0.250000 0.500000 0.977751
O O14 0.750000 0.000000 0.308969
#
# Coordination Sequence:
#
# PCOD9507207 Si02
#       6
#    16  16  16  16  16  16
#     4  11  22  40  67  93 128 171 232 282 341 412
#     4  11  22  40  68  99 130 177 228 291 343 414
#     4  11  22  39  63  94 126 175 226 281 336 417
#     4  11  23  40  65  95 135 175 230 283 349 412
#     4  10  21  39  64  90 123 178 233 266 333 433
#     4  10  20  39  66  88 127 179 231 262 334 440
#
# _framework density 24.327006000000001
#
# number of rings (size 3 to 8) (size 9 to 14) (size 15 to 20)
#    0.000    1.333    1.667    7.000    2.333    0.000 
#    0.000    5.833    3.667    0.000    0.000    0.000 
#    0.000    0.000    0.000    0.000    0.000    0.000 
#
# Total GULP energy -267278.188977 kJ/mol
# GULP energy per Si atom -5568.295604 kJ/mol
# Density = 2.427164 g / cm^3
# Si number density = 24.327006 Si / 1000 Ang^3
#
#
#
# Elastic Constant Matrix: (Units=GPa)
#
#
# Indices 1 2 3 4 5 6 
#
# 1 74.3099 15.7639 6.9030 0.0000 0.0000 0.0000
# 2 15.7639 172.8084 31.6224 0.0000 0.0000 0.0000
# 3 6.9030 31.6224 105.7254 0.0000 0.0000 0.0000
# 4 0.0000 0.0000 0.0000 17.2900 0.0000 0.0000
# 5 0.0000 0.0000 0.0000 0.0000 43.0110 0.0000
# 6 0.0000 0.0000 0.0000 0.0000 0.0000 7.4777
#
#
#
# Elastic Compliance Matrix: (Units=1/GPa)
#
#
# Indices 1 2 3 4 5 6 
#
# 1 0.013753 -0.001153 -0.000553 0.000000 0.000000 0.000000
# 2 -0.001153 0.006219 -0.001785 0.000000 0.000000 0.000000
# 3 -0.000553 -0.001785 0.010028 0.000000 0.000000 0.000000
# 4 0.000000 0.000000 0.000000 0.057837 0.000000 0.000000
# 5 0.000000 0.000000 0.000000 0.000000 0.023250 0.000000
# 6 0.000000 0.000000 0.000000 0.000000 0.000000 0.133731
#
#
# Mechanical properties :
#
#
# Convention : Reuss Voigt Hill
#
# Bulk Modulus (GPa) = 43.44420 51.26913 47.35667
# Shear Modulus (GPa) = 19.26987 33.45938 26.36463
#
# Velocity S-wave (km/s) = 2.81751 3.71266 3.29562
# Velocity P-wave (km/s) = 5.33683 6.28484 5.83013
#
# Compressibility (1/GPa) = 0.02301803
#
# Stress axis : x y z
#
# Youngs Moduli (GPa) = 72.71030 160.80929 99.71719
#
# Poissons Ratio (x) = 0.18548 0.05514
# Poissons Ratio (y) = 0.08386 0.17796
# Poissons Ratio (z) = 0.04021 0.28699
#
# Static dielectric constant tensor:
#      x y z
#    x 2.205810 0.000000 0.000000 
#    y 0.000000 1.981990 0.000000 
#    z 0.000000 0.000000 2.058930 
# 
# From -- ./inp_files/38558.got.cif
#   From: 2010.05.17/outbox.cif.g08.bks.cpg/sg68_20_cif.got.tgz:38558.got - 2010.06.03 18:57:09.
