data_PCOD9507689
_publ_section_title
;
Structure prediction by ZEFSAII (Michael W. Deem and Ramdas Pophale) SiO2 
 PCOD9507689
Probable space group: C C C A
;
_chemical_formula_sum "Si O2"
_cell_formula_units_Z 112
_cell_length_a 20.100170
_cell_length_b 27.374775
_cell_length_c 10.283433
_cell_angle_alpha 90.000000
_cell_angle_beta 90.000000
_cell_angle_gamma 90.000000
_cell_volume 5658.331815
_symmetry_space_group_name_H-M "C C C A"
_symmetry_group_IT_number 68
_space_group.IT_coordinate_system_code '2'
_symmetry_cell_setting 'orthorhombic'
loop_
_space_group_symop_operation_xyz
x,y,z
-x,1/2-y,z
x,1/2-y,1/2-z
-x,y,1/2-z
-x,-y,-z
x,1/2+y,-z
-x,1/2+y,1/2+z
x,-y,1/2+z
1/2+x,1/2+y,z
1/2-x,-y,z
1/2+x,-y,1/2-z
1/2-x,1/2+y,1/2-z
1/2-x,1/2-y,-z
1/2+x,y,-z
1/2-x,y,1/2+z
1/2+x,1/2-y,1/2+z
loop_
_atom_site_type_symbol
_atom_site_label
_atom_site_fract_x
_atom_site_fract_y
_atom_site_fract_z
Si Si1 0.878440 0.367394 0.719210
Si Si2 0.569911 0.773605 0.891469
Si Si3 0.852306 0.485973 0.058299
Si Si4 0.927438 0.471328 0.798917
Si Si5 0.673383 0.255031 0.612185
Si Si6 0.728985 0.417939 0.034805
Si Si7 0.281872 0.173545 0.422640
O O1 0.924817 0.331667 0.634401
O O2 0.917493 0.414018 0.770412
O O3 0.815450 0.389168 0.640110
O O4 0.845859 0.336480 0.835583
O O5 0.500000 0.750000 0.935394
O O6 0.581676 0.750000 0.750000
O O7 0.627047 0.761916 0.994389
O O8 0.877659 0.500220 0.201370
O O9 0.801600 0.440378 0.067805
O O10 0.812779 0.533496 0.004676
O O11 0.909239 0.478185 0.950096
O O12 0.000000 0.486200 0.750000
O O13 0.637917 0.250000 0.750000
O O14 0.697700 0.308607 0.567811
O O15 0.735956 0.218155 0.624078
O O16 0.741763 0.376986 0.926691
#
# Coordination Sequence:
#
# PCOD9507689 Si02
#       7
#    16  16  16  16  16  16  16
#     4  11  22  39  65  98 118 169 216 263 316 376
#     4  11  24  42  64  87 127 171 218 260 297 383
#     4  10  23  40  62  95 122 165 205 268 323 370
#     4  11  24  41  64  87 129 169 216 253 311 390
#     4  11  24  38  62  95 129 165 203 265 335 376
#     4  10  21  37  64  93 128 152 209 269 326 374
#     4  11  21  37  62  92 129 159 204 264 325 389
#
# _framework density 19.793818999999999
#
# number of rings (size 3 to 8) (size 9 to 14) (size 15 to 20)
#    0.000    1.286    4.286    1.286    6.000    1.429 
#    0.000    0.000    0.000    0.000    0.000    0.000 
#    0.000    0.000    0.000    0.000    0.000    0.000 
#
# Total GULP energy -312260.168082 kJ/mol
# GULP energy per Si atom -5576.074430 kJ/mol
# Density = 1.974877 g / cm^3
# Si number density = 19.793819 Si / 1000 Ang^3
#
#
#
# Elastic Constant Matrix: (Units=GPa)
#
#
# Indices 1 2 3 4 5 6 
#
# 1 54.8275 18.3345 15.2241 0.0000 0.0000 0.0000
# 2 18.3345 89.9628 3.7464 0.0000 0.0000 0.0000
# 3 15.2241 3.7464 50.1294 0.0000 0.0000 0.0000
# 4 0.0000 0.0000 0.0000 10.8896 0.0000 0.0000
# 5 0.0000 0.0000 0.0000 0.0000 16.8496 0.0000
# 6 0.0000 0.0000 0.0000 0.0000 0.0000 22.2528
#
#
#
# Elastic Compliance Matrix: (Units=1/GPa)
#
#
# Indices 1 2 3 4 5 6 
#
# 1 0.021319 -0.004088 -0.006169 0.000000 0.000000 0.000000
# 2 -0.004088 0.011934 0.000350 0.000000 0.000000 0.000000
# 3 -0.006169 0.000350 0.021796 0.000000 0.000000 0.000000
# 4 0.000000 0.000000 0.000000 0.091831 0.000000 0.000000
# 5 0.000000 0.000000 0.000000 0.000000 0.059349 0.000000
# 6 0.000000 0.000000 0.000000 0.000000 0.000000 0.044938
#
#
# Mechanical properties :
#
#
# Convention : Reuss Voigt Hill
#
# Bulk Modulus (GPa) = 28.38137 29.94773 29.16455
# Shear Modulus (GPa) = 17.68495 20.50603 19.09549
#
# Velocity S-wave (km/s) = 2.99232 3.22216 3.10936
# Velocity P-wave (km/s) = 5.12916 5.38570 5.25899
#
# Compressibility (1/GPa) = 0.03523438
#
# Stress axis : x y z
#
# Youngs Moduli (GPa) = 46.90651 83.79226 45.88048
#
# Poissons Ratio (x) = 0.34254 0.28304
# Poissons Ratio (y) = 0.19175 -0.01604
# Poissons Ratio (z) = 0.28937 -0.02929
#
# Static dielectric constant tensor:
#      x y z
#    x 1.732690 0.000000 0.000000 
#    y 0.000000 1.693280 0.000000 
#    z 0.000000 0.000000 1.726110 
# 
# From -- ./inp_files/15759.got.cif
#   From: 2010.05.17/outbox.cif.g08.bks.cpg/sg68_8_cif.got.tgz:15759.got - 2010.06.03 18:57:09.
