data_PCOD9507039
_publ_section_title
;
Structure prediction by ZEFSAII (Michael W. Deem and Ramdas Pophale) SiO2 
 PCOD9507039
Probable space group: C C C A
;
_chemical_formula_sum "Si O2"
_cell_formula_units_Z 96
_cell_length_a 13.752006
_cell_length_b 19.439645
_cell_length_c 15.378345
_cell_angle_alpha 90.000000
_cell_angle_beta 90.000000
_cell_angle_gamma 90.000000
_cell_volume 4111.156246
_symmetry_space_group_name_H-M "C C C A"
_symmetry_group_IT_number 68
_space_group.IT_coordinate_system_code '2'
_symmetry_cell_setting 'orthorhombic'
loop_
_space_group_symop_operation_xyz
x,y,z
-x,1/2-y,z
x,1/2-y,1/2-z
-x,y,1/2-z
-x,-y,-z
x,1/2+y,-z
-x,1/2+y,1/2+z
x,-y,1/2+z
1/2+x,1/2+y,z
1/2-x,-y,z
1/2+x,-y,1/2-z
1/2-x,1/2+y,1/2-z
1/2-x,1/2-y,-z
1/2+x,y,-z
1/2-x,y,1/2+z
1/2+x,1/2-y,1/2+z
loop_
_atom_site_type_symbol
_atom_site_label
_atom_site_fract_x
_atom_site_fract_y
_atom_site_fract_z
Si Si1 0.843416 0.750000 0.750000
Si Si2 0.800310 0.843639 0.345651
Si Si3 0.608029 0.895932 0.416065
Si Si4 0.861923 0.981833 0.537342
Si Si5 0.500000 0.140252 0.750000
Si Si6 0.024299 0.645718 0.456270
Si Si7 0.592331 0.931034 0.694869
O O1 0.770151 0.717763 0.681575
O O2 0.914770 0.690818 0.785280
O O3 0.722431 0.887675 0.400693
O O4 0.892877 0.816387 0.399792
O O5 0.837431 0.889520 0.262348
O O6 0.554336 0.900209 0.324784
O O7 0.553673 0.834458 0.469319
O O8 0.588419 0.963643 0.471859
O O9 0.905329 0.909137 0.507681
O O10 0.750000 0.000000 0.522702
O O11 0.873145 0.003765 0.638414
O O12 0.952432 0.618479 0.379771
O O13 0.500000 0.952721 0.750000
#
# Coordination Sequence:
#
# PCOD9507039 Si02
#       7
#     8  16  16  16   8  16  16
#     4   9  20  40  69  90 120 160 211 280 317 360
#     4  10  20  41  66  90 123 162 217 266 312 380
#     4  10  20  38  61  88 130 163 200 263 313 373
#     4  11  21  39  57  89 132 169 209 252 318 379
#     4   9  20  40  64  92 124 162 216 263 324 382
#     4  10  21  41  60  88 135 167 205 257 317 383
#     4   9  20  38  57  85 123 168 210 261 304 373
#
# _framework density 23.351095000000001
#
# number of rings (size 3 to 8) (size 9 to 14) (size 15 to 20)
#    0.000    2.167    1.667    2.000    0.000    2.667 
#   21.000    4.583   22.000    0.000    0.000    0.000 
#    0.000    0.000    0.000    0.000    0.000    0.000 
#
# Total GULP energy -267252.026349 kJ/mol
# GULP energy per Si atom -5567.750549 kJ/mol
# Density = 2.329795 g / cm^3
# Si number density = 23.351095 Si / 1000 Ang^3
#
#
#
# Elastic Constant Matrix: (Units=GPa)
#
#
# Indices 1 2 3 4 5 6 
#
# 1 148.8874 10.0539 48.8918 0.0000 0.0000 0.0000
# 2 10.0539 21.0832 17.0830 0.0000 0.0000 0.0000
# 3 48.8918 17.0830 116.8952 0.0000 0.0000 0.0000
# 4 0.0000 0.0000 0.0000 6.6373 0.0000 0.0000
# 5 0.0000 0.0000 0.0000 0.0000 56.3904 0.0000
# 6 0.0000 0.0000 0.0000 0.0000 0.0000 17.8383
#
#
#
# Elastic Compliance Matrix: (Units=1/GPa)
#
#
# Indices 1 2 3 4 5 6 
#
# 1 0.007814 -0.001223 -0.003089 0.000000 0.000000 0.000000
# 2 -0.001223 0.053993 -0.007379 0.000000 0.000000 0.000000
# 3 -0.003089 -0.007379 0.010925 0.000000 0.000000 0.000000
# 4 0.000000 0.000000 0.000000 0.150664 0.000000 0.000000
# 5 0.000000 0.000000 0.000000 0.000000 0.017734 0.000000
# 6 0.000000 0.000000 0.000000 0.000000 0.000000 0.056059
#
#
# Mechanical properties :
#
#
# Convention : Reuss Voigt Hill
#
# Bulk Modulus (GPa) = 20.26366 48.76927 34.51647
# Shear Modulus (GPa) = 14.83585 30.22898 22.53242
#
# Velocity S-wave (km/s) = 2.52333 3.60188 3.10972
# Velocity P-wave (km/s) = 4.14563 6.18293 5.26378
#
# Compressibility (1/GPa) = 0.04934943
#
# Stress axis : x y z
#
# Youngs Moduli (GPa) = 127.98299 18.52082 91.53171
#
# Poissons Ratio (x) = 0.02265 0.28277
# Poissons Ratio (y) = 0.15650 0.67542
# Poissons Ratio (z) = 0.39538 0.13667
#
# Static dielectric constant tensor:
#      x y z
#    x 1.904450 0.000000 0.000000 
#    y 0.000000 2.058520 0.000000 
#    z 0.000000 0.000000 2.023950 
# 
# From -- ./inp_files/22703.got.cif
#   From: 2010.05.17/outbox.cif.g08.bks.cpg/sg68_12_cif.got.tgz:22703.got - 2010.06.03 18:57:09.
