data_PCOD9507799
_publ_section_title
;
Structure prediction by ZEFSAII (Michael W. Deem and Ramdas Pophale) SiO2 
 PCOD9507799
Probable space group: C C C A
;
_chemical_formula_sum "Si O2"
_cell_formula_units_Z 52
_cell_length_a 30.694728
_cell_length_b 4.898675
_cell_length_c 16.521455
_cell_angle_alpha 90.000000
_cell_angle_beta 90.000000
_cell_angle_gamma 90.000000
_cell_volume 2484.223744
_symmetry_space_group_name_H-M "C C C A"
_symmetry_group_IT_number 68
_space_group.IT_coordinate_system_code '2'
_symmetry_cell_setting 'orthorhombic'
loop_
_space_group_symop_operation_xyz
x,y,z
-x,1/2-y,z
x,1/2-y,1/2-z
-x,y,1/2-z
-x,-y,-z
x,1/2+y,-z
-x,1/2+y,1/2+z
x,-y,1/2+z
1/2+x,1/2+y,z
1/2-x,-y,z
1/2+x,-y,1/2-z
1/2-x,1/2+y,1/2-z
1/2-x,1/2-y,-z
1/2+x,y,-z
1/2-x,y,1/2+z
1/2+x,1/2-y,1/2+z
loop_
_atom_site_type_symbol
_atom_site_label
_atom_site_fract_x
_atom_site_fract_y
_atom_site_fract_z
Si Si1 0.000000 0.750000 0.646920
Si Si2 0.080442 0.987884 0.444760
Si Si3 0.845280 0.999478 0.688368
Si Si4 0.000000 0.250000 0.750000
Si Si5 0.750000 0.500000 0.811215
O O1 0.964272 0.913409 0.596544
O O2 0.977177 0.489871 0.695356
O O3 0.083363 0.180509 0.523382
O O4 0.118219 0.026351 0.379320
O O5 0.846508 0.750000 0.750000
O O6 0.797091 0.012564 0.646979
O O7 0.851667 0.250000 0.750000
O O8 0.750922 0.750000 0.750000
#
# Coordination Sequence:
#
# PCOD9507799 Si02
#       5
#     8  16  16   4   8
#     4  11  24  41  64  85 127 158 210 250 315 357
#     4  12  25  41  60  89 127 166 202 247 313 370
#     4  10  21  38  64  90 120 158 208 256 302 362
#     4  10  24  40  64  96 108 150 218 270 292 340
#     4   8  16  34  58  88 118 154 196 252 310 358
#
# _framework density 20.932091
#
# number of rings (size 3 to 8) (size 9 to 14) (size 15 to 20)
#    0.000    1.538    0.000    4.615    6.462    0.000 
#    0.000    1.538    0.000    0.000    0.000    0.000 
#    0.000    0.000    0.000    0.000    0.000    0.000 
#
# Total GULP energy -144791.722792 kJ/mol
# GULP energy per Si atom -5568.912415 kJ/mol
# Density = 2.088445 g / cm^3
# Si number density = 20.932091 Si / 1000 Ang^3
#
#
#
# Elastic Constant Matrix: (Units=GPa)
#
#
# Indices 1 2 3 4 5 6 
#
# 1 136.9128 -10.7606 38.0318 0.0000 0.0000 0.0000
# 2 -10.7606 137.6717 5.8009 0.0000 0.0000 0.0000
# 3 38.0318 5.8009 54.2912 0.0000 0.0000 0.0000
# 4 0.0000 0.0000 0.0000 77.5373 0.0000 0.0000
# 5 0.0000 0.0000 0.0000 0.0000 82.4114 0.0000
# 6 0.0000 0.0000 0.0000 0.0000 0.0000 29.0721
#
#
#
# Elastic Compliance Matrix: (Units=1/GPa)
#
#
# Indices 1 2 3 4 5 6 
#
# 1 0.009202 0.000995 -0.006553 0.000000 0.000000 0.000000
# 2 0.000995 0.007404 -0.001488 0.000000 0.000000 0.000000
# 3 -0.006553 -0.001488 0.023169 0.000000 0.000000 0.000000
# 4 0.000000 0.000000 0.000000 0.012897 0.000000 0.000000
# 5 0.000000 0.000000 0.000000 0.000000 0.012134 0.000000
# 6 0.000000 0.000000 0.000000 0.000000 0.000000 0.034397
#
#
# Mechanical properties :
#
#
# Convention : Reuss Voigt Hill
#
# Bulk Modulus (GPa) = 38.93547 43.89109 41.41328
# Shear Modulus (GPa) = 41.03195 57.52441 49.27818
#
# Velocity S-wave (km/s) = 4.43226 5.24796 4.85727
# Velocity P-wave (km/s) = 6.69586 7.59838 7.16135
#
# Compressibility (1/GPa) = 0.02568352
#
# Stress axis : x y z
#
# Youngs Moduli (GPa) = 108.66750 135.05900 43.16202
#
# Poissons Ratio (x) = -0.13443 0.28283
# Poissons Ratio (y) = -0.10817 0.06424
# Poissons Ratio (z) = 0.71207 0.20102
#
# Static dielectric constant tensor:
#      x y z
#    x 1.843370 0.000000 0.000000 
#    y 0.000000 1.720760 0.000000 
#    z 0.000000 0.000000 1.808690 
# 
# From -- ./inp_files/18377.got.cif
#   From: 2010.05.17/outbox.cif.g08.bks.cpg/sg68_10_cif.got.tgz:18377.got - 2010.06.03 18:57:09.
