data_PCOD9507088
_publ_section_title
;
Structure prediction by ZEFSAII (Michael W. Deem and Ramdas Pophale) SiO2 
 PCOD9507088
Probable space group: C C C A
;
_chemical_formula_sum "Si O2"
_cell_formula_units_Z 108
_cell_length_a 15.590794
_cell_length_b 22.074507
_cell_length_c 13.370830
_cell_angle_alpha 90.000000
_cell_angle_beta 90.000000
_cell_angle_gamma 90.000000
_cell_volume 4601.692703
_symmetry_space_group_name_H-M "C C C A"
_symmetry_group_IT_number 68
_space_group.IT_coordinate_system_code '2'
_symmetry_cell_setting 'orthorhombic'
loop_
_space_group_symop_operation_xyz
x,y,z
-x,1/2-y,z
x,1/2-y,1/2-z
-x,y,1/2-z
-x,-y,-z
x,1/2+y,-z
-x,1/2+y,1/2+z
x,-y,1/2+z
1/2+x,1/2+y,z
1/2-x,-y,z
1/2+x,-y,1/2-z
1/2-x,1/2+y,1/2-z
1/2-x,1/2-y,-z
1/2+x,y,-z
1/2-x,y,1/2+z
1/2+x,1/2-y,1/2+z
loop_
_atom_site_type_symbol
_atom_site_label
_atom_site_fract_x
_atom_site_fract_y
_atom_site_fract_z
Si Si1 0.000000 0.250000 0.750000
Si Si2 0.391409 0.330754 0.399034
Si Si3 0.750000 0.500000 0.502703
Si Si4 0.344306 0.772667 0.027170
Si Si5 0.204169 0.352786 0.309485
Si Si6 0.973542 0.435452 0.889264
Si Si7 0.905347 0.963519 0.890158
Si Si8 0.691777 0.117692 0.119873
O O1 0.934511 0.289929 0.686314
O O2 0.398298 0.286038 0.495344
O O3 0.293660 0.349892 0.373417
O O4 0.452029 0.387672 0.401826
O O5 0.829673 0.491619 0.576151
O O6 0.736161 0.439257 0.436964
O O7 0.349178 0.830866 0.952447
O O8 0.250000 0.750000 0.000000
O O9 0.347122 0.796878 0.140226
O O10 0.142986 0.410978 0.328919
O O11 0.240307 0.353565 0.196844
O O12 0.891977 0.411740 0.826590
O O13 0.013760 0.498387 0.853478
O O14 0.936879 0.441261 0.001317
#
# Coordination Sequence:
#
# PCOD9507088 Si02
#       8
#     4  16   8  16  16  16  16  16
#     4  12  24  36  60 104 148 174 230 288 350 384
#     4  11  22  36  62  93 133 181 217 282 334 400
#     4  10  20  38  64  90 132 176 222 268 334 404
#     4  10  22  40  62  96 131 179 225 271 328 390
#     4  11  22  41  66  94 136 177 225 277 334 406
#     4  10  21  38  66  98 134 170 218 281 345 405
#     4  10  21  39  66  98 129 173 219 274 344 412
#     4  11  23  41  63 101 133 169 227 278 332 405
#
# _framework density 23.469625000000001
#
# number of rings (size 3 to 8) (size 9 to 14) (size 15 to 20)
#    0.000    1.481    2.963    3.556    2.074    3.556 
#    0.000    1.481    0.000    2.667    0.000    2.074 
#    0.000    0.000    0.000    0.000    0.000    0.000 
#
# Total GULP energy -301238.655458 kJ/mol
# GULP energy per Si atom -5578.493620 kJ/mol
# Density = 2.341621 g / cm^3
# Si number density = 23.469625 Si / 1000 Ang^3
#
#
#
# Elastic Constant Matrix: (Units=GPa)
#
#
# Indices 1 2 3 4 5 6 
#
# 1 43.3430 -1.3457 -7.8003 0.0000 0.0000 0.0000
# 2 -1.3457 70.2941 2.7683 0.0000 0.0000 0.0000
# 3 -7.8003 2.7683 63.9319 0.0000 0.0000 0.0000
# 4 0.0000 0.0000 0.0000 6.8515 0.0000 0.0000
# 5 0.0000 0.0000 0.0000 0.0000 32.0989 0.0000
# 6 0.0000 0.0000 0.0000 0.0000 0.0000 36.2146
#
#
#
# Elastic Compliance Matrix: (Units=1/GPa)
#
#
# Indices 1 2 3 4 5 6 
#
# 1 0.023598 0.000339 0.002864 0.000000 0.000000 0.000000
# 2 0.000339 0.014255 -0.000576 0.000000 0.000000 0.000000
# 3 0.002864 -0.000576 0.016016 0.000000 0.000000 0.000000
# 4 0.000000 0.000000 0.000000 0.145954 0.000000 0.000000
# 5 0.000000 0.000000 0.000000 0.000000 0.031154 0.000000
# 6 0.000000 0.000000 0.000000 0.000000 0.000000 0.027613
#
#
# Mechanical properties :
#
#
# Convention : Reuss Voigt Hill
#
# Bulk Modulus (GPa) = 16.91359 18.31261 17.61310
# Shear Modulus (GPa) = 18.31216 27.29610 22.80413
#
# Velocity S-wave (km/s) = 2.79632 3.41404 3.12050
# Velocity P-wave (km/s) = 4.20097 4.83327 4.52817
#
# Compressibility (1/GPa) = 0.05912406
#
# Stress axis : x y z
#
# Youngs Moduli (GPa) = 42.37684 70.15023 62.43726
#
# Poissons Ratio (x) = -0.02378 -0.17885
# Poissons Ratio (y) = -0.01436 0.03596
# Poissons Ratio (z) = -0.12139 0.04040
#
# Static dielectric constant tensor:
#      x y z
#    x 1.995220 0.000000 0.000000 
#    y 0.000000 1.994930 0.000000 
#    z 0.000000 0.000000 1.968350 
# 
# From -- ./inp_files/22663.got.cif
#   From: 2010.05.17/outbox.cif.g08.bks.cpg/sg68_12_cif.got.tgz:22663.got - 2010.06.03 18:57:09.
