data_PCOD9507455
_publ_section_title
;
Structure prediction by ZEFSAII (Michael W. Deem and Ramdas Pophale) SiO2 
 PCOD9507455
Probable space group: C C C A
;
_chemical_formula_sum "Si O2"
_cell_formula_units_Z 68
_cell_length_a 8.535898
_cell_length_b 20.692566
_cell_length_c 15.269221
_cell_angle_alpha 90.000000
_cell_angle_beta 90.000000
_cell_angle_gamma 90.000000
_cell_volume 2696.996897
_symmetry_space_group_name_H-M "C C C A"
_symmetry_group_IT_number 68
_space_group.IT_coordinate_system_code '2'
_symmetry_cell_setting 'orthorhombic'
loop_
_space_group_symop_operation_xyz
x,y,z
-x,1/2-y,z
x,1/2-y,1/2-z
-x,y,1/2-z
-x,-y,-z
x,1/2+y,-z
-x,1/2+y,1/2+z
x,-y,1/2+z
1/2+x,1/2+y,z
1/2-x,-y,z
1/2+x,-y,1/2-z
1/2-x,1/2+y,1/2-z
1/2-x,1/2-y,-z
1/2+x,y,-z
1/2-x,y,1/2+z
1/2+x,1/2-y,1/2+z
loop_
_atom_site_type_symbol
_atom_site_label
_atom_site_fract_x
_atom_site_fract_y
_atom_site_fract_z
Si Si1 0.500000 0.983413 0.250000
Si Si2 0.721211 0.871236 0.479137
Si Si3 0.250000 0.000000 0.115422
Si Si4 0.497363 0.677486 0.880602
Si Si5 0.500000 0.750000 0.250000
Si Si6 0.691039 0.868252 0.167395
O O1 0.400333 0.019184 0.175120
O O2 0.625883 0.931925 0.212408
O O3 0.684445 0.942114 0.443911
O O4 0.587050 0.828154 0.524040
O O5 0.819002 0.840808 0.399760
O O6 0.830728 0.879648 0.564180
O O7 0.500000 0.750000 0.850283
O O8 0.621854 0.638683 0.822186
O O9 0.606852 0.801533 0.196027
#
# Coordination Sequence:
#
# PCOD9507455 Si02
#       6
#     8  16   8  16   4  16
#     4  11  26  47  68 106 145 200 235 324 378 424
#     4  10  24  43  71 106 136 194 246 297 348 447
#     4  12  28  46  74 100 152 188 258 302 370 438
#     4  10  22  41  70 107 139 179 240 294 354 427
#     4  10  20  48  70 104 156 186 224 316 374 432
#     4   9  24  41  72 102 144 189 242 287 379 427
#
# _framework density 25.213228000000001
#
# number of rings (size 3 to 8) (size 9 to 14) (size 15 to 20)
#    1.412    0.471    0.000    2.118    4.941    8.471 
#    0.000    2.941    0.000    0.000    0.000    0.000 
#    0.000    0.000    0.000    0.000    0.000    0.000 
#
# Total GULP energy -189674.581315 kJ/mol
# GULP energy per Si atom -5578.664156 kJ/mol
# Density = 2.515584 g / cm^3
# Si number density = 25.213228 Si / 1000 Ang^3
#
#
#
# Elastic Constant Matrix: (Units=GPa)
#
#
# Indices 1 2 3 4 5 6 
#
# 1 85.1373 14.1107 23.3758 0.0000 0.0000 0.0000
# 2 14.1107 62.5544 31.6738 0.0000 0.0000 0.0000
# 3 23.3758 31.6738 89.9264 0.0000 0.0000 0.0000
# 4 0.0000 0.0000 0.0000 19.9182 0.0000 0.0000
# 5 0.0000 0.0000 0.0000 0.0000 33.2434 0.0000
# 6 0.0000 0.0000 0.0000 0.0000 0.0000 37.9979
#
#
#
# Elastic Compliance Matrix: (Units=1/GPa)
#
#
# Indices 1 2 3 4 5 6 
#
# 1 0.012757 -0.001459 -0.002802 0.000000 0.000000 0.000000
# 2 -0.001459 0.019623 -0.006532 0.000000 0.000000 0.000000
# 3 -0.002802 -0.006532 0.014149 0.000000 0.000000 0.000000
# 4 0.000000 0.000000 0.000000 0.050205 0.000000 0.000000
# 5 0.000000 0.000000 0.000000 0.000000 0.030081 0.000000
# 6 0.000000 0.000000 0.000000 0.000000 0.000000 0.026317
#
#
# Mechanical properties :
#
#
# Convention : Reuss Voigt Hill
#
# Bulk Modulus (GPa) = 40.09232 41.77096 40.93164
# Shear Modulus (GPa) = 27.31737 29.46240 28.38989
#
# Velocity S-wave (km/s) = 3.29516 3.42208 3.35922
# Velocity P-wave (km/s) = 5.51482 5.67603 5.59600
#
# Compressibility (1/GPa) = 0.02494243
#
# Stress axis : x y z
#
# Youngs Moduli (GPa) = 78.38882 50.96138 70.67412
#
# Poissons Ratio (x) = 0.07434 0.19805
# Poissons Ratio (y) = 0.11435 0.46166
# Poissons Ratio (z) = 0.21967 0.33290
#
# Static dielectric constant tensor:
#      x y z
#    x 1.997740 0.000000 0.000000 
#    y 0.000000 1.900820 0.000000 
#    z 0.000000 0.000000 2.063490 
# 
# From -- ./inp_files/28036.got.cif
#   From: 2010.05.17/outbox.cif.g08.bks.cpg/sg68_15_cif.got.tgz:28036.got - 2010.06.03 18:57:09.
