data_PCOD9507077
_publ_section_title
;
Structure prediction by ZEFSAII (Michael W. Deem and Ramdas Pophale) SiO2 
 PCOD9507077
Probable space group: C C C A
;
_chemical_formula_sum "Si O2"
_cell_formula_units_Z 112
_cell_length_a 26.290045
_cell_length_b 5.622908
_cell_length_c 30.220636
_cell_angle_alpha 90.000000
_cell_angle_beta 90.000000
_cell_angle_gamma 90.000000
_cell_volume 4467.410979
_symmetry_space_group_name_H-M "C C C A"
_symmetry_group_IT_number 68
_space_group.IT_coordinate_system_code '2'
_symmetry_cell_setting 'orthorhombic'
loop_
_space_group_symop_operation_xyz
x,y,z
-x,1/2-y,z
x,1/2-y,1/2-z
-x,y,1/2-z
-x,-y,-z
x,1/2+y,-z
-x,1/2+y,1/2+z
x,-y,1/2+z
1/2+x,1/2+y,z
1/2-x,-y,z
1/2+x,-y,1/2-z
1/2-x,1/2+y,1/2-z
1/2-x,1/2-y,-z
1/2+x,y,-z
1/2-x,y,1/2+z
1/2+x,1/2-y,1/2+z
loop_
_atom_site_type_symbol
_atom_site_label
_atom_site_fract_x
_atom_site_fract_y
_atom_site_fract_z
Si Si1 0.414034 0.769114 0.797928
Si Si2 0.044467 0.055348 0.378768
Si Si3 0.057799 0.609497 0.023799
Si Si4 0.303465 0.002231 0.306286
Si Si5 0.292374 0.803684 0.606887
Si Si6 0.180142 0.916192 0.478028
Si Si7 0.133764 0.127278 0.145564
O O1 0.438157 0.750000 0.750000
O O2 0.359048 0.904912 0.790187
O O3 0.399215 0.516487 0.818902
O O4 0.448533 0.897638 0.834705
O O5 0.098804 0.186885 0.379129
O O6 0.000000 0.250000 0.375000
O O7 0.040710 0.922465 0.425345
O O8 0.119237 0.596998 0.023145
O O9 0.044037 0.369502 0.996023
O O10 0.288903 0.184421 0.345331
O O11 0.250000 0.000000 0.279016
O O12 0.320120 0.752740 0.328365
O O13 0.298965 0.600897 0.571308
O O14 0.250000 0.000000 0.597541
O O15 0.345164 0.947063 0.609395
O O16 0.195996 0.665920 0.500664
#
# Coordination Sequence:
#
# PCOD9507077 Si02
#       7
#    16  16  16  16  16  16  16
#     4  10  24  46  70 105 147 193 242 311 384 452
#     4  11  26  46  73 108 143 194 253 313 381 459
#     4  10  23  43  73 108 149 195 246 316 395 461
#     4  10  20  38  64 100 132 182 237 292 363 444
#     4  11  22  36  62  90 129 187 240 296 370 444
#     4  10  23  37  58  90 137 189 245 305 376 450
#     4  10  22  42  69  93 144 179 237 306 366 450
#
# _framework density 25.070450000000001
#
# number of rings (size 3 to 8) (size 9 to 14) (size 15 to 20)
#    0.000    1.714    1.429    2.571   10.000    4.000 
#    2.571    2.143    0.000    0.000    0.000    0.000 
#    0.000    0.000    0.000    0.000    0.000    0.000 
#
# Total GULP energy -313435.132600 kJ/mol
# GULP energy per Si atom -5597.055939 kJ/mol
# Density = 2.501339 g / cm^3
# Si number density = 25.070450 Si / 1000 Ang^3
#
#
#
# Elastic Constant Matrix: (Units=GPa)
#
#
# Indices 1 2 3 4 5 6 
#
# 1 94.5498 65.8918 51.2502 0.0000 0.0000 0.0000
# 2 65.8918 144.3378 69.3891 0.0000 0.0000 0.0000
# 3 51.2502 69.3891 159.6838 0.0000 0.0000 0.0000
# 4 0.0000 0.0000 0.0000 -113.4847 0.0000 0.0000
# 5 0.0000 0.0000 0.0000 0.0000 -2.7929 0.0000
# 6 0.0000 0.0000 0.0000 0.0000 0.0000 47.4437
#
#
#
# Elastic Compliance Matrix: (Units=1/GPa)
#
#
# Indices 1 2 3 4 5 6 
#
# 1 0.016277 -0.006218 -0.002522 0.000000 0.000000 0.000000
# 2 -0.006218 0.011133 -0.002842 0.000000 0.000000 0.000000
# 3 -0.002522 -0.002842 0.008307 0.000000 0.000000 0.000000
# 4 0.000000 0.000000 0.000000 -0.008812 0.000000 0.000000
# 5 0.000000 0.000000 0.000000 0.000000 -0.358056 0.000000
# 6 0.000000 0.000000 0.000000 0.000000 0.000000 0.021078
#
#
# Mechanical properties :
#
#
# Convention : Reuss Voigt Hill
#
# Bulk Modulus (GPa) = 79.66625 85.73704 82.70164
# Shear Modulus (GPa) = -17.68505 0.36924 -8.65791
#
# Velocity S-wave (km/s) = -2.65884 0.38419 -1.86036
# Velocity P-wave (km/s) = 4.73498 5.87107 5.33336
#
# Compressibility (1/GPa) = 0.01255237
#
# Stress axis : x y z
#
# Youngs Moduli (GPa) = 61.43670 89.82171 120.38301
#
# Poissons Ratio (x) = 0.55853 0.30361
# Poissons Ratio (y) = 0.38202 0.34214
# Poissons Ratio (z) = 0.15494 0.25528
#
# Static dielectric constant tensor:
#      x y z
#    x 2.069950 0.000000 0.000000 
#    y 0.000000 0.246610 0.000000 
#    z 0.000000 0.000000 1.952920 
# 
# From -- ./inp_files/56296.got.cif
#   From: 2010.05.17/outbox.cif.g08.bks.cpg/sg68_29_cif.got.tgz:56296.got - 2010.06.03 18:57:09.
