data_PCOD9507234
_publ_section_title
;
Structure prediction by ZEFSAII (Michael W. Deem and Ramdas Pophale) SiO2 
 PCOD9507234
Probable space group: C C C A
;
_chemical_formula_sum "Si O2"
_cell_formula_units_Z 120
_cell_length_a 21.451972
_cell_length_b 10.642085
_cell_length_c 24.100713
_cell_angle_alpha 90.000000
_cell_angle_beta 90.000000
_cell_angle_gamma 90.000000
_cell_volume 5502.041171
_symmetry_space_group_name_H-M "C C C A"
_symmetry_group_IT_number 68
_space_group.IT_coordinate_system_code '2'
_symmetry_cell_setting 'orthorhombic'
loop_
_space_group_symop_operation_xyz
x,y,z
-x,1/2-y,z
x,1/2-y,1/2-z
-x,y,1/2-z
-x,-y,-z
x,1/2+y,-z
-x,1/2+y,1/2+z
x,-y,1/2+z
1/2+x,1/2+y,z
1/2-x,-y,z
1/2+x,-y,1/2-z
1/2-x,1/2+y,1/2-z
1/2-x,1/2-y,-z
1/2+x,y,-z
1/2-x,y,1/2+z
1/2+x,1/2-y,1/2+z
loop_
_atom_site_type_symbol
_atom_site_label
_atom_site_fract_x
_atom_site_fract_y
_atom_site_fract_z
Si Si1 0.999112 0.020202 0.883729
Si Si2 0.622848 0.969958 0.063036
Si Si3 0.095237 0.102408 0.042318
Si Si4 0.717346 0.758045 0.440281
Si Si5 0.422305 0.849059 0.700936
Si Si6 0.830812 0.304581 0.874260
Si Si7 0.197900 0.400552 0.740626
Si Si8 0.500000 0.250000 0.470671
O O1 0.980801 0.078321 0.824505
O O2 0.997309 0.132474 0.928916
O O3 0.944514 0.929129 0.903625
O O4 0.065961 0.956170 0.893579
O O5 0.676888 0.868647 0.068743
O O6 0.649579 0.108889 0.074948
O O7 0.596924 0.985748 0.000730
O O8 0.165360 0.134964 0.058153
O O9 0.057990 0.214355 0.010804
O O10 0.750000 0.750000 0.500000
O O11 0.770707 0.772176 0.393951
O O12 0.434902 0.750000 0.750000
O O13 0.387871 0.776587 0.649785
O O14 0.365984 0.929850 0.726974
O O15 0.813552 0.400622 0.825095
O O16 0.211699 0.250000 0.750000
O O17 0.250000 0.500000 0.756325
#
# Coordination Sequence:
#
# PCOD9507234 Si02
#       8
#    16  16  16  16  16  16  16   8
#     4  11  22  37  63  84 118 166 207 264 322 382
#     4  11  22  38  55  84 121 166 211 257 315 384
#     4  11  22  35  56  85 120 165 209 251 304 379
#     4  12  24  36  56  85 126 168 215 258 304 387
#     4   9  21  40  62  92 120 152 210 277 334 389
#     4  10  21  39  60  84 122 166 208 258 324 391
#     4   9  19  37  62  87 122 166 213 274 338 409
#     4  10  20  40  57  84 128 168 209 242 316 392
#
# _framework density 21.810088
#
# number of rings (size 3 to 8) (size 9 to 14) (size 15 to 20)
#    0.000    1.867    1.333    6.000    1.867    2.133 
#    0.000    8.333    0.000    0.000    0.000    0.000 
#    0.000   13.867    0.000    0.000    0.000    0.000 
#
# Total GULP energy -335135.065569 kJ/mol
# GULP energy per Si atom -5585.584426 kJ/mol
# Density = 2.176045 g / cm^3
# Si number density = 21.810088 Si / 1000 Ang^3
#
#
#
# Elastic Constant Matrix: (Units=GPa)
#
#
# Indices 1 2 3 4 5 6 
#
# 1 137.0085 28.4093 38.6520 0.0000 0.0000 0.0000
# 2 28.4093 39.3539 14.3951 0.0000 0.0000 0.0000
# 3 38.6520 14.3951 79.0182 0.0000 0.0000 0.0000
# 4 0.0000 0.0000 0.0000 20.1933 0.0000 0.0000
# 5 0.0000 0.0000 0.0000 0.0000 37.1815 0.0000
# 6 0.0000 0.0000 0.0000 0.0000 0.0000 36.0092
#
#
#
# Elastic Compliance Matrix: (Units=1/GPa)
#
#
# Indices 1 2 3 4 5 6 
#
# 1 0.009463 -0.005505 -0.003626 0.000000 0.000000 0.000000
# 2 -0.005505 0.030427 -0.002850 0.000000 0.000000 0.000000
# 3 -0.003626 -0.002850 0.014948 0.000000 0.000000 0.000000
# 4 0.000000 0.000000 0.000000 0.049521 0.000000 0.000000
# 5 0.000000 0.000000 0.000000 0.000000 0.026895 0.000000
# 6 0.000000 0.000000 0.000000 0.000000 0.000000 0.027771
#
#
# Mechanical properties :
#
#
# Convention : Reuss Voigt Hill
#
# Bulk Modulus (GPa) = 32.38783 46.47705 39.43244
# Shear Modulus (GPa) = 25.86914 30.27176 28.07045
#
# Velocity S-wave (km/s) = 3.44773 3.72959 3.59143
# Velocity P-wave (km/s) = 5.54358 6.31685 5.94281
#
# Compressibility (1/GPa) = 0.03087580
#
# Stress axis : x y z
#
# Youngs Moduli (GPa) = 105.67145 32.86547 66.89734
#
# Poissons Ratio (x) = 0.18093 0.24258
# Poissons Ratio (y) = 0.58173 0.19067
# Poissons Ratio (z) = 0.38318 0.09367
#
# Static dielectric constant tensor:
#      x y z
#    x 1.835000 0.000000 0.000000 
#    y 0.000000 1.823010 0.000000 
#    z 0.000000 0.000000 1.836700 
# 
# From -- ./inp_files/46725.got.cif
#   From: 2010.05.17/outbox.cif.g08.bks.cpg/sg68_24_cif.got.tgz:46725.got - 2010.06.03 18:57:09.
