data_PCOD9507334
_publ_section_title
;
Structure prediction by ZEFSAII (Michael W. Deem and Ramdas Pophale) SiO2 
 PCOD9507334
Probable space group: C C C A
;
_chemical_formula_sum "Si O2"
_cell_formula_units_Z 112
_cell_length_a 15.532564
_cell_length_b 10.954445
_cell_length_c 28.894509
_cell_angle_alpha 90.000000
_cell_angle_beta 90.000000
_cell_angle_gamma 90.000000
_cell_volume 4916.418565
_symmetry_space_group_name_H-M "C C C A"
_symmetry_group_IT_number 68
_space_group.IT_coordinate_system_code '2'
_symmetry_cell_setting 'orthorhombic'
loop_
_space_group_symop_operation_xyz
x,y,z
-x,1/2-y,z
x,1/2-y,1/2-z
-x,y,1/2-z
-x,-y,-z
x,1/2+y,-z
-x,1/2+y,1/2+z
x,-y,1/2+z
1/2+x,1/2+y,z
1/2-x,-y,z
1/2+x,-y,1/2-z
1/2-x,1/2+y,1/2-z
1/2-x,1/2-y,-z
1/2+x,y,-z
1/2-x,y,1/2+z
1/2+x,1/2-y,1/2+z
loop_
_atom_site_type_symbol
_atom_site_label
_atom_site_fract_x
_atom_site_fract_y
_atom_site_fract_z
Si Si1 0.632918 0.569844 0.658164
Si Si2 0.897665 0.395828 0.756716
Si Si3 0.582052 0.338714 0.020187
Si Si4 0.656851 0.551530 0.070511
Si Si5 0.179936 0.201252 0.905728
Si Si6 0.126083 0.831342 0.920125
Si Si7 0.933478 0.517296 0.354842
O O1 0.650842 0.552039 0.712022
O O2 0.663349 0.460851 0.625853
O O3 0.666879 0.692789 0.633166
O O4 0.529072 0.567639 0.653287
O O5 0.884486 0.250000 0.750000
O O6 0.881713 0.455311 0.806901
O O7 0.000000 0.415924 0.750000
O O8 0.500000 0.250000 0.021960
O O9 0.584535 0.459181 0.052106
O O10 0.657949 0.259321 0.044464
O O11 0.599743 0.388164 0.969014
O O12 0.750000 0.500000 0.052494
O O13 0.627238 0.688976 0.064361
O O14 0.275161 0.148884 0.905974
O O15 0.111858 0.099012 0.893443
O O16 0.070400 0.882025 0.877167
#
# Coordination Sequence:
#
# PCOD9507334 Si02
#       7
#    16  16  16  16  16  16  16
#     4  10  20  40  70  97 132 184 230 279 332 414
#     4   9  17  35  67 103 134 174 231 283 331 394
#     4  11  26  44  70 100 129 184 246 284 330 417
#     4  11  24  45  68  96 140 183 227 280 363 415
#     4  11  21  43  66  97 140 181 225 280 348 409
#     4  12  27  42  64 100 145 181 216 291 363 405
#     4  11  23  38  69 108 139 171 236 295 333 403
#
# _framework density 22.780811
#
# number of rings (size 3 to 8) (size 9 to 14) (size 15 to 20)
#    0.000    1.286    4.286    3.000    4.000    0.571 
#    0.000    2.143    3.143    2.571    0.000    0.000 
#    0.000    0.000    0.000    0.000    0.000    0.000 
#
# Total GULP energy -312458.740727 kJ/mol
# GULP energy per Si atom -5579.620370 kJ/mol
# Density = 2.272896 g / cm^3
# Si number density = 22.780811 Si / 1000 Ang^3
#
#
#
# Elastic Constant Matrix: (Units=GPa)
#
#
# Indices 1 2 3 4 5 6 
#
# 1 75.1564 10.2804 19.5232 0.0000 0.0000 0.0000
# 2 10.2804 74.5960 32.0567 0.0000 0.0000 0.0000
# 3 19.5232 32.0567 165.0158 0.0000 0.0000 0.0000
# 4 0.0000 0.0000 0.0000 19.9656 0.0000 0.0000
# 5 0.0000 0.0000 0.0000 0.0000 13.1089 0.0000
# 6 0.0000 0.0000 0.0000 0.0000 0.0000 20.4470
#
#
#
# Elastic Compliance Matrix: (Units=1/GPa)
#
#
# Indices 1 2 3 4 5 6 
#
# 1 0.013844 -0.001314 -0.001383 0.000000 0.000000 0.000000
# 2 -0.001314 0.014751 -0.002710 0.000000 0.000000 0.000000
# 3 -0.001383 -0.002710 0.006750 0.000000 0.000000 0.000000
# 4 0.000000 0.000000 0.000000 0.050086 0.000000 0.000000
# 5 0.000000 0.000000 0.000000 0.000000 0.076284 0.000000
# 6 0.000000 0.000000 0.000000 0.000000 0.000000 0.048907
#
#
# Mechanical properties :
#
#
# Convention : Reuss Voigt Hill
#
# Bulk Modulus (GPa) = 40.76230 48.72097 44.74164
# Shear Modulus (GPa) = 21.77569 27.56483 24.67026
#
# Velocity S-wave (km/s) = 3.09508 3.48228 3.29438
# Velocity P-wave (km/s) = 5.54119 6.13202 5.84408
#
# Compressibility (1/GPa) = 0.02453247
#
# Stress axis : x y z
#
# Youngs Moduli (GPa) = 72.23094 67.79068 148.14555
#
# Poissons Ratio (x) = 0.08906 0.20485
# Poissons Ratio (y) = 0.09489 0.40151
# Poissons Ratio (z) = 0.09988 0.18373
#
# Static dielectric constant tensor:
#      x y z
#    x 1.926550 0.000000 0.000000 
#    y 0.000000 1.986860 0.000000 
#    z 0.000000 0.000000 1.863290 
# 
# From -- ./inp_files/55274.got.cif
#   From: 2010.05.17/outbox.cif.g08.bks.cpg/sg68_28_cif.got.tgz:55274.got - 2010.06.03 18:57:09.
