data_PCOD9507195
_publ_section_title
;
Structure prediction by ZEFSAII (Michael W. Deem and Ramdas Pophale) SiO2 
 PCOD9507195
Probable space group: C C C A
;
_chemical_formula_sum "Si O2"
_cell_formula_units_Z 80
_cell_length_a 9.149039
_cell_length_b 17.190737
_cell_length_c 25.952597
_cell_angle_alpha 90.000000
_cell_angle_beta 90.000000
_cell_angle_gamma 90.000000
_cell_volume 4081.791321
_symmetry_space_group_name_H-M "C C C A"
_symmetry_group_IT_number 68
_space_group.IT_coordinate_system_code '2'
_symmetry_cell_setting 'orthorhombic'
loop_
_space_group_symop_operation_xyz
x,y,z
-x,1/2-y,z
x,1/2-y,1/2-z
-x,y,1/2-z
-x,-y,-z
x,1/2+y,-z
-x,1/2+y,1/2+z
x,-y,1/2+z
1/2+x,1/2+y,z
1/2-x,-y,z
1/2+x,-y,1/2-z
1/2-x,1/2+y,1/2-z
1/2-x,1/2-y,-z
1/2+x,y,-z
1/2-x,y,1/2+z
1/2+x,1/2-y,1/2+z
loop_
_atom_site_type_symbol
_atom_site_label
_atom_site_fract_x
_atom_site_fract_y
_atom_site_fract_z
Si Si1 0.413596 0.671002 0.963070
Si Si2 0.401016 0.328275 0.344348
Si Si3 0.811373 0.913551 0.157985
Si Si4 0.836476 0.841359 0.756512
Si Si5 0.291537 0.590634 0.543178
O O1 0.500000 0.750000 0.976663
O O2 0.358040 0.681024 0.904326
O O3 0.536129 0.603580 0.963496
O O4 0.291659 0.644931 0.002926
O O5 0.500000 0.250000 0.330968
O O6 0.514988 0.399815 0.341263
O O7 0.263763 0.347299 0.307771
O O8 0.752475 0.870728 0.207676
O O9 0.759200 0.883020 0.102064
O O10 0.750000 0.000000 0.160675
O O11 0.852694 0.750000 0.750000
O O12 0.000000 0.876502 0.750000
O O13 0.250000 0.500000 0.537460
#
# Coordination Sequence:
#
# PCOD9507195 Si02
#       5
#    16  16  16  16  16
#     4  10  21  37  61  93 119 158 210 251 299 364
#     4  10  20  39  65  86 119 166 208 249 313 377
#     4  10  22  39  60  88 121 161 208 252 306 372
#     4  11  23  38  59  91 119 154 208 260 311 372
#     4  10  21  39  59  86 125 163 200 249 308 365
#
# _framework density 19.599239000000001
#
# number of rings (size 3 to 8) (size 9 to 14) (size 15 to 20)
#    0.000    1.800    2.000    1.800    0.000    3.200 
#    3.600    1.000    0.000    0.000    0.000    0.000 
#    0.000    0.000    0.000    0.000    0.000    0.000 
#
# Total GULP energy -222934.312060 kJ/mol
# GULP energy per Si atom -5573.357801 kJ/mol
# Density = 1.955463 g / cm^3
# Si number density = 19.599239 Si / 1000 Ang^3
#
#
#
# Elastic Constant Matrix: (Units=GPa)
#
#
# Indices 1 2 3 4 5 6 
#
# 1 98.7729 26.8439 81.1091 0.0000 0.0000 0.0000
# 2 26.8439 51.3393 28.9707 0.0000 0.0000 0.0000
# 3 81.1091 28.9707 155.8118 0.0000 0.0000 0.0000
# 4 0.0000 0.0000 0.0000 29.2184 0.0000 0.0000
# 5 0.0000 0.0000 0.0000 0.0000 40.3174 0.0000
# 6 0.0000 0.0000 0.0000 0.0000 0.0000 23.5566
#
#
#
# Elastic Compliance Matrix: (Units=1/GPa)
#
#
# Indices 1 2 3 4 5 6 
#
# 1 0.018678 -0.004781 -0.008834 0.000000 0.000000 0.000000
# 2 -0.004781 0.022985 -0.001785 0.000000 0.000000 0.000000
# 3 -0.008834 -0.001785 0.011348 0.000000 0.000000 0.000000
# 4 0.000000 0.000000 0.000000 0.034225 0.000000 0.000000
# 5 0.000000 0.000000 0.000000 0.000000 0.024803 0.000000
# 6 0.000000 0.000000 0.000000 0.000000 0.000000 0.042451
#
#
# Mechanical properties :
#
#
# Convention : Reuss Voigt Hill
#
# Bulk Modulus (GPa) = 45.02128 64.41906 54.72017
# Shear Modulus (GPa) = 25.94783 29.88516 27.91650
#
# Velocity S-wave (km/s) = 3.64252 3.90912 3.77817
# Velocity P-wave (km/s) = 6.38055 7.30168 6.85660
#
# Compressibility (1/GPa) = 0.02221172
#
# Stress axis : x y z
#
# Youngs Moduli (GPa) = 53.53980 43.50589 88.11803
#
# Poissons Ratio (x) = 0.20801 0.77842
# Poissons Ratio (y) = 0.25598 0.15728
# Poissons Ratio (z) = 0.47296 0.07765
#
# Static dielectric constant tensor:
#      x y z
#    x 1.721730 0.000000 0.000000 
#    y 0.000000 1.706790 0.000000 
#    z 0.000000 0.000000 1.703060 
# 
# From -- ./inp_files/49106.got.cif
#   From: 2010.05.17/outbox.cif.g08.bks.cpg/sg68_25_cif.got.tgz:49106.got - 2010.06.03 18:57:09.
