data_PCOD9507045
_publ_section_title
;
Structure prediction by ZEFSAII (Michael W. Deem and Ramdas Pophale) SiO2 
 PCOD9507045
Probable space group: C C C A
;
_chemical_formula_sum "Si O2"
_cell_formula_units_Z 112
_cell_length_a 23.864756
_cell_length_b 16.371227
_cell_length_c 14.295165
_cell_angle_alpha 90.000000
_cell_angle_beta 90.000000
_cell_angle_gamma 90.000000
_cell_volume 5585.054318
_symmetry_space_group_name_H-M "C C C A"
_symmetry_group_IT_number 68
_space_group.IT_coordinate_system_code '2'
_symmetry_cell_setting 'orthorhombic'
loop_
_space_group_symop_operation_xyz
x,y,z
-x,1/2-y,z
x,1/2-y,1/2-z
-x,y,1/2-z
-x,-y,-z
x,1/2+y,-z
-x,1/2+y,1/2+z
x,-y,1/2+z
1/2+x,1/2+y,z
1/2-x,-y,z
1/2+x,-y,1/2-z
1/2-x,1/2+y,1/2-z
1/2-x,1/2-y,-z
1/2+x,y,-z
1/2-x,y,1/2+z
1/2+x,1/2-y,1/2+z
loop_
_atom_site_type_symbol
_atom_site_label
_atom_site_fract_x
_atom_site_fract_y
_atom_site_fract_z
Si Si1 0.840823 0.180927 0.186721
Si Si2 0.601713 0.041769 0.362146
Si Si3 0.946545 0.373002 0.186563
Si Si4 0.435069 0.272890 0.357078
Si Si5 0.809765 0.999364 0.204206
Si Si6 0.688978 0.961078 0.493552
Si Si7 0.877927 0.700924 0.532832
O O1 0.810712 0.250000 0.250000
O O2 0.895274 0.156697 0.248208
O O3 0.813387 0.094146 0.175302
O O4 0.855091 0.221098 0.088377
O O5 0.574806 0.130311 0.369908
O O6 0.558096 0.968311 0.341723
O O7 0.643507 0.033405 0.273657
O O8 0.640148 0.019164 0.451676
O O9 0.933902 0.326117 0.090080
O O10 0.000000 0.356602 0.250000
O O11 0.500000 0.250000 0.374172
O O12 0.422169 0.250000 0.250000
O O13 0.395699 0.223911 0.428850
O O14 0.750000 0.000000 0.254059
O O15 0.811973 0.953781 0.105697
O O16 0.667981 0.871980 0.457403
O O17 0.750000 0.000000 0.470445
#
# Coordination Sequence:
#
# PCOD9507045 Si02
#       7
#    16  16  16  16  16  16  16
#     4   9  19  35  58  87 121 142 191 261 302 345
#     4  10  21  40  60  85 120 158 201 243 301 366
#     4   9  20  35  62  90 113 152 200 249 299 356
#     4  11  25  40  56  81 125 167 200 245 296 362
#     4  10  20  38  62  86 117 157 200 246 299 366
#     4  10  21  40  62  88 119 156 199 250 305 366
#     4  10  21  39  60  90 121 153 201 253 305 356
#
# _framework density 20.053521
#
# number of rings (size 3 to 8) (size 9 to 14) (size 15 to 20)
#    0.000    2.143    0.000    3.000    4.000    2.000 
#    0.000   12.857    0.000    0.000    0.000    0.000 
#    0.000    0.000    0.000    0.000    0.000    0.000 
#
# Total GULP energy -312164.030273 kJ/mol
# GULP energy per Si atom -5574.357683 kJ/mol
# Density = 2.000788 g / cm^3
# Si number density = 20.053521 Si / 1000 Ang^3
#
#
#
# Elastic Constant Matrix: (Units=GPa)
#
#
# Indices 1 2 3 4 5 6 
#
# 1 44.5889 39.8631 24.6568 0.0000 0.0000 0.0000
# 2 39.8631 119.7464 2.5095 0.0000 0.0000 0.0000
# 3 24.6568 2.5095 86.6394 0.0000 0.0000 0.0000
# 4 0.0000 0.0000 0.0000 24.9813 0.0000 0.0000
# 5 0.0000 0.0000 0.0000 0.0000 17.2101 0.0000
# 6 0.0000 0.0000 0.0000 0.0000 0.0000 4.3969
#
#
#
# Elastic Compliance Matrix: (Units=1/GPa)
#
#
# Indices 1 2 3 4 5 6 
#
# 1 0.040380 -0.013209 -0.011109 0.000000 0.000000 0.000000
# 2 -0.013209 0.012677 0.003392 0.000000 0.000000 0.000000
# 3 -0.011109 0.003392 0.014605 0.000000 0.000000 0.000000
# 4 0.000000 0.000000 0.000000 0.040030 0.000000 0.000000
# 5 0.000000 0.000000 0.000000 0.000000 0.058105 0.000000
# 6 0.000000 0.000000 0.000000 0.000000 0.000000 0.227432
#
#
# Mechanical properties :
#
#
# Convention : Reuss Voigt Hill
#
# Bulk Modulus (GPa) = 38.74550 42.78151 40.76350
# Shear Modulus (GPa) = 11.26926 21.58070 16.42498
#
# Velocity S-wave (km/s) = 2.37314 3.28404 2.86502
# Velocity P-wave (km/s) = 5.18382 5.97995 5.59607
#
# Compressibility (1/GPa) = 0.02580945
#
# Stress axis : x y z
#
# Youngs Moduli (GPa) = 24.76502 78.88148 68.46793
#
# Poissons Ratio (x) = 1.04198 0.76061
# Poissons Ratio (y) = 0.32713 -0.23225
# Poissons Ratio (z) = 0.27512 -0.26757
#
# Static dielectric constant tensor:
#      x y z
#    x 1.769130 0.000000 0.000000 
#    y 0.000000 1.276330 0.000000 
#    z 0.000000 0.000000 1.719790 
# 
# From -- ./inp_files/25476.got.cif
#   From: 2010.05.17/outbox.cif.g08.bks.cpg/sg68_13_cif.got.tgz:25476.got - 2010.06.03 18:57:09.
