data_PCOD9507133
_publ_section_title
;
Structure prediction by ZEFSAII (Michael W. Deem and Ramdas Pophale) SiO2 
 PCOD9507133
Probable space group: C C C A
;
_chemical_formula_sum "Si O2"
_cell_formula_units_Z 48
_cell_length_a 13.790738
_cell_length_b 5.155165
_cell_length_c 27.412230
_cell_angle_alpha 90.000000
_cell_angle_beta 90.000000
_cell_angle_gamma 90.000000
_cell_volume 1948.832192
_symmetry_space_group_name_H-M "C C C A"
_symmetry_group_IT_number 68
_space_group.IT_coordinate_system_code '2'
_symmetry_cell_setting 'orthorhombic'
loop_
_space_group_symop_operation_xyz
x,y,z
-x,1/2-y,z
x,1/2-y,1/2-z
-x,y,1/2-z
-x,-y,-z
x,1/2+y,-z
-x,1/2+y,1/2+z
x,-y,1/2+z
1/2+x,1/2+y,z
1/2-x,-y,z
1/2+x,-y,1/2-z
1/2-x,1/2+y,1/2-z
1/2-x,1/2-y,-z
1/2+x,y,-z
1/2-x,y,1/2+z
1/2+x,1/2-y,1/2+z
loop_
_atom_site_type_symbol
_atom_site_label
_atom_site_fract_x
_atom_site_fract_y
_atom_site_fract_z
Si Si1 0.148602 0.146950 0.800441
Si Si2 0.000000 0.250000 0.535149
Si Si3 0.404067 0.092649 0.894908
Si Si4 0.750000 0.500000 0.124214
O O1 0.108042 0.250000 0.750000
O O2 0.174416 0.375559 0.837734
O O3 0.250000 0.000000 0.788593
O O4 0.089956 0.965892 0.837141
O O5 0.087306 0.331305 0.572314
O O6 0.000000 0.500000 0.500000
O O7 0.500000 0.250000 0.907583
O O8 0.308637 0.269871 0.902709
#
# Coordination Sequence:
#
# PCOD9507133 Si02
#       4
#    16   8  16   8
#     4  10  20  38  69 101 150 198 238 288 356 437
#     4  12  26  50  79 102 145 194 252 326 400 452
#     4  11  24  45  73 107 146 194 249 315 381 460
#     4  10  22  42  70 102 148 192 250 296 372 444
#
# _framework density 24.630137000000001
#
# number of rings (size 3 to 8) (size 9 to 14) (size 15 to 20)
#    0.000    1.333    3.333    2.000    0.000    0.000 
#    0.000   14.167    0.000    0.000    0.000    0.000 
#    0.000    0.000    0.000    0.000    0.000    0.000 
#
# Total GULP energy -133914.426351 kJ/mol
# GULP energy per Si atom -5579.767765 kJ/mol
# Density = 2.457408 g / cm^3
# Si number density = 24.630137 Si / 1000 Ang^3
#
#
#
# Elastic Constant Matrix: (Units=GPa)
#
#
# Indices 1 2 3 4 5 6 
#
# 1 101.4120 58.7686 67.4310 0.0000 0.0000 0.0000
# 2 58.7686 164.4441 68.3151 0.0000 0.0000 0.0000
# 3 67.4310 68.3151 184.0826 0.0000 0.0000 0.0000
# 4 0.0000 0.0000 0.0000 46.9831 0.0000 0.0000
# 5 0.0000 0.0000 0.0000 0.0000 26.0060 0.0000
# 6 0.0000 0.0000 0.0000 0.0000 0.0000 51.3134
#
#
#
# Elastic Compliance Matrix: (Units=1/GPa)
#
#
# Indices 1 2 3 4 5 6 
#
# 1 0.014593 -0.003540 -0.004032 0.000000 0.000000 0.000000
# 2 -0.003540 0.008048 -0.001690 0.000000 0.000000 0.000000
# 3 -0.004032 -0.001690 0.007536 0.000000 0.000000 0.000000
# 4 0.000000 0.000000 0.000000 0.021284 0.000000 0.000000
# 5 0.000000 0.000000 0.000000 0.000000 0.038453 0.000000
# 6 0.000000 0.000000 0.000000 0.000000 0.000000 0.019488
#
#
# Mechanical properties :
#
#
# Convention : Reuss Voigt Hill
#
# Bulk Modulus (GPa) = 85.80895 93.21869 89.51382
# Shear Modulus (GPa) = 37.93286 41.88877 39.91081
#
# Velocity S-wave (km/s) = 3.92867 4.12844 4.02979
# Velocity P-wave (km/s) = 7.44942 7.78813 7.62066
#
# Compressibility (1/GPa) = 0.01165380
#
# Stress axis : x y z
#
# Youngs Moduli (GPa) = 68.52501 124.24801 132.68976
#
# Poissons Ratio (x) = 0.43988 0.53497
# Poissons Ratio (y) = 0.24260 0.22424
# Poissons Ratio (z) = 0.27627 0.20998
#
# Static dielectric constant tensor:
#      x y z
#    x 1.979210 0.000000 0.000000 
#    y 0.000000 2.141640 0.000000 
#    z 0.000000 0.000000 1.920100 
# 
# From -- ./inp_files/50589.got.cif
#   From: 2010.05.17/outbox.cif.g08.bks.cpg/sg68_26_cif.got.tgz:50589.got - 2010.06.03 18:57:09.
