data_PCOD9507120
_publ_section_title
;
Structure prediction by ZEFSAII (Michael W. Deem and Ramdas Pophale) SiO2 
 PCOD9507120
Probable space group: C C C A
;
_chemical_formula_sum "Si O2"
_cell_formula_units_Z 56
_cell_length_a 10.182525
_cell_length_b 13.128024
_cell_length_c 20.176419
_cell_angle_alpha 90.000000
_cell_angle_beta 90.000000
_cell_angle_gamma 90.000000
_cell_volume 2697.111714
_symmetry_space_group_name_H-M "C C C A"
_symmetry_group_IT_number 68
_space_group.IT_coordinate_system_code '2'
_symmetry_cell_setting 'orthorhombic'
loop_
_space_group_symop_operation_xyz
x,y,z
-x,1/2-y,z
x,1/2-y,1/2-z
-x,y,1/2-z
-x,-y,-z
x,1/2+y,-z
-x,1/2+y,1/2+z
x,-y,1/2+z
1/2+x,1/2+y,z
1/2-x,-y,z
1/2+x,-y,1/2-z
1/2-x,1/2+y,1/2-z
1/2-x,1/2-y,-z
1/2+x,y,-z
1/2-x,y,1/2+z
1/2+x,1/2-y,1/2+z
loop_
_atom_site_type_symbol
_atom_site_label
_atom_site_fract_x
_atom_site_fract_y
_atom_site_fract_z
Si Si1 0.944864 0.038513 0.815664
Si Si2 0.205512 0.335137 0.307497
Si Si3 0.599559 0.536960 0.443971
Si Si4 0.500000 0.250000 0.588730
O O1 0.837042 0.119183 0.839991
O O2 0.000000 0.090465 0.750000
O O3 0.871962 0.937764 0.786034
O O4 0.045193 0.004890 0.872783
O O5 0.221282 0.250000 0.250000
O O6 0.112879 0.292609 0.363981
O O7 0.500000 0.500000 0.500000
O O8 0.750000 0.500000 0.452952
O O9 0.574117 0.658093 0.447175
#
# Coordination Sequence:
#
# PCOD9507120 Si02
#       4
#    16  16  16   8
#     4  10  23  40  67  99 136 172 228 283 336 413
#     4  10  20  38  66  96 135 175 220 273 350 401
#     4  11  27  48  72 100 140 186 234 289 352 417
#     4  10  23  44  70  96 137 184 230 284 354 418
#
# _framework density 20.762951000000001
#
# number of rings (size 3 to 8) (size 9 to 14) (size 15 to 20)
#    0.000    1.714    0.000    3.857   16.000    1.714 
#    0.000    0.000    0.000    0.000    0.000    0.000 
#    0.000    0.000    0.000    0.000    0.000    0.000 
#
# Total GULP energy -156001.267029 kJ/mol
# GULP energy per Si atom -5571.473822 kJ/mol
# Density = 2.071569 g / cm^3
# Si number density = 20.762951 Si / 1000 Ang^3
#
#
#
# Elastic Constant Matrix: (Units=GPa)
#
#
# Indices 1 2 3 4 5 6 
#
# 1 154.3297 73.2547 45.1334 0.0000 0.0000 0.0000
# 2 73.2547 127.7102 21.7922 0.0000 0.0000 0.0000
# 3 45.1334 21.7922 63.9459 0.0000 0.0000 0.0000
# 4 0.0000 0.0000 0.0000 5.3566 0.0000 0.0000
# 5 0.0000 0.0000 0.0000 0.0000 24.9317 0.0000
# 6 0.0000 0.0000 0.0000 0.0000 0.0000 2.5829
#
#
#
# Elastic Compliance Matrix: (Units=1/GPa)
#
#
# Indices 1 2 3 4 5 6 
#
# 1 0.010568 -0.005085 -0.005726 0.000000 0.000000 0.000000
# 2 -0.005085 0.010760 -0.000078 0.000000 0.000000 0.000000
# 3 -0.005726 -0.000078 0.019706 0.000000 0.000000 0.000000
# 4 0.000000 0.000000 0.000000 0.186686 0.000000 0.000000
# 5 0.000000 0.000000 0.000000 0.000000 0.040110 0.000000
# 6 0.000000 0.000000 0.000000 0.000000 0.000000 0.387169
#
#
# Mechanical properties :
#
#
# Convention : Reuss Voigt Hill
#
# Bulk Modulus (GPa) = 51.93034 69.59404 60.76219
# Shear Modulus (GPa) = 7.31856 20.29460 13.80658
#
# Velocity S-wave (km/s) = 1.87949 3.12980 2.58148
# Velocity P-wave (km/s) = 5.45668 6.83023 6.18172
#
# Compressibility (1/GPa) = 0.01925656
#
# Stress axis : x y z
#
# Youngs Moduli (GPa) = 94.62876 92.93616 50.74530
#
# Poissons Ratio (x) = 0.47254 0.29056
# Poissons Ratio (y) = 0.48114 0.00397
# Poissons Ratio (z) = 0.54184 0.00727
#
# Static dielectric constant tensor:
#      x y z
#    x 1.866230 0.000000 0.000000 
#    y 0.000000 1.848800 0.000000 
#    z 0.000000 0.000000 1.782150 
# 
# From -- ./inp_files/30395.got.cif
#   From: 2010.05.17/outbox.cif.g08.bks.cpg/sg68_16_cif.got.tgz:30395.got - 2010.06.03 18:57:09.
