data_PCOD9507766
_publ_section_title
;
Structure prediction by ZEFSAII (Michael W. Deem and Ramdas Pophale) SiO2 
 PCOD9507766
Probable space group: C C C A
;
_chemical_formula_sum "Si O2"
_cell_formula_units_Z 112
_cell_length_a 25.756648
_cell_length_b 14.373789
_cell_length_c 14.560704
_cell_angle_alpha 90.000000
_cell_angle_beta 90.000000
_cell_angle_gamma 90.000000
_cell_volume 5390.672916
_symmetry_space_group_name_H-M "C C C A"
_symmetry_group_IT_number 68
_space_group.IT_coordinate_system_code '2'
_symmetry_cell_setting 'orthorhombic'
loop_
_space_group_symop_operation_xyz
x,y,z
-x,1/2-y,z
x,1/2-y,1/2-z
-x,y,1/2-z
-x,-y,-z
x,1/2+y,-z
-x,1/2+y,1/2+z
x,-y,1/2+z
1/2+x,1/2+y,z
1/2-x,-y,z
1/2+x,-y,1/2-z
1/2-x,1/2+y,1/2-z
1/2-x,1/2-y,-z
1/2+x,y,-z
1/2-x,y,1/2+z
1/2+x,1/2-y,1/2+z
loop_
_atom_site_type_symbol
_atom_site_label
_atom_site_fract_x
_atom_site_fract_y
_atom_site_fract_z
Si Si1 0.557709 0.380949 0.781719
Si Si2 0.110709 0.436884 0.686780
Si Si3 0.941728 0.766779 0.089480
Si Si4 0.347488 0.226392 0.854486
Si Si5 0.405687 0.625416 0.424215
Si Si6 0.305721 0.545978 0.063046
Si Si7 0.121620 0.576721 0.402214
O O1 0.500000 0.356042 0.750000
O O2 0.563831 0.487142 0.814420
O O3 0.593767 0.319815 0.848955
O O4 0.585414 0.371455 0.684108
O O5 0.090009 0.337711 0.653812
O O6 0.154714 0.478271 0.619511
O O7 0.128912 0.432164 0.792671
O O8 0.911045 0.669945 0.080294
O O9 0.000000 0.750000 0.123224
O O10 0.943921 0.821753 0.992324
O O11 0.333073 0.250000 0.750000
O O12 0.352450 0.313332 0.924753
O O13 0.309922 0.145246 0.887013
O O14 0.406993 0.515707 0.441036
O O15 0.250000 0.500000 0.062815
O O16 0.326110 0.569593 0.960948
#
# Coordination Sequence:
#
# PCOD9507766 Si02
#       7
#    16  16  16  16  16  16  16
#     4   9  20  34  64  94 132 176 228 280 336 395
#     4  10  24  44  63  98 143 174 227 281 339 417
#     4  12  26  39  68  97 141 188 227 267 346 419
#     4   9  19  39  63  96 133 172 225 289 341 410
#     4  10  21  38  61  90 131 179 223 281 337 386
#     4  11  23  45  75 100 129 177 230 296 350 401
#     4  11  24  45  66  94 139 181 230 285 334 417
#
# _framework density 20.776626
#
# number of rings (size 3 to 8) (size 9 to 14) (size 15 to 20)
#    0.000    1.714    2.857    1.286    6.000    3.714 
#    0.000    4.286    0.000    0.000    0.000    0.000 
#    0.000    0.000    0.000    0.000    0.000    0.000 
#
# Total GULP energy -312048.058528 kJ/mol
# GULP energy per Si atom -5572.286759 kJ/mol
# Density = 2.072934 g / cm^3
# Si number density = 20.776626 Si / 1000 Ang^3
#
#
#
# Elastic Constant Matrix: (Units=GPa)
#
#
# Indices 1 2 3 4 5 6 
#
# 1 87.5914 54.9635 22.1726 0.0000 0.0000 0.0000
# 2 54.9635 181.4482 34.7488 0.0000 0.0000 0.0000
# 3 22.1726 34.7488 95.1376 0.0000 0.0000 0.0000
# 4 0.0000 0.0000 0.0000 43.6244 0.0000 0.0000
# 5 0.0000 0.0000 0.0000 0.0000 3.9129 0.0000
# 6 0.0000 0.0000 0.0000 0.0000 0.0000 0.0397
#
#
#
# Elastic Compliance Matrix: (Units=1/GPa)
#
#
# Indices 1 2 3 4 5 6 
#
# 1 0.014407 -0.004001 -0.001896 0.000000 0.000000 0.000000
# 2 -0.004001 0.007037 -0.001638 0.000000 0.000000 0.000000
# 3 -0.001896 -0.001638 0.011551 0.000000 0.000000 0.000000
# 4 0.000000 0.000000 0.000000 0.022923 0.000000 0.000000
# 5 0.000000 0.000000 0.000000 0.000000 0.255567 0.000000
# 6 0.000000 0.000000 0.000000 0.000000 0.000000 25.197695
#
#
# Mechanical properties :
#
#
# Convention : Reuss Voigt Hill
#
# Bulk Modulus (GPa) = 55.78756 65.32743 60.55749
# Shear Modulus (GPa) = 0.19585 26.33488 13.26537
#
# Velocity S-wave (km/s) = 0.30736 3.56409 2.52955
# Velocity P-wave (km/s) = 5.19955 6.96046 6.14343
#
# Compressibility (1/GPa) = 0.01792514
#
# Stress axis : x y z
#
# Youngs Moduli (GPa) = 69.40910 142.10953 86.57096
#
# Poissons Ratio (x) = 0.56859 0.16417
# Poissons Ratio (y) = 0.27771 0.14178
# Poissons Ratio (z) = 0.13163 0.23273
#
# Static dielectric constant tensor:
#      x y z
#    x 2.009040 0.000000 0.000000 
#    y 0.000000 1.853090 0.000000 
#    z 0.000000 0.000000 1.773740 
# 
# From -- ./inp_files/25449.got.cif
#   From: 2010.05.17/outbox.cif.g08.bks.cpg/sg68_13_cif.got.tgz:25449.got - 2010.06.03 18:57:09.
