data_PCOD9507817
_publ_section_title
;
Structure prediction by ZEFSAII (Michael W. Deem and Ramdas Pophale) SiO2 
 PCOD9507817
Probable space group: C C C A
;
_chemical_formula_sum "Si O2"
_cell_formula_units_Z 56
_cell_length_a 17.360773
_cell_length_b 12.943802
_cell_length_c 12.333160
_cell_angle_alpha 90.000000
_cell_angle_beta 90.000000
_cell_angle_gamma 90.000000
_cell_volume 2771.438752
_symmetry_space_group_name_H-M "C C C A"
_symmetry_group_IT_number 68
_space_group.IT_coordinate_system_code '2'
_symmetry_cell_setting 'orthorhombic'
loop_
_space_group_symop_operation_xyz
x,y,z
-x,1/2-y,z
x,1/2-y,1/2-z
-x,y,1/2-z
-x,-y,-z
x,1/2+y,-z
-x,1/2+y,1/2+z
x,-y,1/2+z
1/2+x,1/2+y,z
1/2-x,-y,z
1/2+x,-y,1/2-z
1/2-x,1/2+y,1/2-z
1/2-x,1/2-y,-z
1/2+x,y,-z
1/2-x,y,1/2+z
1/2+x,1/2-y,1/2+z
loop_
_atom_site_type_symbol
_atom_site_label
_atom_site_fract_x
_atom_site_fract_y
_atom_site_fract_z
Si Si1 0.168113 0.562466 0.113333
Si Si2 0.834683 0.817355 0.888899
Si Si3 0.581271 0.382395 0.810443
Si Si4 0.303299 0.750000 0.750000
O O1 0.250000 0.500000 0.120755
O O2 0.098858 0.480367 0.116485
O O3 0.156612 0.645507 0.210291
O O4 0.165710 0.624653 0.001017
O O5 0.893934 0.720856 0.875785
O O6 0.858706 0.890774 0.789466
O O7 0.751739 0.775617 0.852490
O O8 0.500000 0.376792 0.750000
#
# Coordination Sequence:
#
# PCOD9507817 Si02
#       4
#    16  16  16   8
#     4  12  23  37  67  97 124 164 216 263 319 380
#     4  10  21  38  65  89 126 162 208 262 316 379
#     4  10  23  44  62  88 129 173 208 258 321 381
#     4  10  22  40  56 100 128 156 200 278 310 368
#
# _framework density 20.206111
#
# number of rings (size 3 to 8) (size 9 to 14) (size 15 to 20)
#    0.000    1.714    5.714    2.571    4.000    1.143 
#    0.000    3.571    0.000    0.000    0.000    0.000 
#    0.000    0.000    0.000    0.000    0.000    0.000 
#
# Total GULP energy -156098.648878 kJ/mol
# GULP energy per Si atom -5574.951746 kJ/mol
# Density = 2.016012 g / cm^3
# Si number density = 20.206111 Si / 1000 Ang^3
#
#
#
# Elastic Constant Matrix: (Units=GPa)
#
#
# Indices 1 2 3 4 5 6 
#
# 1 39.0051 26.3577 17.3544 0.0000 0.0000 0.0000
# 2 26.3577 123.9844 76.5458 0.0000 0.0000 0.0000
# 3 17.3544 76.5458 93.8019 0.0000 0.0000 0.0000
# 4 0.0000 0.0000 0.0000 50.4182 0.0000 0.0000
# 5 0.0000 0.0000 0.0000 0.0000 2.0885 0.0000
# 6 0.0000 0.0000 0.0000 0.0000 0.0000 13.8621
#
#
#
# Elastic Compliance Matrix: (Units=1/GPa)
#
#
# Indices 1 2 3 4 5 6 
#
# 1 0.029961 -0.005940 -0.000696 0.000000 0.000000 0.000000
# 2 -0.005940 0.017432 -0.013127 0.000000 0.000000 0.000000
# 3 -0.000696 -0.013127 0.021501 0.000000 0.000000 0.000000
# 4 0.000000 0.000000 0.000000 0.019834 0.000000 0.000000
# 5 0.000000 0.000000 0.000000 0.000000 0.478807 0.000000
# 6 0.000000 0.000000 0.000000 0.000000 0.000000 0.072139
#
#
# Mechanical properties :
#
#
# Convention : Reuss Voigt Hill
#
# Bulk Modulus (GPa) = 34.04823 55.25635 44.65229
# Shear Modulus (GPa) = 7.25700 22.37599 14.81649
#
# Velocity S-wave (km/s) = 1.89718 3.33135 2.71083
# Velocity P-wave (km/s) = 4.65683 6.49638 5.65195
#
# Compressibility (1/GPa) = 0.02937011
#
# Stress axis : x y z
#
# Youngs Moduli (GPa) = 33.37655 57.36475 46.50882
#
# Poissons Ratio (x) = 0.34072 0.03238
# Poissons Ratio (y) = 0.19824 0.61050
# Poissons Ratio (z) = 0.02324 0.75300
#
# Static dielectric constant tensor:
#      x y z
#    x 1.764900 0.000000 0.000000 
#    y 0.000000 1.821940 0.000000 
#    z 0.000000 0.000000 1.700600 
# 
# From -- ./inp_files/11403.got.cif
#   From: 2010.05.17/outbox.cif.g08.bks.cpg/sg68_6_cif.got.tgz:11403.got - 2010.06.03 18:57:09.
