data_PCOD9507012
_publ_section_title
;
Structure prediction by ZEFSAII (Michael W. Deem and Ramdas Pophale) SiO2 
 PCOD9507012
Probable space group: C C C A
;
_chemical_formula_sum "Si O2"
_cell_formula_units_Z 120
_cell_length_a 20.478398
_cell_length_b 12.138986
_cell_length_c 27.276505
_cell_angle_alpha 90.000000
_cell_angle_beta 90.000000
_cell_angle_gamma 90.000000
_cell_volume 6780.584184
_symmetry_space_group_name_H-M "C C C A"
_symmetry_group_IT_number 68
_space_group.IT_coordinate_system_code '2'
_symmetry_cell_setting 'orthorhombic'
loop_
_space_group_symop_operation_xyz
x,y,z
-x,1/2-y,z
x,1/2-y,1/2-z
-x,y,1/2-z
-x,-y,-z
x,1/2+y,-z
-x,1/2+y,1/2+z
x,-y,1/2+z
1/2+x,1/2+y,z
1/2-x,-y,z
1/2+x,-y,1/2-z
1/2-x,1/2+y,1/2-z
1/2-x,1/2-y,-z
1/2+x,y,-z
1/2-x,y,1/2+z
1/2+x,1/2-y,1/2+z
loop_
_atom_site_type_symbol
_atom_site_label
_atom_site_fract_x
_atom_site_fract_y
_atom_site_fract_z
Si Si1 0.137422 0.320059 0.047596
Si Si2 0.740225 0.631479 0.888712
Si Si3 0.299454 0.224114 0.692879
Si Si4 0.428213 0.965164 0.984649
Si Si5 0.750000 0.000000 0.353157
Si Si6 0.882945 0.757628 0.061344
Si Si7 0.886621 0.517798 0.090390
Si Si8 0.567940 0.694278 0.133101
O O1 0.207029 0.319850 0.073293
O O2 0.106380 0.441744 0.047609
O O3 0.089459 0.247627 0.081084
O O4 0.144245 0.282761 0.991539
O O5 0.750000 0.500000 0.889234
O O6 0.760278 0.681957 0.836572
O O7 0.671073 0.678907 0.906572
O O8 0.300606 0.250000 0.750000
O O9 0.265059 0.108140 0.679036
O O10 0.372837 0.218659 0.670480
O O11 0.432729 0.851041 0.956080
O O12 0.500000 0.000000 0.000000
O O13 0.387268 0.967375 0.035409
O O14 0.813964 0.984257 0.386997
O O15 0.906889 0.645599 0.086688
O O16 0.931842 0.436949 0.122710
O O17 0.500000 0.750000 0.147885
#
# Coordination Sequence:
#
# PCOD9507012 Si02
#       8
#    16  16  16  16   8  16  16  16
#     4  10  21  32  52  80 111 157 191 232 279 335
#     4  11  21  37  55  82 116 146 192 242 298 351
#     4  10  23  39  62  90 112 151 191 247 313 363
#     4  11  22  34  51  76 116 158 204 239 271 334
#     4  10  20  40  60  86 118 142 198 244 298 374
#     4  11  21  35  53  81 116 157 199 234 283 345
#     4  10  21  35  57  80 114 162 194 235 290 339
#     4  10  20  38  59  84 119 153 195 242 287 349
#
# _framework density 17.697590999999999
#
# number of rings (size 3 to 8) (size 9 to 14) (size 15 to 20)
#    0.000    1.600    4.000    1.200    0.933    4.000 
#    0.000    0.000    0.000    0.000    0.000    0.000 
#    0.000    0.000    0.000    0.000    0.000    0.000 
#
# Total GULP energy -334667.611412 kJ/mol
# GULP energy per Si atom -5577.793524 kJ/mol
# Density = 1.765731 g / cm^3
# Si number density = 17.697591 Si / 1000 Ang^3
#
#
#
# Elastic Constant Matrix: (Units=GPa)
#
#
# Indices 1 2 3 4 5 6 
#
# 1 85.2844 40.3311 31.8077 0.0000 0.0000 0.0000
# 2 40.3311 125.5509 35.9082 0.0000 0.0000 0.0000
# 3 31.8077 35.9082 96.4866 0.0000 0.0000 0.0000
# 4 0.0000 0.0000 0.0000 17.8942 0.0000 0.0000
# 5 0.0000 0.0000 0.0000 0.0000 6.4331 0.0000
# 6 0.0000 0.0000 0.0000 0.0000 0.0000 25.6090
#
#
#
# Elastic Compliance Matrix: (Units=1/GPa)
#
#
# Indices 1 2 3 4 5 6 
#
# 1 0.014801 -0.003759 -0.003480 0.000000 0.000000 0.000000
# 2 -0.003759 0.009868 -0.002433 0.000000 0.000000 0.000000
# 3 -0.003480 -0.002433 0.012417 0.000000 0.000000 0.000000
# 4 0.000000 0.000000 0.000000 0.055884 0.000000 0.000000
# 5 0.000000 0.000000 0.000000 0.000000 0.155445 0.000000
# 6 0.000000 0.000000 0.000000 0.000000 0.000000 0.039049
#
#
# Mechanical properties :
#
#
# Convention : Reuss Voigt Hill
#
# Bulk Modulus (GPa) = 56.36700 58.15731 57.26216
# Shear Modulus (GPa) = 15.98852 23.27227 19.63039
#
# Velocity S-wave (km/s) = 3.00897 3.63022 3.33410
# Velocity P-wave (km/s) = 6.63258 7.10664 6.87370
#
# Compressibility (1/GPa) = 0.01774088
#
# Stress axis : x y z
#
# Youngs Moduli (GPa) = 67.56181 101.33315 80.53449
#
# Poissons Ratio (x) = 0.38094 0.28029
# Poissons Ratio (y) = 0.25398 0.19597
# Poissons Ratio (z) = 0.23514 0.24658
#
# Static dielectric constant tensor:
#      x y z
#    x 1.651970 0.000000 0.000000 
#    y 0.000000 1.704370 0.000000 
#    z 0.000000 0.000000 1.572330 
# 
# From -- ./inp_files/51959.got.cif
#   From: 2010.05.17/outbox.cif.g08.bks.cpg/sg68_26_cif.got.tgz:51959.got - 2010.06.03 18:57:09.
