data_PCOD9507129
_publ_section_title
;
Structure prediction by ZEFSAII (Michael W. Deem and Ramdas Pophale) SiO2 
 PCOD9507129
Probable space group: C C C A
;
_chemical_formula_sum "Si O2"
_cell_formula_units_Z 68
_cell_length_a 23.921429
_cell_length_b 14.973472
_cell_length_c 8.645758
_cell_angle_alpha 90.000000
_cell_angle_beta 90.000000
_cell_angle_gamma 90.000000
_cell_volume 3096.796801
_symmetry_space_group_name_H-M "C C C A"
_symmetry_group_IT_number 68
_space_group.IT_coordinate_system_code '2'
_symmetry_cell_setting 'orthorhombic'
loop_
_space_group_symop_operation_xyz
x,y,z
-x,1/2-y,z
x,1/2-y,1/2-z
-x,y,1/2-z
-x,-y,-z
x,1/2+y,-z
-x,1/2+y,1/2+z
x,-y,1/2+z
1/2+x,1/2+y,z
1/2-x,-y,z
1/2+x,-y,1/2-z
1/2-x,1/2+y,1/2-z
1/2-x,1/2-y,-z
1/2+x,y,-z
1/2-x,y,1/2+z
1/2+x,1/2-y,1/2+z
loop_
_atom_site_type_symbol
_atom_site_label
_atom_site_fract_x
_atom_site_fract_y
_atom_site_fract_z
Si Si1 0.500000 0.041103 0.750000
Si Si2 0.750000 0.000000 0.817008
Si Si3 0.561845 0.895305 0.546824
Si Si4 0.166758 0.710024 0.081927
Si Si5 0.000000 0.250000 0.750000
Si Si6 0.709453 0.371496 0.926922
O O1 0.465462 0.094404 0.621419
O O2 0.543116 0.979779 0.650758
O O3 0.708067 0.059981 0.714550
O O4 0.785594 0.067084 0.921788
O O5 0.626937 0.871757 0.539028
O O6 0.535977 0.812084 0.638504
O O7 0.152570 0.750000 0.250000
O O8 0.230021 0.675096 0.091494
O O9 0.166279 0.791743 0.958548
#
# Coordination Sequence:
#
# PCOD9507129 Si02
#       6
#     8   8  16  16   4  16
#     4   9  22  44  68 101 130 162 226 295 330 412
#     4  10  20  40  58  84 128 186 208 282 316 362
#     4  10  21  42  69  93 133 167 217 279 350 390
#     4  11  21  39  65  96 130 181 220 270 331 410
#     4  10  20  38  68  94 128 176 204 282 332 416
#     4  10  22  38  62  90 136 172 228 264 324 392
#
# _framework density 21.958171
#
# number of rings (size 3 to 8) (size 9 to 14) (size 15 to 20)
#    0.000    1.882    3.529    0.000    0.000    2.353 
#    0.000    4.706    0.000    0.000    0.000    0.000 
#    0.000    0.000    0.000    0.000    0.000    0.000 
#
# Total GULP energy -189991.010860 kJ/mol
# GULP energy per Si atom -5587.970908 kJ/mol
# Density = 2.190819 g / cm^3
# Si number density = 21.958171 Si / 1000 Ang^3
#
#
#
# Elastic Constant Matrix: (Units=GPa)
#
#
# Indices 1 2 3 4 5 6 
#
# 1 71.3090 25.4358 33.1604 0.0000 0.0000 0.0000
# 2 25.4358 77.1147 46.9868 0.0000 0.0000 0.0000
# 3 33.1604 46.9868 139.6382 0.0000 0.0000 0.0000
# 4 0.0000 0.0000 0.0000 18.7481 0.0000 0.0000
# 5 0.0000 0.0000 0.0000 0.0000 -12.0687 0.0000
# 6 0.0000 0.0000 0.0000 0.0000 0.0000 -1.6743
#
#
#
# Elastic Compliance Matrix: (Units=1/GPa)
#
#
# Indices 1 2 3 4 5 6 
#
# 1 0.016636 -0.003875 -0.002647 0.000000 0.000000 0.000000
# 2 -0.003875 0.017215 -0.004872 0.000000 0.000000 0.000000
# 3 -0.002647 -0.004872 0.009429 0.000000 0.000000 0.000000
# 4 0.000000 0.000000 0.000000 0.053339 0.000000 0.000000
# 5 0.000000 0.000000 0.000000 0.000000 -0.082859 0.000000
# 6 0.000000 0.000000 0.000000 0.000000 0.000000 -0.597279
#
#
# Mechanical properties :
#
#
# Convention : Reuss Voigt Hill
#
# Bulk Modulus (GPa) = 48.79830 55.46976 52.13403
# Shear Modulus (GPa) = -9.02691 13.16628 2.06969
#
# Velocity S-wave (km/s) = -2.02975 2.45134 0.97191
# Velocity P-wave (km/s) = 4.09614 5.77309 5.00534
#
# Compressibility (1/GPa) = 0.02049252
#
# Stress axis : x y z
#
# Youngs Moduli (GPa) = 60.10903 58.09054 106.05072
#
# Poissons Ratio (x) = 0.22508 0.28071
# Poissons Ratio (y) = 0.23290 0.51672
# Poissons Ratio (z) = 0.15911 0.28304
#
# Static dielectric constant tensor:
#      x y z
#    x 1.860380 0.000000 0.000000 
#    y 0.000000 1.833380 0.000000 
#    z 0.000000 0.000000 1.790490 
# 
# From -- ./inp_files/5155.got.cif
#   From: 2010.05.17/outbox.cif.g08.bks.cpg/sg68_3_cif.got.tgz:5155.got - 2010.06.03 18:57:09.
