data_PCOD9507816
_publ_section_title
;
Structure prediction by ZEFSAII (Michael W. Deem and Ramdas Pophale) SiO2 
 PCOD9507816
Probable space group: C C C A
;
_chemical_formula_sum "Si O2"
_cell_formula_units_Z 88
_cell_length_a 29.525906
_cell_length_b 16.758904
_cell_length_c 9.687911
_cell_angle_alpha 90.000000
_cell_angle_beta 90.000000
_cell_angle_gamma 90.000000
_cell_volume 4793.789793
_symmetry_space_group_name_H-M "C C C A"
_symmetry_group_IT_number 68
_space_group.IT_coordinate_system_code '2'
_symmetry_cell_setting 'orthorhombic'
loop_
_space_group_symop_operation_xyz
x,y,z
-x,1/2-y,z
x,1/2-y,1/2-z
-x,y,1/2-z
-x,-y,-z
x,1/2+y,-z
-x,1/2+y,1/2+z
x,-y,1/2+z
1/2+x,1/2+y,z
1/2-x,-y,z
1/2+x,-y,1/2-z
1/2-x,1/2+y,1/2-z
1/2-x,1/2-y,-z
1/2+x,y,-z
1/2-x,y,1/2+z
1/2+x,1/2-y,1/2+z
loop_
_atom_site_type_symbol
_atom_site_label
_atom_site_fract_x
_atom_site_fract_y
_atom_site_fract_z
Si Si1 0.500000 0.958390 0.750000
Si Si2 0.494844 0.839791 0.490918
Si Si3 0.563090 0.608770 0.247591
Si Si4 0.745583 0.693670 0.631289
Si Si5 0.667414 0.592752 0.214283
Si Si6 0.298357 0.960074 0.510069
O O1 0.496797 0.903700 0.613886
O O2 0.543395 0.017998 0.742136
O O3 0.500000 0.750000 0.544329
O O4 0.450746 0.851465 0.393509
O O5 0.534542 0.854703 0.378923
O O6 0.615505 0.618159 0.215159
O O7 0.726688 0.750000 0.750000
O O8 0.750000 0.750000 0.500000
O O9 0.794485 0.658600 0.677337
O O10 0.713974 0.618990 0.595800
O O11 0.678088 0.561510 0.367597
O O12 0.674673 0.521950 0.104244
O O13 0.250000 0.000000 0.474744
#
# Coordination Sequence:
#
# PCOD9507816 Si02
#       6
#     8  16  16  16  16  16
#     4  10  21  38  65  88 120 154 200 248 303 356
#     4  10  21  40  62  86 125 158 190 247 309 371
#     4  10  21  39  62  88 117 159 206 238 300 362
#     4  11  22  41  61  86 120 162 201 247 307 357
#     4  11  24  37  65  87 121 155 207 255 291 369
#     4  10  22  40  60  86 118 160 200 249 307 350
#
# _framework density 18.357082999999999
#
# number of rings (size 3 to 8) (size 9 to 14) (size 15 to 20)
#    0.000    1.818    1.818    5.182    7.636    1.455 
#    0.000    0.000    0.000    0.000    0.000    0.000 
#    0.000    0.000    0.000    0.000    0.000    0.000 
#
# Total GULP energy -245625.859153 kJ/mol
# GULP energy per Si atom -5582.405890 kJ/mol
# Density = 1.831530 g / cm^3
# Si number density = 18.357083 Si / 1000 Ang^3
#
#
#
# Elastic Constant Matrix: (Units=GPa)
#
#
# Indices 1 2 3 4 5 6 
#
# 1 71.5539 -9.5753 8.2484 0.0000 0.0000 0.0000
# 2 -9.5753 81.3583 12.0519 0.0000 0.0000 0.0000
# 3 8.2484 12.0519 79.9695 0.0000 0.0000 0.0000
# 4 0.0000 0.0000 0.0000 18.6344 0.0000 0.0000
# 5 0.0000 0.0000 0.0000 0.0000 11.7171 0.0000
# 6 0.0000 0.0000 0.0000 0.0000 0.0000 1.4527
#
#
#
# Elastic Compliance Matrix: (Units=1/GPa)
#
#
# Indices 1 2 3 4 5 6 
#
# 1 0.014444 0.001965 -0.001786 0.000000 0.000000 0.000000
# 2 0.001965 0.012839 -0.002138 0.000000 0.000000 0.000000
# 3 -0.001786 -0.002138 0.013011 0.000000 0.000000 0.000000
# 4 0.000000 0.000000 0.000000 0.053664 0.000000 0.000000
# 5 0.000000 0.000000 0.000000 0.000000 0.085345 0.000000
# 6 0.000000 0.000000 0.000000 0.000000 0.000000 0.688358
#
#
# Mechanical properties :
#
#
# Convention : Reuss Voigt Hill
#
# Bulk Modulus (GPa) = 27.49016 28.25908 27.87462
# Shear Modulus (GPa) = 5.65799 21.17129 13.41464
#
# Velocity S-wave (km/s) = 1.75752 3.39972 2.70619
# Velocity P-wave (km/s) = 4.37336 5.55322 4.99823
#
# Compressibility (1/GPa) = 0.03637665
#
# Stress axis : x y z
#
# Youngs Moduli (GPa) = 69.23169 77.88667 76.85739
#
# Poissons Ratio (x) = -0.15301 0.13726
# Poissons Ratio (y) = -0.13601 0.16429
# Poissons Ratio (z) = 0.12364 0.16649
#
# Static dielectric constant tensor:
#      x y z
#    x 1.407590 0.000000 0.000000 
#    y 0.000000 1.818460 0.000000 
#    z 0.000000 0.000000 1.612630 
# 
# From -- ./inp_files/9525.got.cif
#   From: 2010.05.17/outbox.cif.g08.bks.cpg/sg68_5_cif.got.tgz:9525.got - 2010.06.03 18:57:09.
