data_PCOD9507479
_publ_section_title
;
Structure prediction by ZEFSAII (Michael W. Deem and Ramdas Pophale) SiO2 
 PCOD9507479
Probable space group: C C C A
;
_chemical_formula_sum "Si O2"
_cell_formula_units_Z 104
_cell_length_a 9.467432
_cell_length_b 17.094485
_cell_length_c 26.406222
_cell_angle_alpha 90.000000
_cell_angle_beta 90.000000
_cell_angle_gamma 90.000000
_cell_volume 4273.606056
_symmetry_space_group_name_H-M "C C C A"
_symmetry_group_IT_number 68
_space_group.IT_coordinate_system_code '2'
_symmetry_cell_setting 'orthorhombic'
loop_
_space_group_symop_operation_xyz
x,y,z
-x,1/2-y,z
x,1/2-y,1/2-z
-x,y,1/2-z
-x,-y,-z
x,1/2+y,-z
-x,1/2+y,1/2+z
x,-y,1/2+z
1/2+x,1/2+y,z
1/2-x,-y,z
1/2+x,-y,1/2-z
1/2-x,1/2+y,1/2-z
1/2-x,1/2-y,-z
1/2+x,y,-z
1/2-x,y,1/2+z
1/2+x,1/2-y,1/2+z
loop_
_atom_site_type_symbol
_atom_site_label
_atom_site_fract_x
_atom_site_fract_y
_atom_site_fract_z
Si Si1 0.081429 0.383679 0.467076
Si Si2 0.843857 0.843714 0.741367
Si Si3 0.185470 0.313250 0.650761
Si Si4 0.743090 0.581295 0.439908
Si Si5 0.070503 0.401528 0.799163
Si Si6 0.320513 0.644366 0.893355
Si Si7 0.500000 0.250000 0.470418
O O1 0.154521 0.432912 0.511774
O O2 0.178795 0.387122 0.418033
O O3 0.917030 0.398441 0.456014
O O4 0.098631 0.297202 0.491014
O O5 0.837416 0.750000 0.750000
O O6 0.809799 0.852097 0.682382
O O7 0.723388 0.881402 0.775700
O O8 0.000000 0.872440 0.750000
O O9 0.192567 0.352087 0.595825
O O10 0.205167 0.221342 0.641580
O O11 0.048938 0.335056 0.685568
O O12 0.750000 0.500000 0.409941
O O13 0.107232 0.421491 0.857757
O O14 0.000000 0.443167 0.750000
O O15 0.417667 0.685092 0.936813
#
# Coordination Sequence:
#
# PCOD9507479 Si02
#       7
#    16  16  16  16  16  16   8
#     4  12  25  41  65  92 127 168 212 269 333 382
#     4  10  21  33  55  94 139 164 193 254 329 391
#     4  11  22  37  62  92 126 171 210 257 322 392
#     4  12  27  47  64  87 126 174 224 267 310 382
#     4  10  21  35  59  91 132 168 201 249 320 396
#     4  12  20  34  63  94 132 160 208 261 329 397
#     4  12  20  40  59  98 134 161 202 276 332 400
#
# _framework density 24.335419000000002
#
# number of rings (size 3 to 8) (size 9 to 14) (size 15 to 20)
#    0.000    0.769    6.154    1.846    4.308    0.000 
#    0.000    0.000    0.000    2.769    0.000    0.000 
#    0.000    0.000    0.000    0.000    0.000    0.000 
#
# Total GULP energy -289880.707162 kJ/mol
# GULP energy per Si atom -5574.628984 kJ/mol
# Density = 2.428003 g / cm^3
# Si number density = 24.335419 Si / 1000 Ang^3
#
#
#
# Elastic Constant Matrix: (Units=GPa)
#
#
# Indices 1 2 3 4 5 6 
#
# 1 161.6577 9.1053 43.1450 0.0000 0.0000 0.0000
# 2 9.1053 42.5663 5.4027 0.0000 0.0000 0.0000
# 3 43.1450 5.4027 108.7987 0.0000 0.0000 0.0000
# 4 0.0000 0.0000 0.0000 -2.5235 0.0000 0.0000
# 5 0.0000 0.0000 0.0000 0.0000 43.7976 0.0000
# 6 0.0000 0.0000 0.0000 0.0000 0.0000 6.0829
#
#
#
# Elastic Compliance Matrix: (Units=1/GPa)
#
#
# Indices 1 2 3 4 5 6 
#
# 1 0.006973 -0.001148 -0.002708 0.000000 0.000000 0.000000
# 2 -0.001148 0.023831 -0.000728 0.000000 0.000000 0.000000
# 3 -0.002708 -0.000728 0.010301 0.000000 0.000000 0.000000
# 4 0.000000 0.000000 0.000000 -0.396274 0.000000 0.000000
# 5 0.000000 0.000000 0.000000 0.000000 0.022832 0.000000
# 6 0.000000 0.000000 0.000000 0.000000 0.000000 0.164395
#
#
# Mechanical properties :
#
#
# Convention : Reuss Voigt Hill
#
# Bulk Modulus (GPa) = 31.31190 47.59207 39.45199
# Shear Modulus (GPa) = -33.75486 26.49605 -3.62941
#
# Velocity S-wave (km/s) = -3.72838 3.30325 -1.22256
# Velocity P-wave (km/s) = 2.37479 5.84361 3.77546
#
# Compressibility (1/GPa) = 0.03193674
#
# Stress axis : x y z
#
# Youngs Moduli (GPa) = 143.40198 41.96264 97.07358
#
# Poissons Ratio (x) = 0.04817 0.26291
# Poissons Ratio (y) = 0.16461 0.07068
# Poissons Ratio (z) = 0.38838 0.03056
#
# Static dielectric constant tensor:
#      x y z
#    x 1.988280 0.000000 0.000000 
#    y 0.000000 2.011700 0.000000 
#    z 0.000000 0.000000 2.012990 
# 
# From -- ./inp_files/49426.got.cif
#   From: 2010.05.17/outbox.cif.g08.bks.cpg/sg68_25_cif.got.tgz:49426.got - 2010.06.03 18:57:09.
