data_PCOD9507510
_publ_section_title
;
Structure prediction by ZEFSAII (Michael W. Deem and Ramdas Pophale) SiO2 
 PCOD9507510
Probable space group: C C C A
;
_chemical_formula_sum "Si O2"
_cell_formula_units_Z 116
_cell_length_a 21.949754
_cell_length_b 28.619883
_cell_length_c 9.871060
_cell_angle_alpha 90.000000
_cell_angle_beta 90.000000
_cell_angle_gamma 90.000000
_cell_volume 6200.993884
_symmetry_space_group_name_H-M "C C C A"
_symmetry_group_IT_number 68
_space_group.IT_coordinate_system_code '2'
_symmetry_cell_setting 'orthorhombic'
loop_
_space_group_symop_operation_xyz
x,y,z
-x,1/2-y,z
x,1/2-y,1/2-z
-x,y,1/2-z
-x,-y,-z
x,1/2+y,-z
-x,1/2+y,1/2+z
x,-y,1/2+z
1/2+x,1/2+y,z
1/2-x,-y,z
1/2+x,-y,1/2-z
1/2-x,1/2+y,1/2-z
1/2-x,1/2-y,-z
1/2+x,y,-z
1/2-x,y,1/2+z
1/2+x,1/2-y,1/2+z
loop_
_atom_site_type_symbol
_atom_site_label
_atom_site_fract_x
_atom_site_fract_y
_atom_site_fract_z
Si Si1 0.648679 0.711666 0.632713
Si Si2 0.598395 0.712465 0.053404
Si Si3 0.000000 0.750000 0.750000
Si Si4 0.569106 0.855282 0.700884
Si Si5 0.181024 0.020818 0.523111
Si Si6 0.243026 0.607849 0.590071
Si Si7 0.721122 0.331360 0.658062
Si Si8 0.858734 0.052849 0.690038
O O1 0.641420 0.750000 0.750000
O O2 0.617396 0.736849 0.506425
O O3 0.613591 0.665706 0.683003
O O4 0.720086 0.700463 0.625676
O O5 0.542817 0.719010 0.154375
O O6 0.658329 0.693744 0.127260
O O7 0.581514 0.676610 0.931901
O O8 0.500000 0.850410 0.750000
O O9 0.588283 0.908883 0.677789
O O10 0.191911 0.070228 0.447863
O O11 0.147055 0.028966 0.663956
O O12 0.250000 0.000000 0.545536
O O13 0.144484 0.985662 0.427134
O O14 0.271257 0.626815 0.450454
O O15 0.223021 0.649522 0.688972
O O16 0.296113 0.581799 0.671422
#
# Coordination Sequence:
#
# PCOD9507510 Si02
#       8
#    16  16   4  16  16  16  16  16
#     4  10  21  39  64  94 119 162 212 261 316 368
#     4  11  25  41  61  89 127 170 210 266 308 382
#     4  12  28  44  54  88 132 172 218 246 324 368
#     4  11  22  43  68  85 120 168 222 254 302 375
#     4  10  21  34  62  90 131 159 197 252 324 377
#     4  11  20  36  59  95 127 160 198 254 316 378
#     4  12  22  37  64  96 132 157 208 264 323 366
#     4  11  21  39  58  93 120 163 204 255 307 382
#
# _framework density 18.706679000000001
#
# number of rings (size 3 to 8) (size 9 to 14) (size 15 to 20)
#    0.000    1.103    4.138    3.310    4.828    1.931 
#    2.483    0.690    0.000    0.000    0.000    0.000 
#    0.000    0.000    0.000    0.000    0.000    0.000 
#
# Total GULP energy -324022.834993 kJ/mol
# GULP energy per Si atom -5586.600603 kJ/mol
# Density = 1.866410 g / cm^3
# Si number density = 18.706679 Si / 1000 Ang^3
#
#
#
# Elastic Constant Matrix: (Units=GPa)
#
#
# Indices 1 2 3 4 5 6 
#
# 1 89.1635 13.4409 11.6228 0.0000 0.0000 0.0000
# 2 13.4409 53.0493 10.3595 0.0000 0.0000 0.0000
# 3 11.6228 10.3595 49.5414 0.0000 0.0000 0.0000
# 4 0.0000 0.0000 0.0000 7.2485 0.0000 0.0000
# 5 0.0000 0.0000 0.0000 0.0000 -66.8164 0.0000
# 6 0.0000 0.0000 0.0000 0.0000 0.0000 18.1956
#
#
#
# Elastic Compliance Matrix: (Units=1/GPa)
#
#
# Indices 1 2 3 4 5 6 
#
# 1 0.011897 -0.002574 -0.002253 0.000000 0.000000 0.000000
# 2 -0.002574 0.020210 -0.003622 0.000000 0.000000 0.000000
# 3 -0.002253 -0.003622 0.021471 0.000000 0.000000 0.000000
# 4 0.000000 0.000000 0.000000 0.137960 0.000000 0.000000
# 5 0.000000 0.000000 0.000000 0.000000 -0.014966 0.000000
# 6 0.000000 0.000000 0.000000 0.000000 0.000000 0.054958
#
#
# Mechanical properties :
#
#
# Convention : Reuss Voigt Hill
#
# Bulk Modulus (GPa) = 27.26317 29.17785 28.22051
# Shear Modulus (GPa) = 19.18241 2.14760 10.66501
#
# Velocity S-wave (km/s) = 3.20571 1.07263 2.39030
# Velocity P-wave (km/s) = 5.32050 4.14312 4.76829
#
# Compressibility (1/GPa) = 0.03667952
#
# Stress axis : x y z
#
# Youngs Moduli (GPa) = 84.05414 49.48050 46.57428
#
# Poissons Ratio (x) = 0.12738 0.10492
# Poissons Ratio (y) = 0.21639 0.16870
# Poissons Ratio (z) = 0.18936 0.17922
#
# Static dielectric constant tensor:
#      x y z
#    x 1.612060 0.000000 0.000000 
#    y 0.000000 1.672110 0.000000 
#    z 0.000000 0.000000 1.668030 
# 
# From -- ./inp_files/8342.got.cif
#   From: 2010.05.17/outbox.cif.g08.bks.cpg/sg68_5_cif.got.tgz:8342.got - 2010.06.03 18:57:09.
