data_PCOD9507779
_publ_section_title
;
Structure prediction by ZEFSAII (Michael W. Deem and Ramdas Pophale) SiO2 
 PCOD9507779
Probable space group: C C C A
;
_chemical_formula_sum "Si O2"
_cell_formula_units_Z 64
_cell_length_a 24.670166
_cell_length_b 5.239933
_cell_length_c 24.461384
_cell_angle_alpha 90.000000
_cell_angle_beta 90.000000
_cell_angle_gamma 90.000000
_cell_volume 3162.123524
_symmetry_space_group_name_H-M "C C C A"
_symmetry_group_IT_number 68
_space_group.IT_coordinate_system_code '2'
_symmetry_cell_setting 'orthorhombic'
loop_
_space_group_symop_operation_xyz
x,y,z
-x,1/2-y,z
x,1/2-y,1/2-z
-x,y,1/2-z
-x,-y,-z
x,1/2+y,-z
-x,1/2+y,1/2+z
x,-y,1/2+z
1/2+x,1/2+y,z
1/2-x,-y,z
1/2+x,-y,1/2-z
1/2-x,1/2+y,1/2-z
1/2-x,1/2-y,-z
1/2+x,y,-z
1/2-x,y,1/2+z
1/2+x,1/2-y,1/2+z
loop_
_atom_site_type_symbol
_atom_site_label
_atom_site_fract_x
_atom_site_fract_y
_atom_site_fract_z
Si Si1 0.938071 0.047408 0.479043
Si Si2 0.440994 0.323010 0.186595
Si Si3 0.286843 0.750658 0.312995
Si Si4 0.601876 0.330300 0.638716
O O1 0.913688 0.264030 0.518434
O O2 0.928092 0.163456 0.419497
O O3 0.000000 0.000000 0.500000
O O4 0.500000 0.250000 0.163386
O O5 0.440986 0.250000 0.250000
O O6 0.428638 0.617387 0.175255
O O7 0.400484 0.120449 0.159988
O O8 0.309265 0.750000 0.250000
O O9 0.250000 0.500000 0.318584
O O10 0.335670 0.749811 0.356072
O O11 0.250000 0.000000 0.318333
#
# Coordination Sequence:
#
# PCOD9507779 Si02
#       4
#    16  16  16  16
#     4  10  23  39  60  88 119 159 216 267 309 367
#     4  11  24  37  56  91 130 165 202 242 307 401
#     4  10  21  38  62  92 123 158 208 259 307 377
#     4  12  23  39  66  86 126 172 205 257 322 370
#
# _framework density 20.239563
#
# number of rings (size 3 to 8) (size 9 to 14) (size 15 to 20)
#    0.000    1.250    0.000    6.000   10.500    4.000 
#    0.000    0.000    0.000    4.500    0.000    0.000 
#    0.000    0.000    0.000    0.000    0.000    0.000 
#
# Total GULP energy -178496.235955 kJ/mol
# GULP energy per Si atom -5578.007374 kJ/mol
# Density = 2.019350 g / cm^3
# Si number density = 20.239563 Si / 1000 Ang^3
#
#
#
# Elastic Constant Matrix: (Units=GPa)
#
#
# Indices 1 2 3 4 5 6 
#
# 1 78.2743 13.4982 34.1189 0.0000 0.0000 0.0000
# 2 13.4982 132.5700 27.7557 0.0000 0.0000 0.0000
# 3 34.1189 27.7557 92.3097 0.0000 0.0000 0.0000
# 4 0.0000 0.0000 0.0000 36.1092 0.0000 0.0000
# 5 0.0000 0.0000 0.0000 0.0000 -0.5152 0.0000
# 6 0.0000 0.0000 0.0000 0.0000 0.0000 22.4618
#
#
#
# Elastic Compliance Matrix: (Units=1/GPa)
#
#
# Indices 1 2 3 4 5 6 
#
# 1 0.015249 -0.000398 -0.005517 0.000000 0.000000 0.000000
# 2 -0.000398 0.008060 -0.002277 0.000000 0.000000 0.000000
# 3 -0.005517 -0.002277 0.013557 0.000000 0.000000 0.000000
# 4 0.000000 0.000000 0.000000 0.027694 0.000000 0.000000
# 5 0.000000 0.000000 0.000000 0.000000 -1.941132 0.000000
# 6 0.000000 0.000000 0.000000 0.000000 0.000000 0.044520
#
#
# Mechanical properties :
#
#
# Convention : Reuss Voigt Hill
#
# Bulk Modulus (GPa) = 48.81846 50.43331 49.62588
# Shear Modulus (GPa) = -2.76420 26.79659 12.01620
#
# Velocity S-wave (km/s) = -1.16992 3.64259 2.43924
# Velocity P-wave (km/s) = 4.72734 6.53173 5.70137
#
# Compressibility (1/GPa) = 0.02048406
#
# Stress axis : x y z
#
# Youngs Moduli (GPa) = 65.57904 124.06458 73.76461
#
# Poissons Ratio (x) = 0.04933 0.40693
# Poissons Ratio (y) = 0.02608 0.16793
# Poissons Ratio (z) = 0.36177 0.28245
#
# Static dielectric constant tensor:
#      x y z
#    x 1.773410 0.000000 0.000000 
#    y 0.000000 1.799690 0.000000 
#    z 0.000000 0.000000 1.772880 
# 
# From -- ./inp_files/40564.got.cif
#   From: 2010.05.17/outbox.cif.g08.bks.cpg/sg68_21_cif.got.tgz:40564.got - 2010.06.03 18:57:09.
