data_PCOD9507568
_publ_section_title
;
Structure prediction by ZEFSAII (Michael W. Deem and Ramdas Pophale) SiO2 
 PCOD9507568
Probable space group: C C C A
;
_chemical_formula_sum "Si O2"
_cell_formula_units_Z 76
_cell_length_a 7.527187
_cell_length_b 27.865764
_cell_length_c 16.590128
_cell_angle_alpha 90.000000
_cell_angle_beta 90.000000
_cell_angle_gamma 90.000000
_cell_volume 3479.792894
_symmetry_space_group_name_H-M "C C C A"
_symmetry_group_IT_number 68
_space_group.IT_coordinate_system_code '2'
_symmetry_cell_setting 'orthorhombic'
loop_
_space_group_symop_operation_xyz
x,y,z
-x,1/2-y,z
x,1/2-y,1/2-z
-x,y,1/2-z
-x,-y,-z
x,1/2+y,-z
-x,1/2+y,1/2+z
x,-y,1/2+z
1/2+x,1/2+y,z
1/2-x,-y,z
1/2+x,-y,1/2-z
1/2-x,1/2+y,1/2-z
1/2-x,1/2-y,-z
1/2+x,y,-z
1/2-x,y,1/2+z
1/2+x,1/2-y,1/2+z
loop_
_atom_site_type_symbol
_atom_site_label
_atom_site_fract_x
_atom_site_fract_y
_atom_site_fract_z
Si Si1 0.500000 0.750000 0.750000
Si Si2 0.730127 0.583253 0.898377
Si Si3 0.500000 0.750000 0.461106
Si Si4 0.853791 0.949889 0.437406
Si Si5 0.790634 0.056377 0.769618
Si Si6 0.810573 0.805179 0.106072
O O1 0.609333 0.716726 0.812121
O O2 0.561262 0.547644 0.912770
O O3 0.810493 0.573255 0.810325
O O4 0.668397 0.638041 0.895472
O O5 0.848876 0.576041 0.976992
O O6 0.612956 0.715023 0.404624
O O7 0.602148 0.784068 0.524470
O O8 0.763813 0.923732 0.359957
O O9 0.750000 0.000000 0.445702
O O10 0.000000 0.064821 0.750000
O O11 0.750000 0.000000 0.775850
#
# Coordination Sequence:
#
# PCOD9507568 Si02
#       6
#     4  16   8  16  16  16
#     4  10  24  38  64  86 120 160 196 262 340 378
#     4  11  21  36  61  86 116 161 206 252 296 376
#     4   9  20  42  60  87 120 156 196 267 326 388
#     4  10  21  36  56  87 122 162 201 248 302 358
#     4   9  20  36  54  79 118 157 194 242 295 350
#     4  10  21  39  64  88 118 158 207 256 328 386
#
# _framework density 21.840378999999999
#
# number of rings (size 3 to 8) (size 9 to 14) (size 15 to 20)
#    0.000    2.105    0.000    2.526    4.421    3.789 
#    0.000    0.000    4.632    0.000    0.000    0.000 
#    0.000    0.000    0.000    0.000    0.000    0.000 
#
# Total GULP energy -211853.835289 kJ/mol
# GULP energy per Si atom -5575.100929 kJ/mol
# Density = 2.179067 g / cm^3
# Si number density = 21.840379 Si / 1000 Ang^3
#
#
#
# Elastic Constant Matrix: (Units=GPa)
#
#
# Indices 1 2 3 4 5 6 
#
# 1 32.9195 -2.4869 11.1244 0.0000 0.0000 0.0000
# 2 -2.4869 70.9895 17.4348 0.0000 0.0000 0.0000
# 3 11.1244 17.4348 213.9150 0.0000 0.0000 0.0000
# 4 0.0000 0.0000 0.0000 22.8578 0.0000 0.0000
# 5 0.0000 0.0000 0.0000 0.0000 26.1007 0.0000
# 6 0.0000 0.0000 0.0000 0.0000 0.0000 2.3843
#
#
#
# Elastic Compliance Matrix: (Units=1/GPa)
#
#
# Indices 1 2 3 4 5 6 
#
# 1 0.031080 0.001516 -0.001740 0.000000 0.000000 0.000000
# 2 0.001516 0.014448 -0.001256 0.000000 0.000000 0.000000
# 3 -0.001740 -0.001256 0.004868 0.000000 0.000000 0.000000
# 4 0.000000 0.000000 0.000000 0.043749 0.000000 0.000000
# 5 0.000000 0.000000 0.000000 0.000000 0.038313 0.000000
# 6 0.000000 0.000000 0.000000 0.000000 0.000000 0.419413
#
#
# Mechanical properties :
#
#
# Convention : Reuss Voigt Hill
#
# Bulk Modulus (GPa) = 21.08140 41.10762 31.09451
# Shear Modulus (GPa) = 8.76206 29.71867 19.24036
#
# Velocity S-wave (km/s) = 2.00514 3.69280 2.97131
# Velocity P-wave (km/s) = 3.87740 6.08646 5.10290
#
# Compressibility (1/GPa) = 0.04743518
#
# Stress axis : x y z
#
# Youngs Moduli (GPa) = 32.17542 69.21237 205.43863
#
# Poissons Ratio (x) = -0.10493 0.35743
# Poissons Ratio (y) = -0.04878 0.25812
# Poissons Ratio (z) = 0.05598 0.08696
#
# Static dielectric constant tensor:
#      x y z
#    x 1.943420 0.000000 0.000000 
#    y 0.000000 1.777300 0.000000 
#    z 0.000000 0.000000 1.854050 
# 
# From -- ./inp_files/28373.got.cif
#   From: 2010.05.17/outbox.cif.g08.bks.cpg/sg68_15_cif.got.tgz:28373.got - 2010.06.03 18:57:09.
