data_PCOD9507794
_publ_section_title
;
Structure prediction by ZEFSAII (Michael W. Deem and Ramdas Pophale) SiO2 
 PCOD9507794
Probable space group: C C C A
;
_chemical_formula_sum "Si O2"
_cell_formula_units_Z 116
_cell_length_a 24.576196
_cell_length_b 8.849002
_cell_length_c 27.387724
_cell_angle_alpha 90.000000
_cell_angle_beta 90.000000
_cell_angle_gamma 90.000000
_cell_volume 5956.140006
_symmetry_space_group_name_H-M "C C C A"
_symmetry_group_IT_number 68
_space_group.IT_coordinate_system_code '2'
_symmetry_cell_setting 'orthorhombic'
loop_
_space_group_symop_operation_xyz
x,y,z
-x,1/2-y,z
x,1/2-y,1/2-z
-x,y,1/2-z
-x,-y,-z
x,1/2+y,-z
-x,1/2+y,1/2+z
x,-y,1/2+z
1/2+x,1/2+y,z
1/2-x,-y,z
1/2+x,-y,1/2-z
1/2-x,1/2+y,1/2-z
1/2-x,1/2-y,-z
1/2+x,y,-z
1/2-x,y,1/2+z
1/2+x,1/2-y,1/2+z
loop_
_atom_site_type_symbol
_atom_site_label
_atom_site_fract_x
_atom_site_fract_y
_atom_site_fract_z
Si Si1 0.560782 0.192395 0.567589
Si Si2 0.745156 0.177778 0.199009
Si Si3 0.057382 0.842316 0.470454
Si Si4 0.149884 0.714179 0.654465
Si Si5 0.500000 0.750000 0.250000
Si Si6 0.936958 0.279607 0.626009
Si Si7 0.874513 0.101252 0.704510
Si Si8 0.915037 0.968876 0.801708
O O1 0.500000 0.250000 0.584308
O O2 0.579477 0.306969 0.524290
O O3 0.608169 0.197298 0.608837
O O4 0.554013 0.019391 0.545684
O O5 0.763624 0.250000 0.250000
O O6 0.784018 0.218189 0.153299
O O7 0.680184 0.199485 0.195472
O O8 0.750000 0.000000 0.205861
O O9 0.088840 0.758226 0.426338
O O10 0.000000 0.750000 0.474764
O O11 0.137535 0.569754 0.688121
O O12 0.134339 0.862576 0.684125
O O13 0.537342 0.640049 0.217514
O O14 0.917693 0.163133 0.666629
O O15 0.929765 0.442584 0.649232
O O16 0.000000 0.250000 0.619477
O O17 0.898231 0.084216 0.758811
#
# Coordination Sequence:
#
# PCOD9507794 Si02
#       8
#    16  16  16  16   4  16  16  16
#     4  11  23  38  64  89 124 159 201 259 314 373
#     4  10  21  38  64  84 118 158 212 267 292 353
#     4  10  22  39  60  89 119 157 210 247 308 371
#     4  11  23  37  59  90 116 158 211 250 311 358
#     4  12  24  36  54  80 136 168 202 240 298 380
#     4  11  24  37  58  88 126 159 203 247 309 371
#     4  11  21  43  57  89 120 167 206 250 305 359
#     4  12  24  35  58  87 124 168 203 243 302 372
#
# _framework density 19.475701000000001
#
# number of rings (size 3 to 8) (size 9 to 14) (size 15 to 20)
#    0.000    1.103    2.759    5.379    6.759    0.552 
#    0.000    0.000    0.000    0.828    0.000    0.000 
#    0.000    0.000    0.000    0.000    0.000    0.000 
#
# Total GULP energy -323182.600474 kJ/mol
# GULP energy per Si atom -5572.113801 kJ/mol
# Density = 1.943137 g / cm^3
# Si number density = 19.475701 Si / 1000 Ang^3
#
#
#
# Elastic Constant Matrix: (Units=GPa)
#
#
# Indices 1 2 3 4 5 6 
#
# 1 80.2799 22.5871 43.6833 0.0000 0.0000 0.0000
# 2 22.5871 67.4628 18.3430 0.0000 0.0000 0.0000
# 3 43.6833 18.3430 106.8183 0.0000 0.0000 0.0000
# 4 0.0000 0.0000 0.0000 59.6841 0.0000 0.0000
# 5 0.0000 0.0000 0.0000 0.0000 11.4561 0.0000
# 6 0.0000 0.0000 0.0000 0.0000 0.0000 12.7812
#
#
#
# Elastic Compliance Matrix: (Units=1/GPa)
#
#
# Indices 1 2 3 4 5 6 
#
# 1 0.016985 -0.003984 -0.006262 0.000000 0.000000 0.000000
# 2 -0.003984 0.016484 -0.001201 0.000000 0.000000 0.000000
# 3 -0.006262 -0.001201 0.012129 0.000000 0.000000 0.000000
# 4 0.000000 0.000000 0.000000 0.016755 0.000000 0.000000
# 5 0.000000 0.000000 0.000000 0.000000 0.087290 0.000000
# 6 0.000000 0.000000 0.000000 0.000000 0.000000 0.078240
#
#
# Mechanical properties :
#
#
# Convention : Reuss Voigt Hill
#
# Bulk Modulus (GPa) = 44.04757 47.08752 45.56754
# Shear Modulus (GPa) = 19.35412 28.11411 23.73412
#
# Velocity S-wave (km/s) = 3.15581 3.80353 3.49471
# Velocity P-wave (km/s) = 5.99538 6.59690 6.30332
#
# Compressibility (1/GPa) = 0.02270273
#
# Stress axis : x y z
#
# Youngs Moduli (GPa) = 58.87697 60.66671 82.44909
#
# Poissons Ratio (x) = 0.24170 0.51627
# Poissons Ratio (y) = 0.23457 0.09905
# Poissons Ratio (z) = 0.36867 0.07288
#
# Static dielectric constant tensor:
#      x y z
#    x 1.735020 0.000000 0.000000 
#    y 0.000000 1.721820 0.000000 
#    z 0.000000 0.000000 1.750850 
# 
# From -- ./inp_files/52191.got.cif
#   From: 2010.05.17/outbox.cif.g08.bks.cpg/sg68_27_cif.got.tgz:52191.got - 2010.06.03 18:57:09.
