data_PCOD9507819
_publ_section_title
;
Structure prediction by ZEFSAII (Michael W. Deem and Ramdas Pophale) SiO2 
 PCOD9507819
Probable space group: C C C A
;
_chemical_formula_sum "Si O2"
_cell_formula_units_Z 80
_cell_length_a 10.355272
_cell_length_b 25.930515
_cell_length_c 14.546392
_cell_angle_alpha 90.000000
_cell_angle_beta 90.000000
_cell_angle_gamma 90.000000
_cell_volume 3905.961336
_symmetry_space_group_name_H-M "C C C A"
_symmetry_group_IT_number 68
_space_group.IT_coordinate_system_code '2'
_symmetry_cell_setting 'orthorhombic'
loop_
_space_group_symop_operation_xyz
x,y,z
-x,1/2-y,z
x,1/2-y,1/2-z
-x,y,1/2-z
-x,-y,-z
x,1/2+y,-z
-x,1/2+y,1/2+z
x,-y,1/2+z
1/2+x,1/2+y,z
1/2-x,-y,z
1/2+x,-y,1/2-z
1/2-x,1/2+y,1/2-z
1/2-x,1/2-y,-z
1/2+x,y,-z
1/2-x,y,1/2+z
1/2+x,1/2-y,1/2+z
loop_
_atom_site_type_symbol
_atom_site_label
_atom_site_fract_x
_atom_site_fract_y
_atom_site_fract_z
Si Si1 0.878100 0.339642 0.190467
Si Si2 0.620205 0.531083 0.909877
Si Si3 0.731074 0.131167 0.144017
Si Si4 0.495065 0.928114 0.402506
Si Si5 0.124914 0.214908 0.995405
O O1 0.760187 0.339742 0.260937
O O2 0.881596 0.308772 0.097004
O O3 0.000000 0.322029 0.250000
O O4 0.901514 0.398787 0.159475
O O5 0.750000 0.500000 0.942588
O O6 0.656776 0.577533 0.843383
O O7 0.540130 0.484659 0.866354
O O8 0.548818 0.558442 0.996050
O O9 0.869264 0.110278 0.100938
O O10 0.655145 0.169021 0.075995
O O11 0.000000 0.250000 0.974774
O O12 0.250000 0.250000 0.000000
#
# Coordination Sequence:
#
# PCOD9507819 Si02
#       5
#    16  16  16  16  16
#     4  10  21  41  67  95 126 172 219 269 325 417
#     4   9  17  32  62  94 128 173 213 267 318 394
#     4  10  21  38  65  92 132 165 220 280 335 395
#     4   9  17  35  63  92 132 174 219 257 328 403
#     4  12  26  44  71  96 126 173 228 282 345 398
#
# _framework density 20.481514000000001
#
# number of rings (size 3 to 8) (size 9 to 14) (size 15 to 20)
#    0.000    2.000    2.000    2.400    0.000    2.800 
#    0.000    9.000    4.400    0.000    0.000    0.000 
#    0.000    0.000    0.000    0.000    0.000    0.000 
#
# Total GULP energy -222963.006778 kJ/mol
# GULP energy per Si atom -5574.075169 kJ/mol
# Density = 2.043490 g / cm^3
# Si number density = 20.481514 Si / 1000 Ang^3
#
#
#
# Elastic Constant Matrix: (Units=GPa)
#
#
# Indices 1 2 3 4 5 6 
#
# 1 60.2922 46.2684 24.6491 0.0000 0.0000 0.0000
# 2 46.2684 113.5501 45.2999 0.0000 0.0000 0.0000
# 3 24.6491 45.2999 94.6558 0.0000 0.0000 0.0000
# 4 0.0000 0.0000 0.0000 6.2887 0.0000 0.0000
# 5 0.0000 0.0000 0.0000 0.0000 30.2309 0.0000
# 6 0.0000 0.0000 0.0000 0.0000 0.0000 31.4009
#
#
#
# Elastic Compliance Matrix: (Units=1/GPa)
#
#
# Indices 1 2 3 4 5 6 
#
# 1 0.024427 -0.009165 -0.001975 0.000000 0.000000 0.000000
# 2 -0.009165 0.014324 -0.004468 0.000000 0.000000 0.000000
# 3 -0.001975 -0.004468 0.013217 0.000000 0.000000 0.000000
# 4 0.000000 0.000000 0.000000 0.159015 0.000000 0.000000
# 5 0.000000 0.000000 0.000000 0.000000 0.033079 0.000000
# 6 0.000000 0.000000 0.000000 0.000000 0.000000 0.031846
#
#
# Mechanical properties :
#
#
# Convention : Reuss Voigt Hill
#
# Bulk Modulus (GPa) = 48.18993 55.65920 51.92457
# Shear Modulus (GPa) = 15.92146 23.73616 19.82881
#
# Velocity S-wave (km/s) = 2.79114 3.40796 3.11486
# Velocity P-wave (km/s) = 5.82811 6.53605 6.19221
#
# Compressibility (1/GPa) = 0.02075122
#
# Stress axis : x y z
#
# Youngs Moduli (GPa) = 40.93871 69.81319 75.65890
#
# Poissons Ratio (x) = 0.63987 0.14939
# Poissons Ratio (y) = 0.37522 0.33807
# Poissons Ratio (z) = 0.08084 0.31195
#
# Static dielectric constant tensor:
#      x y z
#    x 1.782740 0.000000 0.000000 
#    y 0.000000 1.765310 0.000000 
#    z 0.000000 0.000000 1.935980 
# 
# From -- ./inp_files/20863.got.cif
#   From: 2010.05.17/outbox.cif.g08.bks.cpg/sg68_11_cif.got.tgz:20863.got - 2010.06.03 18:57:09.
