data_PCOD9507449
_publ_section_title
;
Structure prediction by ZEFSAII (Michael W. Deem and Ramdas Pophale) SiO2 
 PCOD9507449
Probable space group: C C C A
;
_chemical_formula_sum "Si O2"
_cell_formula_units_Z 104
_cell_length_a 22.030070
_cell_length_b 24.796024
_cell_length_c 9.168674
_cell_angle_alpha 90.000000
_cell_angle_beta 90.000000
_cell_angle_gamma 90.000000
_cell_volume 5008.462846
_symmetry_space_group_name_H-M "C C C A"
_symmetry_group_IT_number 68
_space_group.IT_coordinate_system_code '2'
_symmetry_cell_setting 'orthorhombic'
loop_
_space_group_symop_operation_xyz
x,y,z
-x,1/2-y,z
x,1/2-y,1/2-z
-x,y,1/2-z
-x,-y,-z
x,1/2+y,-z
-x,1/2+y,1/2+z
x,-y,1/2+z
1/2+x,1/2+y,z
1/2-x,-y,z
1/2+x,-y,1/2-z
1/2-x,1/2+y,1/2-z
1/2-x,1/2-y,-z
1/2+x,y,-z
1/2-x,y,1/2+z
1/2+x,1/2-y,1/2+z
loop_
_atom_site_type_symbol
_atom_site_label
_atom_site_fract_x
_atom_site_fract_y
_atom_site_fract_z
Si Si1 0.224285 0.098079 0.040762
Si Si2 0.090974 0.567977 0.899631
Si Si3 0.500000 0.750000 0.750000
Si Si4 0.298044 0.780919 0.096827
Si Si5 0.571487 0.189232 0.998527
Si Si6 0.500000 0.250000 0.750000
Si Si7 0.437253 0.490896 0.179821
Si Si8 0.699309 0.045993 0.247788
O O1 0.164125 0.068408 0.102774
O O2 0.224168 0.157453 0.107034
O O3 0.283579 0.066663 0.092372
O O4 0.214560 0.093248 0.868520
O O5 0.073501 0.624943 0.972360
O O6 0.067466 0.552379 0.739340
O O7 0.065832 0.522105 0.008798
O O8 0.461011 0.711423 0.642959
O O9 0.306236 0.750000 0.250000
O O10 0.361063 0.786944 0.010764
O O11 0.250000 0.750000 0.000000
O O12 0.538787 0.213085 0.856764
O O13 0.500000 0.468716 0.250000
O O14 0.371777 0.467241 0.232814
O O15 0.750000 0.000000 0.212627
#
# Coordination Sequence:
#
# PCOD9507449 Si02
#       8
#    16  16   4  16  16   4  16  16
#     4  10  22  39  63  92 118 168 216 261 312 390
#     4  10  23  42  63  92 133 162 218 259 322 391
#     4  10  24  46  74  92 128 170 228 272 336 388
#     4  11  23  42  65  96 135 162 211 281 338 389
#     4  10  23  44  69  97 125 173 220 278 322 405
#     4  10  20  46  70  92 124 174 224 260 332 380
#     4  11  24  41  60  94 131 171 208 268 320 388
#     4  11  21  39  65  87 125 169 217 259 312 381
#
# _framework density 20.764852999999999
#
# number of rings (size 3 to 8) (size 9 to 14) (size 15 to 20)
#    0.000    1.538    2.308    1.846    5.385    0.000 
#    0.000    0.000    0.000    0.000    0.000    0.000 
#    0.000    0.000    0.000    0.000    0.000    0.000 
#
# Total GULP energy -289989.370809 kJ/mol
# GULP energy per Si atom -5576.718669 kJ/mol
# Density = 2.071759 g / cm^3
# Si number density = 20.764853 Si / 1000 Ang^3
#
#
#
# Elastic Constant Matrix: (Units=GPa)
#
#
# Indices 1 2 3 4 5 6 
#
# 1 123.6591 49.6329 31.8535 0.0000 0.0000 0.0000
# 2 49.6329 86.5494 56.9991 0.0000 0.0000 0.0000
# 3 31.8535 56.9991 98.0304 0.0000 0.0000 0.0000
# 4 0.0000 0.0000 0.0000 12.0963 0.0000 0.0000
# 5 0.0000 0.0000 0.0000 0.0000 8.7958 0.0000
# 6 0.0000 0.0000 0.0000 0.0000 0.0000 22.6487
#
#
#
# Elastic Compliance Matrix: (Units=1/GPa)
#
#
# Indices 1 2 3 4 5 6 
#
# 1 0.010506 -0.006120 0.000145 0.000000 0.000000 0.000000
# 2 -0.006120 0.022289 -0.010971 0.000000 0.000000 0.000000
# 3 0.000145 -0.010971 0.016533 0.000000 0.000000 0.000000
# 4 0.000000 0.000000 0.000000 0.082670 0.000000 0.000000
# 5 0.000000 0.000000 0.000000 0.000000 0.113690 0.000000
# 6 0.000000 0.000000 0.000000 0.000000 0.000000 0.044153
#
#
# Mechanical properties :
#
#
# Convention : Reuss Voigt Hill
#
# Bulk Modulus (GPa) = 64.78817 65.02331 64.90574
# Shear Modulus (GPa) = 15.20318 20.02506 17.61412
#
# Velocity S-wave (km/s) = 2.70878 3.10880 2.91566
# Velocity P-wave (km/s) = 6.40718 6.65344 6.53147
#
# Compressibility (1/GPa) = 0.01543492
#
# Stress axis : x y z
#
# Youngs Moduli (GPa) = 95.18500 44.86506 60.48503
#
# Poissons Ratio (x) = 0.27458 -0.00875
# Poissons Ratio (y) = 0.58254 0.66359
# Poissons Ratio (z) = -0.01378 0.49222
#
# Static dielectric constant tensor:
#      x y z
#    x 1.753400 0.000000 0.000000 
#    y 0.000000 1.844620 0.000000 
#    z 0.000000 0.000000 1.756200 
# 
# From -- ./inp_files/7409.got.cif
#   From: 2010.05.17/outbox.cif.g08.bks.cpg/sg68_4_cif.got.tgz:7409.got - 2010.06.03 18:57:09.
