data_PCOD9507290
_publ_section_title
;
Structure prediction by ZEFSAII (Michael W. Deem and Ramdas Pophale) SiO2 
 PCOD9507290
Probable space group: C C C A
;
_chemical_formula_sum "Si O2"
_cell_formula_units_Z 96
_cell_length_a 14.945520
_cell_length_b 14.225980
_cell_length_c 24.094101
_cell_angle_alpha 90.000000
_cell_angle_beta 90.000000
_cell_angle_gamma 90.000000
_cell_volume 5122.759300
_symmetry_space_group_name_H-M "C C C A"
_symmetry_group_IT_number 68
_space_group.IT_coordinate_system_code '2'
_symmetry_cell_setting 'orthorhombic'
loop_
_space_group_symop_operation_xyz
x,y,z
-x,1/2-y,z
x,1/2-y,1/2-z
-x,y,1/2-z
-x,-y,-z
x,1/2+y,-z
-x,1/2+y,1/2+z
x,-y,1/2+z
1/2+x,1/2+y,z
1/2-x,-y,z
1/2+x,-y,1/2-z
1/2-x,1/2+y,1/2-z
1/2-x,1/2-y,-z
1/2+x,y,-z
1/2-x,y,1/2+z
1/2+x,1/2-y,1/2+z
loop_
_atom_site_type_symbol
_atom_site_label
_atom_site_fract_x
_atom_site_fract_y
_atom_site_fract_z
Si Si1 0.396350 0.512595 0.650863
Si Si2 0.200233 0.793980 0.054992
Si Si3 0.500000 0.585979 0.250000
Si Si4 0.139164 0.250000 0.250000
Si Si5 0.250000 0.000000 0.527407
Si Si6 0.500000 0.250000 0.030432
Si Si7 0.239841 0.846862 0.848855
Si Si8 0.428405 0.562970 0.528566
O O1 0.463313 0.477217 0.698978
O O2 0.323951 0.589869 0.670547
O O3 0.337751 0.420789 0.633826
O O4 0.437842 0.557428 0.595069
O O5 0.228701 0.903384 0.059929
O O6 0.231133 0.722463 0.102467
O O7 0.090822 0.793777 0.057041
O O8 0.250000 0.750000 0.000000
O O9 0.578276 0.659878 0.233367
O O10 0.199363 0.285054 0.199915
O O11 0.331977 0.026651 0.487898
O O12 0.549631 0.163811 0.002026
O O13 0.500000 0.500000 0.500000
#
# Coordination Sequence:
#
# PCOD9507290 Si02
#       8
#    16  16   8   8   8   8  16  16
#     4  10  20  40  65  87 117 163 202 246 307 368
#     4  12  23  41  62  92 128 167 206 256 311 372
#     4   9  20  40  64  87 116 150 214 257 292 363
#     4   9  20  42  60  89 116 158 202 259 302 359
#     4  12  24  40  62  92 128 168 210 248 306 376
#     4  12  24  40  60  91 130 159 210 254 308 366
#     4  10  21  40  64  86 121 162 199 245 312 371
#     4  12  24  39  62  93 126 162 206 256 304 368
#
# _framework density 18.739902000000001
#
# number of rings (size 3 to 8) (size 9 to 14) (size 15 to 20)
#    0.000    1.167    5.000    2.000    0.000    1.333 
#    3.000    1.667    0.000    0.000    0.000    0.000 
#    0.000    0.000    0.000    0.000    0.000    0.000 
#
# Total GULP energy -267266.906984 kJ/mol
# GULP energy per Si atom -5568.060562 kJ/mol
# Density = 1.869725 g / cm^3
# Si number density = 18.739902 Si / 1000 Ang^3
#
#
#
# Elastic Constant Matrix: (Units=GPa)
#
#
# Indices 1 2 3 4 5 6 
#
# 1 134.3255 50.1438 56.2081 0.0000 0.0000 0.0000
# 2 50.1438 134.7221 36.9337 0.0000 0.0000 0.0000
# 3 56.2081 36.9337 56.9905 0.0000 0.0000 0.0000
# 4 0.0000 0.0000 0.0000 5.3124 0.0000 0.0000
# 5 0.0000 0.0000 0.0000 0.0000 11.8381 0.0000
# 6 0.0000 0.0000 0.0000 0.0000 0.0000 33.3240
#
#
#
# Elastic Compliance Matrix: (Units=1/GPa)
#
#
# Indices 1 2 3 4 5 6 
#
# 1 0.012955 -0.001604 -0.011738 0.000000 0.000000 0.000000
# 2 -0.001604 0.009225 -0.004396 0.000000 0.000000 0.000000
# 3 -0.011738 -0.004396 0.031972 0.000000 0.000000 0.000000
# 4 0.000000 0.000000 0.000000 0.188239 0.000000 0.000000
# 5 0.000000 0.000000 0.000000 0.000000 0.084473 0.000000
# 6 0.000000 0.000000 0.000000 0.000000 0.000000 0.030008
#
#
# Mechanical properties :
#
#
# Convention : Reuss Voigt Hill
#
# Bulk Modulus (GPa) = 53.54383 68.06770 60.80577
# Shear Modulus (GPa) = 12.54471 22.27840 17.41155
#
# Velocity S-wave (km/s) = 2.59011 3.45167 3.05145
# Velocity P-wave (km/s) = 6.13017 7.23094 6.70319
#
# Compressibility (1/GPa) = 0.01867629
#
# Stress axis : x y z
#
# Youngs Moduli (GPa) = 77.19073 108.40139 31.27702
#
# Poissons Ratio (x) = 0.17388 0.36712
# Poissons Ratio (y) = 0.12382 0.13751
# Poissons Ratio (z) = 0.90603 0.47658
#
# Static dielectric constant tensor:
#      x y z
#    x 1.673070 0.000000 0.000000 
#    y 0.000000 1.665970 0.000000 
#    z 0.000000 0.000000 1.583650 
# 
# From -- ./inp_files/45499.got.cif
#   From: 2010.05.17/outbox.cif.g08.bks.cpg/sg68_23_cif.got.tgz:45499.got - 2010.06.03 18:57:09.
