data_PCOD9507166
_publ_section_title
;
Structure prediction by ZEFSAII (Michael W. Deem and Ramdas Pophale) SiO2 
 PCOD9507166
Probable space group: C C C A
;
_chemical_formula_sum "Si O2"
_cell_formula_units_Z 72
_cell_length_a 20.150527
_cell_length_b 23.941325
_cell_length_c 5.457270
_cell_angle_alpha 90.000000
_cell_angle_beta 90.000000
_cell_angle_gamma 90.000000
_cell_volume 2632.752490
_symmetry_space_group_name_H-M "C C C A"
_symmetry_group_IT_number 68
_space_group.IT_coordinate_system_code '2'
_symmetry_cell_setting 'orthorhombic'
loop_
_space_group_symop_operation_xyz
x,y,z
-x,1/2-y,z
x,1/2-y,1/2-z
-x,y,1/2-z
-x,-y,-z
x,1/2+y,-z
-x,1/2+y,1/2+z
x,-y,1/2+z
1/2+x,1/2+y,z
1/2-x,-y,z
1/2+x,-y,1/2-z
1/2-x,1/2+y,1/2-z
1/2-x,1/2-y,-z
1/2+x,y,-z
1/2-x,y,1/2+z
1/2+x,1/2-y,1/2+z
loop_
_atom_site_type_symbol
_atom_site_label
_atom_site_fract_x
_atom_site_fract_y
_atom_site_fract_z
Si Si1 0.000000 0.059545 0.750000
Si Si2 0.131658 0.517581 0.766433
Si Si3 0.918039 0.628224 0.902591
Si Si4 0.690547 0.750000 0.750000
Si Si5 0.781624 0.371508 0.674793
Si Si6 0.107804 0.250000 0.250000
O O1 0.018022 0.100320 0.526042
O O2 0.063588 0.019021 0.770868
O O3 0.165817 0.506063 0.506337
O O4 0.112444 0.582312 0.781107
O O5 0.926417 0.690047 0.800052
O O6 0.859993 0.628615 0.113009
O O7 0.732880 0.694693 0.702624
O O8 0.646409 0.758506 0.506878
O O9 0.742912 0.393869 0.435893
#
# Coordination Sequence:
#
# PCOD9507166 Si02
#       6
#     8  16  16   8  16   8
#     4  10  22  44  76 100 124 180 240 286 320 386
#     4  10  21  39  68  96 117 160 226 284 320 369
#     4  10  22  41  68 100 137 172 228 279 336 407
#     4  10  20  39  62  92 128 180 236 265 312 406
#     4  11  22  37  62  94 132 176 219 273 331 395
#     4  10  22  37  64 100 140 179 206 276 360 400
#
# _framework density 27.347802999999999
#
# number of rings (size 3 to 8) (size 9 to 14) (size 15 to 20)
#    0.000    1.778    0.000    6.000    0.000   11.556 
#    0.000    0.000    0.000   83.333    0.000    0.000 
#    0.000    0.000    0.000    0.000    0.000    0.000 
#
# Total GULP energy -201553.081519 kJ/mol
# GULP energy per Si atom -5598.696709 kJ/mol
# Density = 2.728556 g / cm^3
# Si number density = 27.347803 Si / 1000 Ang^3
#
#
#
# Elastic Constant Matrix: (Units=GPa)
#
#
# Indices 1 2 3 4 5 6 
#
# 1 100.4539 42.4010 58.7451 0.0000 0.0000 0.0000
# 2 42.4010 237.0222 43.1034 0.0000 0.0000 0.0000
# 3 58.7451 43.1034 224.3317 0.0000 0.0000 0.0000
# 4 0.0000 0.0000 0.0000 47.9368 0.0000 0.0000
# 5 0.0000 0.0000 0.0000 0.0000 20.3804 0.0000
# 6 0.0000 0.0000 0.0000 0.0000 0.0000 48.7760
#
#
#
# Elastic Compliance Matrix: (Units=1/GPa)
#
#
# Indices 1 2 3 4 5 6 
#
# 1 0.012370 -0.001683 -0.002916 0.000000 0.000000 0.000000
# 2 -0.001683 0.004601 -0.000443 0.000000 0.000000 0.000000
# 3 -0.002916 -0.000443 0.005306 0.000000 0.000000 0.000000
# 4 0.000000 0.000000 0.000000 0.020861 0.000000 0.000000
# 5 0.000000 0.000000 0.000000 0.000000 0.049067 0.000000
# 6 0.000000 0.000000 0.000000 0.000000 0.000000 0.020502
#
#
# Mechanical properties :
#
#
# Convention : Reuss Voigt Hill
#
# Bulk Modulus (GPa) = 82.01184 94.47855 88.24519
# Shear Modulus (GPa) = 39.41490 51.25586 45.33538
#
# Velocity S-wave (km/s) = 3.80049 4.33393 4.07594
# Velocity P-wave (km/s) = 7.02224 7.72437 7.38166
#
# Compressibility (1/GPa) = 0.01219336
#
# Stress axis : x y z
#
# Youngs Moduli (GPa) = 80.83835 217.36076 188.44826
#
# Poissons Ratio (x) = 0.36574 0.54953
# Poissons Ratio (y) = 0.13602 0.08355
# Poissons Ratio (z) = 0.23573 0.09637
#
# Static dielectric constant tensor:
#      x y z
#    x 2.181620 0.000000 0.000000 
#    y 0.000000 2.122750 0.000000 
#    z 0.000000 0.000000 2.277140 
# 
# From -- ./inp_files/2350.got.cif
#   From: 2010.05.17/outbox.cif.g08.bks.cpg/sg68_2_cif.got.tgz:2350.got - 2010.06.03 18:57:09.
