data_PCOD9507254
_publ_section_title
;
Structure prediction by ZEFSAII (Michael W. Deem and Ramdas Pophale) SiO2 
 PCOD9507254
Probable space group: C C C A
;
_chemical_formula_sum "Si O2"
_cell_formula_units_Z 104
_cell_length_a 9.451047
_cell_length_b 20.450638
_cell_length_c 26.237218
_cell_angle_alpha 90.000000
_cell_angle_beta 90.000000
_cell_angle_gamma 90.000000
_cell_volume 5071.127945
_symmetry_space_group_name_H-M "C C C A"
_symmetry_group_IT_number 68
_space_group.IT_coordinate_system_code '2'
_symmetry_cell_setting 'orthorhombic'
loop_
_space_group_symop_operation_xyz
x,y,z
-x,1/2-y,z
x,1/2-y,1/2-z
-x,y,1/2-z
-x,-y,-z
x,1/2+y,-z
-x,1/2+y,1/2+z
x,-y,1/2+z
1/2+x,1/2+y,z
1/2-x,-y,z
1/2+x,-y,1/2-z
1/2-x,1/2+y,1/2-z
1/2-x,1/2-y,-z
1/2+x,y,-z
1/2-x,y,1/2+z
1/2+x,1/2-y,1/2+z
loop_
_atom_site_type_symbol
_atom_site_label
_atom_site_fract_x
_atom_site_fract_y
_atom_site_fract_z
Si Si1 0.969915 0.138742 0.649660
Si Si2 0.744384 0.333017 0.703649
Si Si3 0.475742 0.037622 0.068713
Si Si4 0.111518 0.474159 0.714038
Si Si5 0.526023 0.583047 0.147310
Si Si6 0.696907 0.310819 0.823620
Si Si7 0.750000 0.500000 0.487605
O O1 0.871671 0.077615 0.669701
O O2 0.844833 0.190348 0.644959
O O3 0.091263 0.165390 0.687170
O O4 0.043002 0.102167 0.602831
O O5 0.670700 0.389864 0.670901
O O6 0.722483 0.337748 0.764968
O O7 0.668933 0.265526 0.686935
O O8 0.636500 0.038356 0.047102
O O9 0.459948 0.967925 0.099823
O O10 0.357972 0.038485 0.024597
O O11 0.250000 0.500000 0.740544
O O12 0.000000 0.441304 0.750000
O O13 0.039258 0.536702 0.690280
O O14 0.418242 0.645073 0.146680
#
# Coordination Sequence:
#
# PCOD9507254 Si02
#       7
#    16  16  16  16  16  16   8
#     4  11  22  36  55  82 115 144 193 237 274 331
#     4  11  23  35  54  81 118 164 206 230 253 306
#     4  10  22  38  61  89 110 136 178 230 306 355
#     4  11  22  33  51  76 111 152 183 227 286 327
#     4  11  22  36  55  82 115 144 193 237 274 331
#     4  11  21  37  54  79 118 168 202 228 259 302
#     4  10  20  40  62  86 112 134 168 230 306 382
#
# _framework density 20.508258999999999
#
# number of rings (size 3 to 8) (size 9 to 14) (size 15 to 20)
#    0.000    1.231    1.538    5.538    4.308    3.692 
#    0.000    0.000    0.000    0.000    0.000   75.385 
#    0.000    0.000    0.000    0.000    0.000    0.000 
#
# Total GULP energy -289603.294324 kJ/mol
# GULP energy per Si atom -5569.294122 kJ/mol
# Density = 2.046158 g / cm^3
# Si number density = 20.508259 Si / 1000 Ang^3
#
#
#
# Elastic Constant Matrix: (Units=GPa)
#
#
# Indices 1 2 3 4 5 6 
#
# 1 77.2328 -4.0574 7.8257 0.0000 0.0000 0.0000
# 2 -4.0574 67.0450 18.7805 0.0000 0.0000 0.0000
# 3 7.8257 18.7805 62.0480 0.0000 0.0000 0.0000
# 4 0.0000 0.0000 0.0000 15.2000 0.0000 0.0000
# 5 0.0000 0.0000 0.0000 0.0000 34.2541 0.0000
# 6 0.0000 0.0000 0.0000 0.0000 0.0000 24.5727
#
#
#
# Elastic Compliance Matrix: (Units=1/GPa)
#
#
# Indices 1 2 3 4 5 6 
#
# 1 0.013232 0.001386 -0.002088 0.000000 0.000000 0.000000
# 2 0.001386 0.016442 -0.005151 0.000000 0.000000 0.000000
# 3 -0.002088 -0.005151 0.017939 0.000000 0.000000 0.000000
# 4 0.000000 0.000000 0.000000 0.065789 0.000000 0.000000
# 5 0.000000 0.000000 0.000000 0.000000 0.029194 0.000000
# 6 0.000000 0.000000 0.000000 0.000000 0.000000 0.040696
#
#
# Mechanical properties :
#
#
# Convention : Reuss Voigt Hill
#
# Bulk Modulus (GPa) = 27.85080 27.93594 27.89337
# Shear Modulus (GPa) = 24.15823 27.05717 25.60770
#
# Velocity S-wave (km/s) = 3.43589 3.63620 3.53746
# Velocity P-wave (km/s) = 5.41758 5.59291 5.50594
#
# Compressibility (1/GPa) = 0.03590561
#
# Stress axis : x y z
#
# Youngs Moduli (GPa) = 75.57286 60.81892 55.74394
#
# Poissons Ratio (x) = -0.08428 0.11641
# Poissons Ratio (y) = -0.10473 0.28716
# Poissons Ratio (z) = 0.15782 0.31331
#
# Static dielectric constant tensor:
#      x y z
#    x 2.201330 0.000000 0.000000 
#    y 0.000000 1.785600 0.000000 
#    z 0.000000 0.000000 1.771700 
# 
# From -- ./inp_files/49454.got.cif
#   From: 2010.05.17/outbox.cif.g08.bks.cpg/sg68_25_cif.got.tgz:49454.got - 2010.06.03 18:57:09.
