data_PCOD9507782
_publ_section_title
;
Structure prediction by ZEFSAII (Michael W. Deem and Ramdas Pophale) SiO2 
 PCOD9507782
Probable space group: C C C A
;
_chemical_formula_sum "Si O2"
_cell_formula_units_Z 56
_cell_length_a 14.157019
_cell_length_b 5.310306
_cell_length_c 30.218144
_cell_angle_alpha 90.000000
_cell_angle_beta 90.000000
_cell_angle_gamma 90.000000
_cell_volume 2271.742740
_symmetry_space_group_name_H-M "C C C A"
_symmetry_group_IT_number 68
_space_group.IT_coordinate_system_code '2'
_symmetry_cell_setting 'orthorhombic'
loop_
_space_group_symop_operation_xyz
x,y,z
-x,1/2-y,z
x,1/2-y,1/2-z
-x,y,1/2-z
-x,-y,-z
x,1/2+y,-z
-x,1/2+y,1/2+z
x,-y,1/2+z
1/2+x,1/2+y,z
1/2-x,-y,z
1/2+x,-y,1/2-z
1/2-x,1/2+y,1/2-z
1/2-x,1/2-y,-z
1/2+x,y,-z
1/2-x,y,1/2+z
1/2+x,1/2-y,1/2+z
loop_
_atom_site_type_symbol
_atom_site_label
_atom_site_fract_x
_atom_site_fract_y
_atom_site_fract_z
Si Si1 0.364214 0.510649 0.474910
Si Si2 0.103303 0.538283 0.875296
Si Si3 0.811379 0.750000 0.250000
Si Si4 0.391305 0.544362 0.660270
O O1 0.391395 0.231477 0.490946
O O2 0.250000 0.500000 0.471402
O O3 0.402996 0.588461 0.427090
O O4 0.148536 0.263143 0.871024
O O5 0.000580 0.497857 0.853002
O O6 0.149944 0.768772 0.849090
O O7 0.750000 0.500000 0.237981
O O8 0.873556 0.648217 0.290827
#
# Coordination Sequence:
#
# PCOD9507782 Si02
#       4
#    16  16   8  16
#     4  10  21  38  62  95 134 173 214 264 324 390
#     4  10  21  41  67  94 132 173 217 273 328 395
#     4  12  26  45  68  97 134 174 224 284 346 413
#     4  10  23  42  63  95 128 170 218 271 337 398
#
# _framework density 24.650680000000001
#
# number of rings (size 3 to 8) (size 9 to 14) (size 15 to 20)
#    0.000    1.714    0.000    3.429    0.000    5.714 
#    0.000   22.857    0.000    0.000    0.000    0.000 
#    0.000    0.000    0.000    0.000    0.000    0.000 
#
# Total GULP energy -156487.211562 kJ/mol
# GULP energy per Si atom -5588.828984 kJ/mol
# Density = 2.459457 g / cm^3
# Si number density = 24.650680 Si / 1000 Ang^3
#
#
#
# Elastic Constant Matrix: (Units=GPa)
#
#
# Indices 1 2 3 4 5 6 
#
# 1 128.2119 13.1351 23.9940 0.0000 0.0000 0.0000
# 2 13.1351 222.4690 42.5738 0.0000 0.0000 0.0000
# 3 23.9940 42.5738 161.6862 0.0000 0.0000 0.0000
# 4 0.0000 0.0000 0.0000 52.8844 0.0000 0.0000
# 5 0.0000 0.0000 0.0000 0.0000 -6.6998 0.0000
# 6 0.0000 0.0000 0.0000 0.0000 0.0000 -2.0214
#
#
#
# Elastic Compliance Matrix: (Units=1/GPa)
#
#
# Indices 1 2 3 4 5 6 
#
# 1 0.008037 -0.000259 -0.001124 0.000000 0.000000 0.000000
# 2 -0.000259 0.004742 -0.001210 0.000000 0.000000 0.000000
# 3 -0.001124 -0.001210 0.006670 0.000000 0.000000 0.000000
# 4 0.000000 0.000000 0.000000 0.018909 0.000000 0.000000
# 5 0.000000 0.000000 0.000000 0.000000 -0.149258 0.000000
# 6 0.000000 0.000000 0.000000 0.000000 0.000000 -0.494712
#
#
# Mechanical properties :
#
#
# Convention : Reuss Voigt Hill
#
# Bulk Modulus (GPa) = 70.12022 74.64142 72.38082
# Shear Modulus (GPa) = -8.39390 37.67693 14.64151
#
# Velocity S-wave (km/s) = -1.84730 3.91376 2.43977
# Velocity P-wave (km/s) = 4.89462 7.12522 6.11253
#
# Compressibility (1/GPa) = 0.01426122
#
# Stress axis : x y z
#
# Youngs Moduli (GPa) = 124.43121 210.88600 149.91825
#
# Poissons Ratio (x) = 0.05469 0.16856
# Poissons Ratio (y) = 0.03227 0.18142
# Poissons Ratio (z) = 0.13990 0.25520
#
# Static dielectric constant tensor:
#      x y z
#    x 1.821120 0.000000 0.000000 
#    y 0.000000 2.023340 0.000000 
#    z 0.000000 0.000000 1.889640 
# 
# From -- ./inp_files/47997.got.cif
#   From: 2010.05.17/outbox.cif.g08.bks.cpg/sg68_24_cif.got.tgz:47997.got - 2010.06.03 18:57:09.
