data_PCOD9507740
_publ_section_title
;
Structure prediction by ZEFSAII (Michael W. Deem and Ramdas Pophale) SiO2 
 PCOD9507740
Probable space group: C C C A
;
_chemical_formula_sum "Si O2"
_cell_formula_units_Z 80
_cell_length_a 13.345685
_cell_length_b 24.938952
_cell_length_c 11.691772
_cell_angle_alpha 90.000000
_cell_angle_beta 90.000000
_cell_angle_gamma 90.000000
_cell_volume 3891.342048
_symmetry_space_group_name_H-M "C C C A"
_symmetry_group_IT_number 68
_space_group.IT_coordinate_system_code '2'
_symmetry_cell_setting 'orthorhombic'
loop_
_space_group_symop_operation_xyz
x,y,z
-x,1/2-y,z
x,1/2-y,1/2-z
-x,y,1/2-z
-x,-y,-z
x,1/2+y,-z
-x,1/2+y,1/2+z
x,-y,1/2+z
1/2+x,1/2+y,z
1/2-x,-y,z
1/2+x,-y,1/2-z
1/2-x,1/2+y,1/2-z
1/2-x,1/2-y,-z
1/2+x,y,-z
1/2-x,y,1/2+z
1/2+x,1/2-y,1/2+z
loop_
_atom_site_type_symbol
_atom_site_label
_atom_site_fract_x
_atom_site_fract_y
_atom_site_fract_z
Si Si1 0.572882 0.614314 0.157236
Si Si2 0.252805 0.062486 0.036844
Si Si3 0.604593 0.624143 0.705391
Si Si4 0.780983 0.348109 0.349608
Si Si5 0.938628 0.195839 0.009427
O O1 0.500000 0.586166 0.250000
O O2 0.640913 0.578613 0.075870
O O3 0.652172 0.646515 0.235732
O O4 0.504735 0.653920 0.083312
O O5 0.326816 0.079815 0.141054
O O6 0.250000 0.000000 0.011484
O O7 0.286659 0.098869 0.929770
O O8 0.500000 0.601315 0.750000
O O9 0.667522 0.652036 0.806845
O O10 0.580880 0.669626 0.612630
O O11 0.831474 0.301620 0.424862
O O12 0.000000 0.250000 0.004075
#
# Coordination Sequence:
#
# PCOD9507740 Si02
#       5
#    16  16  16  16  16
#     4   9  19  37  58  84 117 150 193 244 293 350
#     4  10  21  38  60  86 118 158 202 246 295 353
#     4  10  21  40  60  87 126 158 194 247 297 354
#     4   9  20  38  59  87 121 152 192 245 293 347
#     4  10  21  40  64  89 117 155 199 244 295 354
#
# _framework density 20.558461000000001
#
# number of rings (size 3 to 8) (size 9 to 14) (size 15 to 20)
#    0.000    2.400    0.000    1.200    0.000    8.000 
#    0.000   36.000    0.000    0.000    0.000    0.000 
#    0.000    0.000    0.000    0.000    0.000    0.000 
#
# Total GULP energy -223143.918799 kJ/mol
# GULP energy per Si atom -5578.597970 kJ/mol
# Density = 2.051167 g / cm^3
# Si number density = 20.558461 Si / 1000 Ang^3
#
#
#
# Elastic Constant Matrix: (Units=GPa)
#
#
# Indices 1 2 3 4 5 6 
#
# 1 111.4532 25.7408 25.0100 0.0000 0.0000 0.0000
# 2 25.7408 84.3628 28.6850 0.0000 0.0000 0.0000
# 3 25.0100 28.6850 64.4447 0.0000 0.0000 0.0000
# 4 0.0000 0.0000 0.0000 4.6690 0.0000 0.0000
# 5 0.0000 0.0000 0.0000 0.0000 -78.0809 0.0000
# 6 0.0000 0.0000 0.0000 0.0000 0.0000 20.4580
#
#
#
# Elastic Compliance Matrix: (Units=1/GPa)
#
#
# Indices 1 2 3 4 5 6 
#
# 1 0.010125 -0.002066 -0.003010 0.000000 0.000000 0.000000
# 2 -0.002066 0.014389 -0.005603 0.000000 0.000000 0.000000
# 3 -0.003010 -0.005603 0.019179 0.000000 0.000000 0.000000
# 4 0.000000 0.000000 0.000000 0.214177 0.000000 0.000000
# 5 0.000000 0.000000 0.000000 0.000000 -0.012807 0.000000
# 6 0.000000 0.000000 0.000000 0.000000 0.000000 0.048881
#
#
# Mechanical properties :
#
#
# Convention : Reuss Voigt Hill
#
# Bulk Modulus (GPa) = 44.77114 46.57024 45.67069
# Shear Modulus (GPa) = 15.49206 1.46422 8.47814
#
# Velocity S-wave (km/s) = 2.74809 0.84485 2.03295
# Velocity P-wave (km/s) = 5.64748 4.86348 5.27008
#
# Compressibility (1/GPa) = 0.02233582
#
# Stress axis : x y z
#
# Youngs Moduli (GPa) = 98.76641 69.49734 52.13999
#
# Poissons Ratio (x) = 0.14358 0.15693
# Poissons Ratio (y) = 0.20405 0.29214
# Poissons Ratio (z) = 0.29726 0.38939
#
# Static dielectric constant tensor:
#      x y z
#    x 1.796270 0.000000 0.000000 
#    y 0.000000 1.683070 0.000000 
#    z 0.000000 0.000000 1.748720 
# 
# From -- ./inp_files/13204.got.cif
#   From: 2010.05.17/outbox.cif.g08.bks.cpg/sg68_7_cif.got.tgz:13204.got - 2010.06.03 18:57:09.
