data_PCOD9507594
_publ_section_title
;
Structure prediction by ZEFSAII (Michael W. Deem and Ramdas Pophale) SiO2 
 PCOD9507594
Probable space group: C C C A
;
_chemical_formula_sum "Si O2"
_cell_formula_units_Z 80
_cell_length_a 18.271985
_cell_length_b 8.305885
_cell_length_c 24.537701
_cell_angle_alpha 90.000000
_cell_angle_beta 90.000000
_cell_angle_gamma 90.000000
_cell_volume 3723.964343
_symmetry_space_group_name_H-M "C C C A"
_symmetry_group_IT_number 68
_space_group.IT_coordinate_system_code '2'
_symmetry_cell_setting 'orthorhombic'
loop_
_space_group_symop_operation_xyz
x,y,z
-x,1/2-y,z
x,1/2-y,1/2-z
-x,y,1/2-z
-x,-y,-z
x,1/2+y,-z
-x,1/2+y,1/2+z
x,-y,1/2+z
1/2+x,1/2+y,z
1/2-x,-y,z
1/2+x,-y,1/2-z
1/2-x,1/2+y,1/2-z
1/2-x,1/2-y,-z
1/2+x,y,-z
1/2-x,y,1/2+z
1/2+x,1/2-y,1/2+z
loop_
_atom_site_type_symbol
_atom_site_label
_atom_site_fract_x
_atom_site_fract_y
_atom_site_fract_z
Si Si1 0.104463 0.058050 0.039631
Si Si2 0.725171 0.185133 0.884717
Si Si3 0.626915 0.809093 0.577343
Si Si4 0.400405 0.294446 0.812189
Si Si5 0.510330 0.525210 0.375455
O O1 0.161739 0.179145 0.069076
O O2 0.024329 0.078031 0.066379
O O3 0.118121 0.873433 0.056671
O O4 0.117344 0.082342 0.976177
O O5 0.791970 0.304600 0.896947
O O6 0.684215 0.209679 0.827834
O O7 0.750000 0.000000 0.884751
O O8 0.561328 0.869244 0.616286
O O9 0.414035 0.250000 0.750000
O O10 0.436292 0.155651 0.848992
O O11 0.439926 0.458532 0.834302
#
# Coordination Sequence:
#
# PCOD9507594 Si02
#       5
#    16  16  16  16  16
#     4  10  22  37  61  90 136 180 210 254 320 389
#     4   9  21  42  60  88 132 170 217 269 323 387
#     4  11  22  37  62  95 137 175 213 260 315 397
#     4  10  22  43  68  89 122 170 222 280 338 399
#     4  10  21  36  61  91 124 159 224 262 318 379
#
# _framework density 21.482482000000001
#
# number of rings (size 3 to 8) (size 9 to 14) (size 15 to 20)
#    0.000    2.000    0.000    3.000    8.400    0.800 
#    3.600    0.000    0.000   14.400    0.000    0.000 
#    0.000    0.000    0.000    0.000    0.000    0.000 
#
# Total GULP energy -222896.429369 kJ/mol
# GULP energy per Si atom -5572.410734 kJ/mol
# Density = 2.143359 g / cm^3
# Si number density = 21.482482 Si / 1000 Ang^3
#
#
#
# Elastic Constant Matrix: (Units=GPa)
#
#
# Indices 1 2 3 4 5 6 
#
# 1 163.8901 52.8276 74.0859 0.0000 0.0000 0.0000
# 2 52.8276 74.7690 41.1135 0.0000 0.0000 0.0000
# 3 74.0859 41.1135 96.3227 0.0000 0.0000 0.0000
# 4 0.0000 0.0000 0.0000 16.2444 0.0000 0.0000
# 5 0.0000 0.0000 0.0000 0.0000 22.0731 0.0000
# 6 0.0000 0.0000 0.0000 0.0000 0.0000 29.7090
#
#
#
# Elastic Compliance Matrix: (Units=1/GPa)
#
#
# Indices 1 2 3 4 5 6 
#
# 1 0.010096 -0.003742 -0.006168 0.000000 0.000000 0.000000
# 2 -0.003742 0.018863 -0.005173 0.000000 0.000000 0.000000
# 3 -0.006168 -0.005173 0.017334 0.000000 0.000000 0.000000
# 4 0.000000 0.000000 0.000000 0.061560 0.000000 0.000000
# 5 0.000000 0.000000 0.000000 0.000000 0.045304 0.000000
# 6 0.000000 0.000000 0.000000 0.000000 0.000000 0.033660
#
#
# Mechanical properties :
#
#
# Convention : Reuss Voigt Hill
#
# Bulk Modulus (GPa) = 62.00952 74.55953 68.28452
# Shear Modulus (GPa) = 22.48618 24.73562 23.61090
#
# Velocity S-wave (km/s) = 3.23882 3.39696 3.31883
# Velocity P-wave (km/s) = 6.55091 7.08295 6.82212
#
# Compressibility (1/GPa) = 0.01612656
#
# Stress axis : x y z
#
# Youngs Moduli (GPa) = 99.04888 53.01432 57.68915
#
# Poissons Ratio (x) = 0.19835 0.35584
# Poissons Ratio (y) = 0.37059 0.29845
# Poissons Ratio (z) = 0.61096 0.27427
#
# Static dielectric constant tensor:
#      x y z
#    x 1.885630 0.000000 0.000000 
#    y 0.000000 1.829810 0.000000 
#    z 0.000000 0.000000 1.772790 
# 
# From -- ./inp_files/51274.got.cif
#   From: 2010.05.17/outbox.cif.g08.bks.cpg/sg68_26_cif.got.tgz:51274.got - 2010.06.03 18:57:09.
