data_PCOD9507332
_publ_section_title
;
Structure prediction by ZEFSAII (Michael W. Deem and Ramdas Pophale) SiO2 
 PCOD9507332
Probable space group: C C C A
;
_chemical_formula_sum "Si O2"
_cell_formula_units_Z 72
_cell_length_a 28.689475
_cell_length_b 8.224533
_cell_length_c 13.175254
_cell_angle_alpha 90.000000
_cell_angle_beta 90.000000
_cell_angle_gamma 90.000000
_cell_volume 3108.800442
_symmetry_space_group_name_H-M "C C C A"
_symmetry_group_IT_number 68
_space_group.IT_coordinate_system_code '2'
_symmetry_cell_setting 'orthorhombic'
loop_
_space_group_symop_operation_xyz
x,y,z
-x,1/2-y,z
x,1/2-y,1/2-z
-x,y,1/2-z
-x,-y,-z
x,1/2+y,-z
-x,1/2+y,1/2+z
x,-y,1/2+z
1/2+x,1/2+y,z
1/2-x,-y,z
1/2+x,-y,1/2-z
1/2-x,1/2+y,1/2-z
1/2-x,1/2-y,-z
1/2+x,y,-z
1/2-x,y,1/2+z
1/2+x,1/2-y,1/2+z
loop_
_atom_site_type_symbol
_atom_site_label
_atom_site_fract_x
_atom_site_fract_y
_atom_site_fract_z
Si Si1 0.117904 0.219760 0.639351
Si Si2 0.250000 0.000000 0.966454
Si Si3 0.318934 0.746931 0.059770
Si Si4 0.912655 0.149378 0.346581
Si Si5 0.035319 0.367384 0.545364
O O1 0.138987 0.250000 0.750000
O O2 0.154825 0.208878 0.547711
O O3 0.082211 0.369812 0.613031
O O4 0.089785 0.047779 0.647216
O O5 0.219635 0.118319 0.036540
O O6 0.289079 0.094232 0.903706
O O7 0.359411 0.799762 0.133815
O O8 0.929972 0.250000 0.250000
O O9 0.942764 0.207895 0.442590
O O10 0.000000 0.250000 0.603252
O O11 0.000000 0.500000 0.500000
#
# Coordination Sequence:
#
# PCOD9507332 Si02
#       5
#    16   8  16  16  16
#     4  11  25  42  66  95 131 173 216 264 333 396
#     4  10  20  40  70  92 122 176 214 276 322 388
#     4  10  22  43  66  91 134 168 220 266 332 388
#     4  11  25  42  66  96 129 175 215 265 331 398
#     4  11  24  46  67  92 130 169 219 274 322 382
#
# _framework density 23.160056000000001
#
# number of rings (size 3 to 8) (size 9 to 14) (size 15 to 20)
#    0.000    1.333    4.444    0.000    6.222    0.889 
#    0.000    6.667    0.000    0.000    0.000    0.000 
#    0.000    0.000    0.000    0.000    0.000    0.000 
#
# Total GULP energy -200607.554317 kJ/mol
# GULP energy per Si atom -5572.432064 kJ/mol
# Density = 2.310734 g / cm^3
# Si number density = 23.160056 Si / 1000 Ang^3
#
#
#
# Elastic Constant Matrix: (Units=GPa)
#
#
# Indices 1 2 3 4 5 6 
#
# 1 118.3965 26.5209 11.8651 0.0000 0.0000 0.0000
# 2 26.5209 70.5308 -3.7298 0.0000 0.0000 0.0000
# 3 11.8651 -3.7298 94.1746 0.0000 0.0000 0.0000
# 4 0.0000 0.0000 0.0000 11.7577 0.0000 0.0000
# 5 0.0000 0.0000 0.0000 0.0000 6.8696 0.0000
# 6 0.0000 0.0000 0.0000 0.0000 0.0000 57.9464
#
#
#
# Elastic Compliance Matrix: (Units=1/GPa)
#
#
# Indices 1 2 3 4 5 6 
#
# 1 0.009385 -0.003599 -0.001325 0.000000 0.000000 0.000000
# 2 -0.003599 0.015588 0.001071 0.000000 0.000000 0.000000
# 3 -0.001325 0.001071 0.010828 0.000000 0.000000 0.000000
# 4 0.000000 0.000000 0.000000 0.085051 0.000000 0.000000
# 5 0.000000 0.000000 0.000000 0.000000 0.145568 0.000000
# 6 0.000000 0.000000 0.000000 0.000000 0.000000 0.017257
#
#
# Mechanical properties :
#
#
# Convention : Reuss Voigt Hill
#
# Bulk Modulus (GPa) = 35.59380 39.15714 37.37547
# Shear Modulus (GPa) = 16.62517 31.87780 24.25148
#
# Velocity S-wave (km/s) = 2.68216 3.71403 3.23944
# Velocity P-wave (km/s) = 4.99939 5.94440 5.49226
#
# Compressibility (1/GPa) = 0.02809478
#
# Stress axis : x y z
#
# Youngs Moduli (GPa) = 106.55105 64.15128 92.35381
#
# Poissons Ratio (x) = 0.23088 0.12237
# Poissons Ratio (y) = 0.38348 -0.09889
# Poissons Ratio (z) = 0.14118 -0.06869
#
# Static dielectric constant tensor:
#      x y z
#    x 1.828250 0.000000 0.000000 
#    y 0.000000 2.109620 0.000000 
#    z 0.000000 0.000000 1.817500 
# 
# From -- ./inp_files/25839.got.cif
#   From: 2010.05.17/outbox.cif.g08.bks.cpg/sg68_13_cif.got.tgz:25839.got - 2010.06.03 18:57:09.
