data_PCOD9507322
_publ_section_title
;
Structure prediction by ZEFSAII (Michael W. Deem and Ramdas Pophale) SiO2 
 PCOD9507322
Probable space group: C C C A
;
_chemical_formula_sum "Si O2"
_cell_formula_units_Z 104
_cell_length_a 8.949621
_cell_length_b 23.664024
_cell_length_c 21.568218
_cell_angle_alpha 90.000000
_cell_angle_beta 90.000000
_cell_angle_gamma 90.000000
_cell_volume 4567.804476
_symmetry_space_group_name_H-M "C C C A"
_symmetry_group_IT_number 68
_space_group.IT_coordinate_system_code '2'
_symmetry_cell_setting 'orthorhombic'
loop_
_space_group_symop_operation_xyz
x,y,z
-x,1/2-y,z
x,1/2-y,1/2-z
-x,y,1/2-z
-x,-y,-z
x,1/2+y,-z
-x,1/2+y,1/2+z
x,-y,1/2+z
1/2+x,1/2+y,z
1/2-x,-y,z
1/2+x,-y,1/2-z
1/2-x,1/2+y,1/2-z
1/2-x,1/2-y,-z
1/2+x,y,-z
1/2-x,y,1/2+z
1/2+x,1/2-y,1/2+z
loop_
_atom_site_type_symbol
_atom_site_label
_atom_site_fract_x
_atom_site_fract_y
_atom_site_fract_z
Si Si1 0.242950 0.828525 0.317059
Si Si2 0.000000 0.250000 0.637103
Si Si3 0.500000 0.407385 0.250000
Si Si4 0.500000 0.750000 0.157886
Si Si5 0.243852 0.676610 0.915986
Si Si6 0.665622 0.940489 0.869172
Si Si7 0.042834 0.437369 0.515950
Si Si8 0.191124 0.371470 0.044463
O O1 0.123769 0.778986 0.321954
O O2 0.145530 0.872455 0.276127
O O3 0.399750 0.796138 0.304648
O O4 0.271378 0.853095 0.386493
O O5 0.906429 0.296220 0.599444
O O6 0.576821 0.442330 0.195164
O O7 0.384019 0.783422 0.112697
O O8 0.235575 0.616182 0.879442
O O9 0.252902 0.671066 0.990857
O O10 0.539980 0.927633 0.919855
O O11 0.750000 0.000000 0.879932
O O12 0.977189 0.391206 0.468022
O O13 0.000000 0.500000 0.500000
O O14 0.215740 0.427357 0.526351
#
# Coordination Sequence:
#
# PCOD9507322 Si02
#       8
#    16   8   8   8  16  16  16  16
#     4  11  23  42  67 100 137 184 231 293 344 423
#     4  10  20  40  68  97 137 194 234 262 358 422
#     4  12  24  51  70  94 144 191 250 278 350 450
#     4  10  24  41  67 111 139 171 235 300 354 396
#     4  10  21  41  66 104 143 182 226 292 350 421
#     4  11  24  47  70  96 137 186 235 286 351 414
#     4  11  21  39  66 101 134 182 228 287 347 424
#     4  11  21  37  63  97 144 179 225 284 359 421
#
# _framework density 22.768049000000001
#
# number of rings (size 3 to 8) (size 9 to 14) (size 15 to 20)
#    0.000    1.231    3.077    4.154    0.000    4.000 
#    5.538    0.769    0.000    0.000    0.000    0.000 
#    0.000    0.000    0.000    0.000    0.000    0.000 
#
# Total GULP energy -290177.640152 kJ/mol
# GULP energy per Si atom -5580.339234 kJ/mol
# Density = 2.271623 g / cm^3
# Si number density = 22.768049 Si / 1000 Ang^3
#
#
#
# Elastic Constant Matrix: (Units=GPa)
#
#
# Indices 1 2 3 4 5 6 
#
# 1 134.1886 29.7683 28.0582 0.0000 0.0000 0.0000
# 2 29.7683 90.9580 11.6018 0.0000 0.0000 0.0000
# 3 28.0582 11.6018 81.2294 0.0000 0.0000 0.0000
# 4 0.0000 0.0000 0.0000 19.0567 0.0000 0.0000
# 5 0.0000 0.0000 0.0000 0.0000 31.7652 0.0000
# 6 0.0000 0.0000 0.0000 0.0000 0.0000 36.8533
#
#
#
# Elastic Compliance Matrix: (Units=1/GPa)
#
#
# Indices 1 2 3 4 5 6 
#
# 1 0.008542 -0.002464 -0.002599 0.000000 0.000000 0.000000
# 2 -0.002464 0.011909 -0.000850 0.000000 0.000000 0.000000
# 3 -0.002599 -0.000850 0.013330 0.000000 0.000000 0.000000
# 4 0.000000 0.000000 0.000000 0.052475 0.000000 0.000000
# 5 0.000000 0.000000 0.000000 0.000000 0.031481 0.000000
# 6 0.000000 0.000000 0.000000 0.000000 0.000000 0.027135
#
#
# Mechanical properties :
#
#
# Convention : Reuss Voigt Hill
#
# Bulk Modulus (GPa) = 45.54621 49.47028 47.50825
# Shear Modulus (GPa) = 30.48495 33.33157 31.90826
#
# Velocity S-wave (km/s) = 3.66312 3.83033 3.74765
# Velocity P-wave (km/s) = 6.15947 6.42938 6.29588
#
# Compressibility (1/GPa) = 0.02195572
#
# Stress axis : x y z
#
# Youngs Moduli (GPa) = 117.06549 83.97055 75.01978
#
# Poissons Ratio (x) = 0.20692 0.19495
# Poissons Ratio (y) = 0.28847 0.06375
# Poissons Ratio (z) = 0.30422 0.07135
#
# Static dielectric constant tensor:
#      x y z
#    x 1.877820 0.000000 0.000000 
#    y 0.000000 1.929090 0.000000 
#    z 0.000000 0.000000 1.993560 
# 
# From -- ./inp_files/36614.got.cif
#   From: 2010.05.17/outbox.cif.g08.bks.cpg/sg68_19_cif.got.tgz:36614.got - 2010.06.03 18:57:09.
