data_PCOD9507113
_publ_section_title
;
Structure prediction by ZEFSAII (Michael W. Deem and Ramdas Pophale) SiO2 
 PCOD9507113
Probable space group: C C C A
;
_chemical_formula_sum "Si O2"
_cell_formula_units_Z 100
_cell_length_a 13.462252
_cell_length_b 18.319700
_cell_length_c 18.910219
_cell_angle_alpha 90.000000
_cell_angle_beta 90.000000
_cell_angle_gamma 90.000000
_cell_volume 4663.721754
_symmetry_space_group_name_H-M "C C C A"
_symmetry_group_IT_number 68
_space_group.IT_coordinate_system_code '2'
_symmetry_cell_setting 'orthorhombic'
loop_
_space_group_symop_operation_xyz
x,y,z
-x,1/2-y,z
x,1/2-y,1/2-z
-x,y,1/2-z
-x,-y,-z
x,1/2+y,-z
-x,1/2+y,1/2+z
x,-y,1/2+z
1/2+x,1/2+y,z
1/2-x,-y,z
1/2+x,-y,1/2-z
1/2-x,1/2+y,1/2-z
1/2-x,1/2-y,-z
1/2+x,y,-z
1/2-x,y,1/2+z
1/2+x,1/2-y,1/2+z
loop_
_atom_site_type_symbol
_atom_site_label
_atom_site_fract_x
_atom_site_fract_y
_atom_site_fract_z
Si Si1 0.826041 0.807839 0.146030
Si Si2 0.222328 0.831151 0.589968
Si Si3 0.400498 0.477866 0.281962
Si Si4 0.114324 0.452087 0.943850
Si Si5 0.402036 0.600510 0.522676
Si Si6 0.000000 0.750000 0.250000
Si Si7 0.796556 0.882386 0.756606
O O1 0.790539 0.740424 0.097202
O O2 0.920535 0.787931 0.195911
O O3 0.731605 0.828279 0.194401
O O4 0.854646 0.875514 0.096637
O O5 0.294172 0.898161 0.567597
O O6 0.133845 0.839553 0.534221
O O7 0.182617 0.844527 0.668985
O O8 0.500000 0.445517 0.250000
O O9 0.408146 0.486244 0.366390
O O10 0.307261 0.425859 0.268671
O O11 0.377444 0.555022 0.244889
O O12 0.128466 0.519434 0.996880
O O13 0.020063 0.405182 0.968274
#
# Coordination Sequence:
#
# PCOD9507113 Si02
#       7
#    16  16  16  16  16   4  16
#     4  12  24  40  66 104 132 169 224 278 341 411
#     4  11  21  44  67  91 137 175 216 279 346 401
#     4  10  20  38  66  92 132 176 224 281 332 395
#     4  10  22  41  65  96 128 172 226 270 332 402
#     4  11  23  39  64  94 132 174 218 274 334 403
#     4  12  24  40  72 100 126 172 218 282 344 408
#     4  10  21  39  64  98 131 172 222 277 344 395
#
# _framework density 21.442102999999999
#
# number of rings (size 3 to 8) (size 9 to 14) (size 15 to 20)
#    0.000    1.280    3.200    2.880    3.360    0.000 
#   14.400    0.000    0.000    1.920    0.000    0.000 
#    0.000    0.000    0.000    0.000    0.000    0.000 
#
# Total GULP energy -279261.072800 kJ/mol
# GULP energy per Si atom -5585.221456 kJ/mol
# Density = 2.139330 g / cm^3
# Si number density = 21.442103 Si / 1000 Ang^3
#
#
#
# Elastic Constant Matrix: (Units=GPa)
#
#
# Indices 1 2 3 4 5 6 
#
# 1 66.1791 10.0252 22.0590 0.0000 0.0000 0.0000
# 2 10.0252 60.1374 33.4251 0.0000 0.0000 0.0000
# 3 22.0590 33.4251 97.7580 0.0000 0.0000 0.0000
# 4 0.0000 0.0000 0.0000 26.6577 0.0000 0.0000
# 5 0.0000 0.0000 0.0000 0.0000 20.6936 0.0000
# 6 0.0000 0.0000 0.0000 0.0000 0.0000 22.6948
#
#
#
# Elastic Compliance Matrix: (Units=1/GPa)
#
#
# Indices 1 2 3 4 5 6 
#
# 1 0.016373 -0.000835 -0.003409 0.000000 0.000000 0.000000
# 2 -0.000835 0.020573 -0.006846 0.000000 0.000000 0.000000
# 3 -0.003409 -0.006846 0.013339 0.000000 0.000000 0.000000
# 4 0.000000 0.000000 0.000000 0.037513 0.000000 0.000000
# 5 0.000000 0.000000 0.000000 0.000000 0.048324 0.000000
# 6 0.000000 0.000000 0.000000 0.000000 0.000000 0.044063
#
#
# Mechanical properties :
#
#
# Convention : Reuss Voigt Hill
#
# Bulk Modulus (GPa) = 35.57960 39.45478 37.51719
# Shear Modulus (GPa) = 23.61463 24.58023 24.09743
#
# Velocity S-wave (km/s) = 3.32222 3.38946 3.35600
# Velocity P-wave (km/s) = 5.59871 5.81020 5.70543
#
# Compressibility (1/GPa) = 0.02810599
#
# Stress axis : x y z
#
# Youngs Moduli (GPa) = 61.07494 48.60811 74.96624
#
# Poissons Ratio (x) = 0.04057 0.25558
# Poissons Ratio (y) = 0.05097 0.51321
# Poissons Ratio (z) = 0.20822 0.33276
#
# Static dielectric constant tensor:
#      x y z
#    x 1.771200 0.000000 0.000000 
#    y 0.000000 1.835910 0.000000 
#    z 0.000000 0.000000 1.786270 
# 
# From -- ./inp_files/38819.got.cif
#   From: 2010.05.17/outbox.cif.g08.bks.cpg/sg68_20_cif.got.tgz:38819.got - 2010.06.03 18:57:09.
