data_PCOD9507248
_publ_section_title
;
Structure prediction by ZEFSAII (Michael W. Deem and Ramdas Pophale) SiO2 
 PCOD9507248
Probable space group: C C C A
;
_chemical_formula_sum "Si O2"
_cell_formula_units_Z 80
_cell_length_a 23.612123
_cell_length_b 13.706014
_cell_length_c 12.814134
_cell_angle_alpha 90.000000
_cell_angle_beta 90.000000
_cell_angle_gamma 90.000000
_cell_volume 4147.013691
_symmetry_space_group_name_H-M "C C C A"
_symmetry_group_IT_number 68
_space_group.IT_coordinate_system_code '2'
_symmetry_cell_setting 'orthorhombic'
loop_
_space_group_symop_operation_xyz
x,y,z
-x,1/2-y,z
x,1/2-y,1/2-z
-x,y,1/2-z
-x,-y,-z
x,1/2+y,-z
-x,1/2+y,1/2+z
x,-y,1/2+z
1/2+x,1/2+y,z
1/2-x,-y,z
1/2+x,-y,1/2-z
1/2-x,1/2+y,1/2-z
1/2-x,1/2-y,-z
1/2+x,y,-z
1/2-x,y,1/2+z
1/2+x,1/2-y,1/2+z
loop_
_atom_site_type_symbol
_atom_site_label
_atom_site_fract_x
_atom_site_fract_y
_atom_site_fract_z
Si Si1 0.000000 0.250000 0.984635
Si Si2 0.590579 0.100627 0.963791
Si Si3 0.354068 0.085755 0.312516
Si Si4 0.725869 0.250000 0.250000
Si Si5 0.455360 0.577558 0.841076
Si Si6 0.797496 0.928163 0.828387
O O1 0.024470 0.333277 0.910221
O O2 0.052601 0.198466 0.043285
O O3 0.648354 0.097066 0.897748
O O4 0.553331 0.014578 0.915012
O O5 0.609469 0.077870 0.082471
O O6 0.313621 0.179990 0.320511
O O7 0.396798 0.103204 0.216488
O O8 0.319316 0.989502 0.274089
O O9 0.765361 0.328106 0.193636
O O10 0.500000 0.556311 0.750000
O O11 0.750000 0.000000 0.878087
#
# Coordination Sequence:
#
# PCOD9507248 Si02
#       6
#     8  16  16   8  16  16
#     4  12  23  38  65  96 122 166 213 262 305 388
#     4  11  24  40  62  96 125 165 212 262 315 383
#     4  10  21  38  65  88 120 161 209 254 315 374
#     4  10  20  40  61  89 122 162 204 262 312 370
#     4  11  23  41  63  88 129 164 206 258 314 376
#     4   9  22  41  60  89 126 165 206 259 322 373
#
# _framework density 19.290990000000001
#
# number of rings (size 3 to 8) (size 9 to 14) (size 15 to 20)
#    0.000    1.600    2.000    2.100    0.000    4.800 
#    3.600    0.000    0.000    0.000    0.000    0.000 
#    0.000    0.000    0.000    0.000    0.000    0.000 
#
# Total GULP energy -223154.041954 kJ/mol
# GULP energy per Si atom -5578.851049 kJ/mol
# Density = 1.924708 g / cm^3
# Si number density = 19.290990 Si / 1000 Ang^3
#
#
#
# Elastic Constant Matrix: (Units=GPa)
#
#
# Indices 1 2 3 4 5 6 
#
# 1 129.4643 74.6759 45.6308 0.0000 0.0000 0.0000
# 2 74.6759 115.5975 79.2575 0.0000 0.0000 0.0000
# 3 45.6308 79.2575 51.3335 0.0000 0.0000 0.0000
# 4 0.0000 0.0000 0.0000 75.6967 0.0000 0.0000
# 5 0.0000 0.0000 0.0000 0.0000 8.9060 0.0000
# 6 0.0000 0.0000 0.0000 0.0000 0.0000 27.7469
#
#
#
# Elastic Compliance Matrix: (Units=1/GPa)
#
#
# Indices 1 2 3 4 5 6 
#
# 1 0.010925 0.006811 -0.020228 0.000000 0.000000 0.000000
# 2 0.006811 -0.143383 0.215325 0.000000 0.000000 0.000000
# 3 -0.020228 0.215325 -0.294995 0.000000 0.000000 0.000000
# 4 0.000000 0.000000 0.000000 0.013211 0.000000 0.000000
# 5 0.000000 0.000000 0.000000 0.000000 0.112284 0.000000
# 6 0.000000 0.000000 0.000000 0.000000 0.000000 0.036040
#
#
# Mechanical properties :
#
#
# Convention : Reuss Voigt Hill
#
# Bulk Modulus (GPa) = -42.30883 77.28041 17.48579
# Shear Modulus (GPa) = -7.37882 28.92532 10.77325
#
# Velocity S-wave (km/s) = -1.95788 3.87644 2.36574
# Velocity P-wave (km/s) = 5.20486 7.75777 4.06770
#
# Compressibility (1/GPa) = -0.02363573
#
# Stress axis : x y z
#
# Youngs Moduli (GPa) = 91.53575 -6.97430 -3.38989
#
# Poissons Ratio (x) = 0.04750 -0.06857
# Poissons Ratio (y) = -0.62348 0.72993
# Poissons Ratio (z) = 1.85155 1.50174
#
# Static dielectric constant tensor:
#      x y z
#    x 1.733270 0.000000 0.000000 
#    y 0.000000 1.671450 0.000000 
#    z 0.000000 0.000000 1.655430 
# 
# From -- ./inp_files/16267.got.cif
#   From: 2010.05.17/outbox.cif.g08.bks.cpg/sg68_9_cif.got.tgz:16267.got - 2010.06.03 18:57:09.
