data_PCOD9507294
_publ_section_title
;
Structure prediction by ZEFSAII (Michael W. Deem and Ramdas Pophale) SiO2 
 PCOD9507294
Probable space group: C C C A
;
_chemical_formula_sum "Si O2"
_cell_formula_units_Z 88
_cell_length_a 12.689605
_cell_length_b 16.899217
_cell_length_c 20.027793
_cell_angle_alpha 90.000000
_cell_angle_beta 90.000000
_cell_angle_gamma 90.000000
_cell_volume 4294.847824
_symmetry_space_group_name_H-M "C C C A"
_symmetry_group_IT_number 68
_space_group.IT_coordinate_system_code '2'
_symmetry_cell_setting 'orthorhombic'
loop_
_space_group_symop_operation_xyz
x,y,z
-x,1/2-y,z
x,1/2-y,1/2-z
-x,y,1/2-z
-x,-y,-z
x,1/2+y,-z
-x,1/2+y,1/2+z
x,-y,1/2+z
1/2+x,1/2+y,z
1/2-x,-y,z
1/2+x,-y,1/2-z
1/2-x,1/2+y,1/2-z
1/2-x,1/2-y,-z
1/2+x,y,-z
1/2-x,y,1/2+z
1/2+x,1/2-y,1/2+z
loop_
_atom_site_type_symbol
_atom_site_label
_atom_site_fract_x
_atom_site_fract_y
_atom_site_fract_z
Si Si1 0.697995 0.085368 0.663677
Si Si2 0.500000 0.750000 0.376010
Si Si3 0.688087 0.321329 0.962250
Si Si4 0.981243 0.499575 0.678319
Si Si5 0.329252 0.643093 0.303165
Si Si6 0.676325 0.078254 0.408271
O O1 0.742441 0.129776 0.598498
O O2 0.706135 0.145695 0.726262
O O3 0.750000 0.000000 0.676741
O O4 0.576439 0.056514 0.656331
O O5 0.418261 0.792629 0.425785
O O6 0.421137 0.700785 0.328317
O O7 0.750000 0.250000 0.000000
O O8 0.665431 0.383022 0.020356
O O9 0.884288 0.557302 0.694642
O O10 0.937262 0.443556 0.621557
O O11 0.000000 0.458677 0.750000
O O12 0.235486 0.637336 0.356524
O O13 0.750000 0.000000 0.414298
#
# Coordination Sequence:
#
# PCOD9507294 Si02
#       6
#    16   8  16  16  16  16
#     4  11  23  40  67  96 127 165 221 277 326 390
#     4  12  24  43  66  90 135 170 218 270 327 400
#     4  12  26  42  59  93 136 175 215 262 333 403
#     4   9  18  36  62  94 119 157 216 267 320 372
#     4  10  20  40  65  95 120 166 210 275 323 378
#     4  10  21  41  65  90 130 166 214 270 326 387
#
# _framework density 20.489667000000001
#
# number of rings (size 3 to 8) (size 9 to 14) (size 15 to 20)
#    0.000    1.455    3.636    3.273    0.000    3.636 
#    0.000    0.000    0.000    0.000    0.000    0.000 
#    0.000    0.000    0.000    0.000    0.000    0.000 
#
# Total GULP energy -245284.000684 kJ/mol
# GULP energy per Si atom -5574.636379 kJ/mol
# Density = 2.044303 g / cm^3
# Si number density = 20.489667 Si / 1000 Ang^3
#
#
#
# Elastic Constant Matrix: (Units=GPa)
#
#
# Indices 1 2 3 4 5 6 
#
# 1 35.3568 22.1706 39.9660 0.0000 0.0000 0.0000
# 2 22.1706 72.7504 77.0365 0.0000 0.0000 0.0000
# 3 39.9660 77.0365 206.7022 0.0000 0.0000 0.0000
# 4 0.0000 0.0000 0.0000 34.4005 0.0000 0.0000
# 5 0.0000 0.0000 0.0000 0.0000 30.8119 0.0000
# 6 0.0000 0.0000 0.0000 0.0000 0.0000 33.0123
#
#
#
# Elastic Compliance Matrix: (Units=1/GPa)
#
#
# Indices 1 2 3 4 5 6 
#
# 1 0.037839 -0.006251 -0.004986 0.000000 0.000000 0.000000
# 2 -0.006251 0.023740 -0.007639 0.000000 0.000000 0.000000
# 3 -0.004986 -0.007639 0.008649 0.000000 0.000000 0.000000
# 4 0.000000 0.000000 0.000000 0.029069 0.000000 0.000000
# 5 0.000000 0.000000 0.000000 0.000000 0.032455 0.000000
# 6 0.000000 0.000000 0.000000 0.000000 0.000000 0.030292
#
#
# Mechanical properties :
#
#
# Convention : Reuss Voigt Hill
#
# Bulk Modulus (GPa) = 30.79311 65.90618 48.34965
# Shear Modulus (GPa) = 23.73914 31.35403 27.54659
#
# Velocity S-wave (km/s) = 3.40750 3.91607 3.67060
# Velocity P-wave (km/s) = 5.52654 7.25829 6.45079
#
# Compressibility (1/GPa) = 0.03247479
#
# Stress axis : x y z
#
# Youngs Moduli (GPa) = 26.42743 42.12352 115.62034
#
# Poissons Ratio (x) = 0.26333 0.57654
# Poissons Ratio (y) = 0.16521 0.88322
# Poissons Ratio (z) = 0.13178 0.32178
#
# Static dielectric constant tensor:
#      x y z
#    x 1.701750 0.000000 0.000000 
#    y 0.000000 1.789180 0.000000 
#    z 0.000000 0.000000 1.775570 
# 
# From -- ./inp_files/38473.got.cif
#   From: 2010.05.17/outbox.cif.g08.bks.cpg/sg68_20_cif.got.tgz:38473.got - 2010.06.03 18:57:09.
