data_PCOD9507304
_publ_section_title
;
Structure prediction by ZEFSAII (Michael W. Deem and Ramdas Pophale) SiO2 
 PCOD9507304
Probable space group: C C C A
;
_chemical_formula_sum "Si O2"
_cell_formula_units_Z 96
_cell_length_a 14.144625
_cell_length_b 23.301817
_cell_length_c 13.927675
_cell_angle_alpha 90.000000
_cell_angle_beta 90.000000
_cell_angle_gamma 90.000000
_cell_volume 4590.498494
_symmetry_space_group_name_H-M "C C C A"
_symmetry_group_IT_number 68
_space_group.IT_coordinate_system_code '2'
_symmetry_cell_setting 'orthorhombic'
loop_
_space_group_symop_operation_xyz
x,y,z
-x,1/2-y,z
x,1/2-y,1/2-z
-x,y,1/2-z
-x,-y,-z
x,1/2+y,-z
-x,1/2+y,1/2+z
x,-y,1/2+z
1/2+x,1/2+y,z
1/2-x,-y,z
1/2+x,-y,1/2-z
1/2-x,1/2+y,1/2-z
1/2-x,1/2-y,-z
1/2+x,y,-z
1/2-x,y,1/2+z
1/2+x,1/2-y,1/2+z
loop_
_atom_site_type_symbol
_atom_site_label
_atom_site_fract_x
_atom_site_fract_y
_atom_site_fract_z
Si Si1 0.639566 0.224244 0.928672
Si Si2 0.790046 0.846823 0.773040
Si Si3 0.944254 0.837016 0.614533
Si Si4 0.328665 0.367858 0.088706
Si Si5 0.776341 0.433775 0.573291
Si Si6 0.514620 0.565588 0.532665
O O1 0.713171 0.207889 0.844683
O O2 0.543375 0.196532 0.885643
O O3 0.623119 0.291513 0.942108
O O4 0.657138 0.189817 0.025985
O O5 0.886888 0.846710 0.711817
O O6 0.708640 0.853156 0.693769
O O7 0.782114 0.900093 0.845910
O O8 0.966469 0.895655 0.561173
O O9 0.424421 0.405746 0.084164
O O10 0.252470 0.405205 0.028271
O O11 0.750000 0.500000 0.570911
O O12 0.888067 0.428865 0.591251
O O13 0.500000 0.500000 0.500000
#
# Coordination Sequence:
#
# PCOD9507304 Si02
#       6
#    16  16  16  16  16  16
#     4   9  21  40  64  95 128 169 222 273 322 396
#     4  11  22  37  61  94 128 164 214 275 333 388
#     4  10  20  40  66  93 128 167 222 276 325 387
#     4  10  22  41  64  94 128 170 222 265 337 396
#     4  11  23  41  61  93 128 167 226 276 324 409
#     4  11  22  40  68  89 128 179 215 275 337 395
#
# _framework density 20.912761
#
# number of rings (size 3 to 8) (size 9 to 14) (size 15 to 20)
#    0.000    1.667    3.333    1.000    0.000    4.667 
#    3.000    0.000    0.000    0.000    0.000    0.000 
#    0.000    0.000    0.000    0.000    0.000    0.000 
#
# Total GULP energy -268029.063361 kJ/mol
# GULP energy per Si atom -5583.938820 kJ/mol
# Density = 2.086516 g / cm^3
# Si number density = 20.912761 Si / 1000 Ang^3
#
#
#
# Elastic Constant Matrix: (Units=GPa)
#
#
# Indices 1 2 3 4 5 6 
#
# 1 107.0097 11.3876 10.4543 0.0000 0.0000 0.0000
# 2 11.3876 140.0567 32.6934 0.0000 0.0000 0.0000
# 3 10.4543 32.6934 61.0096 0.0000 0.0000 0.0000
# 4 0.0000 0.0000 0.0000 16.4143 0.0000 0.0000
# 5 0.0000 0.0000 0.0000 0.0000 33.8886 0.0000
# 6 0.0000 0.0000 0.0000 0.0000 0.0000 32.8759
#
#
#
# Elastic Compliance Matrix: (Units=1/GPa)
#
#
# Indices 1 2 3 4 5 6 
#
# 1 0.009529 -0.000450 -0.001392 0.000000 0.000000 0.000000
# 2 -0.000450 0.008182 -0.004307 0.000000 0.000000 0.000000
# 3 -0.001392 -0.004307 0.018938 0.000000 0.000000 0.000000
# 4 0.000000 0.000000 0.000000 0.060922 0.000000 0.000000
# 5 0.000000 0.000000 0.000000 0.000000 0.029508 0.000000
# 6 0.000000 0.000000 0.000000 0.000000 0.000000 0.030417
#
#
# Mechanical properties :
#
#
# Convention : Reuss Voigt Hill
#
# Bulk Modulus (GPa) = 41.06725 46.34961 43.70843
# Shear Modulus (GPa) = 28.10385 33.53848 30.82116
#
# Velocity S-wave (km/s) = 3.66985 4.00901 3.84317
# Velocity P-wave (km/s) = 6.13491 6.60613 6.37487
#
# Compressibility (1/GPa) = 0.02435030
#
# Stress axis : x y z
#
# Youngs Moduli (GPa) = 104.94521 122.21909 52.80512
#
# Poissons Ratio (x) = 0.05498 0.07349
# Poissons Ratio (y) = 0.04721 0.22745
# Poissons Ratio (z) = 0.14605 0.52645
#
# Static dielectric constant tensor:
#      x y z
#    x 1.841220 0.000000 0.000000 
#    y 0.000000 1.750710 0.000000 
#    z 0.000000 0.000000 1.717590 
# 
# From -- ./inp_files/22341.got.cif
#   From: 2010.05.17/outbox.cif.g08.bks.cpg/sg68_12_cif.got.tgz:22341.got - 2010.06.03 18:57:09.
