data_PCOD9507255
_publ_section_title
;
Structure prediction by ZEFSAII (Michael W. Deem and Ramdas Pophale) SiO2 
 PCOD9507255
Probable space group: C C C A
;
_chemical_formula_sum "Si O2"
_cell_formula_units_Z 92
_cell_length_a 10.687703
_cell_length_b 15.781690
_cell_length_c 27.526862
_cell_angle_alpha 90.000000
_cell_angle_beta 90.000000
_cell_angle_gamma 90.000000
_cell_volume 4642.956242
_symmetry_space_group_name_H-M "C C C A"
_symmetry_group_IT_number 68
_space_group.IT_coordinate_system_code '2'
_symmetry_cell_setting 'orthorhombic'
loop_
_space_group_symop_operation_xyz
x,y,z
-x,1/2-y,z
x,1/2-y,1/2-z
-x,y,1/2-z
-x,-y,-z
x,1/2+y,-z
-x,1/2+y,1/2+z
x,-y,1/2+z
1/2+x,1/2+y,z
1/2-x,-y,z
1/2+x,-y,1/2-z
1/2-x,1/2+y,1/2-z
1/2-x,1/2-y,-z
1/2+x,y,-z
1/2-x,y,1/2+z
1/2+x,1/2-y,1/2+z
loop_
_atom_site_type_symbol
_atom_site_label
_atom_site_fract_x
_atom_site_fract_y
_atom_site_fract_z
Si Si1 0.746226 0.348470 0.011922
Si Si2 0.988081 0.146635 0.051058
Si Si3 0.500000 0.250000 0.750000
Si Si4 0.512325 0.969696 0.145009
Si Si5 0.831446 0.087493 0.887167
Si Si6 0.189486 0.881446 0.705648
Si Si7 0.250000 0.000000 0.289146
O O1 0.889729 0.380341 0.018899
O O2 0.689241 0.359192 0.065274
O O3 0.750000 0.250000 0.000000
O O4 0.642247 0.382209 0.974054
O O5 0.000000 0.250000 0.055002
O O6 0.992028 0.104104 0.104471
O O7 0.594160 0.306917 0.718558
O O8 0.403521 0.953374 0.184644
O O9 0.472336 0.055917 0.118632
O O10 0.635745 0.980167 0.175636
O O11 0.782202 0.134315 0.839063
O O12 0.750000 0.000000 0.893934
O O13 0.257338 0.919185 0.752877
#
# Coordination Sequence:
#
# PCOD9507255 Si02
#       7
#    16  16   4  16  16  16   8
#     4  10  21  39  63  88 127 169 219 273 337 397
#     4  10  22  39  63  95 131 172 220 278 335 400
#     4  12  24  36  68 106 124 174 228 280 322 416
#     4  11  22  38  65  94 131 169 217 274 331 398
#     4  10  20  40  62  87 125 176 208 268 340 389
#     4  11  22  38  66  94 130 167 222 269 332 387
#     4  12  22  40  62 104 128 172 224 278 322 404
#
# _framework density 19.814962999999999
#
# number of rings (size 3 to 8) (size 9 to 14) (size 15 to 20)
#    0.000    1.391    7.826    0.000    1.217    2.087 
#    1.565    0.000    0.000    1.043    0.000    0.000 
#    0.000    0.000    0.000    0.000    0.000    0.000 
#
# Total GULP energy -256291.895065 kJ/mol
# GULP energy per Si atom -5571.562936 kJ/mol
# Density = 1.976986 g / cm^3
# Si number density = 19.814963 Si / 1000 Ang^3
#
#
#
# Elastic Constant Matrix: (Units=GPa)
#
#
# Indices 1 2 3 4 5 6 
#
# 1 67.8657 12.2158 47.5523 0.0000 0.0000 0.0000
# 2 12.2158 53.8994 46.6095 0.0000 0.0000 0.0000
# 3 47.5523 46.6095 119.8565 0.0000 0.0000 0.0000
# 4 0.0000 0.0000 0.0000 -9.3535 0.0000 0.0000
# 5 0.0000 0.0000 0.0000 0.0000 39.9579 0.0000
# 6 0.0000 0.0000 0.0000 0.0000 0.0000 31.1888
#
#
#
# Elastic Compliance Matrix: (Units=1/GPa)
#
#
# Indices 1 2 3 4 5 6 
#
# 1 0.020877 0.003663 -0.009707 0.000000 0.000000 0.000000
# 2 0.003663 0.028596 -0.012573 0.000000 0.000000 0.000000
# 3 -0.009707 -0.012573 0.017084 0.000000 0.000000 0.000000
# 4 0.000000 0.000000 0.000000 -0.106912 0.000000 0.000000
# 5 0.000000 0.000000 0.000000 0.000000 0.025026 0.000000
# 6 0.000000 0.000000 0.000000 0.000000 0.000000 0.032063
#
#
# Mechanical properties :
#
#
# Convention : Reuss Voigt Hill
#
# Bulk Modulus (GPa) = 34.10481 50.48629 42.29555
# Shear Modulus (GPa) = 78.43754 21.37489 49.90622
#
# Velocity S-wave (km/s) = 6.29849 3.28796 5.02402
# Velocity P-wave (km/s) = 8.37518 6.32048 7.41930
#
# Compressibility (1/GPa) = 0.02932138
#
# Stress axis : x y z
#
# Youngs Moduli (GPa) = 47.89852 34.97009 58.53367
#
# Poissons Ratio (x) = -0.12809 0.56821
# Poissons Ratio (y) = -0.17544 0.73597
# Poissons Ratio (z) = 0.46497 0.43970
#
# Static dielectric constant tensor:
#      x y z
#    x 1.775010 0.000000 0.000000 
#    y 0.000000 1.706830 0.000000 
#    z 0.000000 0.000000 1.722800 
# 
# From -- ./inp_files/44455.got.cif
#   From: 2010.05.17/outbox.cif.g08.bks.cpg/sg68_23_cif.got.tgz:44455.got - 2010.06.03 18:57:09.
