data_PCOD9507836
_publ_section_title
;
Structure prediction by ZEFSAII (Michael W. Deem and Ramdas Pophale) SiO2 
 PCOD9507836
Probable space group: C C C A
;
_chemical_formula_sum "Si O2"
_cell_formula_units_Z 112
_cell_length_a 14.423789
_cell_length_b 30.014309
_cell_length_c 11.795494
_cell_angle_alpha 90.000000
_cell_angle_beta 90.000000
_cell_angle_gamma 90.000000
_cell_volume 5106.505970
_symmetry_space_group_name_H-M "C C C A"
_symmetry_group_IT_number 68
_space_group.IT_coordinate_system_code '2'
_symmetry_cell_setting 'orthorhombic'
loop_
_space_group_symop_operation_xyz
x,y,z
-x,1/2-y,z
x,1/2-y,1/2-z
-x,y,1/2-z
-x,-y,-z
x,1/2+y,-z
-x,1/2+y,1/2+z
x,-y,1/2+z
1/2+x,1/2+y,z
1/2-x,-y,z
1/2+x,-y,1/2-z
1/2-x,1/2+y,1/2-z
1/2-x,1/2-y,-z
1/2+x,y,-z
1/2-x,y,1/2+z
1/2+x,1/2-y,1/2+z
loop_
_atom_site_type_symbol
_atom_site_label
_atom_site_fract_x
_atom_site_fract_y
_atom_site_fract_z
Si Si1 0.891562 0.587617 0.256093
Si Si2 0.395999 0.386194 0.897235
Si Si3 0.220013 0.743299 0.369492
Si Si4 0.114375 0.111163 0.366349
Si Si5 0.088680 0.324546 0.596166
Si Si6 0.626201 0.843734 0.919598
Si Si7 0.723030 0.548954 0.943320
O O1 0.879687 0.632945 0.329882
O O2 0.863195 0.606872 0.133730
O O3 0.837195 0.550513 0.326112
O O4 0.000000 0.576203 0.250000
O O5 0.370980 0.381214 0.766203
O O6 0.506206 0.398160 0.895132
O O7 0.387490 0.340418 0.968378
O O8 0.336133 0.423291 0.963686
O O9 0.274262 0.750000 0.250000
O O10 0.250000 0.750000 0.500000
O O11 0.134612 0.778870 0.365563
O O12 0.192725 0.691825 0.366757
O O13 0.140082 0.152950 0.445769
O O14 0.182659 0.072870 0.406326
O O15 0.977539 0.326267 0.604556
O O16 0.750000 0.500000 0.982806
#
# Coordination Sequence:
#
# PCOD9507836 Si02
#       7
#    16  16  16  16  16  16  16
#     4   9  19  39  66  96 129 171 217 279 337 398
#     4   9  22  46  66  91 139 175 226 281 342 424
#     4  12  26  38  58  98 137 175 227 288 344 401
#     4  10  23  43  68  97 128 185 222 275 356 414
#     4   9  19  40  65  90 122 171 223 274 334 394
#     4  10  21  38  67  91 124 171 221 275 338 405
#     4  11  25  42  68 102 130 172 227 279 346 417
#
# _framework density 21.932804999999998
#
# number of rings (size 3 to 8) (size 9 to 14) (size 15 to 20)
#    0.000    2.000    1.429    1.286    6.000    2.857 
#    2.571    0.000    0.000    4.286    0.000    0.000 
#    0.000    0.000    0.000    0.000    0.000    0.000 
#
# Total GULP energy -312457.970302 kJ/mol
# GULP energy per Si atom -5579.606613 kJ/mol
# Density = 2.188289 g / cm^3
# Si number density = 21.932805 Si / 1000 Ang^3
#
#
#
# Elastic Constant Matrix: (Units=GPa)
#
#
# Indices 1 2 3 4 5 6 
#
# 1 65.6763 26.1186 35.4442 0.0000 0.0000 0.0000
# 2 26.1186 35.0153 16.0942 0.0000 0.0000 0.0000
# 3 35.4442 16.0942 171.7375 0.0000 0.0000 0.0000
# 4 0.0000 0.0000 0.0000 15.9497 0.0000 0.0000
# 5 0.0000 0.0000 0.0000 0.0000 27.9443 0.0000
# 6 0.0000 0.0000 0.0000 0.0000 0.0000 16.4465
#
#
#
# Elastic Compliance Matrix: (Units=1/GPa)
#
#
# Indices 1 2 3 4 5 6 
#
# 1 0.023337 -0.015877 -0.003328 0.000000 0.000000 0.000000
# 2 -0.015877 0.040647 -0.000532 0.000000 0.000000 0.000000
# 3 -0.003328 -0.000532 0.006560 0.000000 0.000000 0.000000
# 4 0.000000 0.000000 0.000000 0.062697 0.000000 0.000000
# 5 0.000000 0.000000 0.000000 0.000000 0.035785 0.000000
# 6 0.000000 0.000000 0.000000 0.000000 0.000000 0.060803
#
#
# Mechanical properties :
#
#
# Convention : Reuss Voigt Hill
#
# Bulk Modulus (GPa) = 32.18860 47.52701 39.85781
# Shear Modulus (GPa) = 17.87879 25.05292 21.46585
#
# Velocity S-wave (km/s) = 2.85820 3.38340 3.13183
# Velocity P-wave (km/s) = 5.05967 6.08108 5.59374
#
# Compressibility (1/GPa) = 0.03106690
#
# Stress axis : x y z
#
# Youngs Moduli (GPa) = 42.85087 24.60214 152.44674
#
# Poissons Ratio (x) = 0.39062 0.50741
# Poissons Ratio (y) = 0.68036 0.08115
# Poissons Ratio (z) = 0.14263 0.01310
#
# Static dielectric constant tensor:
#      x y z
#    x 1.836180 0.000000 0.000000 
#    y 0.000000 1.757670 0.000000 
#    z 0.000000 0.000000 1.925160 
# 
# From -- ./inp_files/13590.got.cif
#   From: 2010.05.17/outbox.cif.g08.bks.cpg/sg68_7_cif.got.tgz:13590.got - 2010.06.03 18:57:09.
