data_PCOD9507981
_publ_section_title
;
Structure prediction by ZEFSAII (Michael W. Deem and Ramdas Pophale) SiO2 
 PCOD9507981
Probable space group: C C C A
;
_chemical_formula_sum "Si O2"
_cell_formula_units_Z 68
_cell_length_a 30.644984
_cell_length_b 5.239558
_cell_length_c 22.732856
_cell_angle_alpha 90.000000
_cell_angle_beta 90.000000
_cell_angle_gamma 90.000000
_cell_volume 3650.127646
_symmetry_space_group_name_H-M "C C C A"
_symmetry_group_IT_number 68
_space_group.IT_coordinate_system_code '2'
_symmetry_cell_setting 'orthorhombic'
loop_
_space_group_symop_operation_xyz
x,y,z
-x,1/2-y,z
x,1/2-y,1/2-z
-x,y,1/2-z
-x,-y,-z
x,1/2+y,-z
-x,1/2+y,1/2+z
x,-y,1/2+z
1/2+x,1/2+y,z
1/2-x,-y,z
1/2+x,-y,1/2-z
1/2-x,1/2+y,1/2-z
1/2-x,1/2-y,-z
1/2+x,y,-z
1/2-x,y,1/2+z
1/2+x,1/2-y,1/2+z
loop_
_atom_site_type_symbol
_atom_site_label
_atom_site_fract_x
_atom_site_fract_y
_atom_site_fract_z
Si Si1 0.451396 0.069765 0.023473
Si Si2 0.123097 0.172692 0.318976
Si Si3 0.500000 0.750000 0.750000
Si Si4 0.223749 0.746094 0.678365
Si Si5 0.569309 0.845837 0.845883
O O1 0.451147 0.176296 0.089483
O O2 0.430099 0.290817 0.983892
O O3 0.500000 0.000000 0.000000
O O4 0.121797 0.250000 0.250000
O O5 0.173399 0.200350 0.338103
O O6 0.096898 0.398045 0.349303
O O7 0.099402 0.899742 0.329442
O O8 0.532729 0.887746 0.795415
O O9 0.224088 0.750000 0.750000
O O10 0.250000 0.500000 0.658263
O O11 0.250000 0.000000 0.659640
#
# Coordination Sequence:
#
# PCOD9507981 Si02
#       5
#    16  16   4  16  16
#     4  10  21  40  58  78 102 145 200 259 286 317
#     4  11  21  38  52  85 125 150 187 236 285 348
#     4  12  24  38  52  82 112 162 192 216 288 358
#     4   9  17  30  53  78 109 155 188 216 270 346
#     4  12  24  37  58  81 117 157 197 236 293 344
#
# _framework density 18.629487000000001
#
# number of rings (size 3 to 8) (size 9 to 14) (size 15 to 20)
#    0.000    1.412    2.353    4.235    0.000    7.529 
#    0.000    0.000    0.000    0.000    0.000    0.000 
#    0.000   65.882    0.000    0.000    0.000    0.000 
#
# Total GULP energy -189348.183761 kJ/mol
# GULP energy per Si atom -5569.064228 kJ/mol
# Density = 1.858709 g / cm^3
# Si number density = 18.629487 Si / 1000 Ang^3
#
#
#
# Elastic Constant Matrix: (Units=GPa)
#
#
# Indices 1 2 3 4 5 6 
#
# 1 114.4021 35.0724 28.4004 0.0000 0.0000 0.0000
# 2 35.0724 129.5967 11.2624 0.0000 0.0000 0.0000
# 3 28.4004 11.2624 92.8725 0.0000 0.0000 0.0000
# 4 0.0000 0.0000 0.0000 15.6980 0.0000 0.0000
# 5 0.0000 0.0000 0.0000 0.0000 84.0350 0.0000
# 6 0.0000 0.0000 0.0000 0.0000 0.0000 23.8802
#
#
#
# Elastic Compliance Matrix: (Units=1/GPa)
#
#
# Indices 1 2 3 4 5 6 
#
# 1 0.010213 -0.002519 -0.002818 0.000000 0.000000 0.000000
# 2 -0.002519 0.008420 -0.000251 0.000000 0.000000 0.000000
# 3 -0.002818 -0.000251 0.011659 0.000000 0.000000 0.000000
# 4 0.000000 0.000000 0.000000 0.063703 0.000000 0.000000
# 5 0.000000 0.000000 0.000000 0.000000 0.011900 0.000000
# 6 0.000000 0.000000 0.000000 0.000000 0.000000 0.041876
#
#
# Mechanical properties :
#
#
# Convention : Reuss Voigt Hill
#
# Bulk Modulus (GPa) = 52.30847 54.03797 53.17322
# Shear Modulus (GPa) = 30.24489 42.19839 36.22164
#
# Velocity S-wave (km/s) = 4.03363 4.76451 4.41423
# Velocity P-wave (km/s) = 7.05924 7.70306 7.38817
#
# Compressibility (1/GPa) = 0.01911736
#
# Stress axis : x y z
#
# Youngs Moduli (GPa) = 97.91614 118.76847 85.76719
#
# Poissons Ratio (x) = 0.29918 0.24166
# Poissons Ratio (y) = 0.24665 0.02150
# Poissons Ratio (z) = 0.27589 0.02978
#
# Static dielectric constant tensor:
#      x y z
#    x 1.755600 0.000000 0.000000 
#    y 0.000000 1.758860 0.000000 
#    z 0.000000 0.000000 1.689180 
# 
# From -- ./inp_files/35084.got.cif
#   From: 2010.05.17/outbox.cif.g08.bks.cpg/sg68_18_cif.got.tgz:35084.got - 2010.06.03 18:57:09.
