data_PCOD9507252
_publ_section_title
;
Structure prediction by ZEFSAII (Michael W. Deem and Ramdas Pophale) SiO2 
 PCOD9507252
Probable space group: C C C A
;
_chemical_formula_sum "Si O2"
_cell_formula_units_Z 68
_cell_length_a 20.676319
_cell_length_b 5.259435
_cell_length_c 28.105294
_cell_angle_alpha 90.000000
_cell_angle_beta 90.000000
_cell_angle_gamma 90.000000
_cell_volume 3056.331439
_symmetry_space_group_name_H-M "C C C A"
_symmetry_group_IT_number 68
_space_group.IT_coordinate_system_code '2'
_symmetry_cell_setting 'orthorhombic'
loop_
_space_group_symop_operation_xyz
x,y,z
-x,1/2-y,z
x,1/2-y,1/2-z
-x,y,1/2-z
-x,-y,-z
x,1/2+y,-z
-x,1/2+y,1/2+z
x,-y,1/2+z
1/2+x,1/2+y,z
1/2-x,-y,z
1/2+x,-y,1/2-z
1/2-x,1/2+y,1/2-z
1/2-x,1/2-y,-z
1/2+x,y,-z
1/2-x,y,1/2+z
1/2+x,1/2-y,1/2+z
loop_
_atom_site_type_symbol
_atom_site_label
_atom_site_fract_x
_atom_site_fract_y
_atom_site_fract_z
Si Si1 0.609273 0.987420 0.876281
Si Si2 0.106871 0.486502 0.188185
Si Si3 0.500000 0.250000 0.250000
Si Si4 0.750000 0.000000 0.371590
Si Si5 0.927930 0.506375 0.521091
Si Si6 0.750000 0.500000 0.306418
O O1 0.605833 0.714755 0.850737
O O2 0.681949 0.011019 0.897449
O O3 0.565130 0.010250 0.922214
O O4 0.599754 0.215366 0.838321
O O5 0.177247 0.494268 0.215304
O O6 0.047649 0.564278 0.221147
O O7 0.749001 0.247577 0.338176
O O8 0.895138 0.753598 0.498927
O O9 0.000000 0.500000 0.500000
#
# Coordination Sequence:
#
# PCOD9507252 Si02
#       6
#    16  16   4   8  16   8
#     4  10  20  40  62  84 116 166 199 247 306 365
#     4  10  23  40  64  88 125 160 206 250 311 369
#     4  12  28  42  60 106 132 156 204 274 316 370
#     4   8  16  32  61  85 106 146 216 246 280 357
#     4  10  21  35  54  83 115 148 197 240 286 360
#     4   8  16  38  61  85 110 162 204 244 294 371
#
# _framework density 22.248895999999998
#
# number of rings (size 3 to 8) (size 9 to 14) (size 15 to 20)
#    0.000    2.353    0.000    1.412    0.000    8.471 
#    0.000    8.235    0.000    0.000    0.000    0.000 
#    0.000    0.000    0.000    0.000    0.000    0.000 
#
# Total GULP energy -189660.098751 kJ/mol
# GULP energy per Si atom -5578.238199 kJ/mol
# Density = 2.219826 g / cm^3
# Si number density = 22.248896 Si / 1000 Ang^3
#
#
#
# Elastic Constant Matrix: (Units=GPa)
#
#
# Indices 1 2 3 4 5 6 
#
# 1 133.0108 -15.1760 45.4478 0.0000 0.0000 0.0000
# 2 -15.1760 160.5989 9.8314 0.0000 0.0000 0.0000
# 3 45.4478 9.8314 60.2400 0.0000 0.0000 0.0000
# 4 0.0000 0.0000 0.0000 25.2376 0.0000 0.0000
# 5 0.0000 0.0000 0.0000 0.0000 -398.7858 0.0000
# 6 0.0000 0.0000 0.0000 0.0000 0.0000 21.3679
#
#
#
# Elastic Compliance Matrix: (Units=1/GPa)
#
#
# Indices 1 2 3 4 5 6 
#
# 1 0.010470 0.001488 -0.008142 0.000000 0.000000 0.000000
# 2 0.001488 0.006501 -0.002183 0.000000 0.000000 0.000000
# 3 -0.008142 -0.002183 0.023099 0.000000 0.000000 0.000000
# 4 0.000000 0.000000 0.000000 0.039623 0.000000 0.000000
# 5 0.000000 0.000000 0.000000 0.000000 -0.002508 0.000000
# 6 0.000000 0.000000 0.000000 0.000000 0.000000 0.046799
#
#
# Mechanical properties :
#
#
# Convention : Reuss Voigt Hill
#
# Bulk Modulus (GPa) = 44.65258 48.22846 46.44052
# Shear Modulus (GPa) = 33.52899 -49.51964 -7.99533
#
# Velocity S-wave (km/s) = 3.88622 -4.72286 -1.89773
# Velocity P-wave (km/s) = 6.34429 2.83139 4.01455
#
# Compressibility (1/GPa) = 0.02239512
#
# Stress axis : x y z
#
# Youngs Moduli (GPa) = 95.51237 153.82375 43.29169
#
# Poissons Ratio (x) = -0.22886 0.35247
# Poissons Ratio (y) = -0.14210 0.09452
# Poissons Ratio (z) = 0.77764 0.33586
#
# Static dielectric constant tensor:
#      x y z
#    x 1.886510 0.000000 0.000000 
#    y 0.000000 1.766240 0.000000 
#    z 0.000000 0.000000 1.798200 
# 
# From -- ./inp_files/51637.got.cif
#   From: 2010.05.17/outbox.cif.g08.bks.cpg/sg68_26_cif.got.tgz:51637.got - 2010.06.03 18:57:09.
