data_PCOD9507999
_publ_section_title
;
Structure prediction by ZEFSAII (Michael W. Deem and Ramdas Pophale) SiO2 
 PCOD9507999
Probable space group: C C C A
;
_chemical_formula_sum "Si O2"
_cell_formula_units_Z 120
_cell_length_a 27.463017
_cell_length_b 19.657848
_cell_length_c 11.253275
_cell_angle_alpha 90.000000
_cell_angle_beta 90.000000
_cell_angle_gamma 90.000000
_cell_volume 6075.235959
_symmetry_space_group_name_H-M "C C C A"
_symmetry_group_IT_number 68
_space_group.IT_coordinate_system_code '2'
_symmetry_cell_setting 'orthorhombic'
loop_
_space_group_symop_operation_xyz
x,y,z
-x,1/2-y,z
x,1/2-y,1/2-z
-x,y,1/2-z
-x,-y,-z
x,1/2+y,-z
-x,1/2+y,1/2+z
x,-y,1/2+z
1/2+x,1/2+y,z
1/2-x,-y,z
1/2+x,-y,1/2-z
1/2-x,1/2+y,1/2-z
1/2-x,1/2-y,-z
1/2+x,y,-z
1/2-x,y,1/2+z
1/2+x,1/2-y,1/2+z
loop_
_atom_site_type_symbol
_atom_site_label
_atom_site_fract_x
_atom_site_fract_y
_atom_site_fract_z
Si Si1 0.460977 0.811045 0.443807
Si Si2 0.111872 0.250000 0.250000
Si Si3 0.443240 0.174744 0.213110
Si Si4 0.766495 0.422611 0.111237
Si Si5 0.454913 0.949449 0.320248
Si Si6 0.392608 0.428022 0.112558
Si Si7 0.277907 0.427865 0.149155
Si Si8 0.125835 0.387676 0.355097
O O1 0.500000 0.750000 0.457461
O O2 0.422016 0.780960 0.352672
O O3 0.439979 0.828971 0.571868
O O4 0.476875 0.883394 0.387725
O O5 0.139009 0.312929 0.307931
O O6 0.426191 0.250000 0.250000
O O7 0.500000 0.169525 0.250000
O O8 0.414270 0.117226 0.282209
O O9 0.750000 0.500000 0.096437
O O10 0.737281 0.393405 0.225203
O O11 0.823377 0.426540 0.143560
O O12 0.763090 0.392311 0.976847
O O13 0.500000 0.982319 0.250000
O O14 0.414340 0.921333 0.228994
O O15 0.425631 0.004308 0.397949
O O16 0.335752 0.441071 0.139977
O O17 0.394495 0.387441 0.988656
O O18 0.250000 0.500000 0.152967
#
# Coordination Sequence:
#
# PCOD9507999 Si02
#       8
#    16   8  16  16  16  16  16  16
#     4  11  21  40  62  88 119 172 226 256 307 380
#     4  10  21  40  62  90 118 164 224 264 305 380
#     4  11  23  40  63  87 123 174 219 262 317 389
#     4   9  17  34  59  87 115 154 203 254 320 384
#     4  11  24  36  57  92 127 166 208 266 314 368
#     4  11  24  40  61  93 132 164 210 271 332 374
#     4   9  18  36  60  87 120 159 203 255 322 398
#     4  10  22  39  62  87 127 165 207 264 317 384
#
# _framework density 19.752320000000001
#
# number of rings (size 3 to 8) (size 9 to 14) (size 15 to 20)
#    0.000    1.733    1.333    4.600    3.733    0.533 
#    4.800    0.000    1.467    1.600    0.000    0.000 
#    0.000    0.000    0.000    0.000    0.000    0.000 
#
# Total GULP energy -334633.015892 kJ/mol
# GULP energy per Si atom -5577.216932 kJ/mol
# Density = 1.970736 g / cm^3
# Si number density = 19.752320 Si / 1000 Ang^3
#
#
#
# Elastic Constant Matrix: (Units=GPa)
#
#
# Indices 1 2 3 4 5 6 
#
# 1 61.8111 40.9213 10.8853 0.0000 0.0000 0.0000
# 2 40.9213 73.5826 33.1600 0.0000 0.0000 0.0000
# 3 10.8853 33.1600 129.9995 0.0000 0.0000 0.0000
# 4 0.0000 0.0000 0.0000 20.9651 0.0000 0.0000
# 5 0.0000 0.0000 0.0000 0.0000 27.1255 0.0000
# 6 0.0000 0.0000 0.0000 0.0000 0.0000 17.4917
#
#
#
# Elastic Compliance Matrix: (Units=1/GPa)
#
#
# Indices 1 2 3 4 5 6 
#
# 1 0.025935 -0.015191 0.001703 0.000000 0.000000 0.000000
# 2 -0.015191 0.024253 -0.004914 0.000000 0.000000 0.000000
# 3 0.001703 -0.004914 0.008803 0.000000 0.000000 0.000000
# 4 0.000000 0.000000 0.000000 0.047698 0.000000 0.000000
# 5 0.000000 0.000000 0.000000 0.000000 0.036866 0.000000
# 6 0.000000 0.000000 0.000000 0.000000 0.000000 0.057170
#
#
# Mechanical properties :
#
#
# Convention : Reuss Voigt Hill
#
# Bulk Modulus (GPa) = 45.07073 48.36960 46.72016
# Shear Modulus (GPa) = 20.41437 25.14490 22.77963
#
# Velocity S-wave (km/s) = 3.21832 3.57180 3.39966
# Velocity P-wave (km/s) = 6.05621 6.44605 6.25417
#
# Compressibility (1/GPa) = 0.02218735
#
# Stress axis : x y z
#
# Youngs Moduli (GPa) = 38.55743 41.23214 113.59407
#
# Poissons Ratio (x) = 0.62635 -0.19347
# Poissons Ratio (y) = 0.58572 0.55825
# Poissons Ratio (z) = -0.06567 0.20263
#
# Static dielectric constant tensor:
#      x y z
#    x 1.658940 0.000000 0.000000 
#    y 0.000000 1.690060 0.000000 
#    z 0.000000 0.000000 1.762510 
# 
# From -- ./inp_files/16627.got.cif
#   From: 2010.05.17/outbox.cif.g08.bks.cpg/sg68_9_cif.got.tgz:16627.got - 2010.06.03 18:57:09.
