data_PCOD9507169
_publ_section_title
;
Structure prediction by ZEFSAII (Michael W. Deem and Ramdas Pophale) SiO2 
 PCOD9507169
Probable space group: C C C A
;
_chemical_formula_sum "Si O2"
_cell_formula_units_Z 112
_cell_length_a 27.752446
_cell_length_b 14.688645
_cell_length_c 14.576269
_cell_angle_alpha 90.000000
_cell_angle_beta 90.000000
_cell_angle_gamma 90.000000
_cell_volume 5941.955234
_symmetry_space_group_name_H-M "C C C A"
_symmetry_group_IT_number 68
_space_group.IT_coordinate_system_code '2'
_symmetry_cell_setting 'orthorhombic'
loop_
_space_group_symop_operation_xyz
x,y,z
-x,1/2-y,z
x,1/2-y,1/2-z
-x,y,1/2-z
-x,-y,-z
x,1/2+y,-z
-x,1/2+y,1/2+z
x,-y,1/2+z
1/2+x,1/2+y,z
1/2-x,-y,z
1/2+x,-y,1/2-z
1/2-x,1/2+y,1/2-z
1/2-x,1/2-y,-z
1/2+x,y,-z
1/2-x,y,1/2+z
1/2+x,1/2-y,1/2+z
loop_
_atom_site_type_symbol
_atom_site_label
_atom_site_fract_x
_atom_site_fract_y
_atom_site_fract_z
Si Si1 0.448941 0.336594 0.199005
Si Si2 0.731633 0.839801 0.447441
Si Si3 0.625646 0.481720 0.246051
Si Si4 0.132852 0.319626 0.332744
Si Si5 0.670464 0.030150 0.064348
Si Si6 0.664052 0.870522 0.923740
Si Si7 0.600620 0.195738 0.023292
O O1 0.424146 0.250000 0.250000
O O2 0.500000 0.344595 0.250000
O O3 0.420725 0.430383 0.213098
O O4 0.444833 0.309597 0.091652
O O5 0.750000 0.750000 0.500000
O O6 0.685564 0.824792 0.382284
O O7 0.715984 0.916205 0.521652
O O8 0.780003 0.866189 0.394765
O O9 0.619543 0.583271 0.209989
O O10 0.665945 0.479097 0.326399
O O11 0.638477 0.422902 0.157580
O O12 0.134398 0.250000 0.250000
O O13 0.096170 0.292065 0.414454
O O14 0.627491 0.098901 0.035175
O O15 0.663578 0.933499 0.014751
O O16 0.637498 0.774888 0.942560
#
# Coordination Sequence:
#
# PCOD9507169 Si02
#       7
#    16  16  16  16  16  16  16
#     4  10  21  40  68 101 125 146 200 267 327 391
#     4  11  22  38  54  81 127 166 222 269 306 354
#     4  11  23  38  64  89 117 165 211 257 325 379
#     4  11  23  42  59  90 125 175 218 257 310 382
#     4  10  22  37  55  82 120 167 213 257 307 364
#     4  12  20  39  59  82 122 168 213 262 308 369
#     4  10  20  39  63  86 124 158 200 260 324 367
#
# _framework density 18.849012999999999
#
# number of rings (size 3 to 8) (size 9 to 14) (size 15 to 20)
#    0.000    1.286    7.143    1.286    0.000    1.143 
#    2.571    0.714    0.000    0.429    0.000    0.000 
#    0.000    0.000    0.000    0.000    0.000    0.000 
#
# Total GULP energy -311991.179760 kJ/mol
# GULP energy per Si atom -5571.271067 kJ/mol
# Density = 1.880611 g / cm^3
# Si number density = 18.849013 Si / 1000 Ang^3
#
#
#
# Elastic Constant Matrix: (Units=GPa)
#
#
# Indices 1 2 3 4 5 6 
#
# 1 69.2266 44.2744 35.9944 0.0000 0.0000 0.0000
# 2 44.2744 68.5244 49.2386 0.0000 0.0000 0.0000
# 3 35.9944 49.2386 132.1806 0.0000 0.0000 0.0000
# 4 0.0000 0.0000 0.0000 38.1968 0.0000 0.0000
# 5 0.0000 0.0000 0.0000 0.0000 15.6980 0.0000
# 6 0.0000 0.0000 0.0000 0.0000 0.0000 16.2640
#
#
#
# Elastic Compliance Matrix: (Units=1/GPa)
#
#
# Indices 1 2 3 4 5 6 
#
# 1 0.024728 -0.015210 -0.001068 0.000000 0.000000 0.000000
# 2 -0.015210 0.029282 -0.006766 0.000000 0.000000 0.000000
# 3 -0.001068 -0.006766 0.010377 0.000000 0.000000 0.000000
# 4 0.000000 0.000000 0.000000 0.026180 0.000000 0.000000
# 5 0.000000 0.000000 0.000000 0.000000 0.063702 0.000000
# 6 0.000000 0.000000 0.000000 0.000000 0.000000 0.061486
#
#
# Mechanical properties :
#
#
# Convention : Reuss Voigt Hill
#
# Bulk Modulus (GPa) = 54.64652 58.77181 56.70917
# Shear Modulus (GPa) = 18.66070 23.39337 21.02703
#
# Velocity S-wave (km/s) = 3.14985 3.52674 3.34361
# Velocity P-wave (km/s) = 6.50257 6.91606 6.71250
#
# Compressibility (1/GPa) = 0.01829943
#
# Stress axis : x y z
#
# Youngs Moduli (GPa) = 40.43988 34.15024 96.36964
#
# Poissons Ratio (x) = 0.51941 0.10292
# Poissons Ratio (y) = 0.61508 0.65206
# Poissons Ratio (z) = 0.04319 0.23107
#
# Static dielectric constant tensor:
#      x y z
#    x 1.690220 0.000000 0.000000 
#    y 0.000000 1.679080 0.000000 
#    z 0.000000 0.000000 1.680660 
# 
# From -- ./inp_files/26055.got.cif
#   From: 2010.05.17/outbox.cif.g08.bks.cpg/sg68_14_cif.got.tgz:26055.got - 2010.06.03 18:57:09.
