data_PCOD9507549
_publ_section_title
;
Structure prediction by ZEFSAII (Michael W. Deem and Ramdas Pophale) SiO2 
 PCOD9507549
Probable space group: C C C A
;
_chemical_formula_sum "Si O2"
_cell_formula_units_Z 64
_cell_length_a 17.863047
_cell_length_b 31.518437
_cell_length_c 5.285888
_cell_angle_alpha 90.000000
_cell_angle_beta 90.000000
_cell_angle_gamma 90.000000
_cell_volume 2976.035932
_symmetry_space_group_name_H-M "C C C A"
_symmetry_group_IT_number 68
_space_group.IT_coordinate_system_code '2'
_symmetry_cell_setting 'orthorhombic'
loop_
_space_group_symop_operation_xyz
x,y,z
-x,1/2-y,z
x,1/2-y,1/2-z
-x,y,1/2-z
-x,-y,-z
x,1/2+y,-z
-x,1/2+y,1/2+z
x,-y,1/2+z
1/2+x,1/2+y,z
1/2-x,-y,z
1/2+x,-y,1/2-z
1/2-x,1/2+y,1/2-z
1/2-x,1/2-y,-z
1/2+x,y,-z
1/2-x,y,1/2+z
1/2+x,1/2-y,1/2+z
loop_
_atom_site_type_symbol
_atom_site_label
_atom_site_fract_x
_atom_site_fract_y
_atom_site_fract_z
Si Si1 0.207471 0.590771 0.404877
Si Si2 0.410808 0.974319 0.751255
Si Si3 0.466622 0.797511 0.501226
Si Si4 0.293648 0.306989 0.412114
O O1 0.233638 0.578185 0.685354
O O2 0.131449 0.568584 0.320439
O O3 0.202510 0.641688 0.405474
O O4 0.500000 0.968485 0.750000
O O5 0.390618 0.007278 0.526433
O O6 0.500000 0.750000 0.500164
O O7 0.500000 0.819257 0.750000
O O8 0.377608 0.793395 0.519062
O O9 0.500000 0.818593 0.250000
O O10 0.263504 0.294167 0.135678
#
# Coordination Sequence:
#
# PCOD9507549 Si02
#       4
#    16  16  16  16
#     4  10  21  36  56  82 109 144 190 232 277 331
#     4  10  21  36  53  78 112 147 185 229 279 331
#     4  10  21  39  59  86 117 146 187 234 281 343
#     4  10  21  39  60  84 116 152 191 238 289 341
#
# _framework density 21.505118
#
# number of rings (size 3 to 8) (size 9 to 14) (size 15 to 20)
#    0.000    2.000    0.000    3.000    0.000    4.000 
#    0.000   18.750    0.000    0.000    0.000    0.000 
#    0.000    0.000    0.000    0.000    0.000    0.000 
#
# Total GULP energy -178795.382140 kJ/mol
# GULP energy per Si atom -5587.355692 kJ/mol
# Density = 2.145617 g / cm^3
# Si number density = 21.505118 Si / 1000 Ang^3
#
#
#
# Elastic Constant Matrix: (Units=GPa)
#
#
# Indices 1 2 3 4 5 6 
#
# 1 122.2733 24.1910 60.8603 0.0000 0.0000 0.0000
# 2 24.1910 46.8354 25.5313 0.0000 0.0000 0.0000
# 3 60.8603 25.5313 176.4042 0.0000 0.0000 0.0000
# 4 0.0000 0.0000 0.0000 20.0812 0.0000 0.0000
# 5 0.0000 0.0000 0.0000 0.0000 35.9246 0.0000
# 6 0.0000 0.0000 0.0000 0.0000 0.0000 4.2423
#
#
#
# Elastic Compliance Matrix: (Units=1/GPa)
#
#
# Indices 1 2 3 4 5 6 
#
# 1 0.010439 -0.003722 -0.003063 0.000000 0.000000 0.000000
# 2 -0.003722 0.024508 -0.002263 0.000000 0.000000 0.000000
# 3 -0.003063 -0.002263 0.007053 0.000000 0.000000 0.000000
# 4 0.000000 0.000000 0.000000 0.049798 0.000000 0.000000
# 5 0.000000 0.000000 0.000000 0.000000 0.027836 0.000000
# 6 0.000000 0.000000 0.000000 0.000000 0.000000 0.235720
#
#
# Mechanical properties :
#
#
# Convention : Reuss Voigt Hill
#
# Bulk Modulus (GPa) = 41.83432 62.96422 52.39927
# Shear Modulus (GPa) = 13.10898 27.71163 20.41031
#
# Velocity S-wave (km/s) = 2.47164 3.59361 3.08407
# Velocity P-wave (km/s) = 5.25745 6.82356 6.09105
#
# Compressibility (1/GPa) = 0.02390382
#
# Stress axis : x y z
#
# Youngs Moduli (GPa) = 95.79120 40.80378 141.78349
#
# Poissons Ratio (x) = 0.15189 0.43427
# Poissons Ratio (y) = 0.35657 0.32082
# Poissons Ratio (z) = 0.29340 0.09233
#
# Static dielectric constant tensor:
#      x y z
#    x 1.740700 0.000000 0.000000 
#    y 0.000000 1.750290 0.000000 
#    z 0.000000 0.000000 1.608260 
# 
# From -- ./inp_files/1099.got.cif
#   From: 2010.05.17/outbox.cif.g08.bks.cpg/sg68_1_cif.got.tgz:1099.got - 2010.06.03 18:57:09.
