data_PCOD9507430
_publ_section_title
;
Structure prediction by ZEFSAII (Michael W. Deem and Ramdas Pophale) SiO2 
 PCOD9507430
Probable space group: C C C A
;
_chemical_formula_sum "Si O2"
_cell_formula_units_Z 92
_cell_length_a 16.492041
_cell_length_b 20.032471
_cell_length_c 12.769747
_cell_angle_alpha 90.000000
_cell_angle_beta 90.000000
_cell_angle_gamma 90.000000
_cell_volume 4218.822188
_symmetry_space_group_name_H-M "C C C A"
_symmetry_group_IT_number 68
_space_group.IT_coordinate_system_code '2'
_symmetry_cell_setting 'orthorhombic'
loop_
_space_group_symop_operation_xyz
x,y,z
-x,1/2-y,z
x,1/2-y,1/2-z
-x,y,1/2-z
-x,-y,-z
x,1/2+y,-z
-x,1/2+y,1/2+z
x,-y,1/2+z
1/2+x,1/2+y,z
1/2-x,-y,z
1/2+x,-y,1/2-z
1/2-x,1/2+y,1/2-z
1/2-x,1/2-y,-z
1/2+x,y,-z
1/2-x,y,1/2+z
1/2+x,1/2-y,1/2+z
loop_
_atom_site_type_symbol
_atom_site_label
_atom_site_fract_x
_atom_site_fract_y
_atom_site_fract_z
Si Si1 0.000000 0.476235 0.750000
Si Si2 0.250000 0.750000 0.000000
Si Si3 0.750000 0.000000 0.573042
Si Si4 0.000000 0.250000 0.750000
Si Si5 0.479476 0.357948 0.090443
Si Si6 0.636484 0.915123 0.222596
Si Si7 0.674323 0.383673 0.547205
Si Si8 0.078574 0.203661 0.418773
O O1 0.994641 0.426285 0.848670
O O2 0.923589 0.524873 0.746215
O O3 0.261022 0.830843 0.003597
O O4 0.162978 0.757313 0.932652
O O5 0.701586 0.051173 0.646372
O O6 0.806846 0.043539 0.499029
O O7 0.047993 0.198775 0.825204
O O8 0.412869 0.366753 0.001887
O O9 0.557809 0.328689 0.032498
O O10 0.675047 0.886543 0.328104
O O11 0.589447 0.855916 0.163409
O O12 0.000000 0.250000 0.394078
#
# Coordination Sequence:
#
# PCOD9507430 Si02
#       8
#     8   8   8   4  16  16  16  16
#     4  11  26  43  77 116 141 206 252 312 401 460
#     4  12  26  50  74 110 152 208 248 326 394 458
#     4  12  26  52  74 114 158 200 262 326 384 480
#     4  10  20  44  68 110 134 204 248 300 390 454
#     4  11  23  46  75 105 156 192 260 321 374 472
#     4  12  28  47  78 114 151 206 257 322 399 477
#     4  12  26  51  74 111 158 203 256 326 393 467
#     4  12  26  50  77 116 156 204 259 331 392 469
#
# _framework density 21.807033000000001
#
# number of rings (size 3 to 8) (size 9 to 14) (size 15 to 20)
#    0.000    0.348    6.087    1.565    2.435    3.478 
#    7.826    0.000    0.000    0.000    0.000    0.000 
#    0.000    0.000    0.000    0.000    0.000    0.000 
#
# Total GULP energy -256277.552852 kJ/mol
# GULP energy per Si atom -5571.251149 kJ/mol
# Density = 2.175740 g / cm^3
# Si number density = 21.807033 Si / 1000 Ang^3
#
#
#
# Elastic Constant Matrix: (Units=GPa)
#
#
# Indices 1 2 3 4 5 6 
#
# 1 66.3422 44.5401 26.3018 0.0000 0.0000 0.0000
# 2 44.5401 137.8903 48.8478 0.0000 0.0000 0.0000
# 3 26.3018 48.8478 90.5469 0.0000 0.0000 0.0000
# 4 0.0000 0.0000 0.0000 27.5244 0.0000 0.0000
# 5 0.0000 0.0000 0.0000 0.0000 2.8509 0.0000
# 6 0.0000 0.0000 0.0000 0.0000 0.0000 23.9531
#
#
#
# Elastic Compliance Matrix: (Units=1/GPa)
#
#
# Indices 1 2 3 4 5 6 
#
# 1 0.019824 -0.005394 -0.002848 0.000000 0.000000 0.000000
# 2 -0.005394 0.010433 -0.004062 0.000000 0.000000 0.000000
# 3 -0.002848 -0.004062 0.014063 0.000000 0.000000 0.000000
# 4 0.000000 0.000000 0.000000 0.036331 0.000000 0.000000
# 5 0.000000 0.000000 0.000000 0.000000 0.350768 0.000000
# 6 0.000000 0.000000 0.000000 0.000000 0.000000 0.041748
#
#
# Mechanical properties :
#
#
# Convention : Reuss Voigt Hill
#
# Bulk Modulus (GPa) = 50.73192 59.35097 55.04145
# Shear Modulus (GPa) = 9.91382 22.53832 16.22607
#
# Velocity S-wave (km/s) = 2.13448 3.21835 2.73073
# Velocity P-wave (km/s) = 5.42118 6.40983 5.93612
#
# Compressibility (1/GPa) = 0.01971146
#
# Stress axis : x y z
#
# Youngs Moduli (GPa) = 50.44320 95.84564 71.11109
#
# Poissons Ratio (x) = 0.51703 0.20255
# Poissons Ratio (y) = 0.27211 0.28883
# Poissons Ratio (z) = 0.14368 0.38929
#
# Static dielectric constant tensor:
#      x y z
#    x 1.808580 0.000000 0.000000 
#    y 0.000000 1.864170 0.000000 
#    z 0.000000 0.000000 1.783740 
# 
# From -- ./inp_files/14538.got.cif
#   From: 2010.05.17/outbox.cif.g08.bks.cpg/sg68_8_cif.got.tgz:14538.got - 2010.06.03 18:57:09.
