data_PCOD9507431
_publ_section_title
;
Structure prediction by ZEFSAII (Michael W. Deem and Ramdas Pophale) SiO2 
 PCOD9507431
Probable space group: C C C A
;
_chemical_formula_sum "Si O2"
_cell_formula_units_Z 84
_cell_length_a 16.167082
_cell_length_b 10.282936
_cell_length_c 23.479437
_cell_angle_alpha 90.000000
_cell_angle_beta 90.000000
_cell_angle_gamma 90.000000
_cell_volume 3903.340636
_symmetry_space_group_name_H-M "C C C A"
_symmetry_group_IT_number 68
_space_group.IT_coordinate_system_code '2'
_symmetry_cell_setting 'orthorhombic'
loop_
_space_group_symop_operation_xyz
x,y,z
-x,1/2-y,z
x,1/2-y,1/2-z
-x,y,1/2-z
-x,-y,-z
x,1/2+y,-z
-x,1/2+y,1/2+z
x,-y,1/2+z
1/2+x,1/2+y,z
1/2-x,-y,z
1/2+x,-y,1/2-z
1/2-x,1/2+y,1/2-z
1/2-x,1/2-y,-z
1/2+x,y,-z
1/2-x,y,1/2+z
1/2+x,1/2-y,1/2+z
loop_
_atom_site_type_symbol
_atom_site_label
_atom_site_fract_x
_atom_site_fract_y
_atom_site_fract_z
Si Si1 0.988645 0.404558 0.053783
Si Si2 0.500000 0.750000 0.646766
Si Si3 0.250000 0.500000 0.148457
Si Si4 0.569448 0.524233 0.328676
Si Si5 0.192200 0.894465 0.538173
Si Si6 0.500000 0.750000 0.250000
Si Si7 0.170333 0.264050 0.579618
O O1 0.050031 0.446596 0.104356
O O2 0.000000 0.250000 0.043428
O O3 0.892590 0.428788 0.069089
O O4 0.000000 0.500000 0.000000
O O5 0.475996 0.616261 0.680190
O O6 0.582056 0.732732 0.607354
O O7 0.332873 0.524980 0.183449
O O8 0.215379 0.616830 0.110266
O O9 0.539452 0.646598 0.293329
O O10 0.163960 0.796606 0.487773
O O11 0.259518 0.844477 0.582626
O O12 0.250000 0.000000 0.507032
#
# Coordination Sequence:
#
# PCOD9507431 Si02
#       7
#    16   8   8  16  16   4  16
#     4  12  26  40  67 104 146 192 235 287 363 432
#     4  10  22  43  71  96 127 184 236 299 348 418
#     4  10  20  44  68  98 130 184 232 294 364 410
#     4  11  25  47  77 104 145 189 237 304 354 436
#     4  11  23  33  54  92 141 190 229 281 340 426
#     4  12  28  54  74 108 142 184 244 290 376 414
#     4  10  21  36  58  92 140 180 234 280 345 420
#
# _framework density 21.520028
#
# number of rings (size 3 to 8) (size 9 to 14) (size 15 to 20)
#    0.000    1.143    1.905    4.571   10.667    0.381 
#    0.000    3.810    2.095    0.000    0.000    0.000 
#    0.000    0.000    0.000    0.000    0.000    0.000 
#
# Total GULP energy -234023.543280 kJ/mol
# GULP energy per Si atom -5571.989126 kJ/mol
# Density = 2.147105 g / cm^3
# Si number density = 21.520028 Si / 1000 Ang^3
#
#
#
# Elastic Constant Matrix: (Units=GPa)
#
#
# Indices 1 2 3 4 5 6 
#
# 1 200.5933 77.3481 23.3494 0.0000 0.0000 0.0000
# 2 77.3481 153.1938 39.9951 0.0000 0.0000 0.0000
# 3 23.3494 39.9951 54.5148 0.0000 0.0000 0.0000
# 4 0.0000 0.0000 0.0000 18.9669 0.0000 0.0000
# 5 0.0000 0.0000 0.0000 0.0000 -12.8757 0.0000
# 6 0.0000 0.0000 0.0000 0.0000 0.0000 30.6193
#
#
#
# Elastic Compliance Matrix: (Units=1/GPa)
#
#
# Indices 1 2 3 4 5 6 
#
# 1 0.006199 -0.003014 -0.000444 0.000000 0.000000 0.000000
# 2 -0.003014 0.009540 -0.005708 0.000000 0.000000 0.000000
# 3 -0.000444 -0.005708 0.022721 0.000000 0.000000 0.000000
# 4 0.000000 0.000000 0.000000 0.052723 0.000000 0.000000
# 5 0.000000 0.000000 0.000000 0.000000 -0.077666 0.000000
# 6 0.000000 0.000000 0.000000 0.000000 0.000000 0.032659
#
#
# Mechanical properties :
#
#
# Convention : Reuss Voigt Hill
#
# Bulk Modulus (GPa) = 49.68071 76.63189 63.15630
# Shear Modulus (GPa) = 70.20679 25.18272 47.69476
#
# Velocity S-wave (km/s) = 5.71793 3.42453 4.71286
# Velocity P-wave (km/s) = 8.16878 7.16404 7.68285
#
# Compressibility (1/GPa) = 0.02012854
#
# Stress axis : x y z
#
# Youngs Moduli (GPa) = 161.31401 104.82545 44.01142
#
# Poissons Ratio (x) = 0.31595 0.01954
# Poissons Ratio (y) = 0.48621 0.25121
# Poissons Ratio (z) = 0.07160 0.59833
#
# Static dielectric constant tensor:
#      x y z
#    x 1.821360 0.000000 0.000000 
#    y 0.000000 2.105340 0.000000 
#    z 0.000000 0.000000 1.867280 
# 
# From -- ./inp_files/45359.got.cif
#   From: 2010.05.17/outbox.cif.g08.bks.cpg/sg68_23_cif.got.tgz:45359.got - 2010.06.03 18:57:09.
