data_PCOD9507435
_publ_section_title
;
Structure prediction by ZEFSAII (Michael W. Deem and Ramdas Pophale) SiO2 
 PCOD9507435
Probable space group: C C C A
;
_chemical_formula_sum "Si O2"
_cell_formula_units_Z 88
_cell_length_a 17.180156
_cell_length_b 8.568182
_cell_length_c 26.737648
_cell_angle_alpha 90.000000
_cell_angle_beta 90.000000
_cell_angle_gamma 90.000000
_cell_volume 3935.854068
_symmetry_space_group_name_H-M "C C C A"
_symmetry_group_IT_number 68
_space_group.IT_coordinate_system_code '2'
_symmetry_cell_setting 'orthorhombic'
loop_
_space_group_symop_operation_xyz
x,y,z
-x,1/2-y,z
x,1/2-y,1/2-z
-x,y,1/2-z
-x,-y,-z
x,1/2+y,-z
-x,1/2+y,1/2+z
x,-y,1/2+z
1/2+x,1/2+y,z
1/2-x,-y,z
1/2+x,-y,1/2-z
1/2-x,1/2+y,1/2-z
1/2-x,1/2-y,-z
1/2+x,y,-z
1/2-x,y,1/2+z
1/2+x,1/2-y,1/2+z
loop_
_atom_site_type_symbol
_atom_site_label
_atom_site_fract_x
_atom_site_fract_y
_atom_site_fract_z
Si Si1 0.000000 0.250000 0.653799
Si Si2 0.430884 0.435323 0.434641
Si Si3 0.764075 0.181973 0.945839
Si Si4 0.000000 0.750000 0.527305
Si Si5 0.300353 0.286752 0.651020
Si Si6 0.750000 0.000000 0.789219
Si Si7 0.644590 0.918732 0.697790
O O1 0.020314 0.112237 0.614275
O O2 0.069082 0.316641 0.688162
O O3 0.351642 0.334552 0.424990
O O4 0.452849 0.359317 0.488387
O O5 0.446598 0.622214 0.442915
O O6 0.705571 0.266938 0.907957
O O7 0.750000 0.000000 0.950498
O O8 0.750000 0.250000 0.000000
O O9 0.361586 0.403978 0.676059
O O10 0.215028 0.350260 0.665286
O O11 0.298128 0.118287 0.676589
O O12 0.684517 0.927462 0.752472
#
# Coordination Sequence:
#
# PCOD9507435 Si02
#       7
#     8  16  16   8  16   8  16
#     4  11  22  38  63  97 140 170 217 276 346 430
#     4  10  21  39  57  86 130 175 228 272 347 406
#     4  12  25  37  62  93 132 170 230 290 330 405
#     4   9  20  38  60  77 118 190 219 272 335 424
#     4  10  21  41  66  96 133 176 228 281 345 419
#     4  10  20  44  70 100 130 176 236 288 358 418
#     4  10  21  38  68  95 132 175 223 280 349 427
#
# _framework density 22.358553000000001
#
# number of rings (size 3 to 8) (size 9 to 14) (size 15 to 20)
#    0.000    1.818    2.727    3.273    2.545    5.818 
#    0.000    1.818    0.000    0.000    0.000   20.364 
#    0.000    0.000    0.000    0.000    0.000    0.000 
#
# Total GULP energy -245009.566859 kJ/mol
# GULP energy per Si atom -5568.399247 kJ/mol
# Density = 2.230766 g / cm^3
# Si number density = 22.358553 Si / 1000 Ang^3
#
#
#
# Elastic Constant Matrix: (Units=GPa)
#
#
# Indices 1 2 3 4 5 6 
#
# 1 79.6494 8.7416 12.8673 0.0000 0.0000 0.0000
# 2 8.7416 62.6664 13.4316 0.0000 0.0000 0.0000
# 3 12.8673 13.4316 118.7120 0.0000 0.0000 0.0000
# 4 0.0000 0.0000 0.0000 56.4187 0.0000 0.0000
# 5 0.0000 0.0000 0.0000 0.0000 103.5832 0.0000
# 6 0.0000 0.0000 0.0000 0.0000 0.0000 35.3870
#
#
#
# Elastic Compliance Matrix: (Units=1/GPa)
#
#
# Indices 1 2 3 4 5 6 
#
# 1 0.012922 -0.001540 -0.001226 0.000000 0.000000 0.000000
# 2 -0.001540 0.016538 -0.001704 0.000000 0.000000 0.000000
# 3 -0.001226 -0.001704 0.008750 0.000000 0.000000 0.000000
# 4 0.000000 0.000000 0.000000 0.017725 0.000000 0.000000
# 5 0.000000 0.000000 0.000000 0.000000 0.009654 0.000000
# 6 0.000000 0.000000 0.000000 0.000000 0.000000 0.028259
#
#
# Mechanical properties :
#
#
# Convention : Reuss Voigt Hill
#
# Bulk Modulus (GPa) = 34.16646 36.78987 35.47816
# Shear Modulus (GPa) = 44.42715 54.14359 49.28537
#
# Velocity S-wave (km/s) = 4.46245 4.92632 4.70011
# Velocity P-wave (km/s) = 6.47036 6.98916 6.73476
#
# Compressibility (1/GPa) = 0.02926847
#
# Stress axis : x y z
#
# Youngs Moduli (GPa) = 77.38654 60.46835 114.29216
#
# Poissons Ratio (x) = 0.09310 0.14017
# Poissons Ratio (y) = 0.11915 0.19478
# Poissons Ratio (z) = 0.09491 0.10305
#
# Static dielectric constant tensor:
#      x y z
#    x 1.895180 0.000000 0.000000 
#    y 0.000000 1.922500 0.000000 
#    z 0.000000 0.000000 1.832840 
# 
# From -- ./inp_files/46554.got.cif
#   From: 2010.05.17/outbox.cif.g08.bks.cpg/sg68_24_cif.got.tgz:46554.got - 2010.06.03 18:57:09.
