data_PCOD9507267
_publ_section_title
;
Structure prediction by ZEFSAII (Michael W. Deem and Ramdas Pophale) SiO2 
 PCOD9507267
Probable space group: C C C A
;
_chemical_formula_sum "Si O2"
_cell_formula_units_Z 116
_cell_length_a 8.828881
_cell_length_b 22.077816
_cell_length_c 27.256302
_cell_angle_alpha 90.000000
_cell_angle_beta 90.000000
_cell_angle_gamma 90.000000
_cell_volume 5312.864079
_symmetry_space_group_name_H-M "C C C A"
_symmetry_group_IT_number 68
_space_group.IT_coordinate_system_code '2'
_symmetry_cell_setting 'orthorhombic'
loop_
_space_group_symop_operation_xyz
x,y,z
-x,1/2-y,z
x,1/2-y,1/2-z
-x,y,1/2-z
-x,-y,-z
x,1/2+y,-z
-x,1/2+y,1/2+z
x,-y,1/2+z
1/2+x,1/2+y,z
1/2-x,-y,z
1/2+x,-y,1/2-z
1/2-x,1/2+y,1/2-z
1/2-x,1/2-y,-z
1/2+x,y,-z
1/2-x,y,1/2+z
1/2+x,1/2-y,1/2+z
loop_
_atom_site_type_symbol
_atom_site_label
_atom_site_fract_x
_atom_site_fract_y
_atom_site_fract_z
Si Si1 0.500000 0.750000 0.250000
Si Si2 0.910234 0.840115 0.834895
Si Si3 0.595317 0.461335 0.361885
Si Si4 0.227685 0.851121 0.889818
Si Si5 0.444891 0.449326 0.462979
Si Si6 0.715658 0.374960 0.493306
Si Si7 0.893499 0.464017 0.209269
Si Si8 0.175416 0.727549 0.930763
O O1 0.589940 0.705446 0.211947
O O2 0.849551 0.907030 0.823827
O O3 0.827261 0.813565 0.882218
O O4 0.084557 0.845433 0.854076
O O5 0.750000 0.500000 0.366413
O O6 0.648037 0.391460 0.362505
O O7 0.490824 0.469464 0.409269
O O8 0.499546 0.487327 0.317493
O O9 0.269696 0.785885 0.912632
O O10 0.190943 0.883194 0.942260
O O11 0.500000 0.500000 0.500000
O O12 0.545911 0.389708 0.476254
O O13 0.275175 0.427460 0.470907
O O14 0.725837 0.312299 0.522892
O O15 0.750000 0.500000 0.228920
O O16 0.000000 0.434791 0.250000
O O17 0.000000 0.750000 0.938604
#
# Coordination Sequence:
#
# PCOD9507267 Si02
#       8
#     4  16  16  16  16  16  16  16
#     4  12  20  40  72 100 122 172 228 274 334 398
#     4  11  22  40  69 102 132 170 228 282 333 403
#     4  11  23  41  66  91 134 175 214 279 343 401
#     4  10  20  40  63  94 130 181 217 277 340 398
#     4  11  23  37  58  93 131 182 223 278 334 400
#     4  11  23  38  62  92 135 181 232 272 337 407
#     4  12  28  45  71 102 130 171 222 283 350 416
#     4  10  21  38  64  97 135 179 234 282 330 410
#
# _framework density 21.833798999999999
#
# number of rings (size 3 to 8) (size 9 to 14) (size 15 to 20)
#    0.000    1.103    4.138    4.552    3.862    0.000 
#    0.000    2.069    0.000    0.000    0.000    0.000 
#    0.000    0.000    0.000    0.000    0.000    0.000 
#
# Total GULP energy -323771.206385 kJ/mol
# GULP energy per Si atom -5582.262179 kJ/mol
# Density = 2.178410 g / cm^3
# Si number density = 21.833799 Si / 1000 Ang^3
#
#
#
# Elastic Constant Matrix: (Units=GPa)
#
#
# Indices 1 2 3 4 5 6 
#
# 1 40.0040 7.0032 12.3502 0.0000 0.0000 0.0000
# 2 7.0032 99.2440 -0.5492 0.0000 0.0000 0.0000
# 3 12.3502 -0.5492 53.9766 0.0000 0.0000 0.0000
# 4 0.0000 0.0000 0.0000 39.6408 0.0000 0.0000
# 5 0.0000 0.0000 0.0000 0.0000 26.1240 0.0000
# 6 0.0000 0.0000 0.0000 0.0000 0.0000 22.1157
#
#
#
# Elastic Compliance Matrix: (Units=1/GPa)
#
#
# Indices 1 2 3 4 5 6 
#
# 1 0.027273 -0.001959 -0.006260 0.000000 0.000000 0.000000
# 2 -0.001959 0.010217 0.000552 0.000000 0.000000 0.000000
# 3 -0.006260 0.000552 0.019965 0.000000 0.000000 0.000000
# 4 0.000000 0.000000 0.000000 0.025227 0.000000 0.000000
# 5 0.000000 0.000000 0.000000 0.000000 0.038279 0.000000
# 6 0.000000 0.000000 0.000000 0.000000 0.000000 0.045217
#
#
# Mechanical properties :
#
#
# Convention : Reuss Voigt Hill
#
# Bulk Modulus (GPa) = 23.74120 25.64810 24.69465
# Shear Modulus (GPa) = 25.56866 29.20414 27.38640
#
# Velocity S-wave (km/s) = 3.42579 3.66124 3.54547
# Velocity P-wave (km/s) = 5.15221 5.44476 5.30050
#
# Compressibility (1/GPa) = 0.04212087
#
# Stress axis : x y z
#
# Youngs Moduli (GPa) = 36.66610 97.87143 50.08880
#
# Poissons Ratio (x) = 0.19175 0.31357
# Poissons Ratio (y) = 0.07184 -0.02766
# Poissons Ratio (z) = 0.22954 -0.05405
#
# Static dielectric constant tensor:
#      x y z
#    x 1.799390 0.000000 0.000000 
#    y 0.000000 2.644580 0.000000 
#    z 0.000000 0.000000 1.789800 
# 
# From -- ./inp_files/49638.got.cif
#   From: 2010.05.17/outbox.cif.g08.bks.cpg/sg68_25_cif.got.tgz:49638.got - 2010.06.03 18:57:09.
