data_PCOD9507099
_publ_section_title
;
Structure prediction by ZEFSAII (Michael W. Deem and Ramdas Pophale) SiO2 
 PCOD9507099
Probable space group: C C C A
;
_chemical_formula_sum "Si O2"
_cell_formula_units_Z 84
_cell_length_a 10.818712
_cell_length_b 19.379852
_cell_length_c 19.897195
_cell_angle_alpha 90.000000
_cell_angle_beta 90.000000
_cell_angle_gamma 90.000000
_cell_volume 4171.746134
_symmetry_space_group_name_H-M "C C C A"
_symmetry_group_IT_number 68
_space_group.IT_coordinate_system_code '2'
_symmetry_cell_setting 'orthorhombic'
loop_
_space_group_symop_operation_xyz
x,y,z
-x,1/2-y,z
x,1/2-y,1/2-z
-x,y,1/2-z
-x,-y,-z
x,1/2+y,-z
-x,1/2+y,1/2+z
x,-y,1/2+z
1/2+x,1/2+y,z
1/2-x,-y,z
1/2+x,-y,1/2-z
1/2-x,1/2+y,1/2-z
1/2-x,1/2-y,-z
1/2+x,y,-z
1/2-x,y,1/2+z
1/2+x,1/2-y,1/2+z
loop_
_atom_site_type_symbol
_atom_site_label
_atom_site_fract_x
_atom_site_fract_y
_atom_site_fract_z
Si Si1 0.899471 0.442161 0.985867
Si Si2 0.500000 0.250000 0.750000
Si Si3 0.750000 0.000000 0.137531
Si Si4 0.288750 0.351919 0.694166
Si Si5 0.750000 0.000000 0.398468
Si Si6 0.931833 0.680115 0.402023
Si Si7 0.400942 0.404770 0.301331
O O1 0.844802 0.465517 0.914134
O O2 0.937689 0.365354 0.969381
O O3 0.808744 0.445839 0.049178
O O4 0.000000 0.500000 0.000000
O O5 0.406246 0.302753 0.709856
O O6 0.808562 0.065885 0.176093
O O7 0.203695 0.320046 0.633753
O O8 0.202047 0.361720 0.760255
O O9 0.843793 0.961583 0.349777
O O10 0.000000 0.750000 0.417363
O O11 0.018375 0.645645 0.345995
O O12 0.500000 0.437354 0.250000
#
# Coordination Sequence:
#
# PCOD9507099 Si02
#       7
#    16   4   8  16   8  16  16
#     4  10  20  38  65  91 125 168 220 283 321 390
#     4  12  24  40  62 100 156 174 216 298 358 392
#     4   9  21  40  62  90 123 169 222 266 326 407
#     4  10  22  40  63  96 136 178 221 276 346 408
#     4  11  21  38  66  96 131 165 232 274 340 391
#     4  10  20  40  68  93 131 175 226 267 339 410
#     4  10  21  38  64  97 127 177 222 275 328 409
#
# _framework density 20.135453999999999
#
# number of rings (size 3 to 8) (size 9 to 14) (size 15 to 20)
#    0.000    1.905    1.905    1.714    0.000    4.190 
#   10.286    0.952    8.381    0.000    0.000    0.000 
#    0.000    0.000    0.000    0.000    0.000    0.000 
#
# Total GULP energy -234002.290106 kJ/mol
# GULP energy per Si atom -5571.483098 kJ/mol
# Density = 2.008963 g / cm^3
# Si number density = 20.135454 Si / 1000 Ang^3
#
#
#
# Elastic Constant Matrix: (Units=GPa)
#
#
# Indices 1 2 3 4 5 6 
#
# 1 100.8746 71.9262 50.3232 0.0000 0.0000 0.0000
# 2 71.9262 158.6198 65.0524 0.0000 0.0000 0.0000
# 3 50.3232 65.0524 101.5934 0.0000 0.0000 0.0000
# 4 0.0000 0.0000 0.0000 55.7052 0.0000 0.0000
# 5 0.0000 0.0000 0.0000 0.0000 204.9949 0.0000
# 6 0.0000 0.0000 0.0000 0.0000 0.0000 31.5255
#
#
#
# Elastic Compliance Matrix: (Units=1/GPa)
#
#
# Indices 1 2 3 4 5 6 
#
# 1 0.016008 -0.005434 -0.004450 0.000000 0.000000 0.000000
# 2 -0.005434 0.010394 -0.003964 0.000000 0.000000 0.000000
# 3 -0.004450 -0.003964 0.014586 0.000000 0.000000 0.000000
# 4 0.000000 0.000000 0.000000 0.017952 0.000000 0.000000
# 5 0.000000 0.000000 0.000000 0.000000 0.004878 0.000000
# 6 0.000000 0.000000 0.000000 0.000000 0.000000 0.031720
#
#
# Mechanical properties :
#
#
# Convention : Reuss Voigt Hill
#
# Bulk Modulus (GPa) = 75.23288 81.74350 78.48819
# Shear Modulus (GPa) = 39.16562 70.03086 54.59824
#
# Velocity S-wave (km/s) = 4.41512 5.90384 5.21290
# Velocity P-wave (km/s) = 7.96464 9.33589 8.67739
#
# Compressibility (1/GPa) = 0.01329206
#
# Stress axis : x y z
#
# Youngs Moduli (GPa) = 62.47050 96.20971 68.56096
#
# Poissons Ratio (x) = 0.52277 0.30509
# Poissons Ratio (y) = 0.33944 0.27177
# Poissons Ratio (z) = 0.27799 0.38137
#
# Static dielectric constant tensor:
#      x y z
#    x 1.999450 0.000000 0.000000 
#    y 0.000000 1.872050 0.000000 
#    z 0.000000 0.000000 1.727390 
# 
# From -- ./inp_files/37620.got.cif
#   From: 2010.05.17/outbox.cif.g08.bks.cpg/sg68_19_cif.got.tgz:37620.got - 2010.06.03 18:57:09.
