data_PCOD9507280
_publ_section_title
;
Structure prediction by ZEFSAII (Michael W. Deem and Ramdas Pophale) SiO2 
 PCOD9507280
Probable space group: C C C A
;
_chemical_formula_sum "Si O2"
_cell_formula_units_Z 104
_cell_length_a 21.288856
_cell_length_b 23.138365
_cell_length_c 10.028047
_cell_angle_alpha 90.000000
_cell_angle_beta 90.000000
_cell_angle_gamma 90.000000
_cell_volume 4939.708858
_symmetry_space_group_name_H-M "C C C A"
_symmetry_group_IT_number 68
_space_group.IT_coordinate_system_code '2'
_symmetry_cell_setting 'orthorhombic'
loop_
_space_group_symop_operation_xyz
x,y,z
-x,1/2-y,z
x,1/2-y,1/2-z
-x,y,1/2-z
-x,-y,-z
x,1/2+y,-z
-x,1/2+y,1/2+z
x,-y,1/2+z
1/2+x,1/2+y,z
1/2-x,-y,z
1/2+x,-y,1/2-z
1/2-x,1/2+y,1/2-z
1/2-x,1/2-y,-z
1/2+x,y,-z
1/2-x,y,1/2+z
1/2+x,1/2-y,1/2+z
loop_
_atom_site_type_symbol
_atom_site_label
_atom_site_fract_x
_atom_site_fract_y
_atom_site_fract_z
Si Si1 0.644632 0.069127 0.488408
Si Si2 0.933322 0.272237 0.465277
Si Si3 0.790514 0.117488 0.735633
Si Si4 0.107698 0.649433 0.016759
Si Si5 0.657098 0.342361 0.781682
Si Si6 0.750000 0.500000 0.399276
Si Si7 0.520641 0.388934 0.097605
O O1 0.682365 0.110045 0.384022
O O2 0.640225 0.101593 0.629499
O O3 0.573979 0.063873 0.434137
O O4 0.688671 0.013909 0.511567
O O5 0.909555 0.216404 0.543950
O O6 0.882287 0.292845 0.357262
O O7 0.947834 0.327392 0.557926
O O8 0.000000 0.250000 0.406128
O O9 0.845300 0.130568 0.631636
O O10 0.732711 0.161777 0.720076
O O11 0.764010 0.055201 0.691069
O O12 0.136569 0.649002 0.869798
O O13 0.044468 0.611231 0.017110
O O14 0.500000 0.390239 0.250000
#
# Coordination Sequence:
#
# PCOD9507280 Si02
#       7
#    16  16  16  16  16   8  16
#     4  10  21  40  65  93 123 161 209 266 318 388
#     4   9  21  36  59  87 124 172 213 255 310 381
#     4  11  22  40  63  89 122 161 207 266 324 387
#     4  11  22  37  62  90 127 167 212 257 317 377
#     4  10  21  37  58  90 125 164 212 261 312 375
#     4  10  22  40  68  92 116 162 212 258 330 390
#     4  10  20  40  64  93 130 165 212 261 313 373
#
# _framework density 21.053872999999999
#
# number of rings (size 3 to 8) (size 9 to 14) (size 15 to 20)
#    0.000    1.846    1.538    2.769    0.000   12.000 
#    0.000    3.846    0.000    0.000    0.000    0.000 
#    0.000    0.000    0.000    0.000    0.000    0.000 
#
# Total GULP energy -290239.317032 kJ/mol
# GULP energy per Si atom -5581.525328 kJ/mol
# Density = 2.100595 g / cm^3
# Si number density = 21.053873 Si / 1000 Ang^3
#
#
#
# Elastic Constant Matrix: (Units=GPa)
#
#
# Indices 1 2 3 4 5 6 
#
# 1 135.8294 28.3856 8.1982 0.0000 0.0000 0.0000
# 2 28.3856 41.4256 0.7738 0.0000 0.0000 0.0000
# 3 8.1982 0.7738 53.9165 0.0000 0.0000 0.0000
# 4 0.0000 0.0000 0.0000 18.3330 0.0000 0.0000
# 5 0.0000 0.0000 0.0000 0.0000 32.0129 0.0000
# 6 0.0000 0.0000 0.0000 0.0000 0.0000 35.4900
#
#
#
# Elastic Compliance Matrix: (Units=1/GPa)
#
#
# Indices 1 2 3 4 5 6 
#
# 1 0.008674 -0.005920 -0.001234 0.000000 0.000000 0.000000
# 2 -0.005920 0.028187 0.000496 0.000000 0.000000 0.000000
# 3 -0.001234 0.000496 0.018728 0.000000 0.000000 0.000000
# 4 0.000000 0.000000 0.000000 0.054547 0.000000 0.000000
# 5 0.000000 0.000000 0.000000 0.000000 0.031237 0.000000
# 6 0.000000 0.000000 0.000000 0.000000 0.000000 0.028177
#
#
# Mechanical properties :
#
#
# Convention : Reuss Voigt Hill
#
# Bulk Modulus (GPa) = 23.65665 33.98741 28.82203
# Shear Modulus (GPa) = 25.38618 30.08811 27.73714
#
# Velocity S-wave (km/s) = 3.47619 3.78445 3.63359
# Velocity P-wave (km/s) = 5.23187 5.93921 5.59673
#
# Compressibility (1/GPa) = 0.04227142
#
# Stress axis : x y z
#
# Youngs Moduli (GPa) = 115.28826 35.47709 53.39686
#
# Poissons Ratio (x) = 0.21004 0.06589
# Poissons Ratio (y) = 0.68256 -0.02647
# Poissons Ratio (z) = 0.14226 -0.01759
#
# Static dielectric constant tensor:
#      x y z
#    x 1.814860 0.000000 0.000000 
#    y 0.000000 1.773230 0.000000 
#    z 0.000000 0.000000 1.724420 
# 
# From -- ./inp_files/7357.got.cif
#   From: 2010.05.17/outbox.cif.g08.bks.cpg/sg68_4_cif.got.tgz:7357.got - 2010.06.03 18:57:09.
