data_PCOD9507963
_publ_section_title
;
Structure prediction by ZEFSAII (Michael W. Deem and Ramdas Pophale) SiO2 
 PCOD9507963
Probable space group: C C C A
;
_chemical_formula_sum "Si O2"
_cell_formula_units_Z 84
_cell_length_a 15.665063
_cell_length_b 15.471818
_cell_length_c 15.638871
_cell_angle_alpha 90.000000
_cell_angle_beta 90.000000
_cell_angle_gamma 90.000000
_cell_volume 3790.346305
_symmetry_space_group_name_H-M "C C C A"
_symmetry_group_IT_number 68
_space_group.IT_coordinate_system_code '2'
_symmetry_cell_setting 'orthorhombic'
loop_
_space_group_symop_operation_xyz
x,y,z
-x,1/2-y,z
x,1/2-y,1/2-z
-x,y,1/2-z
-x,-y,-z
x,1/2+y,-z
-x,1/2+y,1/2+z
x,-y,1/2+z
1/2+x,1/2+y,z
1/2-x,-y,z
1/2+x,-y,1/2-z
1/2-x,1/2+y,1/2-z
1/2-x,1/2-y,-z
1/2+x,y,-z
1/2-x,y,1/2+z
1/2+x,1/2-y,1/2+z
loop_
_atom_site_type_symbol
_atom_site_label
_atom_site_fract_x
_atom_site_fract_y
_atom_site_fract_z
Si Si1 0.722472 0.847640 0.004975
Si Si2 0.640242 0.873144 0.186947
Si Si3 0.031530 0.650648 0.468401
Si Si4 0.500000 0.750000 0.250000
Si Si5 0.486546 0.507334 0.119945
Si Si6 0.178834 0.567451 0.857971
O O1 0.701006 0.868481 0.104322
O O2 0.750000 0.750000 0.000000
O O3 0.633033 0.850783 0.953616
O O4 0.793151 0.901328 0.952660
O O5 0.561828 0.805169 0.189073
O O6 0.589522 0.964062 0.181838
O O7 0.679986 0.637099 0.218702
O O8 0.026038 0.579463 0.544818
O O9 0.000000 0.750000 0.481178
O O10 0.980711 0.594772 0.398380
O O11 0.584663 0.528193 0.140254
O O12 0.250000 0.500000 0.831826
#
# Coordination Sequence:
#
# PCOD9507963 Si02
#       6
#    16  16  16   4  16  16
#     4  11  24  40  67 104 140 177 226 289 361 409
#     4  11  25  42  72 103 135 186 234 290 349 423
#     4  10  21  39  66  98 136 184 228 275 341 425
#     4  12  20  40  76 100 134 170 250 292 328 408
#     4  10  21  42  69  96 133 181 238 283 339 417
#     4  12  23  44  66  98 145 173 228 296 350 411
#
# _framework density 22.161563999999998
#
# number of rings (size 3 to 8) (size 9 to 14) (size 15 to 20)
#    0.000    1.143    3.810    2.286    5.333    0.762 
#    3.429    0.000    0.000    2.286    0.000    0.000 
#    0.000    0.000    0.000    0.000    0.000    0.000 
#
# Total GULP energy -233897.188500 kJ/mol
# GULP energy per Si atom -5568.980679 kJ/mol
# Density = 2.211112 g / cm^3
# Si number density = 22.161564 Si / 1000 Ang^3
#
#
#
# Elastic Constant Matrix: (Units=GPa)
#
#
# Indices 1 2 3 4 5 6 
#
# 1 56.7938 15.7203 41.0145 0.0000 0.0000 0.0000
# 2 15.7203 116.2112 38.5631 0.0000 0.0000 0.0000
# 3 41.0145 38.5631 101.5783 0.0000 0.0000 0.0000
# 4 0.0000 0.0000 0.0000 19.8010 0.0000 0.0000
# 5 0.0000 0.0000 0.0000 0.0000 10.0186 0.0000
# 6 0.0000 0.0000 0.0000 0.0000 0.0000 45.7296
#
#
#
# Elastic Compliance Matrix: (Units=1/GPa)
#
#
# Indices 1 2 3 4 5 6 
#
# 1 0.024855 -0.000037 -0.010022 0.000000 0.000000 0.000000
# 2 -0.000037 0.009845 -0.003723 0.000000 0.000000 0.000000
# 3 -0.010022 -0.003723 0.015305 0.000000 0.000000 0.000000
# 4 0.000000 0.000000 0.000000 0.050503 0.000000 0.000000
# 5 0.000000 0.000000 0.000000 0.000000 0.099814 0.000000
# 6 0.000000 0.000000 0.000000 0.000000 0.000000 0.021868
#
#
# Mechanical properties :
#
#
# Convention : Reuss Voigt Hill
#
# Bulk Modulus (GPa) = 44.55890 51.68658 48.12274
# Shear Modulus (GPa) = 19.43761 27.06220 23.24990
#
# Velocity S-wave (km/s) = 2.96478 3.49826 3.24251
# Velocity P-wave (km/s) = 5.64534 6.30003 5.98165
#
# Compressibility (1/GPa) = 0.02244221
#
# Stress axis : x y z
#
# Youngs Moduli (GPa) = 40.23310 101.57053 65.33995
#
# Poissons Ratio (x) = 0.00372 0.65483
# Poissons Ratio (y) = 0.00147 0.24326
# Poissons Ratio (z) = 0.40321 0.37814
#
# Static dielectric constant tensor:
#      x y z
#    x 1.809170 0.000000 0.000000 
#    y 0.000000 1.856270 0.000000 
#    z 0.000000 0.000000 2.107580 
# 
# From -- ./inp_files/45430.got.cif
#   From: 2010.05.17/outbox.cif.g08.bks.cpg/sg68_23_cif.got.tgz:45430.got - 2010.06.03 18:57:09.
