data_PCOD9507633
_publ_section_title
;
Structure prediction by ZEFSAII (Michael W. Deem and Ramdas Pophale) SiO2 
 PCOD9507633
Probable space group: C C C A
;
_chemical_formula_sum "Si O2"
_cell_formula_units_Z 88
_cell_length_a 17.206551
_cell_length_b 11.300274
_cell_length_c 22.471728
_cell_angle_alpha 90.000000
_cell_angle_beta 90.000000
_cell_angle_gamma 90.000000
_cell_volume 4369.374498
_symmetry_space_group_name_H-M "C C C A"
_symmetry_group_IT_number 68
_space_group.IT_coordinate_system_code '2'
_symmetry_cell_setting 'orthorhombic'
loop_
_space_group_symop_operation_xyz
x,y,z
-x,1/2-y,z
x,1/2-y,1/2-z
-x,y,1/2-z
-x,-y,-z
x,1/2+y,-z
-x,1/2+y,1/2+z
x,-y,1/2+z
1/2+x,1/2+y,z
1/2-x,-y,z
1/2+x,-y,1/2-z
1/2-x,1/2+y,1/2-z
1/2-x,1/2-y,-z
1/2+x,y,-z
1/2-x,y,1/2+z
1/2+x,1/2-y,1/2+z
loop_
_atom_site_type_symbol
_atom_site_label
_atom_site_fract_x
_atom_site_fract_y
_atom_site_fract_z
Si Si1 0.436927 0.058964 0.081428
Si Si2 0.000000 0.250000 0.503659
Si Si3 0.802432 0.883472 0.129925
Si Si4 0.528503 0.614515 0.816592
Si Si5 0.728942 0.866006 0.887470
Si Si6 0.850451 0.857638 0.990725
O O1 0.497631 0.135910 0.044998
O O2 0.484146 0.023329 0.139704
O O3 0.363327 0.133100 0.103675
O O4 0.397966 0.965133 0.038677
O O5 0.086913 0.252547 0.477107
O O6 0.880186 0.891771 0.169813
O O7 0.757786 0.759517 0.145053
O O8 0.750000 0.000000 0.136966
O O9 0.827404 0.874341 0.059530
O O10 0.500000 0.750000 0.830313
O O11 0.500000 0.592225 0.750000
O O12 0.773533 0.852485 0.950328
O O13 0.750000 0.000000 0.864687
#
# Coordination Sequence:
#
# PCOD9507633 Si02
#       6
#    16   8  16  16  16  16
#     4  11  19  38  55  87 122 164 214 260 312 390
#     4  12  20  32  55  84 125 164 216 246 310 400
#     4  12  23  38  63 100 130 165 216 269 328 393
#     4  11  22  41  68  88 119 173 230 273 314 385
#     4  10  21  37  57  89 136 175 202 258 324 398
#     4  11  23  32  57  89 134 170 200 259 333 400
#
# _framework density 20.140183
#
# number of rings (size 3 to 8) (size 9 to 14) (size 15 to 20)
#    0.000    0.909    6.364    2.727    2.545    0.000 
#    0.000    2.727    0.000    0.000    0.000   12.091 
#    0.000    0.000    0.000    0.000    0.000    0.000 
#
# Total GULP energy -244935.589851 kJ/mol
# GULP energy per Si atom -5566.717951 kJ/mol
# Density = 2.009434 g / cm^3
# Si number density = 20.140183 Si / 1000 Ang^3
#
#
#
# Elastic Constant Matrix: (Units=GPa)
#
#
# Indices 1 2 3 4 5 6 
#
# 1 120.2117 36.8137 31.6920 0.0000 0.0000 0.0000
# 2 36.8137 113.5708 28.0474 0.0000 0.0000 0.0000
# 3 31.6920 28.0474 51.2966 0.0000 0.0000 0.0000
# 4 0.0000 0.0000 0.0000 10.2761 0.0000 0.0000
# 5 0.0000 0.0000 0.0000 0.0000 21.8239 0.0000
# 6 0.0000 0.0000 0.0000 0.0000 0.0000 38.5838
#
#
#
# Elastic Compliance Matrix: (Units=1/GPa)
#
#
# Indices 1 2 3 4 5 6 
#
# 1 0.010334 -0.002050 -0.005264 0.000000 0.000000 0.000000
# 2 -0.002050 0.010586 -0.004522 0.000000 0.000000 0.000000
# 3 -0.005264 -0.004522 0.025219 0.000000 0.000000 0.000000
# 4 0.000000 0.000000 0.000000 0.097313 0.000000 0.000000
# 5 0.000000 0.000000 0.000000 0.000000 0.045821 0.000000
# 6 0.000000 0.000000 0.000000 0.000000 0.000000 0.025918
#
#
# Mechanical properties :
#
#
# Convention : Reuss Voigt Hill
#
# Bulk Modulus (GPa) = 44.50701 53.13172 48.81937
# Shear Modulus (GPa) = 20.29618 26.70516 23.50067
#
# Velocity S-wave (km/s) = 3.17794 3.64533 3.41963
# Velocity P-wave (km/s) = 5.96761 6.64501 6.31540
#
# Compressibility (1/GPa) = 0.02246837
#
# Stress axis : x y z
#
# Youngs Moduli (GPa) = 96.76666 94.46237 39.65272
#
# Poissons Ratio (x) = 0.19363 0.20873
# Poissons Ratio (y) = 0.19836 0.17930
# Poissons Ratio (z) = 0.50936 0.42714
#
# Static dielectric constant tensor:
#      x y z
#    x 1.774720 0.000000 0.000000 
#    y 0.000000 1.853830 0.000000 
#    z 0.000000 0.000000 1.746800 
# 
# From -- ./inp_files/39422.got.cif
#   From: 2010.05.17/outbox.cif.g08.bks.cpg/sg68_20_cif.got.tgz:39422.got - 2010.06.03 18:57:09.
