data_PCOD9507071
_publ_section_title
;
Structure prediction by ZEFSAII (Michael W. Deem and Ramdas Pophale) SiO2 
 PCOD9507071
Probable space group: C C C A
;
_chemical_formula_sum "Si O2"
_cell_formula_units_Z 72
_cell_length_a 8.208412
_cell_length_b 14.836811
_cell_length_c 23.794931
_cell_angle_alpha 90.000000
_cell_angle_beta 90.000000
_cell_angle_gamma 90.000000
_cell_volume 2897.905111
_symmetry_space_group_name_H-M "C C C A"
_symmetry_group_IT_number 68
_space_group.IT_coordinate_system_code '2'
_symmetry_cell_setting 'orthorhombic'
loop_
_space_group_symop_operation_xyz
x,y,z
-x,1/2-y,z
x,1/2-y,1/2-z
-x,y,1/2-z
-x,-y,-z
x,1/2+y,-z
-x,1/2+y,1/2+z
x,-y,1/2+z
1/2+x,1/2+y,z
1/2-x,-y,z
1/2+x,-y,1/2-z
1/2-x,1/2+y,1/2-z
1/2-x,1/2-y,-z
1/2+x,y,-z
1/2-x,y,1/2+z
1/2+x,1/2-y,1/2+z
loop_
_atom_site_type_symbol
_atom_site_label
_atom_site_fract_x
_atom_site_fract_y
_atom_site_fract_z
Si Si1 0.308714 0.151574 0.240152
Si Si2 0.834559 0.307801 0.621028
Si Si3 0.856580 0.639655 0.915125
Si Si4 0.750000 0.500000 0.832022
Si Si5 0.979654 0.397911 0.980161
O O1 0.232281 0.250000 0.250000
O O2 0.500000 0.159239 0.250000
O O3 0.289076 0.130230 0.174153
O O4 0.265877 0.080800 0.287618
O O5 0.696627 0.231554 0.615011
O O6 0.888413 0.362249 0.565487
O O7 0.000000 0.250000 0.634996
O O8 0.874359 0.551309 0.875117
O O9 0.996980 0.651391 0.960525
O O10 0.694017 0.618429 0.952018
O O11 0.000000 0.500000 0.000000
#
# Coordination Sequence:
#
# PCOD9507071 Si02
#       5
#    16  16  16   8  16
#     4  11  20  38  65  92 121 167 225 267 320 400
#     4  10  20  38  63  89 124 169 217 264 320 398
#     4  11  22  39  62  93 129 168 212 266 328 386
#     4  12  22  38  64  94 124 166 220 278 318 380
#     4  11  21  37  61  92 127 162 209 264 323 384
#
# _framework density 24.845534000000001
#
# number of rings (size 3 to 8) (size 9 to 14) (size 15 to 20)
#    0.000    1.111    6.667    2.000    0.000    0.000 
#    4.000    0.000    0.000    0.667    0.000    0.000 
#    0.000    0.000    0.000    0.000    0.000    0.000 
#
# Total GULP energy -200918.641591 kJ/mol
# GULP energy per Si atom -5581.073378 kJ/mol
# Density = 2.478898 g / cm^3
# Si number density = 24.845534 Si / 1000 Ang^3
#
#
#
# Elastic Constant Matrix: (Units=GPa)
#
#
# Indices 1 2 3 4 5 6 
#
# 1 37.5773 8.1294 9.4556 0.0000 0.0000 0.0000
# 2 8.1294 129.7130 70.8785 0.0000 0.0000 0.0000
# 3 9.4556 70.8785 192.2006 0.0000 0.0000 0.0000
# 4 0.0000 0.0000 0.0000 75.1275 0.0000 0.0000
# 5 0.0000 0.0000 0.0000 0.0000 11.7738 0.0000
# 6 0.0000 0.0000 0.0000 0.0000 0.0000 3.1938
#
#
#
# Elastic Compliance Matrix: (Units=1/GPa)
#
#
# Indices 1 2 3 4 5 6 
#
# 1 0.027097 -0.001215 -0.000885 0.000000 0.000000 0.000000
# 2 -0.001215 0.009709 -0.003521 0.000000 0.000000 0.000000
# 3 -0.000885 -0.003521 0.006545 0.000000 0.000000 0.000000
# 4 0.000000 0.000000 0.000000 0.013311 0.000000 0.000000
# 5 0.000000 0.000000 0.000000 0.000000 0.084935 0.000000
# 6 0.000000 0.000000 0.000000 0.000000 0.000000 0.313107
#
#
# Mechanical properties :
#
#
# Convention : Reuss Voigt Hill
#
# Bulk Modulus (GPa) = 31.14257 59.60200 45.37228
# Shear Modulus (GPa) = 10.48991 36.08750 23.28871
#
# Velocity S-wave (km/s) = 2.05699 3.81527 3.06492
# Velocity P-wave (km/s) = 4.26653 6.59162 5.55215
#
# Compressibility (1/GPa) = 0.03211039
#
# Stress axis : x y z
#
# Youngs Moduli (GPa) = 36.90399 102.99419 152.79267
#
# Poissons Ratio (x) = 0.12509 0.13525
# Poissons Ratio (y) = 0.04482 0.53795
# Poissons Ratio (z) = 0.03267 0.36262
#
# Static dielectric constant tensor:
#      x y z
#    x 2.031060 0.000000 0.000000 
#    y 0.000000 -0.137600 0.000000 
#    z 0.000000 0.000000 2.235640 
# 
# From -- ./inp_files/37325.got.cif
#   From: 2010.05.17/outbox.cif.g08.bks.cpg/sg68_19_cif.got.tgz:37325.got - 2010.06.03 18:57:09.
