data_PCOD9507513
_publ_section_title
;
Structure prediction by ZEFSAII (Michael W. Deem and Ramdas Pophale) SiO2 
 PCOD9507513
Probable space group: C C C A
;
_chemical_formula_sum "Si O2"
_cell_formula_units_Z 68
_cell_length_a 4.924595
_cell_length_b 25.865196
_cell_length_c 23.189193
_cell_angle_alpha 90.000000
_cell_angle_beta 90.000000
_cell_angle_gamma 90.000000
_cell_volume 2953.737717
_symmetry_space_group_name_H-M "C C C A"
_symmetry_group_IT_number 68
_space_group.IT_coordinate_system_code '2'
_symmetry_cell_setting 'orthorhombic'
loop_
_space_group_symop_operation_xyz
x,y,z
-x,1/2-y,z
x,1/2-y,1/2-z
-x,y,1/2-z
-x,-y,-z
x,1/2+y,-z
-x,1/2+y,1/2+z
x,-y,1/2+z
1/2+x,1/2+y,z
1/2-x,-y,z
1/2+x,-y,1/2-z
1/2-x,1/2+y,1/2-z
1/2-x,1/2-y,-z
1/2+x,y,-z
1/2-x,y,1/2+z
1/2+x,1/2-y,1/2+z
loop_
_atom_site_type_symbol
_atom_site_label
_atom_site_fract_x
_atom_site_fract_y
_atom_site_fract_z
Si Si1 0.318544 0.383008 0.870282
Si Si2 0.570644 0.194247 0.538157
Si Si3 0.935082 0.556579 0.527520
Si Si4 0.000000 0.250000 0.250000
Si Si5 0.805235 0.847494 0.196442
O O1 0.458802 0.345264 0.915880
O O2 0.326095 0.436269 0.907863
O O3 0.535183 0.380806 0.817854
O O4 0.025219 0.360285 0.853756
O O5 0.500000 0.250000 0.563997
O O6 0.881016 0.191723 0.518810
O O7 0.224852 0.581921 0.516412
O O8 0.000000 0.500000 0.500000
O O9 0.813624 0.210303 0.211663
O O10 0.000000 0.861413 0.250000
#
# Coordination Sequence:
#
# PCOD9507513 Si02
#       5
#    16  16  16   4  16
#     4  12  23  38  66  94 128 181 230 281 351 415
#     4  10  21  35  50  79 122 166 212 262 318 396
#     4  10  21  40  68 105 140 170 216 287 353 444
#     4  12  26  48  62  88 142 180 262 316 334 388
#     4  12  26  42  63  92 130 182 238 302 341 394
#
# _framework density 23.021678000000001
#
# number of rings (size 3 to 8) (size 9 to 14) (size 15 to 20)
#    0.000    0.941    2.353    4.588    1.647    0.000 
#    0.000    0.000    0.000    0.000    0.000   65.882 
#    0.000    0.000    0.000    0.000    0.000    0.000 
#
# Total GULP energy -189284.928038 kJ/mol
# GULP energy per Si atom -5567.203766 kJ/mol
# Density = 2.296928 g / cm^3
# Si number density = 23.021678 Si / 1000 Ang^3
#
#
#
# Elastic Constant Matrix: (Units=GPa)
#
#
# Indices 1 2 3 4 5 6 
#
# 1 190.1118 25.9497 46.0304 0.0000 0.0000 0.0000
# 2 25.9497 105.6057 41.4347 0.0000 0.0000 0.0000
# 3 46.0304 41.4347 104.4008 0.0000 0.0000 0.0000
# 4 0.0000 0.0000 0.0000 41.2612 0.0000 0.0000
# 5 0.0000 0.0000 0.0000 0.0000 55.8873 0.0000
# 6 0.0000 0.0000 0.0000 0.0000 0.0000 17.4565
#
#
#
# Elastic Compliance Matrix: (Units=1/GPa)
#
#
# Indices 1 2 3 4 5 6 
#
# 1 0.005912 -0.000509 -0.002404 0.000000 0.000000 0.000000
# 2 -0.000509 0.011260 -0.004244 0.000000 0.000000 0.000000
# 3 -0.002404 -0.004244 0.012323 0.000000 0.000000 0.000000
# 4 0.000000 0.000000 0.000000 0.024236 0.000000 0.000000
# 5 0.000000 0.000000 0.000000 0.000000 0.017893 0.000000
# 6 0.000000 0.000000 0.000000 0.000000 0.000000 0.057285
#
#
# Mechanical properties :
#
#
# Convention : Reuss Voigt Hill
#
# Bulk Modulus (GPa) = 65.88204 69.66088 67.77146
# Shear Modulus (GPa) = 33.71913 42.03455 37.87684
#
# Velocity S-wave (km/s) = 3.83125 4.27765 4.06059
# Velocity P-wave (km/s) = 6.94628 7.39745 7.17541
#
# Compressibility (1/GPa) = 0.01517864
#
# Stress axis : x y z
#
# Youngs Moduli (GPa) = 169.15520 88.81362 81.14915
#
# Poissons Ratio (x) = 0.04523 0.19511
# Poissons Ratio (y) = 0.08615 0.34441
# Poissons Ratio (z) = 0.40671 0.37694
#
# Static dielectric constant tensor:
#      x y z
#    x 1.638690 0.000000 0.000000 
#    y 0.000000 1.013360 0.000000 
#    z 0.000000 0.000000 2.102820 
# 
# From -- ./inp_files/35215.got.cif
#   From: 2010.05.17/outbox.cif.g08.bks.cpg/sg68_18_cif.got.tgz:35215.got - 2010.06.03 18:57:09.
