data_PCOD9507001
_publ_section_title
;
Structure prediction by ZEFSAII (Michael W. Deem and Ramdas Pophale) SiO2 
 PCOD9507001
Probable space group: C C C A
;
_chemical_formula_sum "Si O2"
_cell_formula_units_Z 100
_cell_length_a 14.753868
_cell_length_b 23.406082
_cell_length_c 15.117892
_cell_angle_alpha 90.000000
_cell_angle_beta 90.000000
_cell_angle_gamma 90.000000
_cell_volume 5220.665337
_symmetry_space_group_name_H-M "C C C A"
_symmetry_group_IT_number 68
_space_group.IT_coordinate_system_code '2'
_symmetry_cell_setting 'orthorhombic'
loop_
_space_group_symop_operation_xyz
x,y,z
-x,1/2-y,z
x,1/2-y,1/2-z
-x,y,1/2-z
-x,-y,-z
x,1/2+y,-z
-x,1/2+y,1/2+z
x,-y,1/2+z
1/2+x,1/2+y,z
1/2-x,-y,z
1/2+x,-y,1/2-z
1/2-x,1/2+y,1/2-z
1/2-x,1/2-y,-z
1/2+x,y,-z
1/2-x,y,1/2+z
1/2+x,1/2-y,1/2+z
loop_
_atom_site_type_symbol
_atom_site_label
_atom_site_fract_x
_atom_site_fract_y
_atom_site_fract_z
Si Si1 0.800297 0.165971 0.989842
Si Si2 0.000420 0.358319 0.988702
Si Si3 0.631109 0.278212 0.588991
Si Si4 0.440904 0.564384 0.668122
Si Si5 0.046439 0.068406 0.338925
Si Si6 0.000000 0.250000 0.250000
Si Si7 0.252821 0.064520 0.881031
O O1 0.830753 0.215887 0.059755
O O2 0.759279 0.112468 0.043441
O O3 0.899040 0.152815 0.950620
O O4 0.723508 0.185182 0.920608
O O5 0.938608 0.304545 0.016230
O O6 0.015806 0.394568 0.078152
O O7 0.952400 0.397457 0.917674
O O8 0.572214 0.277766 0.679385
O O9 0.500000 0.585007 0.750000
O O10 0.471780 0.499199 0.648620
O O11 0.333324 0.566592 0.682998
O O12 0.154050 0.072526 0.329172
O O13 0.000000 0.088747 0.250000
O O14 0.250000 0.000000 0.920278
#
# Coordination Sequence:
#
# PCOD9507001 Si02
#       7
#    16  16  16  16  16   4  16
#     4  10  21  41  60  90 117 164 199 260 312 385
#     4  11  20  38  61  89 120 163 203 261 314 382
#     4  11  23  39  65  88 126 157 211 260 324 376
#     4  10  20  38  56  85 123 167 207 250 312 382
#     4   9  20  35  59  88 122 161 206 259 318 373
#     4  12  24  44  64 100 120 168 204 280 316 386
#     4   9  18  36  62  89 124 161 203 257 311 374
#
# _framework density 19.154647000000001
#
# number of rings (size 3 to 8) (size 9 to 14) (size 15 to 20)
#    0.000    1.920    3.200    0.480    1.120    0.000 
#    5.760    0.000    0.000    0.960    0.000    0.000 
#    0.000    0.000    0.000    0.000    0.000    0.000 
#
# Total GULP energy -278418.779505 kJ/mol
# GULP energy per Si atom -5568.375590 kJ/mol
# Density = 1.911105 g / cm^3
# Si number density = 19.154647 Si / 1000 Ang^3
#
#
#
# Elastic Constant Matrix: (Units=GPa)
#
#
# Indices 1 2 3 4 5 6 
#
# 1 110.2815 46.4518 60.2685 0.0000 0.0000 0.0000
# 2 46.4518 75.4151 35.3622 0.0000 0.0000 0.0000
# 3 60.2685 35.3622 75.1529 0.0000 0.0000 0.0000
# 4 0.0000 0.0000 0.0000 6.3745 0.0000 0.0000
# 5 0.0000 0.0000 0.0000 0.0000 31.4473 0.0000
# 6 0.0000 0.0000 0.0000 0.0000 0.0000 32.2407
#
#
#
# Elastic Compliance Matrix: (Units=1/GPa)
#
#
# Indices 1 2 3 4 5 6 
#
# 1 0.017737 -0.005460 -0.011655 0.000000 0.000000 0.000000
# 2 -0.005460 0.018695 -0.004418 0.000000 0.000000 0.000000
# 3 -0.011655 -0.004418 0.024731 0.000000 0.000000 0.000000
# 4 0.000000 0.000000 0.000000 0.156875 0.000000 0.000000
# 5 0.000000 0.000000 0.000000 0.000000 0.031799 0.000000
# 6 0.000000 0.000000 0.000000 0.000000 0.000000 0.031017
#
#
# Mechanical properties :
#
#
# Convention : Reuss Voigt Hill
#
# Bulk Modulus (GPa) = 55.25620 60.55717 57.90669
# Shear Modulus (GPa) = 15.15372 21.93031 18.54202
#
# Velocity S-wave (km/s) = 2.81575 3.38732 3.11467
# Velocity P-wave (km/s) = 6.28341 6.85435 6.57508
#
# Compressibility (1/GPa) = 0.01809752
#
# Stress axis : x y z
#
# Youngs Moduli (GPa) = 56.37978 53.49150 40.43430
#
# Poissons Ratio (x) = 0.29207 0.47125
# Poissons Ratio (y) = 0.30784 0.17863
# Poissons Ratio (z) = 0.65710 0.23632
#
# Static dielectric constant tensor:
#      x y z
#    x 1.752410 0.000000 0.000000 
#    y 0.000000 1.732090 0.000000 
#    z 0.000000 0.000000 1.609710 
# 
# From -- ./inp_files/22523.got.cif
#   From: 2010.05.17/outbox.cif.g08.bks.cpg/sg68_12_cif.got.tgz:22523.got - 2010.06.03 18:57:09.
