data_PCOD9507193
_publ_section_title
;
Structure prediction by ZEFSAII (Michael W. Deem and Ramdas Pophale) SiO2 
 PCOD9507193
Probable space group: C C C A
;
_chemical_formula_sum "Si O2"
_cell_formula_units_Z 116
_cell_length_a 20.237343
_cell_length_b 17.400933
_cell_length_c 17.237181
_cell_angle_alpha 90.000000
_cell_angle_beta 90.000000
_cell_angle_gamma 90.000000
_cell_volume 6070.050013
_symmetry_space_group_name_H-M "C C C A"
_symmetry_group_IT_number 68
_space_group.IT_coordinate_system_code '2'
_symmetry_cell_setting 'orthorhombic'
loop_
_space_group_symop_operation_xyz
x,y,z
-x,1/2-y,z
x,1/2-y,1/2-z
-x,y,1/2-z
-x,-y,-z
x,1/2+y,-z
-x,1/2+y,1/2+z
x,-y,1/2+z
1/2+x,1/2+y,z
1/2-x,-y,z
1/2+x,-y,1/2-z
1/2-x,1/2+y,1/2-z
1/2-x,1/2-y,-z
1/2+x,y,-z
1/2-x,y,1/2+z
1/2+x,1/2-y,1/2+z
loop_
_atom_site_type_symbol
_atom_site_label
_atom_site_fract_x
_atom_site_fract_y
_atom_site_fract_z
Si Si1 0.082429 0.661611 0.624292
Si Si2 0.862074 0.686564 0.546938
Si Si3 0.484458 0.410780 0.000999
Si Si4 0.780339 0.416283 0.332727
Si Si5 0.000000 0.250000 0.250000
Si Si6 0.827421 0.707784 0.373793
Si Si7 0.027779 0.163645 0.832136
Si Si8 0.269578 0.318626 0.808743
O O1 0.102405 0.742164 0.586553
O O2 0.034061 0.624803 0.561541
O O3 0.144985 0.605661 0.641562
O O4 0.044691 0.691230 0.700373
O O5 0.838939 0.718836 0.464403
O O6 0.806848 0.668323 0.610656
O O7 0.911743 0.616964 0.527014
O O8 0.500000 0.500000 0.000000
O O9 0.492422 0.380294 0.089312
O O10 0.750000 0.500000 0.349393
O O11 0.732122 0.352943 0.370020
O O12 0.773432 0.394951 0.241876
O O13 0.892803 0.672748 0.334709
O O14 0.801955 0.784614 0.331584
O O15 0.000000 0.250000 0.839204
O O16 0.000000 0.132403 0.750000
O O17 0.297007 0.250000 0.750000
#
# Coordination Sequence:
#
# PCOD9507193 Si02
#       8
#    16  16  16  16   4  16  16  16
#     4  12  23  42  71  99 134 174 231 283 340 400
#     4  11  20  42  69  95 123 175 229 271 327 401
#     4  11  25  43  62  99 141 173 214 278 345 408
#     4  11  26  42  62  96 140 176 213 280 344 397
#     4  12  24  44  76 108 122 180 248 288 332 400
#     4  10  22  40  68  92 128 168 223 274 324 391
#     4  10  23  43  68  96 125 173 224 271 328 397
#     4  10  20  39  64  97 123 164 226 276 322 396
#
# _framework density 19.110220999999999
#
# number of rings (size 3 to 8) (size 9 to 14) (size 15 to 20)
#    0.000    1.241    4.138    2.897    9.655    0.000 
#    3.724    0.690    0.000    0.000    0.000    0.000 
#    0.000    0.000    0.000    0.000    0.000    0.000 
#
# Total GULP energy -323380.684014 kJ/mol
# GULP energy per Si atom -5575.529035 kJ/mol
# Density = 1.906673 g / cm^3
# Si number density = 19.110221 Si / 1000 Ang^3
#
#
#
# Elastic Constant Matrix: (Units=GPa)
#
#
# Indices 1 2 3 4 5 6 
#
# 1 102.9769 17.6755 63.0716 0.0000 0.0000 0.0000
# 2 17.6755 61.2227 20.0636 0.0000 0.0000 0.0000
# 3 63.0716 20.0636 148.6762 0.0000 0.0000 0.0000
# 4 0.0000 0.0000 0.0000 18.2347 0.0000 0.0000
# 5 0.0000 0.0000 0.0000 0.0000 46.9907 0.0000
# 6 0.0000 0.0000 0.0000 0.0000 0.0000 32.7239
#
#
#
# Elastic Compliance Matrix: (Units=1/GPa)
#
#
# Indices 1 2 3 4 5 6 
#
# 1 0.013372 -0.002094 -0.005390 0.000000 0.000000 0.000000
# 2 -0.002094 0.017418 -0.001462 0.000000 0.000000 0.000000
# 3 -0.005390 -0.001462 0.009210 0.000000 0.000000 0.000000
# 4 0.000000 0.000000 0.000000 0.054840 0.000000 0.000000
# 5 0.000000 0.000000 0.000000 0.000000 0.021281 0.000000
# 6 0.000000 0.000000 0.000000 0.000000 0.000000 0.030559
#
#
# Mechanical properties :
#
#
# Convention : Reuss Voigt Hill
#
# Bulk Modulus (GPa) = 45.23516 57.16638 51.20077
# Shear Modulus (GPa) = 29.07990 33.72754 31.40372
#
# Velocity S-wave (km/s) = 3.90512 4.20562 4.05815
# Velocity P-wave (km/s) = 6.63742 7.31861 6.98632
#
# Compressibility (1/GPa) = 0.02210670
#
# Stress axis : x y z
#
# Youngs Moduli (GPa) = 74.78538 57.41335 108.57935
#
# Poissons Ratio (x) = 0.12023 0.58523
# Poissons Ratio (y) = 0.15661 0.15875
# Poissons Ratio (z) = 0.40309 0.08394
#
# Static dielectric constant tensor:
#      x y z
#    x 1.728330 0.000000 0.000000 
#    y 0.000000 1.672930 0.000000 
#    z 0.000000 0.000000 1.593040 
# 
# From -- ./inp_files/32166.got.cif
#   From: 2010.05.17/outbox.cif.g08.bks.cpg/sg68_17_cif.got.tgz:32166.got - 2010.06.03 18:57:09.
