data_PCOD9507218
_publ_section_title
;
Structure prediction by ZEFSAII (Michael W. Deem and Ramdas Pophale) SiO2 
 PCOD9507218
Probable space group: C C C A
;
_chemical_formula_sum "Si O2"
_cell_formula_units_Z 96
_cell_length_a 10.513858
_cell_length_b 15.655430
_cell_length_c 26.479362
_cell_angle_alpha 90.000000
_cell_angle_beta 90.000000
_cell_angle_gamma 90.000000
_cell_volume 4358.475657
_symmetry_space_group_name_H-M "C C C A"
_symmetry_group_IT_number 68
_space_group.IT_coordinate_system_code '2'
_symmetry_cell_setting 'orthorhombic'
loop_
_space_group_symop_operation_xyz
x,y,z
-x,1/2-y,z
x,1/2-y,1/2-z
-x,y,1/2-z
-x,-y,-z
x,1/2+y,-z
-x,1/2+y,1/2+z
x,-y,1/2+z
1/2+x,1/2+y,z
1/2-x,-y,z
1/2+x,-y,1/2-z
1/2-x,1/2+y,1/2-z
1/2-x,1/2-y,-z
1/2+x,y,-z
1/2-x,y,1/2+z
1/2+x,1/2-y,1/2+z
loop_
_atom_site_type_symbol
_atom_site_label
_atom_site_fract_x
_atom_site_fract_y
_atom_site_fract_z
Si Si1 0.628558 0.692611 0.980366
Si Si2 0.570438 0.340157 0.584746
Si Si3 0.909819 0.371916 0.870845
Si Si4 0.184738 0.308534 0.845163
Si Si5 0.186236 0.088910 0.238569
Si Si6 0.056083 0.942755 0.831831
O O1 0.500000 0.750000 0.972406
O O2 0.643034 0.641725 0.927845
O O3 0.750000 0.750000 0.000000
O O4 0.601886 0.631815 0.028119
O O5 0.500000 0.250000 0.580460
O O6 0.697798 0.324927 0.617108
O O7 0.476684 0.400858 0.615117
O O8 0.851758 0.290417 0.842243
O O9 0.891184 0.463380 0.844679
O O10 0.062130 0.356779 0.867988
O O11 0.225219 0.346652 0.791406
O O12 0.134855 0.116845 0.293128
O O13 0.075395 0.058530 0.199874
O O14 0.250000 0.000000 0.250209
#
# Coordination Sequence:
#
# PCOD9507218 Si02
#       6
#    16  16  16  16  16  16
#     4  11  20  38  66  98 142 185 233 294 363 433
#     4  10  22  39  61  91 138 183 225 276 362 429
#     4  11  20  38  69 101 129 174 238 291 348 419
#     4  10  20  39  67  94 126 180 225 289 350 428
#     4  10  20  41  64  85 130 171 219 288 362 407
#     4  10  23  39  63  95 129 173 227 295 344 425
#
# _framework density 22.026049
#
# number of rings (size 3 to 8) (size 9 to 14) (size 15 to 20)
#    0.000    1.667    5.000    0.000    0.000    2.000 
#    0.000   10.833    0.000    2.000    0.000    0.000 
#    0.000    0.000    0.000    0.000    0.000    0.000 
#
# Total GULP energy -267844.173655 kJ/mol
# GULP energy per Si atom -5580.086951 kJ/mol
# Density = 2.197592 g / cm^3
# Si number density = 22.026049 Si / 1000 Ang^3
#
#
#
# Elastic Constant Matrix: (Units=GPa)
#
#
# Indices 1 2 3 4 5 6 
#
# 1 85.9873 20.7446 49.3859 0.0000 0.0000 0.0000
# 2 20.7446 75.8892 63.6583 0.0000 0.0000 0.0000
# 3 49.3859 63.6583 167.4630 0.0000 0.0000 0.0000
# 4 0.0000 0.0000 0.0000 34.6019 0.0000 0.0000
# 5 0.0000 0.0000 0.0000 0.0000 31.9545 0.0000
# 6 0.0000 0.0000 0.0000 0.0000 0.0000 26.2443
#
#
#
# Elastic Compliance Matrix: (Units=1/GPa)
#
#
# Indices 1 2 3 4 5 6 
#
# 1 0.014016 -0.000535 -0.003930 0.000000 0.000000 0.000000
# 2 -0.000535 0.019366 -0.007204 0.000000 0.000000 0.000000
# 3 -0.003930 -0.007204 0.009869 0.000000 0.000000 0.000000
# 4 0.000000 0.000000 0.000000 0.028900 0.000000 0.000000
# 5 0.000000 0.000000 0.000000 0.000000 0.031295 0.000000
# 6 0.000000 0.000000 0.000000 0.000000 0.000000 0.038103
#
#
# Mechanical properties :
#
#
# Convention : Reuss Voigt Hill
#
# Bulk Modulus (GPa) = 50.21721 66.32410 58.27065
# Shear Modulus (GPa) = 29.15031 31.59686 30.37358
#
# Velocity S-wave (km/s) = 3.64187 3.79162 3.71750
# Velocity P-wave (km/s) = 6.36654 7.02464 6.70367
#
# Compressibility (1/GPa) = 0.01991349
#
# Stress axis : x y z
#
# Youngs Moduli (GPa) = 71.34793 51.63609 101.32706
#
# Poissons Ratio (x) = 0.02760 0.39823
# Poissons Ratio (y) = 0.03814 0.72997
# Poissons Ratio (z) = 0.28041 0.37199
#
# Static dielectric constant tensor:
#      x y z
#    x 1.827440 0.000000 0.000000 
#    y 0.000000 1.592380 0.000000 
#    z 0.000000 0.000000 1.851430 
# 
# From -- ./inp_files/49326.got.cif
#   From: 2010.05.17/outbox.cif.g08.bks.cpg/sg68_25_cif.got.tgz:49326.got - 2010.06.03 18:57:09.
