data_PCOD9507730
_publ_section_title
;
Structure prediction by ZEFSAII (Michael W. Deem and Ramdas Pophale) SiO2 
 PCOD9507730
Probable space group: C C C A
;
_chemical_formula_sum "Si O2"
_cell_formula_units_Z 80
_cell_length_a 11.683205
_cell_length_b 25.538428
_cell_length_c 13.353855
_cell_angle_alpha 90.000000
_cell_angle_beta 90.000000
_cell_angle_gamma 90.000000
_cell_volume 3984.398927
_symmetry_space_group_name_H-M "C C C A"
_symmetry_group_IT_number 68
_space_group.IT_coordinate_system_code '2'
_symmetry_cell_setting 'orthorhombic'
loop_
_space_group_symop_operation_xyz
x,y,z
-x,1/2-y,z
x,1/2-y,1/2-z
-x,y,1/2-z
-x,-y,-z
x,1/2+y,-z
-x,1/2+y,1/2+z
x,-y,1/2+z
1/2+x,1/2+y,z
1/2-x,-y,z
1/2+x,-y,1/2-z
1/2-x,1/2+y,1/2-z
1/2-x,1/2-y,-z
1/2+x,y,-z
1/2-x,y,1/2+z
1/2+x,1/2-y,1/2+z
loop_
_atom_site_type_symbol
_atom_site_label
_atom_site_fract_x
_atom_site_fract_y
_atom_site_fract_z
Si Si1 0.046472 0.368671 0.353179
Si Si2 0.259829 0.941384 0.687400
Si Si3 0.592722 0.136626 0.175326
Si Si4 0.599642 0.897170 0.972841
Si Si5 0.713315 0.690253 0.001195
O O1 0.139580 0.412861 0.327856
O O2 0.109913 0.325882 0.423534
O O3 0.000000 0.345485 0.250000
O O4 0.944431 0.396744 0.414249
O O5 0.334618 0.904328 0.759848
O O6 0.324071 0.941496 0.579074
O O7 0.250000 0.000000 0.725901
O O8 0.500000 0.162856 0.250000
O O9 0.514407 0.107274 0.093643
O O10 0.673224 0.173813 0.110260
O O11 0.679613 0.845623 0.965495
O O12 0.750000 0.750000 0.000000
#
# Coordination Sequence:
#
# PCOD9507730 Si02
#       5
#    16  16  16  16  16
#     4  10  21  38  58  86 122 156 198 248 293 350
#     4  10  21  38  61  88 116 155 201 246 300 356
#     4   9  19  38  59  84 120 154 196 247 293 352
#     4   9  20  39  57  82 121 155 191 245 297 351
#     4  10  21  40  62  86 120 159 199 244 298 356
#
# _framework density 20.078310999999999
#
# number of rings (size 3 to 8) (size 9 to 14) (size 15 to 20)
#    0.000    2.400    0.000    1.200    0.000    6.400 
#    0.000   38.000    0.000    0.000    0.000    0.000 
#    0.000    0.000    0.000    0.000    0.000    0.000 
#
# Total GULP energy -223048.742660 kJ/mol
# GULP energy per Si atom -5576.218566 kJ/mol
# Density = 2.003261 g / cm^3
# Si number density = 20.078311 Si / 1000 Ang^3
#
#
#
# Elastic Constant Matrix: (Units=GPa)
#
#
# Indices 1 2 3 4 5 6 
#
# 1 79.5918 38.8403 39.3247 0.0000 0.0000 0.0000
# 2 38.8403 100.0767 38.6682 0.0000 0.0000 0.0000
# 3 39.3247 38.6682 126.2121 0.0000 0.0000 0.0000
# 4 0.0000 0.0000 0.0000 19.1484 0.0000 0.0000
# 5 0.0000 0.0000 0.0000 0.0000 51.4984 0.0000
# 6 0.0000 0.0000 0.0000 0.0000 0.0000 4.5200
#
#
#
# Elastic Compliance Matrix: (Units=1/GPa)
#
#
# Indices 1 2 3 4 5 6 
#
# 1 0.016891 -0.005129 -0.003691 0.000000 0.000000 0.000000
# 2 -0.005129 0.012892 -0.002352 0.000000 0.000000 0.000000
# 3 -0.003691 -0.002352 0.009794 0.000000 0.000000 0.000000
# 4 0.000000 0.000000 0.000000 0.052224 0.000000 0.000000
# 5 0.000000 0.000000 0.000000 0.000000 0.019418 0.000000
# 6 0.000000 0.000000 0.000000 0.000000 0.000000 0.221240
#
#
# Mechanical properties :
#
#
# Convention : Reuss Voigt Hill
#
# Bulk Modulus (GPa) = 58.03107 59.94970 58.99038
# Shear Modulus (GPa) = 13.86785 27.63652 20.75219
#
# Velocity S-wave (km/s) = 2.63095 3.71406 3.21839
# Velocity P-wave (km/s) = 6.18015 6.95091 6.57683
#
# Compressibility (1/GPa) = 0.01723215
#
# Stress axis : x y z
#
# Youngs Moduli (GPa) = 59.20331 77.56993 102.10579
#
# Poissons Ratio (x) = 0.39787 0.37691
# Poissons Ratio (y) = 0.30366 0.24010
# Poissons Ratio (z) = 0.21854 0.18241
#
# Static dielectric constant tensor:
#      x y z
#    x 1.729530 0.000000 0.000000 
#    y 0.000000 1.657290 0.000000 
#    z 0.000000 0.000000 1.779440 
# 
# From -- ./inp_files/20884.got.cif
#   From: 2010.05.17/outbox.cif.g08.bks.cpg/sg68_11_cif.got.tgz:20884.got - 2010.06.03 18:57:09.
