data_PCOD9507350
_publ_section_title
;
Structure prediction by ZEFSAII (Michael W. Deem and Ramdas Pophale) SiO2 
 PCOD9507350
Probable space group: C C C A
;
_chemical_formula_sum "Si O2"
_cell_formula_units_Z 104
_cell_length_a 19.534379
_cell_length_b 24.550819
_cell_length_c 10.136395
_cell_angle_alpha 90.000000
_cell_angle_beta 90.000000
_cell_angle_gamma 90.000000
_cell_volume 4861.263028
_symmetry_space_group_name_H-M "C C C A"
_symmetry_group_IT_number 68
_space_group.IT_coordinate_system_code '2'
_symmetry_cell_setting 'orthorhombic'
loop_
_space_group_symop_operation_xyz
x,y,z
-x,1/2-y,z
x,1/2-y,1/2-z
-x,y,1/2-z
-x,-y,-z
x,1/2+y,-z
-x,1/2+y,1/2+z
x,-y,1/2+z
1/2+x,1/2+y,z
1/2-x,-y,z
1/2+x,-y,1/2-z
1/2-x,1/2+y,1/2-z
1/2-x,1/2-y,-z
1/2+x,y,-z
1/2-x,y,1/2+z
1/2+x,1/2-y,1/2+z
loop_
_atom_site_type_symbol
_atom_site_label
_atom_site_fract_x
_atom_site_fract_y
_atom_site_fract_z
Si Si1 0.868418 0.210232 0.625665
Si Si2 0.930284 0.339790 0.312058
Si Si3 0.000000 0.250000 0.006411
Si Si4 0.695117 0.703451 0.145038
Si Si5 0.831436 0.990898 0.397113
Si Si6 0.706628 0.887196 0.750542
Si Si7 0.844122 0.439512 0.344055
O O1 0.861179 0.250000 0.750000
O O2 0.946741 0.215389 0.579440
O O3 0.820666 0.225311 0.500441
O O4 0.842788 0.150538 0.665220
O O5 0.954432 0.290167 0.403680
O O6 0.877376 0.319290 0.200852
O O7 0.889562 0.387898 0.381715
O O8 0.000000 0.361610 0.250000
O O9 0.714223 0.750000 0.250000
O O10 0.749636 0.654382 0.156481
O O11 0.836168 0.931580 0.330247
O O12 0.854229 0.985965 0.547228
O O13 0.750000 0.000000 0.400040
O O14 0.861194 0.036618 0.300529
O O15 0.765253 0.918699 0.665921
#
# Coordination Sequence:
#
# PCOD9507350 Si02
#       7
#    16  16   8  16  16  16  16
#     4  12  26  40  62  97 139 173 221 277 333 394
#     4  11  21  42  71  91 122 180 236 261 316 421
#     4  12  24  46  66  92 134 188 220 270 330 396
#     4  11  21  39  64  92 128 176 223 269 325 399
#     4  10  20  41  64  93 130 164 210 270 341 401
#     4  10  23  37  64  99 129 168 214 276 338 395
#     4  10  23  40  70  96 125 165 219 273 341 394
#
# _framework density 21.393616000000002
#
# number of rings (size 3 to 8) (size 9 to 14) (size 15 to 20)
#    0.000    1.231    3.077    3.231    2.154    4.923 
#    0.000    0.769    0.000    0.000    0.000    0.000 
#    0.000    0.000    0.000    0.000    0.000    0.000 
#
# Total GULP energy -290656.482449 kJ/mol
# GULP energy per Si atom -5589.547739 kJ/mol
# Density = 2.134492 g / cm^3
# Si number density = 21.393616 Si / 1000 Ang^3
#
#
#
# Elastic Constant Matrix: (Units=GPa)
#
#
# Indices 1 2 3 4 5 6 
#
# 1 77.0671 10.0992 12.1820 0.0000 0.0000 0.0000
# 2 10.0992 75.2156 32.3855 0.0000 0.0000 0.0000
# 3 12.1820 32.3855 103.0141 0.0000 0.0000 0.0000
# 4 0.0000 0.0000 0.0000 38.8969 0.0000 0.0000
# 5 0.0000 0.0000 0.0000 0.0000 11.1388 0.0000
# 6 0.0000 0.0000 0.0000 0.0000 0.0000 22.8975
#
#
#
# Elastic Compliance Matrix: (Units=1/GPa)
#
#
# Indices 1 2 3 4 5 6 
#
# 1 0.013329 -0.001285 -0.001172 0.000000 0.000000 0.000000
# 2 -0.001285 0.015500 -0.004721 0.000000 0.000000 0.000000
# 3 -0.001172 -0.004721 0.011330 0.000000 0.000000 0.000000
# 4 0.000000 0.000000 0.000000 0.025709 0.000000 0.000000
# 5 0.000000 0.000000 0.000000 0.000000 0.089776 0.000000
# 6 0.000000 0.000000 0.000000 0.000000 0.000000 0.043673
#
#
# Mechanical properties :
#
#
# Convention : Reuss Voigt Hill
#
# Bulk Modulus (GPa) = 38.75465 40.51448 39.63456
# Shear Modulus (GPa) = 22.49454 27.96197 25.22826
#
# Velocity S-wave (km/s) = 3.24614 3.61920 3.43774
# Velocity P-wave (km/s) = 5.67488 6.03685 5.85866
#
# Compressibility (1/GPa) = 0.02580336
#
# Stress axis : x y z
#
# Youngs Moduli (GPa) = 75.02215 64.51455 88.25933
#
# Poissons Ratio (x) = 0.08290 0.10347
# Poissons Ratio (y) = 0.09640 0.41668
# Poissons Ratio (z) = 0.08795 0.30458
#
# Static dielectric constant tensor:
#      x y z
#    x 1.767700 0.000000 0.000000 
#    y 0.000000 1.798010 0.000000 
#    z 0.000000 0.000000 1.833050 
# 
# From -- ./inp_files/7391.got.cif
#   From: 2010.05.17/outbox.cif.g08.bks.cpg/sg68_4_cif.got.tgz:7391.got - 2010.06.03 18:57:09.
