data_PCOD9507717
_publ_section_title
;
Structure prediction by ZEFSAII (Michael W. Deem and Ramdas Pophale) SiO2 
 PCOD9507717
Probable space group: C C C A
;
_chemical_formula_sum "Si O2"
_cell_formula_units_Z 64
_cell_length_a 5.345307
_cell_length_b 14.598713
_cell_length_c 34.632279
_cell_angle_alpha 90.000000
_cell_angle_beta 90.000000
_cell_angle_gamma 90.000000
_cell_volume 2702.516135
_symmetry_space_group_name_H-M "C C C A"
_symmetry_group_IT_number 68
_space_group.IT_coordinate_system_code '2'
_symmetry_cell_setting 'orthorhombic'
loop_
_space_group_symop_operation_xyz
x,y,z
-x,1/2-y,z
x,1/2-y,1/2-z
-x,y,1/2-z
-x,-y,-z
x,1/2+y,-z
-x,1/2+y,1/2+z
x,-y,1/2+z
1/2+x,1/2+y,z
1/2-x,-y,z
1/2+x,-y,1/2-z
1/2-x,1/2+y,1/2-z
1/2-x,1/2-y,-z
1/2+x,y,-z
1/2-x,y,1/2+z
1/2+x,1/2-y,1/2+z
loop_
_atom_site_type_symbol
_atom_site_label
_atom_site_fract_x
_atom_site_fract_y
_atom_site_fract_z
Si Si1 0.252237 0.146967 0.266663
Si Si2 0.744771 0.388901 0.855831
Si Si3 0.571701 0.353567 0.514346
Si Si4 0.753210 0.610825 0.099401
O O1 0.251771 0.250000 0.250000
O O2 0.500000 0.101558 0.250000
O O3 0.264755 0.148177 0.312632
O O4 0.000000 0.104260 0.250000
O O5 0.750000 0.500000 0.853359
O O6 0.478361 0.361776 0.873546
O O7 0.979947 0.361648 0.882673
O O8 0.500000 0.250000 0.502247
O O9 0.292778 0.396115 0.511845
O O10 0.687855 0.353811 0.556922
O O11 0.750000 0.500000 0.096821
#
# Coordination Sequence:
#
# PCOD9507717 Si02
#       4
#    16  16  16  16
#     4  10  21  38  56  81 115 147 187 246 284 352
#     4  10  21  38  59  83 117 153 193 242 295 349
#     4  10  21  38  58  84 120 155 195 238 289 346
#     4  10  21  38  59  88 117 151 198 242 289 350
#
# _framework density 23.681633999999999
#
# number of rings (size 3 to 8) (size 9 to 14) (size 15 to 20)
#    0.000    2.000    0.000    3.000    0.000    2.000 
#   13.500    0.000    0.000    0.000    0.000    0.000 
#    0.000    0.000    0.000    0.000    0.000    0.000 
#
# Total GULP energy -178913.259516 kJ/mol
# GULP energy per Si atom -5591.039360 kJ/mol
# Density = 2.362773 g / cm^3
# Si number density = 23.681634 Si / 1000 Ang^3
#
#
#
# Elastic Constant Matrix: (Units=GPa)
#
#
# Indices 1 2 3 4 5 6 
#
# 1 244.7519 19.3751 77.2872 0.0000 0.0000 0.0000
# 2 19.3751 93.5362 13.8778 0.0000 0.0000 0.0000
# 3 77.2872 13.8778 171.4400 0.0000 0.0000 0.0000
# 4 0.0000 0.0000 0.0000 35.5063 0.0000 0.0000
# 5 0.0000 0.0000 0.0000 0.0000 57.7228 0.0000
# 6 0.0000 0.0000 0.0000 0.0000 0.0000 -15.0882
#
#
#
# Elastic Compliance Matrix: (Units=1/GPa)
#
#
# Indices 1 2 3 4 5 6 
#
# 1 0.004807 -0.000682 -0.002112 0.000000 0.000000 0.000000
# 2 -0.000682 0.010918 -0.000576 0.000000 0.000000 0.000000
# 3 -0.002112 -0.000576 0.006832 0.000000 0.000000 0.000000
# 4 0.000000 0.000000 0.000000 0.028164 0.000000 0.000000
# 5 0.000000 0.000000 0.000000 0.000000 0.017324 0.000000
# 6 0.000000 0.000000 0.000000 0.000000 0.000000 -0.066277
#
#
# Mechanical properties :
#
#
# Convention : Reuss Voigt Hill
#
# Bulk Modulus (GPa) = 63.22828 81.20089 72.21458
# Shear Modulus (GPa) = 362.86373 42.24072 202.55223
#
# Velocity S-wave (km/s) = 12.39187 4.22796 9.25835
# Velocity P-wave (km/s) = 15.21518 7.62871 12.03534
#
# Compressibility (1/GPa) = 0.01581571
#
# Stress axis : x y z
#
# Youngs Moduli (GPa) = 208.04755 91.59289 146.37996
#
# Poissons Ratio (x) = 0.06250 0.30910
# Poissons Ratio (y) = 0.14196 0.08434
# Poissons Ratio (z) = 0.43932 0.05277
#
# Static dielectric constant tensor:
#      x y z
#    x 1.956600 0.000000 0.000000 
#    y 0.000000 1.908070 0.000000 
#    z 0.000000 0.000000 1.829100 
# 
# From -- ./inp_files/48092.got.cif
#   From: 2010.05.17/outbox.cif.g08.bks.cpg/sg68_25_cif.got.tgz:48092.got - 2010.06.03 18:57:09.
