data_PCOD9507336
_publ_section_title
;
Structure prediction by ZEFSAII (Michael W. Deem and Ramdas Pophale) SiO2 
 PCOD9507336
Probable space group: C C C A
;
_chemical_formula_sum "Si O2"
_cell_formula_units_Z 116
_cell_length_a 12.157495
_cell_length_b 16.163940
_cell_length_c 25.654755
_cell_angle_alpha 90.000000
_cell_angle_beta 90.000000
_cell_angle_gamma 90.000000
_cell_volume 5041.493375
_symmetry_space_group_name_H-M "C C C A"
_symmetry_group_IT_number 68
_space_group.IT_coordinate_system_code '2'
_symmetry_cell_setting 'orthorhombic'
loop_
_space_group_symop_operation_xyz
x,y,z
-x,1/2-y,z
x,1/2-y,1/2-z
-x,y,1/2-z
-x,-y,-z
x,1/2+y,-z
-x,1/2+y,1/2+z
x,-y,1/2+z
1/2+x,1/2+y,z
1/2-x,-y,z
1/2+x,-y,1/2-z
1/2-x,1/2+y,1/2-z
1/2-x,1/2-y,-z
1/2+x,y,-z
1/2-x,y,1/2+z
1/2+x,1/2-y,1/2+z
loop_
_atom_site_type_symbol
_atom_site_label
_atom_site_fract_x
_atom_site_fract_y
_atom_site_fract_z
Si Si1 0.296767 0.672755 0.810292
Si Si2 0.536786 0.901217 0.558578
Si Si3 0.074796 0.167675 0.051697
Si Si4 0.581257 0.927688 0.118026
Si Si5 0.710055 0.584349 0.281396
Si Si6 0.000000 0.750000 0.250000
Si Si7 0.713176 0.593247 0.584465
Si Si8 0.710031 0.165893 0.125501
O O1 0.214897 0.652113 0.763138
O O2 0.416173 0.695613 0.785450
O O3 0.297753 0.601150 0.853040
O O4 0.260959 0.751268 0.844361
O O5 0.560692 0.892276 0.497875
O O6 0.408061 0.891931 0.564007
O O7 0.605547 0.831050 0.589066
O O8 0.574619 0.985313 0.588039
O O9 0.205139 0.163627 0.061575
O O10 0.000000 0.250000 0.043720
O O11 0.025973 0.122796 0.102743
O O12 0.605965 0.926641 0.180161
O O13 0.686190 0.875272 0.096547
O O14 0.750000 0.500000 0.256197
O O15 0.804237 0.605002 0.324714
O O16 0.750000 0.500000 0.570668
#
# Coordination Sequence:
#
# PCOD9507336 Si02
#       8
#    16  16  16  16  16   4  16  16
#     4  12  24  41  68 111 149 188 245 318 374 449
#     4  12  25  46  76 107 145 197 248 314 382 452
#     4  12  29  48  73 107 149 199 252 315 386 460
#     4  10  21  45  73 102 143 193 248 301 369 463
#     4  10  20  40  72 103 142 191 247 293 378 454
#     4  12  20  40  72 100 142 192 238 308 376 430
#     4  12  29  47  70 107 154 188 252 318 380 459
#     4  10  21  42  74 108 145 187 249 307 376 447
#
# _framework density 23.009055
#
# number of rings (size 3 to 8) (size 9 to 14) (size 15 to 20)
#    0.828    0.000    4.138    2.897    3.862    0.552 
#    0.000    0.690    0.000    2.483    0.000    0.000 
#    0.000    0.000    0.000    0.000    0.000    0.000 
#
# Total GULP energy -323509.753934 kJ/mol
# GULP energy per Si atom -5577.754378 kJ/mol
# Density = 2.295669 g / cm^3
# Si number density = 23.009055 Si / 1000 Ang^3
#
#
#
# Elastic Constant Matrix: (Units=GPa)
#
#
# Indices 1 2 3 4 5 6 
#
# 1 121.1532 38.3199 62.9932 0.0000 0.0000 0.0000
# 2 38.3199 88.1279 20.6482 0.0000 0.0000 0.0000
# 3 62.9932 20.6482 96.8334 0.0000 0.0000 0.0000
# 4 0.0000 0.0000 0.0000 24.1244 0.0000 0.0000
# 5 0.0000 0.0000 0.0000 0.0000 24.7826 0.0000
# 6 0.0000 0.0000 0.0000 0.0000 0.0000 1.9516
#
#
#
# Elastic Compliance Matrix: (Units=1/GPa)
#
#
# Indices 1 2 3 4 5 6 
#
# 1 0.013741 -0.004085 -0.008068 0.000000 0.000000 0.000000
# 2 -0.004085 0.013158 -0.000149 0.000000 0.000000 0.000000
# 3 -0.008068 -0.000149 0.015607 0.000000 0.000000 0.000000
# 4 0.000000 0.000000 0.000000 0.041452 0.000000 0.000000
# 5 0.000000 0.000000 0.000000 0.000000 0.040351 0.000000
# 6 0.000000 0.000000 0.000000 0.000000 0.000000 0.512411
#
#
# Mechanical properties :
#
#
# Convention : Reuss Voigt Hill
#
# Bulk Modulus (GPa) = 55.85376 61.11523 58.48449
# Shear Modulus (GPa) = 7.49300 22.44860 14.97080
#
# Velocity S-wave (km/s) = 1.80655 3.12692 2.55355
# Velocity P-wave (km/s) = 5.35527 6.29729 5.84528
#
# Compressibility (1/GPa) = 0.01790390
#
# Stress axis : x y z
#
# Youngs Moduli (GPa) = 72.77619 75.99937 64.07338
#
# Poissons Ratio (x) = 0.31042 0.51693
# Poissons Ratio (y) = 0.29725 0.00952
# Poissons Ratio (z) = 0.58715 0.01130
#
# Static dielectric constant tensor:
#      x y z
#    x 1.879260 0.000000 0.000000 
#    y 0.000000 2.025400 0.000000 
#    z 0.000000 0.000000 1.846210 
# 
# From -- ./inp_files/50346.got.cif
#   From: 2010.05.17/outbox.cif.g08.bks.cpg/sg68_26_cif.got.tgz:50346.got - 2010.06.03 18:57:09.
