data_PCOD9507763
_publ_section_title
;
Structure prediction by ZEFSAII (Michael W. Deem and Ramdas Pophale) SiO2 
 PCOD9507763
Probable space group: C C C A
;
_chemical_formula_sum "Si O2"
_cell_formula_units_Z 56
_cell_length_a 4.741140
_cell_length_b 20.876808
_cell_length_c 24.400345
_cell_angle_alpha 90.000000
_cell_angle_beta 90.000000
_cell_angle_gamma 90.000000
_cell_volume 2415.142963
_symmetry_space_group_name_H-M "C C C A"
_symmetry_group_IT_number 68
_space_group.IT_coordinate_system_code '2'
_symmetry_cell_setting 'orthorhombic'
loop_
_space_group_symop_operation_xyz
x,y,z
-x,1/2-y,z
x,1/2-y,1/2-z
-x,y,1/2-z
-x,-y,-z
x,1/2+y,-z
-x,1/2+y,1/2+z
x,-y,1/2+z
1/2+x,1/2+y,z
1/2-x,-y,z
1/2+x,-y,1/2-z
1/2-x,1/2+y,1/2-z
1/2-x,1/2-y,-z
1/2+x,y,-z
1/2-x,y,1/2+z
1/2+x,1/2-y,1/2+z
loop_
_atom_site_type_symbol
_atom_site_label
_atom_site_fract_x
_atom_site_fract_y
_atom_site_fract_z
Si Si1 0.929332 0.388802 0.854352
Si Si2 0.250000 0.000000 0.209775
Si Si3 0.576935 0.180850 0.813520
Si Si4 0.428896 0.178053 0.037745
O O1 0.068969 0.451660 0.828049
O O2 0.096207 0.333128 0.821693
O O3 0.602818 0.374700 0.843273
O O4 0.995548 0.374754 0.917508
O O5 0.500000 0.972896 0.250000
O O6 0.500000 0.250000 0.837209
O O7 0.500000 0.180081 0.750000
O O8 0.500000 0.250000 0.058589
O O9 0.109042 0.172531 0.018080
#
# Coordination Sequence:
#
# PCOD9507763 Si02
#       4
#    16   8  16  16
#     4  12  23  40  62  88 124 169 210 257 317 379
#     4  12  26  44  64  90 128 176 224 264 310 382
#     4  11  22  36  59  91 123 156 201 261 326 390
#     4  10  21  38  61  90 122 157 204 263 325 385
#
# _framework density 23.187034000000001
#
# number of rings (size 3 to 8) (size 9 to 14) (size 15 to 20)
#    0.000    0.857    0.000    9.429    0.000    4.571 
#    0.000    1.429    0.000    0.000    0.000    0.000 
#    0.000    0.000    0.000    0.000    0.000    0.000 
#
# Total GULP energy -156581.686698 kJ/mol
# GULP energy per Si atom -5592.203096 kJ/mol
# Density = 2.313426 g / cm^3
# Si number density = 23.187034 Si / 1000 Ang^3
#
#
#
# Elastic Constant Matrix: (Units=GPa)
#
#
# Indices 1 2 3 4 5 6 
#
# 1 85.0495 4.6194 6.9050 0.0000 0.0000 0.0000
# 2 4.6194 107.6349 33.1975 0.0000 0.0000 0.0000
# 3 6.9050 33.1975 98.2087 0.0000 0.0000 0.0000
# 4 0.0000 0.0000 0.0000 30.7568 0.0000 0.0000
# 5 0.0000 0.0000 0.0000 0.0000 35.7852 0.0000
# 6 0.0000 0.0000 0.0000 0.0000 0.0000 27.8243
#
#
#
# Elastic Compliance Matrix: (Units=1/GPa)
#
#
# Indices 1 2 3 4 5 6 
#
# 1 0.011833 -0.000280 -0.000737 0.000000 0.000000 0.000000
# 2 -0.000280 0.010379 -0.003489 0.000000 0.000000 0.000000
# 3 -0.000737 -0.003489 0.011413 0.000000 0.000000 0.000000
# 4 0.000000 0.000000 0.000000 0.032513 0.000000 0.000000
# 5 0.000000 0.000000 0.000000 0.000000 0.027945 0.000000
# 6 0.000000 0.000000 0.000000 0.000000 0.000000 0.035940
#
#
# Mechanical properties :
#
#
# Convention : Reuss Voigt Hill
#
# Bulk Modulus (GPa) = 40.62951 42.25965 41.44458
# Shear Modulus (GPa) = 33.95837 35.28470 34.62153
#
# Velocity S-wave (km/s) = 3.83108 3.90518 3.86831
# Velocity P-wave (km/s) = 6.09345 6.21281 6.15342
#
# Compressibility (1/GPa) = 0.02461265
#
# Stress axis : x y z
#
# Youngs Moduli (GPa) = 84.50988 96.35144 87.61578
#
# Poissons Ratio (x) = 0.02703 0.06459
# Poissons Ratio (y) = 0.02370 0.30565
# Poissons Ratio (z) = 0.06230 0.33613
#
# Static dielectric constant tensor:
#      x y z
#    x 1.806210 0.000000 0.000000 
#    y 0.000000 1.922770 0.000000 
#    z 0.000000 0.000000 1.849810 
# 
# From -- ./inp_files/41975.got.cif
#   From: 2010.05.17/outbox.cif.g08.bks.cpg/sg68_21_cif.got.tgz:41975.got - 2010.06.03 18:57:09.
