data_PCOD9507351
_publ_section_title
;
Structure prediction by ZEFSAII (Michael W. Deem and Ramdas Pophale) SiO2 
 PCOD9507351
Probable space group: C C C A
;
_chemical_formula_sum "Si O2"
_cell_formula_units_Z 112
_cell_length_a 14.087814
_cell_length_b 11.794657
_cell_length_c 30.245272
_cell_angle_alpha 90.000000
_cell_angle_beta 90.000000
_cell_angle_gamma 90.000000
_cell_volume 5025.582645
_symmetry_space_group_name_H-M "C C C A"
_symmetry_group_IT_number 68
_space_group.IT_coordinate_system_code '2'
_symmetry_cell_setting 'orthorhombic'
loop_
_space_group_symop_operation_xyz
x,y,z
-x,1/2-y,z
x,1/2-y,1/2-z
-x,y,1/2-z
-x,-y,-z
x,1/2+y,-z
-x,1/2+y,1/2+z
x,-y,1/2+z
1/2+x,1/2+y,z
1/2-x,-y,z
1/2+x,-y,1/2-z
1/2-x,1/2+y,1/2-z
1/2-x,1/2-y,-z
1/2+x,y,-z
1/2-x,y,1/2+z
1/2+x,1/2-y,1/2+z
loop_
_atom_site_type_symbol
_atom_site_label
_atom_site_fract_x
_atom_site_fract_y
_atom_site_fract_z
Si Si1 0.104391 0.705537 0.401933
Si Si2 0.561141 0.987031 0.352934
Si Si3 0.339245 0.949432 0.521728
Si Si4 0.722728 0.342307 0.930741
Si Si5 0.347009 0.943958 0.347799
Si Si6 0.424276 0.847811 0.056026
Si Si7 0.887947 0.220543 0.298891
O O1 0.113904 0.603824 0.365866
O O2 0.110007 0.644943 0.449609
O O3 0.178916 0.808330 0.407036
O O4 0.000000 0.750000 0.394140
O O5 0.449986 0.998848 0.337700
O O6 0.553041 0.914429 0.398608
O O7 0.615549 0.906746 0.317805
O O8 0.289457 0.894188 0.479387
O O9 0.250000 0.000000 0.549109
O O10 0.407799 0.058324 0.518222
O O11 0.665657 0.429620 0.900253
O O12 0.670018 0.222918 0.934690
O O13 0.346387 0.813876 0.331563
O O14 0.250000 0.000000 0.330374
O O15 0.500000 0.750000 0.045850
O O16 0.851189 0.250000 0.250000
O O17 0.000000 0.250000 0.298391
#
# Coordination Sequence:
#
# PCOD9507351 Si02
#       7
#    16  16  16  16  16  16  16
#     4  11  25  43  62  91 125 171 221 273 330 389
#     4  10  20  41  64  94 124 165 219 258 326 395
#     4  11  25  42  59  84 122 167 225 279 323 383
#     4  12  23  42  62  86 126 167 220 275 323 384
#     4  11  21  38  63  92 129 163 202 267 330 383
#     4  11  21  41  65  89 116 165 217 276 321 387
#     4   9  18  37  68  99 128 165 212 262 315 396
#
# _framework density 22.285972999999998
#
# number of rings (size 3 to 8) (size 9 to 14) (size 15 to 20)
#    0.000    1.286    4.286    2.143    0.000    1.143 
#    0.000    1.429    0.000    0.000    0.000    7.000 
#    0.000    0.000    0.000    0.000    0.000    0.000 
#
# Total GULP energy -312496.172773 kJ/mol
# GULP energy per Si atom -5580.288800 kJ/mol
# Density = 2.223525 g / cm^3
# Si number density = 22.285973 Si / 1000 Ang^3
#
#
#
# Elastic Constant Matrix: (Units=GPa)
#
#
# Indices 1 2 3 4 5 6 
#
# 1 61.6712 35.0752 16.1481 0.0000 0.0000 0.0000
# 2 35.0752 113.8045 29.4633 0.0000 0.0000 0.0000
# 3 16.1481 29.4633 74.1547 0.0000 0.0000 0.0000
# 4 0.0000 0.0000 0.0000 21.5160 0.0000 0.0000
# 5 0.0000 0.0000 0.0000 0.0000 8.7562 0.0000
# 6 0.0000 0.0000 0.0000 0.0000 0.0000 47.0302
#
#
#
# Elastic Compliance Matrix: (Units=1/GPa)
#
#
# Indices 1 2 3 4 5 6 
#
# 1 0.019956 -0.005602 -0.002120 0.000000 0.000000 0.000000
# 2 -0.005602 0.011367 -0.003296 0.000000 0.000000 0.000000
# 3 -0.002120 -0.003296 0.015257 0.000000 0.000000 0.000000
# 4 0.000000 0.000000 0.000000 0.046477 0.000000 0.000000
# 5 0.000000 0.000000 0.000000 0.000000 0.114205 0.000000
# 6 0.000000 0.000000 0.000000 0.000000 0.000000 0.021263
#
#
# Mechanical properties :
#
#
# Convention : Reuss Voigt Hill
#
# Bulk Modulus (GPa) = 40.74423 45.66704 43.20563
# Shear Modulus (GPa) = 19.32426 26.72340 23.02383
#
# Velocity S-wave (km/s) = 2.94786 3.46658 3.21769
# Velocity P-wave (km/s) = 5.46888 6.04638 5.76487
#
# Compressibility (1/GPa) = 0.02454335
#
# Stress axis : x y z
#
# Youngs Moduli (GPa) = 50.11001 87.97456 65.54476
#
# Poissons Ratio (x) = 0.49281 0.13896
# Poissons Ratio (y) = 0.28070 0.21607
# Poissons Ratio (z) = 0.10623 0.29001
#
# Static dielectric constant tensor:
#      x y z
#    x 1.923520 0.000000 0.000000 
#    y 0.000000 1.909210 0.000000 
#    z 0.000000 0.000000 1.873520 
# 
# From -- ./inp_files/55264.got.cif
#   From: 2010.05.17/outbox.cif.g08.bks.cpg/sg68_28_cif.got.tgz:55264.got - 2010.06.03 18:57:09.
