data_PCOD9507585
_publ_section_title
;
Structure prediction by ZEFSAII (Michael W. Deem and Ramdas Pophale) SiO2 
 PCOD9507585
Probable space group: C C C A
;
_chemical_formula_sum "Si O2"
_cell_formula_units_Z 112
_cell_length_a 29.016152
_cell_length_b 16.367331
_cell_length_c 11.789902
_cell_angle_alpha 90.000000
_cell_angle_beta 90.000000
_cell_angle_gamma 90.000000
_cell_volume 5599.224465
_symmetry_space_group_name_H-M "C C C A"
_symmetry_group_IT_number 68
_space_group.IT_coordinate_system_code '2'
_symmetry_cell_setting 'orthorhombic'
loop_
_space_group_symop_operation_xyz
x,y,z
-x,1/2-y,z
x,1/2-y,1/2-z
-x,y,1/2-z
-x,-y,-z
x,1/2+y,-z
-x,1/2+y,1/2+z
x,-y,1/2+z
1/2+x,1/2+y,z
1/2-x,-y,z
1/2+x,-y,1/2-z
1/2-x,1/2+y,1/2-z
1/2-x,1/2-y,-z
1/2+x,y,-z
1/2-x,y,1/2+z
1/2+x,1/2-y,1/2+z
loop_
_atom_site_type_symbol
_atom_site_label
_atom_site_fract_x
_atom_site_fract_y
_atom_site_fract_z
Si Si1 0.297634 0.545385 0.054522
Si Si2 0.050494 0.470449 0.465041
Si Si3 0.771687 0.274105 0.374464
Si Si4 0.640795 0.230696 0.981004
Si Si5 0.043487 0.296358 0.370326
Si Si6 0.628807 0.098121 0.391195
Si Si7 0.130266 0.081413 0.868701
O O1 0.250000 0.500000 0.037662
O O2 0.283320 0.630220 0.113599
O O3 0.335516 0.495820 0.127142
O O4 0.325088 0.552854 0.935344
O O5 0.041373 0.395278 0.376511
O O6 0.083785 0.543980 0.423043
O O7 0.081260 0.437452 0.571078
O O8 0.000000 0.500000 0.500000
O O9 0.750628 0.250000 0.250000
O O10 0.750000 0.250000 0.500000
O O11 0.821510 0.231539 0.382739
O O12 0.590537 0.219862 0.932458
O O13 0.636433 0.315520 0.047628
O O14 0.652727 0.155026 0.061142
O O15 0.046759 0.250000 0.250000
O O16 0.000000 0.250000 0.427060
O O17 0.625434 0.109467 0.258628
#
# Coordination Sequence:
#
# PCOD9507585 Si02
#       7
#    16  16  16  16  16  16  16
#     4  10  23  40  60  88 121 157 199 254 310 374
#     4  10  22  39  58  86 123 158 203 258 314 379
#     4  11  25  42  64  91 122 164 208 255 312 376
#     4  10  21  40  60  85 122 156 198 251 309 373
#     4  10  21  36  60  87 115 156 200 248 306 370
#     4  10  22  38  61  87 117 159 204 252 310 376
#     4  10  22  38  60  89 118 156 201 252 311 374
#
# _framework density 20.002770999999999
#
# number of rings (size 3 to 8) (size 9 to 14) (size 15 to 20)
#    0.000    1.857    0.000    2.571    0.000   16.000 
#    0.000    0.000    0.000    2.571    0.000    0.000 
#    0.000    0.000    0.000    0.000    0.000    0.000 
#
# Total GULP energy -311876.707543 kJ/mol
# GULP energy per Si atom -5569.226920 kJ/mol
# Density = 1.995724 g / cm^3
# Si number density = 20.002771 Si / 1000 Ang^3
#
#
#
# Elastic Constant Matrix: (Units=GPa)
#
#
# Indices 1 2 3 4 5 6 
#
# 1 97.8036 22.9973 15.6481 0.0000 0.0000 0.0000
# 2 22.9973 90.4040 27.1056 0.0000 0.0000 0.0000
# 3 15.6481 27.1056 95.9034 0.0000 0.0000 0.0000
# 4 0.0000 0.0000 0.0000 18.2856 0.0000 0.0000
# 5 0.0000 0.0000 0.0000 0.0000 11.0302 0.0000
# 6 0.0000 0.0000 0.0000 0.0000 0.0000 2.5045
#
#
#
# Elastic Compliance Matrix: (Units=1/GPa)
#
#
# Indices 1 2 3 4 5 6 
#
# 1 0.010979 -0.002465 -0.001095 0.000000 0.000000 0.000000
# 2 -0.002465 0.012639 -0.003170 0.000000 0.000000 0.000000
# 3 -0.001095 -0.003170 0.011502 0.000000 0.000000 0.000000
# 4 0.000000 0.000000 0.000000 0.054688 0.000000 0.000000
# 5 0.000000 0.000000 0.000000 0.000000 0.090660 0.000000
# 6 0.000000 0.000000 0.000000 0.000000 0.000000 0.399278
#
#
# Mechanical properties :
#
#
# Convention : Reuss Voigt Hill
#
# Bulk Modulus (GPa) = 46.16629 46.17922 46.17276
# Shear Modulus (GPa) = 8.32743 20.92141 14.62442
#
# Velocity S-wave (km/s) = 2.04259 3.23759 2.70686
# Velocity P-wave (km/s) = 5.35658 6.09200 5.73609
#
# Compressibility (1/GPa) = 0.02166083
#
# Stress axis : x y z
#
# Youngs Moduli (GPa) = 91.08066 79.12085 86.94321
#
# Poissons Ratio (x) = 0.19501 0.09519
# Poissons Ratio (y) = 0.22449 0.27561
# Poissons Ratio (z) = 0.09972 0.25082
#
# Static dielectric constant tensor:
#      x y z
#    x 1.731170 0.000000 0.000000 
#    y 0.000000 1.531010 0.000000 
#    z 0.000000 0.000000 1.740210 
# 
# From -- ./inp_files/17765.got.cif
#   From: 2010.05.17/outbox.cif.g08.bks.cpg/sg68_9_cif.got.tgz:17765.got - 2010.06.03 18:57:09.
