data_PCOD9507024
_publ_section_title
;
Structure prediction by ZEFSAII (Michael W. Deem and Ramdas Pophale) SiO2 
 PCOD9507024
Probable space group: C C C A
;
_chemical_formula_sum "Si O2"
_cell_formula_units_Z 108
_cell_length_a 9.918521
_cell_length_b 16.301354
_cell_length_c 29.846853
_cell_angle_alpha 90.000000
_cell_angle_beta 90.000000
_cell_angle_gamma 90.000000
_cell_volume 4825.798037
_symmetry_space_group_name_H-M "C C C A"
_symmetry_group_IT_number 68
_space_group.IT_coordinate_system_code '2'
_symmetry_cell_setting 'orthorhombic'
loop_
_space_group_symop_operation_xyz
x,y,z
-x,1/2-y,z
x,1/2-y,1/2-z
-x,y,1/2-z
-x,-y,-z
x,1/2+y,-z
-x,1/2+y,1/2+z
x,-y,1/2+z
1/2+x,1/2+y,z
1/2-x,-y,z
1/2+x,-y,1/2-z
1/2-x,1/2+y,1/2-z
1/2-x,1/2-y,-z
1/2+x,y,-z
1/2-x,y,1/2+z
1/2+x,1/2-y,1/2+z
loop_
_atom_site_type_symbol
_atom_site_label
_atom_site_fract_x
_atom_site_fract_y
_atom_site_fract_z
Si Si1 0.278089 0.594212 0.817933
Si Si2 0.865520 0.193905 0.903602
Si Si3 0.000000 0.960684 0.250000
Si Si4 0.616615 0.442615 0.905860
Si Si5 0.463762 0.611851 0.189748
Si Si6 0.007599 0.566732 0.460664
Si Si7 0.746310 0.683660 0.460826
Si Si8 0.000000 0.250000 0.250000
O O1 0.250000 0.500000 0.831723
O O2 0.339949 0.646643 0.858066
O O3 0.383785 0.588600 0.776457
O O4 0.126072 0.623880 0.808847
O O5 0.754005 0.259981 0.916496
O O6 0.000000 0.250000 0.901438
O O7 0.877045 0.129969 0.945550
O O8 0.064468 0.024972 0.285719
O O9 0.750000 0.500000 0.902860
O O10 0.588737 0.395874 0.860276
O O11 0.503345 0.508803 0.916840
O O12 0.630105 0.380464 0.948071
O O13 0.414027 0.689306 0.218072
O O14 0.877427 0.625614 0.465789
O O15 0.000000 0.500000 0.500000
O O16 0.750000 0.750000 0.500000
#
# Coordination Sequence:
#
# PCOD9507024 Si02
#       8
#    16  16   8  16  16  16  16   4
#     4  10  21  40  65  93 121 163 221 260 328 402
#     4  10  22  40  58  89 129 163 206 271 321 391
#     4   9  20  41  63  90 121 160 214 276 321 400
#     4  10  22  40  65  91 123 174 223 263 333 406
#     4  10  22  40  62  91 125 164 215 271 331 396
#     4  10  20  38  60  87 122 167 219 264 314 389
#     4  10  22  38  59  94 131 168 212 271 334 387
#     4  10  24  40  52  86 134 156 202 276 326 394
#
# _framework density 22.379716999999999
#
# number of rings (size 3 to 8) (size 9 to 14) (size 15 to 20)
#    0.000    2.074    0.000    2.667    2.074    5.333 
#    2.667    0.000    0.000    0.000    0.000    0.000 
#    0.000    0.000    0.000    0.000    0.000    0.000 
#
# Total GULP energy -300951.340573 kJ/mol
# GULP energy per Si atom -5573.172974 kJ/mol
# Density = 2.232878 g / cm^3
# Si number density = 22.379717 Si / 1000 Ang^3
#
#
#
# Elastic Constant Matrix: (Units=GPa)
#
#
# Indices 1 2 3 4 5 6 
#
# 1 42.6181 46.8795 30.2385 0.0000 0.0000 0.0000
# 2 46.8795 136.6721 75.6135 0.0000 0.0000 0.0000
# 3 30.2385 75.6135 133.1470 0.0000 0.0000 0.0000
# 4 0.0000 0.0000 0.0000 55.7792 0.0000 0.0000
# 5 0.0000 0.0000 0.0000 0.0000 19.3139 0.0000
# 6 0.0000 0.0000 0.0000 0.0000 0.0000 25.5734
#
#
#
# Elastic Compliance Matrix: (Units=1/GPa)
#
#
# Indices 1 2 3 4 5 6 
#
# 1 0.037972 -0.012035 -0.001789 0.000000 0.000000 0.000000
# 2 -0.012035 0.014483 -0.005492 0.000000 0.000000 0.000000
# 3 -0.001789 -0.005492 0.011036 0.000000 0.000000 0.000000
# 4 0.000000 0.000000 0.000000 0.017928 0.000000 0.000000
# 5 0.000000 0.000000 0.000000 0.000000 0.051776 0.000000
# 6 0.000000 0.000000 0.000000 0.000000 0.000000 0.039103
#
#
# Mechanical properties :
#
#
# Convention : Reuss Voigt Hill
#
# Bulk Modulus (GPa) = 40.22660 68.65559 54.44109
# Shear Modulus (GPa) = 22.80865 30.78034 26.79450
#
# Velocity S-wave (km/s) = 3.19590 3.71262 3.46391
# Velocity P-wave (km/s) = 5.62423 7.00873 6.35430
#
# Compressibility (1/GPa) = 0.02485917
#
# Stress axis : x y z
#
# Youngs Moduli (GPa) = 26.33536 69.04622 90.61643
#
# Poissons Ratio (x) = 0.83095 0.16213
# Poissons Ratio (y) = 0.31694 0.49764
# Poissons Ratio (z) = 0.04712 0.37918
#
# Static dielectric constant tensor:
#      x y z
#    x 1.922390 0.000000 0.000000 
#    y 0.000000 1.802860 0.000000 
#    z 0.000000 0.000000 1.862730 
# 
# From -- ./inp_files/54854.got.cif
#   From: 2010.05.17/outbox.cif.g08.bks.cpg/sg68_28_cif.got.tgz:54854.got - 2010.06.03 18:57:09.
