data_PCOD9507551
_publ_section_title
;
Structure prediction by ZEFSAII (Michael W. Deem and Ramdas Pophale) SiO2 
 PCOD9507551
Probable space group: C C C A
;
_chemical_formula_sum "Si O2"
_cell_formula_units_Z 64
_cell_length_a 19.951236
_cell_length_b 5.117808
_cell_length_c 26.891376
_cell_angle_alpha 90.000000
_cell_angle_beta 90.000000
_cell_angle_gamma 90.000000
_cell_volume 2745.786844
_symmetry_space_group_name_H-M "C C C A"
_symmetry_group_IT_number 68
_space_group.IT_coordinate_system_code '2'
_symmetry_cell_setting 'orthorhombic'
loop_
_space_group_symop_operation_xyz
x,y,z
-x,1/2-y,z
x,1/2-y,1/2-z
-x,y,1/2-z
-x,-y,-z
x,1/2+y,-z
-x,1/2+y,1/2+z
x,-y,1/2+z
1/2+x,1/2+y,z
1/2-x,-y,z
1/2+x,-y,1/2-z
1/2-x,1/2+y,1/2-z
1/2-x,1/2-y,-z
1/2+x,y,-z
1/2-x,y,1/2+z
1/2+x,1/2-y,1/2+z
loop_
_atom_site_type_symbol
_atom_site_label
_atom_site_fract_x
_atom_site_fract_y
_atom_site_fract_z
Si Si1 0.530336 0.998769 0.305102
Si Si2 0.919801 0.731319 0.470628
Si Si3 0.323207 0.961290 0.392994
Si Si4 0.321900 0.046163 0.172702
O O1 0.500000 0.250000 0.331468
O O2 0.500000 0.998730 0.250000
O O3 0.500000 0.750000 0.332276
O O4 0.609416 0.999363 0.298970
O O5 0.902075 0.530699 0.515962
O O6 0.881328 0.588742 0.426018
O O7 0.000000 0.750000 0.463534
O O8 0.321833 0.156012 0.345688
O O9 0.250000 0.000000 0.418068
O O10 0.326877 0.664279 0.373036
O O11 0.250000 0.000000 0.197688
#
# Coordination Sequence:
#
# PCOD9507551 Si02
#       4
#    16  16  16  16
#     4  10  21  38  58  85 115 145 186 233 282 344
#     4  10  21  36  53  78 113 150 190 235 286 341
#     4  10  21  36  57  84 111 148 195 237 284 340
#     4  10  21  38  58  83 116 150 190 239 288 339
#
# _framework density 23.308439
#
# number of rings (size 3 to 8) (size 9 to 14) (size 15 to 20)
#    0.000    2.000    0.000    3.000    0.000    4.000 
#    0.000    5.000    0.000    0.000    0.000    0.000 
#    0.000    0.000    0.000    0.000    0.000    0.000 
#
# Total GULP energy -178498.190169 kJ/mol
# GULP energy per Si atom -5578.068443 kJ/mol
# Density = 2.325539 g / cm^3
# Si number density = 23.308439 Si / 1000 Ang^3
#
#
#
# Elastic Constant Matrix: (Units=GPa)
#
#
# Indices 1 2 3 4 5 6 
#
# 1 185.3606 24.8654 30.7621 0.0000 0.0000 0.0000
# 2 24.8654 156.3783 -2.3385 0.0000 0.0000 0.0000
# 3 30.7621 -2.3385 22.9634 0.0000 0.0000 0.0000
# 4 0.0000 0.0000 0.0000 -10.7924 0.0000 0.0000
# 5 0.0000 0.0000 0.0000 0.0000 43.9700 0.0000
# 6 0.0000 0.0000 0.0000 0.0000 0.0000 33.1463
#
#
#
# Elastic Compliance Matrix: (Units=1/GPa)
#
#
# Indices 1 2 3 4 5 6 
#
# 1 0.007187 -0.001289 -0.009760 0.000000 0.000000 0.000000
# 2 -0.001289 0.006636 0.002402 0.000000 0.000000 0.000000
# 3 -0.009760 0.002402 0.056867 0.000000 0.000000 0.000000
# 4 0.000000 0.000000 0.000000 -0.092658 0.000000 0.000000
# 5 0.000000 0.000000 0.000000 0.000000 0.022743 0.000000
# 6 0.000000 0.000000 0.000000 0.000000 0.000000 0.030169
#
#
# Mechanical properties :
#
#
# Convention : Reuss Voigt Hill
#
# Bulk Modulus (GPa) = 18.72760 52.36449 35.54604
# Shear Modulus (GPa) = 75.71664 34.02566 54.87115
#
# Velocity S-wave (km/s) = 5.70571 3.82488 4.85720
# Velocity P-wave (km/s) = 7.17349 6.48235 6.83666
#
# Compressibility (1/GPa) = 0.05339714
#
# Stress axis : x y z
#
# Youngs Moduli (GPa) = 139.13059 150.70217 17.58501
#
# Poissons Ratio (x) = 0.19423 0.17163
# Poissons Ratio (y) = 0.17931 -0.04224
# Poissons Ratio (z) = 1.35788 -0.36203
#
# Static dielectric constant tensor:
#      x y z
#    x 1.854770 0.000000 0.000000 
#    y 0.000000 1.928500 0.000000 
#    z 0.000000 0.000000 1.801720 
# 
# From -- ./inp_files/51588.got.cif
#   From: 2010.05.17/outbox.cif.g08.bks.cpg/sg68_26_cif.got.tgz:51588.got - 2010.06.03 18:57:09.
