data_PCOD9507095
_publ_section_title
;
Structure prediction by ZEFSAII (Michael W. Deem and Ramdas Pophale) SiO2 
 PCOD9507095
Probable space group: C C C A
;
_chemical_formula_sum "Si O2"
_cell_formula_units_Z 116
_cell_length_a 17.121774
_cell_length_b 16.654636
_cell_length_c 16.511205
_cell_angle_alpha 90.000000
_cell_angle_beta 90.000000
_cell_angle_gamma 90.000000
_cell_volume 4708.284258
_symmetry_space_group_name_H-M "C C C A"
_symmetry_group_IT_number 68
_space_group.IT_coordinate_system_code '2'
_symmetry_cell_setting 'orthorhombic'
loop_
_space_group_symop_operation_xyz
x,y,z
-x,1/2-y,z
x,1/2-y,1/2-z
-x,y,1/2-z
-x,-y,-z
x,1/2+y,-z
-x,1/2+y,1/2+z
x,-y,1/2+z
1/2+x,1/2+y,z
1/2-x,-y,z
1/2+x,-y,1/2-z
1/2-x,1/2+y,1/2-z
1/2-x,1/2-y,-z
1/2+x,y,-z
1/2-x,y,1/2+z
1/2+x,1/2-y,1/2+z
loop_
_atom_site_type_symbol
_atom_site_label
_atom_site_fract_x
_atom_site_fract_y
_atom_site_fract_z
Si Si1 0.140368 0.654874 0.196108
Si Si2 0.545310 0.919368 0.469005
Si Si3 0.187999 0.882167 0.130562
Si Si4 0.000000 0.250000 0.750000
Si Si5 0.397139 0.657864 0.031017
Si Si6 0.352935 0.067888 0.672954
Si Si7 0.183825 0.817648 0.817096
Si Si8 0.842163 0.015589 0.590102
O O1 0.160846 0.665049 0.290580
O O2 0.224962 0.674548 0.155937
O O3 0.130767 0.562207 0.170003
O O4 0.056589 0.697150 0.192183
O O5 0.488432 0.845913 0.487939
O O6 0.566783 0.916017 0.374284
O O7 0.624942 0.925435 0.520014
O O8 0.500000 0.000000 0.500000
O O9 0.280652 0.887773 0.128870
O O10 0.160940 0.973597 0.151415
O O11 0.151130 0.843922 0.051331
O O12 0.366670 0.709623 0.105405
O O13 0.377981 0.570646 0.071386
O O14 0.341931 0.102189 0.764589
O O15 0.176699 0.750000 0.750000
O O16 0.750000 0.000000 0.588152
#
# Coordination Sequence:
#
# PCOD9507095 Si02
#       8
#    16  16  16   4  16  16  16  16
#     4  11  25  41  69  95 136 188 242 293 357 443
#     4  10  21  35  60 103 138 167 213 289 366 425
#     4  10  21  38  66 101 131 174 230 295 361 418
#     4  12  28  48  64  96 144 194 232 312 352 420
#     4  11  22  39  67 100 143 173 230 305 366 437
#     4  10  20  38  64  96 137 170 232 291 350 433
#     4  11  24  45  66  96 136 195 246 280 352 460
#     4  11  20  38  70 104 133 179 227 298 379 430
#
# _framework density 24.637425
#
# number of rings (size 3 to 8) (size 9 to 14) (size 15 to 20)
#    0.000    1.379    4.828    1.655    3.862    0.552 
#    0.000    5.517    0.000    0.000    0.000    0.000 
#    0.000    0.000    0.000    0.000    0.000    0.000 
#
# Total GULP energy -323563.081675 kJ/mol
# GULP energy per Si atom -5578.673822 kJ/mol
# Density = 2.458135 g / cm^3
# Si number density = 24.637425 Si / 1000 Ang^3
#
#
#
# Elastic Constant Matrix: (Units=GPa)
#
#
# Indices 1 2 3 4 5 6 
#
# 1 106.8908 15.3192 38.3823 0.0000 0.0000 0.0000
# 2 15.3192 65.2857 -0.4685 0.0000 0.0000 0.0000
# 3 38.3823 -0.4685 119.7954 0.0000 0.0000 0.0000
# 4 0.0000 0.0000 0.0000 34.5957 0.0000 0.0000
# 5 0.0000 0.0000 0.0000 0.0000 17.7769 0.0000
# 6 0.0000 0.0000 0.0000 0.0000 0.0000 29.7252
#
#
#
# Elastic Compliance Matrix: (Units=1/GPa)
#
#
# Indices 1 2 3 4 5 6 
#
# 1 0.010998 -0.002606 -0.003534 0.000000 0.000000 0.000000
# 2 -0.002606 0.015935 0.000897 0.000000 0.000000 0.000000
# 3 -0.003534 0.000897 0.009483 0.000000 0.000000 0.000000
# 4 0.000000 0.000000 0.000000 0.028905 0.000000 0.000000
# 5 0.000000 0.000000 0.000000 0.000000 0.056253 0.000000
# 6 0.000000 0.000000 0.000000 0.000000 0.000000 0.033642
#
#
# Mechanical properties :
#
#
# Convention : Reuss Voigt Hill
#
# Bulk Modulus (GPa) = 38.56363 44.27089 41.41726
# Shear Modulus (GPa) = 28.67883 32.33549 30.50716
#
# Velocity S-wave (km/s) = 3.41550 3.62671 3.52269
# Velocity P-wave (km/s) = 5.58933 5.96199 5.77867
#
# Compressibility (1/GPa) = 0.02593117
#
# Stress axis : x y z
#
# Youngs Moduli (GPa) = 90.92764 62.75409 105.44836
#
# Poissons Ratio (x) = 0.16353 0.37264
# Poissons Ratio (y) = 0.23695 -0.09461
# Poissons Ratio (z) = 0.32133 -0.05631
#
# Static dielectric constant tensor:
#      x y z
#    x 1.647350 0.000000 0.000000 
#    y 0.000000 2.128510 0.000000 
#    z 0.000000 0.000000 2.030870 
# 
# From -- ./inp_files/32155.got.cif
#   From: 2010.05.17/outbox.cif.g08.bks.cpg/sg68_17_cif.got.tgz:32155.got - 2010.06.03 18:57:09.
