data_PCOD9507291
_publ_section_title
;
Structure prediction by ZEFSAII (Michael W. Deem and Ramdas Pophale) SiO2 
 PCOD9507291
Probable space group: C C C A
;
_chemical_formula_sum "Si O2"
_cell_formula_units_Z 104
_cell_length_a 16.481427
_cell_length_b 19.976346
_cell_length_c 16.866807
_cell_angle_alpha 90.000000
_cell_angle_beta 90.000000
_cell_angle_gamma 90.000000
_cell_volume 5553.205413
_symmetry_space_group_name_H-M "C C C A"
_symmetry_group_IT_number 68
_space_group.IT_coordinate_system_code '2'
_symmetry_cell_setting 'orthorhombic'
loop_
_space_group_symop_operation_xyz
x,y,z
-x,1/2-y,z
x,1/2-y,1/2-z
-x,y,1/2-z
-x,-y,-z
x,1/2+y,-z
-x,1/2+y,1/2+z
x,-y,1/2+z
1/2+x,1/2+y,z
1/2-x,-y,z
1/2+x,-y,1/2-z
1/2-x,1/2+y,1/2-z
1/2-x,1/2-y,-z
1/2+x,y,-z
1/2-x,y,1/2+z
1/2+x,1/2-y,1/2+z
loop_
_atom_site_type_symbol
_atom_site_label
_atom_site_fract_x
_atom_site_fract_y
_atom_site_fract_z
Si Si1 0.276673 0.929739 0.706742
Si Si2 0.923665 0.368160 0.930606
Si Si3 0.132236 0.089861 0.094408
Si Si4 0.500000 0.250000 0.967232
Si Si5 0.704788 0.696333 0.811923
Si Si6 0.957301 0.534528 0.166276
Si Si7 0.873396 0.739627 0.657429
O O1 0.220593 0.927324 0.628924
O O2 0.260245 0.866290 0.762086
O O3 0.371244 0.929997 0.685204
O O4 0.250000 0.000000 0.746760
O O5 0.861665 0.332626 0.870727
O O6 0.983848 0.418614 0.885466
O O7 0.873753 0.404984 0.000147
O O8 0.971985 0.310207 0.976843
O O9 0.115794 0.162230 0.133415
O O10 0.068664 0.034295 0.123902
O O11 0.430137 0.224684 0.906972
O O12 0.668493 0.750000 0.750000
O O13 0.780929 0.734740 0.851173
O O14 0.000000 0.520550 0.250000
O O15 0.894777 0.750000 0.750000
#
# Coordination Sequence:
#
# PCOD9507291 Si02
#       7
#    16  16  16   8  16  16  16
#     4  10  21  42  65  94 126 175 217 263 327 392
#     4  11  25  40  60  98 130 168 215 268 341 385
#     4  10  22  42  63  89 129 166 212 276 322 389
#     4  10  25  36  55  94 134 166 206 274 329 392
#     4  11  22  41  69  95 128 172 224 267 319 406
#     4  11  23  41  68  92 130 171 220 269 329 398
#     4  10  20  40  65  92 121 166 221 265 326 383
#
# _framework density 18.727923000000001
#
# number of rings (size 3 to 8) (size 9 to 14) (size 15 to 20)
#    0.000    1.538    4.615    0.692    2.154    6.154 
#    0.000    2.308    0.000    0.000    0.000    0.000 
#    0.000    0.000    0.000    0.000    0.000    0.000 
#
# Total GULP energy -290087.528867 kJ/mol
# GULP energy per Si atom -5578.606324 kJ/mol
# Density = 1.868530 g / cm^3
# Si number density = 18.727923 Si / 1000 Ang^3
#
#
#
# Elastic Constant Matrix: (Units=GPa)
#
#
# Indices 1 2 3 4 5 6 
#
# 1 123.6046 49.9288 76.8812 0.0000 0.0000 0.0000
# 2 49.9288 106.9154 57.2761 0.0000 0.0000 0.0000
# 3 76.8812 57.2761 129.6174 0.0000 0.0000 0.0000
# 4 0.0000 0.0000 0.0000 33.4177 0.0000 0.0000
# 5 0.0000 0.0000 0.0000 0.0000 11.6669 0.0000
# 6 0.0000 0.0000 0.0000 0.0000 0.0000 26.5234
#
#
#
# Elastic Compliance Matrix: (Units=1/GPa)
#
#
# Indices 1 2 3 4 5 6 
#
# 1 0.013354 -0.002611 -0.006767 0.000000 0.000000 0.000000
# 2 -0.002611 0.012765 -0.004092 0.000000 0.000000 0.000000
# 3 -0.006767 -0.004092 0.013537 0.000000 0.000000 0.000000
# 4 0.000000 0.000000 0.000000 0.029924 0.000000 0.000000
# 5 0.000000 0.000000 0.000000 0.000000 0.085712 0.000000
# 6 0.000000 0.000000 0.000000 0.000000 0.000000 0.037702
#
#
# Mechanical properties :
#
#
# Convention : Reuss Voigt Hill
#
# Bulk Modulus (GPa) = 78.64220 80.92327 79.78274
# Shear Modulus (GPa) = 22.30420 26.05838 24.18129
#
# Velocity S-wave (km/s) = 3.45477 3.73422 3.59721
# Velocity P-wave (km/s) = 7.61558 7.86742 7.74252
#
# Compressibility (1/GPa) = 0.01271582
#
# Stress axis : x y z
#
# Youngs Moduli (GPa) = 74.88355 78.34202 73.87224
#
# Poissons Ratio (x) = 0.20456 0.49990
# Poissons Ratio (y) = 0.19553 0.30227
# Poissons Ratio (z) = 0.50674 0.32056
#
# Static dielectric constant tensor:
#      x y z
#    x 1.668120 0.000000 0.000000 
#    y 0.000000 1.679270 0.000000 
#    z 0.000000 0.000000 1.634440 
# 
# From -- ./inp_files/23788.got.cif
#   From: 2010.05.17/outbox.cif.g08.bks.cpg/sg68_12_cif.got.tgz:23788.got - 2010.06.03 18:57:09.
