data_PCOD9507258
_publ_section_title
;
Structure prediction by ZEFSAII (Michael W. Deem and Ramdas Pophale) SiO2 
 PCOD9507258
Probable space group: C C C A
;
_chemical_formula_sum "Si O2"
_cell_formula_units_Z 40
_cell_length_a 9.633918
_cell_length_b 18.097518
_cell_length_c 9.484532
_cell_angle_alpha 90.000000
_cell_angle_beta 90.000000
_cell_angle_gamma 90.000000
_cell_volume 1653.628196
_symmetry_space_group_name_H-M "C C C A"
_symmetry_group_IT_number 68
_space_group.IT_coordinate_system_code '2'
_symmetry_cell_setting 'orthorhombic'
loop_
_space_group_symop_operation_xyz
x,y,z
-x,1/2-y,z
x,1/2-y,1/2-z
-x,y,1/2-z
-x,-y,-z
x,1/2+y,-z
-x,1/2+y,1/2+z
x,-y,1/2+z
1/2+x,1/2+y,z
1/2-x,-y,z
1/2+x,-y,1/2-z
1/2-x,1/2+y,1/2-z
1/2-x,1/2-y,-z
1/2+x,y,-z
1/2-x,y,1/2+z
1/2+x,1/2-y,1/2+z
loop_
_atom_site_type_symbol
_atom_site_label
_atom_site_fract_x
_atom_site_fract_y
_atom_site_fract_z
Si Si1 0.704904 0.165687 0.245132
Si Si2 0.500000 0.389607 0.750000
Si Si3 0.175664 0.424804 0.002493
O O1 0.661031 0.250000 0.250000
O O2 0.868168 0.159753 0.290759
O O3 0.717341 0.126699 0.093366
O O4 0.628198 0.118191 0.363882
O O5 0.555125 0.436579 0.881941
O O6 0.250000 0.500000 0.961439
#
# Coordination Sequence:
#
# PCOD9507258 Si02
#       3
#    16   8  16
#     4  10  20  40  62  89 125 163 208 258 309 366
#     4   8  23  36  64  86 125 162 214 250 313 358
#     4  10  21  39  61  92 128 163 203 259 310 367
#
# _framework density 24.189235
#
# number of rings (size 3 to 8) (size 9 to 14) (size 15 to 20)
#    2.400    0.000    0.000    3.000    0.000    1.600 
#    0.000    0.000    0.000    2.400    0.000    0.000 
#    0.000    0.000    0.000    0.000    0.000    0.000 
#
# Total GULP energy -111608.168947 kJ/mol
# GULP energy per Si atom -5580.408447 kJ/mol
# Density = 2.413418 g / cm^3
# Si number density = 24.189235 Si / 1000 Ang^3
#
#
#
# Elastic Constant Matrix: (Units=GPa)
#
#
# Indices 1 2 3 4 5 6 
#
# 1 80.7219 -10.3389 -1.2121 0.0000 0.0000 0.0000
# 2 -10.3389 158.9630 49.9543 0.0000 0.0000 0.0000
# 3 -1.2121 49.9543 151.4038 0.0000 0.0000 0.0000
# 4 0.0000 0.0000 0.0000 39.3607 0.0000 0.0000
# 5 0.0000 0.0000 0.0000 0.0000 25.2590 0.0000
# 6 0.0000 0.0000 0.0000 0.0000 0.0000 -12.0628
#
#
#
# Elastic Compliance Matrix: (Units=1/GPa)
#
#
# Indices 1 2 3 4 5 6 
#
# 1 0.012497 0.000872 -0.000188 0.000000 0.000000 0.000000
# 2 0.000872 0.007079 -0.002329 0.000000 0.000000 0.000000
# 3 -0.000188 -0.002329 0.007372 0.000000 0.000000 0.000000
# 4 0.000000 0.000000 0.000000 0.025406 0.000000 0.000000
# 5 0.000000 0.000000 0.000000 0.000000 0.039590 0.000000
# 6 0.000000 0.000000 0.000000 0.000000 0.000000 -0.082899
#
#
# Mechanical properties :
#
#
# Convention : Reuss Voigt Hill
#
# Bulk Modulus (GPa) = 42.26749 51.98838 47.12793
# Shear Modulus (GPa) = 247.28045 34.02375 140.65210
#
# Velocity S-wave (km/s) = 10.12173 3.75449 7.63366
# Velocity P-wave (km/s) = 12.41414 6.35090 9.86014
#
# Compressibility (1/GPa) = 0.02365885
#
# Stress axis : x y z
#
# Youngs Moduli (GPa) = 80.01892 141.25721 135.65382
#
# Poissons Ratio (x) = -0.12314 0.02545
# Poissons Ratio (y) = -0.06976 0.31591
# Poissons Ratio (z) = 0.01501 0.32895
#
# Static dielectric constant tensor:
#      x y z
#    x 2.021530 0.000000 0.000000 
#    y 0.000000 1.863760 0.000000 
#    z 0.000000 0.000000 1.895930 
# 
# From -- ./inp_files/3638.got.cif
#   From: 2010.05.17/outbox.cif.g08.bks.cpg/sg68_2_cif.got.tgz:3638.got - 2010.06.03 18:57:09.
