data_PCOD9507806
_publ_section_title
;
Structure prediction by ZEFSAII (Michael W. Deem and Ramdas Pophale) SiO2 
 PCOD9507806
Probable space group: C C C A
;
_chemical_formula_sum "Si O2"
_cell_formula_units_Z 88
_cell_length_a 8.798127
_cell_length_b 20.796793
_cell_length_c 23.248522
_cell_angle_alpha 90.000000
_cell_angle_beta 90.000000
_cell_angle_gamma 90.000000
_cell_volume 4253.847771
_symmetry_space_group_name_H-M "C C C A"
_symmetry_group_IT_number 68
_space_group.IT_coordinate_system_code '2'
_symmetry_cell_setting 'orthorhombic'
loop_
_space_group_symop_operation_xyz
x,y,z
-x,1/2-y,z
x,1/2-y,1/2-z
-x,y,1/2-z
-x,-y,-z
x,1/2+y,-z
-x,1/2+y,1/2+z
x,-y,1/2+z
1/2+x,1/2+y,z
1/2-x,-y,z
1/2+x,-y,1/2-z
1/2-x,1/2+y,1/2-z
1/2-x,1/2-y,-z
1/2+x,y,-z
1/2-x,y,1/2+z
1/2+x,1/2-y,1/2+z
loop_
_atom_site_type_symbol
_atom_site_label
_atom_site_fract_x
_atom_site_fract_y
_atom_site_fract_z
Si Si1 0.135215 0.341930 0.127046
Si Si2 0.250000 0.000000 0.676579
Si Si3 0.673345 0.123194 0.749689
Si Si4 0.709872 0.071504 0.035604
Si Si5 0.215664 0.194313 0.143661
Si Si6 0.374359 0.411732 0.420061
O O1 0.207878 0.378620 0.182296
O O2 0.189290 0.377013 0.069854
O O3 0.195453 0.269150 0.132531
O O4 0.951080 0.337708 0.130547
O O5 0.317555 0.055077 0.717803
O O6 0.138786 0.038216 0.633052
O O7 0.500000 0.146813 0.750000
O O8 0.755629 0.174649 0.790660
O O9 0.535162 0.083819 0.049391
O O10 0.750000 0.000000 0.056217
O O11 0.747678 0.074176 0.968208
O O12 0.337840 0.158587 0.104538
#
# Coordination Sequence:
#
# PCOD9507806 Si02
#       6
#    16   8  16  16  16  16
#     4  10  21  38  64  95 124 164 207 253 300 369
#     4  10  22  36  60  90 130 164 200 256 304 370
#     4   9  19  34  61  89 125 162 204 245 298 367
#     4  12  26  39  65  90 126 161 206 261 312 374
#     4   9  20  41  64  90 125 166 210 248 302 361
#     4  11  24  42  62  89 123 167 206 258 313 363
#
# _framework density 20.687154
#
# number of rings (size 3 to 8) (size 9 to 14) (size 15 to 20)
#    0.000    1.818    0.909    2.182    8.909    3.636 
#    0.000    2.727    0.000    4.364    0.000    0.000 
#    0.000    0.000    0.000    0.000    0.000    0.000 
#
# Total GULP energy -245577.279136 kJ/mol
# GULP energy per Si atom -5581.301799 kJ/mol
# Density = 2.064007 g / cm^3
# Si number density = 20.687154 Si / 1000 Ang^3
#
#
#
# Elastic Constant Matrix: (Units=GPa)
#
#
# Indices 1 2 3 4 5 6 
#
# 1 61.4165 6.6875 21.8338 0.0000 0.0000 0.0000
# 2 6.6875 79.9914 45.3862 0.0000 0.0000 0.0000
# 3 21.8338 45.3862 96.0400 0.0000 0.0000 0.0000
# 4 0.0000 0.0000 0.0000 94.7603 0.0000 0.0000
# 5 0.0000 0.0000 0.0000 0.0000 10.4834 0.0000
# 6 0.0000 0.0000 0.0000 0.0000 0.0000 24.0052
#
#
#
# Elastic Compliance Matrix: (Units=1/GPa)
#
#
# Indices 1 2 3 4 5 6 
#
# 1 0.017785 0.001103 -0.004564 0.000000 0.000000 0.000000
# 2 0.001103 0.017150 -0.008355 0.000000 0.000000 0.000000
# 3 -0.004564 -0.008355 0.015399 0.000000 0.000000 0.000000
# 4 0.000000 0.000000 0.000000 0.010553 0.000000 0.000000
# 5 0.000000 0.000000 0.000000 0.000000 0.095389 0.000000
# 6 0.000000 0.000000 0.000000 0.000000 0.000000 0.041658
#
#
# Mechanical properties :
#
#
# Convention : Reuss Voigt Hill
#
# Bulk Modulus (GPa) = 37.45379 42.80698 40.13039
# Shear Modulus (GPa) = 21.69509 36.75246 29.22377
#
# Velocity S-wave (km/s) = 3.24191 4.21953 3.76261
# Velocity P-wave (km/s) = 5.67076 6.66908 6.19008
#
# Compressibility (1/GPa) = 0.02669957
#
# Stress axis : x y z
#
# Youngs Moduli (GPa) = 56.22761 58.30948 64.94115
#
# Poissons Ratio (x) = -0.06431 0.29642
# Poissons Ratio (y) = -0.06202 0.54261
# Poissons Ratio (z) = 0.25665 0.48720
#
# Static dielectric constant tensor:
#      x y z
#    x 1.740570 0.000000 0.000000 
#    y 0.000000 1.756920 0.000000 
#    z 0.000000 0.000000 1.764660 
# 
# From -- ./inp_files/36301.got.cif
#   From: 2010.05.17/outbox.cif.g08.bks.cpg/sg68_19_cif.got.tgz:36301.got - 2010.06.03 18:57:09.
