data_PCOD9507467
_publ_section_title
;
Structure prediction by ZEFSAII (Michael W. Deem and Ramdas Pophale) SiO2 
 PCOD9507467
Probable space group: C C C A
;
_chemical_formula_sum "Si O2"
_cell_formula_units_Z 80
_cell_length_a 5.140002
_cell_length_b 24.905821
_cell_length_c 31.055986
_cell_angle_alpha 90.000000
_cell_angle_beta 90.000000
_cell_angle_gamma 90.000000
_cell_volume 3975.662164
_symmetry_space_group_name_H-M "C C C A"
_symmetry_group_IT_number 68
_space_group.IT_coordinate_system_code '2'
_symmetry_cell_setting 'orthorhombic'
loop_
_space_group_symop_operation_xyz
x,y,z
-x,1/2-y,z
x,1/2-y,1/2-z
-x,y,1/2-z
-x,-y,-z
x,1/2+y,-z
-x,1/2+y,1/2+z
x,-y,1/2+z
1/2+x,1/2+y,z
1/2-x,-y,z
1/2+x,-y,1/2-z
1/2-x,1/2+y,1/2-z
1/2-x,1/2-y,-z
1/2+x,y,-z
1/2-x,y,1/2+z
1/2+x,1/2-y,1/2+z
loop_
_atom_site_type_symbol
_atom_site_label
_atom_site_fract_x
_atom_site_fract_y
_atom_site_fract_z
Si Si1 0.444759 0.560309 0.482407
Si Si2 0.372396 0.552414 0.670008
Si Si3 0.121420 0.078421 0.115446
Si Si4 0.609294 0.804371 0.349293
Si Si5 0.389160 0.170401 0.296415
O O1 0.500000 0.500000 0.500000
O O2 0.726785 0.586501 0.487559
O O3 0.347992 0.561691 0.433740
O O4 0.250000 0.500000 0.693419
O O5 0.650589 0.554699 0.645877
O O6 0.378627 0.605598 0.699093
O O7 0.156111 0.559221 0.632849
O O8 0.107849 0.142777 0.121133
O O9 0.500000 0.750000 0.370490
O O10 0.399402 0.811985 0.310317
O O11 0.898474 0.806019 0.329701
O O12 0.500000 0.184981 0.250000
#
# Coordination Sequence:
#
# PCOD9507467 Si02
#       5
#    16  16  16  16  16
#     4  10  21  32  50  80 108 140 169 220 275 323
#     4  10  21  34  55  76 106 154 181 212 268 331
#     4  10  21  36  53  78 113 140 181 226 263 329
#     4  10  21  37  58  81 105 146 187 226 284 328
#     4  10  21  37  54  83 114 138 185 239 275 323
#
# _framework density 20.122436
#
# number of rings (size 3 to 8) (size 9 to 14) (size 15 to 20)
#    0.000    2.000    0.000    3.000    8.400    2.400 
#    0.000    6.000    0.000    1.200    0.000    0.000 
#    0.000    0.000    0.000    0.000    0.000    0.000 
#
# Total GULP energy -222909.764302 kJ/mol
# GULP energy per Si atom -5572.744108 kJ/mol
# Density = 2.007664 g / cm^3
# Si number density = 20.122436 Si / 1000 Ang^3
#
#
#
# Elastic Constant Matrix: (Units=GPa)
#
#
# Indices 1 2 3 4 5 6 
#
# 1 111.9351 25.9425 -5.1626 0.0000 0.0000 0.0000
# 2 25.9425 139.7536 8.5754 0.0000 0.0000 0.0000
# 3 -5.1626 8.5754 41.3018 0.0000 0.0000 0.0000
# 4 0.0000 0.0000 0.0000 -13.7528 0.0000 0.0000
# 5 0.0000 0.0000 0.0000 0.0000 14.2264 0.0000
# 6 0.0000 0.0000 0.0000 0.0000 0.0000 34.2176
#
#
#
# Elastic Compliance Matrix: (Units=1/GPa)
#
#
# Indices 1 2 3 4 5 6 
#
# 1 0.009434 -0.001847 0.001563 0.000000 0.000000 0.000000
# 2 -0.001847 0.007609 -0.001811 0.000000 0.000000 0.000000
# 3 0.001563 -0.001811 0.024783 0.000000 0.000000 0.000000
# 4 0.000000 0.000000 0.000000 -0.072712 0.000000 0.000000
# 5 0.000000 0.000000 0.000000 0.000000 0.070292 0.000000
# 6 0.000000 0.000000 0.000000 0.000000 0.000000 0.029225
#
#
# Mechanical properties :
#
#
# Convention : Reuss Voigt Hill
#
# Bulk Modulus (GPa) = 26.57010 39.07789 32.82399
# Shear Modulus (GPa) = 58.57071 24.51391 41.54231
#
# Velocity S-wave (km/s) = 5.40096 3.49411 4.54858
# Velocity P-wave (km/s) = 7.21988 5.97835 6.62825
#
# Compressibility (1/GPa) = 0.03763629
#
# Stress axis : x y z
#
# Youngs Moduli (GPa) = 106.00053 131.41567 40.34969
#
# Poissons Ratio (x) = 0.24274 -0.06306
# Poissons Ratio (y) = 0.19579 0.07307
# Poissons Ratio (z) = -0.16565 0.23797
#
# Static dielectric constant tensor:
#      x y z
#    x 1.852220 0.000000 0.000000 
#    y 0.000000 1.940830 0.000000 
#    z 0.000000 0.000000 1.683330 
# 
# From -- ./inp_files/53167.got.cif
#   From: 2010.05.17/outbox.cif.g08.bks.cpg/sg68_27_cif.got.tgz:53167.got - 2010.06.03 18:57:09.
