data_PCOD9507317
_publ_section_title
;
Structure prediction by ZEFSAII (Michael W. Deem and Ramdas Pophale) SiO2 
 PCOD9507317
Probable space group: C C C A
;
_chemical_formula_sum "Si O2"
_cell_formula_units_Z 88
_cell_length_a 18.215725
_cell_length_b 16.344865
_cell_length_c 14.183358
_cell_angle_alpha 90.000000
_cell_angle_beta 90.000000
_cell_angle_gamma 90.000000
_cell_volume 4222.861755
_symmetry_space_group_name_H-M "C C C A"
_symmetry_group_IT_number 68
_space_group.IT_coordinate_system_code '2'
_symmetry_cell_setting 'orthorhombic'
loop_
_space_group_symop_operation_xyz
x,y,z
-x,1/2-y,z
x,1/2-y,1/2-z
-x,y,1/2-z
-x,-y,-z
x,1/2+y,-z
-x,1/2+y,1/2+z
x,-y,1/2+z
1/2+x,1/2+y,z
1/2-x,-y,z
1/2+x,-y,1/2-z
1/2-x,1/2+y,1/2-z
1/2-x,1/2-y,-z
1/2+x,y,-z
1/2-x,y,1/2+z
1/2+x,1/2-y,1/2+z
loop_
_atom_site_type_symbol
_atom_site_label
_atom_site_fract_x
_atom_site_fract_y
_atom_site_fract_z
Si Si1 0.325887 0.040563 0.279105
Si Si2 0.732800 0.786060 0.655663
Si Si3 0.349789 0.323340 0.496045
Si Si4 0.889447 0.493721 0.577059
Si Si5 0.947916 0.420739 0.910249
Si Si6 0.500000 0.250000 0.449799
O O1 0.311825 0.136505 0.302912
O O2 0.345386 0.006579 0.174981
O O3 0.398977 0.027949 0.338674
O O4 0.250000 0.000000 0.309994
O O5 0.767295 0.750000 0.750000
O O6 0.681893 0.722555 0.597262
O O7 0.796064 0.807597 0.582184
O O8 0.351749 0.420052 0.479668
O O9 0.432618 0.289586 0.507723
O O10 0.902454 0.571815 0.509431
O O11 0.972675 0.462655 0.591133
O O12 0.965812 0.325703 0.891746
#
# Coordination Sequence:
#
# PCOD9507317 Si02
#       6
#    16  16  16  16  16   8
#     4  12  24  38  62  98 131 172 220 276 342 406
#     4  11  22  39  60  94 131 172 222 272 341 411
#     4  10  21  39  65  89 132 171 219 284 336 401
#     4  10  22  41  63  92 126 173 219 275 340 397
#     4  10  22  41  64  94 130 165 221 280 334 404
#     4  10  20  40  68  94 124 178 222 274 344 392
#
# _framework density 20.838947999999998
#
# number of rings (size 3 to 8) (size 9 to 14) (size 15 to 20)
#    0.000    1.455    3.636    1.636    0.000    3.636 
#    0.000    1.818    0.000    0.000    0.000    0.000 
#    0.000    0.000    0.000    0.000    0.000    0.000 
#
# Total GULP energy -245153.637254 kJ/mol
# GULP energy per Si atom -5571.673574 kJ/mol
# Density = 2.079152 g / cm^3
# Si number density = 20.838948 Si / 1000 Ang^3
#
#
#
# Elastic Constant Matrix: (Units=GPa)
#
#
# Indices 1 2 3 4 5 6 
#
# 1 89.5637 14.8961 35.5604 0.0000 0.0000 0.0000
# 2 14.8961 61.7631 19.9075 0.0000 0.0000 0.0000
# 3 35.5604 19.9075 93.8568 0.0000 0.0000 0.0000
# 4 0.0000 0.0000 0.0000 9.6229 0.0000 0.0000
# 5 0.0000 0.0000 0.0000 0.0000 10.2474 0.0000
# 6 0.0000 0.0000 0.0000 0.0000 0.0000 32.3500
#
#
#
# Elastic Compliance Matrix: (Units=1/GPa)
#
#
# Indices 1 2 3 4 5 6 
#
# 1 0.013307 -0.001701 -0.004681 0.000000 0.000000 0.000000
# 2 -0.001701 0.017596 -0.003088 0.000000 0.000000 0.000000
# 3 -0.004681 -0.003088 0.013083 0.000000 0.000000 0.000000
# 4 0.000000 0.000000 0.000000 0.103918 0.000000 0.000000
# 5 0.000000 0.000000 0.000000 0.000000 0.097586 0.000000
# 6 0.000000 0.000000 0.000000 0.000000 0.000000 0.030912
#
#
# Mechanical properties :
#
#
# Convention : Reuss Voigt Hill
#
# Bulk Modulus (GPa) = 39.92476 42.87905 41.40191
# Shear Modulus (GPa) = 16.46418 22.09871 19.28144
#
# Velocity S-wave (km/s) = 2.81386 3.25999 3.04511
# Velocity P-wave (km/s) = 5.45504 5.89840 5.68104
#
# Compressibility (1/GPa) = 0.02504711
#
# Stress axis : x y z
#
# Youngs Moduli (GPa) = 75.15081 56.82992 76.43504
#
# Poissons Ratio (x) = 0.09664 0.35778
# Poissons Ratio (y) = 0.12780 0.23603
# Poissons Ratio (z) = 0.35177 0.17549
#
# Static dielectric constant tensor:
#      x y z
#    x 1.744440 0.000000 0.000000 
#    y 0.000000 1.800180 0.000000 
#    z 0.000000 0.000000 1.812530 
# 
# From -- ./inp_files/14438.got.cif
#   From: 2010.05.17/outbox.cif.g08.bks.cpg/sg68_8_cif.got.tgz:14438.got - 2010.06.03 18:57:09.
