data_PCOD9507966
_publ_section_title
;
Structure prediction by ZEFSAII (Michael W. Deem and Ramdas Pophale) SiO2 
 PCOD9507966
Probable space group: C C C A
;
_chemical_formula_sum "Si O2"
_cell_formula_units_Z 112
_cell_length_a 24.420112
_cell_length_b 13.818289
_cell_length_c 15.825241
_cell_angle_alpha 90.000000
_cell_angle_beta 90.000000
_cell_angle_gamma 90.000000
_cell_volume 5340.135236
_symmetry_space_group_name_H-M "C C C A"
_symmetry_group_IT_number 68
_space_group.IT_coordinate_system_code '2'
_symmetry_cell_setting 'orthorhombic'
loop_
_space_group_symop_operation_xyz
x,y,z
-x,1/2-y,z
x,1/2-y,1/2-z
-x,y,1/2-z
-x,-y,-z
x,1/2+y,-z
-x,1/2+y,1/2+z
x,-y,1/2+z
1/2+x,1/2+y,z
1/2-x,-y,z
1/2+x,-y,1/2-z
1/2-x,1/2+y,1/2-z
1/2-x,1/2-y,-z
1/2+x,y,-z
1/2-x,y,1/2+z
1/2+x,1/2-y,1/2+z
loop_
_atom_site_type_symbol
_atom_site_label
_atom_site_fract_x
_atom_site_fract_y
_atom_site_fract_z
Si Si1 0.864253 0.330257 0.421258
Si Si2 0.478728 0.418290 0.837392
Si Si3 0.639603 0.492636 0.199233
Si Si4 0.084733 0.534494 0.134822
Si Si5 0.797684 0.686149 0.681354
Si Si6 0.549407 0.193952 0.006534
Si Si7 0.284057 0.096021 0.056511
O O1 0.890058 0.431119 0.391978
O O2 0.847248 0.255503 0.348015
O O3 0.907013 0.272940 0.478146
O O4 0.811596 0.357321 0.475939
O O5 0.500000 0.368607 0.750000
O O6 0.417398 0.458493 0.829168
O O7 0.521841 0.506249 0.845154
O O8 0.477224 0.354833 0.922380
O O9 0.621314 0.436591 0.283994
O O10 0.680637 0.583202 0.215497
O O11 0.668972 0.432893 0.125079
O O12 0.080230 0.613287 0.061641
O O13 0.766588 0.750000 0.750000
O O14 0.759135 0.663780 0.603126
O O15 0.500000 0.250000 0.052821
O O16 0.250000 0.000000 0.033565
#
# Coordination Sequence:
#
# PCOD9507966 Si02
#       7
#    16  16  16  16  16  16  16
#     4  12  24  42  70  96 135 173 219 282 339 396
#     4  10  21  39  67  95 134 175 219 271 330 392
#     4  10  21  43  67  92 133 175 220 275 339 394
#     4  11  24  41  66 101 135 178 218 276 338 404
#     4  11  22  42  66  97 125 166 232 284 328 392
#     4  12  25  39  64 102 140 177 222 269 335 415
#     4  10  25  44  65  94 131 175 221 282 341 407
#
# _framework density 20.973251000000001
#
# number of rings (size 3 to 8) (size 9 to 14) (size 15 to 20)
#    0.000    1.143    4.286    1.714    4.000    1.429 
#    2.571    0.000    0.000    0.000    0.000    0.000 
#    0.000    0.000    0.000    0.000    0.000    0.000 
#
# Total GULP energy -312711.287254 kJ/mol
# GULP energy per Si atom -5584.130130 kJ/mol
# Density = 2.092551 g / cm^3
# Si number density = 20.973251 Si / 1000 Ang^3
#
#
#
# Elastic Constant Matrix: (Units=GPa)
#
#
# Indices 1 2 3 4 5 6 
#
# 1 63.8504 7.3010 11.3236 0.0000 0.0000 0.0000
# 2 7.3010 57.6114 26.0199 0.0000 0.0000 0.0000
# 3 11.3236 26.0199 66.1483 0.0000 0.0000 0.0000
# 4 0.0000 0.0000 0.0000 7.4743 0.0000 0.0000
# 5 0.0000 0.0000 0.0000 0.0000 43.7699 0.0000
# 6 0.0000 0.0000 0.0000 0.0000 0.0000 16.4171
#
#
#
# Elastic Compliance Matrix: (Units=1/GPa)
#
#
# Indices 1 2 3 4 5 6 
#
# 1 0.016197 -0.000973 -0.002390 0.000000 0.000000 0.000000
# 2 -0.000973 0.021166 -0.008159 0.000000 0.000000 0.000000
# 3 -0.002390 -0.008159 0.018736 0.000000 0.000000 0.000000
# 4 0.000000 0.000000 0.000000 0.133791 0.000000 0.000000
# 5 0.000000 0.000000 0.000000 0.000000 0.022847 0.000000
# 6 0.000000 0.000000 0.000000 0.000000 0.000000 0.060912
#
#
# Mechanical properties :
#
#
# Convention : Reuss Voigt Hill
#
# Bulk Modulus (GPa) = 30.25317 30.76657 30.50987
# Shear Modulus (GPa) = 16.24898 23.06329 19.65614
#
# Velocity S-wave (km/s) = 2.78645 3.31970 3.06469
# Velocity P-wave (km/s) = 4.98080 5.42173 5.20593
#
# Compressibility (1/GPa) = 0.03305439
#
# Stress axis : x y z
#
# Youngs Moduli (GPa) = 61.74088 47.24540 53.37284
#
# Poissons Ratio (x) = 0.04598 0.12755
# Poissons Ratio (y) = 0.06009 0.43548
# Poissons Ratio (z) = 0.14755 0.38548
#
# Static dielectric constant tensor:
#      x y z
#    x 1.746700 0.000000 0.000000 
#    y 0.000000 1.755090 0.000000 
#    z 0.000000 0.000000 1.811520 
# 
# From -- ./inp_files/22618.got.cif
#   From: 2010.05.17/outbox.cif.g08.bks.cpg/sg68_12_cif.got.tgz:22618.got - 2010.06.03 18:57:09.
