data_PCOD9507052
_publ_section_title
;
Structure prediction by ZEFSAII (Michael W. Deem and Ramdas Pophale) SiO2 
 PCOD9507052
Probable space group: C C C A
;
_chemical_formula_sum "Si O2"
_cell_formula_units_Z 104
_cell_length_a 27.866895
_cell_length_b 16.877238
_cell_length_c 9.149700
_cell_angle_alpha 90.000000
_cell_angle_beta 90.000000
_cell_angle_gamma 90.000000
_cell_volume 4303.252311
_symmetry_space_group_name_H-M "C C C A"
_symmetry_group_IT_number 68
_space_group.IT_coordinate_system_code '2'
_symmetry_cell_setting 'orthorhombic'
loop_
_space_group_symop_operation_xyz
x,y,z
-x,1/2-y,z
x,1/2-y,1/2-z
-x,y,1/2-z
-x,-y,-z
x,1/2+y,-z
-x,1/2+y,1/2+z
x,-y,1/2+z
1/2+x,1/2+y,z
1/2-x,-y,z
1/2+x,-y,1/2-z
1/2-x,1/2+y,1/2-z
1/2-x,1/2-y,-z
1/2+x,y,-z
1/2-x,y,1/2+z
1/2+x,1/2-y,1/2+z
loop_
_atom_site_type_symbol
_atom_site_label
_atom_site_fract_x
_atom_site_fract_y
_atom_site_fract_z
Si Si1 0.985083 0.659502 0.031202
Si Si2 0.080645 0.250000 0.750000
Si Si3 0.812650 0.961527 0.106244
Si Si4 0.247966 0.876485 0.142613
Si Si5 0.584518 0.162651 0.708689
Si Si6 0.187796 0.348203 0.101746
Si Si7 0.908246 0.881309 0.036776
O O1 0.951013 0.682100 0.167767
O O2 0.000000 0.750000 0.990827
O O3 0.034063 0.611715 0.057244
O O4 0.954399 0.624295 0.898373
O O5 0.105295 0.200956 0.879271
O O6 0.786895 0.929917 0.253855
O O7 0.868935 0.940813 0.099142
O O8 0.809807 0.055601 0.093617
O O9 0.783678 0.921402 0.971255
O O10 0.282344 0.831824 0.253571
O O11 0.213748 0.821428 0.044983
O O12 0.566897 0.250000 0.750000
O O13 0.633317 0.174597 0.620024
O O14 0.596582 0.121004 0.861241
#
# Coordination Sequence:
#
# PCOD9507052 Si02
#       7
#    16   8  16  16  16  16  16
#     4  10  20  38  62  89 116 161 209 248 292 368
#     4  10  21  38  62  92 116 162 208 248 298 363
#     4  11  21  38  64  91 117 155 205 261 300 364
#     4  10  21  40  65  85 115 160 210 250 298 369
#     4  12  23  38  62  92 126 163 207 250 306 375
#     4  11  22  39  62  91 117 159 206 250 309 359
#     4  11  22  36  62  92 123 152 212 251 302 355
#
# _framework density 24.167767999999999
#
# number of rings (size 3 to 8) (size 9 to 14) (size 15 to 20)
#    0.000    1.231    4.615    6.231    2.154    0.000 
#    0.000    1.538    6.769    1.846    0.000    0.000 
#    0.000    0.000    0.000    0.000    0.000    0.000 
#
# Total GULP energy -290510.624174 kJ/mol
# GULP energy per Si atom -5586.742773 kJ/mol
# Density = 2.411276 g / cm^3
# Si number density = 24.167768 Si / 1000 Ang^3
#
#
#
# Elastic Constant Matrix: (Units=GPa)
#
#
# Indices 1 2 3 4 5 6 
#
# 1 117.3622 20.7581 54.3048 0.0000 0.0000 0.0000
# 2 20.7581 38.4364 18.2504 0.0000 0.0000 0.0000
# 3 54.3048 18.2504 149.5087 0.0000 0.0000 0.0000
# 4 0.0000 0.0000 0.0000 6.7573 0.0000 0.0000
# 5 0.0000 0.0000 0.0000 0.0000 171.9908 0.0000
# 6 0.0000 0.0000 0.0000 0.0000 0.0000 -635.7773
#
#
#
# Elastic Compliance Matrix: (Units=1/GPa)
#
#
# Indices 1 2 3 4 5 6 
#
# 1 0.010855 -0.004236 -0.003426 0.000000 0.000000 0.000000
# 2 -0.004236 0.029271 -0.002035 0.000000 0.000000 0.000000
# 3 -0.003426 -0.002035 0.008181 0.000000 0.000000 0.000000
# 4 0.000000 0.000000 0.000000 0.147988 0.000000 0.000000
# 5 0.000000 0.000000 0.000000 0.000000 0.005814 0.000000
# 6 0.000000 0.000000 0.000000 0.000000 0.000000 -0.001573
#
#
# Mechanical properties :
#
#
# Convention : Reuss Voigt Hill
#
# Bulk Modulus (GPa) = 34.58436 54.65933 44.62184
# Shear Modulus (GPa) = 21.78018 -77.27291 -27.74637
#
# Velocity S-wave (km/s) = 3.00527 -5.66065 -3.39200
# Velocity P-wave (km/s) = 5.13647 4.47864 1.77836
#
# Compressibility (1/GPa) = 0.02891480
#
# Stress axis : x y z
#
# Youngs Moduli (GPa) = 92.12405 34.16396 122.23126
#
# Poissons Ratio (x) = 0.14471 0.41873
# Poissons Ratio (y) = 0.39022 0.24868
# Poissons Ratio (z) = 0.31559 0.06951
#
# Static dielectric constant tensor:
#      x y z
#    x 1.947730 0.000000 0.000000 
#    y 0.000000 1.872590 0.000000 
#    z 0.000000 0.000000 2.193430 
# 
# From -- ./inp_files/8988.got.cif
#   From: 2010.05.17/outbox.cif.g08.bks.cpg/sg68_5_cif.got.tgz:8988.got - 2010.06.03 18:57:09.
