data_PCOD9507662
_publ_section_title
;
Structure prediction by ZEFSAII (Michael W. Deem and Ramdas Pophale) SiO2 
 PCOD9507662
Probable space group: C C C A
;
_chemical_formula_sum "Si O2"
_cell_formula_units_Z 96
_cell_length_a 10.050169
_cell_length_b 9.843484
_cell_length_c 31.736993
_cell_angle_alpha 90.000000
_cell_angle_beta 90.000000
_cell_angle_gamma 90.000000
_cell_volume 3139.698753
_symmetry_space_group_name_H-M "C C C A"
_symmetry_group_IT_number 68
_space_group.IT_coordinate_system_code '2'
_symmetry_cell_setting 'orthorhombic'
loop_
_space_group_symop_operation_xyz
x,y,z
-x,1/2-y,z
x,1/2-y,1/2-z
-x,y,1/2-z
-x,-y,-z
x,1/2+y,-z
-x,1/2+y,1/2+z
x,-y,1/2+z
1/2+x,1/2+y,z
1/2-x,-y,z
1/2+x,-y,1/2-z
1/2-x,1/2+y,1/2-z
1/2-x,1/2-y,-z
1/2+x,y,-z
1/2-x,y,1/2+z
1/2+x,1/2-y,1/2+z
loop_
_atom_site_type_symbol
_atom_site_label
_atom_site_fract_x
_atom_site_fract_y
_atom_site_fract_z
Si Si1 0.254393 0.250000 0.750000
Si Si2 0.366117 0.389539 0.684308
Si Si3 0.345401 0.625361 0.091707
Si Si4 0.122628 0.652628 0.498212
Si Si5 0.628721 0.149415 0.409123
Si Si6 0.000000 0.494203 0.250000
Si Si7 0.610673 0.866138 0.814859
O O1 0.256963 0.240080 0.693834
O O2 0.130217 0.377457 0.760231
O O3 0.250000 0.500000 0.681859
O O4 0.415048 0.360174 0.636878
O O5 0.377808 0.369500 0.738178
O O6 0.250000 0.500000 0.098928
O O7 0.396424 0.592260 0.044724
O O8 0.259651 0.759926 0.087837
O O9 0.250000 0.750000 0.500000
O O10 0.125698 0.571869 0.453939
O O11 0.000000 0.750000 0.493115
O O12 0.500000 0.250000 0.407755
O O13 0.636765 0.086390 0.362875
O O14 0.006169 0.493945 0.302745
O O15 0.500000 0.750000 0.818274
#
# Coordination Sequence:
#
# PCOD9507662 Si02
#       7
#     8  16  16  16  16   8  16
#     4  12  19  37  58  82 118 162 190 254 300 362
#     4  11  23  38  58  87 122 156 209 246 303 372
#     4  10  21  37  61  88 120 158 198 253 317 379
#     4   9  19  41  64  88 120 160 205 257 313 381
#     4   9  19  34  61  88 110 148 204 252 298 365
#     4  12  23  37  56  84 120 156 198 260 294 356
#     4  11  18  32  60  85 107 150 206 248 297 338
#
# _framework density 30.576180000000001
#
# number of rings (size 3 to 8) (size 9 to 14) (size 15 to 20)
#    0.000    1.667    5.000    0.000    7.000    0.333 
#    3.000    7.500    3.667    0.000    0.000    0.000 
#    0.000    0.000    0.000    0.000    0.000    0.000 
#
# Total GULP energy -267590.089612 kJ/mol
# GULP energy per Si atom -5574.793534 kJ/mol
# Density = 3.050659 g / cm^3
# Si number density = 30.576180 Si / 1000 Ang^3
#
#
#
# Elastic Constant Matrix: (Units=GPa)
#
#
# Indices 1 2 3 4 5 6 
#
# 1 183.6029 73.8040 99.2284 0.0000 0.0000 0.0000
# 2 73.8040 142.1186 102.8087 0.0000 0.0000 0.0000
# 3 99.2284 102.8087 487.4310 0.0000 0.0000 0.0000
# 4 0.0000 0.0000 0.0000 -97.4108 0.0000 0.0000
# 5 0.0000 0.0000 0.0000 0.0000 25.6753 0.0000
# 6 0.0000 0.0000 0.0000 0.0000 0.0000 104.4287
#
#
#
# Elastic Compliance Matrix: (Units=1/GPa)
#
#
# Indices 1 2 3 4 5 6 
#
# 1 0.007133 -0.003132 -0.000792 0.000000 0.000000 0.000000
# 2 -0.003132 0.009678 -0.001404 0.000000 0.000000 0.000000
# 3 -0.000792 -0.001404 0.002509 0.000000 0.000000 0.000000
# 4 0.000000 0.000000 0.000000 -0.010266 0.000000 0.000000
# 5 0.000000 0.000000 0.000000 0.000000 0.038948 0.000000
# 6 0.000000 0.000000 0.000000 0.000000 0.000000 0.009576
#
#
# Mechanical properties :
#
#
# Convention : Reuss Voigt Hill
#
# Bulk Modulus (GPa) = 115.39312 151.64829 133.52070
# Shear Modulus (GPa) = 70.30244 42.35940 56.33092
#
# Velocity S-wave (km/s) = 4.80026 3.72610 4.29687
# Velocity P-wave (km/s) = 8.27918 8.25931 8.26925
#
# Compressibility (1/GPa) = 0.00866603
#
# Stress axis : x y z
#
# Youngs Moduli (GPa) = 140.18864 103.32471 398.59580
#
# Poissons Ratio (x) = 0.32359 0.31553
# Poissons Ratio (y) = 0.43903 0.55954
# Poissons Ratio (z) = 0.11097 0.14505
#
# Static dielectric constant tensor:
#      x y z
#    x 2.742270 0.000000 0.000000 
#    y 0.000000 2.704890 0.000000 
#    z 0.000000 0.000000 2.416950 
# 
# From -- ./inp_files/54765.got.cif
#   From: 2010.05.17/outbox.cif.g08.bks.cpg/sg68_28_cif.got.tgz:54765.got - 2010.06.03 18:57:09.
