data_PCOD9507591
_publ_section_title
;
Structure prediction by ZEFSAII (Michael W. Deem and Ramdas Pophale) SiO2 
 PCOD9507591
Probable space group: C C C A
;
_chemical_formula_sum "Si O2"
_cell_formula_units_Z 96
_cell_length_a 15.348750
_cell_length_b 15.063348
_cell_length_c 19.537861
_cell_angle_alpha 90.000000
_cell_angle_beta 90.000000
_cell_angle_gamma 90.000000
_cell_volume 4517.223069
_symmetry_space_group_name_H-M "C C C A"
_symmetry_group_IT_number 68
_space_group.IT_coordinate_system_code '2'
_symmetry_cell_setting 'orthorhombic'
loop_
_space_group_symop_operation_xyz
x,y,z
-x,1/2-y,z
x,1/2-y,1/2-z
-x,y,1/2-z
-x,-y,-z
x,1/2+y,-z
-x,1/2+y,1/2+z
x,-y,1/2+z
1/2+x,1/2+y,z
1/2-x,-y,z
1/2+x,-y,1/2-z
1/2-x,1/2+y,1/2-z
1/2-x,1/2-y,-z
1/2+x,y,-z
1/2-x,y,1/2+z
1/2+x,1/2-y,1/2+z
loop_
_atom_site_type_symbol
_atom_site_label
_atom_site_fract_x
_atom_site_fract_y
_atom_site_fract_z
Si Si1 0.629494 0.580612 0.010757
Si Si2 0.750000 0.500000 0.741860
Si Si3 0.922349 0.567181 0.793368
Si Si4 0.102389 0.253689 0.945329
Si Si5 0.149978 0.750000 0.750000
Si Si6 0.745834 0.157298 0.864704
Si Si7 0.574466 0.098908 0.546975
O O1 0.684313 0.611637 0.077159
O O2 0.525571 0.590013 0.022798
O O3 0.644280 0.656518 0.953935
O O4 0.635571 0.478840 0.985367
O O5 0.835435 0.510814 0.786296
O O6 0.760880 0.416405 0.692663
O O7 0.904709 0.660805 0.756227
O O8 0.934652 0.586795 0.872497
O O9 0.000000 0.523946 0.750000
O O10 0.163810 0.311008 0.896891
O O11 0.000000 0.250000 0.924840
O O12 0.104668 0.305735 0.018472
O O13 0.203168 0.737550 0.820814
#
# Coordination Sequence:
#
# PCOD9507591 Si02
#       7
#    16   8  16  16   8  16  16
#     4  10  21  36  61  88 116 156 202 252 307 367
#     4  10  24  38  58  90 116 158 208 236 298 390
#     4  11  23  40  62  87 122 161 201 258 311 362
#     4  10  22  37  59  89 119 155 202 253 308 372
#     4  10  23  38  61  90 116 158 213 248 300 388
#     4  11  21  40  59  84 125 161 198 256 311 363
#     4  10  21  38  59  89 120 155 205 255 308 372
#
# _framework density 21.251995000000001
#
# number of rings (size 3 to 8) (size 9 to 14) (size 15 to 20)
#    0.000    1.667    0.000    4.750    0.000    9.333 
#    0.000    0.417    0.000    0.000    0.000    0.000 
#    0.000    0.000    0.000    0.000    0.000    0.000 
#
# Total GULP energy -267949.959769 kJ/mol
# GULP energy per Si atom -5582.290829 kJ/mol
# Density = 2.120362 g / cm^3
# Si number density = 21.251995 Si / 1000 Ang^3
#
#
#
# Elastic Constant Matrix: (Units=GPa)
#
#
# Indices 1 2 3 4 5 6 
#
# 1 69.1029 11.8790 16.5595 0.0000 0.0000 0.0000
# 2 11.8790 54.6071 -16.1205 0.0000 0.0000 0.0000
# 3 16.5595 -16.1205 60.0852 0.0000 0.0000 0.0000
# 4 0.0000 0.0000 0.0000 23.3533 0.0000 0.0000
# 5 0.0000 0.0000 0.0000 0.0000 -4.2017 0.0000
# 6 0.0000 0.0000 0.0000 0.0000 0.0000 24.8681
#
#
#
# Elastic Compliance Matrix: (Units=1/GPa)
#
#
# Indices 1 2 3 4 5 6 
#
# 1 0.016880 -0.005479 -0.006122 0.000000 0.000000 0.000000
# 2 -0.005479 0.021666 0.007323 0.000000 0.000000 0.000000
# 3 -0.006122 0.007323 0.020295 0.000000 0.000000 0.000000
# 4 0.000000 0.000000 0.000000 0.042820 0.000000 0.000000
# 5 0.000000 0.000000 0.000000 0.000000 -0.237998 0.000000
# 6 0.000000 0.000000 0.000000 0.000000 0.000000 0.040212
#
#
# Mechanical properties :
#
#
# Convention : Reuss Voigt Hill
#
# Bulk Modulus (GPa) = 19.88680 23.15902 21.52291
# Shear Modulus (GPa) = -70.61631 20.23575 -25.19028
#
# Velocity S-wave (km/s) = -5.77063 3.08909 -3.44657
# Velocity P-wave (km/s) = 5.91797 4.86254 2.38517
#
# Compressibility (1/GPa) = 0.05028461
#
# Stress axis : x y z
#
# Youngs Moduli (GPa) = 59.24091 46.15432 49.27294
#
# Poissons Ratio (x) = 0.25290 0.30166
# Poissons Ratio (y) = 0.32461 -0.36083
# Poissons Ratio (z) = 0.36269 -0.33799
#
# Static dielectric constant tensor:
#      x y z
#    x 1.814530 0.000000 0.000000 
#    y 0.000000 1.866400 0.000000 
#    z 0.000000 0.000000 1.736160 
# 
# From -- ./inp_files/38618.got.cif
#   From: 2010.05.17/outbox.cif.g08.bks.cpg/sg68_20_cif.got.tgz:38618.got - 2010.06.03 18:57:09.
