data_PCOD9507347
_publ_section_title
;
Structure prediction by ZEFSAII (Michael W. Deem and Ramdas Pophale) SiO2 
 PCOD9507347
Probable space group: C C C A
;
_chemical_formula_sum "Si O2"
_cell_formula_units_Z 112
_cell_length_a 16.510988
_cell_length_b 12.281966
_cell_length_c 28.474198
_cell_angle_alpha 90.000000
_cell_angle_beta 90.000000
_cell_angle_gamma 90.000000
_cell_volume 5774.208387
_symmetry_space_group_name_H-M "C C C A"
_symmetry_group_IT_number 68
_space_group.IT_coordinate_system_code '2'
_symmetry_cell_setting 'orthorhombic'
loop_
_space_group_symop_operation_xyz
x,y,z
-x,1/2-y,z
x,1/2-y,1/2-z
-x,y,1/2-z
-x,-y,-z
x,1/2+y,-z
-x,1/2+y,1/2+z
x,-y,1/2+z
1/2+x,1/2+y,z
1/2-x,-y,z
1/2+x,-y,1/2-z
1/2-x,1/2+y,1/2-z
1/2-x,1/2-y,-z
1/2+x,y,-z
1/2-x,y,1/2+z
1/2+x,1/2-y,1/2+z
loop_
_atom_site_type_symbol
_atom_site_label
_atom_site_fract_x
_atom_site_fract_y
_atom_site_fract_z
Si Si1 0.888259 0.484754 0.055300
Si Si2 0.925681 0.078612 0.047053
Si Si3 0.124180 0.495465 0.146004
Si Si4 0.194542 0.239171 0.045653
Si Si5 0.984085 0.376003 0.694737
Si Si6 0.744302 0.178106 0.643846
Si Si7 0.181753 0.409552 0.852228
O O1 0.824107 0.386228 0.056853
O O2 0.860520 0.569663 0.095976
O O3 0.979705 0.436826 0.059629
O O4 0.895562 0.532156 0.002820
O O5 0.892750 0.201457 0.043703
O O6 0.883850 0.015085 0.089852
O O7 0.188823 0.589377 0.156260
O O8 0.160244 0.377362 0.160454
O O9 0.042675 0.538396 0.169055
O O10 0.238011 0.302318 0.087894
O O11 0.250000 0.250000 0.000000
O O12 0.893418 0.411436 0.682943
O O13 0.000000 0.250000 0.678304
O O14 0.000000 0.377889 0.750000
O O15 0.773238 0.296224 0.658802
O O16 0.250000 0.500000 0.846451
#
# Coordination Sequence:
#
# PCOD9507347 Si02
#       7
#    16  16  16  16  16  16  16
#     4  11  22  36  56  86 127 171 221 268 327 383
#     4  10  22  35  55  87 122 174 219 269 319 389
#     4  10  20  41  62  92 130 167 215 271 323 396
#     4  11  21  35  53  82 127 173 223 270 319 387
#     4  11  24  46  73  99 129 171 222 276 342 411
#     4  10  21  35  62  93 125 170 214 258 337 379
#     4  12  23  42  66 101 133 174 216 279 331 397
#
# _framework density 19.396598000000001
#
# number of rings (size 3 to 8) (size 9 to 14) (size 15 to 20)
#    0.000    1.286    4.286    2.143    0.000    1.143 
#    2.571    2.143    0.000    0.857    0.000    0.000 
#    0.000    0.000    0.000    0.000    0.000    0.000 
#
# Total GULP energy -312037.482849 kJ/mol
# GULP energy per Si atom -5572.097908 kJ/mol
# Density = 1.935245 g / cm^3
# Si number density = 19.396598 Si / 1000 Ang^3
#
#
#
# Elastic Constant Matrix: (Units=GPa)
#
#
# Indices 1 2 3 4 5 6 
#
# 1 117.9413 56.2146 32.0042 0.0000 0.0000 0.0000
# 2 56.2146 114.0296 27.3668 0.0000 0.0000 0.0000
# 3 32.0042 27.3668 54.3639 0.0000 0.0000 0.0000
# 4 0.0000 0.0000 0.0000 13.6072 0.0000 0.0000
# 5 0.0000 0.0000 0.0000 0.0000 17.4514 0.0000
# 6 0.0000 0.0000 0.0000 0.0000 0.0000 36.8788
#
#
#
# Elastic Compliance Matrix: (Units=1/GPa)
#
#
# Indices 1 2 3 4 5 6 
#
# 1 0.012040 -0.004816 -0.004663 0.000000 0.000000 0.000000
# 2 -0.004816 0.011901 -0.003156 0.000000 0.000000 0.000000
# 3 -0.004663 -0.003156 0.022729 0.000000 0.000000 0.000000
# 4 0.000000 0.000000 0.000000 0.073491 0.000000 0.000000
# 5 0.000000 0.000000 0.000000 0.000000 0.057302 0.000000
# 6 0.000000 0.000000 0.000000 0.000000 0.000000 0.027116
#
#
# Mechanical properties :
#
#
# Convention : Reuss Voigt Hill
#
# Bulk Modulus (GPa) = 46.73148 57.50065 52.11606
# Shear Modulus (GPa) = 21.09867 24.97076 23.03471
#
# Velocity S-wave (km/s) = 3.30168 3.59190 3.44984
# Velocity P-wave (km/s) = 6.21930 6.84919 6.54183
#
# Compressibility (1/GPa) = 0.02139885
#
# Stress axis : x y z
#
# Youngs Moduli (GPa) = 83.05795 84.02409 43.99758
#
# Poissons Ratio (x) = 0.40468 0.20518
# Poissons Ratio (y) = 0.40002 0.13885
# Poissons Ratio (z) = 0.38733 0.26517
#
# Static dielectric constant tensor:
#      x y z
#    x 1.702110 0.000000 0.000000 
#    y 0.000000 1.704270 0.000000 
#    z 0.000000 0.000000 1.666030 
# 
# From -- ./inp_files/55290.got.cif
#   From: 2010.05.17/outbox.cif.g08.bks.cpg/sg68_28_cif.got.tgz:55290.got - 2010.06.03 18:57:09.
