data_PCOD9507728
_publ_section_title
;
Structure prediction by ZEFSAII (Michael W. Deem and Ramdas Pophale) SiO2 
 PCOD9507728
Probable space group: C C C A
;
_chemical_formula_sum "Si O2"
_cell_formula_units_Z 80
_cell_length_a 17.506272
_cell_length_b 9.874372
_cell_length_c 25.828059
_cell_angle_alpha 90.000000
_cell_angle_beta 90.000000
_cell_angle_gamma 90.000000
_cell_volume 4464.727180
_symmetry_space_group_name_H-M "C C C A"
_symmetry_group_IT_number 68
_space_group.IT_coordinate_system_code '2'
_symmetry_cell_setting 'orthorhombic'
loop_
_space_group_symop_operation_xyz
x,y,z
-x,1/2-y,z
x,1/2-y,1/2-z
-x,y,1/2-z
-x,-y,-z
x,1/2+y,-z
-x,1/2+y,1/2+z
x,-y,1/2+z
1/2+x,1/2+y,z
1/2-x,-y,z
1/2+x,-y,1/2-z
1/2-x,1/2+y,1/2-z
1/2-x,1/2-y,-z
1/2+x,y,-z
1/2-x,y,1/2+z
1/2+x,1/2-y,1/2+z
loop_
_atom_site_type_symbol
_atom_site_label
_atom_site_fract_x
_atom_site_fract_y
_atom_site_fract_z
Si Si1 0.262024 0.342277 0.699658
Si Si2 0.684298 0.736137 0.603314
Si Si3 0.929847 0.997754 0.426140
Si Si4 0.146367 0.244383 0.394505
Si Si5 0.398315 0.475689 0.047335
O O1 0.267088 0.250000 0.750000
O O2 0.250000 0.500000 0.711495
O O3 0.193790 0.290824 0.661943
O O4 0.335137 0.318652 0.661900
O O5 0.624492 0.616876 0.596919
O O6 0.771024 0.693220 0.589504
O O7 0.658549 0.861486 0.567918
O O8 0.915972 0.138418 0.396387
O O9 0.017569 0.952103 0.428605
O O10 0.906041 0.025235 0.485678
O O11 0.127153 0.122973 0.433102
#
# Coordination Sequence:
#
# PCOD9507728 Si02
#       5
#    16  16  16  16  16
#     4  10  22  40  65  87 112 146 193 251 309 344
#     4  10  21  38  57  89 113 151 198 247 278 337
#     4  11  23  33  59  86 122 166 191 221 289 347
#     4  10  21  38  57  89 113 151 198 247 278 337
#     4  11  21  39  53  84 128 164 189 227 283 347
#
# _framework density 17.918227999999999
#
# number of rings (size 3 to 8) (size 9 to 14) (size 15 to 20)
#    1.200    0.400    2.000    3.600    2.800    8.000 
#    0.000    0.000    0.000    7.200    0.000    0.000 
#    0.000    0.000    0.000    0.000    0.000    0.000 
#
# Total GULP energy -223016.425016 kJ/mol
# GULP energy per Si atom -5575.410625 kJ/mol
# Density = 1.787744 g / cm^3
# Si number density = 17.918228 Si / 1000 Ang^3
#
#
#
# Elastic Constant Matrix: (Units=GPa)
#
#
# Indices 1 2 3 4 5 6 
#
# 1 41.5301 -9.8772 9.6592 0.0000 0.0000 0.0000
# 2 -9.8772 66.1259 5.1732 0.0000 0.0000 0.0000
# 3 9.6592 5.1732 54.3155 0.0000 0.0000 0.0000
# 4 0.0000 0.0000 0.0000 34.2136 0.0000 0.0000
# 5 0.0000 0.0000 0.0000 0.0000 1.0264 0.0000
# 6 0.0000 0.0000 0.0000 0.0000 0.0000 26.7188
#
#
#
# Elastic Compliance Matrix: (Units=1/GPa)
#
#
# Indices 1 2 3 4 5 6 
#
# 1 0.026291 0.004325 -0.005087 0.000000 0.000000 0.000000
# 2 0.004325 0.015948 -0.002288 0.000000 0.000000 0.000000
# 3 -0.005087 -0.002288 0.019534 0.000000 0.000000 0.000000
# 4 0.000000 0.000000 0.000000 0.029228 0.000000 0.000000
# 5 0.000000 0.000000 0.000000 0.000000 0.974269 0.000000
# 6 0.000000 0.000000 0.000000 0.000000 0.000000 0.037427
#
#
# Mechanical properties :
#
#
# Convention : Reuss Voigt Hill
#
# Bulk Modulus (GPa) = 17.96257 19.09798 18.53028
# Shear Modulus (GPa) = 4.43516 22.85950 13.64733
#
# Velocity S-wave (km/s) = 1.57499 3.57566 2.76279
# Velocity P-wave (km/s) = 3.65431 5.26581 4.53226
#
# Compressibility (1/GPa) = 0.05567133
#
# Stress axis : x y z
#
# Youngs Moduli (GPa) = 38.03615 62.70491 51.19388
#
# Poissons Ratio (x) = -0.27120 0.26044
# Poissons Ratio (y) = -0.16451 0.11713
# Poissons Ratio (z) = 0.19350 0.14347
#
# Static dielectric constant tensor:
#      x y z
#    x 1.619460 0.000000 0.000000 
#    y 0.000000 1.598780 0.000000 
#    z 0.000000 0.000000 1.588730 
# 
# From -- ./inp_files/49094.got.cif
#   From: 2010.05.17/outbox.cif.g08.bks.cpg/sg68_25_cif.got.tgz:49094.got - 2010.06.03 18:57:09.
