data_PCOD9507693
_publ_section_title
;
Structure prediction by ZEFSAII (Michael W. Deem and Ramdas Pophale) SiO2 
 PCOD9507693
Probable space group: C C C A
;
_chemical_formula_sum "Si O2"
_cell_formula_units_Z 116
_cell_length_a 15.774050
_cell_length_b 16.670933
_cell_length_c 24.283524
_cell_angle_alpha 90.000000
_cell_angle_beta 90.000000
_cell_angle_gamma 90.000000
_cell_volume 6385.792913
_symmetry_space_group_name_H-M "C C C A"
_symmetry_group_IT_number 68
_space_group.IT_coordinate_system_code '2'
_symmetry_cell_setting 'orthorhombic'
loop_
_space_group_symop_operation_xyz
x,y,z
-x,1/2-y,z
x,1/2-y,1/2-z
-x,y,1/2-z
-x,-y,-z
x,1/2+y,-z
-x,1/2+y,1/2+z
x,-y,1/2+z
1/2+x,1/2+y,z
1/2-x,-y,z
1/2+x,-y,1/2-z
1/2-x,1/2+y,1/2-z
1/2-x,1/2-y,-z
1/2+x,y,-z
1/2-x,y,1/2+z
1/2+x,1/2-y,1/2+z
loop_
_atom_site_type_symbol
_atom_site_label
_atom_site_fract_x
_atom_site_fract_y
_atom_site_fract_z
Si Si1 0.721153 0.821296 0.669113
Si Si2 0.500000 0.250000 0.250000
Si Si3 0.928031 0.302075 0.919093
Si Si4 0.162583 0.843129 0.212826
Si Si5 0.009139 0.979800 0.435935
Si Si6 0.674969 0.811471 0.987032
Si Si7 0.670439 0.556431 0.606942
Si Si8 0.177021 0.069951 0.408539
O O1 0.650713 0.817636 0.621042
O O2 0.689979 0.864234 0.725065
O O3 0.723764 0.728380 0.689395
O O4 0.797602 0.870711 0.641604
O O5 0.567673 0.306284 0.218097
O O6 0.965405 0.387039 0.934081
O O7 0.901106 0.248896 0.971682
O O8 0.000000 0.250000 0.889884
O O9 0.165357 0.913586 0.169365
O O10 0.917095 0.986950 0.408766
O O11 0.085104 0.028096 0.406739
O O12 0.000000 0.000000 0.500000
O O13 0.682117 0.866142 0.932508
O O14 0.750000 0.750000 0.000000
O O15 0.672091 0.873877 0.037191
O O16 0.750000 0.500000 0.597740
O O17 0.250000 0.000000 0.413115
#
# Coordination Sequence:
#
# PCOD9507693 Si02
#       8
#    16   4  16  16  16  16  16  16
#     4  10  21  37  65  89 124 158 209 259 312 372
#     4   8  20  32  72  92 124 142 216 286 316 358
#     4  12  21  37  63  91 122 159 205 260 309 378
#     4  10  22  38  62  97 121 164 212 272 323 368
#     4  12  25  40  61  94 130 167 209 259 324 390
#     4  12  22  36  63  87 119 164 206 248 320 380
#     4  12  26  42  59  85 134 167 204 266 330 379
#     4  12  22  39  61  95 132 169 202 257 322 391
#
# _framework density 18.165324999999999
#
# number of rings (size 3 to 8) (size 9 to 14) (size 15 to 20)
#    0.000    0.828    6.897    0.414    9.655    0.552 
#    0.000    0.000    0.000    0.000    0.000    3.862 
#    0.000    0.000    0.000    0.000    0.000    0.000 
#
# Total GULP energy -323452.567427 kJ/mol
# GULP energy per Si atom -5576.768404 kJ/mol
# Density = 1.812398 g / cm^3
# Si number density = 18.165325 Si / 1000 Ang^3
#
#
#
# Elastic Constant Matrix: (Units=GPa)
#
#
# Indices 1 2 3 4 5 6 
#
# 1 135.8938 60.6057 36.6201 0.0000 0.0000 0.0000
# 2 60.6057 86.2327 27.1039 0.0000 0.0000 0.0000
# 3 36.6201 27.1039 97.5318 0.0000 0.0000 0.0000
# 4 0.0000 0.0000 0.0000 7.4287 0.0000 0.0000
# 5 0.0000 0.0000 0.0000 0.0000 22.3861 0.0000
# 6 0.0000 0.0000 0.0000 0.0000 0.0000 32.6512
#
#
#
# Elastic Compliance Matrix: (Units=1/GPa)
#
#
# Indices 1 2 3 4 5 6 
#
# 1 0.011132 -0.007133 -0.002197 0.000000 0.000000 0.000000
# 2 -0.007133 0.017277 -0.002123 0.000000 0.000000 0.000000
# 3 -0.002197 -0.002123 0.011668 0.000000 0.000000 0.000000
# 4 0.000000 0.000000 0.000000 0.134612 0.000000 0.000000
# 5 0.000000 0.000000 0.000000 0.000000 0.044670 0.000000
# 6 0.000000 0.000000 0.000000 0.000000 0.000000 0.030627
#
#
# Mechanical properties :
#
#
# Convention : Reuss Voigt Hill
#
# Bulk Modulus (GPa) = 58.24076 63.14641 60.69358
# Shear Modulus (GPa) = 17.94575 25.51512 21.73044
#
# Velocity S-wave (km/s) = 3.14652 3.75187 3.46245
# Velocity P-wave (km/s) = 6.73289 7.32163 7.03342
#
# Compressibility (1/GPa) = 0.01717011
#
# Stress axis : x y z
#
# Youngs Moduli (GPa) = 89.83067 57.88023 85.70354
#
# Poissons Ratio (x) = 0.41286 0.18833
# Poissons Ratio (y) = 0.64077 0.18195
# Poissons Ratio (z) = 0.19740 0.12288
#
# Static dielectric constant tensor:
#      x y z
#    x 1.667410 0.000000 0.000000 
#    y 0.000000 1.634120 0.000000 
#    z 0.000000 0.000000 1.654470 
# 
# From -- ./inp_files/45677.got.cif
#   From: 2010.05.17/outbox.cif.g08.bks.cpg/sg68_23_cif.got.tgz:45677.got - 2010.06.03 18:57:09.
