data_PCOD9507968
_publ_section_title
;
Structure prediction by ZEFSAII (Michael W. Deem and Ramdas Pophale) SiO2 
 PCOD9507968
Probable space group: C C C A
;
_chemical_formula_sum "Si O2"
_cell_formula_units_Z 72
_cell_length_a 13.415490
_cell_length_b 9.312292
_cell_length_c 28.073017
_cell_angle_alpha 90.000000
_cell_angle_beta 90.000000
_cell_angle_gamma 90.000000
_cell_volume 3507.132824
_symmetry_space_group_name_H-M "C C C A"
_symmetry_group_IT_number 68
_space_group.IT_coordinate_system_code '2'
_symmetry_cell_setting 'orthorhombic'
loop_
_space_group_symop_operation_xyz
x,y,z
-x,1/2-y,z
x,1/2-y,1/2-z
-x,y,1/2-z
-x,-y,-z
x,1/2+y,-z
-x,1/2+y,1/2+z
x,-y,1/2+z
1/2+x,1/2+y,z
1/2-x,-y,z
1/2+x,-y,1/2-z
1/2-x,1/2+y,1/2-z
1/2-x,1/2-y,-z
1/2+x,y,-z
1/2-x,y,1/2+z
1/2+x,1/2-y,1/2+z
loop_
_atom_site_type_symbol
_atom_site_label
_atom_site_fract_x
_atom_site_fract_y
_atom_site_fract_z
Si Si1 0.343979 0.297412 0.645216
Si Si2 0.043617 0.094927 0.958337
Si Si3 0.477106 0.520577 0.355312
Si Si4 0.681651 0.859728 0.790871
Si Si5 0.750000 0.000000 0.066709
O O1 0.423190 0.410016 0.668164
O O2 0.407136 0.156432 0.632093
O O3 0.255273 0.239295 0.677547
O O4 0.299310 0.379429 0.600274
O O5 0.162274 0.077204 0.961370
O O6 0.000000 0.250000 0.966328
O O7 0.010393 0.050694 0.904778
O O8 0.000000 0.000000 0.000000
O O9 0.411478 0.419379 0.321412
O O10 0.648448 0.750000 0.750000
O O11 0.750000 0.000000 0.776521
#
# Coordination Sequence:
#
# PCOD9507968 Si02
#       5
#    16  16  16  16   8
#     4   9  19  38  69  90 128 174 211 269 337 394
#     4  11  25  42  65  99 132 168 228 275 331 409
#     4   9  20  42  66  92 129 174 218 271 339 394
#     4  10  21  39  67  96 127 172 220 273 332 407
#     4  10  22  40  68  92 130 176 210 278 342 382
#
# _framework density 20.529592000000001
#
# number of rings (size 3 to 8) (size 9 to 14) (size 15 to 20)
#    0.000    2.222    0.000    1.333    7.778    0.889 
#    6.000    8.889   19.556    0.000    0.000    0.000 
#    0.000    0.000    0.000    0.000    0.000    0.000 
#
# Total GULP energy -200961.687397 kJ/mol
# GULP energy per Si atom -5582.269094 kJ/mol
# Density = 2.048287 g / cm^3
# Si number density = 20.529592 Si / 1000 Ang^3
#
#
#
# Elastic Constant Matrix: (Units=GPa)
#
#
# Indices 1 2 3 4 5 6 
#
# 1 164.8220 77.5611 44.6613 0.0000 0.0000 0.0000
# 2 77.5611 143.4678 62.0858 0.0000 0.0000 0.0000
# 3 44.6613 62.0858 43.8195 0.0000 0.0000 0.0000
# 4 0.0000 0.0000 0.0000 38.5939 0.0000 0.0000
# 5 0.0000 0.0000 0.0000 0.0000 32.1207 0.0000
# 6 0.0000 0.0000 0.0000 0.0000 0.0000 18.0724
#
#
#
# Elastic Compliance Matrix: (Units=1/GPa)
#
#
# Indices 1 2 3 4 5 6 
#
# 1 0.008648 -0.002226 -0.005661 0.000000 0.000000 0.000000
# 2 -0.002226 0.018590 -0.024071 0.000000 0.000000 0.000000
# 3 -0.005661 -0.024071 0.062696 0.000000 0.000000 0.000000
# 4 0.000000 0.000000 0.000000 0.025911 0.000000 0.000000
# 5 0.000000 0.000000 0.000000 0.000000 0.031133 0.000000
# 6 0.000000 0.000000 0.000000 0.000000 0.000000 0.055333
#
#
# Mechanical properties :
#
#
# Convention : Reuss Voigt Hill
#
# Bulk Modulus (GPa) = 38.43379 80.08064 59.25721
# Shear Modulus (GPa) = 18.18836 28.94413 23.56624
#
# Velocity S-wave (km/s) = 2.97973 3.75890 3.39177
# Velocity P-wave (km/s) = 5.53175 7.61126 6.65325
#
# Compressibility (1/GPa) = 0.02601877
#
# Stress axis : x y z
#
# Youngs Moduli (GPa) = 115.62721 53.79151 15.94986
#
# Poissons Ratio (x) = 0.11972 0.09030
# Poissons Ratio (y) = 0.25734 0.38393
# Poissons Ratio (z) = 0.65460 1.29483
#
# Static dielectric constant tensor:
#      x y z
#    x 1.769380 0.000000 0.000000 
#    y 0.000000 1.721190 0.000000 
#    z 0.000000 0.000000 1.786800 
# 
# From -- ./inp_files/50743.got.cif
#   From: 2010.05.17/outbox.cif.g08.bks.cpg/sg68_26_cif.got.tgz:50743.got - 2010.06.03 18:57:09.
