data_PCOD9507217
_publ_section_title
;
Structure prediction by ZEFSAII (Michael W. Deem and Ramdas Pophale) SiO2 
 PCOD9507217
Probable space group: C C C A
;
_chemical_formula_sum "Si O2"
_cell_formula_units_Z 64
_cell_length_a 14.572807
_cell_length_b 17.747149
_cell_length_c 12.056056
_cell_angle_alpha 90.000000
_cell_angle_beta 90.000000
_cell_angle_gamma 90.000000
_cell_volume 3118.006853
_symmetry_space_group_name_H-M "C C C A"
_symmetry_group_IT_number 68
_space_group.IT_coordinate_system_code '2'
_symmetry_cell_setting 'orthorhombic'
loop_
_space_group_symop_operation_xyz
x,y,z
-x,1/2-y,z
x,1/2-y,1/2-z
-x,y,1/2-z
-x,-y,-z
x,1/2+y,-z
-x,1/2+y,1/2+z
x,-y,1/2+z
1/2+x,1/2+y,z
1/2-x,-y,z
1/2+x,-y,1/2-z
1/2-x,1/2+y,1/2-z
1/2-x,1/2-y,-z
1/2+x,y,-z
1/2-x,y,1/2+z
1/2+x,1/2-y,1/2+z
loop_
_atom_site_type_symbol
_atom_site_label
_atom_site_fract_x
_atom_site_fract_y
_atom_site_fract_z
Si Si1 0.102791 0.339552 0.039541
Si Si2 0.220822 0.414493 0.221541
Si Si3 0.901145 0.806566 0.858544
Si Si4 0.098424 0.661792 0.279918
O O1 0.160288 0.397954 0.112576
O O2 0.138969 0.253595 0.055458
O O3 0.998000 0.334976 0.089632
O O4 0.108288 0.353981 0.910161
O O5 0.250000 0.500000 0.239883
O O6 0.161572 0.375353 0.319944
O O7 0.316266 0.370712 0.214199
O O8 0.907197 0.750000 0.750000
O O9 0.095797 0.750000 0.250000
O O10 0.000000 0.628017 0.250000
#
# Coordination Sequence:
#
# PCOD9507217 Si02
#       4
#    16  16  16  16
#     4  10  20  39  67  88 113 158 203 254 311 352
#     4  11  24  39  57  88 125 162 202 241 291 364
#     4   9  17  36  65  89 109 150 212 258 295 355
#     4  11  24  40  61  92 123 151 198 259 306 354
#
# _framework density 20.525932000000001
#
# number of rings (size 3 to 8) (size 9 to 14) (size 15 to 20)
#    0.000    1.750    0.000   10.500    0.000    9.000 
#    0.000    2.500    0.000    0.000    0.000    0.000 
#    0.000    0.000    0.000    0.000    0.000    0.000 
#
# Total GULP energy -178406.078641 kJ/mol
# GULP energy per Si atom -5575.189958 kJ/mol
# Density = 2.047921 g / cm^3
# Si number density = 20.525932 Si / 1000 Ang^3
#
#
#
# Elastic Constant Matrix: (Units=GPa)
#
#
# Indices 1 2 3 4 5 6 
#
# 1 101.4288 43.0418 10.8006 0.0000 0.0000 0.0000
# 2 43.0418 105.7390 1.8020 0.0000 0.0000 0.0000
# 3 10.8006 1.8020 45.6433 0.0000 0.0000 0.0000
# 4 0.0000 0.0000 0.0000 11.3821 0.0000 0.0000
# 5 0.0000 0.0000 0.0000 0.0000 21.3145 0.0000
# 6 0.0000 0.0000 0.0000 0.0000 0.0000 -161.9633
#
#
#
# Elastic Compliance Matrix: (Units=1/GPa)
#
#
# Indices 1 2 3 4 5 6 
#
# 1 0.012242 -0.004937 -0.002702 0.000000 0.000000 0.000000
# 2 -0.004937 0.011455 0.000716 0.000000 0.000000 0.000000
# 3 -0.002702 0.000716 0.022520 0.000000 0.000000 0.000000
# 4 0.000000 0.000000 0.000000 0.087857 0.000000 0.000000
# 5 0.000000 0.000000 0.000000 0.000000 0.046916 0.000000
# 6 0.000000 0.000000 0.000000 0.000000 0.000000 -0.006174
#
#
# Mechanical properties :
#
#
# Convention : Reuss Voigt Hill
#
# Bulk Modulus (GPa) = 30.89200 40.45553 35.67377
# Shear Modulus (GPa) = 25.06862 -12.70889 6.17986
#
# Velocity S-wave (km/s) = 3.49852 -2.49100 1.73704
# Velocity P-wave (km/s) = 5.60379 3.38804 4.63040
#
# Compressibility (1/GPa) = 0.03237084
#
# Stress axis : x y z
#
# Youngs Moduli (GPa) = 81.68647 87.30013 44.40475
#
# Poissons Ratio (x) = 0.43101 0.11998
# Poissons Ratio (y) = 0.40330 -0.03180
# Poissons Ratio (z) = 0.22071 -0.06251
#
# Static dielectric constant tensor:
#      x y z
#    x 1.782590 0.000000 0.000000 
#    y 0.000000 1.716510 0.000000 
#    z 0.000000 0.000000 1.785650 
# 
# From -- ./inp_files/12819.got.cif
#   From: 2010.05.17/outbox.cif.g08.bks.cpg/sg68_7_cif.got.tgz:12819.got - 2010.06.03 18:57:09.
