data_PCOD9507822
_publ_section_title
;
Structure prediction by ZEFSAII (Michael W. Deem and Ramdas Pophale) SiO2 
 PCOD9507822
Probable space group: C C C A
;
_chemical_formula_sum "Si O2"
_cell_formula_units_Z 64
_cell_length_a 12.590491
_cell_length_b 15.434215
_cell_length_c 12.856443
_cell_angle_alpha 90.000000
_cell_angle_beta 90.000000
_cell_angle_gamma 90.000000
_cell_volume 2498.319866
_symmetry_space_group_name_H-M "C C C A"
_symmetry_group_IT_number 68
_space_group.IT_coordinate_system_code '2'
_symmetry_cell_setting 'orthorhombic'
loop_
_space_group_symop_operation_xyz
x,y,z
-x,1/2-y,z
x,1/2-y,1/2-z
-x,y,1/2-z
-x,-y,-z
x,1/2+y,-z
-x,1/2+y,1/2+z
x,-y,1/2+z
1/2+x,1/2+y,z
1/2-x,-y,z
1/2+x,-y,1/2-z
1/2-x,1/2+y,1/2-z
1/2-x,1/2-y,-z
1/2+x,y,-z
1/2-x,y,1/2+z
1/2+x,1/2-y,1/2+z
loop_
_atom_site_type_symbol
_atom_site_label
_atom_site_fract_x
_atom_site_fract_y
_atom_site_fract_z
Si Si1 0.123645 0.927228 0.563419
Si Si2 0.858931 0.888703 0.497394
Si Si3 0.394499 0.793193 0.895685
Si Si4 0.181937 0.653522 0.718953
O O1 0.235450 0.916317 0.505329
O O2 0.063847 0.856065 0.490259
O O3 0.152679 0.902977 0.681316
O O4 0.090010 0.027450 0.558267
O O5 0.847355 0.793453 0.447836
O O6 0.882829 0.880834 0.619797
O O7 0.500000 0.750000 0.849685
O O8 0.307162 0.835196 0.817215
O O9 0.148470 0.750000 0.750000
#
# Coordination Sequence:
#
# PCOD9507822 Si02
#       4
#    16  16  16  16
#     4  10  21  39  65  94 127 174 226 264 320 398
#     4  10  21  38  65  95 126 172 223 275 317 388
#     4  11  23  40  63  99 139 165 206 284 343 386
#     4  11  19  41  70  92 122 174 234 260 318 404
#
# _framework density 25.617214000000001
#
# number of rings (size 3 to 8) (size 9 to 14) (size 15 to 20)
#    0.000    1.500    5.000    1.500    0.000    9.500 
#    0.000    2.500    0.000    0.000    0.000    0.000 
#    0.000    0.000    0.000    0.000    0.000    0.000 
#
# Total GULP energy -178335.802907 kJ/mol
# GULP energy per Si atom -5572.993841 kJ/mol
# Density = 2.555891 g / cm^3
# Si number density = 25.617214 Si / 1000 Ang^3
#
#
#
# Elastic Constant Matrix: (Units=GPa)
#
#
# Indices 1 2 3 4 5 6 
#
# 1 52.8740 44.0757 37.4160 0.0000 0.0000 0.0000
# 2 44.0757 185.0857 104.0671 0.0000 0.0000 0.0000
# 3 37.4160 104.0671 229.6461 0.0000 0.0000 0.0000
# 4 0.0000 0.0000 0.0000 50.6172 0.0000 0.0000
# 5 0.0000 0.0000 0.0000 0.0000 21.4797 0.0000
# 6 0.0000 0.0000 0.0000 0.0000 0.0000 42.9128
#
#
#
# Elastic Compliance Matrix: (Units=1/GPa)
#
#
# Indices 1 2 3 4 5 6 
#
# 1 0.024128 -0.004744 -0.001781 0.000000 0.000000 0.000000
# 2 -0.004744 0.008183 -0.002935 0.000000 0.000000 0.000000
# 3 -0.001781 -0.002935 0.005975 0.000000 0.000000 0.000000
# 4 0.000000 0.000000 0.000000 0.019756 0.000000 0.000000
# 5 0.000000 0.000000 0.000000 0.000000 0.046556 0.000000
# 6 0.000000 0.000000 0.000000 0.000000 0.000000 0.023303
#
#
# Mechanical properties :
#
#
# Convention : Reuss Voigt Hill
#
# Bulk Modulus (GPa) = 51.64071 93.19149 72.41610
# Shear Modulus (GPa) = 32.62058 41.80508 37.21283
#
# Velocity S-wave (km/s) = 3.57232 4.04408 3.81550
# Velocity P-wave (km/s) = 6.10063 7.63305 6.90946
#
# Compressibility (1/GPa) = 0.01936457
#
# Stress axis : x y z
#
# Youngs Moduli (GPa) = 41.44527 122.20303 167.36644
#
# Poissons Ratio (x) = 0.57976 0.29812
# Poissons Ratio (y) = 0.19663 0.49127
# Poissons Ratio (z) = 0.07382 0.35870
#
# Static dielectric constant tensor:
#      x y z
#    x 2.302600 0.000000 0.000000 
#    y 0.000000 2.191520 0.000000 
#    z 0.000000 0.000000 2.061440 
# 
# From -- ./inp_files/21793.got.cif
#   From: 2010.05.17/outbox.cif.g08.bks.cpg/sg68_11_cif.got.tgz:21793.got - 2010.06.03 18:57:09.
