data_PCOD9507949
_publ_section_title
;
Structure prediction by ZEFSAII (Michael W. Deem and Ramdas Pophale) SiO2 
 PCOD9507949
Probable space group: C C C A
;
_chemical_formula_sum "Si O2"
_cell_formula_units_Z 88
_cell_length_a 31.571258
_cell_length_b 23.406147
_cell_length_c 5.305872
_cell_angle_alpha 90.000000
_cell_angle_beta 90.000000
_cell_angle_gamma 90.000000
_cell_volume 3920.835162
_symmetry_space_group_name_H-M "C C C A"
_symmetry_group_IT_number 68
_space_group.IT_coordinate_system_code '2'
_symmetry_cell_setting 'orthorhombic'
loop_
_space_group_symop_operation_xyz
x,y,z
-x,1/2-y,z
x,1/2-y,1/2-z
-x,y,1/2-z
-x,-y,-z
x,1/2+y,-z
-x,1/2+y,1/2+z
x,-y,1/2+z
1/2+x,1/2+y,z
1/2-x,-y,z
1/2+x,-y,1/2-z
1/2-x,1/2+y,1/2-z
1/2-x,1/2-y,-z
1/2+x,y,-z
1/2-x,y,1/2+z
1/2+x,1/2-y,1/2+z
loop_
_atom_site_type_symbol
_atom_site_label
_atom_site_fract_x
_atom_site_fract_y
_atom_site_fract_z
Si Si1 0.136503 0.681736 0.268289
Si Si2 0.202319 0.020729 0.417827
Si Si3 0.500000 0.873762 0.250000
Si Si4 0.456735 0.315017 0.153963
Si Si5 0.076474 0.039470 0.327752
Si Si6 0.341789 0.878467 0.238484
O O1 0.136474 0.750000 0.250000
O O2 0.087542 0.661175 0.243964
O O3 0.154619 0.666503 0.537958
O O4 0.158365 0.651014 0.032084
O O5 0.198743 0.082425 0.294418
O O6 0.182314 0.018800 0.697156
O O7 0.250000 0.000000 0.461907
O O8 0.534331 0.827171 0.363752
O O9 0.464650 0.919619 0.343173
O O10 0.457533 0.250000 0.250000
O O11 0.500000 0.344776 0.250000
O O12 0.118138 0.079063 0.284270
O O13 0.076167 0.001674 0.581849
#
# Coordination Sequence:
#
# PCOD9507949 Si02
#       6
#    16  16   8  16  16  16
#     4  11  24  42  64  96 129 174 225 278 338 401
#     4  10  21  39  66 104 137 166 212 259 324 396
#     4  12  24  41  62  84 124 176 223 278 356 380
#     4  10  23  40  61  85 120 165 234 290 340 383
#     4  12  26  41  61  87 123 170 223 270 326 403
#     4  12  22  42  67  94 134 173 215 277 334 388
#
# _framework density 22.444199000000001
#
# number of rings (size 3 to 8) (size 9 to 14) (size 15 to 20)
#    0.000    0.909    1.818    5.455    2.545    1.455 
#    3.273    0.000    0.000    0.000    0.000   50.909 
#    0.000    0.000    0.000    0.000    0.000    0.000 
#
# Total GULP energy -245262.428553 kJ/mol
# GULP energy per Si atom -5574.146103 kJ/mol
# Density = 2.239312 g / cm^3
# Si number density = 22.444199 Si / 1000 Ang^3
#
#
#
# Elastic Constant Matrix: (Units=GPa)
#
#
# Indices 1 2 3 4 5 6 
#
# 1 56.0176 20.9419 -14.0354 0.0000 0.0000 0.0000
# 2 20.9419 103.4217 32.9483 0.0000 0.0000 0.0000
# 3 -14.0354 32.9483 92.4762 0.0000 0.0000 0.0000
# 4 0.0000 0.0000 0.0000 52.4112 0.0000 0.0000
# 5 0.0000 0.0000 0.0000 0.0000 19.9242 0.0000
# 6 0.0000 0.0000 0.0000 0.0000 0.0000 30.1523
#
#
#
# Elastic Compliance Matrix: (Units=1/GPa)
#
#
# Indices 1 2 3 4 5 6 
#
# 1 0.021484 -0.006079 0.005427 0.000000 0.000000 0.000000
# 2 -0.006079 0.012627 -0.005422 0.000000 0.000000 0.000000
# 3 0.005427 -0.005422 0.013569 0.000000 0.000000 0.000000
# 4 0.000000 0.000000 0.000000 0.019080 0.000000 0.000000
# 5 0.000000 0.000000 0.000000 0.000000 0.050190 0.000000
# 6 0.000000 0.000000 0.000000 0.000000 0.000000 0.033165
#
#
# Mechanical properties :
#
#
# Convention : Reuss Voigt Hill
#
# Bulk Modulus (GPa) = 28.14384 36.84722 32.49553
# Shear Modulus (GPa) = 28.71795 34.63494 31.67645
#
# Velocity S-wave (km/s) = 3.58093 3.93257 3.76086
# Velocity P-wave (km/s) = 5.44647 6.08876 5.77655
#
# Compressibility (1/GPa) = 0.03553176
#
# Stress axis : x y z
#
# Youngs Moduli (GPa) = 46.54672 79.19330 73.69814
#
# Poissons Ratio (x) = 0.48142 -0.39993
# Poissons Ratio (y) = 0.28296 0.39956
# Poissons Ratio (z) = -0.25259 0.42936
#
# Static dielectric constant tensor:
#      x y z
#    x 1.880110 0.000000 0.000000 
#    y 0.000000 1.446490 0.000000 
#    z 0.000000 0.000000 0.014660 
# 
# From -- ./inp_files/2777.got.cif
#   From: 2010.05.17/outbox.cif.g08.bks.cpg/sg68_2_cif.got.tgz:2777.got - 2010.06.03 18:57:09.
