data_PCOD9507058
_publ_section_title
;
Structure prediction by ZEFSAII (Michael W. Deem and Ramdas Pophale) SiO2 
 PCOD9507058
Probable space group: C C C A
;
_chemical_formula_sum "Si O2"
_cell_formula_units_Z 120
_cell_length_a 21.025322
_cell_length_b 20.754055
_cell_length_c 12.419527
_cell_angle_alpha 90.000000
_cell_angle_beta 90.000000
_cell_angle_gamma 90.000000
_cell_volume 5419.393361
_symmetry_space_group_name_H-M "C C C A"
_symmetry_group_IT_number 68
_space_group.IT_coordinate_system_code '2'
_symmetry_cell_setting 'orthorhombic'
loop_
_space_group_symop_operation_xyz
x,y,z
-x,1/2-y,z
x,1/2-y,1/2-z
-x,y,1/2-z
-x,-y,-z
x,1/2+y,-z
-x,1/2+y,1/2+z
x,-y,1/2+z
1/2+x,1/2+y,z
1/2-x,-y,z
1/2+x,-y,1/2-z
1/2-x,1/2+y,1/2-z
1/2-x,1/2-y,-z
1/2+x,y,-z
1/2-x,y,1/2+z
1/2+x,1/2-y,1/2+z
loop_
_atom_site_type_symbol
_atom_site_label
_atom_site_fract_x
_atom_site_fract_y
_atom_site_fract_z
Si Si1 0.189488 0.322232 0.773042
Si Si2 0.962103 0.887688 0.118591
Si Si3 0.670545 0.867982 0.539948
Si Si4 0.000000 0.250000 0.563847
Si Si5 0.125658 0.250684 0.427251
Si Si6 0.686667 0.463494 0.643778
Si Si7 0.833910 0.838252 0.748990
Si Si8 0.594138 0.419891 0.147963
O O1 0.165470 0.250000 0.750000
O O2 0.189727 0.365503 0.664021
O O3 0.264386 0.318197 0.795582
O O4 0.143134 0.359311 0.854957
O O5 0.903870 0.888383 0.036455
O O6 0.934142 0.916258 0.229566
O O7 0.028877 0.916918 0.081400
O O8 0.979401 0.812043 0.131803
O O9 0.670957 0.792972 0.504565
O O10 0.702670 0.918623 0.460175
O O11 0.060659 0.235364 0.488070
O O12 0.156654 0.189049 0.370034
O O13 0.117171 0.301744 0.328304
O O14 0.750000 0.500000 0.678882
O O15 0.662519 0.413919 0.734188
O O16 0.634014 0.517085 0.623193
#
# Coordination Sequence:
#
# PCOD9507058 Si02
#       8
#    16  16  16   8  16  16  16  16
#     4  11  21  38  63  94 127 161 204 265 318 382
#     4   9  21  41  61  95 118 161 212 259 321 373
#     4   9  22  40  62  93 130 160 207 267 314 372
#     4  10  20  38  62  92 134 150 206 274 321 387
#     4   9  19  38  60  93 122 159 201 265 323 375
#     4  11  22  44  61  88 130 171 218 258 310 386
#     4  10  20  39  60  87 126 164 212 251 311 395
#     4  10  22  38  65  89 123 171 207 256 318 374
#
# _framework density 22.142699
#
# number of rings (size 3 to 8) (size 9 to 14) (size 15 to 20)
#    0.000    2.133    2.667    0.000    5.600    2.667 
#    7.200    8.000    0.000    0.000    0.000    0.000 
#    0.000    0.000    0.000    0.000    0.000    0.000 
#
# Total GULP energy -334585.824861 kJ/mol
# GULP energy per Si atom -5576.430414 kJ/mol
# Density = 2.209230 g / cm^3
# Si number density = 22.142699 Si / 1000 Ang^3
#
#
#
# Elastic Constant Matrix: (Units=GPa)
#
#
# Indices 1 2 3 4 5 6 
#
# 1 67.8215 17.5293 15.6914 0.0000 0.0000 0.0000
# 2 17.5293 106.5939 9.8285 0.0000 0.0000 0.0000
# 3 15.6914 9.8285 57.1378 0.0000 0.0000 0.0000
# 4 0.0000 0.0000 0.0000 27.6601 0.0000 0.0000
# 5 0.0000 0.0000 0.0000 0.0000 14.0778 0.0000
# 6 0.0000 0.0000 0.0000 0.0000 0.0000 36.4077
#
#
#
# Elastic Compliance Matrix: (Units=1/GPa)
#
#
# Indices 1 2 3 4 5 6 
#
# 1 0.016282 -0.002302 -0.004076 0.000000 0.000000 0.000000
# 2 -0.002302 0.009858 -0.001064 0.000000 0.000000 0.000000
# 3 -0.004076 -0.001064 0.018804 0.000000 0.000000 0.000000
# 4 0.000000 0.000000 0.000000 0.036153 0.000000 0.000000
# 5 0.000000 0.000000 0.000000 0.000000 0.071034 0.000000
# 6 0.000000 0.000000 0.000000 0.000000 0.000000 0.027467
#
#
# Mechanical properties :
#
#
# Convention : Reuss Voigt Hill
#
# Bulk Modulus (GPa) = 33.26440 35.29464 34.27952
# Shear Modulus (GPa) = 24.44979 28.19606 26.32292
#
# Velocity S-wave (km/s) = 3.32654 3.57232 3.45162
# Velocity P-wave (km/s) = 5.45984 5.74365 5.60354
#
# Compressibility (1/GPa) = 0.03006217
#
# Stress axis : x y z
#
# Youngs Moduli (GPa) = 61.41570 101.44042 53.18082
#
# Poissons Ratio (x) = 0.23350 0.21674
# Poissons Ratio (y) = 0.14137 0.05656
# Poissons Ratio (z) = 0.25031 0.10789
#
# Static dielectric constant tensor:
#      x y z
#    x 1.846410 0.000000 0.000000 
#    y 0.000000 1.835550 0.000000 
#    z 0.000000 0.000000 1.859400 
# 
# From -- ./inp_files/24793.got.cif
#   From: 2010.05.17/outbox.cif.g08.bks.cpg/sg68_13_cif.got.tgz:24793.got - 2010.06.03 18:57:09.
