data_PCOD9507244
_publ_section_title
;
Structure prediction by ZEFSAII (Michael W. Deem and Ramdas Pophale) SiO2 
 PCOD9507244
Probable space group: C C C A
;
_chemical_formula_sum "Si O2"
_cell_formula_units_Z 84
_cell_length_a 8.858911
_cell_length_b 19.769166
_cell_length_c 24.714445
_cell_angle_alpha 90.000000
_cell_angle_beta 90.000000
_cell_angle_gamma 90.000000
_cell_volume 4328.321869
_symmetry_space_group_name_H-M "C C C A"
_symmetry_group_IT_number 68
_space_group.IT_coordinate_system_code '2'
_symmetry_cell_setting 'orthorhombic'
loop_
_space_group_symop_operation_xyz
x,y,z
-x,1/2-y,z
x,1/2-y,1/2-z
-x,y,1/2-z
-x,-y,-z
x,1/2+y,-z
-x,1/2+y,1/2+z
x,-y,1/2+z
1/2+x,1/2+y,z
1/2-x,-y,z
1/2+x,-y,1/2-z
1/2-x,1/2+y,1/2-z
1/2-x,1/2-y,-z
1/2+x,y,-z
1/2-x,y,1/2+z
1/2+x,1/2-y,1/2+z
loop_
_atom_site_type_symbol
_atom_site_label
_atom_site_fract_x
_atom_site_fract_y
_atom_site_fract_z
Si Si1 0.750000 0.500000 0.991627
Si Si2 0.500000 0.474198 0.250000
Si Si3 0.488147 0.171548 0.684534
Si Si4 0.852226 0.366139 0.676228
Si Si5 0.500000 0.250000 0.250000
Si Si6 0.976381 0.445959 0.574625
Si Si7 0.892612 0.546478 0.853501
O O1 0.634548 0.548724 0.958321
O O2 0.849185 0.548833 0.029412
O O3 0.382997 0.426085 0.280954
O O4 0.429376 0.521633 0.205970
O O5 0.500000 0.250000 0.670926
O O6 0.500000 0.166357 0.750000
O O7 0.325079 0.143080 0.667150
O O8 0.612508 0.126545 0.652916
O O9 0.942076 0.389856 0.621399
O O10 0.908352 0.299359 0.709027
O O11 0.979628 0.517964 0.606695
O O12 0.750000 0.500000 0.866961
#
# Coordination Sequence:
#
# PCOD9507244 Si02
#       7
#     8   8  16  16   4  16  16
#     4  10  20  40  60  96 118 156 202 296 336 374
#     4   9  20  31  55  78 123 148 196 252 305 380
#     4  11  22  34  53  81 127 172 207 243 304 387
#     4  10  21  38  57  91 121 172 203 257 314 393
#     4  10  20  40  62  88 138 168 210 246 310 406
#     4  10  21  37  65  90 121 153 215 267 346 369
#     4  11  20  34  54  89 118 160 200 257 312 388
#
# _framework density 19.407060000000001
#
# number of rings (size 3 to 8) (size 9 to 14) (size 15 to 20)
#    0.000    1.714    1.905    3.429    0.000    4.571 
#    0.000    0.000    0.000    1.143    9.905    0.000 
#    0.000    0.000    0.000    0.000    0.000    0.000 
#
# Total GULP energy -233833.225844 kJ/mol
# GULP energy per Si atom -5567.457758 kJ/mol
# Density = 1.936289 g / cm^3
# Si number density = 19.407060 Si / 1000 Ang^3
#
#
#
# Elastic Constant Matrix: (Units=GPa)
#
#
# Indices 1 2 3 4 5 6 
#
# 1 88.7725 31.7439 49.2231 0.0000 0.0000 0.0000
# 2 31.7439 128.3428 34.1444 0.0000 0.0000 0.0000
# 3 49.2231 34.1444 113.0936 0.0000 0.0000 0.0000
# 4 0.0000 0.0000 0.0000 196.0213 0.0000 0.0000
# 5 0.0000 0.0000 0.0000 0.0000 28.0158 0.0000
# 6 0.0000 0.0000 0.0000 0.0000 0.0000 12.6911
#
#
#
# Elastic Compliance Matrix: (Units=1/GPa)
#
#
# Indices 1 2 3 4 5 6 
#
# 1 0.015400 -0.002203 -0.006038 0.000000 0.000000 0.000000
# 2 -0.002203 0.008787 -0.001694 0.000000 0.000000 0.000000
# 3 -0.006038 -0.001694 0.011982 0.000000 0.000000 0.000000
# 4 0.000000 0.000000 0.000000 0.005101 0.000000 0.000000
# 5 0.000000 0.000000 0.000000 0.000000 0.035694 0.000000
# 6 0.000000 0.000000 0.000000 0.000000 0.000000 0.078795
#
#
# Mechanical properties :
#
#
# Convention : Reuss Voigt Hill
#
# Bulk Modulus (GPa) = 61.35144 62.27019 61.81081
# Shear Modulus (GPa) = 27.61468 61.68547 44.65007
#
# Velocity S-wave (km/s) = 3.77625 5.64394 4.80178
# Velocity P-wave (km/s) = 7.12004 8.63876 7.91591
#
# Compressibility (1/GPa) = 0.01629954
#
# Stress axis : x y z
#
# Youngs Moduli (GPa) = 64.93366 113.80209 83.46088
#
# Poissons Ratio (x) = 0.25068 0.50392
# Poissons Ratio (y) = 0.14303 0.14140
# Poissons Ratio (z) = 0.39206 0.19281
#
# Static dielectric constant tensor:
#      x y z
#    x 1.819340 0.000000 0.000000 
#    y 0.000000 1.719150 0.000000 
#    z 0.000000 0.000000 1.739340 
# 
# From -- ./inp_files/49279.got.cif
#   From: 2010.05.17/outbox.cif.g08.bks.cpg/sg68_25_cif.got.tgz:49279.got - 2010.06.03 18:57:09.
