data_PCOD9507197
_publ_section_title
;
Structure prediction by ZEFSAII (Michael W. Deem and Ramdas Pophale) SiO2 
 PCOD9507197
Probable space group: C C C A
;
_chemical_formula_sum "Si O2"
_cell_formula_units_Z 96
_cell_length_a 12.013060
_cell_length_b 26.949677
_cell_length_c 13.916485
_cell_angle_alpha 90.000000
_cell_angle_beta 90.000000
_cell_angle_gamma 90.000000
_cell_volume 4505.435393
_symmetry_space_group_name_H-M "C C C A"
_symmetry_group_IT_number 68
_space_group.IT_coordinate_system_code '2'
_symmetry_cell_setting 'orthorhombic'
loop_
_space_group_symop_operation_xyz
x,y,z
-x,1/2-y,z
x,1/2-y,1/2-z
-x,y,1/2-z
-x,-y,-z
x,1/2+y,-z
-x,1/2+y,1/2+z
x,-y,1/2+z
1/2+x,1/2+y,z
1/2-x,-y,z
1/2+x,-y,1/2-z
1/2-x,1/2+y,1/2-z
1/2-x,1/2-y,-z
1/2+x,y,-z
1/2-x,y,1/2+z
1/2+x,1/2-y,1/2+z
loop_
_atom_site_type_symbol
_atom_site_label
_atom_site_fract_x
_atom_site_fract_y
_atom_site_fract_z
Si Si1 0.250000 0.500000 0.590992
Si Si2 0.000000 0.750000 0.012055
Si Si3 0.715353 0.395915 0.983371
Si Si4 0.384047 0.927647 0.301598
Si Si5 0.296756 0.133879 0.186995
Si Si6 0.374509 0.822227 0.876550
Si Si7 0.313654 0.261066 0.852934
O O1 0.232025 0.450989 0.528061
O O2 0.350034 0.482113 0.659971
O O3 0.893932 0.750192 0.941840
O O4 0.985273 0.798039 0.079893
O O5 0.623936 0.394132 0.898131
O O6 0.811317 0.357600 0.952252
O O7 0.662259 0.388198 0.086798
O O8 0.500000 0.925783 0.250000
O O9 0.288408 0.905602 0.233619
O O10 0.376521 0.149911 0.274436
O O11 0.228664 0.182858 0.154963
O O12 0.292076 0.775343 0.860394
O O13 0.369186 0.250000 0.750000
#
# Coordination Sequence:
#
# PCOD9507197 Si02
#       7
#     8   8  16  16  16  16  16
#     4   8  20  40  70  96 142 168 230 296 366 380
#     4  12  21  36  65  94 134 176 235 281 340 424
#     4   9  19  40  65  96 136 181 224 288 353 402
#     4   9  20  40  70 100 130 177 234 283 343 424
#     4  10  20  39  65  90 140 183 221 286 351 408
#     4  10  22  40  63  95 138 186 220 284 355 406
#     4  10  22  38  62  93 134 180 234 277 340 408
#
# _framework density 21.307596
#
# number of rings (size 3 to 8) (size 9 to 14) (size 15 to 20)
#    1.000    1.333    1.667    0.750    0.000    4.667 
#    0.000    4.583    3.667    0.000    0.000    0.000 
#    0.000    0.000    0.000    0.000    0.000    0.000 
#
# Total GULP energy -267676.472327 kJ/mol
# GULP energy per Si atom -5576.593173 kJ/mol
# Density = 2.125910 g / cm^3
# Si number density = 21.307596 Si / 1000 Ang^3
#
#
#
# Elastic Constant Matrix: (Units=GPa)
#
#
# Indices 1 2 3 4 5 6 
#
# 1 49.9275 2.3881 34.9046 0.0000 0.0000 0.0000
# 2 2.3881 85.0860 30.9345 0.0000 0.0000 0.0000
# 3 34.9046 30.9345 171.5627 0.0000 0.0000 0.0000
# 4 0.0000 0.0000 0.0000 -43.6805 0.0000 0.0000
# 5 0.0000 0.0000 0.0000 0.0000 -7.6904 0.0000
# 6 0.0000 0.0000 0.0000 0.0000 0.0000 24.3820
#
#
#
# Elastic Compliance Matrix: (Units=1/GPa)
#
#
# Indices 1 2 3 4 5 6 
#
# 1 0.023455 0.001152 -0.004980 0.000000 0.000000 0.000000
# 2 0.001152 0.012634 -0.002512 0.000000 0.000000 0.000000
# 3 -0.004980 -0.002512 0.007295 0.000000 0.000000 0.000000
# 4 0.000000 0.000000 0.000000 -0.022893 0.000000 0.000000
# 5 0.000000 0.000000 0.000000 0.000000 -0.130033 0.000000
# 6 0.000000 0.000000 0.000000 0.000000 0.000000 0.041014
#
#
# Mechanical properties :
#
#
# Convention : Reuss Voigt Hill
#
# Bulk Modulus (GPa) = 32.56897 49.22563 40.89730
# Shear Modulus (GPa) = -109.61638 10.49214 -49.56212
#
# Velocity S-wave (km/s) = -7.18028 2.22145 -4.82813
# Velocity P-wave (km/s) = 7.30914 5.45273 3.44175
#
# Compressibility (1/GPa) = 0.03070408
#
# Stress axis : x y z
#
# Youngs Moduli (GPa) = 42.63430 79.15199 137.08165
#
# Poissons Ratio (x) = -0.09119 0.68263
# Poissons Ratio (y) = -0.04912 0.34441
# Poissons Ratio (z) = 0.21231 0.19886
#
# Static dielectric constant tensor:
#      x y z
#    x 1.772330 0.000000 0.000000 
#    y 0.000000 1.787990 0.000000 
#    z 0.000000 0.000000 1.822450 
# 
# From -- ./inp_files/21205.got.cif
#   From: 2010.05.17/outbox.cif.g08.bks.cpg/sg68_11_cif.got.tgz:21205.got - 2010.06.03 18:57:09.
