data_PCOD9507339
_publ_section_title
;
Structure prediction by ZEFSAII (Michael W. Deem and Ramdas Pophale) SiO2 
 PCOD9507339
Probable space group: C C C A
;
_chemical_formula_sum "Si O2"
_cell_formula_units_Z 88
_cell_length_a 18.310160
_cell_length_b 11.010565
_cell_length_c 18.518654
_cell_angle_alpha 90.000000
_cell_angle_beta 90.000000
_cell_angle_gamma 90.000000
_cell_volume 3733.457070
_symmetry_space_group_name_H-M "C C C A"
_symmetry_group_IT_number 68
_space_group.IT_coordinate_system_code '2'
_symmetry_cell_setting 'orthorhombic'
loop_
_space_group_symop_operation_xyz
x,y,z
-x,1/2-y,z
x,1/2-y,1/2-z
-x,y,1/2-z
-x,-y,-z
x,1/2+y,-z
-x,1/2+y,1/2+z
x,-y,1/2+z
1/2+x,1/2+y,z
1/2-x,-y,z
1/2+x,-y,1/2-z
1/2-x,1/2+y,1/2-z
1/2-x,1/2-y,-z
1/2+x,y,-z
1/2-x,y,1/2+z
1/2+x,1/2-y,1/2+z
loop_
_atom_site_type_symbol
_atom_site_label
_atom_site_fract_x
_atom_site_fract_y
_atom_site_fract_z
Si Si1 0.750458 0.754751 0.165993
Si Si2 0.871279 0.073215 0.608034
Si Si3 0.500000 0.250000 0.158377
Si Si4 0.919113 0.387727 0.278973
Si Si5 0.119754 0.567885 0.327131
Si Si6 0.323719 0.918028 0.057296
O O1 0.726893 0.750000 0.250000
O O2 0.797426 0.875366 0.147215
O O3 0.812609 0.653653 0.163527
O O4 0.694985 0.705521 0.103214
O O5 0.849499 0.086677 0.524621
O O6 0.939993 0.164820 0.618882
O O7 0.899089 0.942745 0.641593
O O8 0.553516 0.346779 0.194919
O O9 0.915838 0.250000 0.250000
O O10 0.864788 0.468956 0.232441
O O11 0.000000 0.423036 0.250000
O O12 0.112984 0.490639 0.399814
O O13 0.250000 0.000000 0.057038
#
# Coordination Sequence:
#
# PCOD9507339 Si02
#       6
#    16  16   8  16  16  16
#     4  10  20  40  75 104 134 187 239 301 355 431
#     4  11  22  43  72 104 138 184 241 299 373 439
#     4  10  22  39  76 104 125 174 238 300 365 442
#     4  11  23  42  65 104 147 186 234 304 380 453
#     4  10  21  42  66 100 137 176 238 297 356 435
#     4  10  24  45  64 100 152 186 237 298 359 440
#
# _framework density 23.570647000000001
#
# number of rings (size 3 to 8) (size 9 to 14) (size 15 to 20)
#    0.000    1.636    3.636    0.545    0.000    2.182 
#   16.364    0.000    0.000    0.000    0.000    0.000 
#    0.000    0.000    0.000    0.000    0.000    0.000 
#
# Total GULP energy -244988.037353 kJ/mol
# GULP energy per Si atom -5567.909940 kJ/mol
# Density = 2.351700 g / cm^3
# Si number density = 23.570647 Si / 1000 Ang^3
#
#
#
# Elastic Constant Matrix: (Units=GPa)
#
#
# Indices 1 2 3 4 5 6 
#
# 1 94.7633 60.9426 44.9080 0.0000 0.0000 0.0000
# 2 60.9426 164.1460 63.2006 0.0000 0.0000 0.0000
# 3 44.9080 63.2006 177.7187 0.0000 0.0000 0.0000
# 4 0.0000 0.0000 0.0000 27.6938 0.0000 0.0000
# 5 0.0000 0.0000 0.0000 0.0000 36.7883 0.0000
# 6 0.0000 0.0000 0.0000 0.0000 0.0000 16.7666
#
#
#
# Elastic Compliance Matrix: (Units=1/GPa)
#
#
# Indices 1 2 3 4 5 6 
#
# 1 0.014464 -0.004591 -0.002022 0.000000 0.000000 0.000000
# 2 -0.004591 0.008516 -0.001868 0.000000 0.000000 0.000000
# 3 -0.002022 -0.001868 0.006802 0.000000 0.000000 0.000000
# 4 0.000000 0.000000 0.000000 0.036109 0.000000 0.000000
# 5 0.000000 0.000000 0.000000 0.000000 0.027183 0.000000
# 6 0.000000 0.000000 0.000000 0.000000 0.000000 0.059642
#
#
# Mechanical properties :
#
#
# Convention : Reuss Voigt Hill
#
# Bulk Modulus (GPa) = 78.01225 86.08115 82.04670
# Shear Modulus (GPa) = 28.74355 34.08821 31.41588
#
# Velocity S-wave (km/s) = 3.49587 3.80704 3.65477
# Velocity P-wave (km/s) = 7.03306 7.47827 7.25908
#
# Compressibility (1/GPa) = 0.01281850
#
# Stress axis : x y z
#
# Youngs Moduli (GPa) = 69.13927 117.42429 147.01054
#
# Poissons Ratio (x) = 0.53914 0.29726
# Poissons Ratio (y) = 0.31744 0.27466
# Poissons Ratio (z) = 0.13980 0.21939
#
# Static dielectric constant tensor:
#      x y z
#    x 1.988900 0.000000 0.000000 
#    y 0.000000 2.160400 0.000000 
#    z 0.000000 0.000000 1.972610 
# 
# From -- ./inp_files/32801.got.cif
#   From: 2010.05.17/outbox.cif.g08.bks.cpg/sg68_17_cif.got.tgz:32801.got - 2010.06.03 18:57:09.
