data_PCOD9507370
_publ_section_title
;
Structure prediction by ZEFSAII (Michael W. Deem and Ramdas Pophale) SiO2 
 PCOD9507370
Probable space group: C C C A
;
_chemical_formula_sum "Si O2"
_cell_formula_units_Z 104
_cell_length_a 21.451596
_cell_length_b 24.786675
_cell_length_c 9.071065
_cell_angle_alpha 90.000000
_cell_angle_beta 90.000000
_cell_angle_gamma 90.000000
_cell_volume 4823.209881
_symmetry_space_group_name_H-M "C C C A"
_symmetry_group_IT_number 68
_space_group.IT_coordinate_system_code '2'
_symmetry_cell_setting 'orthorhombic'
loop_
_space_group_symop_operation_xyz
x,y,z
-x,1/2-y,z
x,1/2-y,1/2-z
-x,y,1/2-z
-x,-y,-z
x,1/2+y,-z
-x,1/2+y,1/2+z
x,-y,1/2+z
1/2+x,1/2+y,z
1/2-x,-y,z
1/2+x,-y,1/2-z
1/2-x,1/2+y,1/2-z
1/2-x,1/2-y,-z
1/2+x,y,-z
1/2-x,y,1/2+z
1/2+x,1/2-y,1/2+z
loop_
_atom_site_type_symbol
_atom_site_label
_atom_site_fract_x
_atom_site_fract_y
_atom_site_fract_z
Si Si1 0.500000 0.342411 0.750000
Si Si2 0.236503 0.374244 0.075467
Si Si3 0.572863 0.036578 0.315734
Si Si4 0.309744 0.727700 0.588283
Si Si5 0.023711 0.069684 0.014587
Si Si6 0.217995 0.446907 0.814427
Si Si7 0.125599 0.792408 0.869345
O O1 0.530593 0.378430 0.618141
O O2 0.556795 0.309994 0.823136
O O3 0.297733 0.336213 0.085664
O O4 0.248836 0.428756 0.164706
O O5 0.175060 0.341438 0.124790
O O6 0.225821 0.393209 0.910306
O O7 0.552605 0.056957 0.150171
O O8 0.548062 0.071738 0.455311
O O9 0.646207 0.038106 0.305091
O O10 0.546182 0.978669 0.375544
O O11 0.305343 0.750000 0.750000
O O12 0.250000 0.750000 0.500000
O O13 0.369500 0.756154 0.516224
O O14 0.250000 0.500000 0.876221
O O15 0.149991 0.750000 0.750000
#
# Coordination Sequence:
#
# PCOD9507370 Si02
#       7
#     8  16  16  16  16  16  16
#     4  12  25  42  70 100 134 170 236 296 361 404
#     4  11  23  42  65  97 135 185 219 275 355 416
#     4  10  23  42  66  91 136 179 246 272 336 412
#     4  10  20  41  72 100 132 178 233 286 350 432
#     4  10  22  42  69  94 125 193 229 285 335 423
#     4  12  27  39  62 101 143 176 222 281 337 404
#     4  11  24  44  70  98 133 176 235 294 354 421
#
# _framework density 21.562404000000001
#
# number of rings (size 3 to 8) (size 9 to 14) (size 15 to 20)
#    0.000    1.231    0.000    8.077    6.462    1.231 
#    0.000    1.538    0.000    0.923    0.000    0.000 
#    0.000    0.000    0.000    0.000    0.000    0.000 
#
# Total GULP energy -289686.867859 kJ/mol
# GULP energy per Si atom -5570.901305 kJ/mol
# Density = 2.151333 g / cm^3
# Si number density = 21.562404 Si / 1000 Ang^3
#
#
#
# Elastic Constant Matrix: (Units=GPa)
#
#
# Indices 1 2 3 4 5 6 
#
# 1 113.0683 38.7820 37.6220 0.0000 0.0000 0.0000
# 2 38.7820 93.1210 40.3531 0.0000 0.0000 0.0000
# 3 37.6220 40.3531 128.6098 0.0000 0.0000 0.0000
# 4 0.0000 0.0000 0.0000 27.4020 0.0000 0.0000
# 5 0.0000 0.0000 0.0000 0.0000 -12.0860 0.0000
# 6 0.0000 0.0000 0.0000 0.0000 0.0000 23.1542
#
#
#
# Elastic Compliance Matrix: (Units=1/GPa)
#
#
# Indices 1 2 3 4 5 6 
#
# 1 0.010751 -0.003605 -0.002014 0.000000 0.000000 0.000000
# 2 -0.003605 0.013637 -0.003224 0.000000 0.000000 0.000000
# 3 -0.002014 -0.003224 0.009376 0.000000 0.000000 0.000000
# 4 0.000000 0.000000 0.000000 0.036494 0.000000 0.000000
# 5 0.000000 0.000000 0.000000 0.000000 -0.082740 0.000000
# 6 0.000000 0.000000 0.000000 0.000000 0.000000 0.043189
#
#
# Mechanical properties :
#
#
# Convention : Reuss Voigt Hill
#
# Bulk Modulus (GPa) = 62.19551 63.14593 62.67072
# Shear Modulus (GPa) = 93.02030 22.23015 57.62523
#
# Velocity S-wave (km/s) = 6.57523 3.21435 5.17522
# Velocity P-wave (km/s) = 9.30333 6.56695 8.05223
#
# Compressibility (1/GPa) = 0.01607833
#
# Stress axis : x y z
#
# Youngs Moduli (GPa) = 93.01738 73.32886 106.65219
#
# Poissons Ratio (x) = 0.26432 0.21478
# Poissons Ratio (y) = 0.33529 0.34389
# Poissons Ratio (z) = 0.18733 0.23644
#
# Static dielectric constant tensor:
#      x y z
#    x 1.834930 0.000000 0.000000 
#    y 0.000000 1.832660 0.000000 
#    z 0.000000 0.000000 1.869310 
# 
# From -- ./inp_files/7402.got.cif
#   From: 2010.05.17/outbox.cif.g08.bks.cpg/sg68_4_cif.got.tgz:7402.got - 2010.06.03 18:57:09.
