data_PCOD9507321
_publ_section_title
;
Structure prediction by ZEFSAII (Michael W. Deem and Ramdas Pophale) SiO2 
 PCOD9507321
Probable space group: C C C A
;
_chemical_formula_sum "Si O2"
_cell_formula_units_Z 44
_cell_length_a 13.386524
_cell_length_b 30.093109
_cell_length_c 5.122051
_cell_angle_alpha 90.000000
_cell_angle_beta 90.000000
_cell_angle_gamma 90.000000
_cell_volume 2063.377914
_symmetry_space_group_name_H-M "C C C A"
_symmetry_group_IT_number 68
_space_group.IT_coordinate_system_code '2'
_symmetry_cell_setting 'orthorhombic'
loop_
_space_group_symop_operation_xyz
x,y,z
-x,1/2-y,z
x,1/2-y,1/2-z
-x,y,1/2-z
-x,-y,-z
x,1/2+y,-z
-x,1/2+y,1/2+z
x,-y,1/2+z
1/2+x,1/2+y,z
1/2-x,-y,z
1/2+x,-y,1/2-z
1/2-x,1/2+y,1/2-z
1/2-x,1/2-y,-z
1/2+x,y,-z
1/2-x,y,1/2+z
1/2+x,1/2-y,1/2+z
loop_
_atom_site_type_symbol
_atom_site_label
_atom_site_fract_x
_atom_site_fract_y
_atom_site_fract_z
Si Si1 0.565000 0.164251 0.008403
Si Si2 0.500000 0.968399 0.250000
Si Si3 0.307686 0.415353 0.931722
Si Si4 0.000000 0.750000 0.250000
O O1 0.500000 0.161306 0.750000
O O2 0.665222 0.136932 0.957573
O O3 0.500000 0.143744 0.250000
O O4 0.568829 0.216122 0.086123
O O5 0.404622 0.937701 0.193853
O O6 0.500000 0.000000 0.500000
O O7 0.220817 0.427695 0.727254
#
# Coordination Sequence:
#
# PCOD9507321 Si02
#       4
#    16   8  16   4
#     4  10  20  40  68  95 136 188 230 283 343 398
#     4  12  28  47  74 101 138 179 226 287 356 418
#     4  12  26  44  72 104 140 181 232 284 349 422
#     4   8  22  34  74  92 138 190 238 282 338 400
#
# _framework density 21.324256999999999
#
# number of rings (size 3 to 8) (size 9 to 14) (size 15 to 20)
#    1.091    0.000    1.818    4.909    2.545    4.364 
#    0.000    1.818    0.000    0.000    0.000    0.000 
#    0.000    0.000    0.000    0.000    0.000    0.000 
#
# Total GULP energy -122606.080593 kJ/mol
# GULP energy per Si atom -5573.003663 kJ/mol
# Density = 2.127572 g / cm^3
# Si number density = 21.324257 Si / 1000 Ang^3
#
#
#
# Elastic Constant Matrix: (Units=GPa)
#
#
# Indices 1 2 3 4 5 6 
#
# 1 54.3476 24.1749 20.4996 0.0000 0.0000 0.0000
# 2 24.1749 92.6231 27.0230 0.0000 0.0000 0.0000
# 3 20.4996 27.0230 168.1530 0.0000 0.0000 0.0000
# 4 0.0000 0.0000 0.0000 -12.1795 0.0000 0.0000
# 5 0.0000 0.0000 0.0000 0.0000 32.8364 0.0000
# 6 0.0000 0.0000 0.0000 0.0000 0.0000 1.8114
#
#
#
# Elastic Compliance Matrix: (Units=1/GPa)
#
#
# Indices 1 2 3 4 5 6 
#
# 1 0.021318 -0.005042 -0.001789 0.000000 0.000000 0.000000
# 2 -0.005042 0.012520 -0.001397 0.000000 0.000000 0.000000
# 3 -0.001789 -0.001397 0.006390 0.000000 0.000000 0.000000
# 4 0.000000 0.000000 0.000000 -0.082105 0.000000 0.000000
# 5 0.000000 0.000000 0.000000 0.000000 0.030454 0.000000
# 6 0.000000 0.000000 0.000000 0.000000 0.000000 0.552062
#
#
# Mechanical properties :
#
#
# Convention : Reuss Voigt Hill
#
# Bulk Modulus (GPa) = 42.06772 50.94653 46.50712
# Shear Modulus (GPa) = 8.84927 20.72207 14.78567
#
# Velocity S-wave (km/s) = 2.03933 3.12069 2.63605
# Velocity P-wave (km/s) = 5.03146 6.07685 5.57870
#
# Compressibility (1/GPa) = 0.02377120
#
# Stress axis : x y z
#
# Youngs Moduli (GPa) = 46.90968 79.87135 156.50512
#
# Poissons Ratio (x) = 0.40272 0.27991
# Poissons Ratio (y) = 0.23653 0.21869
# Poissons Ratio (z) = 0.08390 0.11161
#
# Static dielectric constant tensor:
#      x y z
#    x 1.773680 0.000000 0.000000 
#    y 0.000000 1.863470 0.000000 
#    z 0.000000 0.000000 1.742930 
# 
# From -- ./inp_files/637.got.cif
#   From: 2010.05.17/outbox.cif.g08.bks.cpg/sg68_1_cif.got.tgz:637.got - 2010.06.03 18:57:09.
