data_PCOD9507375
_publ_section_title
;
Structure prediction by ZEFSAII (Michael W. Deem and Ramdas Pophale) SiO2 
 PCOD9507375
Probable space group: C C C A
;
_chemical_formula_sum "Si O2"
_cell_formula_units_Z 60
_cell_length_a 5.030131
_cell_length_b 20.490606
_cell_length_c 28.169997
_cell_angle_alpha 90.000000
_cell_angle_beta 90.000000
_cell_angle_gamma 90.000000
_cell_volume 2903.493773
_symmetry_space_group_name_H-M "C C C A"
_symmetry_group_IT_number 68
_space_group.IT_coordinate_system_code '2'
_symmetry_cell_setting 'orthorhombic'
loop_
_space_group_symop_operation_xyz
x,y,z
-x,1/2-y,z
x,1/2-y,1/2-z
-x,y,1/2-z
-x,-y,-z
x,1/2+y,-z
-x,1/2+y,1/2+z
x,-y,1/2+z
1/2+x,1/2+y,z
1/2-x,-y,z
1/2+x,-y,1/2-z
1/2-x,1/2+y,1/2-z
1/2-x,1/2-y,-z
1/2+x,y,-z
1/2-x,y,1/2+z
1/2+x,1/2-y,1/2+z
loop_
_atom_site_type_symbol
_atom_site_label
_atom_site_fract_x
_atom_site_fract_y
_atom_site_fract_z
Si Si1 0.395278 0.677144 0.610644
Si Si2 0.000000 0.544984 0.750000
Si Si3 0.217632 0.074295 0.468186
Si Si4 0.500000 0.250000 0.750000
Si Si5 0.885724 0.346759 0.174263
O O1 0.500000 0.750000 0.597316
O O2 0.303433 0.630742 0.567815
O O3 0.640049 0.645636 0.639213
O O4 0.141118 0.679063 0.645404
O O5 0.250000 0.500000 0.741869
O O6 0.044012 0.588908 0.796520
O O7 0.417201 0.080052 0.513087
O O8 0.250000 0.000000 0.449003
O O9 0.675297 0.204923 0.784067
#
# Coordination Sequence:
#
# PCOD9507375 Si02
#       5
#    16   8  16   4  16
#     4  12  23  40  64 100 128 161 220 269 323 386
#     4  11  24  43  60  89 128 169 218 262 318 383
#     4  10  23  43  65  90 126 172 214 261 329 395
#     4  10  20  42  60  86 124 168 208 244 308 380
#     4  11  24  39  64  91 127 170 209 266 318 379
#
# _framework density 20.664760999999999
#
# number of rings (size 3 to 8) (size 9 to 14) (size 15 to 20)
#    0.000    1.067    2.667    3.200    0.000    8.533 
#    0.000    0.000    0.000    0.000    0.000    0.000 
#    0.000    0.000    0.000    0.000    0.000    0.000 
#
# Total GULP energy -167699.911887 kJ/mol
# GULP energy per Si atom -5589.997063 kJ/mol
# Density = 2.061773 g / cm^3
# Si number density = 20.664761 Si / 1000 Ang^3
#
#
#
# Elastic Constant Matrix: (Units=GPa)
#
#
# Indices 1 2 3 4 5 6 
#
# 1 104.5536 31.1641 12.1520 0.0000 0.0000 0.0000
# 2 31.1641 151.5098 64.0997 0.0000 0.0000 0.0000
# 3 12.1520 64.0997 67.5218 0.0000 0.0000 0.0000
# 4 0.0000 0.0000 0.0000 11.7052 0.0000 0.0000
# 5 0.0000 0.0000 0.0000 0.0000 17.1950 0.0000
# 6 0.0000 0.0000 0.0000 0.0000 0.0000 33.6885
#
#
#
# Elastic Compliance Matrix: (Units=1/GPa)
#
#
# Indices 1 2 3 4 5 6 
#
# 1 0.010192 -0.002207 0.000261 0.000000 0.000000 0.000000
# 2 -0.002207 0.011508 -0.010528 0.000000 0.000000 0.000000
# 3 0.000261 -0.010528 0.024757 0.000000 0.000000 0.000000
# 4 0.000000 0.000000 0.000000 0.085432 0.000000 0.000000
# 5 0.000000 0.000000 0.000000 0.000000 0.058156 0.000000
# 6 0.000000 0.000000 0.000000 0.000000 0.000000 0.029684
#
#
# Mechanical properties :
#
#
# Convention : Reuss Voigt Hill
#
# Bulk Modulus (GPa) = 46.49065 59.82408 53.15736
# Shear Modulus (GPa) = 19.85330 26.92905 23.39118
#
# Velocity S-wave (km/s) = 3.10293 3.61382 3.36807
# Velocity P-wave (km/s) = 5.94844 6.81363 6.39568
#
# Compressibility (1/GPa) = 0.02150970
#
# Stress axis : x y z
#
# Youngs Moduli (GPa) = 98.11706 86.89517 40.39205
#
# Poissons Ratio (x) = 0.19174 -0.01052
# Poissons Ratio (y) = 0.21650 0.42524
# Poissons Ratio (z) = -0.02556 0.91481
#
# Static dielectric constant tensor:
#      x y z
#    x 1.702820 0.000000 0.000000 
#    y 0.000000 1.764410 0.000000 
#    z 0.000000 0.000000 1.727780 
# 
# From -- ./inp_files/42051.got.cif
#   From: 2010.05.17/outbox.cif.g08.bks.cpg/sg68_22_cif.got.tgz:42051.got - 2010.06.03 18:57:09.
