data_PCOD9507266
_publ_section_title
;
Structure prediction by ZEFSAII (Michael W. Deem and Ramdas Pophale) SiO2 
 PCOD9507266
Probable space group: C C C A
;
_chemical_formula_sum "Si O2"
_cell_formula_units_Z 112
_cell_length_a 14.144518
_cell_length_b 14.751925
_cell_length_c 27.863413
_cell_angle_alpha 90.000000
_cell_angle_beta 90.000000
_cell_angle_gamma 90.000000
_cell_volume 5813.948235
_symmetry_space_group_name_H-M "C C C A"
_symmetry_group_IT_number 68
_space_group.IT_coordinate_system_code '2'
_symmetry_cell_setting 'orthorhombic'
loop_
_space_group_symop_operation_xyz
x,y,z
-x,1/2-y,z
x,1/2-y,1/2-z
-x,y,1/2-z
-x,-y,-z
x,1/2+y,-z
-x,1/2+y,1/2+z
x,-y,1/2+z
1/2+x,1/2+y,z
1/2-x,-y,z
1/2+x,-y,1/2-z
1/2-x,1/2+y,1/2-z
1/2-x,1/2-y,-z
1/2+x,y,-z
1/2-x,y,1/2+z
1/2+x,1/2-y,1/2+z
loop_
_atom_site_type_symbol
_atom_site_label
_atom_site_fract_x
_atom_site_fract_y
_atom_site_fract_z
Si Si1 0.110936 0.850143 0.249542
Si Si2 0.603404 0.506172 0.476160
Si Si3 0.741112 0.595626 0.187776
Si Si4 0.359988 0.312785 0.891958
Si Si5 0.260216 0.856643 0.011764
Si Si6 0.428340 0.113729 0.882367
Si Si7 0.603841 0.542542 0.275803
O O1 0.155200 0.750000 0.250000
O O2 0.150668 0.885470 0.199686
O O3 0.000000 0.840218 0.250000
O O4 0.130062 0.935893 0.284020
O O5 0.500000 0.500000 0.500000
O O6 0.659880 0.411823 0.482020
O O7 0.665630 0.584644 0.502595
O O8 0.595594 0.536169 0.420685
O O9 0.750000 0.500000 0.161119
O O10 0.693865 0.672677 0.157524
O O11 0.679446 0.581301 0.236861
O O12 0.298640 0.356433 0.933999
O O13 0.377676 0.206413 0.899146
O O14 0.460376 0.363094 0.886534
O O15 0.250000 0.750000 0.000000
O O16 0.402299 0.090610 0.827308
O O17 0.500000 0.546333 0.250000
#
# Coordination Sequence:
#
# PCOD9507266 Si02
#       7
#    16  16  16  16  16  16  16
#     4   9  20  40  59  79 121 174 219 267 315 383
#     4  11  24  44  72  97 132 181 227 286 348 412
#     4  10  22  38  62  92 124 173 220 271 332 400
#     4  11  23  40  68  96 130 172 225 281 346 418
#     4  11  24  46  69  97 136 179 226 285 351 423
#     4  11  23  41  67  98 134 174 219 286 348 407
#     4  10  20  40  63  92 132 164 212 271 335 401
#
# _framework density 19.264016999999999
#
# number of rings (size 3 to 8) (size 9 to 14) (size 15 to 20)
#    0.000    1.571    4.286    0.000    4.000    0.571 
#   10.286    0.000    0.000    0.000    0.000    0.000 
#    0.000    0.000    0.000    0.000    0.000    0.000 
#
# Total GULP energy -311805.238714 kJ/mol
# GULP energy per Si atom -5567.950691 kJ/mol
# Density = 1.922017 g / cm^3
# Si number density = 19.264017 Si / 1000 Ang^3
#
#
#
# Elastic Constant Matrix: (Units=GPa)
#
#
# Indices 1 2 3 4 5 6 
#
# 1 105.7904 26.4588 31.3832 0.0000 0.0000 0.0000
# 2 26.4588 92.9462 28.6732 0.0000 0.0000 0.0000
# 3 31.3832 28.6732 105.6336 0.0000 0.0000 0.0000
# 4 0.0000 0.0000 0.0000 32.7697 0.0000 0.0000
# 5 0.0000 0.0000 0.0000 0.0000 27.2169 0.0000
# 6 0.0000 0.0000 0.0000 0.0000 0.0000 22.6518
#
#
#
# Elastic Compliance Matrix: (Units=1/GPa)
#
#
# Indices 1 2 3 4 5 6 
#
# 1 0.010789 -0.002273 -0.002588 0.000000 0.000000 0.000000
# 2 -0.002273 0.012221 -0.002642 0.000000 0.000000 0.000000
# 3 -0.002588 -0.002642 0.010953 0.000000 0.000000 0.000000
# 4 0.000000 0.000000 0.000000 0.030516 0.000000 0.000000
# 5 0.000000 0.000000 0.000000 0.000000 0.036742 0.000000
# 6 0.000000 0.000000 0.000000 0.000000 0.000000 0.044147
#
#
# Mechanical properties :
#
#
# Convention : Reuss Voigt Hill
#
# Bulk Modulus (GPa) = 52.75290 53.04454 52.89872
# Shear Modulus (GPa) = 29.99537 31.05134 30.52335
#
# Velocity S-wave (km/s) = 3.95025 4.01918 3.98486
# Velocity P-wave (km/s) = 6.94619 7.00955 6.97794
#
# Compressibility (1/GPa) = 0.01895630
#
# Stress axis : x y z
#
# Youngs Moduli (GPa) = 92.68737 81.82674 91.30047
#
# Poissons Ratio (x) = 0.18597 0.23632
# Poissons Ratio (y) = 0.21066 0.24122
# Poissons Ratio (z) = 0.23991 0.21619
#
# Static dielectric constant tensor:
#      x y z
#    x 1.691010 0.000000 0.000000 
#    y 0.000000 1.792000 0.000000 
#    z 0.000000 0.000000 1.668220 
# 
# From -- ./inp_files/50996.got.cif
#   From: 2010.05.17/outbox.cif.g08.bks.cpg/sg68_26_cif.got.tgz:50996.got - 2010.06.03 18:57:09.
