data_PCOD9507053
_publ_section_title
;
Structure prediction by ZEFSAII (Michael W. Deem and Ramdas Pophale) SiO2 
 PCOD9507053
Probable space group: C C C A
;
_chemical_formula_sum "Si O2"
_cell_formula_units_Z 112
_cell_length_a 12.413691
_cell_length_b 15.934431
_cell_length_c 28.149634
_cell_angle_alpha 90.000000
_cell_angle_beta 90.000000
_cell_angle_gamma 90.000000
_cell_volume 5568.141244
_symmetry_space_group_name_H-M "C C C A"
_symmetry_group_IT_number 68
_space_group.IT_coordinate_system_code '2'
_symmetry_cell_setting 'orthorhombic'
loop_
_space_group_symop_operation_xyz
x,y,z
-x,1/2-y,z
x,1/2-y,1/2-z
-x,y,1/2-z
-x,-y,-z
x,1/2+y,-z
-x,1/2+y,1/2+z
x,-y,1/2+z
1/2+x,1/2+y,z
1/2-x,-y,z
1/2+x,-y,1/2-z
1/2-x,1/2+y,1/2-z
1/2-x,1/2-y,-z
1/2+x,y,-z
1/2-x,y,1/2+z
1/2+x,1/2-y,1/2+z
loop_
_atom_site_type_symbol
_atom_site_label
_atom_site_fract_x
_atom_site_fract_y
_atom_site_fract_z
Si Si1 0.993438 0.887283 0.694003
Si Si2 0.150905 0.933877 0.545547
Si Si3 0.181841 0.246001 0.193928
Si Si4 0.312939 0.414586 0.065159
Si Si5 0.607935 0.298136 0.134684
Si Si6 0.012990 0.967750 0.119448
Si Si7 0.749073 0.739951 0.056172
O O1 0.890082 0.828383 0.684591
O O2 0.000000 0.907987 0.750000
O O3 0.100085 0.831292 0.684718
O O4 0.988533 0.967531 0.660935
O O5 0.140288 0.917808 0.488921
O O6 0.176489 0.841390 0.567073
O O7 0.250000 0.000000 0.550175
O O8 0.056299 0.978826 0.574424
O O9 0.208264 0.250000 0.250000
O O10 0.288803 0.234789 0.163352
O O11 0.250000 0.500000 0.072223
O O12 0.410816 0.414693 0.101693
O O13 0.232683 0.335914 0.072307
O O14 0.500000 0.250000 0.149168
O O15 0.596025 0.398136 0.138377
O O16 0.635715 0.281667 0.079234
O O17 0.750000 0.750000 0.000000
#
# Coordination Sequence:
#
# PCOD9507053 Si02
#       7
#    16  16  16  16  16  16  16
#     4   9  21  43  70  95 121 162 215 271 317 373
#     4  10  20  38  62  89 122 165 216 261 310 371
#     4   9  21  45  70  92 124 164 214 265 315 386
#     4  10  23  40  58  86 129 170 211 260 310 373
#     4  12  24  40  64  95 133 171 207 261 332 387
#     4  12  23  38  64  95 127 159 206 267 321 381
#     4  10  21  40  60  82 124 174 212 255 306 376
#
# _framework density 20.114432000000001
#
# number of rings (size 3 to 8) (size 9 to 14) (size 15 to 20)
#    0.000    1.714    2.857    2.143    2.000    0.286 
#    2.571    0.000    3.143    0.000    0.000    0.000 
#    0.000    0.000    0.000    0.000    0.000    0.000 
#
# Total GULP energy -312370.933572 kJ/mol
# GULP energy per Si atom -5578.052385 kJ/mol
# Density = 2.006865 g / cm^3
# Si number density = 20.114432 Si / 1000 Ang^3
#
#
#
# Elastic Constant Matrix: (Units=GPa)
#
#
# Indices 1 2 3 4 5 6 
#
# 1 91.4148 32.2816 51.5559 0.0000 0.0000 0.0000
# 2 32.2816 147.1445 40.8040 0.0000 0.0000 0.0000
# 3 51.5559 40.8040 91.3564 0.0000 0.0000 0.0000
# 4 0.0000 0.0000 0.0000 27.0333 0.0000 0.0000
# 5 0.0000 0.0000 0.0000 0.0000 29.1071 0.0000
# 6 0.0000 0.0000 0.0000 0.0000 0.0000 18.2336
#
#
#
# Elastic Compliance Matrix: (Units=1/GPa)
#
#
# Indices 1 2 3 4 5 6 
#
# 1 0.016219 -0.001164 -0.008633 0.000000 0.000000 0.000000
# 2 -0.001164 0.007840 -0.002845 0.000000 0.000000 0.000000
# 3 -0.008633 -0.002845 0.017089 0.000000 0.000000 0.000000
# 4 0.000000 0.000000 0.000000 0.036991 0.000000 0.000000
# 5 0.000000 0.000000 0.000000 0.000000 0.034356 0.000000
# 6 0.000000 0.000000 0.000000 0.000000 0.000000 0.054844
#
#
# Mechanical properties :
#
#
# Convention : Reuss Voigt Hill
#
# Bulk Modulus (GPa) = 63.03612 64.35541 63.69577
# Shear Modulus (GPa) = 25.26381 28.55974 26.91177
#
# Velocity S-wave (km/s) = 3.54786 3.77220 3.66175
# Velocity P-wave (km/s) = 6.94189 7.14400 7.04367
#
# Compressibility (1/GPa) = 0.01586392
#
# Stress axis : x y z
#
# Youngs Moduli (GPa) = 61.65553 127.54524 58.51808
#
# Poissons Ratio (x) = 0.14850 0.50519
# Poissons Ratio (y) = 0.07178 0.16647
# Poissons Ratio (z) = 0.53228 0.36284
#
# Static dielectric constant tensor:
#      x y z
#    x 1.711220 0.000000 0.000000 
#    y 0.000000 1.747150 0.000000 
#    z 0.000000 0.000000 1.721040 
# 
# From -- ./inp_files/54815.got.cif
#   From: 2010.05.17/outbox.cif.g08.bks.cpg/sg68_28_cif.got.tgz:54815.got - 2010.06.03 18:57:09.
