data_PCOD9507192
_publ_section_title
;
Structure prediction by ZEFSAII (Michael W. Deem and Ramdas Pophale) SiO2 
 PCOD9507192
Probable space group: C C C A
;
_chemical_formula_sum "Si O2"
_cell_formula_units_Z 88
_cell_length_a 16.813918
_cell_length_b 17.277119
_cell_length_c 13.464513
_cell_angle_alpha 90.000000
_cell_angle_beta 90.000000
_cell_angle_gamma 90.000000
_cell_volume 3911.388005
_symmetry_space_group_name_H-M "C C C A"
_symmetry_group_IT_number 68
_space_group.IT_coordinate_system_code '2'
_symmetry_cell_setting 'orthorhombic'
loop_
_space_group_symop_operation_xyz
x,y,z
-x,1/2-y,z
x,1/2-y,1/2-z
-x,y,1/2-z
-x,-y,-z
x,1/2+y,-z
-x,1/2+y,1/2+z
x,-y,1/2+z
1/2+x,1/2+y,z
1/2-x,-y,z
1/2+x,-y,1/2-z
1/2-x,1/2+y,1/2-z
1/2-x,1/2-y,-z
1/2+x,y,-z
1/2-x,y,1/2+z
1/2+x,1/2-y,1/2+z
loop_
_atom_site_type_symbol
_atom_site_label
_atom_site_fract_x
_atom_site_fract_y
_atom_site_fract_z
Si Si1 0.662548 0.480197 0.306915
Si Si2 0.133911 0.250000 0.250000
Si Si3 0.628501 0.798974 0.041255
Si Si4 0.471548 0.432417 0.570875
Si Si5 0.688482 0.846589 0.565277
Si Si6 0.643661 0.093827 0.857669
O O1 0.750000 0.500000 0.348156
O O2 0.594241 0.531026 0.357194
O O3 0.655383 0.391185 0.338893
O O4 0.662000 0.512834 0.195541
O O5 0.092352 0.276356 0.148756
O O6 0.173084 0.168974 0.206952
O O7 0.573259 0.867788 0.006439
O O8 0.718951 0.823284 0.069611
O O9 0.638262 0.729101 0.965166
O O10 0.500000 0.500000 0.500000
O O11 0.548497 0.401406 0.628656
O O12 0.678976 0.900225 0.467667
#
# Coordination Sequence:
#
# PCOD9507192 Si02
#       6
#    16   8  16  16  16  16
#     4  12  23  42  64  96 137 176 228 283 344 412
#     4  10  20  39  64  96 130 167 216 288 343 394
#     4  10  22  41  67  99 136 177 232 284 343 424
#     4  12  24  41  62 101 136 174 225 285 346 411
#     4  10  22  43  67  98 136 180 229 281 346 414
#     4  11  24  39  67  98 132 173 222 284 342 404
#
# _framework density 22.498405999999999
#
# number of rings (size 3 to 8) (size 9 to 14) (size 15 to 20)
#    0.000    1.091    5.455    0.545    0.000    5.818 
#    0.000    1.818    0.000    0.000    0.000    0.000 
#    0.000    0.000    0.000    0.000    0.000    0.000 
#
# Total GULP energy -245502.048247 kJ/mol
# GULP energy per Si atom -5579.592006 kJ/mol
# Density = 2.244720 g / cm^3
# Si number density = 22.498406 Si / 1000 Ang^3
#
#
#
# Elastic Constant Matrix: (Units=GPa)
#
#
# Indices 1 2 3 4 5 6 
#
# 1 110.2903 31.0934 32.2172 0.0000 0.0000 0.0000
# 2 31.0934 140.6793 53.2830 0.0000 0.0000 0.0000
# 3 32.2172 53.2830 50.7986 0.0000 0.0000 0.0000
# 4 0.0000 0.0000 0.0000 49.3815 0.0000 0.0000
# 5 0.0000 0.0000 0.0000 0.0000 22.7856 0.0000
# 6 0.0000 0.0000 0.0000 0.0000 0.0000 42.9872
#
#
#
# Elastic Compliance Matrix: (Units=1/GPa)
#
#
# Indices 1 2 3 4 5 6 
#
# 1 0.011139 0.000355 -0.007437 0.000000 0.000000 0.000000
# 2 0.000355 0.011805 -0.012607 0.000000 0.000000 0.000000
# 3 -0.007437 -0.012607 0.037626 0.000000 0.000000 0.000000
# 4 0.000000 0.000000 0.000000 0.020250 0.000000 0.000000
# 5 0.000000 0.000000 0.000000 0.000000 0.043887 0.000000
# 6 0.000000 0.000000 0.000000 0.000000 0.000000 0.023263
#
#
# Mechanical properties :
#
#
# Convention : Reuss Voigt Hill
#
# Bulk Modulus (GPa) = 47.18861 59.43948 53.31405
# Shear Modulus (GPa) = 25.71837 35.37585 30.54711
#
# Velocity S-wave (km/s) = 3.38467 3.96962 3.68876
# Velocity P-wave (km/s) = 6.02449 6.89110 6.47231
#
# Compressibility (1/GPa) = 0.02119155
#
# Stress axis : x y z
#
# Youngs Moduli (GPa) = 89.77172 84.70937 26.57742
#
# Poissons Ratio (x) = -0.03004 0.19765
# Poissons Ratio (y) = -0.03184 0.33507
# Poissons Ratio (z) = 0.66761 1.06796
#
# Static dielectric constant tensor:
#      x y z
#    x 1.869540 0.000000 0.000000 
#    y 0.000000 1.949490 0.000000 
#    z 0.000000 0.000000 1.859510 
# 
# From -- ./inp_files/23601.got.cif
#   From: 2010.05.17/outbox.cif.g08.bks.cpg/sg68_12_cif.got.tgz:23601.got - 2010.06.03 18:57:09.
