data_PCOD9507694
_publ_section_title
;
Structure prediction by ZEFSAII (Michael W. Deem and Ramdas Pophale) SiO2 
 PCOD9507694
Probable space group: C C C A
;
_chemical_formula_sum "Si O2"
_cell_formula_units_Z 120
_cell_length_a 18.156737
_cell_length_b 28.378002
_cell_length_c 11.453752
_cell_angle_alpha 90.000000
_cell_angle_beta 90.000000
_cell_angle_gamma 90.000000
_cell_volume 5901.567697
_symmetry_space_group_name_H-M "C C C A"
_symmetry_group_IT_number 68
_space_group.IT_coordinate_system_code '2'
_symmetry_cell_setting 'orthorhombic'
loop_
_space_group_symop_operation_xyz
x,y,z
-x,1/2-y,z
x,1/2-y,1/2-z
-x,y,1/2-z
-x,-y,-z
x,1/2+y,-z
-x,1/2+y,1/2+z
x,-y,1/2+z
1/2+x,1/2+y,z
1/2-x,-y,z
1/2+x,-y,1/2-z
1/2-x,1/2+y,1/2-z
1/2-x,1/2-y,-z
1/2+x,y,-z
1/2-x,y,1/2+z
1/2+x,1/2-y,1/2+z
loop_
_atom_site_type_symbol
_atom_site_label
_atom_site_fract_x
_atom_site_fract_y
_atom_site_fract_z
Si Si1 0.691700 0.750000 0.250000
Si Si2 0.982428 0.386188 0.117653
Si Si3 0.666878 0.985135 0.619940
Si Si4 0.457565 0.084101 0.096103
Si Si5 0.383217 0.114167 0.314026
Si Si6 0.162440 0.779926 0.358060
Si Si7 0.427752 0.283321 0.913848
Si Si8 0.594341 0.013249 0.868768
O O1 0.749740 0.730281 0.346158
O O2 0.633409 0.715473 0.188773
O O3 0.952279 0.337054 0.068847
O O4 0.932377 0.433182 0.118388
O O5 0.000000 0.375813 0.250000
O O6 0.050798 0.402386 0.038057
O O7 0.661051 0.928661 0.630859
O O8 0.640490 0.997311 0.487784
O O9 0.750000 0.000000 0.631153
O O10 0.626797 0.005572 0.737770
O O11 0.392807 0.103392 0.176591
O O12 0.534090 0.107636 0.136136
O O13 0.466357 0.028335 0.118911
O O14 0.350826 0.164962 0.337213
O O15 0.130372 0.750000 0.250000
O O16 0.118291 0.766088 0.473685
O O17 0.500000 0.250000 0.894031
#
# Coordination Sequence:
#
# PCOD9507694 Si02
#       8
#     8  16  16  16  16  16  16  16
#     4  10  25  46  67  92 140 186 212 276 359 414
#     4  12  24  37  64  98 131 172 219 271 346 415
#     4  11  23  40  62  89 135 175 222 276 337 409
#     4  10  21  37  65  93 135 157 217 278 347 373
#     4  10  21  41  65  98 126 169 213 293 327 400
#     4  10  24  43  75  96 127 179 238 270 349 417
#     4  12  25  46  68 101 141 171 229 296 340 404
#     4  11  23  40  63  94 129 176 221 273 339 417
#
# _framework density 20.333579
#
# number of rings (size 3 to 8) (size 9 to 14) (size 15 to 20)
#    0.400    0.800    2.667    3.000    5.600    1.333 
#    0.000    4.000    0.000    0.000    0.000    0.000 
#    0.000    0.000    0.000    0.000    0.000    0.000 
#
# Total GULP energy -334223.312771 kJ/mol
# GULP energy per Si atom -5570.388546 kJ/mol
# Density = 2.028730 g / cm^3
# Si number density = 20.333579 Si / 1000 Ang^3
#
#
#
# Elastic Constant Matrix: (Units=GPa)
#
#
# Indices 1 2 3 4 5 6 
#
# 1 83.3627 34.8956 27.4058 0.0000 0.0000 0.0000
# 2 34.8956 100.5277 0.6234 0.0000 0.0000 0.0000
# 3 27.4058 0.6234 116.4966 0.0000 0.0000 0.0000
# 4 0.0000 0.0000 0.0000 26.9688 0.0000 0.0000
# 5 0.0000 0.0000 0.0000 0.0000 31.2001 0.0000
# 6 0.0000 0.0000 0.0000 0.0000 0.0000 -10.1803
#
#
#
# Elastic Compliance Matrix: (Units=1/GPa)
#
#
# Indices 1 2 3 4 5 6 
#
# 1 0.015407 -0.005326 -0.003596 0.000000 0.000000 0.000000
# 2 -0.005326 0.011789 0.001190 0.000000 0.000000 0.000000
# 3 -0.003596 0.001190 0.009424 0.000000 0.000000 0.000000
# 4 0.000000 0.000000 0.000000 0.037080 0.000000 0.000000
# 5 0.000000 0.000000 0.000000 0.000000 0.032051 0.000000
# 6 0.000000 0.000000 0.000000 0.000000 0.000000 -0.098229
#
#
# Mechanical properties :
#
#
# Convention : Reuss Voigt Hill
#
# Bulk Modulus (GPa) = 47.26918 47.35962 47.31440
# Shear Modulus (GPa) = 166.45436 25.42854 95.94145
#
# Velocity S-wave (km/s) = 9.05757 3.54017 6.87649
# Velocity P-wave (km/s) = 11.51883 6.32869 9.29343
#
# Compressibility (1/GPa) = 0.02115544
#
# Stress axis : x y z
#
# Youngs Moduli (GPa) = 64.90365 84.82555 106.11703
#
# Poissons Ratio (x) = 0.45178 0.38161
# Poissons Ratio (y) = 0.34568 -0.12626
# Poissons Ratio (z) = 0.23340 -0.10093
#
# Static dielectric constant tensor:
#      x y z
#    x 1.732060 0.000000 0.000000 
#    y 0.000000 1.705370 0.000000 
#    z 0.000000 0.000000 1.845550 
# 
# From -- ./inp_files/15813.got.cif
#   From: 2010.05.17/outbox.cif.g08.bks.cpg/sg68_8_cif.got.tgz:15813.got - 2010.06.03 18:57:09.
