data_PCOD9507751
_publ_section_title
;
Structure prediction by ZEFSAII (Michael W. Deem and Ramdas Pophale) SiO2 
 PCOD9507751
Probable space group: C C C A
;
_chemical_formula_sum "Si O2"
_cell_formula_units_Z 112
_cell_length_a 19.738175
_cell_length_b 17.738615
_cell_length_c 12.474136
_cell_angle_alpha 90.000000
_cell_angle_beta 90.000000
_cell_angle_gamma 90.000000
_cell_volume 4367.542881
_symmetry_space_group_name_H-M "C C C A"
_symmetry_group_IT_number 68
_space_group.IT_coordinate_system_code '2'
_symmetry_cell_setting 'orthorhombic'
loop_
_space_group_symop_operation_xyz
x,y,z
-x,1/2-y,z
x,1/2-y,1/2-z
-x,y,1/2-z
-x,-y,-z
x,1/2+y,-z
-x,1/2+y,1/2+z
x,-y,1/2+z
1/2+x,1/2+y,z
1/2-x,-y,z
1/2+x,-y,1/2-z
1/2-x,1/2+y,1/2-z
1/2-x,1/2-y,-z
1/2+x,y,-z
1/2-x,y,1/2+z
1/2+x,1/2-y,1/2+z
loop_
_atom_site_type_symbol
_atom_site_label
_atom_site_fract_x
_atom_site_fract_y
_atom_site_fract_z
Si Si1 0.806590 0.418431 0.187687
Si Si2 0.849972 0.987253 0.504659
Si Si3 0.581975 0.758810 0.931645
Si Si4 0.265673 0.887432 0.894747
Si Si5 0.921343 0.862043 0.245928
Si Si6 0.567565 0.962833 0.189222
Si Si7 0.315841 0.257325 0.876094
O O1 0.744921 0.415283 0.271000
O O2 0.871890 0.412325 0.265156
O O3 0.797582 0.345170 0.114180
O O4 0.829710 0.488240 0.114408
O O5 0.829303 0.064630 0.565889
O O6 0.921861 0.964586 0.559246
O O7 0.796018 0.925560 0.539935
O O8 0.500000 0.750000 0.950603
O O9 0.604546 0.690630 0.851138
O O10 0.602185 0.833131 0.862373
O O11 0.623124 0.757823 0.041999
O O12 0.247044 0.799268 0.894618
O O13 0.922693 0.950728 0.227408
O O14 0.000000 0.839458 0.250000
O O15 0.500000 0.936985 0.250000
O O16 0.333862 0.250000 0.750000
#
# Coordination Sequence:
#
# PCOD9507751 Si02
#       7
#    16  16  16  16  16  16  16
#     4  10  22  40  61  87 129 164 208 261 312 385
#     4  10  21  39  65  87 117 160 206 263 319 367
#     4   9  17  32  55  85 119 165 210 258 315 372
#     4   9  22  41  60  88 121 158 212 259 313 372
#     4   8  16  32  55  83 120 156 206 263 313 370
#     4  10  21  38  60  94 129 164 207 260 315 380
#     4  10  21  39  56  82 126 163 205 259 307 384
#
# _framework density 25.643708
#
# number of rings (size 3 to 8) (size 9 to 14) (size 15 to 20)
#    0.000    2.571    0.000    1.714    2.000    6.000 
#    7.714    0.000    6.286    0.000    0.000    0.000 
#    0.000    0.000    0.000    0.000    0.000    0.000 
#
# Total GULP energy -312604.407278 kJ/mol
# GULP energy per Si atom -5582.221559 kJ/mol
# Density = 2.558534 g / cm^3
# Si number density = 25.643708 Si / 1000 Ang^3
#
#
#
# Elastic Constant Matrix: (Units=GPa)
#
#
# Indices 1 2 3 4 5 6 
#
# 1 71.1902 -5.9640 36.1724 0.0000 0.0000 0.0000
# 2 -5.9640 95.6938 -0.6322 0.0000 0.0000 0.0000
# 3 36.1724 -0.6322 123.5170 0.0000 0.0000 0.0000
# 4 0.0000 0.0000 0.0000 35.4987 0.0000 0.0000
# 5 0.0000 0.0000 0.0000 0.0000 36.9654 0.0000
# 6 0.0000 0.0000 0.0000 0.0000 0.0000 29.3272
#
#
#
# Elastic Compliance Matrix: (Units=1/GPa)
#
#
# Indices 1 2 3 4 5 6 
#
# 1 0.016598 0.001002 -0.004856 0.000000 0.000000 0.000000
# 2 0.001002 0.010511 -0.000240 0.000000 0.000000 0.000000
# 3 -0.004856 -0.000240 0.009517 0.000000 0.000000 0.000000
# 4 0.000000 0.000000 0.000000 0.028170 0.000000 0.000000
# 5 0.000000 0.000000 0.000000 0.000000 0.027052 0.000000
# 6 0.000000 0.000000 0.000000 0.000000 0.000000 0.034098
#
#
# Mechanical properties :
#
#
# Convention : Reuss Voigt Hill
#
# Bulk Modulus (GPa) = 35.16217 38.83929 37.00073
# Shear Modulus (GPa) = 34.81599 37.74658 36.28129
#
# Velocity S-wave (km/s) = 3.68867 3.84078 3.76549
# Velocity P-wave (km/s) = 5.64653 5.90317 5.77627
#
# Compressibility (1/GPa) = 0.02843966
#
# Stress axis : x y z
#
# Youngs Moduli (GPa) = 60.24802 95.13950 105.07710
#
# Poissons Ratio (x) = -0.09536 0.51022
# Poissons Ratio (y) = -0.06039 0.02519
# Poissons Ratio (z) = 0.29254 0.02281
#
# Static dielectric constant tensor:
#      x y z
#    x 2.040440 0.000000 0.000000 
#    y 0.000000 2.050530 0.000000 
#    z 0.000000 0.000000 2.162450 
# 
# From -- ./inp_files/16550.got.cif
#   From: 2010.05.17/outbox.cif.g08.bks.cpg/sg68_9_cif.got.tgz:16550.got - 2010.06.03 18:57:09.
