data_PCOD9507392
_publ_section_title
;
Structure prediction by ZEFSAII (Michael W. Deem and Ramdas Pophale) SiO2 
 PCOD9507392
Probable space group: C C C A
;
_chemical_formula_sum "Si O2"
_cell_formula_units_Z 104
_cell_length_a 15.068657
_cell_length_b 24.330141
_cell_length_c 12.787020
_cell_angle_alpha 90.000000
_cell_angle_beta 90.000000
_cell_angle_gamma 90.000000
_cell_volume 4688.009873
_symmetry_space_group_name_H-M "C C C A"
_symmetry_group_IT_number 68
_space_group.IT_coordinate_system_code '2'
_symmetry_cell_setting 'orthorhombic'
loop_
_space_group_symop_operation_xyz
x,y,z
-x,1/2-y,z
x,1/2-y,1/2-z
-x,y,1/2-z
-x,-y,-z
x,1/2+y,-z
-x,1/2+y,1/2+z
x,-y,1/2+z
1/2+x,1/2+y,z
1/2-x,-y,z
1/2+x,-y,1/2-z
1/2-x,1/2+y,1/2-z
1/2-x,1/2-y,-z
1/2+x,y,-z
1/2-x,y,1/2+z
1/2+x,1/2-y,1/2+z
loop_
_atom_site_type_symbol
_atom_site_label
_atom_site_fract_x
_atom_site_fract_y
_atom_site_fract_z
Si Si1 0.750000 0.000000 0.080334
Si Si2 0.849131 0.250000 0.750000
Si Si3 0.235014 0.818275 0.908186
Si Si4 0.472351 0.692387 0.041885
Si Si5 0.066264 0.137537 0.661807
Si Si6 0.162496 0.918816 0.788755
Si Si7 0.500000 0.147289 0.750000
Si Si8 0.754954 0.600307 0.577364
O O1 0.675036 0.977503 0.158974
O O2 0.762349 0.948262 0.006029
O O3 0.789010 0.272699 0.846009
O O4 0.902599 0.303027 0.708179
O O5 0.132429 0.803132 0.929326
O O6 0.229476 0.872515 0.834402
O O7 0.272171 0.842181 0.017317
O O8 0.500000 0.750000 0.994210
O O9 0.526855 0.683784 0.150137
O O10 0.482187 0.648103 0.949535
O O11 0.156387 0.105257 0.629051
O O12 0.000000 0.113658 0.750000
O O13 0.177710 0.916191 0.666625
O O14 0.067902 0.892738 0.807420
#
# Coordination Sequence:
#
# PCOD9507392 Si02
#       8
#     8   8  16  16  16  16   8  16
#     4  10  22  42  74  92 124 162 228 284 352 406
#     4  12  21  38  61  96 142 188 230 273 324 404
#     4   9  22  35  58  96 130 170 232 261 321 399
#     4  10  21  36  56  90 136 183 221 268 324 390
#     4  11  24  40  62  96 141 181 228 278 334 402
#     4  10  20  42  65  93 124 168 212 279 336 403
#     4  10  23  38  64  94 134 168 220 277 334 396
#     4  10  21  42  68  93 125 176 217 284 340 402
#
# _framework density 22.184253999999999
#
# number of rings (size 3 to 8) (size 9 to 14) (size 15 to 20)
#    0.000    1.846    1.538    2.769    4.308    4.923 
#    0.000    0.769    6.769    0.000    0.000    0.000 
#    0.000    0.000    0.000    0.000    0.000    0.000 
#
# Total GULP energy -289953.066320 kJ/mol
# GULP energy per Si atom -5576.020506 kJ/mol
# Density = 2.213376 g / cm^3
# Si number density = 22.184254 Si / 1000 Ang^3
#
#
#
# Elastic Constant Matrix: (Units=GPa)
#
#
# Indices 1 2 3 4 5 6 
#
# 1 27.6154 22.9193 16.6469 0.0000 0.0000 0.0000
# 2 22.9193 69.8574 14.5614 0.0000 0.0000 0.0000
# 3 16.6469 14.5614 109.6759 0.0000 0.0000 0.0000
# 4 0.0000 0.0000 0.0000 42.1495 0.0000 0.0000
# 5 0.0000 0.0000 0.0000 0.0000 -18.6685 0.0000
# 6 0.0000 0.0000 0.0000 0.0000 0.0000 26.3547
#
#
#
# Elastic Compliance Matrix: (Units=1/GPa)
#
#
# Indices 1 2 3 4 5 6 
#
# 1 0.053263 -0.016239 -0.005928 0.000000 0.000000 0.000000
# 2 -0.016239 0.019673 -0.000147 0.000000 0.000000 0.000000
# 3 -0.005928 -0.000147 0.010037 0.000000 0.000000 0.000000
# 4 0.000000 0.000000 0.000000 0.023725 0.000000 0.000000
# 5 0.000000 0.000000 0.000000 0.000000 -0.053566 0.000000
# 6 0.000000 0.000000 0.000000 0.000000 0.000000 0.037944
#
#
# Mechanical properties :
#
#
# Convention : Reuss Voigt Hill
#
# Bulk Modulus (GPa) = 26.07960 35.04487 30.56223
# Shear Modulus (GPa) = 33.67297 20.16854 26.92075
#
# Velocity S-wave (km/s) = 3.90022 3.01846 3.48732
# Velocity P-wave (km/s) = 5.66248 5.28958 5.47920
#
# Compressibility (1/GPa) = 0.03834415
#
# Stress axis : x y z
#
# Youngs Moduli (GPa) = 18.77477 50.83003 99.62997
#
# Poissons Ratio (x) = 0.82544 0.59064
# Poissons Ratio (y) = 0.30489 0.01466
# Poissons Ratio (z) = 0.11130 0.00748
#
# Static dielectric constant tensor:
#      x y z
#    x 2.028450 0.000000 0.000000 
#    y 0.000000 1.861030 0.000000 
#    z 0.000000 0.000000 1.996420 
# 
# From -- ./inp_files/14807.got.cif
#   From: 2010.05.17/outbox.cif.g08.bks.cpg/sg68_8_cif.got.tgz:14807.got - 2010.06.03 18:57:09.
