data_PCOD9507736
_publ_section_title
;
Structure prediction by ZEFSAII (Michael W. Deem and Ramdas Pophale) SiO2 
 PCOD9507736
Probable space group: C C C A
;
_chemical_formula_sum "Si O2"
_cell_formula_units_Z 60
_cell_length_a 29.513093
_cell_length_b 18.270253
_cell_length_c 5.160100
_cell_angle_alpha 90.000000
_cell_angle_beta 90.000000
_cell_angle_gamma 90.000000
_cell_volume 2782.386169
_symmetry_space_group_name_H-M "C C C A"
_symmetry_group_IT_number 68
_space_group.IT_coordinate_system_code '2'
_symmetry_cell_setting 'orthorhombic'
loop_
_space_group_symop_operation_xyz
x,y,z
-x,1/2-y,z
x,1/2-y,1/2-z
-x,y,1/2-z
-x,-y,-z
x,1/2+y,-z
-x,1/2+y,1/2+z
x,-y,1/2+z
1/2+x,1/2+y,z
1/2-x,-y,z
1/2+x,-y,1/2-z
1/2-x,1/2+y,1/2-z
1/2-x,1/2-y,-z
1/2+x,y,-z
1/2-x,y,1/2+z
1/2+x,1/2-y,1/2+z
loop_
_atom_site_type_symbol
_atom_site_label
_atom_site_fract_x
_atom_site_fract_y
_atom_site_fract_z
Si Si1 0.380633 0.540241 0.111446
Si Si2 0.717647 0.588440 0.306483
Si Si3 0.500000 0.250000 0.750000
Si Si4 0.411800 0.796840 0.492165
Si Si5 0.281942 0.250000 0.750000
O O1 0.396731 0.518348 0.398056
O O2 0.325964 0.539191 0.142031
O O3 0.394867 0.620325 0.012714
O O4 0.751375 0.580885 0.551031
O O5 0.696441 0.670267 0.272989
O O6 0.534215 0.204009 0.570550
O O7 0.402263 0.750000 0.750000
O O8 0.392806 0.750000 0.250000
O O9 0.250000 0.250000 0.500000
#
# Coordination Sequence:
#
# PCOD9507736 Si02
#       5
#    16  16   4  16   8
#     4  12  26  42  62  99 141 177 218 274 343 387
#     4  10  21  38  59  86 123 177 232 276 316 376
#     4   8  22  42  82 104 118 168 232 252 322 406
#     4  10  22  44  73 100 130 169 222 265 321 404
#     4   8  16  31  50  78 106 141 210 281 318 343
#
# _framework density 21.564225
#
# number of rings (size 3 to 8) (size 9 to 14) (size 15 to 20)
#    0.800    1.067    0.000    3.600    1.867    3.200 
#    9.600    1.333    0.000    0.000    0.000    0.000 
#    0.000    0.000    0.000    0.000    0.000    0.000 
#
# Total GULP energy -167252.383293 kJ/mol
# GULP energy per Si atom -5575.079443 kJ/mol
# Density = 2.151514 g / cm^3
# Si number density = 21.564225 Si / 1000 Ang^3
#
#
#
# Elastic Constant Matrix: (Units=GPa)
#
#
# Indices 1 2 3 4 5 6 
#
# 1 65.3258 9.9392 20.1674 0.0000 0.0000 0.0000
# 2 9.9392 103.7644 37.9795 0.0000 0.0000 0.0000
# 3 20.1674 37.9795 181.6842 0.0000 0.0000 0.0000
# 4 0.0000 0.0000 0.0000 17.5909 0.0000 0.0000
# 5 0.0000 0.0000 0.0000 0.0000 -3.3872 0.0000
# 6 0.0000 0.0000 0.0000 0.0000 0.0000 25.1570
#
#
#
# Elastic Compliance Matrix: (Units=1/GPa)
#
#
# Indices 1 2 3 4 5 6 
#
# 1 0.015937 -0.000952 -0.001570 0.000000 0.000000 0.000000
# 2 -0.000952 0.010493 -0.002088 0.000000 0.000000 0.000000
# 3 -0.001570 -0.002088 0.006115 0.000000 0.000000 0.000000
# 4 0.000000 0.000000 0.000000 0.056848 0.000000 0.000000
# 5 0.000000 0.000000 0.000000 0.000000 -0.295231 0.000000
# 6 0.000000 0.000000 0.000000 0.000000 0.000000 0.039750
#
#
# Mechanical properties :
#
#
# Convention : Reuss Voigt Hill
#
# Bulk Modulus (GPa) = 42.87194 54.10520 48.48857
# Shear Modulus (GPa) = -33.53588 26.71802 -3.40893
#
# Velocity S-wave (km/s) = -3.94783 3.52376 -1.25867
# Velocity P-wave (km/s) = 0.92537 6.45760 4.51908
#
# Compressibility (1/GPa) = 0.02332528
#
# Stress axis : x y z
#
# Youngs Moduli (GPa) = 62.74535 95.30590 163.53872
#
# Poissons Ratio (x) = 0.09072 0.25677
# Poissons Ratio (y) = 0.05973 0.34142
# Poissons Ratio (z) = 0.09852 0.19897
#
# Static dielectric constant tensor:
#      x y z
#    x 1.783010 0.000000 0.000000 
#    y 0.000000 1.847650 0.000000 
#    z 0.000000 0.000000 1.727400 
# 
# From -- ./inp_files/2663.got.cif
#   From: 2010.05.17/outbox.cif.g08.bks.cpg/sg68_2_cif.got.tgz:2663.got - 2010.06.03 18:57:09.
