data_PCOD9507076
_publ_section_title
;
Structure prediction by ZEFSAII (Michael W. Deem and Ramdas Pophale) SiO2 
 PCOD9507076
Probable space group: C C C A
;
_chemical_formula_sum "Si O2"
_cell_formula_units_Z 88
_cell_length_a 11.201765
_cell_length_b 17.242856
_cell_length_c 22.641360
_cell_angle_alpha 90.000000
_cell_angle_beta 90.000000
_cell_angle_gamma 90.000000
_cell_volume 4373.188212
_symmetry_space_group_name_H-M "C C C A"
_symmetry_group_IT_number 68
_space_group.IT_coordinate_system_code '2'
_symmetry_cell_setting 'orthorhombic'
loop_
_space_group_symop_operation_xyz
x,y,z
-x,1/2-y,z
x,1/2-y,1/2-z
-x,y,1/2-z
-x,-y,-z
x,1/2+y,-z
-x,1/2+y,1/2+z
x,-y,1/2+z
1/2+x,1/2+y,z
1/2-x,-y,z
1/2+x,-y,1/2-z
1/2-x,1/2+y,1/2-z
1/2-x,1/2-y,-z
1/2+x,y,-z
1/2-x,y,1/2+z
1/2+x,1/2-y,1/2+z
loop_
_atom_site_type_symbol
_atom_site_label
_atom_site_fract_x
_atom_site_fract_y
_atom_site_fract_z
Si Si1 0.743334 0.589525 0.256657
Si Si2 0.422498 0.823193 0.347313
Si Si3 0.000000 0.076458 0.750000
Si Si4 0.624993 0.465159 0.023277
Si Si5 0.593004 0.036875 0.850527
Si Si6 0.130352 0.791329 0.977181
O O1 0.750000 0.500000 0.280198
O O2 0.656198 0.641370 0.295127
O O3 0.877176 0.621413 0.258130
O O4 0.694936 0.576890 0.190173
O O5 0.500000 0.750000 0.327042
O O6 0.509057 0.892259 0.368491
O O7 0.353495 0.799293 0.406378
O O8 0.975140 0.019707 0.805194
O O9 0.750000 0.500000 0.997907
O O10 0.626118 0.488112 0.092283
O O11 0.500000 0.500000 0.000000
O O12 0.624460 0.374617 0.008704
O O13 0.000000 0.750000 0.985648
O O14 0.250000 0.750000 0.000000
#
# Coordination Sequence:
#
# PCOD9507076 Si02
#       6
#    16  16   8  16  16  16
#     4  10  20  39  65 101 138 170 226 293 341 406
#     4  11  23  41  71  96 136 186 234 272 345 424
#     4  10  20  38  63  97 140 164 220 302 342 388
#     4  12  25  42  73 102 130 183 239 282 346 421
#     4  11  21  41  66 102 131 181 233 283 337 423
#     4  11  26  48  66 102 144 181 230 294 347 411
#
# _framework density 20.122619
#
# number of rings (size 3 to 8) (size 9 to 14) (size 15 to 20)
#    0.000    1.091    5.455    2.727    2.545    5.091 
#    0.000    0.000    0.000    1.091    0.000    0.000 
#    0.000    0.000    0.000    0.000    0.000    0.000 
#
# Total GULP energy -245572.239358 kJ/mol
# GULP energy per Si atom -5581.187258 kJ/mol
# Density = 2.007682 g / cm^3
# Si number density = 20.122619 Si / 1000 Ang^3
#
#
#
# Elastic Constant Matrix: (Units=GPa)
#
#
# Indices 1 2 3 4 5 6 
#
# 1 151.0952 58.9860 71.7303 0.0000 0.0000 0.0000
# 2 58.9860 117.9239 54.2053 0.0000 0.0000 0.0000
# 3 71.7303 54.2053 128.6112 0.0000 0.0000 0.0000
# 4 0.0000 0.0000 0.0000 26.7933 0.0000 0.0000
# 5 0.0000 0.0000 0.0000 0.0000 32.5955 0.0000
# 6 0.0000 0.0000 0.0000 0.0000 0.0000 35.2446
#
#
#
# Elastic Compliance Matrix: (Units=1/GPa)
#
#
# Indices 1 2 3 4 5 6 
#
# 1 0.009766 -0.002954 -0.004202 0.000000 0.000000 0.000000
# 2 -0.002954 0.011411 -0.003162 0.000000 0.000000 0.000000
# 3 -0.004202 -0.003162 0.011452 0.000000 0.000000 0.000000
# 4 0.000000 0.000000 0.000000 0.037323 0.000000 0.000000
# 5 0.000000 0.000000 0.000000 0.000000 0.030679 0.000000
# 6 0.000000 0.000000 0.000000 0.000000 0.000000 0.028373
#
#
# Mechanical properties :
#
#
# Convention : Reuss Voigt Hill
#
# Bulk Modulus (GPa) = 83.37865 85.27481 84.32673
# Shear Modulus (GPa) = 32.54422 33.10726 32.82574
#
# Velocity S-wave (km/s) = 4.02592 4.06060 4.04330
# Velocity P-wave (km/s) = 7.94582 8.02834 7.98718
#
# Compressibility (1/GPa) = 0.01199348
#
# Stress axis : x y z
#
# Youngs Moduli (GPa) = 102.39305 87.63556 87.32327
#
# Poissons Ratio (x) = 0.25884 0.36694
# Poissons Ratio (y) = 0.30243 0.27612
# Poissons Ratio (z) = 0.43027 0.27710
#
# Static dielectric constant tensor:
#      x y z
#    x 1.807610 0.000000 0.000000 
#    y 0.000000 1.701840 0.000000 
#    z 0.000000 0.000000 1.704600 
# 
# From -- ./inp_files/37440.got.cif
#   From: 2010.05.17/outbox.cif.g08.bks.cpg/sg68_19_cif.got.tgz:37440.got - 2010.06.03 18:57:09.
