data_PCOD9507353
_publ_section_title
;
Structure prediction by ZEFSAII (Michael W. Deem and Ramdas Pophale) SiO2 
 PCOD9507353
Probable space group: C C C A
;
_chemical_formula_sum "Si O2"
_cell_formula_units_Z 100
_cell_length_a 15.728219
_cell_length_b 14.484549
_cell_length_c 21.797531
_cell_angle_alpha 90.000000
_cell_angle_beta 90.000000
_cell_angle_gamma 90.000000
_cell_volume 4965.829783
_symmetry_space_group_name_H-M "C C C A"
_symmetry_group_IT_number 68
_space_group.IT_coordinate_system_code '2'
_symmetry_cell_setting 'orthorhombic'
loop_
_space_group_symop_operation_xyz
x,y,z
-x,1/2-y,z
x,1/2-y,1/2-z
-x,y,1/2-z
-x,-y,-z
x,1/2+y,-z
-x,1/2+y,1/2+z
x,-y,1/2+z
1/2+x,1/2+y,z
1/2-x,-y,z
1/2+x,-y,1/2-z
1/2-x,1/2+y,1/2-z
1/2-x,1/2-y,-z
1/2+x,y,-z
1/2-x,y,1/2+z
1/2+x,1/2-y,1/2+z
loop_
_atom_site_type_symbol
_atom_site_label
_atom_site_fract_x
_atom_site_fract_y
_atom_site_fract_z
Si Si1 0.037168 0.652760 0.007170
Si Si2 0.910462 0.987931 0.424235
Si Si3 0.092630 0.296378 0.638157
Si Si4 0.786264 0.627322 0.154358
Si Si5 0.000000 0.750000 0.750000
Si Si6 0.339031 0.037782 0.284205
Si Si7 0.404892 0.592363 0.310990
O O1 0.091079 0.684202 0.065854
O O2 0.000000 0.750000 0.980417
O O3 0.963694 0.588104 0.037775
O O4 0.088535 0.582196 0.963851
O O5 0.827320 0.933649 0.400144
O O6 0.949522 0.023280 0.359111
O O7 0.169558 0.226469 0.651186
O O8 0.110797 0.390269 0.674451
O O9 0.000000 0.250000 0.653410
O O10 0.813867 0.587986 0.220534
O O11 0.685564 0.616834 0.157512
O O12 0.947549 0.687029 0.704250
O O13 0.250000 0.000000 0.311993
O O14 0.392394 0.954003 0.255836
#
# Coordination Sequence:
#
# PCOD9507353 Si02
#       7
#    16  16  16  16   4  16  16
#     4  10  21  38  65  98 129 167 225 274 314 385
#     4  10  20  42  65  89 130 176 212 264 328 376
#     4  11  21  37  65 103 127 163 226 273 325 393
#     4  10  20  41  65  89 129 172 207 266 330 393
#     4  12  28  40  60  96 124 172 232 256 322 424
#     4   9  21  37  59  89 131 171 199 267 341 383
#     4  10  25  42  63  88 129 171 217 263 330 402
#
# _framework density 20.137620999999999
#
# number of rings (size 3 to 8) (size 9 to 14) (size 15 to 20)
#    0.000    1.920    3.200    1.920    7.840    1.280 
#    0.000    2.400    0.000    0.000    0.000    0.000 
#    0.000    0.000    0.000    0.000    0.000    0.000 
#
# Total GULP energy -278614.230780 kJ/mol
# GULP energy per Si atom -5572.284616 kJ/mol
# Density = 2.009179 g / cm^3
# Si number density = 20.137621 Si / 1000 Ang^3
#
#
#
# Elastic Constant Matrix: (Units=GPa)
#
#
# Indices 1 2 3 4 5 6 
#
# 1 67.1097 56.8020 38.9192 0.0000 0.0000 0.0000
# 2 56.8020 152.6910 30.3171 0.0000 0.0000 0.0000
# 3 38.9192 30.3171 47.2710 0.0000 0.0000 0.0000
# 4 0.0000 0.0000 0.0000 45.7557 0.0000 0.0000
# 5 0.0000 0.0000 0.0000 0.0000 5.6439 0.0000
# 6 0.0000 0.0000 0.0000 0.0000 0.0000 175.9036
#
#
#
# Elastic Compliance Matrix: (Units=1/GPa)
#
#
# Indices 1 2 3 4 5 6 
#
# 1 0.036419 -0.008703 -0.024403 0.000000 0.000000 0.000000
# 2 -0.008703 0.009585 0.001018 0.000000 0.000000 0.000000
# 3 -0.024403 0.001018 0.040593 0.000000 0.000000 0.000000
# 4 0.000000 0.000000 0.000000 0.021855 0.000000 0.000000
# 5 0.000000 0.000000 0.000000 0.000000 0.177183 0.000000
# 6 0.000000 0.000000 0.000000 0.000000 0.000000 0.005685
#
#
# Mechanical properties :
#
#
# Convention : Reuss Voigt Hill
#
# Bulk Modulus (GPa) = 44.60025 57.68315 51.14170
# Shear Modulus (GPa) = 13.77524 54.86287 34.31905
#
# Velocity S-wave (km/s) = 2.61828 5.22524 4.13271
# Velocity P-wave (km/s) = 5.59789 8.06913 6.94432
#
# Compressibility (1/GPa) = 0.02242140
#
# Stress axis : x y z
#
# Youngs Moduli (GPa) = 27.45791 104.33472 24.63468
#
# Poissons Ratio (x) = 0.90802 0.60116
# Poissons Ratio (y) = 0.23896 -0.02508
# Poissons Ratio (z) = 0.67006 -0.10624
#
# Static dielectric constant tensor:
#      x y z
#    x 1.770230 0.000000 0.000000 
#    y 0.000000 2.091930 0.000000 
#    z 0.000000 0.000000 1.708280 
# 
# From -- ./inp_files/45476.got.cif
#   From: 2010.05.17/outbox.cif.g08.bks.cpg/sg68_23_cif.got.tgz:45476.got - 2010.06.03 18:57:09.
