data_PCOD9507930
_publ_section_title
;
Structure prediction by ZEFSAII (Michael W. Deem and Ramdas Pophale) SiO2 
 PCOD9507930
Probable space group: C C C A
;
_chemical_formula_sum "Si O2"
_cell_formula_units_Z 80
_cell_length_a 9.041763
_cell_length_b 24.870838
_cell_length_c 15.458193
_cell_angle_alpha 90.000000
_cell_angle_beta 90.000000
_cell_angle_gamma 90.000000
_cell_volume 3476.180053
_symmetry_space_group_name_H-M "C C C A"
_symmetry_group_IT_number 68
_space_group.IT_coordinate_system_code '2'
_symmetry_cell_setting 'orthorhombic'
loop_
_space_group_symop_operation_xyz
x,y,z
-x,1/2-y,z
x,1/2-y,1/2-z
-x,y,1/2-z
-x,-y,-z
x,1/2+y,-z
-x,1/2+y,1/2+z
x,-y,1/2+z
1/2+x,1/2+y,z
1/2-x,-y,z
1/2+x,-y,1/2-z
1/2-x,1/2+y,1/2-z
1/2-x,1/2-y,-z
1/2+x,y,-z
1/2-x,y,1/2+z
1/2+x,1/2-y,1/2+z
loop_
_atom_site_type_symbol
_atom_site_label
_atom_site_fract_x
_atom_site_fract_y
_atom_site_fract_z
Si Si1 0.183278 0.446843 0.561198
Si Si2 0.556310 0.306507 0.877007
Si Si3 0.919420 0.396636 0.657106
Si Si4 0.252696 0.335900 0.468368
Si Si5 0.153694 0.411745 0.227765
O O1 0.250000 0.500000 0.518137
O O2 0.229529 0.395415 0.506511
O O3 0.274548 0.442145 0.649313
O O4 0.016264 0.436025 0.596115
O O5 0.500000 0.250000 0.840486
O O6 0.405508 0.324339 0.925755
O O7 0.617383 0.351361 0.809729
O O8 0.683836 0.301564 0.951001
O O9 0.882914 0.342679 0.602843
O O10 0.758837 0.414516 0.689938
O O11 0.000000 0.387036 0.750000
O O12 0.000000 0.438118 0.250000
#
# Coordination Sequence:
#
# PCOD9507930 Si02
#       5
#    16  16  16  16  16
#     4  10  23  41  65  96 125 171 221 265 333 405
#     4  11  23  40  67  96 129 179 235 274 331 396
#     4  10  21  41  63  88 136 170 210 274 336 389
#     4  11  21  42  65  92 132 173 219 289 326 388
#     4  10  21  39  64  91 133 175 210 278 331 384
#
# _framework density 23.013769
#
# number of rings (size 3 to 8) (size 9 to 14) (size 15 to 20)
#    0.000    1.600    4.000    0.600    0.000    3.600 
#    0.000    4.000    0.000    0.000    0.000    0.000 
#    0.000    0.000    0.000    0.000    0.000    0.000 
#
# Total GULP energy -223010.810855 kJ/mol
# GULP energy per Si atom -5575.270271 kJ/mol
# Density = 2.296139 g / cm^3
# Si number density = 23.013769 Si / 1000 Ang^3
#
#
#
# Elastic Constant Matrix: (Units=GPa)
#
#
# Indices 1 2 3 4 5 6 
#
# 1 139.1768 8.2759 26.3363 0.0000 0.0000 0.0000
# 2 8.2759 85.2645 8.0237 0.0000 0.0000 0.0000
# 3 26.3363 8.0237 75.0379 0.0000 0.0000 0.0000
# 4 0.0000 0.0000 0.0000 0.4760 0.0000 0.0000
# 5 0.0000 0.0000 0.0000 0.0000 33.1507 0.0000
# 6 0.0000 0.0000 0.0000 0.0000 0.0000 12.0723
#
#
#
# Elastic Compliance Matrix: (Units=1/GPa)
#
#
# Indices 1 2 3 4 5 6 
#
# 1 0.007717 -0.000499 -0.002655 0.000000 0.000000 0.000000
# 2 -0.000499 0.011880 -0.001095 0.000000 0.000000 0.000000
# 3 -0.002655 -0.001095 0.014376 0.000000 0.000000 0.000000
# 4 0.000000 0.000000 0.000000 2.100887 0.000000 0.000000
# 5 0.000000 0.000000 0.000000 0.000000 0.030165 0.000000
# 6 0.000000 0.000000 0.000000 0.000000 0.000000 0.082835
#
#
# Mechanical properties :
#
#
# Convention : Reuss Voigt Hill
#
# Bulk Modulus (GPa) = 39.25622 42.75011 41.00316
# Shear Modulus (GPa) = 2.20765 26.26267 14.23516
#
# Velocity S-wave (km/s) = 0.98049 3.38179 2.48976
# Velocity P-wave (km/s) = 4.28679 5.81935 5.11084
#
# Compressibility (1/GPa) = 0.02547367
#
# Stress axis : x y z
#
# Youngs Moduli (GPa) = 129.58024 84.17708 69.56238
#
# Poissons Ratio (x) = 0.04202 0.18470
# Poissons Ratio (y) = 0.06468 0.07618
# Poissons Ratio (z) = 0.34406 0.09218
#
# Static dielectric constant tensor:
#      x y z
#    x 1.940030 0.000000 0.000000 
#    y 0.000000 1.975240 0.000000 
#    z 0.000000 0.000000 1.919660 
# 
# From -- ./inp_files/28308.got.cif
#   From: 2010.05.17/outbox.cif.g08.bks.cpg/sg68_15_cif.got.tgz:28308.got - 2010.06.03 18:57:09.
