data_PCOD9507377
_publ_section_title
;
Structure prediction by ZEFSAII (Michael W. Deem and Ramdas Pophale) SiO2 
 PCOD9507377
Probable space group: C C C A
;
_chemical_formula_sum "Si O2"
_cell_formula_units_Z 64
_cell_length_a 24.128843
_cell_length_b 23.103094
_cell_length_c 5.446627
_cell_angle_alpha 90.000000
_cell_angle_beta 90.000000
_cell_angle_gamma 90.000000
_cell_volume 3036.227275
_symmetry_space_group_name_H-M "C C C A"
_symmetry_group_IT_number 68
_space_group.IT_coordinate_system_code '2'
_symmetry_cell_setting 'orthorhombic'
loop_
_space_group_symop_operation_xyz
x,y,z
-x,1/2-y,z
x,1/2-y,1/2-z
-x,y,1/2-z
-x,-y,-z
x,1/2+y,-z
-x,1/2+y,1/2+z
x,-y,1/2+z
1/2+x,1/2+y,z
1/2-x,-y,z
1/2+x,-y,1/2-z
1/2-x,1/2+y,1/2-z
1/2-x,1/2-y,-z
1/2+x,y,-z
1/2-x,y,1/2+z
1/2+x,1/2-y,1/2+z
loop_
_atom_site_type_symbol
_atom_site_label
_atom_site_fract_x
_atom_site_fract_y
_atom_site_fract_z
Si Si1 0.370264 0.353347 0.249169
Si Si2 0.274544 0.933512 0.760814
Si Si3 0.062967 0.145704 0.250586
Si Si4 0.000000 0.534405 0.750000
Si Si5 0.284240 0.750000 0.750000
O O1 0.339630 0.416683 0.247893
O O2 0.405557 0.342615 0.496118
O O3 0.321987 0.306705 0.250062
O O4 0.405394 0.342306 0.001995
O O5 0.248359 0.907879 0.513932
O O6 0.250000 0.000000 0.763507
O O7 0.000000 0.170541 0.250000
O O8 0.052464 0.076765 0.249850
O O9 0.000000 0.500000 0.500000
O O10 0.250000 0.750000 0.500000
#
# Coordination Sequence:
#
# PCOD9507377 Si02
#       5
#    16  16  16   8   8
#     4  12  22  44  67  95 129 182 217 274 353 388
#     4  10  21  39  55  88 124 157 207 264 319 390
#     4  10  24  42  65  95 139 167 221 279 322 413
#     4  10  20  42  62  91 136 173 224 266 328 386
#     4  12  26  44  73  98 133 172 232 290 334 416
#
# _framework density 21.078790999999999
#
# number of rings (size 3 to 8) (size 9 to 14) (size 15 to 20)
#    0.750    0.500    0.000    6.750    0.000    0.000 
#   27.000    3.750    0.000    0.000    0.000    0.000 
#    0.000    0.000    0.000    0.000    0.000    0.000 
#
# Total GULP energy -178385.097337 kJ/mol
# GULP energy per Si atom -5574.534292 kJ/mol
# Density = 2.103081 g / cm^3
# Si number density = 21.078791 Si / 1000 Ang^3
#
#
#
# Elastic Constant Matrix: (Units=GPa)
#
#
# Indices 1 2 3 4 5 6 
#
# 1 142.7341 41.3613 91.7678 0.0000 0.0000 0.0000
# 2 41.3613 74.8872 37.5634 0.0000 0.0000 0.0000
# 3 91.7678 37.5634 226.9303 0.0000 0.0000 0.0000
# 4 0.0000 0.0000 0.0000 35.8062 0.0000 0.0000
# 5 0.0000 0.0000 0.0000 0.0000 65.7747 0.0000
# 6 0.0000 0.0000 0.0000 0.0000 0.0000 44.6868
#
#
#
# Elastic Compliance Matrix: (Units=1/GPa)
#
#
# Indices 1 2 3 4 5 6 
#
# 1 0.010455 -0.003985 -0.003568 0.000000 0.000000 0.000000
# 2 -0.003985 0.016081 -0.001051 0.000000 0.000000 0.000000
# 3 -0.003568 -0.001051 0.006023 0.000000 0.000000 0.000000
# 4 0.000000 0.000000 0.000000 0.027928 0.000000 0.000000
# 5 0.000000 0.000000 0.000000 0.000000 0.015203 0.000000
# 6 0.000000 0.000000 0.000000 0.000000 0.000000 0.022378
#
#
# Mechanical properties :
#
#
# Convention : Reuss Voigt Hill
#
# Bulk Modulus (GPa) = 65.13509 87.32630 76.23070
# Shear Modulus (GPa) = 41.53062 47.51082 44.52072
#
# Velocity S-wave (km/s) = 4.44357 4.75274 4.60076
# Velocity P-wave (km/s) = 7.56934 8.46384 8.02906
#
# Compressibility (1/GPa) = 0.01535271
#
# Stress axis : x y z
#
# Youngs Moduli (GPa) = 95.65000 62.18478 166.01661
#
# Poissons Ratio (x) = 0.24778 0.59239
# Poissons Ratio (y) = 0.38112 0.17442
# Poissons Ratio (z) = 0.34130 0.06533
#
# Static dielectric constant tensor:
#      x y z
#    x 1.749430 0.000000 0.000000 
#    y 0.000000 -12.807690 0.000000 
#    z 0.000000 0.000000 1.405220 
# 
# From -- ./inp_files/1863.got.cif
#   From: 2010.05.17/outbox.cif.g08.bks.cpg/sg68_1_cif.got.tgz:1863.got - 2010.06.03 18:57:09.
