data_PCOD9507757
_publ_section_title
;
Structure prediction by ZEFSAII (Michael W. Deem and Ramdas Pophale) SiO2 
 PCOD9507757
Probable space group: C C C A
;
_chemical_formula_sum "Si O2"
_cell_formula_units_Z 64
_cell_length_a 15.960581
_cell_length_b 5.019327
_cell_length_c 34.671221
_cell_angle_alpha 90.000000
_cell_angle_beta 90.000000
_cell_angle_gamma 90.000000
_cell_volume 2777.559192
_symmetry_space_group_name_H-M "C C C A"
_symmetry_group_IT_number 68
_space_group.IT_coordinate_system_code '2'
_symmetry_cell_setting 'orthorhombic'
loop_
_space_group_symop_operation_xyz
x,y,z
-x,1/2-y,z
x,1/2-y,1/2-z
-x,y,1/2-z
-x,-y,-z
x,1/2+y,-z
-x,1/2+y,1/2+z
x,-y,1/2+z
1/2+x,1/2+y,z
1/2-x,-y,z
1/2+x,-y,1/2-z
1/2-x,1/2+y,1/2-z
1/2-x,1/2-y,-z
1/2+x,y,-z
1/2-x,y,1/2+z
1/2+x,1/2-y,1/2+z
loop_
_atom_site_type_symbol
_atom_site_label
_atom_site_fract_x
_atom_site_fract_y
_atom_site_fract_z
Si Si1 0.146974 0.499117 0.225029
Si Si2 0.846373 0.453873 0.026143
Si Si3 0.909897 0.144591 0.896536
Si Si4 0.657553 0.613276 0.359689
O O1 0.120213 0.250000 0.250000
O O2 0.250000 0.500000 0.224792
O O3 0.115757 0.468478 0.181115
O O4 0.120127 0.750000 0.250000
O O5 0.750000 0.500000 0.040438
O O6 0.907900 0.521334 0.061047
O O7 0.856764 0.662551 0.991320
O O8 0.864385 0.428539 0.895986
O O9 0.000000 0.250000 0.883196
O O10 0.864637 0.919514 0.869805
O O11 0.750000 0.500000 0.352914
#
# Coordination Sequence:
#
# PCOD9507757 Si02
#       4
#    16  16  16  16
#     4   9  17  31  55  88 118 146 193 255 306 350
#     4  10  21  38  61  87 116 154 203 256 308 369
#     4  12  25  40  60  90 128 164 202 254 314 377
#     4  11  22  39  64  90 121 163 209 256 310 377
#
# _framework density 23.041813999999999
#
# number of rings (size 3 to 8) (size 9 to 14) (size 15 to 20)
#    0.000    1.500    0.000    6.000    0.000    7.000 
#    0.000    0.000    0.000   11.250    0.000    0.000 
#    0.000    0.000    0.000    0.000    0.000    0.000 
#
# Total GULP energy -178357.178213 kJ/mol
# GULP energy per Si atom -5573.661819 kJ/mol
# Density = 2.298937 g / cm^3
# Si number density = 23.041814 Si / 1000 Ang^3
#
#
#
# Elastic Constant Matrix: (Units=GPa)
#
#
# Indices 1 2 3 4 5 6 
#
# 1 39.3323 25.2437 14.6926 0.0000 0.0000 0.0000
# 2 25.2437 136.7141 16.7869 0.0000 0.0000 0.0000
# 3 14.6926 16.7869 78.3806 0.0000 0.0000 0.0000
# 4 0.0000 0.0000 0.0000 29.0466 0.0000 0.0000
# 5 0.0000 0.0000 0.0000 0.0000 -13.1058 0.0000
# 6 0.0000 0.0000 0.0000 0.0000 0.0000 21.6068
#
#
#
# Elastic Compliance Matrix: (Units=1/GPa)
#
#
# Indices 1 2 3 4 5 6 
#
# 1 0.030386 -0.005044 -0.004616 0.000000 0.000000 0.000000
# 2 -0.005044 0.008349 -0.000843 0.000000 0.000000 0.000000
# 3 -0.004616 -0.000843 0.013804 0.000000 0.000000 0.000000
# 4 0.000000 0.000000 0.000000 0.034427 0.000000 0.000000
# 5 0.000000 0.000000 0.000000 0.000000 -0.076302 0.000000
# 6 0.000000 0.000000 0.000000 0.000000 0.000000 0.046282
#
#
# Mechanical properties :
#
#
# Convention : Reuss Voigt Hill
#
# Bulk Modulus (GPa) = 31.71112 40.87482 36.29297
# Shear Modulus (GPa) = 56.52161 20.68979 38.60570
#
# Velocity S-wave (km/s) = 4.95815 2.99979 4.09768
# Velocity P-wave (km/s) = 6.82422 5.45676 6.17844
#
# Compressibility (1/GPa) = 0.03153468
#
# Stress axis : x y z
#
# Youngs Moduli (GPa) = 32.91015 119.77001 72.44306
#
# Poissons Ratio (x) = 0.60410 0.33437
# Poissons Ratio (y) = 0.16599 0.06105
# Poissons Ratio (z) = 0.15190 0.10093
#
# Static dielectric constant tensor:
#      x y z
#    x 1.754430 0.000000 0.000000 
#    y 0.000000 1.770940 0.000000 
#    z 0.000000 0.000000 1.860980 
# 
# From -- ./inp_files/55465.got.cif
#   From: 2010.05.17/outbox.cif.g08.bks.cpg/sg68_28_cif.got.tgz:55465.got - 2010.06.03 18:57:09.
