data_PCOD9507878
_publ_section_title
;
Structure prediction by ZEFSAII (Michael W. Deem and Ramdas Pophale) SiO2 
 PCOD9507878
Probable space group: C C C A
;
_chemical_formula_sum "Si O2"
_cell_formula_units_Z 80
_cell_length_a 18.676289
_cell_length_b 17.183696
_cell_length_c 14.007922
_cell_angle_alpha 90.000000
_cell_angle_beta 90.000000
_cell_angle_gamma 90.000000
_cell_volume 4495.529805
_symmetry_space_group_name_H-M "C C C A"
_symmetry_group_IT_number 68
_space_group.IT_coordinate_system_code '2'
_symmetry_cell_setting 'orthorhombic'
loop_
_space_group_symop_operation_xyz
x,y,z
-x,1/2-y,z
x,1/2-y,1/2-z
-x,y,1/2-z
-x,-y,-z
x,1/2+y,-z
-x,1/2+y,1/2+z
x,-y,1/2+z
1/2+x,1/2+y,z
1/2-x,-y,z
1/2+x,-y,1/2-z
1/2-x,1/2+y,1/2-z
1/2-x,1/2-y,-z
1/2+x,y,-z
1/2-x,y,1/2+z
1/2+x,1/2-y,1/2+z
loop_
_atom_site_type_symbol
_atom_site_label
_atom_site_fract_x
_atom_site_fract_y
_atom_site_fract_z
Si Si1 0.011462 0.976082 0.889309
Si Si2 0.124396 0.007580 0.743418
Si Si3 0.061353 0.797941 0.853033
Si Si4 0.220133 0.735992 0.602818
Si Si5 0.752118 0.878563 0.758025
O O1 0.077813 0.021708 0.839422
O O2 0.033932 0.886896 0.860174
O O3 0.936476 0.992671 0.835684
O O4 0.000000 0.000000 0.000000
O O5 0.178868 0.934564 0.753268
O O6 0.179906 0.075634 0.717949
O O7 0.069132 0.750000 0.750000
O O8 0.137895 0.789643 0.899624
O O9 0.000000 0.750000 0.905765
O O10 0.250000 0.750000 0.500000
O O11 0.259560 0.667532 0.659840
O O12 0.228070 0.814350 0.664044
#
# Coordination Sequence:
#
# PCOD9507878 Si02
#       5
#    16  16  16  16  16
#     4  11  23  38  62  95 128 161 214 263 315 375
#     4  10  21  39  62  85 126 162 196 257 319 372
#     4  11  20  38  67  90 121 160 219 262 307 371
#     4  11  22  37  61  89 123 157 209 257 308 369
#     4  10  21  39  60  88 119 161 204 250 313 374
#
# _framework density 17.795455
#
# number of rings (size 3 to 8) (size 9 to 14) (size 15 to 20)
#    0.000    1.400    4.000    3.600    2.800    3.200 
#    0.000    4.000    0.000    2.400    0.000    0.000 
#    0.000    0.000    0.000    0.000    0.000    0.000 
#
# Total GULP energy -222736.404832 kJ/mol
# GULP energy per Si atom -5568.410121 kJ/mol
# Density = 1.775495 g / cm^3
# Si number density = 17.795455 Si / 1000 Ang^3
#
#
#
# Elastic Constant Matrix: (Units=GPa)
#
#
# Indices 1 2 3 4 5 6 
#
# 1 158.7254 58.3865 54.5083 0.0000 0.0000 0.0000
# 2 58.3865 88.7523 31.6892 0.0000 0.0000 0.0000
# 3 54.5083 31.6892 121.1540 0.0000 0.0000 0.0000
# 4 0.0000 0.0000 0.0000 8.7517 0.0000 0.0000
# 5 0.0000 0.0000 0.0000 0.0000 10.0322 0.0000
# 6 0.0000 0.0000 0.0000 0.0000 0.0000 35.0768
#
#
#
# Elastic Compliance Matrix: (Units=1/GPa)
#
#
# Indices 1 2 3 4 5 6 
#
# 1 0.009091 -0.004986 -0.002786 0.000000 0.000000 0.000000
# 2 -0.004986 0.015162 -0.001723 0.000000 0.000000 0.000000
# 3 -0.002786 -0.001723 0.009958 0.000000 0.000000 0.000000
# 4 0.000000 0.000000 0.000000 0.114264 0.000000 0.000000
# 5 0.000000 0.000000 0.000000 0.000000 0.099679 0.000000
# 6 0.000000 0.000000 0.000000 0.000000 0.000000 0.028509
#
#
# Mechanical properties :
#
#
# Convention : Reuss Voigt Hill
#
# Bulk Modulus (GPa) = 65.69337 73.08886 69.39111
# Shear Modulus (GPa) = 16.62642 25.70866 21.16754
#
# Velocity S-wave (km/s) = 3.05996 3.80501 3.45264
# Velocity P-wave (km/s) = 7.03423 7.77592 7.41436
#
# Compressibility (1/GPa) = 0.01522224
#
# Stress axis : x y z
#
# Youngs Moduli (GPa) = 109.99950 65.95273 100.42176
#
# Poissons Ratio (x) = 0.32883 0.27978
# Poissons Ratio (y) = 0.54844 0.17300
# Poissons Ratio (z) = 0.30646 0.11362
#
# Static dielectric constant tensor:
#      x y z
#    x 1.593390 0.000000 0.000000 
#    y 0.000000 1.711070 0.000000 
#    z 0.000000 0.000000 1.634150 
# 
# From -- ./inp_files/23463.got.cif
#   From: 2010.05.17/outbox.cif.g08.bks.cpg/sg68_12_cif.got.tgz:23463.got - 2010.06.03 18:57:09.
