data_PCOD9507471
_publ_section_title
;
Structure prediction by ZEFSAII (Michael W. Deem and Ramdas Pophale) SiO2 
 PCOD9507471
Probable space group: C C C A
;
_chemical_formula_sum "Si O2"
_cell_formula_units_Z 96
_cell_length_a 14.437226
_cell_length_b 23.728997
_cell_length_c 11.505378
_cell_angle_alpha 90.000000
_cell_angle_beta 90.000000
_cell_angle_gamma 90.000000
_cell_volume 3941.522663
_symmetry_space_group_name_H-M "C C C A"
_symmetry_group_IT_number 68
_space_group.IT_coordinate_system_code '2'
_symmetry_cell_setting 'orthorhombic'
loop_
_space_group_symop_operation_xyz
x,y,z
-x,1/2-y,z
x,1/2-y,1/2-z
-x,y,1/2-z
-x,-y,-z
x,1/2+y,-z
-x,1/2+y,1/2+z
x,-y,1/2+z
1/2+x,1/2+y,z
1/2-x,-y,z
1/2+x,-y,1/2-z
1/2-x,1/2+y,1/2-z
1/2-x,1/2-y,-z
1/2+x,y,-z
1/2-x,y,1/2+z
1/2+x,1/2-y,1/2+z
loop_
_atom_site_type_symbol
_atom_site_label
_atom_site_fract_x
_atom_site_fract_y
_atom_site_fract_z
Si Si1 0.830857 0.041538 0.111082
Si Si2 0.576451 0.121359 0.432764
Si Si3 0.252564 0.627682 0.793681
Si Si4 0.000000 0.440405 0.250000
Si Si5 0.596517 0.364539 0.552553
Si Si6 0.099454 0.244657 0.542469
Si Si7 0.241951 0.250000 0.750000
O O1 0.881164 0.069175 0.001400
O O2 0.778544 0.085048 0.196112
O O3 0.917965 0.023071 0.192712
O O4 0.750000 0.000000 0.074654
O O5 0.637537 0.128195 0.316936
O O6 0.464813 0.118988 0.439414
O O7 0.600934 0.180307 0.500509
O O8 0.200994 0.616904 0.917785
O O9 0.214223 0.688696 0.755625
O O10 0.041260 0.397511 0.346338
O O11 0.598967 0.296280 0.546971
O O12 0.180681 0.252827 0.633213
O O13 0.000000 0.250000 0.605065
#
# Coordination Sequence:
#
# PCOD9507471 Si02
#       7
#    16  16  16   8  16  16   8
#     4  10  21  39  62  82 115 156 199 253 302 345
#     4   9  20  37  55  85 118 152 197 243 291 354
#     4  10  22  35  58  89 118 156 195 245 297 360
#     4   8  18  40  59  88 120 147 204 256 288 350
#     4   9  18  35  57  84 120 156 188 239 294 352
#     4   9  18  33  55  84 121 164 190 233 295 364
#     4  10  21  32  54  89 128 152 198 238 297 365
#
# _framework density 24.356069999999999
#
# number of rings (size 3 to 8) (size 9 to 14) (size 15 to 20)
#    0.000    2.667    0.000    0.250    4.667    2.000 
#    3.000    2.500    3.667    6.000    0.000    0.000 
#    0.000    0.000    0.000    0.000    0.000    0.000 
#
# Total GULP energy -267475.156120 kJ/mol
# GULP energy per Si atom -5572.399086 kJ/mol
# Density = 2.430063 g / cm^3
# Si number density = 24.356070 Si / 1000 Ang^3
#
#
#
# Elastic Constant Matrix: (Units=GPa)
#
#
# Indices 1 2 3 4 5 6 
#
# 1 53.3130 18.3563 14.0021 0.0000 0.0000 0.0000
# 2 18.3563 65.5368 3.8194 0.0000 0.0000 0.0000
# 3 14.0021 3.8194 33.4013 0.0000 0.0000 0.0000
# 4 0.0000 0.0000 0.0000 14.2002 0.0000 0.0000
# 5 0.0000 0.0000 0.0000 0.0000 -9.2163 0.0000
# 6 0.0000 0.0000 0.0000 0.0000 0.0000 29.1967
#
#
#
# Elastic Compliance Matrix: (Units=1/GPa)
#
#
# Indices 1 2 3 4 5 6 
#
# 1 0.023185 -0.005967 -0.009037 0.000000 0.000000 0.000000
# 2 -0.005967 0.016897 0.000569 0.000000 0.000000 0.000000
# 3 -0.009037 0.000569 0.033662 0.000000 0.000000 0.000000
# 4 0.000000 0.000000 0.000000 0.070422 0.000000 0.000000
# 5 0.000000 0.000000 0.000000 0.000000 -0.108503 0.000000
# 6 0.000000 0.000000 0.000000 0.000000 0.000000 0.034250
#
#
# Mechanical properties :
#
#
# Convention : Reuss Voigt Hill
#
# Bulk Modulus (GPa) = 22.28445 24.95630 23.62037
# Shear Modulus (GPa) = 43.95929 14.57432 29.26680
#
# Velocity S-wave (km/s) = 4.25297 2.44885 3.47020
# Velocity P-wave (km/s) = 5.76943 4.27370 5.07695
#
# Compressibility (1/GPa) = 0.04487434
#
# Stress axis : x y z
#
# Youngs Moduli (GPa) = 43.13074 59.18272 29.70680
#
# Poissons Ratio (x) = 0.35316 0.26847
# Poissons Ratio (y) = 0.25738 -0.01692
# Poissons Ratio (z) = 0.38978 -0.03370
#
# Static dielectric constant tensor:
#      x y z
#    x 2.007230 0.000000 0.000000 
#    y 0.000000 1.963390 0.000000 
#    z 0.000000 0.000000 1.949630 
# 
# From -- ./inp_files/22413.got.cif
#   From: 2010.05.17/outbox.cif.g08.bks.cpg/sg68_12_cif.got.tgz:22413.got - 2010.06.03 18:57:09.
