data_PCOD9507926
_publ_section_title
;
Structure prediction by ZEFSAII (Michael W. Deem and Ramdas Pophale) SiO2 
 PCOD9507926
Probable space group: C C C A
;
_chemical_formula_sum "Si O2"
_cell_formula_units_Z 52
_cell_length_a 19.386224
_cell_length_b 5.320750
_cell_length_c 22.342129
_cell_angle_alpha 90.000000
_cell_angle_beta 90.000000
_cell_angle_gamma 90.000000
_cell_volume 2304.573880
_symmetry_space_group_name_H-M "C C C A"
_symmetry_group_IT_number 68
_space_group.IT_coordinate_system_code '2'
_symmetry_cell_setting 'orthorhombic'
loop_
_space_group_symop_operation_xyz
x,y,z
-x,1/2-y,z
x,1/2-y,1/2-z
-x,y,1/2-z
-x,-y,-z
x,1/2+y,-z
-x,1/2+y,1/2+z
x,-y,1/2+z
1/2+x,1/2+y,z
1/2-x,-y,z
1/2+x,-y,1/2-z
1/2-x,1/2+y,1/2-z
1/2-x,1/2-y,-z
1/2+x,y,-z
1/2-x,y,1/2+z
1/2+x,1/2-y,1/2+z
loop_
_atom_site_type_symbol
_atom_site_label
_atom_site_fract_x
_atom_site_fract_y
_atom_site_fract_z
Si Si1 0.500000 0.250000 0.250000
Si Si2 0.064919 0.925808 0.646802
Si Si3 0.710512 0.252062 0.822460
Si Si4 0.081205 0.723206 0.472700
O O1 0.454243 0.424945 0.292886
O O2 0.131979 0.758675 0.656753
O O3 0.000000 0.750000 0.630707
O O4 0.081098 0.126578 0.595104
O O5 0.710381 0.250000 0.750000
O O6 0.750000 0.500000 0.842755
O O7 0.750000 0.000000 0.842272
O O8 0.111485 0.495682 0.512450
O O9 0.000000 0.750000 0.488618
#
# Coordination Sequence:
#
# PCOD9507926 Si02
#       4
#     4  16  16  16
#     4  12  26  36  64 110 136 172 208 294 354 392
#     4  12  25  41  66  99 139 167 221 282 337 395
#     4  10  24  42  63  89 130 181 217 256 324 410
#     4  10  21  39  63  94 129 173 222 269 327 392
#
# _framework density 22.563825999999999
#
# number of rings (size 3 to 8) (size 9 to 14) (size 15 to 20)
#    0.000    1.231    1.538    5.077   10.769    0.000 
#    0.000    0.000    0.000    5.538    0.000    0.000 
#    0.000    0.000    0.000    0.000    0.000    0.000 
#
# Total GULP energy -145566.446033 kJ/mol
# GULP energy per Si atom -5598.709463 kJ/mol
# Density = 2.251247 g / cm^3
# Si number density = 22.563826 Si / 1000 Ang^3
#
#
#
# Elastic Constant Matrix: (Units=GPa)
#
#
# Indices 1 2 3 4 5 6 
#
# 1 134.3509 63.7498 20.2287 0.0000 0.0000 0.0000
# 2 63.7498 163.2838 52.5433 0.0000 0.0000 0.0000
# 3 20.2287 52.5433 121.3722 0.0000 0.0000 0.0000
# 4 0.0000 0.0000 0.0000 44.4106 0.0000 0.0000
# 5 0.0000 0.0000 0.0000 0.0000 1082.1340 0.0000
# 6 0.0000 0.0000 0.0000 0.0000 0.0000 25.7221
#
#
#
# Elastic Compliance Matrix: (Units=1/GPa)
#
#
# Indices 1 2 3 4 5 6 
#
# 1 0.009136 -0.003575 0.000025 0.000000 0.000000 0.000000
# 2 -0.003575 0.008514 -0.003090 0.000000 0.000000 0.000000
# 3 0.000025 -0.003090 0.009573 0.000000 0.000000 0.000000
# 4 0.000000 0.000000 0.000000 0.022517 0.000000 0.000000
# 5 0.000000 0.000000 0.000000 0.000000 0.000924 0.000000
# 6 0.000000 0.000000 0.000000 0.000000 0.000000 0.038877
#
#
# Mechanical properties :
#
#
# Convention : Reuss Voigt Hill
#
# Bulk Modulus (GPa) = 71.72181 76.89450 74.30815
# Shear Modulus (GPa) = 46.52514 249.28568 147.90541
#
# Velocity S-wave (km/s) = 4.54578 10.52236 8.10507
# Velocity P-wave (km/s) = 7.70762 13.48256 10.98150
#
# Compressibility (1/GPa) = 0.01394276
#
# Stress axis : x y z
#
# Youngs Moduli (GPa) = 109.46077 117.44831 104.46344
#
# Poissons Ratio (x) = 0.41986 -0.00261
# Poissons Ratio (y) = 0.39130 0.32281
# Poissons Ratio (z) = -0.00273 0.36293
#
# Static dielectric constant tensor:
#      x y z
#    x 1.789390 0.000000 0.000000 
#    y 0.000000 1.878360 0.000000 
#    z 0.000000 0.000000 1.839200 
# 
# From -- ./inp_files/39965.got.cif
#   From: 2010.05.17/outbox.cif.g08.bks.cpg/sg68_20_cif.got.tgz:39965.got - 2010.06.03 18:57:09.
