data_PCOD9507584
_publ_section_title
;
Structure prediction by ZEFSAII (Michael W. Deem and Ramdas Pophale) SiO2 
 PCOD9507584
Probable space group: C C C A
;
_chemical_formula_sum "Si O2"
_cell_formula_units_Z 80
_cell_length_a 16.942754
_cell_length_b 24.976956
_cell_length_c 9.941082
_cell_angle_alpha 90.000000
_cell_angle_beta 90.000000
_cell_angle_gamma 90.000000
_cell_volume 4206.851386
_symmetry_space_group_name_H-M "C C C A"
_symmetry_group_IT_number 68
_space_group.IT_coordinate_system_code '2'
_symmetry_cell_setting 'orthorhombic'
loop_
_space_group_symop_operation_xyz
x,y,z
-x,1/2-y,z
x,1/2-y,1/2-z
-x,y,1/2-z
-x,-y,-z
x,1/2+y,-z
-x,1/2+y,1/2+z
x,-y,1/2+z
1/2+x,1/2+y,z
1/2-x,-y,z
1/2+x,-y,1/2-z
1/2-x,1/2+y,1/2-z
1/2-x,1/2-y,-z
1/2+x,y,-z
1/2-x,y,1/2+z
1/2+x,1/2-y,1/2+z
loop_
_atom_site_type_symbol
_atom_site_label
_atom_site_fract_x
_atom_site_fract_y
_atom_site_fract_z
Si Si1 0.910985 0.746044 0.913357
Si Si2 0.314776 0.140024 0.918485
Si Si3 0.840350 0.518617 0.924770
Si Si4 0.170132 0.645273 0.888789
Si Si5 0.581155 0.037694 0.834976
O O1 0.914335 0.750000 0.750000
O O2 0.867622 0.691492 0.956176
O O3 0.864505 0.799777 0.946108
O O4 0.000000 0.750000 0.964383
O O5 0.355633 0.082455 0.933090
O O6 0.294773 0.150650 0.761788
O O7 0.238337 0.131368 0.008495
O O8 0.750000 0.500000 0.955742
O O9 0.856931 0.509027 0.767006
O O10 0.903160 0.490814 0.022846
O O11 0.104874 0.599257 0.866718
O O12 0.500000 0.035338 0.750000
#
# Coordination Sequence:
#
# PCOD9507584 Si02
#       5
#    16  16  16  16  16
#     4   9  19  35  59  86 115 149 194 246 292 348
#     4  10  21  36  60  87 112 154 195 240 294 350
#     4  11  22  39  60  86 121 156 200 242 297 362
#     4  10  21  36  61  84 115 148 197 242 288 349
#     4  11  24  38  59  89 120 158 198 247 301 356
#
# _framework density 19.016597999999998
#
# number of rings (size 3 to 8) (size 9 to 14) (size 15 to 20)
#    0.000    1.800    2.000    1.800   11.200    0.000 
#    0.000    0.000    0.000    1.200    0.000    0.000 
#    0.000    0.000    0.000    0.000    0.000    0.000 
#
# Total GULP energy -222730.568042 kJ/mol
# GULP energy per Si atom -5568.264201 kJ/mol
# Density = 1.897332 g / cm^3
# Si number density = 19.016598 Si / 1000 Ang^3
#
#
#
# Elastic Constant Matrix: (Units=GPa)
#
#
# Indices 1 2 3 4 5 6 
#
# 1 61.0304 20.3963 7.0666 0.0000 0.0000 0.0000
# 2 20.3963 103.0975 26.8950 0.0000 0.0000 0.0000
# 3 7.0666 26.8950 38.0507 0.0000 0.0000 0.0000
# 4 0.0000 0.0000 0.0000 20.9962 0.0000 0.0000
# 5 0.0000 0.0000 0.0000 0.0000 19.2232 0.0000
# 6 0.0000 0.0000 0.0000 0.0000 0.0000 23.2419
#
#
#
# Elastic Compliance Matrix: (Units=1/GPa)
#
#
# Indices 1 2 3 4 5 6 
#
# 1 0.017576 -0.003219 -0.000989 0.000000 0.000000 0.000000
# 2 -0.003219 0.012482 -0.008225 0.000000 0.000000 0.000000
# 3 -0.000989 -0.008225 0.032278 0.000000 0.000000 0.000000
# 4 0.000000 0.000000 0.000000 0.047628 0.000000 0.000000
# 5 0.000000 0.000000 0.000000 0.000000 0.052020 0.000000
# 6 0.000000 0.000000 0.000000 0.000000 0.000000 0.043026
#
#
# Mechanical properties :
#
#
# Convention : Reuss Voigt Hill
#
# Bulk Modulus (GPa) = 26.68785 34.54383 30.61584
# Shear Modulus (GPa) = 20.63012 22.54700 21.58856
#
# Velocity S-wave (km/s) = 3.29728 3.44706 3.37300
# Velocity P-wave (km/s) = 5.34420 5.83502 5.59500
#
# Compressibility (1/GPa) = 0.03747024
#
# Stress axis : x y z
#
# Youngs Moduli (GPa) = 56.89706 80.11552 30.98113
#
# Poissons Ratio (x) = 0.25790 0.03063
# Poissons Ratio (y) = 0.18316 0.25481
# Poissons Ratio (z) = 0.05626 0.65892
#
# Static dielectric constant tensor:
#      x y z
#    x 1.689020 0.000000 0.000000 
#    y 0.000000 1.762470 0.000000 
#    z 0.000000 0.000000 1.655600 
# 
# From -- ./inp_files/13181.got.cif
#   From: 2010.05.17/outbox.cif.g08.bks.cpg/sg68_7_cif.got.tgz:13181.got - 2010.06.03 18:57:09.
