data_PCOD9507655
_publ_section_title
;
Structure prediction by ZEFSAII (Michael W. Deem and Ramdas Pophale) SiO2 
 PCOD9507655
Probable space group: C C C A
;
_chemical_formula_sum "Si O2"
_cell_formula_units_Z 112
_cell_length_a 11.903354
_cell_length_b 15.522819
_cell_length_c 28.008570
_cell_angle_alpha 90.000000
_cell_angle_beta 90.000000
_cell_angle_gamma 90.000000
_cell_volume 5175.244580
_symmetry_space_group_name_H-M "C C C A"
_symmetry_group_IT_number 68
_space_group.IT_coordinate_system_code '2'
_symmetry_cell_setting 'orthorhombic'
loop_
_space_group_symop_operation_xyz
x,y,z
-x,1/2-y,z
x,1/2-y,1/2-z
-x,y,1/2-z
-x,-y,-z
x,1/2+y,-z
-x,1/2+y,1/2+z
x,-y,1/2+z
1/2+x,1/2+y,z
1/2-x,-y,z
1/2+x,-y,1/2-z
1/2-x,1/2+y,1/2-z
1/2-x,1/2-y,-z
1/2+x,y,-z
1/2-x,y,1/2+z
1/2+x,1/2-y,1/2+z
loop_
_atom_site_type_symbol
_atom_site_label
_atom_site_fract_x
_atom_site_fract_y
_atom_site_fract_z
Si Si1 0.254490 0.705232 0.149894
Si Si2 0.977521 0.903706 0.676713
Si Si3 0.655449 0.438122 0.297720
Si Si4 0.148351 0.561338 0.482745
Si Si5 0.289210 0.662027 0.280903
Si Si6 0.722929 0.214584 0.948106
Si Si7 0.983861 0.592744 0.564085
O O1 0.369990 0.662401 0.172469
O O2 0.153977 0.645768 0.169184
O O3 0.241313 0.802002 0.169631
O O4 0.261664 0.716294 0.093626
O O5 0.085012 0.868749 0.706106
O O6 0.002110 0.914728 0.620694
O O7 0.946619 0.996080 0.699976
O O8 0.750000 0.500000 0.320594
O O9 0.709911 0.404943 0.247641
O O10 0.250000 0.500000 0.499505
O O11 0.193501 0.632675 0.446213
O O12 0.067896 0.496646 0.454613
O O13 0.089840 0.602587 0.529039
O O14 0.289617 0.750000 0.250000
O O15 0.600264 0.172111 0.944514
O O16 0.750000 0.250000 0.000000
#
# Coordination Sequence:
#
# PCOD9507655 Si02
#       7
#    16  16  16  16  16  16  16
#     4  10  21  37  60  92 128 162 210 269 327 382
#     4  11  21  37  66  96 123 163 222 265 323 402
#     4   9  22  38  57  94 122 161 209 267 339 386
#     4   9  21  39  60  87 132 168 207 263 326 372
#     4  10  21  40  65  93 127 160 216 284 327 383
#     4  11  22  37  61  96 130 166 216 267 327 388
#     4  10  21  39  62  93 125 171 218 264 317 401
#
# _framework density 21.641490000000001
#
# number of rings (size 3 to 8) (size 9 to 14) (size 15 to 20)
#    0.000    2.000    1.429    1.286    0.000   14.857 
#    2.571    0.000    0.000    0.000   18.571    0.000 
#    0.000    0.000    0.000    0.000    0.000    0.000 
#
# Total GULP energy -312183.432970 kJ/mol
# GULP energy per Si atom -5574.704160 kJ/mol
# Density = 2.159223 g / cm^3
# Si number density = 21.641490 Si / 1000 Ang^3
#
#
#
# Elastic Constant Matrix: (Units=GPa)
#
#
# Indices 1 2 3 4 5 6 
#
# 1 47.2943 32.6159 31.0039 0.0000 0.0000 0.0000
# 2 32.6159 99.2909 41.1872 0.0000 0.0000 0.0000
# 3 31.0039 41.1872 127.0106 0.0000 0.0000 0.0000
# 4 0.0000 0.0000 0.0000 -4.9258 0.0000 0.0000
# 5 0.0000 0.0000 0.0000 0.0000 -3.1289 0.0000
# 6 0.0000 0.0000 0.0000 0.0000 0.0000 38.4770
#
#
#
# Elastic Compliance Matrix: (Units=1/GPa)
#
#
# Indices 1 2 3 4 5 6 
#
# 1 0.029584 -0.007767 -0.004703 0.000000 0.000000 0.000000
# 2 -0.007767 0.013676 -0.002539 0.000000 0.000000 0.000000
# 3 -0.004703 -0.002539 0.009845 0.000000 0.000000 0.000000
# 4 0.000000 0.000000 0.000000 -0.203013 0.000000 0.000000
# 5 0.000000 0.000000 0.000000 0.000000 -0.319600 0.000000
# 6 0.000000 0.000000 0.000000 0.000000 0.000000 0.025990
#
#
# Mechanical properties :
#
#
# Convention : Reuss Voigt Hill
#
# Bulk Modulus (GPa) = 43.31494 53.68999 48.50246
# Shear Modulus (GPa) = -12.32117 17.33705 2.50794
#
# Velocity S-wave (km/s) = -2.38865 2.83345 1.07767
# Velocity P-wave (km/s) = 3.52855 5.96383 4.89989
#
# Compressibility (1/GPa) = 0.02308672
#
# Stress axis : x y z
#
# Youngs Moduli (GPa) = 33.80251 73.12093 101.57810
#
# Poissons Ratio (x) = 0.56794 0.47770
# Poissons Ratio (y) = 0.26255 0.25790
# Poissons Ratio (z) = 0.15897 0.18565
#
# Static dielectric constant tensor:
#      x y z
#    x 1.928230 0.000000 0.000000 
#    y 0.000000 2.166590 0.000000 
#    z 0.000000 0.000000 1.825730 
# 
# From -- ./inp_files/54848.got.cif
#   From: 2010.05.17/outbox.cif.g08.bks.cpg/sg68_28_cif.got.tgz:54848.got - 2010.06.03 18:57:09.
