data_PCOD9507341
_publ_section_title
;
Structure prediction by ZEFSAII (Michael W. Deem and Ramdas Pophale) SiO2 
 PCOD9507341
Probable space group: C C C A
;
_chemical_formula_sum "Si O2"
_cell_formula_units_Z 48
_cell_length_a 6.452317
_cell_length_b 17.935880
_cell_length_c 12.885232
_cell_angle_alpha 90.000000
_cell_angle_beta 90.000000
_cell_angle_gamma 90.000000
_cell_volume 1491.181915
_symmetry_space_group_name_H-M "C C C A"
_symmetry_group_IT_number 68
_space_group.IT_coordinate_system_code '2'
_symmetry_cell_setting 'orthorhombic'
loop_
_space_group_symop_operation_xyz
x,y,z
-x,1/2-y,z
x,1/2-y,1/2-z
-x,y,1/2-z
-x,-y,-z
x,1/2+y,-z
-x,1/2+y,1/2+z
x,-y,1/2+z
1/2+x,1/2+y,z
1/2-x,-y,z
1/2+x,-y,1/2-z
1/2-x,1/2+y,1/2-z
1/2-x,1/2-y,-z
1/2+x,y,-z
1/2-x,y,1/2+z
1/2+x,1/2-y,1/2+z
loop_
_atom_site_type_symbol
_atom_site_label
_atom_site_fract_x
_atom_site_fract_y
_atom_site_fract_z
Si Si1 0.363732 0.602037 0.652539
Si Si2 0.734978 0.265621 0.621829
Si Si3 0.607793 0.072327 0.907013
O O1 0.500000 0.573094 0.750000
O O2 0.356336 0.693131 0.663705
O O3 0.424125 0.583769 0.531755
O O4 0.120287 0.574498 0.646810
O O5 0.500000 0.250000 0.649783
O O6 0.750000 0.250000 0.500000
O O7 0.734377 0.354794 0.631129
O O8 0.750000 0.000000 0.893324
#
# Coordination Sequence:
#
# PCOD9507341 Si02
#       3
#    16  16  16
#     4  10  21  41  77 129 185 246 318 397 480 578
#     4   8  16  33  65 113 166 222 293 373 458 553
#     4  10  20  40  79 130 183 244 315 404 491 570
#
# _framework density 32.189234999999996
#
# number of rings (size 3 to 8) (size 9 to 14) (size 15 to 20)
#    0.000    2.667    0.000    1.000    0.000    0.000 
#    0.000    1.667    0.000  134.000    0.000  109.667 
#    0.000    0.000    0.000    0.000    0.000    0.000 
#
# Total GULP energy -134596.799827 kJ/mol
# GULP energy per Si atom -5608.199993 kJ/mol
# Density = 3.211597 g / cm^3
# Si number density = 32.189235 Si / 1000 Ang^3
#
#
#
# Elastic Constant Matrix: (Units=GPa)
#
#
# Indices 1 2 3 4 5 6 
#
# 1 217.1188 143.9294 153.2446 0.0000 0.0000 0.0000
# 2 143.9294 346.2310 104.4920 0.0000 0.0000 0.0000
# 3 153.2446 104.4920 281.5679 0.0000 0.0000 0.0000
# 4 0.0000 0.0000 0.0000 54.2270 0.0000 0.0000
# 5 0.0000 0.0000 0.0000 0.0000 90.1475 0.0000
# 6 0.0000 0.0000 0.0000 0.0000 0.0000 104.8342
#
#
#
# Elastic Compliance Matrix: (Units=1/GPa)
#
#
# Indices 1 2 3 4 5 6 
#
# 1 0.009169 -0.002596 -0.004027 0.000000 0.000000 0.000000
# 2 -0.002596 0.003988 -0.000067 0.000000 0.000000 0.000000
# 3 -0.004027 -0.000067 0.005768 0.000000 0.000000 0.000000
# 4 0.000000 0.000000 0.000000 0.018441 0.000000 0.000000
# 5 0.000000 0.000000 0.000000 0.000000 0.011093 0.000000
# 6 0.000000 0.000000 0.000000 0.000000 0.000000 0.009539
#
#
# Mechanical properties :
#
#
# Convention : Reuss Voigt Hill
#
# Bulk Modulus (GPa) = 180.34735 183.13886 181.74311
# Shear Modulus (GPa) = 68.28221 79.39188 73.83704
#
# Velocity S-wave (km/s) = 4.61073 4.97168 4.79460
# Velocity P-wave (km/s) = 9.19206 9.48551 9.33993
#
# Compressibility (1/GPa) = 0.00554486
#
# Stress axis : x y z
#
# Youngs Moduli (GPa) = 109.06289 250.77061 173.37275
#
# Poissons Ratio (x) = 0.65108 0.69813
# Poissons Ratio (y) = 0.28316 0.01158
# Poissons Ratio (z) = 0.43917 0.01675
#
# Static dielectric constant tensor:
#      x y z
#    x 2.728540 0.000000 0.000000 
#    y 0.000000 2.559890 0.000000 
#    z 0.000000 0.000000 2.457840 
# 
# From -- ./inp_files/10427.got.cif
#   From: 2010.05.17/outbox.cif.g08.bks.cpg/sg68_6_cif.got.tgz:10427.got - 2010.06.03 18:57:09.
