data_PCOD9507695
_publ_section_title
;
Structure prediction by ZEFSAII (Michael W. Deem and Ramdas Pophale) SiO2 
 PCOD9507695
Probable space group: C C C A
;
_chemical_formula_sum "Si O2"
_cell_formula_units_Z 64
_cell_length_a 22.447488
_cell_length_b 8.755726
_cell_length_c 16.539623
_cell_angle_alpha 90.000000
_cell_angle_beta 90.000000
_cell_angle_gamma 90.000000
_cell_volume 3250.764561
_symmetry_space_group_name_H-M "C C C A"
_symmetry_group_IT_number 68
_space_group.IT_coordinate_system_code '2'
_symmetry_cell_setting 'orthorhombic'
loop_
_space_group_symop_operation_xyz
x,y,z
-x,1/2-y,z
x,1/2-y,1/2-z
-x,y,1/2-z
-x,-y,-z
x,1/2+y,-z
-x,1/2+y,1/2+z
x,-y,1/2+z
1/2+x,1/2+y,z
1/2-x,-y,z
1/2+x,-y,1/2-z
1/2-x,1/2+y,1/2-z
1/2-x,1/2-y,-z
1/2+x,y,-z
1/2-x,y,1/2+z
1/2+x,1/2-y,1/2+z
loop_
_atom_site_type_symbol
_atom_site_label
_atom_site_fract_x
_atom_site_fract_y
_atom_site_fract_z
Si Si1 0.750000 0.000000 0.291589
Si Si2 0.838020 0.250000 0.250000
Si Si3 0.199262 0.693047 0.436738
Si Si4 0.885337 0.548952 0.473859
Si Si5 0.566251 0.263870 0.888823
O O1 0.798037 0.097280 0.241788
O O2 0.724003 0.126826 0.353457
O O3 0.880910 0.269837 0.173444
O O4 0.250000 0.750000 0.500000
O O5 0.153964 0.831796 0.423583
O O6 0.161774 0.557648 0.478557
O O7 0.924021 0.647391 0.536759
O O8 0.924210 0.434949 0.421155
O O9 0.500000 0.250000 0.854870
#
# Coordination Sequence:
#
# PCOD9507695 Si02
#       5
#     8   8  16  16  16
#     4  12  24  40  60  92 140 168 212 260 338 410
#     4  12  27  42  62  96 131 174 206 268 334 396
#     4  11  18  36  61  96 130 162 203 267 323 391
#     4  10  21  37  65  97 122 161 223 261 321 376
#     4  11  23  44  66  93 127 173 220 267 317 384
#
# _framework density 19.687677000000001
#
# number of rings (size 3 to 8) (size 9 to 14) (size 15 to 20)
#    0.000    1.000    5.000    2.625    3.500    0.000 
#    0.000    0.000    0.000    0.000    0.000    0.000 
#    0.000    0.000    0.000    0.000    0.000    0.000 
#
# Total GULP energy -178841.480882 kJ/mol
# GULP energy per Si atom -5588.796278 kJ/mol
# Density = 1.964287 g / cm^3
# Si number density = 19.687677 Si / 1000 Ang^3
#
#
#
# Elastic Constant Matrix: (Units=GPa)
#
#
# Indices 1 2 3 4 5 6 
#
# 1 111.6258 44.5788 16.9373 0.0000 0.0000 0.0000
# 2 44.5788 119.6559 14.3888 0.0000 0.0000 0.0000
# 3 16.9373 14.3888 24.5634 0.0000 0.0000 0.0000
# 4 0.0000 0.0000 0.0000 32.6573 0.0000 0.0000
# 5 0.0000 0.0000 0.0000 0.0000 37.9658 0.0000
# 6 0.0000 0.0000 0.0000 0.0000 0.0000 15.6470
#
#
#
# Elastic Compliance Matrix: (Units=1/GPa)
#
#
# Indices 1 2 3 4 5 6 
#
# 1 0.011217 -0.003495 -0.005687 0.000000 0.000000 0.000000
# 2 -0.003495 0.010080 -0.003494 0.000000 0.000000 0.000000
# 3 -0.005687 -0.003494 0.046680 0.000000 0.000000 0.000000
# 4 0.000000 0.000000 0.000000 0.030621 0.000000 0.000000
# 5 0.000000 0.000000 0.000000 0.000000 0.026339 0.000000
# 6 0.000000 0.000000 0.000000 0.000000 0.000000 0.063910
#
#
# Mechanical properties :
#
#
# Convention : Reuss Voigt Hill
#
# Bulk Modulus (GPa) = 23.46168 45.29499 34.37833
# Shear Modulus (GPa) = 21.89063 29.25006 25.57035
#
# Velocity S-wave (km/s) = 3.33813 3.85866 3.60780
# Velocity P-wave (km/s) = 5.17690 6.55050 5.90379
#
# Compressibility (1/GPa) = 0.04262270
#
# Stress axis : x y z
#
# Youngs Moduli (GPa) = 89.14810 99.20967 21.42264
#
# Poissons Ratio (x) = 0.34676 0.12184
# Poissons Ratio (y) = 0.31159 0.07486
# Poissons Ratio (z) = 0.50701 0.34668
#
# Static dielectric constant tensor:
#      x y z
#    x 1.709640 0.000000 0.000000 
#    y 0.000000 1.691580 0.000000 
#    z 0.000000 0.000000 1.705770 
# 
# From -- ./inp_files/19289.got.cif
#   From: 2010.05.17/outbox.cif.g08.bks.cpg/sg68_10_cif.got.tgz:19289.got - 2010.06.03 18:57:09.
