data_PCOD9507406
_publ_section_title
;
Structure prediction by ZEFSAII (Michael W. Deem and Ramdas Pophale) SiO2 
 PCOD9507406
Probable space group: C C C A
;
_chemical_formula_sum "Si O2"
_cell_formula_units_Z 56
_cell_length_a 12.161691
_cell_length_b 19.180633
_cell_length_c 8.520325
_cell_angle_alpha 90.000000
_cell_angle_beta 90.000000
_cell_angle_gamma 90.000000
_cell_volume 1987.527111
_symmetry_space_group_name_H-M "C C C A"
_symmetry_group_IT_number 68
_space_group.IT_coordinate_system_code '2'
_symmetry_cell_setting 'orthorhombic'
loop_
_space_group_symop_operation_xyz
x,y,z
-x,1/2-y,z
x,1/2-y,1/2-z
-x,y,1/2-z
-x,-y,-z
x,1/2+y,-z
-x,1/2+y,1/2+z
x,-y,1/2+z
1/2+x,1/2+y,z
1/2-x,-y,z
1/2+x,-y,1/2-z
1/2-x,1/2+y,1/2-z
1/2-x,1/2-y,-z
1/2+x,y,-z
1/2-x,y,1/2+z
1/2+x,1/2-y,1/2+z
loop_
_atom_site_type_symbol
_atom_site_label
_atom_site_fract_x
_atom_site_fract_y
_atom_site_fract_z
Si Si1 0.329920 0.941714 0.524815
Si Si2 0.305527 0.158021 0.760288
Si Si3 0.094466 0.193071 0.948244
Si Si4 0.500000 0.566626 0.750000
O O1 0.367145 0.889834 0.388074
O O2 0.263822 0.892967 0.645888
O O3 0.419826 0.975992 0.638457
O O4 0.250000 0.000000 0.456926
O O5 0.383869 0.193517 0.633540
O O6 0.213330 0.200005 0.861790
O O7 0.000000 0.250000 0.914848
O O8 0.054953 0.119686 0.874994
#
# Coordination Sequence:
#
# PCOD9507406 Si02
#       4
#    16  16  16   8
#     4  10  20  42  70 102 145 186 233 306 369 430
#     4   9  21  42  70 107 144 188 248 299 362 447
#     4  10  21  45  73 105 150 196 243 308 371 434
#     4  10  23  42  70 108 142 186 251 294 364 466
#
# _framework density 28.175716999999999
#
# number of rings (size 3 to 8) (size 9 to 14) (size 15 to 20)
#    0.000    2.286    0.000    1.286    0.000    1.143 
#    0.000   65.714    0.000    0.000    0.000    0.000 
#    0.000    0.000    0.000    0.000    0.000    0.000 
#
# Total GULP energy -156869.818875 kJ/mol
# GULP energy per Si atom -5602.493531 kJ/mol
# Density = 2.811159 g / cm^3
# Si number density = 28.175717 Si / 1000 Ang^3
#
#
#
# Elastic Constant Matrix: (Units=GPa)
#
#
# Indices 1 2 3 4 5 6 
#
# 1 103.4035 47.0197 86.6978 0.0000 0.0000 0.0000
# 2 47.0197 74.9468 58.2996 0.0000 0.0000 0.0000
# 3 86.6978 58.2996 240.8895 0.0000 0.0000 0.0000
# 4 0.0000 0.0000 0.0000 58.5084 0.0000 0.0000
# 5 0.0000 0.0000 0.0000 0.0000 39.2162 0.0000
# 6 0.0000 0.0000 0.0000 0.0000 0.0000 34.9419
#
#
#
# Elastic Compliance Matrix: (Units=1/GPa)
#
#
# Indices 1 2 3 4 5 6 
#
# 1 0.016378 -0.007010 -0.004198 0.000000 0.000000 0.000000
# 2 -0.007010 0.019437 -0.002181 0.000000 0.000000 0.000000
# 3 -0.004198 -0.002181 0.006190 0.000000 0.000000 0.000000
# 4 0.000000 0.000000 0.000000 0.017092 0.000000 0.000000
# 5 0.000000 0.000000 0.000000 0.000000 0.025500 0.000000
# 6 0.000000 0.000000 0.000000 0.000000 0.000000 0.028619
#
#
# Mechanical properties :
#
#
# Convention : Reuss Voigt Hill
#
# Bulk Modulus (GPa) = 65.67121 89.25266 77.46194
# Shear Modulus (GPa) = 34.46614 41.68145 38.07380
#
# Velocity S-wave (km/s) = 3.50130 3.85039 3.67999
# Velocity P-wave (km/s) = 6.30110 7.17727 6.75341
#
# Compressibility (1/GPa) = 0.01522737
#
# Stress axis : x y z
#
# Youngs Moduli (GPa) = 61.05686 51.44754 161.54648
#
# Poissons Ratio (x) = 0.36062 0.67820
# Poissons Ratio (y) = 0.42798 0.35239
# Poissons Ratio (z) = 0.25633 0.11223
#
# Static dielectric constant tensor:
#      x y z
#    x 2.329380 0.000000 0.000000 
#    y 0.000000 2.210880 0.000000 
#    z 0.000000 0.000000 2.088150 
# 
# From -- ./inp_files/4654.got.cif
#   From: 2010.05.17/outbox.cif.g08.bks.cpg/sg68_3_cif.got.tgz:4654.got - 2010.06.03 18:57:09.
