data_PCOD9507909
_publ_section_title
;
Structure prediction by ZEFSAII (Michael W. Deem and Ramdas Pophale) SiO2 
 PCOD9507909
Probable space group: C C C A
;
_chemical_formula_sum "Si O2"
_cell_formula_units_Z 68
_cell_length_a 26.918656
_cell_length_b 24.967891
_cell_length_c 4.944143
_cell_angle_alpha 90.000000
_cell_angle_beta 90.000000
_cell_angle_gamma 90.000000
_cell_volume 3322.968739
_symmetry_space_group_name_H-M "C C C A"
_symmetry_group_IT_number 68
_space_group.IT_coordinate_system_code '2'
_symmetry_cell_setting 'orthorhombic'
loop_
_space_group_symop_operation_xyz
x,y,z
-x,1/2-y,z
x,1/2-y,1/2-z
-x,y,1/2-z
-x,-y,-z
x,1/2+y,-z
-x,1/2+y,1/2+z
x,-y,1/2+z
1/2+x,1/2+y,z
1/2-x,-y,z
1/2+x,-y,1/2-z
1/2-x,1/2+y,1/2-z
1/2-x,1/2-y,-z
1/2+x,y,-z
1/2-x,y,1/2+z
1/2+x,1/2-y,1/2+z
loop_
_atom_site_type_symbol
_atom_site_label
_atom_site_fract_x
_atom_site_fract_y
_atom_site_fract_z
Si Si1 0.919666 0.195738 0.379683
Si Si2 0.500000 0.250000 0.250000
Si Si3 0.717694 0.313718 0.232778
Si Si4 0.444136 0.036339 0.293746
Si Si5 0.881092 0.135128 0.881181
O O1 0.899406 0.250000 0.250000
O O2 0.969624 0.213015 0.539360
O O3 0.889278 0.173554 0.626208
O O4 0.914851 0.153934 0.134801
O O5 0.703740 0.250000 0.250000
O O6 0.734276 0.322725 0.541158
O O7 0.677093 0.352831 0.092950
O O8 0.500000 0.059456 0.250000
O O9 0.401827 0.077871 0.210832
O O10 0.440686 0.015327 0.598701
#
# Coordination Sequence:
#
# PCOD9507909 Si02
#       5
#    16   4  16  16  16
#     4  12  24  38  56  89 132 163 206 247 306 382
#     4  12  26  40  50  88 138 172 190 260 298 384
#     4  10  21  39  62  91 129 163 205 259 316 383
#     4  10  23  43  63  89 123 162 215 273 320 370
#     4  12  24  39  68  91 118 174 218 258 316 386
#
# _framework density 20.463626999999999
#
# number of rings (size 3 to 8) (size 9 to 14) (size 15 to 20)
#    0.000    0.941    2.353    4.588    1.647    1.882 
#    0.000    0.000    0.000    4.235    0.000    0.000 
#    0.000    0.000    0.000    0.000    0.000    0.000 
#
# Total GULP energy -189444.518602 kJ/mol
# GULP energy per Si atom -5571.897606 kJ/mol
# Density = 2.041705 g / cm^3
# Si number density = 20.463627 Si / 1000 Ang^3
#
#
#
# Elastic Constant Matrix: (Units=GPa)
#
#
# Indices 1 2 3 4 5 6 
#
# 1 114.9658 -25.2630 -1.1332 0.0000 0.0000 0.0000
# 2 -25.2630 183.8972 29.9268 0.0000 0.0000 0.0000
# 3 -1.1332 29.9268 126.2470 0.0000 0.0000 0.0000
# 4 0.0000 0.0000 0.0000 28.1450 0.0000 0.0000
# 5 0.0000 0.0000 0.0000 0.0000 27.3884 0.0000
# 6 0.0000 0.0000 0.0000 0.0000 0.0000 12.5834
#
#
#
# Elastic Compliance Matrix: (Units=1/GPa)
#
#
# Indices 1 2 3 4 5 6 
#
# 1 0.008975 0.001269 -0.000220 0.000000 0.000000 0.000000
# 2 0.001269 0.005835 -0.001372 0.000000 0.000000 0.000000
# 3 -0.000220 -0.001372 0.008244 0.000000 0.000000 0.000000
# 4 0.000000 0.000000 0.000000 0.035530 0.000000 0.000000
# 5 0.000000 0.000000 0.000000 0.000000 0.036512 0.000000
# 6 0.000000 0.000000 0.000000 0.000000 0.000000 0.079470
#
#
# Mechanical properties :
#
#
# Convention : Reuss Voigt Hill
#
# Bulk Modulus (GPa) = 44.62731 48.01903 46.32317
# Shear Modulus (GPa) = 27.36992 41.72864 34.54928
#
# Velocity S-wave (km/s) = 3.66114 4.52061 4.11338
# Velocity P-wave (km/s) = 6.30297 7.12491 6.72650
#
# Compressibility (1/GPa) = 0.02240781
#
# Stress axis : x y z
#
# Youngs Moduli (GPa) = 111.42221 171.36862 121.29726
#
# Poissons Ratio (x) = -0.21743 0.02671
# Poissons Ratio (y) = -0.14137 0.16641
# Poissons Ratio (z) = 0.02454 0.23510
#
# Static dielectric constant tensor:
#      x y z
#    x 1.852650 0.000000 0.000000 
#    y 0.000000 1.724210 0.000000 
#    z 0.000000 0.000000 1.711870 
# 
# From -- ./inp_files/2284.got.cif
#   From: 2010.05.17/outbox.cif.g08.bks.cpg/sg68_2_cif.got.tgz:2284.got - 2010.06.03 18:57:09.
