data_PCOD9507535
_publ_section_title
;
Structure prediction by ZEFSAII (Michael W. Deem and Ramdas Pophale) SiO2 
 PCOD9507535
Probable space group: C C C A
;
_chemical_formula_sum "Si O2"
_cell_formula_units_Z 44
_cell_length_a 22.186278
_cell_length_b 5.228782
_cell_length_c 15.828379
_cell_angle_alpha 90.000000
_cell_angle_beta 90.000000
_cell_angle_gamma 90.000000
_cell_volume 1836.206103
_symmetry_space_group_name_H-M "C C C A"
_symmetry_group_IT_number 68
_space_group.IT_coordinate_system_code '2'
_symmetry_cell_setting 'orthorhombic'
loop_
_space_group_symop_operation_xyz
x,y,z
-x,1/2-y,z
x,1/2-y,1/2-z
-x,y,1/2-z
-x,-y,-z
x,1/2+y,-z
-x,1/2+y,1/2+z
x,-y,1/2+z
1/2+x,1/2+y,z
1/2-x,-y,z
1/2+x,-y,1/2-z
1/2-x,1/2+y,1/2-z
1/2-x,1/2-y,-z
1/2+x,y,-z
1/2-x,y,1/2+z
1/2+x,1/2-y,1/2+z
loop_
_atom_site_type_symbol
_atom_site_label
_atom_site_fract_x
_atom_site_fract_y
_atom_site_fract_z
Si Si1 0.500000 0.750000 0.750000
Si Si2 0.899456 0.915781 0.831505
Si Si3 0.500000 0.250000 0.943941
Si Si4 0.285542 0.757772 0.647657
O O1 0.457054 0.570928 0.801658
O O2 0.874789 0.750000 0.750000
O O3 0.934486 0.733540 0.896117
O O4 0.853538 0.133399 0.864532
O O5 0.500000 0.500000 0.000000
O O6 0.281095 0.750000 0.750000
O O7 0.250000 0.500000 0.618982
O O8 0.250000 0.000000 0.612659
#
# Coordination Sequence:
#
# PCOD9507535 Si02
#       4
#     4  16   8  16
#     4  12  20  36  68 104 136 178 238 284 354 430
#     4  12  23  41  70 101 142 188 234 294 362 437
#     4  12  28  44  65 103 150 190 238 294 362 432
#     4  10  21  35  59  97 134 170 220 291 350 401
#
# _framework density 23.962451999999999
#
# number of rings (size 3 to 8) (size 9 to 14) (size 15 to 20)
#    0.000    0.727    5.455    4.364    0.000    0.000 
#    0.000    0.000    0.000    6.545    0.000    0.000 
#    0.000    6.545    0.000    0.000    0.000    0.000 
#
# Total GULP energy -122545.230296 kJ/mol
# GULP energy per Si atom -5570.237741 kJ/mol
# Density = 2.390791 g / cm^3
# Si number density = 23.962452 Si / 1000 Ang^3
#
#
#
# Elastic Constant Matrix: (Units=GPa)
#
#
# Indices 1 2 3 4 5 6 
#
# 1 196.1383 80.5082 19.9119 0.0000 0.0000 0.0000
# 2 80.5082 201.1760 33.3017 0.0000 0.0000 0.0000
# 3 19.9119 33.3017 45.6644 0.0000 0.0000 0.0000
# 4 0.0000 0.0000 0.0000 28.3863 0.0000 0.0000
# 5 0.0000 0.0000 0.0000 0.0000 -4.0267 0.0000
# 6 0.0000 0.0000 0.0000 0.0000 0.0000 61.5668
#
#
#
# Elastic Compliance Matrix: (Units=1/GPa)
#
#
# Indices 1 2 3 4 5 6 
#
# 1 0.006141 -0.002291 -0.001007 0.000000 0.000000 0.000000
# 2 -0.002291 0.006508 -0.003747 0.000000 0.000000 0.000000
# 3 -0.001007 -0.003747 0.025071 0.000000 0.000000 0.000000
# 4 0.000000 0.000000 0.000000 0.035228 0.000000 0.000000
# 5 0.000000 0.000000 0.000000 0.000000 -0.248341 0.000000
# 6 0.000000 0.000000 0.000000 0.000000 0.000000 0.016243
#
#
# Mechanical properties :
#
#
# Convention : Reuss Voigt Hill
#
# Bulk Modulus (GPa) = 42.32007 78.93582 60.62794
# Shear Modulus (GPa) = -36.44729 37.80241 0.67756
#
# Velocity S-wave (km/s) = -3.90425 3.97617 0.53233
# Velocity P-wave (km/s) = 1.62016 7.35479 5.07287
#
# Compressibility (1/GPa) = 0.02362945
#
# Stress axis : x y z
#
# Youngs Moduli (GPa) = 162.83998 153.66165 39.88729
#
# Poissons Ratio (x) = 0.35201 0.04017
# Poissons Ratio (y) = 0.37304 0.14946
# Poissons Ratio (z) = 0.16400 0.57578
#
# Static dielectric constant tensor:
#      x y z
#    x 2.017760 0.000000 0.000000 
#    y 0.000000 7.179450 0.000000 
#    z 0.000000 0.000000 1.199420 
# 
# From -- ./inp_files/33300.got.cif
#   From: 2010.05.17/outbox.cif.g08.bks.cpg/sg68_17_cif.got.tgz:33300.got - 2010.06.03 18:57:09.
