data_PCOD9507734
_publ_section_title
;
Structure prediction by ZEFSAII (Michael W. Deem and Ramdas Pophale) SiO2 
 PCOD9507734
Probable space group: C C C A
;
_chemical_formula_sum "Si O2"
_cell_formula_units_Z 56
_cell_length_a 22.866999
_cell_length_b 5.096668
_cell_length_c 24.414516
_cell_angle_alpha 90.000000
_cell_angle_beta 90.000000
_cell_angle_gamma 90.000000
_cell_volume 2845.402025
_symmetry_space_group_name_H-M "C C C A"
_symmetry_group_IT_number 68
_space_group.IT_coordinate_system_code '2'
_symmetry_cell_setting 'orthorhombic'
loop_
_space_group_symop_operation_xyz
x,y,z
-x,1/2-y,z
x,1/2-y,1/2-z
-x,y,1/2-z
-x,-y,-z
x,1/2+y,-z
-x,1/2+y,1/2+z
x,-y,1/2+z
1/2+x,1/2+y,z
1/2-x,-y,z
1/2+x,-y,1/2-z
1/2-x,1/2+y,1/2-z
1/2-x,1/2-y,-z
1/2+x,y,-z
1/2-x,y,1/2+z
1/2+x,1/2-y,1/2+z
loop_
_atom_site_type_symbol
_atom_site_label
_atom_site_fract_x
_atom_site_fract_y
_atom_site_fract_z
Si Si1 0.000000 0.750000 0.461448
Si Si2 0.569410 0.280027 0.814961
Si Si3 0.819758 0.539820 0.469260
Si Si4 0.892847 0.721588 0.122153
O O1 0.055938 0.737425 0.422625
O O2 0.000000 0.500000 0.500000
O O3 0.500000 0.250000 0.828065
O O4 0.576175 0.250000 0.750000
O O5 0.590585 0.565925 0.832194
O O6 0.604934 0.062360 0.849650
O O7 0.841895 0.248766 0.484751
O O8 0.750000 0.500000 0.471622
O O9 0.837432 0.670840 0.411860
#
# Coordination Sequence:
#
# PCOD9507734 Si02
#       4
#     8  16  16  16
#     4  12  22  32  49  80 117 146 178 226 286 344
#     4  11  22  38  57  82 114 151 196 238 286 350
#     4  10  21  38  59  84 114 152 193 232 280 346
#     4  12  21  37  57  83 115 152 190 236 289 344
#
# _framework density 19.680873999999999
#
# number of rings (size 3 to 8) (size 9 to 14) (size 15 to 20)
#    0.000    0.857    2.857    6.000    0.000    2.286 
#    0.000    0.000    0.000    3.429    0.000    0.000 
#    0.000    0.000    0.000    0.000    0.000    0.000 
#
# Total GULP energy -156455.669647 kJ/mol
# GULP energy per Si atom -5587.702487 kJ/mol
# Density = 1.963608 g / cm^3
# Si number density = 19.680874 Si / 1000 Ang^3
#
#
#
# Elastic Constant Matrix: (Units=GPa)
#
#
# Indices 1 2 3 4 5 6 
#
# 1 28.5500 16.7851 12.2957 0.0000 0.0000 0.0000
# 2 16.7851 101.6256 24.3072 0.0000 0.0000 0.0000
# 3 12.2957 24.3072 85.5338 0.0000 0.0000 0.0000
# 4 0.0000 0.0000 0.0000 47.4324 0.0000 0.0000
# 5 0.0000 0.0000 0.0000 0.0000 18.1712 0.0000
# 6 0.0000 0.0000 0.0000 0.0000 0.0000 20.6290
#
#
#
# Elastic Compliance Matrix: (Units=1/GPa)
#
#
# Indices 1 2 3 4 5 6 
#
# 1 0.040132 -0.005631 -0.004169 0.000000 0.000000 0.000000
# 2 -0.005631 0.011348 -0.002415 0.000000 0.000000 0.000000
# 3 -0.004169 -0.002415 0.012977 0.000000 0.000000 0.000000
# 4 0.000000 0.000000 0.000000 0.021083 0.000000 0.000000
# 5 0.000000 0.000000 0.000000 0.000000 0.055032 0.000000
# 6 0.000000 0.000000 0.000000 0.000000 0.000000 0.048475
#
#
# Mechanical properties :
#
#
# Convention : Reuss Voigt Hill
#
# Bulk Modulus (GPa) = 24.98363 35.83172 30.40767
# Shear Modulus (GPa) = 22.04384 28.06794 25.05589
#
# Velocity S-wave (km/s) = 3.35037 3.78054 3.57194
# Velocity P-wave (km/s) = 5.26199 6.10758 5.70049
#
# Compressibility (1/GPa) = 0.04002621
#
# Stress axis : x y z
#
# Youngs Moduli (GPa) = 24.91747 88.12223 77.05965
#
# Poissons Ratio (x) = 0.49625 0.32125
# Poissons Ratio (y) = 0.14032 0.18613
# Poissons Ratio (z) = 0.10388 0.21285
#
# Static dielectric constant tensor:
#      x y z
#    x 1.723310 0.000000 0.000000 
#    y 0.000000 1.695810 0.000000 
#    z 0.000000 0.000000 1.665580 
# 
# From -- ./inp_files/34899.got.cif
#   From: 2010.05.17/outbox.cif.g08.bks.cpg/sg68_18_cif.got.tgz:34899.got - 2010.06.03 18:57:09.
