data_PCOD9507868
_publ_section_title
;
Structure prediction by ZEFSAII (Michael W. Deem and Ramdas Pophale) SiO2 
 PCOD9507868
Probable space group: C C C A
;
_chemical_formula_sum "Si O2"
_cell_formula_units_Z 56
_cell_length_a 5.114852
_cell_length_b 27.277628
_cell_length_c 16.410358
_cell_angle_alpha 90.000000
_cell_angle_beta 90.000000
_cell_angle_gamma 90.000000
_cell_volume 2289.590053
_symmetry_space_group_name_H-M "C C C A"
_symmetry_group_IT_number 68
_space_group.IT_coordinate_system_code '2'
_symmetry_cell_setting 'orthorhombic'
loop_
_space_group_symop_operation_xyz
x,y,z
-x,1/2-y,z
x,1/2-y,1/2-z
-x,y,1/2-z
-x,-y,-z
x,1/2+y,-z
-x,1/2+y,1/2+z
x,-y,1/2+z
1/2+x,1/2+y,z
1/2-x,-y,z
1/2+x,-y,1/2-z
1/2-x,1/2+y,1/2-z
1/2-x,1/2-y,-z
1/2+x,y,-z
1/2-x,y,1/2+z
1/2+x,1/2-y,1/2+z
loop_
_atom_site_type_symbol
_atom_site_label
_atom_site_fract_x
_atom_site_fract_y
_atom_site_fract_z
Si Si1 0.253710 0.694985 0.714315
Si Si2 0.514957 0.938077 0.550258
Si Si3 0.750000 0.000000 0.306374
Si Si4 0.037153 0.820515 0.457321
O O1 0.250277 0.750000 0.750000
O O2 0.500000 0.667041 0.750000
O O3 0.310703 0.699416 0.620238
O O4 0.000000 0.669974 0.750000
O O5 0.811735 0.950762 0.523251
O O6 0.388541 0.960869 0.631716
O O7 0.525267 0.879069 0.554197
O O8 0.500000 0.983317 0.250000
O O9 0.735944 0.806538 0.469819
#
# Coordination Sequence:
#
# PCOD9507868 Si02
#       4
#    16  16   8  16
#     4  10  21  39  59  87 125 163 199 250 322 375
#     4  10  21  40  63  86 121 168 208 251 308 367
#     4  12  24  38  60  96 130 160 204 258 312 374
#     4  10  21  39  63  89 117 159 214 258 296 362
#
# _framework density 24.458528999999999
#
# number of rings (size 3 to 8) (size 9 to 14) (size 15 to 20)
#    0.000    1.714    0.000    4.286    0.000    1.143 
#    0.000   20.000    0.000    0.000    0.000    0.000 
#    0.000    0.000    0.000    0.000    0.000    0.000 
#
# Total GULP energy -156234.047751 kJ/mol
# GULP energy per Si atom -5579.787420 kJ/mol
# Density = 2.440286 g / cm^3
# Si number density = 24.458529 Si / 1000 Ang^3
#
#
#
# Elastic Constant Matrix: (Units=GPa)
#
#
# Indices 1 2 3 4 5 6 
#
# 1 219.8032 2.3980 56.3936 0.0000 0.0000 0.0000
# 2 2.3980 75.9190 25.9073 0.0000 0.0000 0.0000
# 3 56.3936 25.9073 120.1157 0.0000 0.0000 0.0000
# 4 0.0000 0.0000 0.0000 15.5843 0.0000 0.0000
# 5 0.0000 0.0000 0.0000 0.0000 44.3717 0.0000
# 6 0.0000 0.0000 0.0000 0.0000 0.0000 25.2600
#
#
#
# Elastic Compliance Matrix: (Units=1/GPa)
#
#
# Indices 1 2 3 4 5 6 
#
# 1 0.005209 0.000723 -0.002602 0.000000 0.000000 0.000000
# 2 0.000723 0.014319 -0.003428 0.000000 0.000000 0.000000
# 3 -0.002602 -0.003428 0.010286 0.000000 0.000000 0.000000
# 4 0.000000 0.000000 0.000000 0.064167 0.000000 0.000000
# 5 0.000000 0.000000 0.000000 0.000000 0.022537 0.000000
# 6 0.000000 0.000000 0.000000 0.000000 0.000000 0.039588
#
#
# Mechanical properties :
#
#
# Convention : Reuss Voigt Hill
#
# Bulk Modulus (GPa) = 52.07937 65.02620 58.55279
# Shear Modulus (GPa) = 28.88175 39.11912 34.00043
#
# Velocity S-wave (km/s) = 3.44007 4.00360 3.73248
# Velocity P-wave (km/s) = 6.09245 6.92934 6.52433
#
# Compressibility (1/GPa) = 0.01920146
#
# Stress axis : x y z
#
# Youngs Moduli (GPa) = 191.97083 69.83790 97.21829
#
# Poissons Ratio (x) = -0.05051 0.25293
# Poissons Ratio (y) = -0.13885 0.33326
# Poissons Ratio (z) = 0.49944 0.23940
#
# Static dielectric constant tensor:
#      x y z
#    x 2.026960 0.000000 0.000000 
#    y 0.000000 1.929930 0.000000 
#    z 0.000000 0.000000 2.093450 
# 
# From -- ./inp_files/18320.got.cif
#   From: 2010.05.17/outbox.cif.g08.bks.cpg/sg68_10_cif.got.tgz:18320.got - 2010.06.03 18:57:09.
