data_PCOD9507142
_publ_section_title
;
Structure prediction by ZEFSAII (Michael W. Deem and Ramdas Pophale) SiO2 
 PCOD9507142
Probable space group: C C C A
;
_chemical_formula_sum "Si O2"
_cell_formula_units_Z 84
_cell_length_a 28.635301
_cell_length_b 10.889640
_cell_length_c 12.724623
_cell_angle_alpha 90.000000
_cell_angle_beta 90.000000
_cell_angle_gamma 90.000000
_cell_volume 3967.895257
_symmetry_space_group_name_H-M "C C C A"
_symmetry_group_IT_number 68
_space_group.IT_coordinate_system_code '2'
_symmetry_cell_setting 'orthorhombic'
loop_
_space_group_symop_operation_xyz
x,y,z
-x,1/2-y,z
x,1/2-y,1/2-z
-x,y,1/2-z
-x,-y,-z
x,1/2+y,-z
-x,1/2+y,1/2+z
x,-y,1/2+z
1/2+x,1/2+y,z
1/2-x,-y,z
1/2+x,-y,1/2-z
1/2-x,1/2+y,1/2-z
1/2-x,1/2-y,-z
1/2+x,y,-z
1/2-x,y,1/2+z
1/2+x,1/2-y,1/2+z
loop_
_atom_site_type_symbol
_atom_site_label
_atom_site_fract_x
_atom_site_fract_y
_atom_site_fract_z
Si Si1 0.500000 0.750000 0.250000
Si Si2 0.659680 0.750000 0.250000
Si Si3 0.250000 0.000000 0.019055
Si Si4 0.825743 0.530136 0.856950
Si Si5 0.922402 0.642412 0.605977
Si Si6 0.188394 0.854466 0.167287
Si Si7 0.398126 0.880610 0.514881
O O1 0.533466 0.833701 0.320433
O O2 0.690935 0.834221 0.175346
O O3 0.624500 0.826888 0.325962
O O4 0.231141 0.893922 0.094287
O O5 0.207138 0.032678 0.942717
O O6 0.825578 0.461282 0.748036
O O7 0.875120 0.558384 0.910461
O O8 0.921798 0.501226 0.566730
O O9 0.923563 0.754531 0.520017
O O10 0.198718 0.750000 0.250000
O O11 0.144294 0.836509 0.090308
#
# Coordination Sequence:
#
# PCOD9507142 Si02
#       7
#     4   8   8  16  16  16  16
#     4  10  24  40  68  94 138 176 196 242 340 400
#     4   9  18  37  66  80 118 172 212 250 320 389
#     4  10  24  40  52  90 124 164 212 266 330 372
#     4  10  20  39  59  86 120 165 214 263 318 378
#     4  10  20  40  65  98 125 165 209 261 314 396
#     4  11  22  40  61  89 124 169 216 276 325 375
#     4  10  21  38  69  95 124 166 223 261 316 387
#
# _framework density 21.169915
#
# number of rings (size 3 to 8) (size 9 to 14) (size 15 to 20)
#    0.000    1.905    1.905    1.714    0.000    1.524 
#    6.857    0.000    0.000    1.143    0.000    0.000 
#    0.000    0.000    0.000    0.000    0.000    0.000 
#
# Total GULP energy -234197.474785 kJ/mol
# GULP energy per Si atom -5576.130352 kJ/mol
# Density = 2.112173 g / cm^3
# Si number density = 21.169915 Si / 1000 Ang^3
#
#
#
# Elastic Constant Matrix: (Units=GPa)
#
#
# Indices 1 2 3 4 5 6 
#
# 1 48.3318 40.8058 30.2089 0.0000 0.0000 0.0000
# 2 40.8058 98.2892 47.1250 0.0000 0.0000 0.0000
# 3 30.2089 47.1250 108.6581 0.0000 0.0000 0.0000
# 4 0.0000 0.0000 0.0000 -31.9524 0.0000 0.0000
# 5 0.0000 0.0000 0.0000 0.0000 14.1973 0.0000
# 6 0.0000 0.0000 0.0000 0.0000 0.0000 14.4628
#
#
#
# Elastic Compliance Matrix: (Units=1/GPa)
#
#
# Indices 1 2 3 4 5 6 
#
# 1 0.033251 -0.011833 -0.004112 0.000000 0.000000 0.000000
# 2 -0.011833 0.017056 -0.004107 0.000000 0.000000 0.000000
# 3 -0.004112 -0.004107 0.012128 0.000000 0.000000 0.000000
# 4 0.000000 0.000000 0.000000 -0.031297 0.000000 0.000000
# 5 0.000000 0.000000 0.000000 0.000000 0.070436 0.000000
# 6 0.000000 0.000000 0.000000 0.000000 0.000000 0.069143
#
#
# Mechanical properties :
#
#
# Convention : Reuss Voigt Hill
#
# Bulk Modulus (GPa) = 44.78398 54.61760 49.70079
# Shear Modulus (GPa) = 22.90786 8.48415 15.69600
#
# Velocity S-wave (km/s) = 3.29309 2.00408 2.72587
# Velocity P-wave (km/s) = 5.97158 5.58666 5.78232
#
# Compressibility (1/GPa) = 0.02232941
#
# Stress axis : x y z
#
# Youngs Moduli (GPa) = 30.07437 58.63089 82.45446
#
# Poissons Ratio (x) = 0.69376 0.33909
# Poissons Ratio (y) = 0.35586 0.33867
# Poissons Ratio (z) = 0.12368 0.24082
#
# Static dielectric constant tensor:
#      x y z
#    x 1.755400 0.000000 0.000000 
#    y 0.000000 1.594700 0.000000 
#    z 0.000000 0.000000 1.812030 
# 
# From -- ./inp_files/12115.got.cif
#   From: 2010.05.17/outbox.cif.g08.bks.cpg/sg68_7_cif.got.tgz:12115.got - 2010.06.03 18:57:09.
