data_PCOD9507750
_publ_section_title
;
Structure prediction by ZEFSAII (Michael W. Deem and Ramdas Pophale) SiO2 
 PCOD9507750
Probable space group: C C C A
;
_chemical_formula_sum "Si O2"
_cell_formula_units_Z 68
_cell_length_a 28.036518
_cell_length_b 7.355845
_cell_length_c 14.499294
_cell_angle_alpha 90.000000
_cell_angle_beta 90.000000
_cell_angle_gamma 90.000000
_cell_volume 2990.222471
_symmetry_space_group_name_H-M "C C C A"
_symmetry_group_IT_number 68
_space_group.IT_coordinate_system_code '2'
_symmetry_cell_setting 'orthorhombic'
loop_
_space_group_symop_operation_xyz
x,y,z
-x,1/2-y,z
x,1/2-y,1/2-z
-x,y,1/2-z
-x,-y,-z
x,1/2+y,-z
-x,1/2+y,1/2+z
x,-y,1/2+z
1/2+x,1/2+y,z
1/2-x,-y,z
1/2+x,-y,1/2-z
1/2-x,1/2+y,1/2-z
1/2-x,1/2-y,-z
1/2+x,y,-z
1/2-x,y,1/2+z
1/2+x,1/2-y,1/2+z
loop_
_atom_site_type_symbol
_atom_site_label
_atom_site_fract_x
_atom_site_fract_y
_atom_site_fract_z
Si Si1 0.641477 0.571693 0.353252
Si Si2 0.568984 0.056740 0.298727
Si Si3 0.500000 0.750000 0.250000
Si Si4 0.721450 0.750000 0.250000
Si Si5 0.142278 0.462077 0.450142
Si Si6 0.750000 0.000000 0.402158
O O1 0.601144 0.532490 0.280590
O O2 0.689034 0.585386 0.290708
O O3 0.639946 0.768924 0.399857
O O4 0.633705 0.446089 0.441365
O O5 0.554572 0.250000 0.250000
O O6 0.529268 0.898150 0.311978
O O7 0.603056 0.072755 0.389488
O O8 0.749042 0.675075 0.163476
O O9 0.198673 0.515262 0.449928
#
# Coordination Sequence:
#
# PCOD9507750 Si02
#       6
#    16  16   4   8  16   8
#     4  11  21  44  66  98 150 182 236 294 348 409
#     4  12  24  46  76 105 139 187 229 298 369 419
#     4  12  24  52  80  98 148 174 238 298 360 448
#     4  10  21  38  60  93 148 193 232 297 328 412
#     4  11  23  40  66 103 143 192 237 294 346 421
#     4  10  22  36  60 100 138 196 240 278 350 406
#
# _framework density 22.740781999999999
#
# number of rings (size 3 to 8) (size 9 to 14) (size 15 to 20)
#    0.000    0.941    7.059    1.765    1.647    6.588 
#    0.000    1.176    0.000    0.000    0.000    0.000 
#    0.000    0.000    0.000    0.000    0.000    0.000 
#
# Total GULP energy -189404.434057 kJ/mol
# GULP energy per Si atom -5570.718649 kJ/mol
# Density = 2.268902 g / cm^3
# Si number density = 22.740782 Si / 1000 Ang^3
#
#
#
# Elastic Constant Matrix: (Units=GPa)
#
#
# Indices 1 2 3 4 5 6 
#
# 1 85.5620 37.9262 26.1620 0.0000 0.0000 0.0000
# 2 37.9262 104.3527 -1.7754 0.0000 0.0000 0.0000
# 3 26.1620 -1.7754 106.4121 0.0000 0.0000 0.0000
# 4 0.0000 0.0000 0.0000 23.1889 0.0000 0.0000
# 5 0.0000 0.0000 0.0000 0.0000 30.7861 0.0000
# 6 0.0000 0.0000 0.0000 0.0000 0.0000 8.5550
#
#
#
# Elastic Compliance Matrix: (Units=1/GPa)
#
#
# Indices 1 2 3 4 5 6 
#
# 1 0.015379 -0.005655 -0.003875 0.000000 0.000000 0.000000
# 2 -0.005655 0.011665 0.001585 0.000000 0.000000 0.000000
# 3 -0.003875 0.001585 0.010377 0.000000 0.000000 0.000000
# 4 0.000000 0.000000 0.000000 0.043124 0.000000 0.000000
# 5 0.000000 0.000000 0.000000 0.000000 0.032482 0.000000
# 6 0.000000 0.000000 0.000000 0.000000 0.000000 0.116891
#
#
# Mechanical properties :
#
#
# Convention : Reuss Voigt Hill
#
# Bulk Modulus (GPa) = 46.44770 46.77248 46.61009
# Shear Modulus (GPa) = 19.76388 28.10693 23.93541
#
# Velocity S-wave (km/s) = 2.95124 3.51945 3.24780
# Velocity P-wave (km/s) = 5.66412 6.09325 5.88260
#
# Compressibility (1/GPa) = 0.02152959
#
# Stress axis : x y z
#
# Youngs Moduli (GPa) = 65.02282 85.72463 96.37011
#
# Poissons Ratio (x) = 0.48481 0.37347
# Poissons Ratio (y) = 0.36773 -0.15275
# Poissons Ratio (z) = 0.25199 -0.13588
#
# Static dielectric constant tensor:
#      x y z
#    x 1.963060 0.000000 0.000000 
#    y 0.000000 1.967980 0.000000 
#    z 0.000000 0.000000 1.859940 
# 
# From -- ./inp_files/25796.got.cif
#   From: 2010.05.17/outbox.cif.g08.bks.cpg/sg68_13_cif.got.tgz:25796.got - 2010.06.03 18:57:09.
