data_PCOD9507643
_publ_section_title
;
Structure prediction by ZEFSAII (Michael W. Deem and Ramdas Pophale) SiO2 
 PCOD9507643
Probable space group: C C C A
;
_chemical_formula_sum "Si O2"
_cell_formula_units_Z 80
_cell_length_a 20.476878
_cell_length_b 14.871711
_cell_length_c 11.828744
_cell_angle_alpha 90.000000
_cell_angle_beta 90.000000
_cell_angle_gamma 90.000000
_cell_volume 3602.162601
_symmetry_space_group_name_H-M "C C C A"
_symmetry_group_IT_number 68
_space_group.IT_coordinate_system_code '2'
_symmetry_cell_setting 'orthorhombic'
loop_
_space_group_symop_operation_xyz
x,y,z
-x,1/2-y,z
x,1/2-y,1/2-z
-x,y,1/2-z
-x,-y,-z
x,1/2+y,-z
-x,1/2+y,1/2+z
x,-y,1/2+z
1/2+x,1/2+y,z
1/2-x,-y,z
1/2+x,-y,1/2-z
1/2-x,1/2+y,1/2-z
1/2-x,1/2-y,-z
1/2+x,y,-z
1/2-x,y,1/2+z
1/2+x,1/2-y,1/2+z
loop_
_atom_site_type_symbol
_atom_site_label
_atom_site_fract_x
_atom_site_fract_y
_atom_site_fract_z
Si Si1 0.160422 0.554331 0.592064
Si Si2 0.505761 0.582523 0.376296
Si Si3 0.979280 0.124331 0.879947
Si Si4 0.837669 0.318622 0.607645
Si Si5 0.284987 0.135028 0.350884
O O1 0.083810 0.564739 0.612608
O O2 0.179657 0.600942 0.475195
O O3 0.209350 0.610579 0.672722
O O4 0.181461 0.451667 0.595324
O O5 0.500000 0.624274 0.250000
O O6 0.485282 0.629934 0.495487
O O7 0.469519 0.485067 0.373841
O O8 0.915763 0.185664 0.897123
O O9 0.000000 0.144560 0.750000
O O10 0.802200 0.225301 0.581896
O O11 0.819065 0.348269 0.732066
#
# Coordination Sequence:
#
# PCOD9507643 Si02
#       5
#    16  16  16  16  16
#     4  10  21  37  59  87 123 165 205 258 324 380
#     4   9  17  32  56  89 123 162 210 257 317 385
#     4   9  17  32  56  87 125 163 206 261 314 372
#     4  10  21  39  60  90 126 162 212 265 315 377
#     4  10  21  37  60  91 122 159 212 260 316 380
#
# _framework density 22.208881999999999
#
# number of rings (size 3 to 8) (size 9 to 14) (size 15 to 20)
#    0.000    2.400    0.000    3.000    0.000    3.200 
#    0.000   10.000    0.000    0.000    0.000   53.200 
#    0.000    0.000    0.000    0.000    0.000    0.000 
#
# Total GULP energy -222689.336266 kJ/mol
# GULP energy per Si atom -5567.233407 kJ/mol
# Density = 2.215833 g / cm^3
# Si number density = 22.208882 Si / 1000 Ang^3
#
#
#
# Elastic Constant Matrix: (Units=GPa)
#
#
# Indices 1 2 3 4 5 6 
#
# 1 73.6849 47.2285 8.8842 0.0000 0.0000 0.0000
# 2 47.2285 147.9387 48.1253 0.0000 0.0000 0.0000
# 3 8.8842 48.1253 156.0974 0.0000 0.0000 0.0000
# 4 0.0000 0.0000 0.0000 137.9465 0.0000 0.0000
# 5 0.0000 0.0000 0.0000 0.0000 18.2190 0.0000
# 6 0.0000 0.0000 0.0000 0.0000 0.0000 17.2409
#
#
#
# Elastic Compliance Matrix: (Units=1/GPa)
#
#
# Indices 1 2 3 4 5 6 
#
# 1 0.017150 -0.005732 0.000791 0.000000 0.000000 0.000000
# 2 -0.005732 0.009429 -0.002581 0.000000 0.000000 0.000000
# 3 0.000791 -0.002581 0.007157 0.000000 0.000000 0.000000
# 4 0.000000 0.000000 0.000000 0.007249 0.000000 0.000000
# 5 0.000000 0.000000 0.000000 0.000000 0.054888 0.000000
# 6 0.000000 0.000000 0.000000 0.000000 0.000000 0.058002
#
#
# Mechanical properties :
#
#
# Convention : Reuss Voigt Hill
#
# Bulk Modulus (GPa) = 53.49831 65.13300 59.31565
# Shear Modulus (GPa) = 28.54706 52.91349 40.73028
#
# Velocity S-wave (km/s) = 3.58912 4.88642 4.28713
# Velocity P-wave (km/s) = 6.42781 7.82478 7.16045
#
# Compressibility (1/GPa) = 0.01869218
#
# Stress axis : x y z
#
# Youngs Moduli (GPa) = 58.30855 106.05412 139.72563
#
# Poissons Ratio (x) = 0.60795 -0.11056
# Poissons Ratio (y) = 0.33425 0.36060
# Poissons Ratio (z) = -0.04614 0.27370
#
# Static dielectric constant tensor:
#      x y z
#    x 2.407930 0.000000 0.000000 
#    y 0.000000 1.811450 0.000000 
#    z 0.000000 0.000000 1.893920 
# 
# From -- ./inp_files/16206.got.cif
#   From: 2010.05.17/outbox.cif.g08.bks.cpg/sg68_9_cif.got.tgz:16206.got - 2010.06.03 18:57:09.
