data_PCOD9507414
_publ_section_title
;
Structure prediction by ZEFSAII (Michael W. Deem and Ramdas Pophale) SiO2 
 PCOD9507414
Probable space group: C C C A
;
_chemical_formula_sum "Si O2"
_cell_formula_units_Z 108
_cell_length_a 11.501875
_cell_length_b 14.881296
_cell_length_c 30.720651
_cell_angle_alpha 90.000000
_cell_angle_beta 90.000000
_cell_angle_gamma 90.000000
_cell_volume 5258.232841
_symmetry_space_group_name_H-M "C C C A"
_symmetry_group_IT_number 68
_space_group.IT_coordinate_system_code '2'
_symmetry_cell_setting 'orthorhombic'
loop_
_space_group_symop_operation_xyz
x,y,z
-x,1/2-y,z
x,1/2-y,1/2-z
-x,y,1/2-z
-x,-y,-z
x,1/2+y,-z
-x,1/2+y,1/2+z
x,-y,1/2+z
1/2+x,1/2+y,z
1/2-x,-y,z
1/2+x,-y,1/2-z
1/2-x,1/2+y,1/2-z
1/2-x,1/2-y,-z
1/2+x,y,-z
1/2-x,y,1/2+z
1/2+x,1/2-y,1/2+z
loop_
_atom_site_type_symbol
_atom_site_label
_atom_site_fract_x
_atom_site_fract_y
_atom_site_fract_z
Si Si1 0.750000 0.500000 0.237223
Si Si2 0.613550 0.117877 0.319946
Si Si3 0.370451 0.730300 0.452074
Si Si4 0.500000 0.250000 0.250000
Si Si5 0.876749 0.836025 0.725720
Si Si6 0.934324 0.842894 0.105965
Si Si7 0.296868 0.898489 0.975516
Si Si8 0.295115 0.749909 0.142864
O O1 0.644956 0.471789 0.205597
O O2 0.793464 0.419283 0.266855
O O3 0.567202 0.185845 0.283333
O O4 0.520780 0.110847 0.359196
O O5 0.732776 0.162537 0.337066
O O6 0.500000 0.750000 0.466379
O O7 0.333901 0.640638 0.477695
O O8 0.294438 0.819578 0.462237
O O9 0.359179 0.720263 0.400604
O O10 0.823132 0.750000 0.750000
O O11 0.876953 0.804338 0.675925
O O12 0.000000 0.850429 0.750000
O O13 0.896696 0.893218 0.061918
O O14 0.815303 0.813705 0.130284
O O15 0.000000 0.750000 0.093635
O O16 0.250000 0.000000 0.977199
#
# Coordination Sequence:
#
# PCOD9507414 Si02
#       8
#     8  16  16   4  16  16  16  16
#     4  12  26  40  62  98 130 176 230 276 324 384
#     4  11  22  39  65  98 128 173 228 278 321 386
#     4  10  23  42  71  95 131 173 214 272 333 404
#     4  12  20  40  72  88 124 184 232 268 328 372
#     4  11  25  43  62  87 133 178 212 270 330 386
#     4   9  19  39  69  93 127 174 218 271 322 390
#     4  10  22  45  67 102 132 167 217 269 337 397
#     4  10  20  43  65  93 129 175 220 270 327 395
#
# _framework density 20.53922
#
# number of rings (size 3 to 8) (size 9 to 14) (size 15 to 20)
#    0.000    1.630    3.704    1.333    3.111    1.778 
#   14.667    0.000    0.000    0.000    0.000    0.000 
#    0.000    0.000    0.000    0.000    0.000    0.000 
#
# Total GULP energy -301313.721820 kJ/mol
# GULP energy per Si atom -5579.883737 kJ/mol
# Density = 2.049247 g / cm^3
# Si number density = 20.539220 Si / 1000 Ang^3
#
#
#
# Elastic Constant Matrix: (Units=GPa)
#
#
# Indices 1 2 3 4 5 6 
#
# 1 68.6170 26.9477 40.8981 0.0000 0.0000 0.0000
# 2 26.9477 107.1555 62.5385 0.0000 0.0000 0.0000
# 3 40.8981 62.5385 154.1356 0.0000 0.0000 0.0000
# 4 0.0000 0.0000 0.0000 -6.3485 0.0000 0.0000
# 5 0.0000 0.0000 0.0000 0.0000 -10.4296 0.0000
# 6 0.0000 0.0000 0.0000 0.0000 0.0000 12.4816
#
#
#
# Elastic Compliance Matrix: (Units=1/GPa)
#
#
# Indices 1 2 3 4 5 6 
#
# 1 0.017713 -0.002243 -0.003790 0.000000 0.000000 0.000000
# 2 -0.002243 0.012512 -0.004481 0.000000 0.000000 0.000000
# 3 -0.003790 -0.004481 0.009312 0.000000 0.000000 0.000000
# 4 0.000000 0.000000 0.000000 -0.157517 0.000000 0.000000
# 5 0.000000 0.000000 0.000000 0.000000 -0.095881 0.000000
# 6 0.000000 0.000000 0.000000 0.000000 0.000000 0.080118
#
#
# Mechanical properties :
#
#
# Convention : Reuss Voigt Hill
#
# Bulk Modulus (GPa) = 54.02908 65.63075 59.82992
# Shear Modulus (GPa) = -46.92853 12.44227 -17.24313
#
# Velocity S-wave (km/s) = -4.78517 2.46393 -2.90059
# Velocity P-wave (km/s) = 2.04158 6.33387 4.23968
#
# Compressibility (1/GPa) = 0.01850855
#
# Stress axis : x y z
#
# Youngs Moduli (GPa) = 56.45428 79.92551 107.39139
#
# Poissons Ratio (x) = 0.17924 0.40703
# Poissons Ratio (y) = 0.12660 0.48126
# Poissons Ratio (z) = 0.21397 0.35818
#
# Static dielectric constant tensor:
#      x y z
#    x 1.791290 0.000000 0.000000 
#    y 0.000000 1.768090 0.000000 
#    z 0.000000 0.000000 1.769530 
# 
# From -- ./inp_files/54860.got.cif
#   From: 2010.05.17/outbox.cif.g08.bks.cpg/sg68_28_cif.got.tgz:54860.got - 2010.06.03 18:57:09.
