data_PCOD9507745
_publ_section_title
;
Structure prediction by ZEFSAII (Michael W. Deem and Ramdas Pophale) SiO2 
 PCOD9507745
Probable space group: C C C A
;
_chemical_formula_sum "Si O2"
_cell_formula_units_Z 64
_cell_length_a 17.719974
_cell_length_b 22.417333
_cell_length_c 8.145580
_cell_angle_alpha 90.000000
_cell_angle_beta 90.000000
_cell_angle_gamma 90.000000
_cell_volume 3235.705870
_symmetry_space_group_name_H-M "C C C A"
_symmetry_group_IT_number 68
_space_group.IT_coordinate_system_code '2'
_symmetry_cell_setting 'orthorhombic'
loop_
_space_group_symop_operation_xyz
x,y,z
-x,1/2-y,z
x,1/2-y,1/2-z
-x,y,1/2-z
-x,-y,-z
x,1/2+y,-z
-x,1/2+y,1/2+z
x,-y,1/2+z
1/2+x,1/2+y,z
1/2-x,-y,z
1/2+x,-y,1/2-z
1/2-x,1/2+y,1/2-z
1/2-x,1/2-y,-z
1/2+x,y,-z
1/2-x,y,1/2+z
1/2+x,1/2-y,1/2+z
loop_
_atom_site_type_symbol
_atom_site_label
_atom_site_fract_x
_atom_site_fract_y
_atom_site_fract_z
Si Si1 0.669289 0.079678 0.713637
Si Si2 0.815261 0.211031 0.089296
Si Si3 0.750000 0.000000 0.468315
Si Si4 0.500000 0.113068 0.750000
Si Si5 0.531698 0.684006 0.578575
O O1 0.700569 0.145126 0.663836
O O2 0.685691 0.031226 0.574278
O O3 0.580398 0.080960 0.747930
O O4 0.714669 0.053396 0.865208
O O5 0.841641 0.250000 0.250000
O O6 0.750000 0.250000 0.000000
O O7 0.879210 0.194489 0.953772
O O8 0.501869 0.150598 0.581912
O O9 0.500000 0.750000 0.574498
O O10 0.500000 0.657166 0.750000
#
# Coordination Sequence:
#
# PCOD9507745 Si02
#       5
#    16  16   8   8  16
#     4  10  22  42  65  91 128 171 216 272 330 386
#     4  11  23  39  64 100 134 167 215 273 336 404
#     4  10  22  44  62  90 130 170 220 274 324 390
#     4  10  21  42  64  92 124 170 219 278 326 388
#     4  10  21  38  60  89 132 174 208 260 326 397
#
# _framework density 19.779301
#
# number of rings (size 3 to 8) (size 9 to 14) (size 15 to 20)
#    0.000    1.750    0.000    4.875    3.500    1.000 
#   18.000    0.000    0.000    0.000    0.000    0.000 
#    0.000    0.000    0.000    0.000    0.000    0.000 
#
# Total GULP energy -178257.106735 kJ/mol
# GULP energy per Si atom -5570.534585 kJ/mol
# Density = 1.973428 g / cm^3
# Si number density = 19.779301 Si / 1000 Ang^3
#
#
#
# Elastic Constant Matrix: (Units=GPa)
#
#
# Indices 1 2 3 4 5 6 
#
# 1 148.3064 52.6101 78.3198 0.0000 0.0000 0.0000
# 2 52.6101 95.7934 29.7880 0.0000 0.0000 0.0000
# 3 78.3198 29.7880 130.8341 0.0000 0.0000 0.0000
# 4 0.0000 0.0000 0.0000 26.9431 0.0000 0.0000
# 5 0.0000 0.0000 0.0000 0.0000 33.7663 0.0000
# 6 0.0000 0.0000 0.0000 0.0000 0.0000 30.8777
#
#
#
# Elastic Compliance Matrix: (Units=1/GPa)
#
#
# Indices 1 2 3 4 5 6 
#
# 1 0.011385 -0.004448 -0.005803 0.000000 0.000000 0.000000
# 2 -0.004448 0.012973 -0.000291 0.000000 0.000000 0.000000
# 3 -0.005803 -0.000291 0.011183 0.000000 0.000000 0.000000
# 4 0.000000 0.000000 0.000000 0.037115 0.000000 0.000000
# 5 0.000000 0.000000 0.000000 0.000000 0.029615 0.000000
# 6 0.000000 0.000000 0.000000 0.000000 0.000000 0.032386
#
#
# Mechanical properties :
#
#
# Convention : Reuss Voigt Hill
#
# Bulk Modulus (GPa) = 69.16852 77.37442 73.27147
# Shear Modulus (GPa) = 31.14110 32.59847 31.86978
#
# Velocity S-wave (km/s) = 3.97221 4.06410 4.01842
# Velocity P-wave (km/s) = 7.48893 7.82472 7.65867
#
# Compressibility (1/GPa) = 0.01445744
#
# Stress axis : x y z
#
# Youngs Moduli (GPa) = 87.83399 77.08559 89.42162
#
# Poissons Ratio (x) = 0.34291 0.51887
# Poissons Ratio (y) = 0.39072 0.02599
# Poissons Ratio (z) = 0.50966 0.02241
#
# Static dielectric constant tensor:
#      x y z
#    x 1.712460 0.000000 0.000000 
#    y 0.000000 1.680450 0.000000 
#    z 0.000000 0.000000 1.809780 
# 
# From -- ./inp_files/5847.got.cif
#   From: 2010.05.17/outbox.cif.g08.bks.cpg/sg68_3_cif.got.tgz:5847.got - 2010.06.03 18:57:09.
