data_PCOD9507196
_publ_section_title
;
Structure prediction by ZEFSAII (Michael W. Deem and Ramdas Pophale) SiO2 
 PCOD9507196
Probable space group: C C C A
;
_chemical_formula_sum "Si O2"
_cell_formula_units_Z 96
_cell_length_a 12.967096
_cell_length_b 15.717539
_cell_length_c 24.852493
_cell_angle_alpha 90.000000
_cell_angle_beta 90.000000
_cell_angle_gamma 90.000000
_cell_volume 5065.207402
_symmetry_space_group_name_H-M "C C C A"
_symmetry_group_IT_number 68
_space_group.IT_coordinate_system_code '2'
_symmetry_cell_setting 'orthorhombic'
loop_
_space_group_symop_operation_xyz
x,y,z
-x,1/2-y,z
x,1/2-y,1/2-z
-x,y,1/2-z
-x,-y,-z
x,1/2+y,-z
-x,1/2+y,1/2+z
x,-y,1/2+z
1/2+x,1/2+y,z
1/2-x,-y,z
1/2+x,-y,1/2-z
1/2-x,1/2+y,1/2-z
1/2-x,1/2-y,-z
1/2+x,y,-z
1/2-x,y,1/2+z
1/2+x,1/2-y,1/2+z
loop_
_atom_site_type_symbol
_atom_site_label
_atom_site_fract_x
_atom_site_fract_y
_atom_site_fract_z
Si Si1 0.181644 0.738578 0.188964
Si Si2 0.500000 0.500785 0.750000
Si Si3 0.000000 0.750000 0.113670
Si Si4 0.436240 0.915682 0.558942
Si Si5 0.830191 0.420016 0.326007
Si Si6 0.134007 0.966355 0.943411
Si Si7 0.834672 0.932362 0.331353
O O1 0.146856 0.750000 0.250000
O O2 0.270291 0.667357 0.186987
O O3 0.206792 0.835486 0.170516
O O4 0.087167 0.709308 0.151589
O O5 0.421849 0.443593 0.714733
O O6 0.568230 0.556922 0.708756
O O7 0.948596 0.680507 0.076827
O O8 0.389617 0.921076 0.499752
O O9 0.369629 0.954869 0.607854
O O10 0.547993 0.960016 0.559557
O O11 0.750000 0.500000 0.323880
O O12 0.871692 0.415521 0.387337
O O13 0.250000 0.000000 0.946494
O O14 0.750000 0.000000 0.313277
#
# Coordination Sequence:
#
# PCOD9507196 Si02
#       7
#    16   8   8  16  16  16  16
#     4  11  23  37  62  92 126 166 211 257 313 380
#     4  12  22  40  68  92 130 176 210 270 322 386
#     4  10  21  36  60  92 124 155 214 262 308 368
#     4  10  21  39  63  92 118 163 209 258 316 377
#     4  11  23  41  63  97 129 167 213 261 324 383
#     4  10  20  39  65  87 122 162 208 253 319 377
#     4  11  24  41  61  94 127 164 213 267 315 378
#
# _framework density 18.952828
#
# number of rings (size 3 to 8) (size 9 to 14) (size 15 to 20)
#    0.000    1.333    1.667    5.250    7.000    0.000 
#    0.000   14.583    0.000    0.000    0.000    0.000 
#    0.000    0.000    0.000    0.000    0.000    0.000 
#
# Total GULP energy -267953.666926 kJ/mol
# GULP energy per Si atom -5582.368061 kJ/mol
# Density = 1.890969 g / cm^3
# Si number density = 18.952828 Si / 1000 Ang^3
#
#
#
# Elastic Constant Matrix: (Units=GPa)
#
#
# Indices 1 2 3 4 5 6 
#
# 1 91.9916 48.2357 49.6662 0.0000 0.0000 0.0000
# 2 48.2357 90.4967 39.1888 0.0000 0.0000 0.0000
# 3 49.6662 39.1888 162.5431 0.0000 0.0000 0.0000
# 4 0.0000 0.0000 0.0000 20.0957 0.0000 0.0000
# 5 0.0000 0.0000 0.0000 0.0000 33.1956 0.0000
# 6 0.0000 0.0000 0.0000 0.0000 0.0000 27.4435
#
#
#
# Elastic Compliance Matrix: (Units=1/GPa)
#
#
# Indices 1 2 3 4 5 6 
#
# 1 0.016504 -0.007384 -0.003263 0.000000 0.000000 0.000000
# 2 -0.007384 0.015642 -0.001515 0.000000 0.000000 0.000000
# 3 -0.003263 -0.001515 0.007514 0.000000 0.000000 0.000000
# 4 0.000000 0.000000 0.000000 0.049762 0.000000 0.000000
# 5 0.000000 0.000000 0.000000 0.000000 0.030124 0.000000
# 6 0.000000 0.000000 0.000000 0.000000 0.000000 0.036439
#
#
# Mechanical properties :
#
#
# Convention : Reuss Voigt Hill
#
# Bulk Modulus (GPa) = 65.20158 68.80143 67.00150
# Shear Modulus (GPa) = 26.96580 30.00968 28.48774
#
# Velocity S-wave (km/s) = 3.77607 3.98350 3.88117
# Velocity P-wave (km/s) = 7.31357 7.58537 7.45071
#
# Compressibility (1/GPa) = 0.01533705
#
# Stress axis : x y z
#
# Youngs Moduli (GPa) = 60.59238 63.93100 133.07781
#
# Poissons Ratio (x) = 0.47205 0.43418
# Poissons Ratio (y) = 0.44740 0.20162
# Poissons Ratio (z) = 0.19769 0.09686
#
# Static dielectric constant tensor:
#      x y z
#    x 1.662590 0.000000 0.000000 
#    y 0.000000 1.656460 0.000000 
#    z 0.000000 0.000000 1.677270 
# 
# From -- ./inp_files/44466.got.cif
#   From: 2010.05.17/outbox.cif.g08.bks.cpg/sg68_23_cif.got.tgz:44466.got - 2010.06.03 18:57:09.
