data_PCOD9507977
_publ_section_title
;
Structure prediction by ZEFSAII (Michael W. Deem and Ramdas Pophale) SiO2 
 PCOD9507977
Probable space group: C C C A
;
_chemical_formula_sum "Si O2"
_cell_formula_units_Z 64
_cell_length_a 15.187057
_cell_length_b 19.063910
_cell_length_c 8.357259
_cell_angle_alpha 90.000000
_cell_angle_beta 90.000000
_cell_angle_gamma 90.000000
_cell_volume 2419.632803
_symmetry_space_group_name_H-M "C C C A"
_symmetry_group_IT_number 68
_space_group.IT_coordinate_system_code '2'
_symmetry_cell_setting 'orthorhombic'
loop_
_space_group_symop_operation_xyz
x,y,z
-x,1/2-y,z
x,1/2-y,1/2-z
-x,y,1/2-z
-x,-y,-z
x,1/2+y,-z
-x,1/2+y,1/2+z
x,-y,1/2+z
1/2+x,1/2+y,z
1/2-x,-y,z
1/2+x,-y,1/2-z
1/2-x,1/2+y,1/2-z
1/2-x,1/2-y,-z
1/2+x,y,-z
1/2-x,y,1/2+z
1/2+x,1/2-y,1/2+z
loop_
_atom_site_type_symbol
_atom_site_label
_atom_site_fract_x
_atom_site_fract_y
_atom_site_fract_z
Si Si1 0.955638 0.930344 0.571434
Si Si2 0.727280 0.428398 0.834163
Si Si3 0.893162 0.209806 0.917178
Si Si4 0.314064 0.166942 0.565240
O O1 0.851682 0.950235 0.551144
O O2 0.952575 0.856296 0.470130
O O3 0.000000 0.922846 0.750000
O O4 0.000000 0.000000 0.500000
O O5 0.750000 0.500000 0.747335
O O6 0.673743 0.375360 0.724769
O O7 0.806869 0.386660 0.915969
O O8 0.910747 0.250000 0.750000
O O9 0.884237 0.272353 0.045697
O O10 0.788554 0.189917 0.914755
#
# Coordination Sequence:
#
# PCOD9507977 Si02
#       4
#    16  16  16  16
#     4  11  29  51  77 112 166 215 262 327 418 497
#     4  11  24  42  79 112 152 203 262 334 384 483
#     4  10  21  45  81 114 155 201 265 336 393 482
#     4  10  21  39  75 119 150 188 266 331 399 445
#
# _framework density 26.450292999999999
#
# number of rings (size 3 to 8) (size 9 to 14) (size 15 to 20)
#    0.000    1.500    2.500    0.750   10.500    0.000 
#    0.000    2.500    0.000    0.000    0.000    0.000 
#    0.000    0.000    0.000    0.000    0.000    0.000 
#
# Total GULP energy -178394.318420 kJ/mol
# GULP energy per Si atom -5574.822451 kJ/mol
# Density = 2.639009 g / cm^3
# Si number density = 26.450293 Si / 1000 Ang^3
#
#
#
# Elastic Constant Matrix: (Units=GPa)
#
#
# Indices 1 2 3 4 5 6 
#
# 1 83.7636 57.7270 -4.6031 0.0000 0.0000 0.0000
# 2 57.7270 223.8711 88.6823 0.0000 0.0000 0.0000
# 3 -4.6031 88.6823 117.2967 0.0000 0.0000 0.0000
# 4 0.0000 0.0000 0.0000 143.2109 0.0000 0.0000
# 5 0.0000 0.0000 0.0000 0.0000 8.9874 0.0000
# 6 0.0000 0.0000 0.0000 0.0000 0.0000 61.3967
#
#
#
# Elastic Compliance Matrix: (Units=1/GPa)
#
#
# Indices 1 2 3 4 5 6 
#
# 1 0.016752 -0.006538 0.005601 0.000000 0.000000 0.000000
# 2 -0.006538 0.008928 -0.007007 0.000000 0.000000 0.000000
# 3 0.005601 -0.007007 0.014043 0.000000 0.000000 0.000000
# 4 0.000000 0.000000 0.000000 0.006983 0.000000 0.000000
# 5 0.000000 0.000000 0.000000 0.000000 0.111267 0.000000
# 6 0.000000 0.000000 0.000000 0.000000 0.000000 0.016288
#
#
# Mechanical properties :
#
#
# Convention : Reuss Voigt Hill
#
# Bulk Modulus (GPa) = 41.95647 78.72707 60.34177
# Shear Modulus (GPa) = 25.24049 61.59401 43.41725
#
# Velocity S-wave (km/s) = 3.09246 4.83086 4.05590
# Velocity P-wave (km/s) = 5.35238 7.80674 6.69302
#
# Compressibility (1/GPa) = 0.02383422
#
# Stress axis : x y z
#
# Youngs Moduli (GPa) = 59.69413 112.00131 71.21093
#
# Poissons Ratio (x) = 0.73229 -0.39883
# Poissons Ratio (y) = 0.39029 0.49897
# Poissons Ratio (z) = -0.33433 0.78479
#
# Static dielectric constant tensor:
#      x y z
#    x 2.226770 0.000000 0.000000 
#    y 0.000000 2.248690 0.000000 
#    z 0.000000 0.000000 2.232430 
# 
# From -- ./inp_files/5798.got.cif
#   From: 2010.05.17/outbox.cif.g08.bks.cpg/sg68_3_cif.got.tgz:5798.got - 2010.06.03 18:57:09.
