data_PCOD9507913
_publ_section_title
;
Structure prediction by ZEFSAII (Michael W. Deem and Ramdas Pophale) SiO2 
 PCOD9507913
Probable space group: C C C A
;
_chemical_formula_sum "Si O2"
_cell_formula_units_Z 88
_cell_length_a 25.183592
_cell_length_b 13.877592
_cell_length_c 11.806052
_cell_angle_alpha 90.000000
_cell_angle_beta 90.000000
_cell_angle_gamma 90.000000
_cell_volume 4126.068955
_symmetry_space_group_name_H-M "C C C A"
_symmetry_group_IT_number 68
_space_group.IT_coordinate_system_code '2'
_symmetry_cell_setting 'orthorhombic'
loop_
_space_group_symop_operation_xyz
x,y,z
-x,1/2-y,z
x,1/2-y,1/2-z
-x,y,1/2-z
-x,-y,-z
x,1/2+y,-z
-x,1/2+y,1/2+z
x,-y,1/2+z
1/2+x,1/2+y,z
1/2-x,-y,z
1/2+x,-y,1/2-z
1/2-x,1/2+y,1/2-z
1/2-x,1/2-y,-z
1/2+x,y,-z
1/2-x,y,1/2+z
1/2+x,1/2-y,1/2+z
loop_
_atom_site_type_symbol
_atom_site_label
_atom_site_fract_x
_atom_site_fract_y
_atom_site_fract_z
Si Si1 0.442862 0.951502 0.639680
Si Si2 0.837306 0.998873 0.981367
Si Si3 0.986168 0.145640 0.448727
Si Si4 0.399836 0.375631 0.134803
Si Si5 0.187129 0.250000 0.750000
Si Si6 0.248215 0.649717 0.435722
O O1 0.381504 0.969858 0.608236
O O2 0.472721 0.054961 0.632059
O O3 0.468963 0.889249 0.538545
O O4 0.438760 0.898471 0.760264
O O5 0.803650 0.906738 0.938503
O O6 0.794644 0.082037 0.997061
O O7 0.869584 0.971434 0.093729
O O8 0.934403 0.157755 0.528423
O O9 0.000000 0.250000 0.398694
O O10 0.353728 0.301151 0.164955
O O11 0.224312 0.172789 0.687722
O O12 0.250000 0.750000 0.500000
#
# Coordination Sequence:
#
# PCOD9507913 Si02
#       6
#    16  16  16  16   8  16
#     4  10  21  39  62  96 131 164 216 267 327 389
#     4  10  23  40  62  87 130 166 211 268 331 378
#     4  10  22  38  65  97 129 169 215 271 327 384
#     4  11  21  38  65  94 124 174 216 263 317 399
#     4  12  22  38  69  92 126 168 235 266 320 396
#     4  11  23  41  60  92 125 168 215 273 324 382
#
# _framework density 21.327805999999999
#
# number of rings (size 3 to 8) (size 9 to 14) (size 15 to 20)
#    0.000    1.455    3.636    1.636    0.000    2.182 
#    0.000    0.000    0.000   30.545    0.000    0.000 
#    0.000    0.000    0.000    0.000    0.000    0.000 
#
# Total GULP energy -245804.432036 kJ/mol
# GULP energy per Si atom -5586.464364 kJ/mol
# Density = 2.127926 g / cm^3
# Si number density = 21.327806 Si / 1000 Ang^3
#
#
#
# Elastic Constant Matrix: (Units=GPa)
#
#
# Indices 1 2 3 4 5 6 
#
# 1 98.4203 15.7595 16.6050 0.0000 0.0000 0.0000
# 2 15.7595 94.3628 -9.0053 0.0000 0.0000 0.0000
# 3 16.6050 -9.0053 36.1070 0.0000 0.0000 0.0000
# 4 0.0000 0.0000 0.0000 19.3939 0.0000 0.0000
# 5 0.0000 0.0000 0.0000 0.0000 29.6352 0.0000
# 6 0.0000 0.0000 0.0000 0.0000 0.0000 30.0528
#
#
#
# Elastic Compliance Matrix: (Units=1/GPa)
#
#
# Indices 1 2 3 4 5 6 
#
# 1 0.011563 -0.002498 -0.005941 0.000000 0.000000 0.000000
# 2 -0.002498 0.011395 0.003991 0.000000 0.000000 0.000000
# 3 -0.005941 0.003991 0.031423 0.000000 0.000000 0.000000
# 4 0.000000 0.000000 0.000000 0.051563 0.000000 0.000000
# 5 0.000000 0.000000 0.000000 0.000000 0.033744 0.000000
# 6 0.000000 0.000000 0.000000 0.000000 0.000000 0.033275
#
#
# Mechanical properties :
#
#
# Convention : Reuss Voigt Hill
#
# Bulk Modulus (GPa) = 21.98495 30.62317 26.30406
# Shear Modulus (GPa) = 25.37824 29.51846 27.44835
#
# Velocity S-wave (km/s) = 3.45325 3.72430 3.59134
# Velocity P-wave (km/s) = 5.12157 5.73440 5.43663
#
# Compressibility (1/GPa) = 0.04548567
#
# Stress axis : x y z
#
# Youngs Moduli (GPa) = 86.48455 87.75436 31.82404
#
# Poissons Ratio (x) = 0.21921 0.18905
# Poissons Ratio (y) = 0.21604 -0.12701
# Poissons Ratio (z) = 0.51376 -0.35022
#
# Static dielectric constant tensor:
#      x y z
#    x 1.784570 0.000000 0.000000 
#    y 0.000000 1.793980 0.000000 
#    z 0.000000 0.000000 1.843360 
# 
# From -- ./inp_files/21150.got.cif
#   From: 2010.05.17/outbox.cif.g08.bks.cpg/sg68_11_cif.got.tgz:21150.got - 2010.06.03 18:57:09.
