data_PCOD9507765
_publ_section_title
;
Structure prediction by ZEFSAII (Michael W. Deem and Ramdas Pophale) SiO2 
 PCOD9507765
Probable space group: C C C A
;
_chemical_formula_sum "Si O2"
_cell_formula_units_Z 56
_cell_length_a 4.847297
_cell_length_b 16.273570
_cell_length_c 30.058158
_cell_angle_alpha 90.000000
_cell_angle_beta 90.000000
_cell_angle_gamma 90.000000
_cell_volume 2371.072479
_symmetry_space_group_name_H-M "C C C A"
_symmetry_group_IT_number 68
_space_group.IT_coordinate_system_code '2'
_symmetry_cell_setting 'orthorhombic'
loop_
_space_group_symop_operation_xyz
x,y,z
-x,1/2-y,z
x,1/2-y,1/2-z
-x,y,1/2-z
-x,-y,-z
x,1/2+y,-z
-x,1/2+y,1/2+z
x,-y,1/2+z
1/2+x,1/2+y,z
1/2-x,-y,z
1/2+x,-y,1/2-z
1/2-x,1/2+y,1/2-z
1/2-x,1/2-y,-z
1/2+x,y,-z
1/2-x,y,1/2+z
1/2+x,1/2-y,1/2+z
loop_
_atom_site_type_symbol
_atom_site_label
_atom_site_fract_x
_atom_site_fract_y
_atom_site_fract_z
Si Si1 0.346599 0.335148 0.165102
Si Si2 0.321170 0.093490 0.618902
Si Si3 0.500000 0.556992 0.750000
Si Si4 0.049601 0.845201 0.969728
O O1 0.500000 0.250000 0.176572
O O2 0.526284 0.363213 0.122659
O O3 0.400169 0.390379 0.208277
O O4 0.031548 0.354557 0.150679
O O5 0.452885 0.097871 0.570292
O O6 0.250000 0.000000 0.631783
O O7 0.750000 0.500000 0.735209
O O8 0.000000 0.750000 0.955286
O O9 0.357127 0.857023 0.987035
#
# Coordination Sequence:
#
# PCOD9507765 Si02
#       4
#    16  16   8  16
#     4  12  25  44  68  96 131 175 223 268 327 404
#     4  12  25  42  66  97 133 172 219 277 337 395
#     4  12  25  44  69  98 134 168 212 272 335 392
#     4  10  21  38  61  90 126 169 217 270 331 399
#
# _framework density 23.618003999999999
#
# number of rings (size 3 to 8) (size 9 to 14) (size 15 to 20)
#    0.000    0.571    0.000    9.857    0.000    3.429 
#    0.000    4.286    0.000    0.000    0.000    0.000 
#    0.000    0.000    0.000    0.000    0.000    0.000 
#
# Total GULP energy -156546.179466 kJ/mol
# GULP energy per Si atom -5590.934981 kJ/mol
# Density = 2.356425 g / cm^3
# Si number density = 23.618004 Si / 1000 Ang^3
#
#
#
# Elastic Constant Matrix: (Units=GPa)
#
#
# Indices 1 2 3 4 5 6 
#
# 1 111.5838 18.4994 3.4981 0.0000 0.0000 0.0000
# 2 18.4994 89.6060 26.8748 0.0000 0.0000 0.0000
# 3 3.4981 26.8748 92.3077 0.0000 0.0000 0.0000
# 4 0.0000 0.0000 0.0000 200.0915 0.0000 0.0000
# 5 0.0000 0.0000 0.0000 0.0000 23.2308 0.0000
# 6 0.0000 0.0000 0.0000 0.0000 0.0000 29.9276
#
#
#
# Elastic Compliance Matrix: (Units=1/GPa)
#
#
# Indices 1 2 3 4 5 6 
#
# 1 0.009284 -0.001984 0.000226 0.000000 0.000000 0.000000
# 2 -0.001984 0.012652 -0.003608 0.000000 0.000000 0.000000
# 3 0.000226 -0.003608 0.011875 0.000000 0.000000 0.000000
# 4 0.000000 0.000000 0.000000 0.004998 0.000000 0.000000
# 5 0.000000 0.000000 0.000000 0.000000 0.043046 0.000000
# 6 0.000000 0.000000 0.000000 0.000000 0.000000 0.033414
#
#
# Mechanical properties :
#
#
# Convention : Reuss Voigt Hill
#
# Bulk Modulus (GPa) = 43.33250 43.47133 43.40192
# Shear Modulus (GPa) = 37.39858 66.95834 52.17846
#
# Velocity S-wave (km/s) = 3.98361 5.33030 4.70538
# Velocity P-wave (km/s) = 6.28856 7.50525 6.92368
#
# Compressibility (1/GPa) = 0.02307737
#
# Stress axis : x y z
#
# Youngs Moduli (GPa) = 107.71466 79.03974 84.20835
#
# Poissons Ratio (x) = 0.15685 -0.01903
# Poissons Ratio (y) = 0.21375 0.30385
# Poissons Ratio (z) = -0.02434 0.28520
#
# Static dielectric constant tensor:
#      x y z
#    x 1.621580 0.000000 0.000000 
#    y 0.000000 1.974050 0.000000 
#    z 0.000000 0.000000 1.832650 
# 
# From -- ./inp_files/52782.got.cif
#   From: 2010.05.17/outbox.cif.g08.bks.cpg/sg68_27_cif.got.tgz:52782.got - 2010.06.03 18:57:09.
