data_PCOD9507265
_publ_section_title
;
Structure prediction by ZEFSAII (Michael W. Deem and Ramdas Pophale) SiO2 
 PCOD9507265
Probable space group: C C C A
;
_chemical_formula_sum "Si O2"
_cell_formula_units_Z 64
_cell_length_a 34.158218
_cell_length_b 8.829981
_cell_length_c 10.415927
_cell_angle_alpha 90.000000
_cell_angle_beta 90.000000
_cell_angle_gamma 90.000000
_cell_volume 3141.614570
_symmetry_space_group_name_H-M "C C C A"
_symmetry_group_IT_number 68
_space_group.IT_coordinate_system_code '2'
_symmetry_cell_setting 'orthorhombic'
loop_
_space_group_symop_operation_xyz
x,y,z
-x,1/2-y,z
x,1/2-y,1/2-z
-x,y,1/2-z
-x,-y,-z
x,1/2+y,-z
-x,1/2+y,1/2+z
x,-y,1/2+z
1/2+x,1/2+y,z
1/2-x,-y,z
1/2+x,-y,1/2-z
1/2-x,1/2+y,1/2-z
1/2-x,1/2-y,-z
1/2+x,y,-z
1/2-x,y,1/2+z
1/2+x,1/2-y,1/2+z
loop_
_atom_site_type_symbol
_atom_site_label
_atom_site_fract_x
_atom_site_fract_y
_atom_site_fract_z
Si Si1 0.500000 0.250000 0.436893
Si Si2 0.397476 0.750000 0.250000
Si Si3 0.673530 0.366181 0.905799
Si Si4 0.964931 0.955237 0.846921
Si Si5 0.704587 0.959359 0.356798
O O1 0.474172 0.136364 0.523190
O O2 0.470412 0.365184 0.366467
O O3 0.369377 0.692521 0.135499
O O4 0.424982 0.888989 0.208203
O O5 0.688105 0.471708 0.787996
O O6 0.699776 0.215488 0.897399
O O7 0.679571 0.444340 0.041546
O O8 0.000000 0.915450 0.750000
O O9 0.750000 0.000000 0.361662
#
# Coordination Sequence:
#
# PCOD9507265 Si02
#       5
#     8   8  16  16  16
#     4  10  22  34  66  88 108 154 214 238 312 366
#     4  10  21  40  60  82 136 154 194 272 316 370
#     4  10  24  38  61  96 126 169 209 253 324 368
#     4  11  20  40  58  89 116 154 202 255 298 374
#     4  10  20  40  63  91 126 166 215 259 300 372
#
# _framework density 20.371689
#
# number of rings (size 3 to 8) (size 9 to 14) (size 15 to 20)
#    0.000    2.000    2.500    1.875    0.000    7.000 
#    0.000    0.000   11.000    0.000    0.000    0.000 
#    0.000    0.000    0.000    0.000    0.000    0.000 
#
# Total GULP energy -178601.966189 kJ/mol
# GULP energy per Si atom -5581.311443 kJ/mol
# Density = 2.032532 g / cm^3
# Si number density = 20.371689 Si / 1000 Ang^3
#
#
#
# Elastic Constant Matrix: (Units=GPa)
#
#
# Indices 1 2 3 4 5 6 
#
# 1 147.0531 60.7263 45.6189 0.0000 0.0000 0.0000
# 2 60.7263 125.4019 38.5049 0.0000 0.0000 0.0000
# 3 45.6189 38.5049 26.6844 0.0000 0.0000 0.0000
# 4 0.0000 0.0000 0.0000 49.4311 0.0000 0.0000
# 5 0.0000 0.0000 0.0000 0.0000 -38.2688 0.0000
# 6 0.0000 0.0000 0.0000 0.0000 0.0000 51.6887
#
#
#
# Elastic Compliance Matrix: (Units=1/GPa)
#
#
# Indices 1 2 3 4 5 6 
#
# 1 0.014558 0.001063 -0.026422 0.000000 0.000000 0.000000
# 2 0.001063 0.014396 -0.022591 0.000000 0.000000 0.000000
# 3 -0.026422 -0.022591 0.115243 0.000000 0.000000 0.000000
# 4 0.000000 0.000000 0.000000 0.020230 0.000000 0.000000
# 5 0.000000 0.000000 0.000000 0.000000 -0.026131 0.000000
# 6 0.000000 0.000000 0.000000 0.000000 0.000000 0.019347
#
#
# Mechanical properties :
#
#
# Convention : Reuss Voigt Hill
#
# Bulk Modulus (GPa) = 20.70474 65.42663 43.06569
# Shear Modulus (GPa) = 18.54320 22.85614 20.69967
#
# Velocity S-wave (km/s) = 3.02030 3.35320 3.19109
# Velocity P-wave (km/s) = 4.72742 6.86863 5.89604
#
# Compressibility (1/GPa) = 0.04829812
#
# Stress axis : x y z
#
# Youngs Moduli (GPa) = 68.69165 69.46359 8.67732
#
# Poissons Ratio (x) = -0.07385 0.22927
# Poissons Ratio (y) = -0.07303 0.19603
# Poissons Ratio (z) = 1.81496 1.56923
#
# Static dielectric constant tensor:
#      x y z
#    x 1.703240 0.000000 0.000000 
#    y 0.000000 1.739810 0.000000 
#    z 0.000000 0.000000 1.801600 
# 
# From -- ./inp_files/17488.got.cif
#   From: 2010.05.17/outbox.cif.g08.bks.cpg/sg68_9_cif.got.tgz:17488.got - 2010.06.03 18:57:09.
