data_PCOD9507278
_publ_section_title
;
Structure prediction by ZEFSAII (Michael W. Deem and Ramdas Pophale) SiO2 
 PCOD9507278
Probable space group: C C C A
;
_chemical_formula_sum "Si O2"
_cell_formula_units_Z 104
_cell_length_a 28.924611
_cell_length_b 8.244299
_cell_length_c 19.381735
_cell_angle_alpha 90.000000
_cell_angle_beta 90.000000
_cell_angle_gamma 90.000000
_cell_volume 4621.829417
_symmetry_space_group_name_H-M "C C C A"
_symmetry_group_IT_number 68
_space_group.IT_coordinate_system_code '2'
_symmetry_cell_setting 'orthorhombic'
loop_
_space_group_symop_operation_xyz
x,y,z
-x,1/2-y,z
x,1/2-y,1/2-z
-x,y,1/2-z
-x,-y,-z
x,1/2+y,-z
-x,1/2+y,1/2+z
x,-y,1/2+z
1/2+x,1/2+y,z
1/2-x,-y,z
1/2+x,-y,1/2-z
1/2-x,1/2+y,1/2-z
1/2-x,1/2-y,-z
1/2+x,y,-z
1/2-x,y,1/2+z
1/2+x,1/2-y,1/2+z
loop_
_atom_site_type_symbol
_atom_site_label
_atom_site_fract_x
_atom_site_fract_y
_atom_site_fract_z
Si Si1 0.447713 0.681066 0.156718
Si Si2 0.197634 0.813694 0.077144
Si Si3 0.947732 0.518317 0.476241
Si Si4 0.907275 0.826336 0.409043
Si Si5 0.250000 0.500000 0.041208
Si Si6 0.598335 0.981424 0.274757
Si Si7 0.799378 0.565407 0.227047
O O1 0.500000 0.750000 0.162943
O O2 0.438626 0.619797 0.080444
O O3 0.436032 0.535221 0.209974
O O4 0.413412 0.822091 0.180625
O O5 0.144234 0.766645 0.075373
O O6 0.227184 0.648408 0.082419
O O7 0.202293 0.928230 0.143770
O O8 0.213354 0.912887 0.009903
O O9 0.940460 0.687333 0.437437
O O10 0.916954 0.483436 0.543336
O O11 0.000000 0.500000 0.500000
O O12 0.910322 0.872178 0.328452
O O13 0.652187 0.981981 0.252598
O O14 0.803945 0.750000 0.250000
O O15 0.750000 0.500000 0.252337
#
# Coordination Sequence:
#
# PCOD9507278 Si02
#       7
#    16  16  16  16   8  16  16
#     4  11  24  45  73 101 137 182 231 287 355 415
#     4  10  22  41  63  95 129 172 221 274 329 399
#     4  12  25  42  69 101 139 175 223 281 346 421
#     4  11  23  41  65  99 134 178 221 280 342 403
#     4  10  20  40  64  92 130 170 224 270 332 390
#     4  10  24  44  70  98 137 182 236 285 340 418
#     4  11  26  45  67  99 141 182 236 284 346 406
#
# _framework density 22.501912999999998
#
# number of rings (size 3 to 8) (size 9 to 14) (size 15 to 20)
#    0.000    1.231    0.769    5.077    7.538    1.231 
#    2.769    0.000    3.385    0.000    0.000    0.000 
#    0.000    0.000    0.000    0.000    0.000    0.000 
#
# Total GULP energy -290741.064958 kJ/mol
# GULP energy per Si atom -5591.174326 kJ/mol
# Density = 2.245070 g / cm^3
# Si number density = 22.501913 Si / 1000 Ang^3
#
#
#
# Elastic Constant Matrix: (Units=GPa)
#
#
# Indices 1 2 3 4 5 6 
#
# 1 108.5215 27.9817 22.9864 0.0000 0.0000 0.0000
# 2 27.9817 62.3840 -9.4504 0.0000 0.0000 0.0000
# 3 22.9864 -9.4504 76.8974 0.0000 0.0000 0.0000
# 4 0.0000 0.0000 0.0000 35.3277 0.0000 0.0000
# 5 0.0000 0.0000 0.0000 0.0000 -2.3367 0.0000
# 6 0.0000 0.0000 0.0000 0.0000 0.0000 45.0203
#
#
#
# Elastic Compliance Matrix: (Units=1/GPa)
#
#
# Indices 1 2 3 4 5 6 
#
# 1 0.011608 -0.005841 -0.004188 0.000000 0.000000 0.000000
# 2 -0.005841 0.019273 0.004115 0.000000 0.000000 0.000000
# 3 -0.004188 0.004115 0.014762 0.000000 0.000000 0.000000
# 4 0.000000 0.000000 0.000000 0.028306 0.000000 0.000000
# 5 0.000000 0.000000 0.000000 0.000000 -0.427959 0.000000
# 6 0.000000 0.000000 0.000000 0.000000 0.000000 0.022212
#
#
# Mechanical properties :
#
#
# Convention : Reuss Voigt Hill
#
# Bulk Modulus (GPa) = 29.57317 36.75981 33.16649
# Shear Modulus (GPa) = -16.19707 29.35460 6.57876
#
# Velocity S-wave (km/s) = -2.68584 3.61576 1.71172
# Velocity P-wave (km/s) = 1.88488 5.81407 4.32181
#
# Compressibility (1/GPa) = 0.03381444
#
# Stress axis : x y z
#
# Youngs Moduli (GPa) = 86.14875 51.88621 67.74248
#
# Poissons Ratio (x) = 0.30306 0.28368
# Poissons Ratio (y) = 0.50319 -0.27873
# Poissons Ratio (z) = 0.36076 -0.21349
#
# Static dielectric constant tensor:
#      x y z
#    x 1.829130 0.000000 0.000000 
#    y 0.000000 1.615970 0.000000 
#    z 0.000000 0.000000 1.866520 
# 
# From -- ./inp_files/41315.got.cif
#   From: 2010.05.17/outbox.cif.g08.bks.cpg/sg68_21_cif.got.tgz:41315.got - 2010.06.03 18:57:09.
