data_PCOD9507126
_publ_section_title
;
Structure prediction by ZEFSAII (Michael W. Deem and Ramdas Pophale) SiO2 
 PCOD9507126
Probable space group: C C C A
;
_chemical_formula_sum "Si O2"
_cell_formula_units_Z 88
_cell_length_a 13.348241
_cell_length_b 14.217923
_cell_length_c 22.392651
_cell_angle_alpha 90.000000
_cell_angle_beta 90.000000
_cell_angle_gamma 90.000000
_cell_volume 4249.772760
_symmetry_space_group_name_H-M "C C C A"
_symmetry_group_IT_number 68
_space_group.IT_coordinate_system_code '2'
_symmetry_cell_setting 'orthorhombic'
loop_
_space_group_symop_operation_xyz
x,y,z
-x,1/2-y,z
x,1/2-y,1/2-z
-x,y,1/2-z
-x,-y,-z
x,1/2+y,-z
-x,1/2+y,1/2+z
x,-y,1/2+z
1/2+x,1/2+y,z
1/2-x,-y,z
1/2+x,-y,1/2-z
1/2-x,1/2+y,1/2-z
1/2-x,1/2-y,-z
1/2+x,y,-z
1/2-x,y,1/2+z
1/2+x,1/2-y,1/2+z
loop_
_atom_site_type_symbol
_atom_site_label
_atom_site_fract_x
_atom_site_fract_y
_atom_site_fract_z
Si Si1 0.845352 0.431713 0.523639
Si Si2 0.739793 0.188626 0.375032
Si Si3 0.250000 0.500000 0.193646
Si Si4 0.581372 0.549833 0.129073
Si Si5 0.620237 0.630833 0.390196
Si Si6 0.104057 0.383330 0.778537
O O1 0.750000 0.500000 0.514010
O O2 0.814601 0.341446 0.563667
O O3 0.917480 0.493809 0.566005
O O4 0.880600 0.397996 0.459551
O O5 0.812328 0.100092 0.362384
O O6 0.811619 0.277300 0.382194
O O7 0.659638 0.191628 0.321552
O O8 0.327161 0.552992 0.150765
O O9 0.186256 0.573773 0.233165
O O10 0.495110 0.627931 0.130078
O O11 0.572058 0.471188 0.179345
O O12 0.000000 0.351631 0.750000
#
# Coordination Sequence:
#
# PCOD9507126 Si02
#       6
#    16  16   8  16  16  16
#     4   9  19  38  62  90 127 167 206 255 321 395
#     4  10  22  39  64  92 128 160 206 273 326 366
#     4  12  24  38  62  86 122 164 208 258 312 392
#     4  10  20  38  67  89 121 170 210 263 322 379
#     4  12  22  37  61  96 125 161 213 265 316 377
#     4  11  21  43  65  85 122 172 213 254 323 397
#
# _framework density 20.706990000000001
#
# number of rings (size 3 to 8) (size 9 to 14) (size 15 to 20)
#    0.000    1.455    4.545    2.727    0.000    0.727 
#    0.000    1.818    0.000    0.000    0.000    0.000 
#    0.000    0.000    0.000    0.000    0.000    0.000 
#
# Total GULP energy -245755.271062 kJ/mol
# GULP energy per Si atom -5585.347070 kJ/mol
# Density = 2.065986 g / cm^3
# Si number density = 20.706990 Si / 1000 Ang^3
#
#
#
# Elastic Constant Matrix: (Units=GPa)
#
#
# Indices 1 2 3 4 5 6 
#
# 1 105.7417 10.0934 44.1646 0.0000 0.0000 0.0000
# 2 10.0934 58.2657 19.5931 0.0000 0.0000 0.0000
# 3 44.1646 19.5931 105.6852 0.0000 0.0000 0.0000
# 4 0.0000 0.0000 0.0000 10.6538 0.0000 0.0000
# 5 0.0000 0.0000 0.0000 0.0000 21.6229 0.0000
# 6 0.0000 0.0000 0.0000 0.0000 0.0000 42.0163
#
#
#
# Elastic Compliance Matrix: (Units=1/GPa)
#
#
# Indices 1 2 3 4 5 6 
#
# 1 0.011465 -0.000400 -0.004717 0.000000 0.000000 0.000000
# 2 -0.000400 0.018318 -0.003229 0.000000 0.000000 0.000000
# 3 -0.004717 -0.003229 0.012032 0.000000 0.000000 0.000000
# 4 0.000000 0.000000 0.000000 0.093863 0.000000 0.000000
# 5 0.000000 0.000000 0.000000 0.000000 0.046247 0.000000
# 6 0.000000 0.000000 0.000000 0.000000 0.000000 0.023800
#
#
# Mechanical properties :
#
#
# Convention : Reuss Voigt Hill
#
# Bulk Modulus (GPa) = 39.80366 46.37720 43.09043
# Shear Modulus (GPa) = 21.66453 27.91471 24.78962
#
# Velocity S-wave (km/s) = 3.23808 3.67561 3.46376
# Velocity P-wave (km/s) = 5.76578 6.36073 6.07055
#
# Compressibility (1/GPa) = 0.02512332
#
# Stress axis : x y z
#
# Youngs Moduli (GPa) = 87.21935 54.59172 83.11250
#
# Poissons Ratio (x) = 0.02183 0.39205
# Poissons Ratio (y) = 0.03488 0.26836
# Poissons Ratio (z) = 0.41142 0.17627
#
# Static dielectric constant tensor:
#      x y z
#    x 1.732110 0.000000 0.000000 
#    y 0.000000 1.738920 0.000000 
#    z 0.000000 0.000000 1.729930 
# 
# From -- ./inp_files/38496.got.cif
#   From: 2010.05.17/outbox.cif.g08.bks.cpg/sg68_20_cif.got.tgz:38496.got - 2010.06.03 18:57:09.
