data_PCOD9507272
_publ_section_title
;
Structure prediction by ZEFSAII (Michael W. Deem and Ramdas Pophale) SiO2 
 PCOD9507272
Probable space group: C C C A
;
_chemical_formula_sum "Si O2"
_cell_formula_units_Z 100
_cell_length_a 21.626488
_cell_length_b 9.333951
_cell_length_c 22.729554
_cell_angle_alpha 90.000000
_cell_angle_beta 90.000000
_cell_angle_gamma 90.000000
_cell_volume 4588.200938
_symmetry_space_group_name_H-M "C C C A"
_symmetry_group_IT_number 68
_space_group.IT_coordinate_system_code '2'
_symmetry_cell_setting 'orthorhombic'
loop_
_space_group_symop_operation_xyz
x,y,z
-x,1/2-y,z
x,1/2-y,1/2-z
-x,y,1/2-z
-x,-y,-z
x,1/2+y,-z
-x,1/2+y,1/2+z
x,-y,1/2+z
1/2+x,1/2+y,z
1/2-x,-y,z
1/2+x,-y,1/2-z
1/2-x,1/2+y,1/2-z
1/2-x,1/2-y,-z
1/2+x,y,-z
1/2-x,y,1/2+z
1/2+x,1/2-y,1/2+z
loop_
_atom_site_type_symbol
_atom_site_label
_atom_site_fract_x
_atom_site_fract_y
_atom_site_fract_z
Si Si1 0.000000 0.750000 0.750000
Si Si2 0.617831 0.510156 0.957754
Si Si3 0.718063 0.237985 0.682536
Si Si4 0.074257 0.260574 0.682534
Si Si5 0.130676 0.153115 0.569497
Si Si6 0.250000 0.000000 0.608934
Si Si7 0.250000 0.000000 0.401142
Si Si8 0.911922 0.411251 0.339789
O O1 0.038097 0.649970 0.705155
O O2 0.617529 0.683643 0.952287
O O3 0.689249 0.473956 0.939843
O O4 0.579225 0.414139 0.910515
O O5 0.601694 0.455695 0.022533
O O6 0.738465 0.250000 0.750000
O O7 0.714481 0.390484 0.651264
O O8 0.760262 0.134484 0.642452
O O9 0.650962 0.166598 0.678449
O O10 0.092533 0.250000 0.750000
O O11 0.103935 0.152305 0.635748
O O12 0.094564 0.419973 0.667768
O O13 0.000000 0.250000 0.677824
O O14 0.201593 0.097651 0.573259
#
# Coordination Sequence:
#
# PCOD9507272 Si02
#       8
#     4  16  16  16  16   8   8  16
#     4  12  20  44  74  96 128 184 226 278 354 408
#     4  10  23  44  61  98 135 178 225 282 337 410
#     4  11  23  40  61  99 140 177 226 280 344 403
#     4  10  23  47  73  99 131 180 232 290 349 417
#     4  11  25  43  68  99 138 180 233 283 345 416
#     4  12  26  38  66 102 132 193 225 270 354 425
#     4  10  20  40  64  86 140 179 225 286 324 405
#     4  10  24  41  67 101 133 170 228 288 337 401
#
# _framework density 21.795034000000001
#
# number of rings (size 3 to 8) (size 9 to 14) (size 15 to 20)
#    0.000    1.440    2.400    1.920    6.720    3.200 
#    1.440    1.600    0.000    0.000    0.000    0.000 
#    0.000    0.000    0.000    0.000    0.000    0.000 
#
# Total GULP energy -278984.664017 kJ/mol
# GULP energy per Si atom -5579.693280 kJ/mol
# Density = 2.174543 g / cm^3
# Si number density = 21.795034 Si / 1000 Ang^3
#
#
#
# Elastic Constant Matrix: (Units=GPa)
#
#
# Indices 1 2 3 4 5 6 
#
# 1 51.4456 26.0769 29.9575 0.0000 0.0000 0.0000
# 2 26.0769 101.4510 45.8340 0.0000 0.0000 0.0000
# 3 29.9575 45.8340 155.5857 0.0000 0.0000 0.0000
# 4 0.0000 0.0000 0.0000 24.9777 0.0000 0.0000
# 5 0.0000 0.0000 0.0000 0.0000 20.9509 0.0000
# 6 0.0000 0.0000 0.0000 0.0000 0.0000 19.6141
#
#
#
# Elastic Compliance Matrix: (Units=1/GPa)
#
#
# Indices 1 2 3 4 5 6 
#
# 1 0.023644 -0.004638 -0.003186 0.000000 0.000000 0.000000
# 2 -0.004638 0.012280 -0.002725 0.000000 0.000000 0.000000
# 3 -0.003186 -0.002725 0.007843 0.000000 0.000000 0.000000
# 4 0.000000 0.000000 0.000000 0.040036 0.000000 0.000000
# 5 0.000000 0.000000 0.000000 0.000000 0.047731 0.000000
# 6 0.000000 0.000000 0.000000 0.000000 0.000000 0.050984
#
#
# Mechanical properties :
#
#
# Convention : Reuss Voigt Hill
#
# Bulk Modulus (GPa) = 44.11095 56.91324 50.51210
# Shear Modulus (GPa) = 23.67734 26.88280 25.28007
#
# Velocity S-wave (km/s) = 3.29958 3.51584 3.40943
# Velocity P-wave (km/s) = 5.89909 6.53079 6.22296
#
# Compressibility (1/GPa) = 0.02267011
#
# Stress axis : x y z
#
# Youngs Moduli (GPa) = 42.29337 81.43307 127.49461
#
# Poissons Ratio (x) = 0.37769 0.40624
# Poissons Ratio (y) = 0.19616 0.34736
# Poissons Ratio (z) = 0.13476 0.22187
#
# Static dielectric constant tensor:
#      x y z
#    x 1.820450 0.000000 0.000000 
#    y 0.000000 1.786770 0.000000 
#    z 0.000000 0.000000 1.999060 
# 
# From -- ./inp_files/41372.got.cif
#   From: 2010.05.17/outbox.cif.g08.bks.cpg/sg68_21_cif.got.tgz:41372.got - 2010.06.03 18:57:09.
