data_PCOD9507564
_publ_section_title
;
Structure prediction by ZEFSAII (Michael W. Deem and Ramdas Pophale) SiO2 
 PCOD9507564
Probable space group: C C C A
;
_chemical_formula_sum "Si O2"
_cell_formula_units_Z 64
_cell_length_a 8.945298
_cell_length_b 16.279421
_cell_length_c 24.585224
_cell_angle_alpha 90.000000
_cell_angle_beta 90.000000
_cell_angle_gamma 90.000000
_cell_volume 3580.205350
_symmetry_space_group_name_H-M "C C C A"
_symmetry_group_IT_number 68
_space_group.IT_coordinate_system_code '2'
_symmetry_cell_setting 'orthorhombic'
loop_
_space_group_symop_operation_xyz
x,y,z
-x,1/2-y,z
x,1/2-y,1/2-z
-x,y,1/2-z
-x,-y,-z
x,1/2+y,-z
-x,1/2+y,1/2+z
x,-y,1/2+z
1/2+x,1/2+y,z
1/2-x,-y,z
1/2+x,-y,1/2-z
1/2-x,1/2+y,1/2-z
1/2-x,1/2-y,-z
1/2+x,y,-z
1/2-x,y,1/2+z
1/2+x,1/2-y,1/2+z
loop_
_atom_site_type_symbol
_atom_site_label
_atom_site_fract_x
_atom_site_fract_y
_atom_site_fract_z
Si Si1 0.821851 0.759178 0.941543
Si Si2 0.104955 0.832629 0.839550
Si Si3 0.331139 0.348551 0.255154
Si Si4 0.692117 0.590212 0.132120
O O1 0.795164 0.696021 0.891194
O O2 0.778188 0.847061 0.916823
O O3 0.000000 0.750000 0.948649
O O4 0.750000 0.750000 0.000000
O O5 0.208572 0.865835 0.791479
O O6 0.000000 0.750000 0.825676
O O7 0.984867 0.900591 0.856837
O O8 0.340831 0.250000 0.250000
O O9 0.500000 0.381814 0.250000
O O10 0.269847 0.376633 0.313122
O O11 0.750000 0.500000 0.120771
#
# Coordination Sequence:
#
# PCOD9507564 Si02
#       4
#    16  16  16  16
#     4   9  19  35  57  80 103 147 194 231 283 347
#     4   9  18  35  56  78 110 156 191 225 282 348
#     4  11  20  31  54  87 115 147 193 229 274 349
#     4  10  21  36  56  82 114 146 188 237 290 337
#
# _framework density 17.876069999999999
#
# number of rings (size 3 to 8) (size 9 to 14) (size 15 to 20)
#    0.000    2.750    5.000    0.750    0.000    4.000 
#    0.000    5.000    0.000    1.500    0.000    0.000 
#    0.000    0.000    0.000    0.000    0.000    0.000 
#
# Total GULP energy -178138.594348 kJ/mol
# GULP energy per Si atom -5566.831073 kJ/mol
# Density = 1.783538 g / cm^3
# Si number density = 17.876070 Si / 1000 Ang^3
#
#
#
# Elastic Constant Matrix: (Units=GPa)
#
#
# Indices 1 2 3 4 5 6 
#
# 1 63.1669 43.6483 61.5924 0.0000 0.0000 0.0000
# 2 43.6483 102.6554 62.3755 0.0000 0.0000 0.0000
# 3 61.5924 62.3755 172.5655 0.0000 0.0000 0.0000
# 4 0.0000 0.0000 0.0000 13.1043 0.0000 0.0000
# 5 0.0000 0.0000 0.0000 0.0000 37.6879 0.0000
# 6 0.0000 0.0000 0.0000 0.0000 0.0000 25.6773
#
#
#
# Elastic Compliance Matrix: (Units=1/GPa)
#
#
# Indices 1 2 3 4 5 6 
#
# 1 0.028189 -0.007525 -0.007341 0.000000 0.000000 0.000000
# 2 -0.007525 0.014492 -0.002552 0.000000 0.000000 0.000000
# 3 -0.007341 -0.002552 0.009338 0.000000 0.000000 0.000000
# 4 0.000000 0.000000 0.000000 0.076311 0.000000 0.000000
# 5 0.000000 0.000000 0.000000 0.000000 0.026534 0.000000
# 6 0.000000 0.000000 0.000000 0.000000 0.000000 0.038945
#
#
# Mechanical properties :
#
#
# Convention : Reuss Voigt Hill
#
# Bulk Modulus (GPa) = 58.20294 74.84668 66.52481
# Shear Modulus (GPa) = 21.33351 26.67867 24.00609
#
# Velocity S-wave (km/s) = 3.45833 3.86738 3.66856
# Velocity P-wave (km/s) = 6.96969 7.86784 7.43234
#
# Compressibility (1/GPa) = 0.01718126
#
# Stress axis : x y z
#
# Youngs Moduli (GPa) = 35.47445 69.00463 107.09215
#
# Poissons Ratio (x) = 0.51927 0.78620
# Poissons Ratio (y) = 0.26695 0.27333
# Poissons Ratio (z) = 0.26043 0.17612
#
# Static dielectric constant tensor:
#      x y z
#    x 1.653000 0.000000 0.000000 
#    y 0.000000 1.641750 0.000000 
#    z 0.000000 0.000000 1.624440 
# 
# From -- ./inp_files/42853.got.cif
#   From: 2010.05.17/outbox.cif.g08.bks.cpg/sg68_22_cif.got.tgz:42853.got - 2010.06.03 18:57:09.
