data_PCOD9507318
_publ_section_title
;
Structure prediction by ZEFSAII (Michael W. Deem and Ramdas Pophale) SiO2 
 PCOD9507318
Probable space group: C C C A
;
_chemical_formula_sum "Si O2"
_cell_formula_units_Z 104
_cell_length_a 8.953586
_cell_length_b 20.235793
_cell_length_c 27.320315
_cell_angle_alpha 90.000000
_cell_angle_beta 90.000000
_cell_angle_gamma 90.000000
_cell_volume 4949.974253
_symmetry_space_group_name_H-M "C C C A"
_symmetry_group_IT_number 68
_space_group.IT_coordinate_system_code '2'
_symmetry_cell_setting 'orthorhombic'
loop_
_space_group_symop_operation_xyz
x,y,z
-x,1/2-y,z
x,1/2-y,1/2-z
-x,y,1/2-z
-x,-y,-z
x,1/2+y,-z
-x,1/2+y,1/2+z
x,-y,1/2+z
1/2+x,1/2+y,z
1/2-x,-y,z
1/2+x,-y,1/2-z
1/2-x,1/2+y,1/2-z
1/2-x,1/2-y,-z
1/2+x,y,-z
1/2-x,y,1/2+z
1/2+x,1/2-y,1/2+z
loop_
_atom_site_type_symbol
_atom_site_label
_atom_site_fract_x
_atom_site_fract_y
_atom_site_fract_z
Si Si1 0.724272 0.301362 0.380850
Si Si2 0.114547 0.645379 0.535204
Si Si3 0.753389 0.931647 0.681143
Si Si4 0.500000 0.750000 0.541189
Si Si5 0.136613 0.949735 0.514515
Si Si6 0.500000 0.600672 0.750000
Si Si7 0.221107 0.300471 0.794040
Si Si8 0.500000 0.624025 0.250000
O O1 0.865583 0.314845 0.414790
O O2 0.709983 0.367496 0.349283
O O3 0.599460 0.292465 0.421980
O O4 0.725559 0.239668 0.344259
O O5 0.250674 0.592667 0.522287
O O6 0.095146 0.699216 0.491930
O O7 0.959024 0.606450 0.540216
O O8 0.626373 0.939455 0.722320
O O9 0.905972 0.915588 0.709579
O O10 0.750000 0.000000 0.651705
O O11 0.250000 0.000000 0.541145
O O12 0.000000 0.000000 0.500000
O O13 0.409312 0.645679 0.788921
O O14 0.188097 0.250000 0.750000
O O15 0.379091 0.332484 0.779438
#
# Coordination Sequence:
#
# PCOD9507318 Si02
#       8
#    16  16  16   8  16   8  16   8
#     4  12  25  39  70  96 134 180 215 282 333 405
#     4  11  23  44  66  98 135 178 220 290 336 391
#     4  11  24  41  65  96 132 173 224 264 331 399
#     4  12  26  46  63 102 141 168 236 280 350 392
#     4   9  20  42  72  92 123 180 232 269 333 398
#     4  10  20  40  68  94 129 177 208 274 330 389
#     4  11  21  39  69  99 133 162 221 269 339 396
#     4  10  22  42  64  98 135 171 210 278 334 399
#
# _framework density 21.010210000000001
#
# number of rings (size 3 to 8) (size 9 to 14) (size 15 to 20)
#    0.000    1.231    4.615    2.308    0.000    3.077 
#    0.000    0.000    0.000    0.923    0.000    0.000 
#    0.000    0.000    0.000    0.000    0.000    0.000 
#
# Total GULP energy -289780.383026 kJ/mol
# GULP energy per Si atom -5572.699674 kJ/mol
# Density = 2.096239 g / cm^3
# Si number density = 21.010210 Si / 1000 Ang^3
#
#
#
# Elastic Constant Matrix: (Units=GPa)
#
#
# Indices 1 2 3 4 5 6 
#
# 1 104.6474 27.0072 12.2405 0.0000 0.0000 0.0000
# 2 27.0072 101.8207 27.5069 0.0000 0.0000 0.0000
# 3 12.2405 27.5069 77.1740 0.0000 0.0000 0.0000
# 4 0.0000 0.0000 0.0000 7.6886 0.0000 0.0000
# 5 0.0000 0.0000 0.0000 0.0000 77.2098 0.0000
# 6 0.0000 0.0000 0.0000 0.0000 0.0000 -1.4848
#
#
#
# Elastic Compliance Matrix: (Units=1/GPa)
#
#
# Indices 1 2 3 4 5 6 
#
# 1 0.010295 -0.002534 -0.000730 0.000000 0.000000 0.000000
# 2 -0.002534 0.011491 -0.003694 0.000000 0.000000 0.000000
# 3 -0.000730 -0.003694 0.014390 0.000000 0.000000 0.000000
# 4 0.000000 0.000000 0.000000 0.130062 0.000000 0.000000
# 5 0.000000 0.000000 0.000000 0.000000 0.012952 0.000000
# 6 0.000000 0.000000 0.000000 0.000000 0.000000 -0.673485
#
#
# Mechanical properties :
#
#
# Convention : Reuss Voigt Hill
#
# Bulk Modulus (GPa) = 44.92020 46.35015 45.63518
# Shear Modulus (GPa) = -10.57172 31.14188 10.28508
#
# Velocity S-wave (km/s) = -2.24558 3.85415 2.21493
# Velocity P-wave (km/s) = 3.83446 6.47415 5.32060
#
# Compressibility (1/GPa) = 0.02226170
#
# Stress axis : x y z
#
# Youngs Moduli (GPa) = 97.13341 87.02391 69.49216
#
# Poissons Ratio (x) = 0.22048 0.05072
# Poissons Ratio (y) = 0.24609 0.25670
# Poissons Ratio (z) = 0.07090 0.32146
#
# Static dielectric constant tensor:
#      x y z
#    x 1.805590 0.000000 0.000000 
#    y 0.000000 1.858590 0.000000 
#    z 0.000000 0.000000 1.731360 
# 
# From -- ./inp_files/49481.got.cif
#   From: 2010.05.17/outbox.cif.g08.bks.cpg/sg68_25_cif.got.tgz:49481.got - 2010.06.03 18:57:09.
