data_PCOD9507393
_publ_section_title
;
Structure prediction by ZEFSAII (Michael W. Deem and Ramdas Pophale) SiO2 
 PCOD9507393
Probable space group: C C C A
;
_chemical_formula_sum "Si O2"
_cell_formula_units_Z 104
_cell_length_a 24.550072
_cell_length_b 23.358808
_cell_length_c 8.268218
_cell_angle_alpha 90.000000
_cell_angle_beta 90.000000
_cell_angle_gamma 90.000000
_cell_volume 4741.495752
_symmetry_space_group_name_H-M "C C C A"
_symmetry_group_IT_number 68
_space_group.IT_coordinate_system_code '2'
_symmetry_cell_setting 'orthorhombic'
loop_
_space_group_symop_operation_xyz
x,y,z
-x,1/2-y,z
x,1/2-y,1/2-z
-x,y,1/2-z
-x,-y,-z
x,1/2+y,-z
-x,1/2+y,1/2+z
x,-y,1/2+z
1/2+x,1/2+y,z
1/2-x,-y,z
1/2+x,-y,1/2-z
1/2-x,1/2+y,1/2-z
1/2-x,1/2-y,-z
1/2+x,y,-z
1/2-x,y,1/2+z
1/2+x,1/2-y,1/2+z
loop_
_atom_site_type_symbol
_atom_site_label
_atom_site_fract_x
_atom_site_fract_y
_atom_site_fract_z
Si Si1 0.877798 0.892034 0.138338
Si Si2 0.226659 0.936784 0.526921
Si Si3 0.294469 0.750000 0.250000
Si Si4 0.805051 0.871967 0.669250
Si Si5 0.010789 0.436087 0.557989
Si Si6 0.633013 0.260960 0.429164
Si Si7 0.913890 0.143675 0.991314
O O1 0.925365 0.924465 0.043515
O O2 0.881861 0.827149 0.073155
O O3 0.890312 0.886632 0.329060
O O4 0.820466 0.921507 0.101574
O O5 0.201797 0.921435 0.699654
O O6 0.275533 0.893264 0.490742
O O7 0.250000 0.000000 0.517144
O O8 0.273757 0.814899 0.268893
O O9 0.327098 0.746525 0.420020
O O10 0.868652 0.862320 0.631302
O O11 0.000000 0.431896 0.750000
O O12 0.000000 0.500000 0.500000
O O13 0.970876 0.388503 0.478058
O O14 0.657726 0.250000 0.250000
O O15 0.586416 0.212045 0.450944
#
# Coordination Sequence:
#
# PCOD9507393 Si02
#       7
#    16  16   8  16  16  16  16
#     4  10  21  43  67  95 132 173 222 269 341 405
#     4  12  26  43  63  94 130 180 226 277 338 404
#     4  10  20  42  66 101 136 170 229 282 346 416
#     4  11  24  43  66  95 134 173 225 283 344 407
#     4  10  23  42  66  96 130 177 222 271 331 401
#     4   9  18  38  69 100 136 176 215 280 344 407
#     4   9  21  41  68  99 132 168 220 275 338 409
#
# _framework density 21.934007000000001
#
# number of rings (size 3 to 8) (size 9 to 14) (size 15 to 20)
#    0.000    1.846    1.538    1.385    2.154    2.462 
#    4.154    3.846    0.000    0.923    0.000    0.000 
#    0.000    0.000    0.000    0.000    0.000    0.000 
#
# Total GULP energy -290112.848932 kJ/mol
# GULP energy per Si atom -5579.093249 kJ/mol
# Density = 2.188408 g / cm^3
# Si number density = 21.934007 Si / 1000 Ang^3
#
#
#
# Elastic Constant Matrix: (Units=GPa)
#
#
# Indices 1 2 3 4 5 6 
#
# 1 62.8283 40.8752 -4.0508 0.0000 0.0000 0.0000
# 2 40.8752 155.9822 16.0606 0.0000 0.0000 0.0000
# 3 -4.0508 16.0606 60.5582 0.0000 0.0000 0.0000
# 4 0.0000 0.0000 0.0000 32.5747 0.0000 0.0000
# 5 0.0000 0.0000 0.0000 0.0000 16.3649 0.0000
# 6 0.0000 0.0000 0.0000 0.0000 0.0000 33.8980
#
#
#
# Elastic Compliance Matrix: (Units=1/GPa)
#
#
# Indices 1 2 3 4 5 6 
#
# 1 0.019624 -0.005426 0.002752 0.000000 0.000000 0.000000
# 2 -0.005426 0.008091 -0.002509 0.000000 0.000000 0.000000
# 3 0.002752 -0.002509 0.017362 0.000000 0.000000 0.000000
# 4 0.000000 0.000000 0.000000 0.030699 0.000000 0.000000
# 5 0.000000 0.000000 0.000000 0.000000 0.061106 0.000000
# 6 0.000000 0.000000 0.000000 0.000000 0.000000 0.029500
#
#
# Mechanical properties :
#
#
# Convention : Reuss Voigt Hill
#
# Bulk Modulus (GPa) = 28.80889 42.79319 35.80104
# Shear Modulus (GPa) = 26.55073 31.66644 29.10858
#
# Velocity S-wave (km/s) = 3.48297 3.80375 3.64689
# Velocity P-wave (km/s) = 5.41643 6.23247 5.83872
#
# Compressibility (1/GPa) = 0.03471150
#
# Stress axis : x y z
#
# Youngs Moduli (GPa) = 50.95881 123.59232 57.59552
#
# Poissons Ratio (x) = 0.67058 -0.15848
# Poissons Ratio (y) = 0.27649 0.14449
# Poissons Ratio (z) = -0.14022 0.31007
#
# Static dielectric constant tensor:
#      x y z
#    x 1.827720 0.000000 0.000000 
#    y 0.000000 1.818890 0.000000 
#    z 0.000000 0.000000 1.814890 
# 
# From -- ./inp_files/8993.got.cif
#   From: 2010.05.17/outbox.cif.g08.bks.cpg/sg68_5_cif.got.tgz:8993.got - 2010.06.03 18:57:09.
