data_PCOD9507051
_publ_section_title
;
Structure prediction by ZEFSAII (Michael W. Deem and Ramdas Pophale) SiO2 
 PCOD9507051
Probable space group: C C C A
;
_chemical_formula_sum "Si O2"
_cell_formula_units_Z 32
_cell_length_a 13.306000
_cell_length_b 13.226878
_cell_length_c 8.007729
_cell_angle_alpha 90.000000
_cell_angle_beta 90.000000
_cell_angle_gamma 90.000000
_cell_volume 1409.334989
_symmetry_space_group_name_H-M "C C C A"
_symmetry_group_IT_number 68
_space_group.IT_coordinate_system_code '2'
_symmetry_cell_setting 'orthorhombic'
loop_
_space_group_symop_operation_xyz
x,y,z
-x,1/2-y,z
x,1/2-y,1/2-z
-x,y,1/2-z
-x,-y,-z
x,1/2+y,-z
-x,1/2+y,1/2+z
x,-y,1/2+z
1/2+x,1/2+y,z
1/2-x,-y,z
1/2+x,-y,1/2-z
1/2-x,1/2+y,1/2-z
1/2-x,1/2-y,-z
1/2+x,y,-z
1/2-x,y,1/2+z
1/2+x,1/2-y,1/2+z
loop_
_atom_site_type_symbol
_atom_site_label
_atom_site_fract_x
_atom_site_fract_y
_atom_site_fract_z
Si Si1 0.882757 0.229082 0.496647
Si Si2 0.227622 0.617498 0.302580
O O1 0.832490 0.338392 0.536037
O O2 0.843205 0.159673 0.653334
O O3 0.835582 0.169201 0.340994
O O4 0.000000 0.250000 0.490732
O O5 0.250000 0.500000 0.291896
#
# Coordination Sequence:
#
# PCOD9507051 Si02
#       2
#    16  16
#     4  10  22  41  60  87 124 156 196 250 297 351
#     4  10  20  38  62  88 120 156 198 246 297 356
#
# _framework density 22.705742999999998
#
# number of rings (size 3 to 8) (size 9 to 14) (size 15 to 20)
#    0.000    2.000    0.000    4.500    0.000    2.000 
#    0.000   37.500    0.000    0.000    0.000    0.000 
#    0.000    0.000    0.000    0.000    0.000    0.000 
#
# Total GULP energy -89082.972344 kJ/mol
# GULP energy per Si atom -5567.685772 kJ/mol
# Density = 2.265406 g / cm^3
# Si number density = 22.705743 Si / 1000 Ang^3
#
#
#
# Elastic Constant Matrix: (Units=GPa)
#
#
# Indices 1 2 3 4 5 6 
#
# 1 255.2993 97.1240 38.9579 0.0000 0.0000 0.0000
# 2 97.1240 228.6468 58.6164 0.0000 0.0000 0.0000
# 3 38.9579 58.6164 104.7169 0.0000 0.0000 0.0000
# 4 0.0000 0.0000 0.0000 15.0986 0.0000 0.0000
# 5 0.0000 0.0000 0.0000 0.0000 6.3404 0.0000
# 6 0.0000 0.0000 0.0000 0.0000 0.0000 -3.2117
#
#
#
# Elastic Compliance Matrix: (Units=1/GPa)
#
#
# Indices 1 2 3 4 5 6 
#
# 1 0.004721 -0.001815 -0.000740 0.000000 0.000000 0.000000
# 2 -0.001815 0.005805 -0.002574 0.000000 0.000000 0.000000
# 3 -0.000740 -0.002574 0.011266 0.000000 0.000000 0.000000
# 4 0.000000 0.000000 0.000000 0.066231 0.000000 0.000000
# 5 0.000000 0.000000 0.000000 0.000000 0.157718 0.000000
# 6 0.000000 0.000000 0.000000 0.000000 0.000000 -0.311357
#
#
# Mechanical properties :
#
#
# Convention : Reuss Voigt Hill
#
# Bulk Modulus (GPa) = 86.71325 108.67327 97.69326
# Shear Modulus (GPa) = -97.06002 29.90976 -33.57513
#
# Velocity S-wave (km/s) = -6.54520 3.63337 -3.84957
# Velocity P-wave (km/s) = 4.34128 8.09736 4.83325
#
# Compressibility (1/GPa) = 0.01153226
#
# Stress axis : x y z
#
# Youngs Moduli (GPa) = 211.83944 172.27873 88.76647
#
# Poissons Ratio (x) = 0.31277 0.06568
# Poissons Ratio (y) = 0.38459 0.22846
# Poissons Ratio (z) = 0.15675 0.44340
#
# Static dielectric constant tensor:
#      x y z
#    x 1.849990 0.000000 0.000000 
#    y 0.000000 1.841320 0.000000 
#    z 0.000000 0.000000 2.058880 
# 
# From -- ./inp_files/3399.got.cif
#   From: 2010.05.17/outbox.cif.g08.bks.cpg/sg68_2_cif.got.tgz:3399.got - 2010.06.03 18:57:09.
