data_PCOD9507059
_publ_section_title
;
Structure prediction by ZEFSAII (Michael W. Deem and Ramdas Pophale) SiO2 
 PCOD9507059
Probable space group: C C C A
;
_chemical_formula_sum "Si O2"
_cell_formula_units_Z 88
_cell_length_a 16.483158
_cell_length_b 14.656991
_cell_length_c 17.980001
_cell_angle_alpha 90.000000
_cell_angle_beta 90.000000
_cell_angle_gamma 90.000000
_cell_volume 4343.851344
_symmetry_space_group_name_H-M "C C C A"
_symmetry_group_IT_number 68
_space_group.IT_coordinate_system_code '2'
_symmetry_cell_setting 'orthorhombic'
loop_
_space_group_symop_operation_xyz
x,y,z
-x,1/2-y,z
x,1/2-y,1/2-z
-x,y,1/2-z
-x,-y,-z
x,1/2+y,-z
-x,1/2+y,1/2+z
x,-y,1/2+z
1/2+x,1/2+y,z
1/2-x,-y,z
1/2+x,-y,1/2-z
1/2-x,1/2+y,1/2-z
1/2-x,1/2-y,-z
1/2+x,y,-z
1/2-x,y,1/2+z
1/2+x,1/2-y,1/2+z
loop_
_atom_site_type_symbol
_atom_site_label
_atom_site_fract_x
_atom_site_fract_y
_atom_site_fract_z
Si Si1 0.814474 0.750000 0.250000
Si Si2 0.000000 0.903039 0.750000
Si Si3 0.429713 0.326658 0.123018
Si Si4 0.875832 0.141081 0.461197
Si Si5 0.938647 0.975751 0.372380
Si Si6 0.228924 0.603539 0.358966
Si Si7 0.500000 0.250000 0.865212
O O1 0.872772 0.803522 0.192495
O O2 0.761296 0.822258 0.295172
O O3 0.030143 0.833454 0.813533
O O4 0.937278 0.966087 0.795504
O O5 0.500000 0.250000 0.117792
O O6 0.477192 0.422460 0.129323
O O7 0.379427 0.333547 0.046968
O O8 0.786415 0.128598 0.427647
O O9 0.926345 0.215962 0.415570
O O10 0.922779 0.046843 0.439146
O O11 0.866424 0.902612 0.376545
O O12 0.250000 0.500000 0.336507
#
# Coordination Sequence:
#
# PCOD9507059 Si02
#       7
#     8   8  16  16  16  16   8
#     4  12  25  42  68  97 132 170 212 269 322 388
#     4   9  18  32  63  88 126 158 209 260 306 369
#     4  12  23  40  67  95 125 163 220 261 315 374
#     4  10  22  40  62  92 129 165 211 260 316 375
#     4  10  20  38  62  94 127 164 206 262 316 373
#     4  10  23  41  62  91 135 168 206 264 324 380
#     4   9  18  36  60  95 118 166 216 255 298 374
#
# _framework density 20.258520000000001
#
# number of rings (size 3 to 8) (size 9 to 14) (size 15 to 20)
#    0.000    1.636    2.727    1.909    0.000    5.091 
#    0.000    2.727    0.000    0.000    0.000    0.000 
#    0.000    0.000    0.000    0.000    0.000    0.000 
#
# Total GULP energy -245598.940850 kJ/mol
# GULP energy per Si atom -5581.794110 kJ/mol
# Density = 2.021241 g / cm^3
# Si number density = 20.258520 Si / 1000 Ang^3
#
#
#
# Elastic Constant Matrix: (Units=GPa)
#
#
# Indices 1 2 3 4 5 6 
#
# 1 66.0441 23.7456 36.5784 0.0000 0.0000 0.0000
# 2 23.7456 47.9977 31.2697 0.0000 0.0000 0.0000
# 3 36.5784 31.2697 126.5994 0.0000 0.0000 0.0000
# 4 0.0000 0.0000 0.0000 21.3401 0.0000 0.0000
# 5 0.0000 0.0000 0.0000 0.0000 33.5773 0.0000
# 6 0.0000 0.0000 0.0000 0.0000 0.0000 17.7621
#
#
#
# Elastic Compliance Matrix: (Units=1/GPa)
#
#
# Indices 1 2 3 4 5 6 
#
# 1 0.019959 -0.007290 -0.003966 0.000000 0.000000 0.000000
# 2 -0.007290 0.027493 -0.004684 0.000000 0.000000 0.000000
# 3 -0.003966 -0.004684 0.010202 0.000000 0.000000 0.000000
# 4 0.000000 0.000000 0.000000 0.046860 0.000000 0.000000
# 5 0.000000 0.000000 0.000000 0.000000 0.029782 0.000000
# 6 0.000000 0.000000 0.000000 0.000000 0.000000 0.056300
#
#
# Mechanical properties :
#
#
# Convention : Reuss Voigt Hill
#
# Bulk Modulus (GPa) = 38.80131 47.09207 42.94669
# Shear Modulus (GPa) = 21.63866 24.47241 23.05554
#
# Velocity S-wave (km/s) = 3.27177 3.47941 3.37718
# Velocity P-wave (km/s) = 5.78509 6.27995 6.03759
#
# Compressibility (1/GPa) = 0.02577233
#
# Stress axis : x y z
#
# Youngs Moduli (GPa) = 50.10204 36.37317 98.02151
#
# Poissons Ratio (x) = 0.26518 0.38876
# Poissons Ratio (y) = 0.36527 0.45915
# Poissons Ratio (z) = 0.19871 0.17038
#
# Static dielectric constant tensor:
#      x y z
#    x 1.726010 0.000000 0.000000 
#    y 0.000000 1.770350 0.000000 
#    z 0.000000 0.000000 1.704560 
# 
# From -- ./inp_files/31893.got.cif
#   From: 2010.05.17/outbox.cif.g08.bks.cpg/sg68_16_cif.got.tgz:31893.got - 2010.06.03 18:57:09.
