data_PCOD9507638
_publ_section_title
;
Structure prediction by ZEFSAII (Michael W. Deem and Ramdas Pophale) SiO2 
 PCOD9507638
Probable space group: C C C A
;
_chemical_formula_sum "Si O2"
_cell_formula_units_Z 68
_cell_length_a 19.874268
_cell_length_b 19.874259
_cell_length_c 8.894048
_cell_angle_alpha 90.000000
_cell_angle_beta 90.000000
_cell_angle_gamma 90.000000
_cell_volume 3513.027553
_symmetry_space_group_name_H-M "C C C A"
_symmetry_group_IT_number 68
_space_group.IT_coordinate_system_code '2'
_symmetry_cell_setting 'orthorhombic'
loop_
_space_group_symop_operation_xyz
x,y,z
-x,1/2-y,z
x,1/2-y,1/2-z
-x,y,1/2-z
-x,-y,-z
x,1/2+y,-z
-x,1/2+y,1/2+z
x,-y,1/2+z
1/2+x,1/2+y,z
1/2-x,-y,z
1/2+x,-y,1/2-z
1/2-x,1/2+y,1/2-z
1/2-x,1/2-y,-z
1/2+x,y,-z
1/2-x,y,1/2+z
1/2+x,1/2-y,1/2+z
loop_
_atom_site_type_symbol
_atom_site_label
_atom_site_fract_x
_atom_site_fract_y
_atom_site_fract_z
Si Si1 0.452050 0.088199 0.548249
Si Si2 0.838199 0.297950 0.048249
Si Si3 0.500000 0.974762 0.750000
Si Si4 0.000000 0.750000 0.250000
Si Si5 0.275238 0.250000 0.250000
Si Si6 0.945526 0.695526 0.960171
O O1 0.392371 0.142371 0.569006
O O2 0.458740 0.066990 0.373908
O O3 0.524104 0.124671 0.583765
O O4 0.450808 0.022489 0.651328
O O5 0.772489 0.299192 0.151327
O O6 0.874671 0.225896 0.083765
O O7 0.816990 0.291260 0.873907
O O8 0.045158 0.704842 0.359676
O O9 0.000000 0.750000 0.905140
#
# Coordination Sequence:
#
# PCOD9507638 Si02
#       6
#    16  16   8   4   8  16
#     4  10  21  37  58  85 119 143 189 238 288 340
#     4  10  21  37  58  85 119 143 189 238 288 340
#     4  10  23  36  54  94 108 155 186 222 302 324
#     4   8  12  24  44  90 100 132 180 186 316 368
#     4  10  23  36  54  94 108 155 186 222 302 324
#     4   8  16  28  55  86 102 142 171 234 302 334
#
# _framework density 19.356521999999998
#
# number of rings (size 3 to 8) (size 9 to 14) (size 15 to 20)
#    0.706    1.882    0.000    1.412    6.588    0.000 
#    0.000    0.000    0.000    4.235    0.000    0.000 
#    0.000    0.000    0.000    0.000    0.000    0.000 
#
# Total GULP energy -189332.290774 kJ/mol
# GULP energy per Si atom -5568.596787 kJ/mol
# Density = 1.931247 g / cm^3
# Si number density = 19.356522 Si / 1000 Ang^3
#
#
#
# Elastic Constant Matrix: (Units=GPa)
#
#
# Indices 1 2 3 4 5 6 
#
# 1 62.2115 16.3506 11.3038 0.0000 0.0000 0.0000
# 2 16.3506 62.2113 11.3039 0.0000 0.0000 0.0000
# 3 11.3038 11.3039 94.7686 0.0000 0.0000 0.0000
# 4 0.0000 0.0000 0.0000 30.4471 0.0000 0.0000
# 5 0.0000 0.0000 0.0000 0.0000 30.4471 0.0000
# 6 0.0000 0.0000 0.0000 0.0000 0.0000 20.0097
#
#
#
# Elastic Compliance Matrix: (Units=1/GPa)
#
#
# Indices 1 2 3 4 5 6 
#
# 1 0.017493 -0.004312 -0.001572 0.000000 0.000000 0.000000
# 2 -0.004312 0.017493 -0.001572 0.000000 0.000000 0.000000
# 3 -0.001572 -0.001572 0.010927 0.000000 0.000000 0.000000
# 4 0.000000 0.000000 0.000000 0.032844 0.000000 0.000000
# 5 0.000000 0.000000 0.000000 0.000000 0.032844 0.000000
# 6 0.000000 0.000000 0.000000 0.000000 0.000000 0.049976
#
#
# Mechanical properties :
#
#
# Convention : Reuss Voigt Hill
#
# Bulk Modulus (GPa) = 32.25745 33.01202 32.63473
# Shear Modulus (GPa) = 26.76326 28.19632 27.47979
#
# Velocity S-wave (km/s) = 3.72243 3.82079 3.77193
# Velocity P-wave (km/s) = 5.93097 6.04619 5.98885
#
# Compressibility (1/GPa) = 0.03100059
#
# Stress axis : x y z
#
# Youngs Moduli (GPa) = 57.16525 57.16507 91.51570
#
# Poissons Ratio (x) = 0.24649 0.14388
# Poissons Ratio (y) = 0.24649 0.14388
# Poissons Ratio (z) = 0.08988 0.08988
#
# Static dielectric constant tensor:
#      x y z
#    x 1.709680 0.000000 0.000000 
#    y 0.000000 1.709680 0.000000 
#    z 0.000000 0.000000 1.795120 
# 
# From -- ./inp_files/5999.got.cif
#   From: 2010.05.17/outbox.cif.g08.bks.cpg/sg68_3_cif.got.tgz:5999.got - 2010.06.03 18:57:09.
