data_PCOD9507426
_publ_section_title
;
Structure prediction by ZEFSAII (Michael W. Deem and Ramdas Pophale) SiO2 
 PCOD9507426
Probable space group: C C C A
;
_chemical_formula_sum "Si O2"
_cell_formula_units_Z 120
_cell_length_a 11.292785
_cell_length_b 24.564568
_cell_length_c 20.892905
_cell_angle_alpha 90.000000
_cell_angle_beta 90.000000
_cell_angle_gamma 90.000000
_cell_volume 5795.741677
_symmetry_space_group_name_H-M "C C C A"
_symmetry_group_IT_number 68
_space_group.IT_coordinate_system_code '2'
_symmetry_cell_setting 'orthorhombic'
loop_
_space_group_symop_operation_xyz
x,y,z
-x,1/2-y,z
x,1/2-y,1/2-z
-x,y,1/2-z
-x,-y,-z
x,1/2+y,-z
-x,1/2+y,1/2+z
x,-y,1/2+z
1/2+x,1/2+y,z
1/2-x,-y,z
1/2+x,-y,1/2-z
1/2-x,1/2+y,1/2-z
1/2-x,1/2-y,-z
1/2+x,y,-z
1/2-x,y,1/2+z
1/2+x,1/2-y,1/2+z
loop_
_atom_site_type_symbol
_atom_site_label
_atom_site_fract_x
_atom_site_fract_y
_atom_site_fract_z
Si Si1 0.372626 0.722814 0.186029
Si Si2 0.100075 0.637048 0.044375
Si Si3 0.289255 0.436377 0.337250
Si Si4 0.303184 0.749040 0.571703
Si Si5 0.836816 0.130706 0.957368
Si Si6 0.371970 0.601935 0.236203
Si Si7 0.000000 0.043351 0.750000
Si Si8 0.321722 0.547081 0.643921
O O1 0.500000 0.750000 0.175127
O O2 0.318710 0.750000 0.250000
O O3 0.292478 0.731874 0.124488
O O4 0.391312 0.660364 0.204545
O O5 0.104111 0.699293 0.070013
O O6 0.118349 0.592471 0.100025
O O7 0.969989 0.627729 0.012886
O O8 0.220009 0.631199 0.001983
O O9 0.250000 0.500000 0.331741
O O10 0.319134 0.418648 0.408371
O O11 0.187681 0.399221 0.306210
O O12 0.402559 0.426071 0.292519
O O13 0.250000 0.750000 0.500000
O O14 0.337917 0.811891 0.581318
O O15 0.500000 0.576295 0.250000
O O16 0.277540 0.573925 0.189408
O O17 0.917901 0.020955 0.692201
O O18 0.250000 0.500000 0.606763
#
# Coordination Sequence:
#
# PCOD9507426 Si02
#       8
#    16  16  16  16  16  16   8  16
#     4  11  21  37  63 102 143 174 222 290 338 401
#     4  11  24  47  68 100 132 180 226 284 342 410
#     4  11  25  41  67  99 135 180 221 281 338 413
#     4  10  23  43  66  95 135 181 226 275 344 416
#     4  11  25  45  71  97 135 177 231 280 342 406
#     4  11  22  37  63  98 137 177 221 269 343 398
#     4  10  20  44  66  93 136 167 224 274 334 404
#     4  11  24  40  68  97 133 177 221 281 336 408
#
# _framework density 20.704855999999999
#
# number of rings (size 3 to 8) (size 9 to 14) (size 15 to 20)
#    0.000    1.200    4.000    2.800    3.733    5.867 
#    0.000    1.333    0.000    1.600    0.000    0.000 
#    0.000    0.000    0.000    0.000    0.000    0.000 
#
# Total GULP energy -334232.415545 kJ/mol
# GULP energy per Si atom -5570.540259 kJ/mol
# Density = 2.065773 g / cm^3
# Si number density = 20.704856 Si / 1000 Ang^3
#
#
#
# Elastic Constant Matrix: (Units=GPa)
#
#
# Indices 1 2 3 4 5 6 
#
# 1 162.3973 31.6530 46.5733 0.0000 0.0000 0.0000
# 2 31.6530 88.5623 20.2116 0.0000 0.0000 0.0000
# 3 46.5733 20.2116 78.0647 0.0000 0.0000 0.0000
# 4 0.0000 0.0000 0.0000 391.0630 0.0000 0.0000
# 5 0.0000 0.0000 0.0000 0.0000 34.1729 0.0000
# 6 0.0000 0.0000 0.0000 0.0000 0.0000 -6.4869
#
#
#
# Elastic Compliance Matrix: (Units=1/GPa)
#
#
# Indices 1 2 3 4 5 6 
#
# 1 0.007692 -0.001809 -0.004121 0.000000 0.000000 0.000000
# 2 -0.001809 0.012426 -0.002138 0.000000 0.000000 0.000000
# 3 -0.004121 -0.002138 0.015822 0.000000 0.000000 0.000000
# 4 0.000000 0.000000 0.000000 0.002557 0.000000 0.000000
# 5 0.000000 0.000000 0.000000 0.000000 0.029263 0.000000
# 6 0.000000 0.000000 0.000000 0.000000 0.000000 -0.154156
#
#
# Mechanical properties :
#
#
# Convention : Reuss Voigt Hill
#
# Bulk Modulus (GPa) = 50.49318 58.43334 54.46326
# Shear Modulus (GPa) = -78.54351 99.12223 10.28936
#
# Velocity S-wave (km/s) = -6.16581 6.92660 2.23166
# Velocity P-wave (km/s) = 5.12343 9.60488 5.74475
#
# Compressibility (1/GPa) = 0.01980466
#
# Stress axis : x y z
#
# Youngs Moduli (GPa) = 130.00409 80.47701 63.20356
#
# Poissons Ratio (x) = 0.14556 0.26045
# Poissons Ratio (y) = 0.23515 0.13513
# Poissons Ratio (z) = 0.53572 0.17206
#
# Static dielectric constant tensor:
#      x y z
#    x 1.790370 0.000000 0.000000 
#    y 0.000000 1.851720 0.000000 
#    z 0.000000 0.000000 1.734780 
# 
# From -- ./inp_files/37866.got.cif
#   From: 2010.05.17/outbox.cif.g08.bks.cpg/sg68_19_cif.got.tgz:37866.got - 2010.06.03 18:57:09.
