data_PCOD9507415
_publ_section_title
;
Structure prediction by ZEFSAII (Michael W. Deem and Ramdas Pophale) SiO2 
 PCOD9507415
Probable space group: C C C A
;
_chemical_formula_sum "Si O2"
_cell_formula_units_Z 96
_cell_length_a 18.076695
_cell_length_b 9.563122
_cell_length_c 27.562134
_cell_angle_alpha 90.000000
_cell_angle_beta 90.000000
_cell_angle_gamma 90.000000
_cell_volume 4764.656172
_symmetry_space_group_name_H-M "C C C A"
_symmetry_group_IT_number 68
_space_group.IT_coordinate_system_code '2'
_symmetry_cell_setting 'orthorhombic'
loop_
_space_group_symop_operation_xyz
x,y,z
-x,1/2-y,z
x,1/2-y,1/2-z
-x,y,1/2-z
-x,-y,-z
x,1/2+y,-z
-x,1/2+y,1/2+z
x,-y,1/2+z
1/2+x,1/2+y,z
1/2-x,-y,z
1/2+x,-y,1/2-z
1/2-x,1/2+y,1/2-z
1/2-x,1/2-y,-z
1/2+x,y,-z
1/2-x,y,1/2+z
1/2+x,1/2-y,1/2+z
loop_
_atom_site_type_symbol
_atom_site_label
_atom_site_fract_x
_atom_site_fract_y
_atom_site_fract_z
Si Si1 0.693396 0.607314 0.722190
Si Si2 0.422376 0.026476 0.472686
Si Si3 0.585901 0.597248 0.260443
Si Si4 0.867607 0.039238 0.130063
Si Si5 0.325650 0.300882 0.475043
Si Si6 0.267492 0.759330 0.873830
O O1 0.681414 0.750000 0.750000
O O2 0.750000 0.500000 0.748005
O O3 0.619593 0.517154 0.724129
O O4 0.726886 0.656540 0.671534
O O5 0.390506 0.183722 0.475864
O O6 0.500000 0.000000 0.500000
O O7 0.422080 0.980925 0.415877
O O8 0.359138 0.934303 0.498644
O O9 0.620335 0.750000 0.250000
O O10 0.500000 0.604691 0.250000
O O11 0.598677 0.560116 0.316702
O O12 0.813223 0.171046 0.119717
O O13 0.819422 0.896660 0.132648
O O14 0.250000 0.250000 0.500000
O O15 0.300061 0.320849 0.419913
#
# Coordination Sequence:
#
# PCOD9507415 Si02
#       6
#    16  16  16  16  16  16
#     4  12  23  39  66  98 128 167 222 278 323 393
#     4  11  24  42  67  98 135 178 217 279 345 404
#     4  11  25  45  63  93 135 179 218 273 340 404
#     4  10  20  43  66  90 135 177 213 270 347 393
#     4  11  22  43  66  96 131 174 226 272 331 404
#     4  10  21  38  68  97 125 175 219 271 330 392
#
# _framework density 20.148358999999999
#
# number of rings (size 3 to 8) (size 9 to 14) (size 15 to 20)
#    0.000    1.167    3.333    3.500    0.000    3.000 
#    9.000    1.667    0.000    0.000    0.000    0.000 
#    0.000    0.000    0.000    0.000    0.000    0.000 
#
# Total GULP energy -268054.714966 kJ/mol
# GULP energy per Si atom -5584.473228 kJ/mol
# Density = 2.010250 g / cm^3
# Si number density = 20.148359 Si / 1000 Ang^3
#
#
#
# Elastic Constant Matrix: (Units=GPa)
#
#
# Indices 1 2 3 4 5 6 
#
# 1 73.4573 -2.4650 6.1867 0.0000 0.0000 0.0000
# 2 -2.4650 79.1358 4.0649 0.0000 0.0000 0.0000
# 3 6.1867 4.0649 85.6624 0.0000 0.0000 0.0000
# 4 0.0000 0.0000 0.0000 22.6878 0.0000 0.0000
# 5 0.0000 0.0000 0.0000 0.0000 33.5980 0.0000
# 6 0.0000 0.0000 0.0000 0.0000 0.0000 27.5262
#
#
#
# Elastic Compliance Matrix: (Units=1/GPa)
#
#
# Indices 1 2 3 4 5 6 
#
# 1 0.013715 0.000479 -0.001013 0.000000 0.000000 0.000000
# 2 0.000479 0.012684 -0.000637 0.000000 0.000000 0.000000
# 3 -0.001013 -0.000637 0.011777 0.000000 0.000000 0.000000
# 4 0.000000 0.000000 0.000000 0.044076 0.000000 0.000000
# 5 0.000000 0.000000 0.000000 0.000000 0.029764 0.000000
# 6 0.000000 0.000000 0.000000 0.000000 0.000000 0.036329
#
#
# Mechanical properties :
#
#
# Convention : Reuss Voigt Hill
#
# Bulk Modulus (GPa) = 27.90570 28.20321 28.05445
# Shear Modulus (GPa) = 30.74441 32.12700 31.43571
#
# Velocity S-wave (km/s) = 3.91052 3.99748 3.95424
# Velocity P-wave (km/s) = 5.85403 5.94429 5.89933
#
# Compressibility (1/GPa) = 0.03583498
#
# Stress axis : x y z
#
# Youngs Moduli (GPa) = 72.91405 78.83869 84.91038
#
# Poissons Ratio (x) = -0.03778 0.08604
# Poissons Ratio (y) = -0.03494 0.05405
# Poissons Ratio (z) = 0.07388 0.05018
#
# Static dielectric constant tensor:
#      x y z
#    x 1.722080 0.000000 0.000000 
#    y 0.000000 1.724110 0.000000 
#    z 0.000000 0.000000 1.731970 
# 
# From -- ./inp_files/51735.got.cif
#   From: 2010.05.17/outbox.cif.g08.bks.cpg/sg68_26_cif.got.tgz:51735.got - 2010.06.03 18:57:09.
