data_PCOD9507998
_publ_section_title
;
Structure prediction by ZEFSAII (Michael W. Deem and Ramdas Pophale) SiO2 
 PCOD9507998
Probable space group: C C C A
;
_chemical_formula_sum "Si O2"
_cell_formula_units_Z 60
_cell_length_a 5.131136
_cell_length_b 27.262873
_cell_length_c 20.669309
_cell_angle_alpha 90.000000
_cell_angle_beta 90.000000
_cell_angle_gamma 90.000000
_cell_volume 2891.419490
_symmetry_space_group_name_H-M "C C C A"
_symmetry_group_IT_number 68
_space_group.IT_coordinate_system_code '2'
_symmetry_cell_setting 'orthorhombic'
loop_
_space_group_symop_operation_xyz
x,y,z
-x,1/2-y,z
x,1/2-y,1/2-z
-x,y,1/2-z
-x,-y,-z
x,1/2+y,-z
-x,1/2+y,1/2+z
x,-y,1/2+z
1/2+x,1/2+y,z
1/2-x,-y,z
1/2+x,-y,1/2-z
1/2-x,1/2+y,1/2-z
1/2-x,1/2-y,-z
1/2+x,y,-z
1/2-x,y,1/2+z
1/2+x,1/2-y,1/2+z
loop_
_atom_site_type_symbol
_atom_site_label
_atom_site_fract_x
_atom_site_fract_y
_atom_site_fract_z
Si Si1 0.000000 0.534944 0.250000
Si Si2 0.757743 0.781556 0.625230
Si Si3 0.999144 0.965037 0.107043
Si Si4 0.558037 0.635122 0.961975
Si Si5 0.000000 0.250000 0.250000
O O1 0.750000 0.500000 0.252793
O O2 0.019247 0.559368 0.320700
O O3 0.500000 0.750000 0.616251
O O4 0.686852 0.833494 0.595237
O O5 0.830596 0.782715 0.701167
O O6 0.000000 0.750000 0.596003
O O7 0.952992 0.921956 0.056311
O O8 0.750000 0.000000 0.105985
O O9 0.250000 0.000000 0.096337
O O10 0.259172 0.646668 0.979761
#
# Coordination Sequence:
#
# PCOD9507998 Si02
#       5
#     8  16  16  16   4
#     4   8  16  34  57  82 111 150 205 255 316 370
#     4  10  22  43  67  92 127 163 207 269 321 387
#     4  10  21  40  62  88 125 167 211 266 318 368
#     4  12  26  41  61  96 128 170 222 250 311 387
#     4   8  22  44  68  96 126 156 210 260 346 384
#
# _framework density 20.751054
#
# number of rings (size 3 to 8) (size 9 to 14) (size 15 to 20)
#    0.800    1.067    0.000    3.600    0.000    6.400 
#    4.800    5.333    0.000    0.000    0.000    0.000 
#    0.000    0.000    0.000    0.000    0.000    0.000 
#
# Total GULP energy -167103.517557 kJ/mol
# GULP energy per Si atom -5570.117252 kJ/mol
# Density = 2.070382 g / cm^3
# Si number density = 20.751054 Si / 1000 Ang^3
#
#
#
# Elastic Constant Matrix: (Units=GPa)
#
#
# Indices 1 2 3 4 5 6 
#
# 1 168.0155 41.3092 20.4652 0.0000 0.0000 0.0000
# 2 41.3092 80.3565 32.7351 0.0000 0.0000 0.0000
# 3 20.4652 32.7351 54.2974 0.0000 0.0000 0.0000
# 4 0.0000 0.0000 0.0000 31.3806 0.0000 0.0000
# 5 0.0000 0.0000 0.0000 0.0000 132.6805 0.0000
# 6 0.0000 0.0000 0.0000 0.0000 0.0000 15.4617
#
#
#
# Elastic Compliance Matrix: (Units=1/GPa)
#
#
# Indices 1 2 3 4 5 6 
#
# 1 0.006828 -0.003263 -0.000606 0.000000 0.000000 0.000000
# 2 -0.003263 0.018055 -0.009655 0.000000 0.000000 0.000000
# 3 -0.000606 -0.009655 0.024467 0.000000 0.000000 0.000000
# 4 0.000000 0.000000 0.000000 0.031867 0.000000 0.000000
# 5 0.000000 0.000000 0.000000 0.000000 0.007537 0.000000
# 6 0.000000 0.000000 0.000000 0.000000 0.000000 0.064676
#
#
# Mechanical properties :
#
#
# Convention : Reuss Voigt Hill
#
# Bulk Modulus (GPa) = 44.84208 54.63205 49.73706
# Shear Modulus (GPa) = 26.60807 49.78188 38.19498
#
# Velocity S-wave (km/s) = 3.58474 4.90328 4.29491
# Velocity P-wave (km/s) = 6.22818 7.64465 6.97248
#
# Compressibility (1/GPa) = 0.02230048
#
# Stress axis : x y z
#
# Youngs Moduli (GPa) = 146.45657 55.38508 40.87185
#
# Poissons Ratio (x) = 0.18073 0.02478
# Poissons Ratio (y) = 0.47790 0.39464
# Poissons Ratio (z) = 0.08879 0.53477
#
# Static dielectric constant tensor:
#      x y z
#    x 1.724330 0.000000 0.000000 
#    y 0.000000 1.249040 0.000000 
#    z 0.000000 0.000000 1.854360 
# 
# From -- ./inp_files/34965.got.cif
#   From: 2010.05.17/outbox.cif.g08.bks.cpg/sg68_18_cif.got.tgz:34965.got - 2010.06.03 18:57:09.
