data_PCOD9507389
_publ_section_title
;
Structure prediction by ZEFSAII (Michael W. Deem and Ramdas Pophale) SiO2 
 PCOD9507389
Probable space group: C C C A
;
_chemical_formula_sum "Si O2"
_cell_formula_units_Z 56
_cell_length_a 17.955805
_cell_length_b 11.819084
_cell_length_c 11.978543
_cell_angle_alpha 90.000000
_cell_angle_beta 90.000000
_cell_angle_gamma 90.000000
_cell_volume 2542.100381
_symmetry_space_group_name_H-M "C C C A"
_symmetry_group_IT_number 68
_space_group.IT_coordinate_system_code '2'
_symmetry_cell_setting 'orthorhombic'
loop_
_space_group_symop_operation_xyz
x,y,z
-x,1/2-y,z
x,1/2-y,1/2-z
-x,y,1/2-z
-x,-y,-z
x,1/2+y,-z
-x,1/2+y,1/2+z
x,-y,1/2+z
1/2+x,1/2+y,z
1/2-x,-y,z
1/2+x,-y,1/2-z
1/2-x,1/2+y,1/2-z
1/2-x,1/2-y,-z
1/2+x,y,-z
1/2-x,y,1/2+z
1/2+x,1/2-y,1/2+z
loop_
_atom_site_type_symbol
_atom_site_label
_atom_site_fract_x
_atom_site_fract_y
_atom_site_fract_z
Si Si1 0.385772 0.852001 0.674131
Si Si2 0.256384 0.250000 0.750000
Si Si3 0.523373 0.061690 0.885432
Si Si4 0.887228 0.788168 0.586151
O O1 0.417650 0.750000 0.750000
O O2 0.299980 0.850880 0.715032
O O3 0.433955 0.964688 0.683585
O O4 0.383424 0.820531 0.543572
O O5 0.309425 0.289387 0.650046
O O6 0.581640 0.161238 0.909256
O O7 0.551951 0.869438 0.146314
O O8 0.500000 0.000000 0.000000
#
# Coordination Sequence:
#
# PCOD9507389 Si02
#       4
#    16   8  16  16
#     4   9  21  42  66  98 138 180 232 288 343 420
#     4  10  22  39  66  97 144 178 232 286 354 419
#     4   9  20  41  65  94 138 186 232 288 343 412
#     4  10  20  42  64  99 139 184 236 284 353 416
#
# _framework density 22.029028
#
# number of rings (size 3 to 8) (size 9 to 14) (size 15 to 20)
#    0.857    1.714    0.000    0.857    0.000    3.429 
#   15.429   10.000    0.000    0.000    0.000    0.000 
#    0.000    0.000    0.000    0.000    0.000    0.000 
#
# Total GULP energy -156253.670014 kJ/mol
# GULP energy per Si atom -5580.488215 kJ/mol
# Density = 2.197889 g / cm^3
# Si number density = 22.029028 Si / 1000 Ang^3
#
#
#
# Elastic Constant Matrix: (Units=GPa)
#
#
# Indices 1 2 3 4 5 6 
#
# 1 190.5711 90.9131 61.7057 0.0000 0.0000 0.0000
# 2 90.9131 177.0114 63.3117 0.0000 0.0000 0.0000
# 3 61.7057 63.3117 125.2353 0.0000 0.0000 0.0000
# 4 0.0000 0.0000 0.0000 37.5700 0.0000 0.0000
# 5 0.0000 0.0000 0.0000 0.0000 56.1366 0.0000
# 6 0.0000 0.0000 0.0000 0.0000 0.0000 44.3174
#
#
#
# Elastic Compliance Matrix: (Units=1/GPa)
#
#
# Indices 1 2 3 4 5 6 
#
# 1 0.007376 -0.003038 -0.002099 0.000000 0.000000 0.000000
# 2 -0.003038 0.008147 -0.002622 0.000000 0.000000 0.000000
# 3 -0.002099 -0.002622 0.010345 0.000000 0.000000 0.000000
# 4 0.000000 0.000000 0.000000 0.026617 0.000000 0.000000
# 5 0.000000 0.000000 0.000000 0.000000 0.017814 0.000000
# 6 0.000000 0.000000 0.000000 0.000000 0.000000 0.022565
#
#
# Mechanical properties :
#
#
# Convention : Reuss Voigt Hill
#
# Bulk Modulus (GPa) = 96.60788 102.74211 99.67500
# Shear Modulus (GPa) = 44.71051 46.06395 45.38723
#
# Velocity S-wave (km/s) = 4.51002 4.57777 4.54402
# Velocity P-wave (km/s) = 8.43032 8.64187 8.53675
#
# Compressibility (1/GPa) = 0.01035112
#
# Stress axis : x y z
#
# Youngs Moduli (GPa) = 135.57339 122.73874 96.66905
#
# Poissons Ratio (x) = 0.37285 0.20287
# Poissons Ratio (y) = 0.41184 0.25348
# Poissons Ratio (z) = 0.28452 0.32183
#
# Static dielectric constant tensor:
#      x y z
#    x 1.797260 0.000000 0.000000 
#    y 0.000000 1.728920 0.000000 
#    z 0.000000 0.000000 1.877180 
# 
# From -- ./inp_files/15055.got.cif
#   From: 2010.05.17/outbox.cif.g08.bks.cpg/sg68_8_cif.got.tgz:15055.got - 2010.06.03 18:57:09.
