data_PCOD9507660
_publ_section_title
;
Structure prediction by ZEFSAII (Michael W. Deem and Ramdas Pophale) SiO2 
 PCOD9507660
Probable space group: C C C A
;
_chemical_formula_sum "Si O2"
_cell_formula_units_Z 120
_cell_length_a 11.308516
_cell_length_b 24.771378
_cell_length_c 21.092044
_cell_angle_alpha 90.000000
_cell_angle_beta 90.000000
_cell_angle_gamma 90.000000
_cell_volume 5908.462071
_symmetry_space_group_name_H-M "C C C A"
_symmetry_group_IT_number 68
_space_group.IT_coordinate_system_code '2'
_symmetry_cell_setting 'orthorhombic'
loop_
_space_group_symop_operation_xyz
x,y,z
-x,1/2-y,z
x,1/2-y,1/2-z
-x,y,1/2-z
-x,-y,-z
x,1/2+y,-z
-x,1/2+y,1/2+z
x,-y,1/2+z
1/2+x,1/2+y,z
1/2-x,-y,z
1/2+x,-y,1/2-z
1/2-x,1/2+y,1/2-z
1/2-x,1/2-y,-z
1/2+x,y,-z
1/2-x,y,1/2+z
1/2+x,1/2-y,1/2+z
loop_
_atom_site_type_symbol
_atom_site_label
_atom_site_fract_x
_atom_site_fract_y
_atom_site_fract_z
Si Si1 0.872952 0.638633 0.120993
Si Si2 0.528946 0.532835 0.416570
Si Si3 0.437608 0.422762 0.039934
Si Si4 0.792446 0.624532 0.925513
Si Si5 0.626594 0.281101 0.010660
Si Si6 0.500000 0.889659 0.750000
Si Si7 0.234945 0.562429 0.196211
Si Si8 0.179047 0.943313 0.667991
O O1 0.860372 0.693758 0.081691
O O2 0.753577 0.605061 0.135347
O O3 0.947468 0.604981 0.068831
O O4 0.944842 0.641144 0.188116
O O5 0.574545 0.472475 0.411875
O O6 0.438388 0.545230 0.474014
O O7 0.634948 0.570387 0.438117
O O8 0.453969 0.550743 0.356587
O O9 0.333706 0.379491 0.040276
O O10 0.762801 0.611800 0.851958
O O11 0.866603 0.673478 0.954452
O O12 0.500000 0.250000 0.006921
O O13 0.750000 0.250000 0.000000
O O14 0.395154 0.926534 0.776526
O O15 0.250000 0.500000 0.175116
O O16 0.318455 0.566749 0.257422
O O17 0.250000 0.000000 0.655967
#
# Coordination Sequence:
#
# PCOD9507660 Si02
#       8
#    16  16  16  16  16   8  16  16
#     4  11  21  43  69  97 133 173 225 278 336 400
#     4  11  23  33  59  97 141 177 215 256 325 411
#     4  11  21  36  60  97 138 176 210 263 321 413
#     4  12  24  40  64  94 131 170 222 275 343 400
#     4  12  29  50  75  99 127 174 238 311 366 408
#     4  10  22  40  71  98 144 178 231 270 326 412
#     4  10  22  36  63 100 144 188 219 258 321 417
#     4  10  21  37  61 100 142 188 210 251 316 416
#
# _framework density 20.309854999999999
#
# number of rings (size 3 to 8) (size 9 to 14) (size 15 to 20)
#    0.000    1.067    4.000    2.800    1.867    0.533 
#    0.000    0.333    0.000    0.000    0.000    0.000 
#    0.000    0.000    0.000    0.000    0.000    0.000 
#
# Total GULP energy -334211.597745 kJ/mol
# GULP energy per Si atom -5570.193296 kJ/mol
# Density = 2.026363 g / cm^3
# Si number density = 20.309855 Si / 1000 Ang^3
#
#
#
# Elastic Constant Matrix: (Units=GPa)
#
#
# Indices 1 2 3 4 5 6 
#
# 1 56.9538 23.2205 28.8700 0.0000 0.0000 0.0000
# 2 23.2205 67.9587 30.1064 0.0000 0.0000 0.0000
# 3 28.8700 30.1064 116.4892 0.0000 0.0000 0.0000
# 4 0.0000 0.0000 0.0000 41.2714 0.0000 0.0000
# 5 0.0000 0.0000 0.0000 0.0000 5.6212 0.0000
# 6 0.0000 0.0000 0.0000 0.0000 0.0000 33.8213
#
#
#
# Elastic Compliance Matrix: (Units=1/GPa)
#
#
# Indices 1 2 3 4 5 6 
#
# 1 0.021895 -0.005734 -0.003945 0.000000 0.000000 0.000000
# 2 -0.005734 0.018119 -0.003262 0.000000 0.000000 0.000000
# 3 -0.003945 -0.003262 0.010405 0.000000 0.000000 0.000000
# 4 0.000000 0.000000 0.000000 0.024230 0.000000 0.000000
# 5 0.000000 0.000000 0.000000 0.000000 0.177897 0.000000
# 6 0.000000 0.000000 0.000000 0.000000 0.000000 0.029567
#
#
# Mechanical properties :
#
#
# Convention : Reuss Voigt Hill
#
# Bulk Modulus (GPa) = 40.75126 45.08837 42.91982
# Shear Modulus (GPa) = 15.81412 26.75644 21.28528
#
# Velocity S-wave (km/s) = 2.79344 3.63355 3.24084
# Velocity P-wave (km/s) = 5.52384 6.31285 5.93148
#
# Compressibility (1/GPa) = 0.02453912
#
# Stress axis : x y z
#
# Youngs Moduli (GPa) = 45.67186 55.19068 96.10702
#
# Poissons Ratio (x) = 0.31646 0.37909
# Poissons Ratio (y) = 0.26188 0.31348
# Poissons Ratio (z) = 0.18015 0.18002
#
# Static dielectric constant tensor:
#      x y z
#    x 1.764010 0.000000 0.000000 
#    y 0.000000 1.735270 0.000000 
#    z 0.000000 0.000000 1.884770 
# 
# From -- ./inp_files/37878.got.cif
#   From: 2010.05.17/outbox.cif.g08.bks.cpg/sg68_19_cif.got.tgz:37878.got - 2010.06.03 18:57:09.
