data_PCOD9507204
_publ_section_title
;
Structure prediction by ZEFSAII (Michael W. Deem and Ramdas Pophale) SiO2 
 PCOD9507204
Probable space group: C C C A
;
_chemical_formula_sum "Si O2"
_cell_formula_units_Z 88
_cell_length_a 21.921266
_cell_length_b 12.081744
_cell_length_c 12.846219
_cell_angle_alpha 90.000000
_cell_angle_beta 90.000000
_cell_angle_gamma 90.000000
_cell_volume 3402.284156
_symmetry_space_group_name_H-M "C C C A"
_symmetry_group_IT_number 68
_space_group.IT_coordinate_system_code '2'
_symmetry_cell_setting 'orthorhombic'
loop_
_space_group_symop_operation_xyz
x,y,z
-x,1/2-y,z
x,1/2-y,1/2-z
-x,y,1/2-z
-x,-y,-z
x,1/2+y,-z
-x,1/2+y,1/2+z
x,-y,1/2+z
1/2+x,1/2+y,z
1/2-x,-y,z
1/2+x,-y,1/2-z
1/2-x,1/2+y,1/2-z
1/2-x,1/2-y,-z
1/2+x,y,-z
1/2-x,y,1/2+z
1/2+x,1/2-y,1/2+z
loop_
_atom_site_type_symbol
_atom_site_label
_atom_site_fract_x
_atom_site_fract_y
_atom_site_fract_z
Si Si1 0.174145 0.250000 0.750000
Si Si2 0.589694 0.556760 0.214325
Si Si3 0.518254 0.100414 0.577239
Si Si4 0.781830 0.601675 0.941448
Si Si5 0.893825 0.343351 0.582019
Si Si6 0.283787 0.658976 0.352226
O O1 0.133512 0.260199 0.646238
O O2 0.219849 0.153608 0.710586
O O3 0.566010 0.564719 0.331994
O O4 0.542286 0.626813 0.143412
O O5 0.586764 0.431518 0.170501
O O6 0.657172 0.602097 0.194128
O O7 0.552896 0.181899 0.498415
O O8 0.500000 0.000000 0.500000
O O9 0.750000 0.500000 0.883477
O O10 0.792269 0.709750 0.871614
O O11 0.843210 0.596132 0.009883
O O12 0.730673 0.620389 0.031020
#
# Coordination Sequence:
#
# PCOD9507204 Si02
#       6
#     8  16  16  16  16  16
#     4  10  24  40  62 100 148 180 240 306 376 454
#     4  10  20  42  75 100 141 194 253 305 372 453
#     4   9  21  41  72 102 137 194 255 307 369 449
#     4  10  20  39  65  99 139 184 227 297 369 441
#     4  10  21  42  68 104 139 188 244 305 377 443
#     4  10  22  39  63 101 140 184 238 291 370 450
#
# _framework density 25.864975000000001
#
# number of rings (size 3 to 8) (size 9 to 14) (size 15 to 20)
#    0.000    2.182    1.818    0.000    2.545    1.455 
#    9.818    0.909   12.000    0.000    0.000    0.000 
#    0.000    0.000    0.000    0.000    0.000    0.000 
#
# Total GULP energy -245705.248126 kJ/mol
# GULP energy per Si atom -5584.210185 kJ/mol
# Density = 2.580611 g / cm^3
# Si number density = 25.864975 Si / 1000 Ang^3
#
#
#
# Elastic Constant Matrix: (Units=GPa)
#
#
# Indices 1 2 3 4 5 6 
#
# 1 140.9862 28.4302 75.7765 0.0000 0.0000 0.0000
# 2 28.4302 71.9209 45.3094 0.0000 0.0000 0.0000
# 3 75.7765 45.3094 171.5426 0.0000 0.0000 0.0000
# 4 0.0000 0.0000 0.0000 35.2387 0.0000 0.0000
# 5 0.0000 0.0000 0.0000 0.0000 63.1588 0.0000
# 6 0.0000 0.0000 0.0000 0.0000 0.0000 32.3942
#
#
#
# Elastic Compliance Matrix: (Units=1/GPa)
#
#
# Indices 1 2 3 4 5 6 
#
# 1 0.009405 -0.001320 -0.003806 0.000000 0.000000 0.000000
# 2 -0.001320 0.016865 -0.003871 0.000000 0.000000 0.000000
# 3 -0.003806 -0.003871 0.008533 0.000000 0.000000 0.000000
# 4 0.000000 0.000000 0.000000 0.028378 0.000000 0.000000
# 5 0.000000 0.000000 0.000000 0.000000 0.015833 0.000000
# 6 0.000000 0.000000 0.000000 0.000000 0.000000 0.030870
#
#
# Mechanical properties :
#
#
# Convention : Reuss Voigt Hill
#
# Bulk Modulus (GPa) = 59.49436 75.94242 67.71839
# Shear Modulus (GPa) = 37.45873 41.82058 39.63965
#
# Velocity S-wave (km/s) = 3.80971 4.02541 3.91904
# Velocity P-wave (km/s) = 6.51181 7.14353 6.83497
#
# Compressibility (1/GPa) = 0.01680832
#
# Stress axis : x y z
#
# Youngs Moduli (GPa) = 106.33182 59.29470 117.19081
#
# Poissons Ratio (x) = 0.07827 0.44599
# Poissons Ratio (y) = 0.14037 0.45369
# Poissons Ratio (z) = 0.40466 0.22955
#
# Static dielectric constant tensor:
#      x y z
#    x 2.075120 0.000000 0.000000 
#    y 0.000000 2.093920 0.000000 
#    z 0.000000 0.000000 2.117080 
# 
# From -- ./inp_files/16322.got.cif
#   From: 2010.05.17/outbox.cif.g08.bks.cpg/sg68_9_cif.got.tgz:16322.got - 2010.06.03 18:57:09.
