data_PCOD9507436
_publ_section_title
;
Structure prediction by ZEFSAII (Michael W. Deem and Ramdas Pophale) SiO2 
 PCOD9507436
Probable space group: C C C A
;
_chemical_formula_sum "Si O2"
_cell_formula_units_Z 72
_cell_length_a 15.542437
_cell_length_b 11.219857
_cell_length_c 18.447787
_cell_angle_alpha 90.000000
_cell_angle_beta 90.000000
_cell_angle_gamma 90.000000
_cell_volume 3216.997423
_symmetry_space_group_name_H-M "C C C A"
_symmetry_group_IT_number 68
_space_group.IT_coordinate_system_code '2'
_symmetry_cell_setting 'orthorhombic'
loop_
_space_group_symop_operation_xyz
x,y,z
-x,1/2-y,z
x,1/2-y,1/2-z
-x,y,1/2-z
-x,-y,-z
x,1/2+y,-z
-x,1/2+y,1/2+z
x,-y,1/2+z
1/2+x,1/2+y,z
1/2-x,-y,z
1/2+x,-y,1/2-z
1/2-x,1/2+y,1/2-z
1/2-x,1/2-y,-z
1/2+x,y,-z
1/2-x,y,1/2+z
1/2+x,1/2-y,1/2+z
loop_
_atom_site_type_symbol
_atom_site_label
_atom_site_fract_x
_atom_site_fract_y
_atom_site_fract_z
Si Si1 0.422248 0.903633 0.007565
Si Si2 0.500000 0.750000 0.131687
Si Si3 0.410999 0.809807 0.847694
Si Si4 0.750000 0.500000 0.456796
Si Si5 0.856696 0.921808 0.677934
Si Si6 0.733644 0.250000 0.250000
O O1 0.417837 0.825952 0.933994
O O2 0.327008 0.956823 0.007095
O O3 0.441466 0.828309 0.078139
O O4 0.500000 0.000000 0.000000
O O5 0.561181 0.837675 0.174654
O O6 0.500000 0.750000 0.825308
O O7 0.330538 0.735334 0.818096
O O8 0.390764 0.942898 0.817225
O O9 0.801992 0.417565 0.398107
O O10 0.793127 0.865047 0.736592
#
# Coordination Sequence:
#
# PCOD9507436 Si02
#       6
#    16   8  16   8  16   8
#     4  11  21  42  73 107 150 189 243 310 375 455
#     4  12  24  43  74 109 146 186 240 316 386 456
#     4  11  23  45  75 104 140 197 246 307 373 447
#     4  10  20  44  70 100 150 188 238 300 364 448
#     4  11  24  47  69 106 144 188 249 307 375 439
#     4  12  23  49  70  94 144 198 246 309 351 444
#
# _framework density 22.381118000000001
#
# number of rings (size 3 to 8) (size 9 to 14) (size 15 to 20)
#    0.000    0.889   10.000    0.333    0.000    1.333 
#   16.000    0.000    0.000    0.000    0.000    0.000 
#    0.000    0.000    0.000    0.000    0.000    0.000 
#
# Total GULP energy -201019.895828 kJ/mol
# GULP energy per Si atom -5583.885995 kJ/mol
# Density = 2.233018 g / cm^3
# Si number density = 22.381118 Si / 1000 Ang^3
#
#
#
# Elastic Constant Matrix: (Units=GPa)
#
#
# Indices 1 2 3 4 5 6 
#
# 1 219.0538 85.5792 51.3134 0.0000 0.0000 0.0000
# 2 85.5792 84.1170 18.8290 0.0000 0.0000 0.0000
# 3 51.3134 18.8290 57.9043 0.0000 0.0000 0.0000
# 4 0.0000 0.0000 0.0000 10.7869 0.0000 0.0000
# 5 0.0000 0.0000 0.0000 0.0000 40.6487 0.0000
# 6 0.0000 0.0000 0.0000 0.0000 0.0000 54.3548
#
#
#
# Elastic Compliance Matrix: (Units=1/GPa)
#
#
# Indices 1 2 3 4 5 6 
#
# 1 0.008871 -0.007836 -0.005313 0.000000 0.000000 0.000000
# 2 -0.007836 0.019743 0.000524 0.000000 0.000000 0.000000
# 3 -0.005313 0.000524 0.021808 0.000000 0.000000 0.000000
# 4 0.000000 0.000000 0.000000 0.092705 0.000000 0.000000
# 5 0.000000 0.000000 0.000000 0.000000 0.024601 0.000000
# 6 0.000000 0.000000 0.000000 0.000000 0.000000 0.018398
#
#
# Mechanical properties :
#
#
# Convention : Reuss Voigt Hill
#
# Bulk Modulus (GPa) = 39.72697 74.72424 57.22561
# Shear Modulus (GPa) = 22.75143 34.84832 28.79988
#
# Velocity S-wave (km/s) = 3.19179 3.95022 3.59108
# Velocity P-wave (km/s) = 5.60108 7.36650 6.54360
#
# Compressibility (1/GPa) = 0.02517182
#
# Stress axis : x y z
#
# Youngs Moduli (GPa) = 112.72659 50.65087 45.85481
#
# Poissons Ratio (x) = 0.39689 0.24364
# Poissons Ratio (y) = 0.88331 -0.02403
# Poissons Ratio (z) = 0.59895 -0.02654
#
# Static dielectric constant tensor:
#      x y z
#    x 1.886810 0.000000 0.000000 
#    y 0.000000 1.879350 0.000000 
#    z 0.000000 0.000000 1.845750 
# 
# From -- ./inp_files/45108.got.cif
#   From: 2010.05.17/outbox.cif.g08.bks.cpg/sg68_23_cif.got.tgz:45108.got - 2010.06.03 18:57:09.
