data_PCOD9507965
_publ_section_title
;
Structure prediction by ZEFSAII (Michael W. Deem and Ramdas Pophale) SiO2 
 PCOD9507965
Probable space group: C C C A
;
_chemical_formula_sum "Si O2"
_cell_formula_units_Z 88
_cell_length_a 23.040394
_cell_length_b 13.680385
_cell_length_c 10.577483
_cell_angle_alpha 90.000000
_cell_angle_beta 90.000000
_cell_angle_gamma 90.000000
_cell_volume 3334.038090
_symmetry_space_group_name_H-M "C C C A"
_symmetry_group_IT_number 68
_space_group.IT_coordinate_system_code '2'
_symmetry_cell_setting 'orthorhombic'
loop_
_space_group_symop_operation_xyz
x,y,z
-x,1/2-y,z
x,1/2-y,1/2-z
-x,y,1/2-z
-x,-y,-z
x,1/2+y,-z
-x,1/2+y,1/2+z
x,-y,1/2+z
1/2+x,1/2+y,z
1/2-x,-y,z
1/2+x,-y,1/2-z
1/2-x,1/2+y,1/2-z
1/2-x,1/2-y,-z
1/2+x,y,-z
1/2-x,y,1/2+z
1/2+x,1/2-y,1/2+z
loop_
_atom_site_type_symbol
_atom_site_label
_atom_site_fract_x
_atom_site_fract_y
_atom_site_fract_z
Si Si1 0.666839 0.356571 0.306150
Si Si2 0.234918 0.885513 0.533942
Si Si3 0.947079 0.591857 0.155860
Si Si4 0.000000 0.250000 0.473902
Si Si5 0.935863 0.384661 0.188250
Si Si6 0.813576 0.593139 0.802351
O O1 0.685866 0.250000 0.250000
O O2 0.678616 0.350768 0.455682
O O3 0.604980 0.366728 0.239478
O O4 0.689379 0.472495 0.293753
O O5 0.220555 0.864244 0.680074
O O6 0.286579 0.860674 0.431504
O O7 0.250000 0.000000 0.540216
O O8 0.928818 0.484786 0.107742
O O9 0.000000 0.578496 0.250000
O O10 0.971653 0.663819 0.053190
O O11 0.054555 0.292025 0.397782
O O12 0.881346 0.384283 0.281207
O O13 0.000000 0.387654 0.250000
#
# Coordination Sequence:
#
# PCOD9507965 Si02
#       6
#    16  16  16   8  16  16
#     4  10  21  39  67 106 145 188 249 312 371 441
#     4  10  21  43  71  98 140 191 250 294 367 436
#     4  10  22  39  65 103 145 188 242 295 379 448
#     4  12  22  40  70 102 144 180 248 306 368 452
#     4  10  24  46  69 103 142 193 241 298 378 453
#     4  10  23  45  73 101 144 197 247 299 373 452
#
# _framework density 26.39442
#
# number of rings (size 3 to 8) (size 9 to 14) (size 15 to 20)
#    0.000    1.818    0.000    3.818    5.091    0.000 
#   19.636   10.000    0.000    0.000    0.000    0.000 
#    0.000    0.000    0.000    0.000    0.000    0.000 
#
# Total GULP energy -245247.179845 kJ/mol
# GULP energy per Si atom -5573.799542 kJ/mol
# Density = 2.633434 g / cm^3
# Si number density = 26.394420 Si / 1000 Ang^3
#
#
#
# Elastic Constant Matrix: (Units=GPa)
#
#
# Indices 1 2 3 4 5 6 
#
# 1 154.6432 46.9790 52.4124 0.0000 0.0000 0.0000
# 2 46.9790 145.1531 48.4484 0.0000 0.0000 0.0000
# 3 52.4124 48.4484 98.1047 0.0000 0.0000 0.0000
# 4 0.0000 0.0000 0.0000 -13.8965 0.0000 0.0000
# 5 0.0000 0.0000 0.0000 0.0000 32.0726 0.0000
# 6 0.0000 0.0000 0.0000 0.0000 0.0000 38.2522
#
#
#
# Elastic Compliance Matrix: (Units=1/GPa)
#
#
# Indices 1 2 3 4 5 6 
#
# 1 0.008132 -0.001415 -0.003646 0.000000 0.000000 0.000000
# 2 -0.001415 0.008495 -0.003439 0.000000 0.000000 0.000000
# 3 -0.003646 -0.003439 0.013839 0.000000 0.000000 0.000000
# 4 0.000000 0.000000 0.000000 -0.071960 0.000000 0.000000
# 5 0.000000 0.000000 0.000000 0.000000 0.031179 0.000000
# 6 0.000000 0.000000 0.000000 0.000000 0.000000 0.026142
#
#
# Mechanical properties :
#
#
# Convention : Reuss Voigt Hill
#
# Bulk Modulus (GPa) = 74.25866 77.06450 75.66158
# Shear Modulus (GPa) = 133.98855 27.95641 80.97248
#
# Velocity S-wave (km/s) = 7.13261 3.25803 5.54477
# Velocity P-wave (km/s) = 9.79936 6.58891 8.34989
#
# Compressibility (1/GPa) = 0.01346644
#
# Stress axis : x y z
#
# Youngs Moduli (GPa) = 122.97099 117.71314 72.25764
#
# Poissons Ratio (x) = 0.16658 0.26343
# Poissons Ratio (y) = 0.17402 0.24852
# Poissons Ratio (z) = 0.44831 0.40485
#
# Static dielectric constant tensor:
#      x y z
#    x 2.097500 0.000000 0.000000 
#    y 0.000000 1.426870 0.000000 
#    z 0.000000 0.000000 2.054700 
# 
# From -- ./inp_files/16307.got.cif
#   From: 2010.05.17/outbox.cif.g08.bks.cpg/sg68_9_cif.got.tgz:16307.got - 2010.06.03 18:57:09.
