data_PCOD9507445
_publ_section_title
;
Structure prediction by ZEFSAII (Michael W. Deem and Ramdas Pophale) SiO2 
 PCOD9507445
Probable space group: C C C A
;
_chemical_formula_sum "Si O2"
_cell_formula_units_Z 84
_cell_length_a 7.739085
_cell_length_b 19.555282
_cell_length_c 21.579795
_cell_angle_alpha 90.000000
_cell_angle_beta 90.000000
_cell_angle_gamma 90.000000
_cell_volume 3265.885951
_symmetry_space_group_name_H-M "C C C A"
_symmetry_group_IT_number 68
_space_group.IT_coordinate_system_code '2'
_symmetry_cell_setting 'orthorhombic'
loop_
_space_group_symop_operation_xyz
x,y,z
-x,1/2-y,z
x,1/2-y,1/2-z
-x,y,1/2-z
-x,-y,-z
x,1/2+y,-z
-x,1/2+y,1/2+z
x,-y,1/2+z
1/2+x,1/2+y,z
1/2-x,-y,z
1/2+x,-y,1/2-z
1/2-x,1/2+y,1/2-z
1/2-x,1/2-y,-z
1/2+x,y,-z
1/2-x,y,1/2+z
1/2+x,1/2-y,1/2+z
loop_
_atom_site_type_symbol
_atom_site_label
_atom_site_fract_x
_atom_site_fract_y
_atom_site_fract_z
Si Si1 0.295182 0.844107 0.564087
Si Si2 0.090691 0.389491 0.068024
Si Si3 0.500000 0.750000 0.250000
Si Si4 0.000000 0.250000 0.645167
Si Si5 0.750000 0.500000 0.785490
Si Si6 0.551170 0.520491 0.615379
Si Si7 0.737249 0.856143 0.695715
O O1 0.095509 0.855715 0.578913
O O2 0.321900 0.854021 0.490759
O O3 0.352281 0.775702 0.598453
O O4 0.420526 0.903710 0.590273
O O5 0.038247 0.469957 0.065084
O O6 0.209734 0.383286 0.127920
O O7 0.623221 0.700346 0.287599
O O8 0.062579 0.313291 0.686690
O O9 0.571339 0.509690 0.825166
O O10 0.754927 0.577708 0.759113
O O11 0.750000 0.500000 0.628248
#
# Coordination Sequence:
#
# PCOD9507445 Si02
#       7
#    16  16   4   8   8  16  16
#     4  11  21  35  57 100 139 187 221 264 326 413
#     4  10  22  37  62  92 140 180 229 272 329 393
#     4  12  28  52  76  96 132 166 232 296 372 408
#     4  12  24  40  68  96 140 170 222 272 346 416
#     4  10  20  44  76  98 138 182 228 282 340 410
#     4   9  19  35  60  98 137 185 227 272 320 399
#     4  11  25  47  72 101 133 179 224 293 347 414
#
# _framework density 25.720434000000001
#
# number of rings (size 3 to 8) (size 9 to 14) (size 15 to 20)
#    0.000    1.524    1.905    2.857    2.667    4.190 
#    1.714    1.905    6.286    0.000    0.000    0.000 
#    0.000    0.000    0.000    0.000    0.000    0.000 
#
# Total GULP energy -234892.174966 kJ/mol
# GULP energy per Si atom -5592.670833 kJ/mol
# Density = 2.566189 g / cm^3
# Si number density = 25.720434 Si / 1000 Ang^3
#
#
#
# Elastic Constant Matrix: (Units=GPa)
#
#
# Indices 1 2 3 4 5 6 
#
# 1 95.9584 14.3439 15.2836 0.0000 0.0000 0.0000
# 2 14.3439 139.1236 27.1286 0.0000 0.0000 0.0000
# 3 15.2836 27.1286 70.0787 0.0000 0.0000 0.0000
# 4 0.0000 0.0000 0.0000 16.4322 0.0000 0.0000
# 5 0.0000 0.0000 0.0000 0.0000 149.1782 0.0000
# 6 0.0000 0.0000 0.0000 0.0000 0.0000 49.0281
#
#
#
# Elastic Compliance Matrix: (Units=1/GPa)
#
#
# Indices 1 2 3 4 5 6 
#
# 1 0.010861 -0.000712 -0.002093 0.000000 0.000000 0.000000
# 2 -0.000712 0.007821 -0.002873 0.000000 0.000000 0.000000
# 3 -0.002093 -0.002873 0.015838 0.000000 0.000000 0.000000
# 4 0.000000 0.000000 0.000000 0.060856 0.000000 0.000000
# 5 0.000000 0.000000 0.000000 0.000000 0.006703 0.000000
# 6 0.000000 0.000000 0.000000 0.000000 0.000000 0.020396
#
#
# Mechanical properties :
#
#
# Convention : Reuss Voigt Hill
#
# Bulk Modulus (GPa) = 43.16724 46.51921 44.84322
# Shear Modulus (GPa) = 35.32237 59.48800 47.40518
#
# Velocity S-wave (km/s) = 3.70985 4.81445 4.29778
# Velocity P-wave (km/s) = 5.93046 7.00221 6.48850
#
# Compressibility (1/GPa) = 0.02316571
#
# Stress axis : x y z
#
# Youngs Moduli (GPa) = 92.07294 127.85492 63.13846
#
# Poissons Ratio (x) = 0.09098 0.13216
# Poissons Ratio (y) = 0.06552 0.18137
# Poissons Ratio (z) = 0.19273 0.36727
#
# Static dielectric constant tensor:
#      x y z
#    x 1.901220 0.000000 0.000000 
#    y 0.000000 2.060390 0.000000 
#    z 0.000000 0.000000 2.061650 
# 
# From -- ./inp_files/43084.got.cif
#   From: 2010.05.17/outbox.cif.g08.bks.cpg/sg68_22_cif.got.tgz:43084.got - 2010.06.03 18:57:09.
