data_PCOD9507434
_publ_section_title
;
Structure prediction by ZEFSAII (Michael W. Deem and Ramdas Pophale) SiO2 
 PCOD9507434
Probable space group: C C C A
;
_chemical_formula_sum "Si O2"
_cell_formula_units_Z 100
_cell_length_a 14.597184
_cell_length_b 11.980021
_cell_length_c 27.616281
_cell_angle_alpha 90.000000
_cell_angle_beta 90.000000
_cell_angle_gamma 90.000000
_cell_volume 4829.385289
_symmetry_space_group_name_H-M "C C C A"
_symmetry_group_IT_number 68
_space_group.IT_coordinate_system_code '2'
_symmetry_cell_setting 'orthorhombic'
loop_
_space_group_symop_operation_xyz
x,y,z
-x,1/2-y,z
x,1/2-y,1/2-z
-x,y,1/2-z
-x,-y,-z
x,1/2+y,-z
-x,1/2+y,1/2+z
x,-y,1/2+z
1/2+x,1/2+y,z
1/2-x,-y,z
1/2+x,-y,1/2-z
1/2-x,1/2+y,1/2-z
1/2-x,1/2-y,-z
1/2+x,y,-z
1/2-x,y,1/2+z
1/2+x,1/2-y,1/2+z
loop_
_atom_site_type_symbol
_atom_site_label
_atom_site_fract_x
_atom_site_fract_y
_atom_site_fract_z
Si Si1 0.371161 0.908202 0.690045
Si Si2 0.661089 0.838118 0.293114
Si Si3 0.500000 0.250000 0.957318
Si Si4 0.750000 0.000000 0.580240
Si Si5 0.189273 0.596228 0.410879
Si Si6 0.000000 0.250000 0.750000
Si Si7 0.166250 0.717890 0.606396
Si Si8 0.101708 0.546498 0.998379
O O1 0.269708 0.866324 0.705668
O O2 0.381369 0.882911 0.632190
O O3 0.440178 0.830335 0.717358
O O4 0.383941 0.038436 0.704676
O O5 0.640134 0.750000 0.250000
O O6 0.640366 0.777263 0.343925
O O7 0.573540 0.310780 0.922825
O O8 0.572496 0.173744 0.986301
O O9 0.719264 0.103138 0.612359
O O10 0.832726 0.037245 0.544471
O O11 0.250000 0.500000 0.385786
O O12 0.259761 0.697925 0.419712
O O13 0.149185 0.532056 0.457254
O O14 0.000000 0.500000 0.000000
#
# Coordination Sequence:
#
# PCOD9507434 Si02
#       8
#    16  16   8   8  16   4  16  16
#     4  10  21  42  69  95 131 171 218 268 345 399
#     4  10  20  44  69  94 128 182 218 261 340 419
#     4  12  22  42  64  94 134 174 224 288 332 396
#     4  12  26  44  64 102 138 182 236 284 348 398
#     4  11  20  45  69  85 128 187 219 265 346 415
#     4  12  24  44  68 112 132 162 222 302 320 400
#     4  11  24  43  67  95 135 178 229 283 335 406
#     4  12  25  41  65  98 134 178 227 285 344 404
#
# _framework density 20.706568999999998
#
# number of rings (size 3 to 8) (size 9 to 14) (size 15 to 20)
#    0.000    0.960    8.000    0.000    2.240    2.560 
#   11.520    0.000    0.000    0.000    0.000    0.000 
#    0.000    0.000    0.000    0.000    0.000    0.000 
#
# Total GULP energy -278564.792190 kJ/mol
# GULP energy per Si atom -5571.295844 kJ/mol
# Density = 2.065944 g / cm^3
# Si number density = 20.706569 Si / 1000 Ang^3
#
#
#
# Elastic Constant Matrix: (Units=GPa)
#
#
# Indices 1 2 3 4 5 6 
#
# 1 59.9360 22.9014 -0.8130 0.0000 0.0000 0.0000
# 2 22.9014 117.9556 6.8751 0.0000 0.0000 0.0000
# 3 -0.8130 6.8751 30.3533 0.0000 0.0000 0.0000
# 4 0.0000 0.0000 0.0000 25.1643 0.0000 0.0000
# 5 0.0000 0.0000 0.0000 0.0000 5.4060 0.0000
# 6 0.0000 0.0000 0.0000 0.0000 0.0000 17.7262
#
#
#
# Elastic Compliance Matrix: (Units=1/GPa)
#
#
# Indices 1 2 3 4 5 6 
#
# 1 0.018072 -0.003584 0.001296 0.000000 0.000000 0.000000
# 2 -0.003584 0.009302 -0.002203 0.000000 0.000000 0.000000
# 3 0.001296 -0.002203 0.033479 0.000000 0.000000 0.000000
# 4 0.000000 0.000000 0.000000 0.039739 0.000000 0.000000
# 5 0.000000 0.000000 0.000000 0.000000 0.184978 0.000000
# 6 0.000000 0.000000 0.000000 0.000000 0.000000 0.056414
#
#
# Mechanical properties :
#
#
# Convention : Reuss Voigt Hill
#
# Bulk Modulus (GPa) = 19.27891 29.57465 24.42678
# Shear Modulus (GPa) = 13.57751 21.61141 17.59446
#
# Velocity S-wave (km/s) = 2.56346 3.23414 2.91813
# Velocity P-wave (km/s) = 4.25353 5.31601 4.81417
#
# Compressibility (1/GPa) = 0.05187014
#
# Stress axis : x y z
#
# Youngs Moduli (GPa) = 55.33556 107.50330 29.86947
#
# Poissons Ratio (x) = 0.38531 -0.03871
# Poissons Ratio (y) = 0.19833 0.06580
# Poissons Ratio (z) = -0.07171 0.23682
#
# Static dielectric constant tensor:
#      x y z
#    x 1.125100 0.000000 0.000000 
#    y 0.000000 1.941650 0.000000 
#    z 0.000000 0.000000 1.808850 
# 
# From -- ./inp_files/55232.got.cif
#   From: 2010.05.17/outbox.cif.g08.bks.cpg/sg68_28_cif.got.tgz:55232.got - 2010.06.03 18:57:09.
