data_PCOD9507499
_publ_section_title
;
Structure prediction by ZEFSAII (Michael W. Deem and Ramdas Pophale) SiO2 
 PCOD9507499
Probable space group: C C C A
;
_chemical_formula_sum "Si O2"
_cell_formula_units_Z 88
_cell_length_a 5.072543
_cell_length_b 26.941430
_cell_length_c 28.702537
_cell_angle_alpha 90.000000
_cell_angle_beta 90.000000
_cell_angle_gamma 90.000000
_cell_volume 3922.533544
_symmetry_space_group_name_H-M "C C C A"
_symmetry_group_IT_number 68
_space_group.IT_coordinate_system_code '2'
_symmetry_cell_setting 'orthorhombic'
loop_
_space_group_symop_operation_xyz
x,y,z
-x,1/2-y,z
x,1/2-y,1/2-z
-x,y,1/2-z
-x,-y,-z
x,1/2+y,-z
-x,1/2+y,1/2+z
x,-y,1/2+z
1/2+x,1/2+y,z
1/2-x,-y,z
1/2+x,-y,1/2-z
1/2-x,1/2+y,1/2-z
1/2-x,1/2-y,-z
1/2+x,y,-z
1/2-x,y,1/2+z
1/2+x,1/2-y,1/2+z
loop_
_atom_site_type_symbol
_atom_site_label
_atom_site_fract_x
_atom_site_fract_y
_atom_site_fract_z
Si Si1 0.498826 0.967116 0.134208
Si Si2 0.841818 0.431839 0.031118
Si Si3 0.251964 0.715732 0.189986
Si Si4 0.251686 0.899176 0.282675
Si Si5 0.000000 0.750000 0.895451
Si Si6 0.838509 0.313652 0.028463
O O1 0.387685 0.947854 0.084505
O O2 0.641112 0.928237 0.170650
O O3 0.750000 0.000000 0.121411
O O4 0.250000 0.000000 0.154419
O O5 0.829789 0.372241 0.034716
O O6 0.574214 0.446350 0.004692
O O7 0.500000 0.750000 0.205164
O O8 0.217816 0.659920 0.207522
O O9 0.323292 0.713291 0.135412
O O10 0.000000 0.750000 0.197801
O O11 0.500000 0.904546 0.250000
O O12 0.000000 0.915546 0.250000
O O13 0.804934 0.784426 0.924337
O O14 0.126702 0.300616 0.010080
#
# Coordination Sequence:
#
# PCOD9507499 Si02
#       6
#    16  16  16  16   8  16
#     4  12  27  47  73 108 140 183 243 299 365 443
#     4  10  22  42  67 101 141 185 229 288 356 431
#     4  10  24  41  67 102 133 182 227 289 350 430
#     4  12  27  49  75 102 143 190 239 304 369 431
#     4  10  22  36  59  90 138 176 234 288 341 406
#     4  10  21  34  56  88 130 181 229 277 339 409
#
# _framework density 22.434483
#
# number of rings (size 3 to 8) (size 9 to 14) (size 15 to 20)
#    0.545    0.727    0.000    4.909    2.545    5.818 
#    3.273    0.000    0.000    0.000    0.000    0.000 
#    0.000    0.000    0.000    0.000    0.000    0.000 
#
# Total GULP energy -245283.688631 kJ/mol
# GULP energy per Si atom -5574.629287 kJ/mol
# Density = 2.238342 g / cm^3
# Si number density = 22.434483 Si / 1000 Ang^3
#
#
#
# Elastic Constant Matrix: (Units=GPa)
#
#
# Indices 1 2 3 4 5 6 
#
# 1 131.1963 39.2544 20.4152 0.0000 0.0000 0.0000
# 2 39.2544 107.4329 54.0326 0.0000 0.0000 0.0000
# 3 20.4152 54.0326 124.4917 0.0000 0.0000 0.0000
# 4 0.0000 0.0000 0.0000 14.2944 0.0000 0.0000
# 5 0.0000 0.0000 0.0000 0.0000 38.0609 0.0000
# 6 0.0000 0.0000 0.0000 0.0000 0.0000 30.1056
#
#
#
# Elastic Compliance Matrix: (Units=1/GPa)
#
#
# Indices 1 2 3 4 5 6 
#
# 1 0.008558 -0.003097 -0.000059 0.000000 0.000000 0.000000
# 2 -0.003097 0.013028 -0.005147 0.000000 0.000000 0.000000
# 3 -0.000059 -0.005147 0.010276 0.000000 0.000000 0.000000
# 4 0.000000 0.000000 0.000000 0.069957 0.000000 0.000000
# 5 0.000000 0.000000 0.000000 0.000000 0.026274 0.000000
# 6 0.000000 0.000000 0.000000 0.000000 0.000000 0.033216
#
#
# Mechanical properties :
#
#
# Convention : Reuss Voigt Hill
#
# Bulk Modulus (GPa) = 65.54643 65.61393 65.58018
# Shear Modulus (GPa) = 27.32217 33.12010 30.22113
#
# Velocity S-wave (km/s) = 3.49358 3.84644 3.67425
# Velocity P-wave (km/s) = 6.74935 7.00265 6.87717
#
# Compressibility (1/GPa) = 0.01525636
#
# Stress axis : x y z
#
# Youngs Moduli (GPa) = 116.84866 76.75577 97.31259
#
# Poissons Ratio (x) = 0.23773 0.00575
# Poissons Ratio (y) = 0.36191 0.50084
# Poissons Ratio (z) = 0.00691 0.39504
#
# Static dielectric constant tensor:
#      x y z
#    x 1.713190 0.000000 0.000000 
#    y 0.000000 1.573030 0.000000 
#    z 0.000000 0.000000 1.959870 
# 
# From -- ./inp_files/53393.got.cif
#   From: 2010.05.17/outbox.cif.g08.bks.cpg/sg68_27_cif.got.tgz:53393.got - 2010.06.03 18:57:09.
