data_PCOD9507988
_publ_section_title
;
Structure prediction by ZEFSAII (Michael W. Deem and Ramdas Pophale) SiO2 
 PCOD9507988
Probable space group: C C C A
;
_chemical_formula_sum "Si O2"
_cell_formula_units_Z 64
_cell_length_a 13.708275
_cell_length_b 32.411867
_cell_length_c 5.371233
_cell_angle_alpha 90.000000
_cell_angle_beta 90.000000
_cell_angle_gamma 90.000000
_cell_volume 2386.496757
_symmetry_space_group_name_H-M "C C C A"
_symmetry_group_IT_number 68
_space_group.IT_coordinate_system_code '2'
_symmetry_cell_setting 'orthorhombic'
loop_
_space_group_symop_operation_xyz
x,y,z
-x,1/2-y,z
x,1/2-y,1/2-z
-x,y,1/2-z
-x,-y,-z
x,1/2+y,-z
-x,1/2+y,1/2+z
x,-y,1/2+z
1/2+x,1/2+y,z
1/2-x,-y,z
1/2+x,-y,1/2-z
1/2-x,1/2+y,1/2-z
1/2-x,1/2-y,-z
1/2+x,y,-z
1/2-x,y,1/2+z
1/2+x,1/2-y,1/2+z
loop_
_atom_site_type_symbol
_atom_site_label
_atom_site_fract_x
_atom_site_fract_y
_atom_site_fract_z
Si Si1 0.109915 0.767966 0.501603
Si Si2 0.366578 0.636730 0.587262
Si Si3 0.142745 0.105496 0.417270
Si Si4 0.883805 0.481004 0.699023
O O1 0.153792 0.750000 0.750000
O O2 0.118562 0.816971 0.502443
O O3 0.000000 0.750000 0.501826
O O4 0.151895 0.750000 0.250000
O O5 0.252534 0.623208 0.619365
O O6 0.406328 0.633463 0.869102
O O7 0.401349 0.607467 0.360163
O O8 0.139166 0.061363 0.554421
O O9 0.848989 0.513879 0.486584
O O10 0.000000 0.484067 0.750000
#
# Coordination Sequence:
#
# PCOD9507988 Si02
#       4
#    16  16  16  16
#     4  10  21  40  62  88 122 162 212 263 315 376
#     4  10  21  40  61  88 131 156 212 257 317 380
#     4  10  21  40  61  93 125 167 203 259 319 373
#     4  10  21  40  64  91 127 166 210 256 307 375
#
# _framework density 26.817551000000002
#
# number of rings (size 3 to 8) (size 9 to 14) (size 15 to 20)
#    0.000    2.000    0.000    3.000    0.000    0.000 
#   13.500   30.000    0.000    0.000    0.000    0.000 
#    0.000    0.000    0.000    0.000    0.000    0.000 
#
# Total GULP energy -178820.660303 kJ/mol
# GULP energy per Si atom -5588.145634 kJ/mol
# Density = 2.675651 g / cm^3
# Si number density = 26.817551 Si / 1000 Ang^3
#
#
#
# Elastic Constant Matrix: (Units=GPa)
#
#
# Indices 1 2 3 4 5 6 
#
# 1 124.9902 -25.1261 19.4298 0.0000 0.0000 0.0000
# 2 -25.1261 143.9680 66.2940 0.0000 0.0000 0.0000
# 3 19.4298 66.2940 247.5263 0.0000 0.0000 0.0000
# 4 0.0000 0.0000 0.0000 77.7353 0.0000 0.0000
# 5 0.0000 0.0000 0.0000 0.0000 -3.7691 0.0000
# 6 0.0000 0.0000 0.0000 0.0000 0.0000 36.3173
#
#
#
# Elastic Compliance Matrix: (Units=1/GPa)
#
#
# Indices 1 2 3 4 5 6 
#
# 1 0.008608 0.002068 -0.001230 0.000000 0.000000 0.000000
# 2 0.002068 0.008420 -0.002418 0.000000 0.000000 0.000000
# 3 -0.001230 -0.002418 0.004784 0.000000 0.000000 0.000000
# 4 0.000000 0.000000 0.000000 0.012864 0.000000 0.000000
# 5 0.000000 0.000000 0.000000 0.000000 -0.265318 0.000000
# 6 0.000000 0.000000 0.000000 0.000000 0.000000 0.027535
#
#
# Mechanical properties :
#
#
# Convention : Reuss Voigt Hill
#
# Bulk Modulus (GPa) = 53.60673 70.85331 62.23002
# Shear Modulus (GPa) = -25.80886 52.44916 13.32015
#
# Velocity S-wave (km/s) = -3.10560 4.42722 2.23108
# Velocity P-wave (km/s) = 2.67827 7.25338 5.46739
#
# Compressibility (1/GPa) = 0.01865438
#
# Stress axis : x y z
#
# Youngs Moduli (GPa) = 116.17651 118.76204 209.03133
#
# Poissons Ratio (x) = -0.24566 0.25704
# Poissons Ratio (y) = -0.24031 0.50534
# Poissons Ratio (z) = 0.14286 0.28711
#
# Static dielectric constant tensor:
#      x y z
#    x 2.424090 0.000000 0.000000 
#    y 0.000000 2.176590 0.000000 
#    z 0.000000 0.000000 2.170330 
# 
# From -- ./inp_files/1110.got.cif
#   From: 2010.05.17/outbox.cif.g08.bks.cpg/sg68_1_cif.got.tgz:1110.got - 2010.06.03 18:57:09.
