data_PCOD9507427
_publ_section_title
;
Structure prediction by ZEFSAII (Michael W. Deem and Ramdas Pophale) SiO2 
 PCOD9507427
Probable space group: C C C A
;
_chemical_formula_sum "Si O2"
_cell_formula_units_Z 88
_cell_length_a 12.165124
_cell_length_b 33.458284
_cell_length_c 10.867744
_cell_angle_alpha 90.000000
_cell_angle_beta 90.000000
_cell_angle_gamma 90.000000
_cell_volume 4423.434521
_symmetry_space_group_name_H-M "C C C A"
_symmetry_group_IT_number 68
_space_group.IT_coordinate_system_code '2'
_symmetry_cell_setting 'orthorhombic'
loop_
_space_group_symop_operation_xyz
x,y,z
-x,1/2-y,z
x,1/2-y,1/2-z
-x,y,1/2-z
-x,-y,-z
x,1/2+y,-z
-x,1/2+y,1/2+z
x,-y,1/2+z
1/2+x,1/2+y,z
1/2-x,-y,z
1/2+x,-y,1/2-z
1/2-x,1/2+y,1/2-z
1/2-x,1/2-y,-z
1/2+x,y,-z
1/2-x,y,1/2+z
1/2+x,1/2-y,1/2+z
loop_
_atom_site_type_symbol
_atom_site_label
_atom_site_fract_x
_atom_site_fract_y
_atom_site_fract_z
Si Si1 0.686811 0.705426 0.226692
Si Si2 0.000000 0.999006 0.750000
Si Si3 0.398791 0.843908 0.668622
Si Si4 0.010335 0.204889 0.447405
Si Si5 0.667582 0.934111 0.845978
Si Si6 0.686858 0.541765 0.379878
O O1 0.734294 0.750000 0.250000
O O2 0.786051 0.674639 0.219799
O O3 0.595743 0.704369 0.333926
O O4 0.612325 0.697826 0.105010
O O5 0.062700 0.970902 0.847101
O O6 0.087232 0.028407 0.683601
O O7 0.500000 0.830523 0.750000
O O8 0.434489 0.826479 0.537673
O O9 0.389844 0.891583 0.668995
O O10 0.000000 0.250000 0.499523
O O11 0.762188 0.937308 0.741530
O O12 0.701615 0.936788 0.989321
O O13 0.750000 0.500000 0.393735
#
# Coordination Sequence:
#
# PCOD9507427 Si02
#       6
#    16   8  16  16  16  16
#     4   9  22  44  67  91 126 174 224 267 319 392
#     4  10  20  44  66  94 121 168 223 264 316 394
#     4  12  27  39  63  99 136 168 211 276 331 385
#     4   9  22  44  67  91 126 174 222 270 323 389
#     4  11  24  42  62  98 133 162 212 274 332 387
#     4  10  22  42  70  91 121 172 214 261 323 398
#
# _framework density 19.894044000000001
#
# number of rings (size 3 to 8) (size 9 to 14) (size 15 to 20)
#    0.000    1.818    0.909    3.273    7.636    2.909 
#    3.273    0.000    0.000    0.000    0.000    0.000 
#    0.000    0.000    0.000    0.000    0.000    0.000 
#
# Total GULP energy -245259.994276 kJ/mol
# GULP energy per Si atom -5574.090779 kJ/mol
# Density = 1.984876 g / cm^3
# Si number density = 19.894044 Si / 1000 Ang^3
#
#
#
# Elastic Constant Matrix: (Units=GPa)
#
#
# Indices 1 2 3 4 5 6 
#
# 1 80.0589 25.6244 23.3684 0.0000 0.0000 0.0000
# 2 25.6244 53.6271 28.8698 0.0000 0.0000 0.0000
# 3 23.3684 28.8698 90.2081 0.0000 0.0000 0.0000
# 4 0.0000 0.0000 0.0000 17.7347 0.0000 0.0000
# 5 0.0000 0.0000 0.0000 0.0000 20.6102 0.0000
# 6 0.0000 0.0000 0.0000 0.0000 0.0000 18.3045
#
#
#
# Elastic Compliance Matrix: (Units=1/GPa)
#
#
# Indices 1 2 3 4 5 6 
#
# 1 0.015018 -0.006139 -0.001926 0.000000 0.000000 0.000000
# 2 -0.006139 0.025038 -0.006423 0.000000 0.000000 0.000000
# 3 -0.001926 -0.006423 0.013640 0.000000 0.000000 0.000000
# 4 0.000000 0.000000 0.000000 0.056387 0.000000 0.000000
# 5 0.000000 0.000000 0.000000 0.000000 0.048520 0.000000
# 6 0.000000 0.000000 0.000000 0.000000 0.000000 0.054631
#
#
# Mechanical properties :
#
#
# Convention : Reuss Voigt Hill
#
# Bulk Modulus (GPa) = 40.45177 42.17990 41.31583
# Shear Modulus (GPa) = 19.96412 21.06533 20.51472
#
# Velocity S-wave (km/s) = 3.17128 3.25757 3.21471
# Velocity P-wave (km/s) = 5.81267 5.94956 5.88151
#
# Compressibility (1/GPa) = 0.02472080
#
# Stress axis : x y z
#
# Youngs Moduli (GPa) = 66.58739 39.93852 73.31474
#
# Poissons Ratio (x) = 0.24519 0.14117
# Poissons Ratio (y) = 0.40880 0.47089
# Poissons Ratio (z) = 0.12822 0.25652
#
# Static dielectric constant tensor:
#      x y z
#    x 1.694190 0.000000 0.000000 
#    y 0.000000 1.677290 0.000000 
#    z 0.000000 0.000000 1.664950 
# 
# From -- ./inp_files/12057.got.cif
#   From: 2010.05.17/outbox.cif.g08.bks.cpg/sg68_7_cif.got.tgz:12057.got - 2010.06.03 18:57:09.
