data_PCOD9507172
_publ_section_title
;
Structure prediction by ZEFSAII (Michael W. Deem and Ramdas Pophale) SiO2 
 PCOD9507172
Probable space group: C C C A
;
_chemical_formula_sum "Si O2"
_cell_formula_units_Z 112
_cell_length_a 10.768187
_cell_length_b 32.795023
_cell_length_c 14.269996
_cell_angle_alpha 90.000000
_cell_angle_beta 90.000000
_cell_angle_gamma 90.000000
_cell_volume 5039.348346
_symmetry_space_group_name_H-M "C C C A"
_symmetry_group_IT_number 68
_space_group.IT_coordinate_system_code '2'
_symmetry_cell_setting 'orthorhombic'
loop_
_space_group_symop_operation_xyz
x,y,z
-x,1/2-y,z
x,1/2-y,1/2-z
-x,y,1/2-z
-x,-y,-z
x,1/2+y,-z
-x,1/2+y,1/2+z
x,-y,1/2+z
1/2+x,1/2+y,z
1/2-x,-y,z
1/2+x,-y,1/2-z
1/2-x,1/2+y,1/2-z
1/2-x,1/2-y,-z
1/2+x,y,-z
1/2-x,y,1/2+z
1/2+x,1/2-y,1/2+z
loop_
_atom_site_type_symbol
_atom_site_label
_atom_site_fract_x
_atom_site_fract_y
_atom_site_fract_z
Si Si1 0.889759 0.492557 0.074026
Si Si2 0.936077 0.903821 0.950267
Si Si3 0.270657 0.361449 0.348709
Si Si4 0.970561 0.074914 0.855647
Si Si5 0.387556 0.632755 0.177802
Si Si6 0.628276 0.727499 0.616453
Si Si7 0.621771 0.724818 0.390488
O O1 0.750000 0.500000 0.038006
O O2 0.896901 0.445416 0.102895
O O3 0.922220 0.528353 0.146541
O O4 0.000000 0.500000 0.000000
O O5 0.849634 0.865867 0.917663
O O6 0.074164 0.893577 0.912003
O O7 0.931814 0.915485 0.060392
O O8 0.359834 0.395929 0.385974
O O9 0.230887 0.373499 0.243237
O O10 0.338998 0.317948 0.348365
O O11 0.000000 0.086874 0.750000
O O12 0.500000 0.625702 0.250000
O O13 0.385573 0.679599 0.148064
O O14 0.500000 0.750000 0.645224
O O15 0.621545 0.723590 0.503514
O O16 0.749191 0.754488 0.639220
O O17 0.500000 0.750000 0.361087
#
# Coordination Sequence:
#
# PCOD9507172 Si02
#       7
#    16  16  16  16  16  16  16
#     4  10  21  45  73 104 140 185 234 285 352 421
#     4  10  22  44  70  93 138 185 233 287 351 415
#     4  11  23  41  64  96 137 179 239 283 353 424
#     4  11  25  41  64 103 138 179 233 290 351 422
#     4  10  22  38  64  97 122 173 232 285 333 401
#     4  10  23  39  62  92 131 178 216 281 353 411
#     4  10  20  39  63  90 122 170 235 273 333 414
#
# _framework density 22.225097000000002
#
# number of rings (size 3 to 8) (size 9 to 14) (size 15 to 20)
#    0.000    1.714    1.429    2.571    0.000    9.429 
#    2.571    1.429    0.000    0.000    0.000    0.000 
#    0.000    0.000    0.000    0.286    0.000    0.000 
#
# Total GULP energy -312371.400920 kJ/mol
# GULP energy per Si atom -5578.060731 kJ/mol
# Density = 2.217451 g / cm^3
# Si number density = 22.225097 Si / 1000 Ang^3
#
#
#
# Elastic Constant Matrix: (Units=GPa)
#
#
# Indices 1 2 3 4 5 6 
#
# 1 119.6210 33.7288 26.4632 0.0000 0.0000 0.0000
# 2 33.7288 107.0062 17.0993 0.0000 0.0000 0.0000
# 3 26.4632 17.0993 116.4503 0.0000 0.0000 0.0000
# 4 0.0000 0.0000 0.0000 30.4570 0.0000 0.0000
# 5 0.0000 0.0000 0.0000 0.0000 6.5805 0.0000
# 6 0.0000 0.0000 0.0000 0.0000 0.0000 -50.2346
#
#
#
# Elastic Compliance Matrix: (Units=1/GPa)
#
#
# Indices 1 2 3 4 5 6 
#
# 1 0.009516 -0.002718 -0.001763 0.000000 0.000000 0.000000
# 2 -0.002718 0.010346 -0.000902 0.000000 0.000000 0.000000
# 3 -0.001763 -0.000902 0.009120 0.000000 0.000000 0.000000
# 4 0.000000 0.000000 0.000000 0.032833 0.000000 0.000000
# 5 0.000000 0.000000 0.000000 0.000000 0.151965 0.000000
# 6 0.000000 0.000000 0.000000 0.000000 0.000000 -0.019907
#
#
# Mechanical properties :
#
#
# Convention : Reuss Voigt Hill
#
# Bulk Modulus (GPa) = 54.89363 55.29556 55.09460
# Shear Modulus (GPa) = 23.72907 15.07965 19.40436
#
# Velocity S-wave (km/s) = 3.27107 2.60762 2.95800
# Velocity P-wave (km/s) = 6.24652 5.83096 6.04231
#
# Compressibility (1/GPa) = 0.01821705
#
# Stress axis : x y z
#
# Youngs Moduli (GPa) = 105.08443 96.65607 109.64325
#
# Poissons Ratio (x) = 0.26269 0.19335
# Poissons Ratio (y) = 0.28559 0.09885
# Poissons Ratio (z) = 0.18531 0.08714
#
# Static dielectric constant tensor:
#      x y z
#    x 1.907310 0.000000 0.000000 
#    y 0.000000 1.813540 0.000000 
#    z 0.000000 0.000000 1.847080 
# 
# From -- ./inp_files/21255.got.cif
#   From: 2010.05.17/outbox.cif.g08.bks.cpg/sg68_11_cif.got.tgz:21255.got - 2010.06.03 18:57:09.
