data_PCOD9507891
_publ_section_title
;
Structure prediction by ZEFSAII (Michael W. Deem and Ramdas Pophale) SiO2 
 PCOD9507891
Probable space group: C C C A
;
_chemical_formula_sum "Si O2"
_cell_formula_units_Z 80
_cell_length_a 22.789586
_cell_length_b 14.169752
_cell_length_c 11.262885
_cell_angle_alpha 90.000000
_cell_angle_beta 90.000000
_cell_angle_gamma 90.000000
_cell_volume 3637.042155
_symmetry_space_group_name_H-M "C C C A"
_symmetry_group_IT_number 68
_space_group.IT_coordinate_system_code '2'
_symmetry_cell_setting 'orthorhombic'
loop_
_space_group_symop_operation_xyz
x,y,z
-x,1/2-y,z
x,1/2-y,1/2-z
-x,y,1/2-z
-x,-y,-z
x,1/2+y,-z
-x,1/2+y,1/2+z
x,-y,1/2+z
1/2+x,1/2+y,z
1/2-x,-y,z
1/2+x,-y,1/2-z
1/2-x,1/2+y,1/2-z
1/2-x,1/2-y,-z
1/2+x,y,-z
1/2-x,y,1/2+z
1/2+x,1/2-y,1/2+z
loop_
_atom_site_type_symbol
_atom_site_label
_atom_site_fract_x
_atom_site_fract_y
_atom_site_fract_z
Si Si1 0.018283 0.951025 0.879947
Si Si2 0.837276 0.742293 0.390904
Si Si3 0.418279 0.307989 0.913711
Si Si4 0.733447 0.604203 0.467960
Si Si5 0.368229 0.387089 0.697322
O O1 0.088349 0.957341 0.869506
O O2 0.000000 0.988015 0.750000
O O3 0.983294 0.849851 0.891612
O O4 0.000000 0.000000 0.000000
O O5 0.840356 0.750000 0.250000
O O6 0.898282 0.709839 0.451899
O O7 0.790274 0.666179 0.439020
O O8 0.810398 0.839925 0.443719
O O9 0.379298 0.383538 0.837800
O O10 0.396226 0.210440 0.853990
O O11 0.750000 0.500000 0.508346
O O12 0.697163 0.599857 0.344363
#
# Coordination Sequence:
#
# PCOD9507891 Si02
#       5
#    16  16  16  16  16
#     4  10  21  39  61  90 121 157 205 267 318 383
#     4  10  23  41  60  92 134 165 210 270 328 389
#     4   9  19  39  64  84 117 159 206 256 314 381
#     4  10  23  39  62  89 124 168 216 260 320 392
#     4   9  19  38  65  86 111 161 214 252 309 384
#
# _framework density 21.995895000000001
#
# number of rings (size 3 to 8) (size 9 to 14) (size 15 to 20)
#    0.000    2.400    0.000    0.600   11.200    3.200 
#    7.200    0.000    0.000    0.000    0.000    0.000 
#    0.000    0.000    0.000    0.000    0.000    0.000 
#
# Total GULP energy -222680.717213 kJ/mol
# GULP energy per Si atom -5567.017930 kJ/mol
# Density = 2.194583 g / cm^3
# Si number density = 21.995895 Si / 1000 Ang^3
#
#
#
# Elastic Constant Matrix: (Units=GPa)
#
#
# Indices 1 2 3 4 5 6 
#
# 1 52.3179 4.6985 -0.3620 0.0000 0.0000 0.0000
# 2 4.6985 76.5262 25.8006 0.0000 0.0000 0.0000
# 3 -0.3620 25.8006 143.8123 0.0000 0.0000 0.0000
# 4 0.0000 0.0000 0.0000 15.9521 0.0000 0.0000
# 5 0.0000 0.0000 0.0000 0.0000 -10.7701 0.0000
# 6 0.0000 0.0000 0.0000 0.0000 0.0000 14.6489
#
#
#
# Elastic Compliance Matrix: (Units=1/GPa)
#
#
# Indices 1 2 3 4 5 6 
#
# 1 0.019230 -0.001274 0.000277 0.000000 0.000000 0.000000
# 2 -0.001274 0.013993 -0.002514 0.000000 0.000000 0.000000
# 3 0.000277 -0.002514 0.007405 0.000000 0.000000 0.000000
# 4 0.000000 0.000000 0.000000 0.062688 0.000000 0.000000
# 5 0.000000 0.000000 0.000000 0.000000 -0.092850 0.000000
# 6 0.000000 0.000000 0.000000 0.000000 0.000000 0.068265
#
#
# Mechanical properties :
#
#
# Convention : Reuss Voigt Hill
#
# Bulk Modulus (GPa) = 29.75564 36.99228 33.37396
# Shear Modulus (GPa) = 51.57056 20.13414 35.85235
#
# Velocity S-wave (km/s) = 4.84731 3.02877 4.04165
# Velocity P-wave (km/s) = 6.69968 5.39311 6.08159
#
# Compressibility (1/GPa) = 0.03360707
#
# Stress axis : x y z
#
# Youngs Moduli (GPa) = 52.00141 71.46371 135.04088
#
# Poissons Ratio (x) = 0.09105 -0.03740
# Poissons Ratio (y) = 0.06625 0.33944
# Poissons Ratio (z) = -0.01440 0.17963
#
# Static dielectric constant tensor:
#      x y z
#    x 1.825860 0.000000 0.000000 
#    y 0.000000 1.990390 0.000000 
#    z 0.000000 0.000000 1.843490 
# 
# From -- ./inp_files/13221.got.cif
#   From: 2010.05.17/outbox.cif.g08.bks.cpg/sg68_7_cif.got.tgz:13221.got - 2010.06.03 18:57:09.
