data_PCOD9507147
_publ_section_title
;
Structure prediction by ZEFSAII (Michael W. Deem and Ramdas Pophale) SiO2 
 PCOD9507147
Probable space group: C C C A
;
_chemical_formula_sum "Si O2"
_cell_formula_units_Z 120
_cell_length_a 26.852505
_cell_length_b 14.084705
_cell_length_c 16.655924
_cell_angle_alpha 90.000000
_cell_angle_beta 90.000000
_cell_angle_gamma 90.000000
_cell_volume 6299.430544
_symmetry_space_group_name_H-M "C C C A"
_symmetry_group_IT_number 68
_space_group.IT_coordinate_system_code '2'
_symmetry_cell_setting 'orthorhombic'
loop_
_space_group_symop_operation_xyz
x,y,z
-x,1/2-y,z
x,1/2-y,1/2-z
-x,y,1/2-z
-x,-y,-z
x,1/2+y,-z
-x,1/2+y,1/2+z
x,-y,1/2+z
1/2+x,1/2+y,z
1/2-x,-y,z
1/2+x,-y,1/2-z
1/2-x,1/2+y,1/2-z
1/2-x,1/2-y,-z
1/2+x,y,-z
1/2-x,y,1/2+z
1/2+x,1/2-y,1/2+z
loop_
_atom_site_type_symbol
_atom_site_label
_atom_site_fract_x
_atom_site_fract_y
_atom_site_fract_z
Si Si1 0.389714 0.092785 0.627564
Si Si2 0.442574 0.278637 0.554985
Si Si3 0.694245 0.346035 0.200076
Si Si4 0.708866 0.119399 0.552337
Si Si5 0.945811 0.860768 0.723237
Si Si6 0.285295 0.161051 0.577992
Si Si7 0.750000 0.000000 0.694681
Si Si8 0.119104 0.400306 0.937498
O O1 0.414464 0.184686 0.586493
O O2 0.404229 0.091946 0.721270
O O3 0.330730 0.102439 0.613870
O O4 0.407926 0.997849 0.584491
O O5 0.500000 0.250000 0.544002
O O6 0.439297 0.355545 0.627964
O O7 0.416677 0.322920 0.477316
O O8 0.686359 0.250000 0.250000
O O9 0.740844 0.329453 0.140985
O O10 0.712489 0.434706 0.253854
O O11 0.647335 0.367100 0.143156
O O12 0.697636 0.231746 0.559878
O O13 0.759999 0.115328 0.500554
O O14 0.662974 0.078892 0.502011
O O15 0.718756 0.069809 0.636551
O O16 0.945436 0.750000 0.750000
O O17 0.000000 0.898195 0.750000
#
# Coordination Sequence:
#
# PCOD9507147 Si02
#       8
#    16  16  16  16  16  16   8  16
#     4  11  21  37  66  95 129 160 205 265 322 382
#     4  11  22  42  67  90 123 162 209 272 328 379
#     4  11  24  41  60  87 139 172 211 261 314 375
#     4  10  21  37  61  88 127 162 220 252 306 373
#     4   9  17  37  62  89 119 151 195 266 326 356
#     4  10  20  39  60  89 124 173 201 261 310 368
#     4  12  22  36  62  94 122 180 218 250 308 384
#     4  11  25  40  60  97 128 168 212 261 322 391
#
# _framework density 19.049340999999998
#
# number of rings (size 3 to 8) (size 9 to 14) (size 15 to 20)
#    0.000    1.467    5.333    1.600    0.000    7.467 
#    2.400    0.000    0.000    0.000    0.000    0.000 
#    0.000    0.000    0.000    0.000    0.000    0.000 
#
# Total GULP energy -335077.455171 kJ/mol
# GULP energy per Si atom -5584.624253 kJ/mol
# Density = 1.900598 g / cm^3
# Si number density = 19.049341 Si / 1000 Ang^3
#
#
#
# Elastic Constant Matrix: (Units=GPa)
#
#
# Indices 1 2 3 4 5 6 
#
# 1 76.2972 31.1610 47.4778 0.0000 0.0000 0.0000
# 2 31.1610 82.1747 55.1880 0.0000 0.0000 0.0000
# 3 47.4778 55.1880 124.5929 0.0000 0.0000 0.0000
# 4 0.0000 0.0000 0.0000 35.6839 0.0000 0.0000
# 5 0.0000 0.0000 0.0000 0.0000 22.0654 0.0000
# 6 0.0000 0.0000 0.0000 0.0000 0.0000 7.2784
#
#
#
# Elastic Compliance Matrix: (Units=1/GPa)
#
#
# Indices 1 2 3 4 5 6 
#
# 1 0.017722 -0.003110 -0.005376 0.000000 0.000000 0.000000
# 2 -0.003110 0.017868 -0.006729 0.000000 0.000000 0.000000
# 3 -0.005376 -0.006729 0.013055 0.000000 0.000000 0.000000
# 4 0.000000 0.000000 0.000000 0.028024 0.000000 0.000000
# 5 0.000000 0.000000 0.000000 0.000000 0.045320 0.000000
# 6 0.000000 0.000000 0.000000 0.000000 0.000000 0.137394
#
#
# Mechanical properties :
#
#
# Convention : Reuss Voigt Hill
#
# Bulk Modulus (GPa) = 54.89934 61.19091 58.04512
# Shear Modulus (GPa) = 16.89850 22.95474 19.92662
#
# Velocity S-wave (km/s) = 2.98164 3.47510 3.23778
# Velocity P-wave (km/s) = 6.38245 6.94937 6.67194
#
# Compressibility (1/GPa) = 0.01821516
#
# Stress axis : x y z
#
# Youngs Moduli (GPa) = 56.42727 55.96606 76.59679
#
# Poissons Ratio (x) = 0.17405 0.41176
# Poissons Ratio (y) = 0.17549 0.51545
# Poissons Ratio (z) = 0.30333 0.37662
#
# Static dielectric constant tensor:
#      x y z
#    x 1.668120 0.000000 0.000000 
#    y 0.000000 1.708050 0.000000 
#    z 0.000000 0.000000 1.677120 
# 
# From -- ./inp_files/26524.got.cif
#   From: 2010.05.17/outbox.cif.g08.bks.cpg/sg68_14_cif.got.tgz:26524.got - 2010.06.03 18:57:09.
