data_PCOD9507845
_publ_section_title
;
Structure prediction by ZEFSAII (Michael W. Deem and Ramdas Pophale) SiO2 
 PCOD9507845
Probable space group: C C C A
;
_chemical_formula_sum "Si O2"
_cell_formula_units_Z 104
_cell_length_a 9.465778
_cell_length_b 26.342605
_cell_length_c 18.965509
_cell_angle_alpha 90.000000
_cell_angle_beta 90.000000
_cell_angle_gamma 90.000000
_cell_volume 4729.111324
_symmetry_space_group_name_H-M "C C C A"
_symmetry_group_IT_number 68
_space_group.IT_coordinate_system_code '2'
_symmetry_cell_setting 'orthorhombic'
loop_
_space_group_symop_operation_xyz
x,y,z
-x,1/2-y,z
x,1/2-y,1/2-z
-x,y,1/2-z
-x,-y,-z
x,1/2+y,-z
-x,1/2+y,1/2+z
x,-y,1/2+z
1/2+x,1/2+y,z
1/2-x,-y,z
1/2+x,-y,1/2-z
1/2-x,1/2+y,1/2-z
1/2-x,1/2-y,-z
1/2+x,y,-z
1/2-x,y,1/2+z
1/2+x,1/2-y,1/2+z
loop_
_atom_site_type_symbol
_atom_site_label
_atom_site_fract_x
_atom_site_fract_y
_atom_site_fract_z
Si Si1 0.000000 0.831766 0.750000
Si Si2 0.049784 0.405757 0.134809
Si Si3 0.000000 0.250000 0.002802
Si Si4 0.140729 0.152461 0.044511
Si Si5 0.581740 0.991127 0.572952
Si Si6 0.763996 0.750000 0.750000
Si Si7 0.138008 0.620142 0.113117
Si Si8 0.617062 0.188240 0.374137
O O1 0.963584 0.870972 0.811540
O O2 0.128566 0.795142 0.772180
O O3 0.035833 0.466026 0.129423
O O4 0.212838 0.391835 0.148937
O O5 0.989078 0.384784 0.061187
O O6 0.094434 0.281009 0.947205
O O7 0.082729 0.209843 0.049892
O O8 0.269679 0.147124 0.098276
O O9 0.178787 0.142793 0.963548
O O10 0.500000 0.000000 0.500000
O O11 0.750000 0.000000 0.560455
O O12 0.564696 0.934185 0.600748
O O13 0.673582 0.725426 0.686590
O O14 0.028600 0.660112 0.146034
#
# Coordination Sequence:
#
# PCOD9507845 Si02
#       8
#     8  16   8  16  16   8  16  16
#     4  11  26  46  68  86 128 182 228 275 316 410
#     4  11  23  42  67  94 132 175 228 266 334 402
#     4  10  24  35  58  95 132 166 208 276 344 388
#     4  11  21  38  64  95 134 172 215 270 332 409
#     4  10  21  38  68 103 136 171 216 273 340 407
#     4  11  26  45  66  90 121 183 234 268 325 409
#     4  10  22  40  67 101 136 167 211 288 346 388
#     4  11  24  41  62  96 131 174 218 276 335 398
#
# _framework density 21.991447999999998
#
# number of rings (size 3 to 8) (size 9 to 14) (size 15 to 20)
#    0.000    1.385    3.077    2.308    8.615    0.308 
#    0.000    0.000   10.154    0.000    0.000    0.000 
#    0.000    0.000    0.000    0.000    0.000    0.000 
#
# Total GULP energy -290286.040555 kJ/mol
# GULP energy per Si atom -5582.423857 kJ/mol
# Density = 2.194139 g / cm^3
# Si number density = 21.991448 Si / 1000 Ang^3
#
#
#
# Elastic Constant Matrix: (Units=GPa)
#
#
# Indices 1 2 3 4 5 6 
#
# 1 71.9100 22.8879 13.2900 0.0000 0.0000 0.0000
# 2 22.8879 121.4609 13.7504 0.0000 0.0000 0.0000
# 3 13.2900 13.7504 40.6119 0.0000 0.0000 0.0000
# 4 0.0000 0.0000 0.0000 18.7411 0.0000 0.0000
# 5 0.0000 0.0000 0.0000 0.0000 22.9984 0.0000
# 6 0.0000 0.0000 0.0000 0.0000 0.0000 22.0692
#
#
#
# Elastic Compliance Matrix: (Units=1/GPa)
#
#
# Indices 1 2 3 4 5 6 
#
# 1 0.015464 -0.002434 -0.004236 0.000000 0.000000 0.000000
# 2 -0.002434 0.008945 -0.002232 0.000000 0.000000 0.000000
# 3 -0.004236 -0.002232 0.026765 0.000000 0.000000 0.000000
# 4 0.000000 0.000000 0.000000 0.053359 0.000000 0.000000
# 5 0.000000 0.000000 0.000000 0.000000 0.043481 0.000000
# 6 0.000000 0.000000 0.000000 0.000000 0.000000 0.045312
#
#
# Mechanical properties :
#
#
# Convention : Reuss Voigt Hill
#
# Bulk Modulus (GPa) = 29.96805 37.09324 33.53065
# Shear Modulus (GPa) = 22.49683 25.03205 23.76444
#
# Velocity S-wave (km/s) = 3.20188 3.37748 3.29085
# Velocity P-wave (km/s) = 5.22744 5.66688 5.45159
#
# Compressibility (1/GPa) = 0.03336887
#
# Stress axis : x y z
#
# Youngs Moduli (GPa) = 64.66613 111.80052 37.36187
#
# Poissons Ratio (x) = 0.27217 0.15827
# Poissons Ratio (y) = 0.15743 0.08338
# Poissons Ratio (z) = 0.27394 0.24951
#
# Static dielectric constant tensor:
#      x y z
#    x 1.977590 0.000000 0.000000 
#    y 0.000000 1.818660 0.000000 
#    z 0.000000 0.000000 1.937420 
# 
# From -- ./inp_files/36631.got.cif
#   From: 2010.05.17/outbox.cif.g08.bks.cpg/sg68_19_cif.got.tgz:36631.got - 2010.06.03 18:57:09.
