data_PCOD9507468
_publ_section_title
;
Structure prediction by ZEFSAII (Michael W. Deem and Ramdas Pophale) SiO2 
 PCOD9507468
Probable space group: C C C A
;
_chemical_formula_sum "Si O2"
_cell_formula_units_Z 80
_cell_length_a 25.130146
_cell_length_b 5.022629
_cell_length_c 29.437958
_cell_angle_alpha 90.000000
_cell_angle_beta 90.000000
_cell_angle_gamma 90.000000
_cell_volume 3715.641398
_symmetry_space_group_name_H-M "C C C A"
_symmetry_group_IT_number 68
_space_group.IT_coordinate_system_code '2'
_symmetry_cell_setting 'orthorhombic'
loop_
_space_group_symop_operation_xyz
x,y,z
-x,1/2-y,z
x,1/2-y,1/2-z
-x,y,1/2-z
-x,-y,-z
x,1/2+y,-z
-x,1/2+y,1/2+z
x,-y,1/2+z
1/2+x,1/2+y,z
1/2-x,-y,z
1/2+x,-y,1/2-z
1/2-x,1/2+y,1/2-z
1/2-x,1/2-y,-z
1/2+x,y,-z
1/2-x,y,1/2+z
1/2+x,1/2-y,1/2+z
loop_
_atom_site_type_symbol
_atom_site_label
_atom_site_fract_x
_atom_site_fract_y
_atom_site_fract_z
Si Si1 0.806677 0.592953 0.352419
Si Si2 0.940308 0.532123 0.480166
Si Si3 0.058396 0.707398 0.821967
Si Si4 0.082693 0.719263 0.119025
Si Si5 0.669064 0.908221 0.293983
O O1 0.750000 0.500000 0.371894
O O2 0.852727 0.718894 0.383446
O O3 0.825124 0.308805 0.333313
O O4 0.805339 0.813280 0.310764
O O5 0.913670 0.248822 0.487311
O O6 0.939827 0.628448 0.428954
O O7 0.000000 0.500000 0.500000
O O8 0.058610 0.497668 0.864069
O O9 0.104508 0.575632 0.790593
O O10 0.000000 0.750000 0.802028
O O11 0.071387 0.997404 0.842615
O O12 0.689963 0.750000 0.250000
#
# Coordination Sequence:
#
# PCOD9507468 Si02
#       5
#    16  16  16  16  16
#     4  10  21  38  59  81 106 148 192 232 290 338
#     4  10  21  32  50  80 111 145 176 228 286 336
#     4  10  21  33  55  78 110 157 186 220 276 349
#     4  10  21  36  53  79 114 145 188 233 276 341
#     4  10  21  37  55  84 115 141 186 242 285 336
#
# _framework density 21.530604
#
# number of rings (size 3 to 8) (size 9 to 14) (size 15 to 20)
#    0.000    2.000    0.000    3.000    8.400    2.000 
#    0.000    0.000    0.000    8.400    0.000    0.000 
#    0.000    0.000    0.000    0.000    0.000    0.000 
#
# Total GULP energy -222728.970412 kJ/mol
# GULP energy per Si atom -5568.224260 kJ/mol
# Density = 2.148160 g / cm^3
# Si number density = 21.530604 Si / 1000 Ang^3
#
#
#
# Elastic Constant Matrix: (Units=GPa)
#
#
# Indices 1 2 3 4 5 6 
#
# 1 104.1471 11.3701 17.9263 0.0000 0.0000 0.0000
# 2 11.3701 133.9634 -4.2585 0.0000 0.0000 0.0000
# 3 17.9263 -4.2585 50.8959 0.0000 0.0000 0.0000
# 4 0.0000 0.0000 0.0000 23.2828 0.0000 0.0000
# 5 0.0000 0.0000 0.0000 0.0000 12.4634 0.0000
# 6 0.0000 0.0000 0.0000 0.0000 0.0000 24.6309
#
#
#
# Elastic Compliance Matrix: (Units=1/GPa)
#
#
# Indices 1 2 3 4 5 6 
#
# 1 0.010353 -0.000997 -0.003730 0.000000 0.000000 0.000000
# 2 -0.000997 0.007581 0.000986 0.000000 0.000000 0.000000
# 3 -0.003730 0.000986 0.021044 0.000000 0.000000 0.000000
# 4 0.000000 0.000000 0.000000 0.042950 0.000000 0.000000
# 5 0.000000 0.000000 0.000000 0.000000 0.080235 0.000000
# 6 0.000000 0.000000 0.000000 0.000000 0.000000 0.040599
#
#
# Mechanical properties :
#
#
# Convention : Reuss Voigt Hill
#
# Bulk Modulus (GPa) = 31.75166 37.67579 34.71372
# Shear Modulus (GPa) = 22.65079 29.67333 26.16206
#
# Velocity S-wave (km/s) = 3.24702 3.71643 3.48962
# Velocity P-wave (km/s) = 5.36998 5.99604 5.69163
#
# Compressibility (1/GPa) = 0.03149442
#
# Stress axis : x y z
#
# Youngs Moduli (GPa) = 96.59346 131.91400 47.51929
#
# Poissons Ratio (x) = 0.13155 0.17724
# Poissons Ratio (y) = 0.09633 -0.04683
# Poissons Ratio (z) = 0.36027 -0.13000
#
# Static dielectric constant tensor:
#      x y z
#    x 1.960590 0.000000 0.000000 
#    y 0.000000 1.840420 0.000000 
#    z 0.000000 0.000000 1.792220 
# 
# From -- ./inp_files/53154.got.cif
#   From: 2010.05.17/outbox.cif.g08.bks.cpg/sg68_27_cif.got.tgz:53154.got - 2010.06.03 18:57:09.
