data_PCOD9507387
_publ_section_title
;
Structure prediction by ZEFSAII (Michael W. Deem and Ramdas Pophale) SiO2 
 PCOD9507387
Probable space group: C C C A
;
_chemical_formula_sum "Si O2"
_cell_formula_units_Z 80
_cell_length_a 13.455012
_cell_length_b 13.272865
_cell_length_c 21.998391
_cell_angle_alpha 90.000000
_cell_angle_beta 90.000000
_cell_angle_gamma 90.000000
_cell_volume 3928.616927
_symmetry_space_group_name_H-M "C C C A"
_symmetry_group_IT_number 68
_space_group.IT_coordinate_system_code '2'
_symmetry_cell_setting 'orthorhombic'
loop_
_space_group_symop_operation_xyz
x,y,z
-x,1/2-y,z
x,1/2-y,1/2-z
-x,y,1/2-z
-x,-y,-z
x,1/2+y,-z
-x,1/2+y,1/2+z
x,-y,1/2+z
1/2+x,1/2+y,z
1/2-x,-y,z
1/2+x,-y,1/2-z
1/2-x,1/2+y,1/2-z
1/2-x,1/2-y,-z
1/2+x,y,-z
1/2-x,y,1/2+z
1/2+x,1/2-y,1/2+z
loop_
_atom_site_type_symbol
_atom_site_label
_atom_site_fract_x
_atom_site_fract_y
_atom_site_fract_z
Si Si1 0.250000 0.000000 0.044814
Si Si2 0.570089 0.099489 0.004969
Si Si3 0.378907 0.916708 0.654898
Si Si4 0.500000 0.750000 0.403283
Si Si5 0.500000 0.750000 0.891951
Si Si6 0.750000 0.500000 0.758913
Si Si7 0.950364 0.582496 0.813059
O O1 0.183105 0.066423 0.000865
O O2 0.323268 0.056983 0.091732
O O3 0.556370 0.174129 0.947913
O O4 0.543856 0.163401 0.064343
O O5 0.500000 0.000000 0.000000
O O6 0.420189 0.805292 0.649048
O O7 0.302860 0.924724 0.710839
O O8 0.470024 0.996684 0.664701
O O9 0.558875 0.673957 0.359887
O O10 0.841450 0.540412 0.798318
O O11 0.000000 0.618738 0.750000
#
# Coordination Sequence:
#
# PCOD9507387 Si02
#       7
#     8  16  16   8   8   8  16
#     4  11  20  42  67  84 134 175 206 260 335 374
#     4  11  23  42  64  97 131 174 217 267 325 388
#     4  10  21  42  66  94 133 172 211 276 323 380
#     4  11  21  40  69  92 131 162 217 273 308 384
#     4  11  22  42  68  94 134 170 220 277 318 386
#     4   9  22  42  69  90 130 177 210 264 345 384
#     4  10  20  42  64  94 130 167 215 272 321 381
#
# _framework density 20.363401
#
# number of rings (size 3 to 8) (size 9 to 14) (size 15 to 20)
#    0.000    1.600    4.000    0.300    0.000    0.800 
#    3.600    8.500    0.000    0.000    0.000    0.000 
#    0.000    0.000    0.000    0.000    0.000    0.000 
#
# Total GULP energy -223232.926294 kJ/mol
# GULP energy per Si atom -5580.823157 kJ/mol
# Density = 2.031705 g / cm^3
# Si number density = 20.363401 Si / 1000 Ang^3
#
#
#
# Elastic Constant Matrix: (Units=GPa)
#
#
# Indices 1 2 3 4 5 6 
#
# 1 134.1244 47.1831 32.4225 0.0000 0.0000 0.0000
# 2 47.1831 97.9661 24.7518 0.0000 0.0000 0.0000
# 3 32.4225 24.7518 53.3850 0.0000 0.0000 0.0000
# 4 0.0000 0.0000 0.0000 64.7027 0.0000 0.0000
# 5 0.0000 0.0000 0.0000 0.0000 -6.1361 0.0000
# 6 0.0000 0.0000 0.0000 0.0000 0.0000 33.1379
#
#
#
# Elastic Compliance Matrix: (Units=1/GPa)
#
#
# Indices 1 2 3 4 5 6 
#
# 1 0.009758 -0.003627 -0.004245 0.000000 0.000000 0.000000
# 2 -0.003627 0.012910 -0.003783 0.000000 0.000000 0.000000
# 3 -0.004245 -0.003783 0.023064 0.000000 0.000000 0.000000
# 4 0.000000 0.000000 0.000000 0.015455 0.000000 0.000000
# 5 0.000000 0.000000 0.000000 0.000000 -0.162969 0.000000
# 6 0.000000 0.000000 0.000000 0.000000 0.000000 0.030177
#
#
# Mechanical properties :
#
#
# Convention : Reuss Voigt Hill
#
# Bulk Modulus (GPa) = 44.59800 54.91003 49.75401
# Shear Modulus (GPa) = -122.48522 30.41543 -46.03489
#
# Velocity S-wave (km/s) = -7.76404 3.86895 -4.75981
# Velocity P-wave (km/s) = 7.64363 6.85434 2.39198
#
# Compressibility (1/GPa) = 0.02242253
#
# Stress axis : x y z
#
# Youngs Moduli (GPa) = 102.48194 77.45721 43.35829
#
# Poissons Ratio (x) = 0.28095 0.18403
# Poissons Ratio (y) = 0.37172 0.16402
# Poissons Ratio (z) = 0.43499 0.29301
#
# Static dielectric constant tensor:
#      x y z
#    x 1.787860 0.000000 0.000000 
#    y 0.000000 1.904360 0.000000 
#    z 0.000000 0.000000 1.746220 
# 
# From -- ./inp_files/44186.got.cif
#   From: 2010.05.17/outbox.cif.g08.bks.cpg/sg68_23_cif.got.tgz:44186.got - 2010.06.03 18:57:09.
