data_PCOD9507838
_publ_section_title
;
Structure prediction by ZEFSAII (Michael W. Deem and Ramdas Pophale) SiO2 
 PCOD9507838
Probable space group: C C C A
;
_chemical_formula_sum "Si O2"
_cell_formula_units_Z 72
_cell_length_a 15.366379
_cell_length_b 8.739249
_cell_length_c 23.767974
_cell_angle_alpha 90.000000
_cell_angle_beta 90.000000
_cell_angle_gamma 90.000000
_cell_volume 3191.815782
_symmetry_space_group_name_H-M "C C C A"
_symmetry_group_IT_number 68
_space_group.IT_coordinate_system_code '2'
_symmetry_cell_setting 'orthorhombic'
loop_
_space_group_symop_operation_xyz
x,y,z
-x,1/2-y,z
x,1/2-y,1/2-z
-x,y,1/2-z
-x,-y,-z
x,1/2+y,-z
-x,1/2+y,1/2+z
x,-y,1/2+z
1/2+x,1/2+y,z
1/2-x,-y,z
1/2+x,-y,1/2-z
1/2-x,1/2+y,1/2-z
1/2-x,1/2-y,-z
1/2+x,y,-z
1/2-x,y,1/2+z
1/2+x,1/2-y,1/2+z
loop_
_atom_site_type_symbol
_atom_site_label
_atom_site_fract_x
_atom_site_fract_y
_atom_site_fract_z
Si Si1 0.750000 0.000000 0.824000
Si Si2 0.340473 0.750000 0.750000
Si Si3 0.250000 0.500000 0.016511
Si Si4 0.000000 0.750000 0.066026
Si Si5 0.368595 0.247130 0.536331
Si Si6 0.939285 0.046658 0.369516
Si Si7 0.500000 0.515503 0.750000
O O1 0.726622 0.846575 0.788674
O O2 0.838038 0.989500 0.858820
O O3 0.413587 0.618567 0.735104
O O4 0.323126 0.592269 0.050816
O O5 0.295052 0.376465 0.977133
O O6 0.990016 0.598842 0.103999
O O7 0.080364 0.759639 0.022661
O O8 0.428021 0.177352 0.584386
O O9 0.977510 0.073435 0.307295
#
# Coordination Sequence:
#
# PCOD9507838 Si02
#       7
#     8   8   8   8  16  16   8
#     4  10  21  38  67  92 124 179 222 287 340 412
#     4   9  18  40  66  93 124 166 238 281 346 410
#     4  10  23  42  67  96 152 173 236 277 362 406
#     4  12  24  39  70 101 140 180 230 282 358 422
#     4  11  23  43  65 104 137 186 221 294 342 435
#     4  11  22  40  69  98 137 178 236 284 353 424
#     4   9  20  42  68  96 122 184 230 284 342 430
#
# _framework density 22.557694000000001
#
# number of rings (size 3 to 8) (size 9 to 14) (size 15 to 20)
#    0.000    1.556    2.222    4.000    3.111    0.000 
#    0.000    5.556    0.000   12.000    0.000    0.000 
#    0.000    0.000    0.000    0.000    0.000    0.000 
#
# Total GULP energy -200592.280528 kJ/mol
# GULP energy per Si atom -5572.007792 kJ/mol
# Density = 2.250635 g / cm^3
# Si number density = 22.557694 Si / 1000 Ang^3
#
#
#
# Elastic Constant Matrix: (Units=GPa)
#
#
# Indices 1 2 3 4 5 6 
#
# 1 83.9867 52.2516 28.5414 0.0000 0.0000 0.0000
# 2 52.2516 132.8635 66.1538 0.0000 0.0000 0.0000
# 3 28.5414 66.1538 150.3417 0.0000 0.0000 0.0000
# 4 0.0000 0.0000 0.0000 19.5834 0.0000 0.0000
# 5 0.0000 0.0000 0.0000 0.0000 372.4300 0.0000
# 6 0.0000 0.0000 0.0000 0.0000 0.0000 42.3983
#
#
#
# Elastic Compliance Matrix: (Units=1/GPa)
#
#
# Indices 1 2 3 4 5 6 
#
# 1 0.015777 -0.006036 -0.000339 0.000000 0.000000 0.000000
# 2 -0.006036 0.011947 -0.004111 0.000000 0.000000 0.000000
# 3 -0.000339 -0.004111 0.008525 0.000000 0.000000 0.000000
# 4 0.000000 0.000000 0.000000 0.051064 0.000000 0.000000
# 5 0.000000 0.000000 0.000000 0.000000 0.002685 0.000000
# 6 0.000000 0.000000 0.000000 0.000000 0.000000 0.023586
#
#
# Mechanical properties :
#
#
# Convention : Reuss Voigt Hill
#
# Bulk Modulus (GPa) = 65.45910 73.45395 69.45653
# Shear Modulus (GPa) = 35.80418 101.56534 68.68476
#
# Velocity S-wave (km/s) = 3.98832 6.71732 5.52400
# Velocity P-wave (km/s) = 7.09158 9.63310 8.45834
#
# Compressibility (1/GPa) = 0.01527671
#
# Stress axis : x y z
#
# Youngs Moduli (GPa) = 63.38322 83.70154 117.30270
#
# Poissons Ratio (x) = 0.50520 0.03980
# Poissons Ratio (y) = 0.38256 0.48225
# Poissons Ratio (z) = 0.02151 0.34411
#
# Static dielectric constant tensor:
#      x y z
#    x 2.009440 0.000000 0.000000 
#    y 0.000000 1.951000 0.000000 
#    z 0.000000 0.000000 1.850700 
# 
# From -- ./inp_files/45928.got.cif
#   From: 2010.05.17/outbox.cif.g08.bks.cpg/sg68_23_cif.got.tgz:45928.got - 2010.06.03 18:57:09.
