data_PCOD9507160
_publ_section_title
;
Structure prediction by ZEFSAII (Michael W. Deem and Ramdas Pophale) SiO2 
 PCOD9507160
Probable space group: C C C A
;
_chemical_formula_sum "Si O2"
_cell_formula_units_Z 120
_cell_length_a 24.084387
_cell_length_b 11.396678
_cell_length_c 23.332392
_cell_angle_alpha 90.000000
_cell_angle_beta 90.000000
_cell_angle_gamma 90.000000
_cell_volume 6404.321702
_symmetry_space_group_name_H-M "C C C A"
_symmetry_group_IT_number 68
_space_group.IT_coordinate_system_code '2'
_symmetry_cell_setting 'orthorhombic'
loop_
_space_group_symop_operation_xyz
x,y,z
-x,1/2-y,z
x,1/2-y,1/2-z
-x,y,1/2-z
-x,-y,-z
x,1/2+y,-z
-x,1/2+y,1/2+z
x,-y,1/2+z
1/2+x,1/2+y,z
1/2-x,-y,z
1/2+x,-y,1/2-z
1/2-x,1/2+y,1/2-z
1/2-x,1/2-y,-z
1/2+x,y,-z
1/2-x,y,1/2+z
1/2+x,1/2-y,1/2+z
loop_
_atom_site_type_symbol
_atom_site_label
_atom_site_fract_x
_atom_site_fract_y
_atom_site_fract_z
Si Si1 0.444391 0.827806 0.540952
Si Si2 0.359710 0.750000 0.750000
Si Si3 0.504522 0.998231 0.870116
Si Si4 0.189906 0.493237 0.262018
Si Si5 0.904957 0.325742 0.861992
Si Si6 0.408574 0.324666 0.589613
Si Si7 0.084916 0.154150 0.196953
Si Si8 0.188504 0.473999 0.131604
O O1 0.500000 0.750000 0.536114
O O2 0.405510 0.756382 0.583503
O O3 0.418328 0.823169 0.478206
O O4 0.459955 0.948700 0.575100
O O5 0.326434 0.628780 0.752477
O O6 0.396156 0.749561 0.806317
O O7 0.459977 0.094327 0.890295
O O8 0.538261 0.055046 0.817186
O O9 0.463534 0.891521 0.854501
O O10 0.250000 0.500000 0.291358
O O11 0.141478 0.416948 0.290394
O O12 0.196259 0.438492 0.198243
O O13 0.854000 0.416267 0.867899
O O14 0.412085 0.218541 0.635115
O O15 0.347555 0.377378 0.599713
O O16 0.075520 0.250000 0.250000
O O17 0.250000 0.500000 0.108780
#
# Coordination Sequence:
#
# PCOD9507160 Si02
#       8
#    16   8  16  16  16  16  16  16
#     4  10  20  39  62  85 117 166 221 250 305 392
#     4  10  20  40  61  88 118 158 217 256 326 368
#     4  10  22  39  57  86 126 170 203 256 314 393
#     4  10  22  39  64  88 121 168 212 264 313 389
#     4   9  20  38  60  86 116 159 207 257 304 375
#     4  11  22  38  60  88 123 169 203 263 322 380
#     4  12  24  39  58  99 134 160 209 268 342 376
#     4   9  19  38  59  81 112 160 209 251 314 380
#
# _framework density 18.737347
#
# number of rings (size 3 to 8) (size 9 to 14) (size 15 to 20)
#    0.000    1.867    1.333    2.400    0.933    4.267 
#    2.400    6.333    0.000    4.000    0.000    0.000 
#    0.000    0.000    0.000    0.000    0.000    0.000 
#
# Total GULP energy -334068.972183 kJ/mol
# GULP energy per Si atom -5567.816203 kJ/mol
# Density = 1.869470 g / cm^3
# Si number density = 18.737347 Si / 1000 Ang^3
#
#
#
# Elastic Constant Matrix: (Units=GPa)
#
#
# Indices 1 2 3 4 5 6 
#
# 1 108.6916 32.5068 46.8374 0.0000 0.0000 0.0000
# 2 32.5068 66.1950 23.5688 0.0000 0.0000 0.0000
# 3 46.8374 23.5688 81.3559 0.0000 0.0000 0.0000
# 4 0.0000 0.0000 0.0000 15.9015 0.0000 0.0000
# 5 0.0000 0.0000 0.0000 0.0000 38.6805 0.0000
# 6 0.0000 0.0000 0.0000 0.0000 0.0000 6.6953
#
#
#
# Elastic Compliance Matrix: (Units=1/GPa)
#
#
# Indices 1 2 3 4 5 6 
#
# 1 0.013213 -0.004215 -0.006386 0.000000 0.000000 0.000000
# 2 -0.004215 0.018189 -0.002843 0.000000 0.000000 0.000000
# 3 -0.006386 -0.002843 0.016791 0.000000 0.000000 0.000000
# 4 0.000000 0.000000 0.000000 0.062887 0.000000 0.000000
# 5 0.000000 0.000000 0.000000 0.000000 0.025853 0.000000
# 6 0.000000 0.000000 0.000000 0.000000 0.000000 0.149359
#
#
# Mechanical properties :
#
#
# Convention : Reuss Voigt Hill
#
# Bulk Modulus (GPa) = 46.93396 51.34093 49.13744
# Shear Modulus (GPa) = 15.61132 22.47741 19.04437
#
# Velocity S-wave (km/s) = 2.88959 3.46729 3.19154
# Velocity P-wave (km/s) = 6.01961 6.59464 6.31367
#
# Compressibility (1/GPa) = 0.02130653
#
# Stress axis : x y z
#
# Youngs Moduli (GPa) = 75.68571 54.97873 59.55403
#
# Poissons Ratio (x) = 0.23172 0.38029
# Poissons Ratio (y) = 0.31900 0.16930
# Poissons Ratio (z) = 0.48330 0.15629
#
# Static dielectric constant tensor:
#      x y z
#    x 1.666060 0.000000 0.000000 
#    y 0.000000 1.864000 0.000000 
#    z 0.000000 0.000000 1.665470 
# 
# From -- ./inp_files/40944.got.cif
#   From: 2010.05.17/outbox.cif.g08.bks.cpg/sg68_21_cif.got.tgz:40944.got - 2010.06.03 18:57:09.
