data_PCOD9507344
_publ_section_title
;
Structure prediction by ZEFSAII (Michael W. Deem and Ramdas Pophale) SiO2 
 PCOD9507344
Probable space group: C C C A
;
_chemical_formula_sum "Si O2"
_cell_formula_units_Z 80
_cell_length_a 25.788351
_cell_length_b 10.734411
_cell_length_c 13.591696
_cell_angle_alpha 90.000000
_cell_angle_beta 90.000000
_cell_angle_gamma 90.000000
_cell_volume 3762.490781
_symmetry_space_group_name_H-M "C C C A"
_symmetry_group_IT_number 68
_space_group.IT_coordinate_system_code '2'
_symmetry_cell_setting 'orthorhombic'
loop_
_space_group_symop_operation_xyz
x,y,z
-x,1/2-y,z
x,1/2-y,1/2-z
-x,y,1/2-z
-x,-y,-z
x,1/2+y,-z
-x,1/2+y,1/2+z
x,-y,1/2+z
1/2+x,1/2+y,z
1/2-x,-y,z
1/2+x,-y,1/2-z
1/2-x,1/2+y,1/2-z
1/2-x,1/2-y,-z
1/2+x,y,-z
1/2-x,y,1/2+z
1/2+x,1/2-y,1/2+z
loop_
_atom_site_type_symbol
_atom_site_label
_atom_site_fract_x
_atom_site_fract_y
_atom_site_fract_z
Si Si1 0.085608 0.533929 0.510780
Si Si2 0.506277 0.103666 0.138895
Si Si3 0.828467 0.023435 0.847724
Si Si4 0.254448 0.788174 0.112581
Si Si5 0.149998 0.359824 0.179184
O O1 0.059813 0.435655 0.586155
O O2 0.129963 0.502526 0.433037
O O3 0.114438 0.631942 0.583117
O O4 0.038782 0.569776 0.438412
O O5 0.500000 0.250000 0.149053
O O6 0.500000 0.048631 0.250000
O O7 0.801208 0.158928 0.851683
O O8 0.788954 0.910885 0.871052
O O9 0.849994 0.987993 0.740379
O O10 0.289583 0.677041 0.157786
O O11 0.250000 0.750000 0.000000
O O12 0.130061 0.250000 0.250000
#
# Coordination Sequence:
#
# PCOD9507344 Si02
#       5
#    16  16  16  16  16
#     4  11  22  42  70  94 131 174 214 279 329 397
#     4  10  24  43  67  97 133 164 216 273 342 401
#     4  10  22  39  64  93 132 171 226 267 323 397
#     4  10  20  41  60  91 131 172 214 273 318 386
#     4  10  22  40  65  97 133 172 231 271 327 398
#
# _framework density 21.262509999999999
#
# number of rings (size 3 to 8) (size 9 to 14) (size 15 to 20)
#    0.000    1.800    2.000    1.200    5.600    0.000 
#   18.000    0.000   22.000    0.000    0.000    0.000 
#    0.000    0.000    0.000    0.000    0.000    0.000 
#
# Total GULP energy -222709.372005 kJ/mol
# GULP energy per Si atom -5567.734300 kJ/mol
# Density = 2.121412 g / cm^3
# Si number density = 21.262510 Si / 1000 Ang^3
#
#
#
# Elastic Constant Matrix: (Units=GPa)
#
#
# Indices 1 2 3 4 5 6 
#
# 1 99.5006 28.3265 64.3087 0.0000 0.0000 0.0000
# 2 28.3265 49.8018 46.0164 0.0000 0.0000 0.0000
# 3 64.3087 46.0164 170.4907 0.0000 0.0000 0.0000
# 4 0.0000 0.0000 0.0000 39.2400 0.0000 0.0000
# 5 0.0000 0.0000 0.0000 0.0000 49.8159 0.0000
# 6 0.0000 0.0000 0.0000 0.0000 0.0000 2.4766
#
#
#
# Elastic Compliance Matrix: (Units=1/GPa)
#
#
# Indices 1 2 3 4 5 6 
#
# 1 0.013884 -0.004074 -0.004137 0.000000 0.000000 0.000000
# 2 -0.004074 0.027947 -0.006006 0.000000 0.000000 0.000000
# 3 -0.004137 -0.006006 0.009047 0.000000 0.000000 0.000000
# 4 0.000000 0.000000 0.000000 0.025484 0.000000 0.000000
# 5 0.000000 0.000000 0.000000 0.000000 0.020074 0.000000
# 6 0.000000 0.000000 0.000000 0.000000 0.000000 0.403774
#
#
# Mechanical properties :
#
#
# Convention : Reuss Voigt Hill
#
# Bulk Modulus (GPa) = 44.55864 66.34404 55.45134
# Shear Modulus (GPa) = 9.32616 30.38261 19.85438
#
# Velocity S-wave (km/s) = 2.09660 3.78422 3.05909
# Velocity P-wave (km/s) = 5.18294 7.09675 6.21397
#
# Compressibility (1/GPa) = 0.02244234
#
# Stress axis : x y z
#
# Youngs Moduli (GPa) = 72.02472 35.78265 110.53208
#
# Poissons Ratio (x) = 0.14578 0.45732
# Poissons Ratio (y) = 0.29344 0.66387
# Poissons Ratio (z) = 0.29800 0.21492
#
# Static dielectric constant tensor:
#      x y z
#    x 1.854810 0.000000 0.000000 
#    y 0.000000 1.776110 0.000000 
#    z 0.000000 0.000000 1.848790 
# 
# From -- ./inp_files/25180.got.cif
#   From: 2010.05.17/outbox.cif.g08.bks.cpg/sg68_13_cif.got.tgz:25180.got - 2010.06.03 18:57:09.
