data_PCOD9507706
_publ_section_title
;
Structure prediction by ZEFSAII (Michael W. Deem and Ramdas Pophale) SiO2 
 PCOD9507706
Probable space group: C C C A
;
_chemical_formula_sum "Si O2"
_cell_formula_units_Z 68
_cell_length_a 18.717712
_cell_length_b 17.735345
_cell_length_c 9.558167
_cell_angle_alpha 90.000000
_cell_angle_beta 90.000000
_cell_angle_gamma 90.000000
_cell_volume 3172.977672
_symmetry_space_group_name_H-M "C C C A"
_symmetry_group_IT_number 68
_space_group.IT_coordinate_system_code '2'
_symmetry_cell_setting 'orthorhombic'
loop_
_space_group_symop_operation_xyz
x,y,z
-x,1/2-y,z
x,1/2-y,1/2-z
-x,y,1/2-z
-x,-y,-z
x,1/2+y,-z
-x,1/2+y,1/2+z
x,-y,1/2+z
1/2+x,1/2+y,z
1/2-x,-y,z
1/2+x,-y,1/2-z
1/2-x,1/2+y,1/2-z
1/2-x,1/2-y,-z
1/2+x,y,-z
1/2-x,y,1/2+z
1/2+x,1/2-y,1/2+z
loop_
_atom_site_type_symbol
_atom_site_label
_atom_site_fract_x
_atom_site_fract_y
_atom_site_fract_z
Si Si1 0.390124 0.323293 0.537865
Si Si2 0.224053 0.341494 0.251483
Si Si3 0.496283 0.074172 0.409020
Si Si4 0.846322 0.842517 0.048184
Si Si5 0.000000 0.750000 0.750000
O O1 0.330942 0.365781 0.629612
O O2 0.434770 0.373679 0.433602
O O3 0.357677 0.248257 0.466346
O O4 0.448384 0.297307 0.651851
O O5 0.219360 0.250000 0.250000
O O6 0.197413 0.364679 0.405882
O O7 0.301051 0.361046 0.187462
O O8 0.500000 0.050437 0.250000
O O9 0.423970 0.119821 0.445541
O O10 0.500000 0.000000 0.500000
#
# Coordination Sequence:
#
# PCOD9507706 Si02
#       5
#    16  16  16  16   4
#     4  11  20  40  70 102 134 178 228 284 346 404
#     4  10  21  37  70 103 141 172 212 281 344 415
#     4  12  30  46  70  96 137 186 239 290 335 407
#     4  11  23  42  71 105 139 172 224 283 346 412
#     4  12  16  36  70 100 136 184 214 284 344 416
#
# _framework density 21.430973999999999
#
# number of rings (size 3 to 8) (size 9 to 14) (size 15 to 20)
#    0.000    0.941    5.882    2.824   11.529    0.941 
#    0.000    1.176    0.000    0.000    0.000    0.000 
#    0.000    0.000    0.000    0.000    0.000    0.000 
#
# Total GULP energy -190059.150854 kJ/mol
# GULP energy per Si atom -5589.975025 kJ/mol
# Density = 2.138220 g / cm^3
# Si number density = 21.430974 Si / 1000 Ang^3
#
#
#
# Elastic Constant Matrix: (Units=GPa)
#
#
# Indices 1 2 3 4 5 6 
#
# 1 126.3541 24.6624 57.5661 0.0000 0.0000 0.0000
# 2 24.6624 40.8937 44.1409 0.0000 0.0000 0.0000
# 3 57.5661 44.1409 147.8389 0.0000 0.0000 0.0000
# 4 0.0000 0.0000 0.0000 22.3837 0.0000 0.0000
# 5 0.0000 0.0000 0.0000 0.0000 48.3207 0.0000
# 6 0.0000 0.0000 0.0000 0.0000 0.0000 -1.0016
#
#
#
# Elastic Compliance Matrix: (Units=1/GPa)
#
#
# Indices 1 2 3 4 5 6 
#
# 1 0.009811 -0.002646 -0.003030 0.000000 0.000000 0.000000
# 2 -0.002646 0.036796 -0.009956 0.000000 0.000000 0.000000
# 3 -0.003030 -0.009956 0.010917 0.000000 0.000000 0.000000
# 4 0.000000 0.000000 0.000000 0.044675 0.000000 0.000000
# 5 0.000000 0.000000 0.000000 0.000000 0.020695 0.000000
# 6 0.000000 0.000000 0.000000 0.000000 0.000000 -0.998357
#
#
# Mechanical properties :
#
#
# Convention : Reuss Voigt Hill
#
# Bulk Modulus (GPa) = 38.08194 63.09171 50.58682
# Shear Modulus (GPa) = -5.98484 26.52172 10.26844
#
# Velocity S-wave (km/s) = -1.67292 3.52169 2.19130
# Velocity P-wave (km/s) = 3.75188 6.78526 5.48253
#
# Compressibility (1/GPa) = 0.02625917
#
# Stress axis : x y z
#
# Youngs Moduli (GPa) = 101.92291 27.17686 91.60306
#
# Poissons Ratio (x) = 0.07191 0.27759
# Poissons Ratio (y) = 0.26970 0.91200
# Poissons Ratio (z) = 0.30886 0.27057
#
# Static dielectric constant tensor:
#      x y z
#    x 1.715810 0.000000 0.000000 
#    y 0.000000 1.727210 0.000000 
#    z 0.000000 0.000000 1.805680 
# 
# From -- ./inp_files/5921.got.cif
#   From: 2010.05.17/outbox.cif.g08.bks.cpg/sg68_3_cif.got.tgz:5921.got - 2010.06.03 18:57:09.
