data_PCOD9507355
_publ_section_title
;
Structure prediction by ZEFSAII (Michael W. Deem and Ramdas Pophale) SiO2 
 PCOD9507355
Probable space group: C C C A
;
_chemical_formula_sum "Si O2"
_cell_formula_units_Z 116
_cell_length_a 24.446879
_cell_length_b 10.004424
_cell_length_c 26.010041
_cell_angle_alpha 90.000000
_cell_angle_beta 90.000000
_cell_angle_gamma 90.000000
_cell_volume 6361.456315
_symmetry_space_group_name_H-M "C C C A"
_symmetry_group_IT_number 68
_space_group.IT_coordinate_system_code '2'
_symmetry_cell_setting 'orthorhombic'
loop_
_space_group_symop_operation_xyz
x,y,z
-x,1/2-y,z
x,1/2-y,1/2-z
-x,y,1/2-z
-x,-y,-z
x,1/2+y,-z
-x,1/2+y,1/2+z
x,-y,1/2+z
1/2+x,1/2+y,z
1/2-x,-y,z
1/2+x,-y,1/2-z
1/2-x,1/2+y,1/2-z
1/2-x,1/2-y,-z
1/2+x,y,-z
1/2-x,y,1/2+z
1/2+x,1/2-y,1/2+z
loop_
_atom_site_type_symbol
_atom_site_label
_atom_site_fract_x
_atom_site_fract_y
_atom_site_fract_z
Si Si1 0.188148 0.036401 0.471092
Si Si2 0.363083 0.130222 0.214031
Si Si3 0.000000 0.750000 0.750000
Si Si4 0.411372 0.054157 0.800708
Si Si5 0.854548 0.247861 0.549457
Si Si6 0.938033 0.792589 0.135636
Si Si7 0.204432 0.386465 0.148400
Si Si8 0.274052 0.633539 0.866037
O O1 0.157044 0.143174 0.506041
O O2 0.192708 0.086213 0.412094
O O3 0.250000 0.000000 0.487681
O O4 0.156813 0.897317 0.472648
O O5 0.341600 0.250000 0.250000
O O6 0.405923 0.199988 0.176064
O O7 0.313105 0.081640 0.179546
O O8 0.394001 0.023781 0.248817
O O9 0.040930 0.841648 0.785026
O O10 0.353257 0.107187 0.822245
O O11 0.430643 0.943283 0.842667
O O12 0.910902 0.236929 0.580504
O O13 0.810080 0.282385 0.593677
O O14 0.000000 0.750000 0.135460
O O15 0.250000 0.500000 0.164041
O O16 0.230592 0.240467 0.154084
O O17 0.250000 0.500000 0.890752
#
# Coordination Sequence:
#
# PCOD9507355 Si02
#       8
#    16  16   4  16  16  16  16  16
#     4  11  21  37  64  90 123 162 199 249 320 387
#     4   9  20  37  61  88 115 157 204 252 303 373
#     4  12  28  40  62  92 124 180 224 244 312 372
#     4  11  23  43  62  90 130 166 217 261 311 379
#     4  11  22  39  59  92 120 160 206 254 311 386
#     4  10  20  41  66  84 117 159 210 265 310 355
#     4  11  21  41  64  90 133 167 198 265 332 372
#     4  11  23  35  55  93 128 157 201 247 313 383
#
# _framework density 18.234819000000002
#
# number of rings (size 3 to 8) (size 9 to 14) (size 15 to 20)
#    0.000    1.379    4.138    3.310    3.862    3.586 
#    0.000    0.690    1.517    0.000    0.000    0.000 
#    0.000    0.000    0.000    0.000    0.000    0.000 
#
# Total GULP energy -323627.336764 kJ/mol
# GULP energy per Si atom -5579.781668 kJ/mol
# Density = 1.819332 g / cm^3
# Si number density = 18.234819 Si / 1000 Ang^3
#
#
#
# Elastic Constant Matrix: (Units=GPa)
#
#
# Indices 1 2 3 4 5 6 
#
# 1 107.0908 55.6023 32.3833 0.0000 0.0000 0.0000
# 2 55.6023 94.7091 25.0302 0.0000 0.0000 0.0000
# 3 32.3833 25.0302 63.2705 0.0000 0.0000 0.0000
# 4 0.0000 0.0000 0.0000 14.2105 0.0000 0.0000
# 5 0.0000 0.0000 0.0000 0.0000 27.1095 0.0000
# 6 0.0000 0.0000 0.0000 0.0000 0.0000 25.9940
#
#
#
# Elastic Compliance Matrix: (Units=1/GPa)
#
#
# Indices 1 2 3 4 5 6 
#
# 1 0.014509 -0.007321 -0.004530 0.000000 0.000000 0.000000
# 2 -0.007321 0.015485 -0.002379 0.000000 0.000000 0.000000
# 3 -0.004530 -0.002379 0.019065 0.000000 0.000000 0.000000
# 4 0.000000 0.000000 0.000000 0.070371 0.000000 0.000000
# 5 0.000000 0.000000 0.000000 0.000000 0.036887 0.000000
# 6 0.000000 0.000000 0.000000 0.000000 0.000000 0.038470
#
#
# Mechanical properties :
#
#
# Convention : Reuss Voigt Hill
#
# Bulk Modulus (GPa) = 48.54486 54.56691 51.55588
# Shear Modulus (GPa) = 21.72849 23.59977 22.66413
#
# Velocity S-wave (km/s) = 3.45569 3.60142 3.52931
# Velocity P-wave (km/s) = 6.52704 6.87628 6.70393
#
# Compressibility (1/GPa) = 0.02059950
#
# Stress axis : x y z
#
# Youngs Moduli (GPa) = 68.92499 64.57754 52.45274
#
# Poissons Ratio (x) = 0.47275 0.23760
# Poissons Ratio (y) = 0.50457 0.12480
# Poissons Ratio (z) = 0.31221 0.15364
#
# Static dielectric constant tensor:
#      x y z
#    x 1.601930 0.000000 0.000000 
#    y 0.000000 1.629360 0.000000 
#    z 0.000000 0.000000 1.647070 
# 
# From -- ./inp_files/43535.got.cif
#   From: 2010.05.17/outbox.cif.g08.bks.cpg/sg68_22_cif.got.tgz:43535.got - 2010.06.03 18:57:09.
