data_PCOD9507707
_publ_section_title
;
Structure prediction by ZEFSAII (Michael W. Deem and Ramdas Pophale) SiO2 
 PCOD9507707
Probable space group: C C C A
;
_chemical_formula_sum "Si O2"
_cell_formula_units_Z 88
_cell_length_a 28.853923
_cell_length_b 8.599845
_cell_length_c 16.379257
_cell_angle_alpha 90.000000
_cell_angle_beta 90.000000
_cell_angle_gamma 90.000000
_cell_volume 4064.336800
_symmetry_space_group_name_H-M "C C C A"
_symmetry_group_IT_number 68
_space_group.IT_coordinate_system_code '2'
_symmetry_cell_setting 'orthorhombic'
loop_
_space_group_symop_operation_xyz
x,y,z
-x,1/2-y,z
x,1/2-y,1/2-z
-x,y,1/2-z
-x,-y,-z
x,1/2+y,-z
-x,1/2+y,1/2+z
x,-y,1/2+z
1/2+x,1/2+y,z
1/2-x,-y,z
1/2+x,-y,1/2-z
1/2-x,1/2+y,1/2-z
1/2-x,1/2-y,-z
1/2+x,y,-z
1/2-x,y,1/2+z
1/2+x,1/2-y,1/2+z
loop_
_atom_site_type_symbol
_atom_site_label
_atom_site_fract_x
_atom_site_fract_y
_atom_site_fract_z
Si Si1 0.451680 0.814223 0.110391
Si Si2 0.202195 0.438670 0.190963
Si Si3 0.147358 0.619871 0.055846
Si Si4 0.916962 0.887609 0.468192
Si Si5 0.223140 0.339790 0.428047
Si Si6 0.122146 0.250000 0.250000
O O1 0.500000 0.750000 0.144797
O O2 0.410411 0.767445 0.171469
O O3 0.445454 0.997315 0.090176
O O4 0.446478 0.729954 0.022771
O O5 0.250000 0.500000 0.228709
O O6 0.183782 0.558751 0.122158
O O7 0.216514 0.278647 0.145713
O O8 0.156983 0.397004 0.243079
O O9 0.122153 0.781760 0.075660
O O10 0.108958 0.491400 0.036634
O O11 0.173377 0.632490 0.969062
O O12 0.250000 0.500000 0.412416
O O13 0.250000 0.250000 0.500000
#
# Coordination Sequence:
#
# PCOD9507707 Si02
#       6
#    16  16  16  16  16   8
#     4  11  23  45  75 101 131 175 223 288 356 419
#     4  12  24  41  61  90 137 192 235 276 339 415
#     4  11  17  35  59  97 134 170 213 289 339 395
#     4  10  21  37  70 105 128 160 226 290 343 405
#     4  12  19  31  60  94 127 175 241 285 323 386
#     4  12  27  48  62  98 144 182 225 274 354 430
#
# _framework density 21.651748999999999
#
# number of rings (size 3 to 8) (size 9 to 14) (size 15 to 20)
#    0.000    0.727    7.273    1.909    0.000    0.727 
#    3.273    0.000    0.000    0.000    9.455    0.000 
#    0.000    0.000    0.000    0.000    0.000    0.000 
#
# Total GULP energy -245808.372841 kJ/mol
# GULP energy per Si atom -5586.553928 kJ/mol
# Density = 2.160247 g / cm^3
# Si number density = 21.651749 Si / 1000 Ang^3
#
#
#
# Elastic Constant Matrix: (Units=GPa)
#
#
# Indices 1 2 3 4 5 6 
#
# 1 140.3300 59.3238 41.8099 0.0000 0.0000 0.0000
# 2 59.3238 137.8797 34.3047 0.0000 0.0000 0.0000
# 3 41.8099 34.3047 68.1679 0.0000 0.0000 0.0000
# 4 0.0000 0.0000 0.0000 18.7874 0.0000 0.0000
# 5 0.0000 0.0000 0.0000 0.0000 27.8607 0.0000
# 6 0.0000 0.0000 0.0000 0.0000 0.0000 37.9928
#
#
#
# Elastic Compliance Matrix: (Units=1/GPa)
#
#
# Indices 1 2 3 4 5 6 
#
# 1 0.009753 -0.003096 -0.004424 0.000000 0.000000 0.000000
# 2 -0.003096 0.009273 -0.002768 0.000000 0.000000 0.000000
# 3 -0.004424 -0.002768 0.018776 0.000000 0.000000 0.000000
# 4 0.000000 0.000000 0.000000 0.053227 0.000000 0.000000
# 5 0.000000 0.000000 0.000000 0.000000 0.035893 0.000000
# 6 0.000000 0.000000 0.000000 0.000000 0.000000 0.026321
#
#
# Mechanical properties :
#
#
# Convention : Reuss Voigt Hill
#
# Bulk Modulus (GPa) = 58.04843 68.58382 63.31612
# Shear Modulus (GPa) = 27.84581 30.99079 29.41830
#
# Velocity S-wave (km/s) = 3.59008 3.78740 3.69006
# Velocity P-wave (km/s) = 6.63726 7.13235 6.88925
#
# Compressibility (1/GPa) = 0.01722699
#
# Stress axis : x y z
#
# Youngs Moduli (GPa) = 102.53528 107.83685 53.25942
#
# Poissons Ratio (x) = 0.33381 0.23562
# Poissons Ratio (y) = 0.31740 0.14743
# Poissons Ratio (z) = 0.45361 0.29850
#
# Static dielectric constant tensor:
#      x y z
#    x 1.885650 0.000000 0.000000 
#    y 0.000000 1.869330 0.000000 
#    z 0.000000 0.000000 1.786570 
# 
# From -- ./inp_files/40743.got.cif
#   From: 2010.05.17/outbox.cif.g08.bks.cpg/sg68_21_cif.got.tgz:40743.got - 2010.06.03 18:57:09.
