data_PCOD9507293
_publ_section_title
;
Structure prediction by ZEFSAII (Michael W. Deem and Ramdas Pophale) SiO2 
 PCOD9507293
Probable space group: C C C A
;
_chemical_formula_sum "Si O2"
_cell_formula_units_Z 112
_cell_length_a 11.248100
_cell_length_b 15.860879
_cell_length_c 27.775676
_cell_angle_alpha 90.000000
_cell_angle_beta 90.000000
_cell_angle_gamma 90.000000
_cell_volume 4955.312618
_symmetry_space_group_name_H-M "C C C A"
_symmetry_group_IT_number 68
_space_group.IT_coordinate_system_code '2'
_symmetry_cell_setting 'orthorhombic'
loop_
_space_group_symop_operation_xyz
x,y,z
-x,1/2-y,z
x,1/2-y,1/2-z
-x,y,1/2-z
-x,-y,-z
x,1/2+y,-z
-x,1/2+y,1/2+z
x,-y,1/2+z
1/2+x,1/2+y,z
1/2-x,-y,z
1/2+x,-y,1/2-z
1/2-x,1/2+y,1/2-z
1/2-x,1/2-y,-z
1/2+x,y,-z
1/2-x,y,1/2+z
1/2+x,1/2-y,1/2+z
loop_
_atom_site_type_symbol
_atom_site_label
_atom_site_fract_x
_atom_site_fract_y
_atom_site_fract_z
Si Si1 0.814163 0.797531 0.412043
Si Si2 0.585068 0.171635 0.847468
Si Si3 0.922201 0.635283 0.390901
Si Si4 0.365425 0.551789 0.693023
Si Si5 0.625204 0.012386 0.800158
Si Si6 0.336044 0.566665 0.986898
Si Si7 0.489455 0.542124 0.073614
O O1 0.708181 0.804346 0.373757
O O2 0.846196 0.700389 0.422272
O O3 0.786987 0.852258 0.459468
O O4 0.940100 0.835319 0.392273
O O5 0.500000 0.250000 0.837543
O O6 0.609444 0.113387 0.800476
O O7 0.519749 0.109863 0.885898
O O8 0.867733 0.637996 0.336807
O O9 0.913778 0.539222 0.408947
O O10 0.250000 0.500000 0.676377
O O11 0.359705 0.539934 0.750627
O O12 0.498887 0.519680 0.681385
O O13 0.750000 0.000000 0.828079
O O14 0.250000 0.500000 0.011275
O O15 0.394511 0.506372 0.946073
O O16 0.432671 0.587795 0.027332
#
# Coordination Sequence:
#
# PCOD9507293 Si02
#       7
#    16  16  16  16  16  16  16
#     4  10  23  41  68  99 132 180 225 290 338 417
#     4  12  25  41  66 103 138 177 231 285 352 416
#     4  10  21  41  71  96 130 176 231 276 347 411
#     4  10  21  38  70 100 132 167 230 283 337 408
#     4  10  22  42  71  97 128 190 227 272 345 433
#     4  10  20  40  65  94 127 177 234 276 337 413
#     4  10  22  40  64  94 128 179 228 279 340 416
#
# _framework density 22.602004000000001
#
# number of rings (size 3 to 8) (size 9 to 14) (size 15 to 20)
#    0.000    1.714    2.857    0.857    4.000    1.714 
#    7.714    2.857    0.000   17.143    0.000    0.000 
#    0.000    0.000    0.000    0.000    0.000    0.000 
#
# Total GULP energy -311848.667303 kJ/mol
# GULP energy per Si atom -5568.726202 kJ/mol
# Density = 2.255056 g / cm^3
# Si number density = 22.602004 Si / 1000 Ang^3
#
#
#
# Elastic Constant Matrix: (Units=GPa)
#
#
# Indices 1 2 3 4 5 6 
#
# 1 90.8616 29.6958 11.0849 0.0000 0.0000 0.0000
# 2 29.6958 82.4066 24.8758 0.0000 0.0000 0.0000
# 3 11.0849 24.8758 53.1900 0.0000 0.0000 0.0000
# 4 0.0000 0.0000 0.0000 4.3821 0.0000 0.0000
# 5 0.0000 0.0000 0.0000 0.0000 10.6687 0.0000
# 6 0.0000 0.0000 0.0000 0.0000 0.0000 26.9111
#
#
#
# Elastic Compliance Matrix: (Units=1/GPa)
#
#
# Indices 1 2 3 4 5 6 
#
# 1 0.012490 -0.004326 -0.000580 0.000000 0.000000 0.000000
# 2 -0.004326 0.015628 -0.006407 0.000000 0.000000 0.000000
# 3 -0.000580 -0.006407 0.021918 0.000000 0.000000 0.000000
# 4 0.000000 0.000000 0.000000 0.228199 0.000000 0.000000
# 5 0.000000 0.000000 0.000000 0.000000 0.093732 0.000000
# 6 0.000000 0.000000 0.000000 0.000000 0.000000 0.037159
#
#
# Mechanical properties :
#
#
# Convention : Reuss Voigt Hill
#
# Bulk Modulus (GPa) = 36.48308 39.75238 38.11773
# Shear Modulus (GPa) = 11.34072 19.11250 15.22661
#
# Velocity S-wave (km/s) = 2.24242 2.91109 2.59836
# Velocity P-wave (km/s) = 4.78343 5.37824 5.08953
#
# Compressibility (1/GPa) = 0.02740997
#
# Stress axis : x y z
#
# Youngs Moduli (GPa) = 80.06209 63.98777 45.62473
#
# Poissons Ratio (x) = 0.27681 0.02646
# Poissons Ratio (y) = 0.34634 0.29233
# Poissons Ratio (z) = 0.04643 0.40999
#
# Static dielectric constant tensor:
#      x y z
#    x 1.922440 0.000000 0.000000 
#    y 0.000000 1.867520 0.000000 
#    z 0.000000 0.000000 1.925910 
# 
# From -- ./inp_files/54803.got.cif
#   From: 2010.05.17/outbox.cif.g08.bks.cpg/sg68_28_cif.got.tgz:54803.got - 2010.06.03 18:57:09.
