data_PCOD9507912
_publ_section_title
;
Structure prediction by ZEFSAII (Michael W. Deem and Ramdas Pophale) SiO2 
 PCOD9507912
Probable space group: C C C A
;
_chemical_formula_sum "Si O2"
_cell_formula_units_Z 88
_cell_length_a 10.982733
_cell_length_b 11.597259
_cell_length_c 28.748676
_cell_angle_alpha 90.000000
_cell_angle_beta 90.000000
_cell_angle_gamma 90.000000
_cell_volume 3661.707338
_symmetry_space_group_name_H-M "C C C A"
_symmetry_group_IT_number 68
_space_group.IT_coordinate_system_code '2'
_symmetry_cell_setting 'orthorhombic'
loop_
_space_group_symop_operation_xyz
x,y,z
-x,1/2-y,z
x,1/2-y,1/2-z
-x,y,1/2-z
-x,-y,-z
x,1/2+y,-z
-x,1/2+y,1/2+z
x,-y,1/2+z
1/2+x,1/2+y,z
1/2-x,-y,z
1/2+x,-y,1/2-z
1/2-x,1/2+y,1/2-z
1/2-x,1/2-y,-z
1/2+x,y,-z
1/2-x,y,1/2+z
1/2+x,1/2-y,1/2+z
loop_
_atom_site_type_symbol
_atom_site_label
_atom_site_fract_x
_atom_site_fract_y
_atom_site_fract_z
Si Si1 0.250000 0.500000 0.771434
Si Si2 0.188474 0.626795 0.017122
Si Si3 0.861808 0.839903 0.207932
Si Si4 0.064413 0.369946 0.422920
Si Si5 0.360465 0.294141 0.830169
Si Si6 0.881403 0.563098 0.385932
O O1 0.146771 0.454514 0.737206
O O2 0.316506 0.403660 0.801270
O O3 0.250000 0.500000 0.025590
O O4 0.108638 0.591316 0.972732
O O5 0.250000 0.750000 0.000000
O O6 0.131844 0.644207 0.068428
O O7 0.886064 0.750000 0.250000
O O8 0.729859 0.803135 0.188123
O O9 0.929427 0.869030 0.159848
O O10 0.160576 0.332197 0.383609
O O11 0.000000 0.250000 0.433277
O O12 0.975296 0.462150 0.399537
O O13 0.500000 0.250000 0.825861
O O14 0.750000 0.500000 0.376292
#
# Coordination Sequence:
#
# PCOD9507912 Si02
#       6
#     8  16  16  16  16  16
#     4  10  22  36  64  92 136 172 236 304 358 432
#     4  11  24  43  73 106 147 190 236 305 377 452
#     4  10  21  39  62  93 132 182 234 299 365 422
#     4  11  23  41  70 109 136 181 243 293 368 470
#     4  10  22  41  66 102 130 180 242 296 363 446
#     4  11  21  40  66 100 142 184 231 302 366 442
#
# _framework density 24.032505
#
# number of rings (size 3 to 8) (size 9 to 14) (size 15 to 20)
#    0.000    1.455    0.909    6.000    1.273    3.273 
#    0.000    0.000    0.000    3.273    0.000    0.000 
#    0.000    0.000    0.000    0.000    0.000    0.000 
#
# Total GULP energy -245229.074141 kJ/mol
# GULP energy per Si atom -5573.388049 kJ/mol
# Density = 2.397781 g / cm^3
# Si number density = 24.032505 Si / 1000 Ang^3
#
#
#
# Elastic Constant Matrix: (Units=GPa)
#
#
# Indices 1 2 3 4 5 6 
#
# 1 49.8740 20.7148 33.7650 0.0000 0.0000 0.0000
# 2 20.7148 109.0774 47.9822 0.0000 0.0000 0.0000
# 3 33.7650 47.9822 215.3745 0.0000 0.0000 0.0000
# 4 0.0000 0.0000 0.0000 396.9571 0.0000 0.0000
# 5 0.0000 0.0000 0.0000 0.0000 101.0839 0.0000
# 6 0.0000 0.0000 0.0000 0.0000 0.0000 0.9214
#
#
#
# Elastic Compliance Matrix: (Units=1/GPa)
#
#
# Indices 1 2 3 4 5 6 
#
# 1 0.023358 -0.003132 -0.002964 0.000000 0.000000 0.000000
# 2 -0.003132 0.010584 -0.001867 0.000000 0.000000 0.000000
# 3 -0.002964 -0.001867 0.005524 0.000000 0.000000 0.000000
# 4 0.000000 0.000000 0.000000 0.002519 0.000000 0.000000
# 5 0.000000 0.000000 0.000000 0.000000 0.009893 0.000000
# 6 0.000000 0.000000 0.000000 0.000000 0.000000 1.085288
#
#
# Mechanical properties :
#
#
# Convention : Reuss Voigt Hill
#
# Bulk Modulus (GPa) = 42.48177 64.36110 53.42144
# Shear Modulus (GPa) = 4.30686 117.91675 61.11181
#
# Velocity S-wave (km/s) = 1.34015 7.01228 5.04817
# Velocity P-wave (km/s) = 4.48440 9.61258 7.50038
#
# Compressibility (1/GPa) = 0.02353951
#
# Stress axis : x y z
#
# Youngs Moduli (GPa) = 42.81160 94.48379 181.03820
#
# Poissons Ratio (x) = 0.29592 0.53663
# Poissons Ratio (y) = 0.13409 0.33798
# Poissons Ratio (z) = 0.12690 0.17639
#
# Static dielectric constant tensor:
#      x y z
#    x 1.960070 0.000000 0.000000 
#    y 0.000000 4.848510 0.000000 
#    z 0.000000 0.000000 1.982190 
# 
# From -- ./inp_files/54657.got.cif
#   From: 2010.05.17/outbox.cif.g08.bks.cpg/sg68_28_cif.got.tgz:54657.got - 2010.06.03 18:57:09.
