data_PCOD9507739
_publ_section_title
;
Structure prediction by ZEFSAII (Michael W. Deem and Ramdas Pophale) SiO2 
 PCOD9507739
Probable space group: C C C A
;
_chemical_formula_sum "Si O2"
_cell_formula_units_Z 80
_cell_length_a 14.540473
_cell_length_b 13.155343
_cell_length_c 21.438178
_cell_angle_alpha 90.000000
_cell_angle_beta 90.000000
_cell_angle_gamma 90.000000
_cell_volume 4100.799943
_symmetry_space_group_name_H-M "C C C A"
_symmetry_group_IT_number 68
_space_group.IT_coordinate_system_code '2'
_symmetry_cell_setting 'orthorhombic'
loop_
_space_group_symop_operation_xyz
x,y,z
-x,1/2-y,z
x,1/2-y,1/2-z
-x,y,1/2-z
-x,-y,-z
x,1/2+y,-z
-x,1/2+y,1/2+z
x,-y,1/2+z
1/2+x,1/2+y,z
1/2-x,-y,z
1/2+x,-y,1/2-z
1/2-x,1/2+y,1/2-z
1/2-x,1/2-y,-z
1/2+x,y,-z
1/2-x,y,1/2+z
1/2+x,1/2-y,1/2+z
loop_
_atom_site_type_symbol
_atom_site_label
_atom_site_fract_x
_atom_site_fract_y
_atom_site_fract_z
Si Si1 0.654486 0.762465 0.178671
Si Si2 0.294623 0.225064 0.067578
Si Si3 0.495879 0.918772 0.179669
Si Si4 0.903172 0.027731 0.929723
Si Si5 0.554069 0.658796 0.997784
O O1 0.691314 0.750000 0.250000
O O2 0.730233 0.756926 0.124764
O O3 0.593910 0.864411 0.168631
O O4 0.580782 0.670401 0.175686
O O5 0.320553 0.106742 0.077866
O O6 0.388377 0.291043 0.058449
O O7 0.250000 0.250000 0.000000
O O8 0.500000 0.958126 0.250000
O O9 0.461304 0.002388 0.131779
O O10 0.971362 0.090210 0.973912
O O11 0.885067 0.917726 0.961028
O O12 0.500000 0.750000 0.033268
#
# Coordination Sequence:
#
# PCOD9507739 Si02
#       5
#    16  16  16  16  16
#     4   9  20  38  59  84 118 155 191 247 301 344
#     4  11  23  37  58  90 121 150 195 247 299 354
#     4   9  19  37  61  83 108 156 208 235 285 363
#     4  10  21  38  60  84 116 157 196 240 294 356
#     4   9  21  37  57  84 116 152 191 239 297 350
#
# _framework density 19.508389000000001
#
# number of rings (size 3 to 8) (size 9 to 14) (size 15 to 20)
#    0.000    2.400    0.000    2.400   11.200    3.200 
#    3.600    0.000    0.000    0.000    0.000    0.000 
#    0.000    0.000    0.000    0.000    0.000    0.000 
#
# Total GULP energy -222840.741813 kJ/mol
# GULP energy per Si atom -5571.018545 kJ/mol
# Density = 1.946399 g / cm^3
# Si number density = 19.508389 Si / 1000 Ang^3
#
#
#
# Elastic Constant Matrix: (Units=GPa)
#
#
# Indices 1 2 3 4 5 6 
#
# 1 78.9463 34.2826 39.2768 0.0000 0.0000 0.0000
# 2 34.2826 115.1457 53.3369 0.0000 0.0000 0.0000
# 3 39.2768 53.3369 118.0540 0.0000 0.0000 0.0000
# 4 0.0000 0.0000 0.0000 4.7598 0.0000 0.0000
# 5 0.0000 0.0000 0.0000 0.0000 42.0270 0.0000
# 6 0.0000 0.0000 0.0000 0.0000 0.0000 24.4359
#
#
#
# Elastic Compliance Matrix: (Units=1/GPa)
#
#
# Indices 1 2 3 4 5 6 
#
# 1 0.015905 -0.002889 -0.003986 0.000000 0.000000 0.000000
# 2 -0.002889 0.011508 -0.004238 0.000000 0.000000 0.000000
# 3 -0.003986 -0.004238 0.011712 0.000000 0.000000 0.000000
# 4 0.000000 0.000000 0.000000 0.210094 0.000000 0.000000
# 5 0.000000 0.000000 0.000000 0.000000 0.023794 0.000000
# 6 0.000000 0.000000 0.000000 0.000000 0.000000 0.040923
#
#
# Mechanical properties :
#
#
# Convention : Reuss Voigt Hill
#
# Bulk Modulus (GPa) = 59.17980 62.88208 61.03094
# Shear Modulus (GPa) = 14.62866 26.59453 20.61160
#
# Velocity S-wave (km/s) = 2.74134 3.69621 3.25399
# Velocity P-wave (km/s) = 6.35778 7.10769 6.74317
#
# Compressibility (1/GPa) = 0.01689766
#
# Stress axis : x y z
#
# Youngs Moduli (GPa) = 62.87511 86.89673 85.38417
#
# Poissons Ratio (x) = 0.25103 0.34037
# Poissons Ratio (y) = 0.18163 0.36187
# Poissons Ratio (z) = 0.25064 0.36828
#
# Static dielectric constant tensor:
#      x y z
#    x 1.741820 0.000000 0.000000 
#    y 0.000000 1.747770 0.000000 
#    z 0.000000 0.000000 1.709450 
# 
# From -- ./inp_files/38382.got.cif
#   From: 2010.05.17/outbox.cif.g08.bks.cpg/sg68_20_cif.got.tgz:38382.got - 2010.06.03 18:57:09.
