data_PCOD9507621
_publ_section_title
;
Structure prediction by ZEFSAII (Michael W. Deem and Ramdas Pophale) SiO2 
 PCOD9507621
Probable space group: C C C A
;
_chemical_formula_sum "Si O2"
_cell_formula_units_Z 108
_cell_length_a 29.849121
_cell_length_b 5.347886
_cell_length_c 31.389425
_cell_angle_alpha 90.000000
_cell_angle_beta 90.000000
_cell_angle_gamma 90.000000
_cell_volume 5010.684380
_symmetry_space_group_name_H-M "C C C A"
_symmetry_group_IT_number 68
_space_group.IT_coordinate_system_code '2'
_symmetry_cell_setting 'orthorhombic'
loop_
_space_group_symop_operation_xyz
x,y,z
-x,1/2-y,z
x,1/2-y,1/2-z
-x,y,1/2-z
-x,-y,-z
x,1/2+y,-z
-x,1/2+y,1/2+z
x,-y,1/2+z
1/2+x,1/2+y,z
1/2-x,-y,z
1/2+x,-y,1/2-z
1/2-x,1/2+y,1/2-z
1/2-x,1/2-y,-z
1/2+x,y,-z
1/2-x,y,1/2+z
1/2+x,1/2-y,1/2+z
loop_
_atom_site_type_symbol
_atom_site_label
_atom_site_fract_x
_atom_site_fract_y
_atom_site_fract_z
Si Si1 0.140025 0.629409 0.089521
Si Si2 0.079046 0.882832 0.689878
Si Si3 0.133659 0.877836 0.309361
Si Si4 0.585493 0.633243 0.087410
Si Si5 0.766107 0.244148 0.702334
Si Si6 0.198904 0.740745 0.017787
Si Si7 0.500000 0.750000 0.029018
Si Si8 0.500000 0.750000 0.250000
O O1 0.142358 0.628344 0.140088
O O2 0.121061 0.355329 0.078858
O O3 0.187361 0.683171 0.066565
O O4 0.106204 0.858398 0.077853
O O5 0.110286 0.641947 0.701398
O O6 0.073444 0.866159 0.638310
O O7 0.033736 0.882999 0.717091
O O8 0.102382 0.143698 0.700371
O O9 0.181987 0.808439 0.291757
O O10 0.542821 0.708489 0.059489
O O11 0.744213 0.250000 0.750000
O O12 0.750000 0.500000 0.681565
O O13 0.750000 0.000000 0.677963
O O14 0.178072 0.506287 0.993406
O O15 0.250000 0.750000 0.000000
O O16 0.500000 0.500000 0.000000
#
# Coordination Sequence:
#
# PCOD9507621 Si02
#       8
#    16  16  16  16  16  16   8   4
#     4  10  21  39  63  84 116 166 200 235 309 378
#     4  10  24  40  65  91 129 165 205 257 316 385
#     4  10  22  42  61  91 122 167 206 251 310 365
#     4  10  22  42  60  86 127 160 198 254 309 364
#     4  10  21  37  59  88 120 156 201 253 303 347
#     4  10  21  37  55  85 118 152 196 254 302 350
#     4  12  25  38  60  93 116 151 206 260 301 358
#     4  12  26  42  68 106 120 170 216 258 330 378
#
# _framework density 21.553943
#
# number of rings (size 3 to 8) (size 9 to 14) (size 15 to 20)
#    0.000    1.778    0.000    3.111    2.074    4.741 
#    5.333    4.444    0.000    0.000    0.000    0.000 
#    0.000    0.000    0.000    0.000    0.000    0.000 
#
# Total GULP energy -301053.174528 kJ/mol
# GULP energy per Si atom -5575.058788 kJ/mol
# Density = 2.150489 g / cm^3
# Si number density = 21.553943 Si / 1000 Ang^3
#
#
#
# Elastic Constant Matrix: (Units=GPa)
#
#
# Indices 1 2 3 4 5 6 
#
# 1 86.2758 17.8303 44.3351 0.0000 0.0000 0.0000
# 2 17.8303 164.5813 34.7260 0.0000 0.0000 0.0000
# 3 44.3351 34.7260 67.1982 0.0000 0.0000 0.0000
# 4 0.0000 0.0000 0.0000 62.2902 0.0000 0.0000
# 5 0.0000 0.0000 0.0000 0.0000 48.3053 0.0000
# 6 0.0000 0.0000 0.0000 0.0000 0.0000 8.4341
#
#
#
# Elastic Compliance Matrix: (Units=1/GPa)
#
#
# Indices 1 2 3 4 5 6 
#
# 1 0.017590 0.000609 -0.011921 0.000000 0.000000 0.000000
# 2 0.000609 0.006841 -0.003937 0.000000 0.000000 0.000000
# 3 -0.011921 -0.003937 0.024781 0.000000 0.000000 0.000000
# 4 0.000000 0.000000 0.000000 0.016054 0.000000 0.000000
# 5 0.000000 0.000000 0.000000 0.000000 0.020702 0.000000
# 6 0.000000 0.000000 0.000000 0.000000 0.000000 0.118567
#
#
# Mechanical properties :
#
#
# Convention : Reuss Voigt Hill
#
# Bulk Modulus (GPa) = 53.43192 56.87090 55.15141
# Shear Modulus (GPa) = 20.72374 38.55018 29.63696
#
# Velocity S-wave (km/s) = 3.10414 4.23371 3.71214
# Velocity P-wave (km/s) = 6.13932 7.09519 6.63449
#
# Compressibility (1/GPa) = 0.01871541
#
# Stress axis : x y z
#
# Youngs Moduli (GPa) = 56.84895 146.18326 40.35389
#
# Poissons Ratio (x) = -0.08910 0.48104
# Poissons Ratio (y) = -0.03465 0.15888
# Poissons Ratio (z) = 0.67767 0.57555
#
# Static dielectric constant tensor:
#      x y z
#    x 1.661450 0.000000 0.000000 
#    y 0.000000 1.818050 0.000000 
#    z 0.000000 0.000000 1.829340 
# 
# From -- ./inp_files/56323.got.cif
#   From: 2010.05.17/outbox.cif.g08.bks.cpg/sg68_29_cif.got.tgz:56323.got - 2010.06.03 18:57:09.
