data_PCOD9507257
_publ_section_title
;
Structure prediction by ZEFSAII (Michael W. Deem and Ramdas Pophale) SiO2 
 PCOD9507257
Probable space group: C C C A
;
_chemical_formula_sum "Si O2"
_cell_formula_units_Z 64
_cell_length_a 13.825419
_cell_length_b 15.700678
_cell_length_c 13.345438
_cell_angle_alpha 90.000000
_cell_angle_beta 90.000000
_cell_angle_gamma 90.000000
_cell_volume 2896.873567
_symmetry_space_group_name_H-M "C C C A"
_symmetry_group_IT_number 68
_space_group.IT_coordinate_system_code '2'
_symmetry_cell_setting 'orthorhombic'
loop_
_space_group_symop_operation_xyz
x,y,z
-x,1/2-y,z
x,1/2-y,1/2-z
-x,y,1/2-z
-x,-y,-z
x,1/2+y,-z
-x,1/2+y,1/2+z
x,-y,1/2+z
1/2+x,1/2+y,z
1/2-x,-y,z
1/2+x,-y,1/2-z
1/2-x,1/2+y,1/2-z
1/2-x,1/2-y,-z
1/2+x,y,-z
1/2-x,y,1/2+z
1/2+x,1/2-y,1/2+z
loop_
_atom_site_type_symbol
_atom_site_label
_atom_site_fract_x
_atom_site_fract_y
_atom_site_fract_z
Si Si1 0.559325 0.425201 0.547079
Si Si2 0.000000 0.493215 0.750000
Si Si3 0.250000 0.500000 0.438195
Si Si4 0.000000 0.250000 0.411348
Si Si5 0.805468 0.916614 0.242808
Si Si6 0.672730 0.250000 0.750000
O O1 0.500000 0.500000 0.500000
O O2 0.546152 0.443387 0.667020
O O3 0.669387 0.440714 0.513234
O O4 0.511893 0.335218 0.525364
O O5 0.084446 0.431199 0.710041
O O6 0.194234 0.564273 0.362988
O O7 0.902595 0.248610 0.343280
O O8 0.742861 0.831481 0.232400
O O9 0.750000 0.000000 0.200684
#
# Coordination Sequence:
#
# PCOD9507257 Si02
#       6
#    16   8   8   8  16   8
#     4  11  22  41  65  90 126 163 206 260 313 372
#     4  10  20  40  62  88 128 168 200 252 320 376
#     4   8  18  40  54  84 132 154 188 268 310 350
#     4  11  20  36  62  95 114 158 220 259 300 371
#     4   9  17  32  58  86 121 157 193 249 318 357
#     4  11  18  33  66  94 118 153 214 267 302 366
#
# _framework density 22.092784000000002
#
# number of rings (size 3 to 8) (size 9 to 14) (size 15 to 20)
#    0.750    1.250    2.500    3.000    0.000    0.500 
#    6.750    6.250    0.000    0.000    0.000    0.000 
#    0.000    0.000    0.000    0.000    0.000    0.000 
#
# Total GULP energy -178238.526878 kJ/mol
# GULP energy per Si atom -5569.953965 kJ/mol
# Density = 2.204250 g / cm^3
# Si number density = 22.092784 Si / 1000 Ang^3
#
#
#
# Elastic Constant Matrix: (Units=GPa)
#
#
# Indices 1 2 3 4 5 6 
#
# 1 157.5941 80.7424 0.9038 0.0000 0.0000 0.0000
# 2 80.7424 207.4307 11.5392 0.0000 0.0000 0.0000
# 3 0.9038 11.5392 21.2937 0.0000 0.0000 0.0000
# 4 0.0000 0.0000 0.0000 19.5046 0.0000 0.0000
# 5 0.0000 0.0000 0.0000 0.0000 14.0400 0.0000
# 6 0.0000 0.0000 0.0000 0.0000 0.0000 43.4415
#
#
#
# Elastic Compliance Matrix: (Units=1/GPa)
#
#
# Indices 1 2 3 4 5 6 
#
# 1 0.007965 -0.003178 0.001384 0.000000 0.000000 0.000000
# 2 -0.003178 0.006238 -0.003246 0.000000 0.000000 0.000000
# 3 0.001384 -0.003246 0.048662 0.000000 0.000000 0.000000
# 4 0.000000 0.000000 0.000000 0.051270 0.000000 0.000000
# 5 0.000000 0.000000 0.000000 0.000000 0.071225 0.000000
# 6 0.000000 0.000000 0.000000 0.000000 0.000000 0.023019
#
#
# Mechanical properties :
#
#
# Convention : Reuss Voigt Hill
#
# Bulk Modulus (GPa) = 18.94393 63.63214 41.28803
# Shear Modulus (GPa) = 21.18147 34.93942 28.06044
#
# Velocity S-wave (km/s) = 3.09973 3.98110 3.56774
# Velocity P-wave (km/s) = 4.62649 7.07086 5.97501
#
# Compressibility (1/GPa) = 0.05278737
#
# Stress axis : x y z
#
# Youngs Moduli (GPa) = 125.54184 160.30007 20.54973
#
# Poissons Ratio (x) = 0.50936 -0.02844
# Poissons Ratio (y) = 0.39891 0.06670
# Poissons Ratio (z) = -0.17373 0.52029
#
# Static dielectric constant tensor:
#      x y z
#    x 1.846970 0.000000 0.000000 
#    y 0.000000 1.825150 0.000000 
#    z 0.000000 0.000000 1.949710 
# 
# From -- ./inp_files/29356.got.cif
#   From: 2010.05.17/outbox.cif.g08.bks.cpg/sg68_15_cif.got.tgz:29356.got - 2010.06.03 18:57:09.
