data_PCOD9507576
_publ_section_title
;
Structure prediction by ZEFSAII (Michael W. Deem and Ramdas Pophale) SiO2 
 PCOD9507576
Probable space group: C C C A
;
_chemical_formula_sum "Si O2"
_cell_formula_units_Z 120
_cell_length_a 13.378291
_cell_length_b 24.778074
_cell_length_c 18.472700
_cell_angle_alpha 90.000000
_cell_angle_beta 90.000000
_cell_angle_gamma 90.000000
_cell_volume 6123.483631
_symmetry_space_group_name_H-M "C C C A"
_symmetry_group_IT_number 68
_space_group.IT_coordinate_system_code '2'
_symmetry_cell_setting 'orthorhombic'
loop_
_space_group_symop_operation_xyz
x,y,z
-x,1/2-y,z
x,1/2-y,1/2-z
-x,y,1/2-z
-x,-y,-z
x,1/2+y,-z
-x,1/2+y,1/2+z
x,-y,1/2+z
1/2+x,1/2+y,z
1/2-x,-y,z
1/2+x,-y,1/2-z
1/2-x,1/2+y,1/2-z
1/2-x,1/2-y,-z
1/2+x,y,-z
1/2-x,y,1/2+z
1/2+x,1/2-y,1/2+z
loop_
_atom_site_type_symbol
_atom_site_label
_atom_site_fract_x
_atom_site_fract_y
_atom_site_fract_z
Si Si1 0.689396 0.821132 0.382553
Si Si2 0.500000 0.099230 0.250000
Si Si3 0.840776 0.298531 0.344483
Si Si4 0.102211 0.552992 0.542316
Si Si5 0.510369 0.384953 0.670756
Si Si6 0.282756 0.866070 0.958977
Si Si7 0.161380 0.191465 0.732128
Si Si8 0.955989 0.561235 0.407535
O O1 0.640389 0.763266 0.365018
O O2 0.623329 0.867198 0.344418
O O3 0.693726 0.837452 0.465653
O O4 0.800453 0.814941 0.349866
O O5 0.593898 0.140359 0.250501
O O6 0.492313 0.065275 0.324454
O O7 0.940090 0.331814 0.328122
O O8 0.778840 0.324796 0.409834
O O9 0.764040 0.306171 0.278125
O O10 0.033406 0.581470 0.603719
O O11 0.207053 0.583389 0.534486
O O12 0.107293 0.492017 0.571420
O O13 0.046381 0.558098 0.465209
O O14 0.500000 0.411279 0.750000
O O15 0.385084 0.887579 0.923814
O O16 0.114336 0.250000 0.750000
#
# Coordination Sequence:
#
# PCOD9507576 Si02
#       8
#    16   8  16  16  16  16  16  16
#     4  11  21  36  61  89 120 160 202 245 298 369
#     4  12  23  40  64  90 118 156 209 244 302 366
#     4  10  21  36  57  88 123 158 197 246 303 354
#     4  10  24  42  62  88 120 159 202 254 310 356
#     4  11  21  36  62  89 124 159 204 250 306 362
#     4  11  21  41  61  86 120 160 200 251 304 362
#     4  10  21  37  58  87 124 161 196 245 299 359
#     4  11  23  42  65  87 120 160 200 256 305 360
#
# _framework density 19.596688
#
# number of rings (size 3 to 8) (size 9 to 14) (size 15 to 20)
#    0.000    1.333    4.000    2.200    0.933    0.533 
#    0.000    0.000    0.000    0.000    0.000    0.000 
#    0.000    0.000    0.000    0.000    0.000    0.000 
#
# Total GULP energy -334802.504173 kJ/mol
# GULP energy per Si atom -5580.041736 kJ/mol
# Density = 1.955208 g / cm^3
# Si number density = 19.596688 Si / 1000 Ang^3
#
#
#
# Elastic Constant Matrix: (Units=GPa)
#
#
# Indices 1 2 3 4 5 6 
#
# 1 37.9406 1.2065 13.2620 0.0000 0.0000 0.0000
# 2 1.2065 39.1304 15.8431 0.0000 0.0000 0.0000
# 3 13.2620 15.8431 135.8665 0.0000 0.0000 0.0000
# 4 0.0000 0.0000 0.0000 22.4365 0.0000 0.0000
# 5 0.0000 0.0000 0.0000 0.0000 21.2991 0.0000
# 6 0.0000 0.0000 0.0000 0.0000 0.0000 12.1264
#
#
#
# Elastic Compliance Matrix: (Units=1/GPa)
#
#
# Indices 1 2 3 4 5 6 
#
# 1 0.027290 0.000249 -0.002693 0.000000 0.000000 0.000000
# 2 0.000249 0.026824 -0.003152 0.000000 0.000000 0.000000
# 3 -0.002693 -0.003152 0.007991 0.000000 0.000000 0.000000
# 4 0.000000 0.000000 0.000000 0.044570 0.000000 0.000000
# 5 0.000000 0.000000 0.000000 0.000000 0.046950 0.000000
# 6 0.000000 0.000000 0.000000 0.000000 0.000000 0.082464
#
#
# Mechanical properties :
#
#
# Convention : Reuss Voigt Hill
#
# Bulk Modulus (GPa) = 19.64145 30.39561 25.01853
# Shear Modulus (GPa) = 18.92124 23.34747 21.13436
#
# Velocity S-wave (km/s) = 3.11067 3.45541 3.28756
# Velocity P-wave (km/s) = 4.79023 5.60928 5.21586
#
# Compressibility (1/GPa) = 0.05091273
#
# Stress axis : x y z
#
# Youngs Moduli (GPa) = 36.64302 37.27979 125.14726
#
# Poissons Ratio (x) = -0.00928 0.33700
# Poissons Ratio (y) = -0.00912 0.39449
# Poissons Ratio (z) = 0.09867 0.11751
#
# Static dielectric constant tensor:
#      x y z
#    x 1.661850 0.000000 0.000000 
#    y 0.000000 1.695620 0.000000 
#    z 0.000000 0.000000 1.721700 
# 
# From -- ./inp_files/37904.got.cif
#   From: 2010.05.17/outbox.cif.g08.bks.cpg/sg68_19_cif.got.tgz:37904.got - 2010.06.03 18:57:09.
