data_PCOD9507078
_publ_section_title
;
Structure prediction by ZEFSAII (Michael W. Deem and Ramdas Pophale) SiO2 
 PCOD9507078
Probable space group: C C C A
;
_chemical_formula_sum "Si O2"
_cell_formula_units_Z 80
_cell_length_a 15.660704
_cell_length_b 10.634259
_cell_length_c 22.182567
_cell_angle_alpha 90.000000
_cell_angle_beta 90.000000
_cell_angle_gamma 90.000000
_cell_volume 3694.284319
_symmetry_space_group_name_H-M "C C C A"
_symmetry_group_IT_number 68
_space_group.IT_coordinate_system_code '2'
_symmetry_cell_setting 'orthorhombic'
loop_
_space_group_symop_operation_xyz
x,y,z
-x,1/2-y,z
x,1/2-y,1/2-z
-x,y,1/2-z
-x,-y,-z
x,1/2+y,-z
-x,1/2+y,1/2+z
x,-y,1/2+z
1/2+x,1/2+y,z
1/2-x,-y,z
1/2+x,-y,1/2-z
1/2-x,1/2+y,1/2-z
1/2-x,1/2-y,-z
1/2+x,y,-z
1/2-x,y,1/2+z
1/2+x,1/2-y,1/2+z
loop_
_atom_site_type_symbol
_atom_site_label
_atom_site_fract_x
_atom_site_fract_y
_atom_site_fract_z
Si Si1 0.386117 0.399020 0.483541
Si Si2 0.843549 0.384862 0.113411
Si Si3 0.830492 0.250000 0.750000
Si Si4 0.750000 0.000000 0.068556
Si Si5 0.000000 0.750000 0.568713
Si Si6 0.250000 0.000000 0.717282
Si Si7 0.164728 0.729387 0.118473
O O1 0.365269 0.521315 0.442133
O O2 0.304099 0.404200 0.527387
O O3 0.465621 0.366245 0.527179
O O4 0.388320 0.284453 0.436563
O O5 0.921565 0.290538 0.110288
O O6 0.829622 0.466686 0.173372
O O7 0.754260 0.308107 0.112827
O O8 0.772534 0.375117 0.753106
O O9 0.874210 0.248429 0.815345
O O10 0.814508 0.915698 0.106688
#
# Coordination Sequence:
#
# PCOD9507078 Si02
#       7
#    16  16   8   8   8   8  16
#     4  12  21  39  61  93 129 167 206 260 323 383
#     4  11  20  40  59  93 129 169 201 265 317 384
#     4  10  20  38  64 102 116 168 226 280 302 370
#     4  12  20  34  62  94 126 160 212 260 318 382
#     4  12  26  34  60 102 136 166 206 250 336 396
#     4  10  20  40  70  94 128 160 226 274 324 362
#     4  11  21  37  65  93 125 165 218 263 313 373
#
# _framework density 21.655073000000002
#
# number of rings (size 3 to 8) (size 9 to 14) (size 15 to 20)
#    0.000    0.800    8.000    3.000    0.000    0.000 
#    0.000    0.000    0.000   10.200    0.000    0.000 
#    0.000    0.000    0.000    0.000    0.000    0.000 
#
# Total GULP energy -222910.796775 kJ/mol
# GULP energy per Si atom -5572.769919 kJ/mol
# Density = 2.160579 g / cm^3
# Si number density = 21.655073 Si / 1000 Ang^3
#
#
#
# Elastic Constant Matrix: (Units=GPa)
#
#
# Indices 1 2 3 4 5 6 
#
# 1 60.2529 -10.6507 14.4171 0.0000 0.0000 0.0000
# 2 -10.6507 73.2420 13.3234 0.0000 0.0000 0.0000
# 3 14.4171 13.3234 95.1959 0.0000 0.0000 0.0000
# 4 0.0000 0.0000 0.0000 9.7438 0.0000 0.0000
# 5 0.0000 0.0000 0.0000 0.0000 10.9652 0.0000
# 6 0.0000 0.0000 0.0000 0.0000 0.0000 25.8038
#
#
#
# Elastic Compliance Matrix: (Units=1/GPa)
#
#
# Indices 1 2 3 4 5 6 
#
# 1 0.017914 0.003180 -0.003158 0.000000 0.000000 0.000000
# 2 0.003180 0.014574 -0.002521 0.000000 0.000000 0.000000
# 3 -0.003158 -0.002521 0.011336 0.000000 0.000000 0.000000
# 4 0.000000 0.000000 0.000000 0.102629 0.000000 0.000000
# 5 0.000000 0.000000 0.000000 0.000000 0.091198 0.000000
# 6 0.000000 0.000000 0.000000 0.000000 0.000000 0.038754
#
#
# Mechanical properties :
#
#
# Convention : Reuss Voigt Hill
#
# Bulk Modulus (GPa) = 25.75666 29.20781 27.48223
# Shear Modulus (GPa) = 16.98676 23.40929 20.19803
#
# Velocity S-wave (km/s) = 2.80380 3.29143 3.05735
# Velocity P-wave (km/s) = 4.73303 5.28789 5.01813
#
# Compressibility (1/GPa) = 0.03882492
#
# Stress axis : x y z
#
# Youngs Moduli (GPa) = 55.82104 68.61349 88.21602
#
# Poissons Ratio (x) = -0.21816 0.27859
# Poissons Ratio (y) = -0.17749 0.22242
# Poissons Ratio (z) = 0.17629 0.17300
#
# Static dielectric constant tensor:
#      x y z
#    x 1.744980 0.000000 0.000000 
#    y 0.000000 1.879630 0.000000 
#    z 0.000000 0.000000 1.821730 
# 
# From -- ./inp_files/37418.got.cif
#   From: 2010.05.17/outbox.cif.g08.bks.cpg/sg68_19_cif.got.tgz:37418.got - 2010.06.03 18:57:09.
