data_PCOD9507948
_publ_section_title
;
Structure prediction by ZEFSAII (Michael W. Deem and Ramdas Pophale) SiO2 
 PCOD9507948
Probable space group: C C C A
;
_chemical_formula_sum "Si O2"
_cell_formula_units_Z 64
_cell_length_a 9.421829
_cell_length_b 18.020053
_cell_length_c 16.794245
_cell_angle_alpha 90.000000
_cell_angle_beta 90.000000
_cell_angle_gamma 90.000000
_cell_volume 2851.358119
_symmetry_space_group_name_H-M "C C C A"
_symmetry_group_IT_number 68
_space_group.IT_coordinate_system_code '2'
_symmetry_cell_setting 'orthorhombic'
loop_
_space_group_symop_operation_xyz
x,y,z
-x,1/2-y,z
x,1/2-y,1/2-z
-x,y,1/2-z
-x,-y,-z
x,1/2+y,-z
-x,1/2+y,1/2+z
x,-y,1/2+z
1/2+x,1/2+y,z
1/2-x,-y,z
1/2+x,-y,1/2-z
1/2-x,1/2+y,1/2-z
1/2-x,1/2-y,-z
1/2+x,y,-z
1/2-x,y,1/2+z
1/2+x,1/2-y,1/2+z
loop_
_atom_site_type_symbol
_atom_site_label
_atom_site_fract_x
_atom_site_fract_y
_atom_site_fract_z
Si Si1 0.207767 0.216060 0.915125
Si Si2 0.419816 0.494060 0.827034
Si Si3 0.588008 0.359443 0.101561
Si Si4 0.854171 0.570838 0.933630
O O1 0.185818 0.292401 0.866064
O O2 0.307102 0.147691 0.890744
O O3 0.055762 0.178298 0.927583
O O4 0.250000 0.250000 0.000000
O O5 0.500000 0.462891 0.750000
O O6 0.250000 0.500000 0.821914
O O7 0.458849 0.580179 0.835639
O O8 0.490337 0.452427 0.902459
O O9 0.649837 0.405403 0.026478
O O10 0.750000 0.500000 0.919836
#
# Coordination Sequence:
#
# PCOD9507948 Si02
#       4
#    16  16  16  16
#     4   9  20  36  64 100 134 161 207 263 331 385
#     4  12  27  43  66  92 131 177 224 271 327 392
#     4  10  21  39  66 102 128 167 209 268 332 387
#     4  11  21  39  70  98 128 160 216 271 326 386
#
# _framework density 22.445443999999998
#
# number of rings (size 3 to 8) (size 9 to 14) (size 15 to 20)
#    0.000    1.500    2.500    2.250    7.000    0.000 
#    0.000    2.500    0.000    1.500    0.000    0.000 
#    0.000    0.000    0.000    0.000    0.000    0.000 
#
# Total GULP energy -178299.503600 kJ/mol
# GULP energy per Si atom -5571.859487 kJ/mol
# Density = 2.239436 g / cm^3
# Si number density = 22.445444 Si / 1000 Ang^3
#
#
#
# Elastic Constant Matrix: (Units=GPa)
#
#
# Indices 1 2 3 4 5 6 
#
# 1 125.0943 43.2273 18.0278 0.0000 0.0000 0.0000
# 2 43.2273 155.1932 21.8220 0.0000 0.0000 0.0000
# 3 18.0278 21.8220 41.5695 0.0000 0.0000 0.0000
# 4 0.0000 0.0000 0.0000 15.0865 0.0000 0.0000
# 5 0.0000 0.0000 0.0000 0.0000 13.7058 0.0000
# 6 0.0000 0.0000 0.0000 0.0000 0.0000 48.4581
#
#
#
# Elastic Compliance Matrix: (Units=1/GPa)
#
#
# Indices 1 2 3 4 5 6 
#
# 1 0.009145 -0.002148 -0.002838 0.000000 0.000000 0.000000
# 2 -0.002148 0.007462 -0.002985 0.000000 0.000000 0.000000
# 3 -0.002838 -0.002985 0.026854 0.000000 0.000000 0.000000
# 4 0.000000 0.000000 0.000000 0.066284 0.000000 0.000000
# 5 0.000000 0.000000 0.000000 0.000000 0.072962 0.000000
# 6 0.000000 0.000000 0.000000 0.000000 0.000000 0.020636
#
#
# Mechanical properties :
#
#
# Convention : Reuss Voigt Hill
#
# Bulk Modulus (GPa) = 36.34085 54.22345 45.28215
# Shear Modulus (GPa) = 21.88562 31.36874 26.62718
#
# Velocity S-wave (km/s) = 3.12598 3.74244 3.44802
# Velocity P-wave (km/s) = 5.40878 6.54865 6.00582
#
# Compressibility (1/GPa) = 0.02751724
#
# Stress axis : x y z
#
# Youngs Moduli (GPa) = 109.34504 134.01720 37.23802
#
# Poissons Ratio (x) = 0.28790 0.10570
# Poissons Ratio (y) = 0.23490 0.11117
# Poissons Ratio (z) = 0.31037 0.40010
#
# Static dielectric constant tensor:
#      x y z
#    x 1.945120 0.000000 0.000000 
#    y 0.000000 1.899730 0.000000 
#    z 0.000000 0.000000 1.833710 
# 
# From -- ./inp_files/35778.got.cif
#   From: 2010.05.17/outbox.cif.g08.bks.cpg/sg68_18_cif.got.tgz:35778.got - 2010.06.03 18:57:09.
