data_PCOD9507103
_publ_section_title
;
Structure prediction by ZEFSAII (Michael W. Deem and Ramdas Pophale) SiO2 
 PCOD9507103
Probable space group: C C C A
;
_chemical_formula_sum "Si O2"
_cell_formula_units_Z 92
_cell_length_a 25.644998
_cell_length_b 16.118252
_cell_length_c 9.606328
_cell_angle_alpha 90.000000
_cell_angle_beta 90.000000
_cell_angle_gamma 90.000000
_cell_volume 3970.800082
_symmetry_space_group_name_H-M "C C C A"
_symmetry_group_IT_number 68
_space_group.IT_coordinate_system_code '2'
_symmetry_cell_setting 'orthorhombic'
loop_
_space_group_symop_operation_xyz
x,y,z
-x,1/2-y,z
x,1/2-y,1/2-z
-x,y,1/2-z
-x,-y,-z
x,1/2+y,-z
-x,1/2+y,1/2+z
x,-y,1/2+z
1/2+x,1/2+y,z
1/2-x,-y,z
1/2+x,-y,1/2-z
1/2-x,1/2+y,1/2-z
1/2-x,1/2-y,-z
1/2+x,y,-z
1/2-x,y,1/2+z
1/2+x,1/2-y,1/2+z
loop_
_atom_site_type_symbol
_atom_site_label
_atom_site_fract_x
_atom_site_fract_y
_atom_site_fract_z
Si Si1 0.250059 0.250000 0.750000
Si Si2 0.877113 0.461008 0.574091
Si Si3 0.074412 0.148529 0.049753
Si Si4 0.687879 0.324749 0.511208
Si Si5 0.012193 0.424541 0.899230
Si Si6 0.690577 0.987210 0.655375
Si Si7 0.000000 0.250000 0.250000
O O1 0.287350 0.188030 0.663624
O O2 0.215344 0.281008 0.620781
O O3 0.902867 0.554699 0.576512
O O4 0.927617 0.401836 0.581307
O O5 0.842404 0.455380 0.713080
O O6 0.843554 0.446110 0.432828
O O7 0.039430 0.189381 0.168143
O O8 0.127150 0.197691 0.017873
O O9 0.032474 0.142780 0.925794
O O10 0.694984 0.419402 0.466787
O O11 0.000000 0.459944 0.750000
O O12 0.000000 0.500000 0.000000
O O13 0.750000 0.000000 0.699964
#
# Coordination Sequence:
#
# PCOD9507103 Si02
#       7
#     8  16  16  16  16  16   4
#     4  10  23  44  74  86 134 182 217 270 332 398
#     4  10  22  39  65  95 134 169 210 275 342 390
#     4  10  24  42  64  95 138 169 235 270 328 409
#     4  10  23  45  65  99 129 173 225 270 330 406
#     4  10  20  38  65  95 127 171 213 268 334 399
#     4  11  24  39  64 104 131 165 218 279 329 396
#     4  12  26  44  66  96 132 188 232 274 320 418
#
# _framework density 23.169135000000001
#
# number of rings (size 3 to 8) (size 9 to 14) (size 15 to 20)
#    0.000    1.739    0.000    4.174   14.609    0.000 
#    6.261    0.000    0.000    0.000    0.000    0.000 
#    0.000    0.000    0.000    0.000    0.000    0.000 
#
# Total GULP energy -256441.739794 kJ/mol
# GULP energy per Si atom -5574.820430 kJ/mol
# Density = 2.311640 g / cm^3
# Si number density = 23.169135 Si / 1000 Ang^3
#
#
#
# Elastic Constant Matrix: (Units=GPa)
#
#
# Indices 1 2 3 4 5 6 
#
# 1 222.6550 11.7359 63.1637 0.0000 0.0000 0.0000
# 2 11.7359 14.8901 -1.4152 0.0000 0.0000 0.0000
# 3 63.1637 -1.4152 125.2657 0.0000 0.0000 0.0000
# 4 0.0000 0.0000 0.0000 -0.7032 0.0000 0.0000
# 5 0.0000 0.0000 0.0000 0.0000 42.9688 0.0000
# 6 0.0000 0.0000 0.0000 0.0000 0.0000 65.5692
#
#
#
# Elastic Compliance Matrix: (Units=1/GPa)
#
#
# Indices 1 2 3 4 5 6 
#
# 1 0.005544 -0.004640 -0.002848 0.000000 0.000000 0.000000
# 2 -0.004640 0.071115 0.003143 0.000000 0.000000 0.000000
# 3 -0.002848 0.003143 0.009454 0.000000 0.000000 0.000000
# 4 0.000000 0.000000 0.000000 -1.421996 0.000000 0.000000
# 5 0.000000 0.000000 0.000000 0.000000 0.023273 0.000000
# 6 0.000000 0.000000 0.000000 0.000000 0.000000 0.015251
#
#
# Mechanical properties :
#
#
# Convention : Reuss Voigt Hill
#
# Bulk Modulus (GPa) = 12.91597 56.64219 34.77908
# Shear Modulus (GPa) = -3.95926 40.85536 18.44805
#
# Velocity S-wave (km/s) = -1.30865 4.20379 2.82482
# Velocity P-wave (km/s) = 1.81751 6.93273 5.06784
#
# Compressibility (1/GPa) = 0.07742352
#
# Stress axis : x y z
#
# Youngs Moduli (GPa) = 180.38531 14.06178 105.76988
#
# Poissons Ratio (x) = 0.06525 0.30121
# Poissons Ratio (y) = 0.83699 -0.33244
# Poissons Ratio (z) = 0.51369 -0.04420
#
# Static dielectric constant tensor:
#      x y z
#    x 2.002050 0.000000 0.000000 
#    y 0.000000 2.035380 0.000000 
#    z 0.000000 0.000000 1.866200 
# 
# From -- ./inp_files/8038.got.cif
#   From: 2010.05.17/outbox.cif.g08.bks.cpg/sg68_5_cif.got.tgz:8038.got - 2010.06.03 18:57:09.
