data_PCOD9507521
_publ_section_title
;
Structure prediction by ZEFSAII (Michael W. Deem and Ramdas Pophale) SiO2 
 PCOD9507521
Probable space group: C C C A
;
_chemical_formula_sum "Si O2"
_cell_formula_units_Z 112
_cell_length_a 20.759045
_cell_length_b 23.401319
_cell_length_c 11.759336
_cell_angle_alpha 90.000000
_cell_angle_beta 90.000000
_cell_angle_gamma 90.000000
_cell_volume 5712.556478
_symmetry_space_group_name_H-M "C C C A"
_symmetry_group_IT_number 68
_space_group.IT_coordinate_system_code '2'
_symmetry_cell_setting 'orthorhombic'
loop_
_space_group_symop_operation_xyz
x,y,z
-x,1/2-y,z
x,1/2-y,1/2-z
-x,y,1/2-z
-x,-y,-z
x,1/2+y,-z
-x,1/2+y,1/2+z
x,-y,1/2+z
1/2+x,1/2+y,z
1/2-x,-y,z
1/2+x,-y,1/2-z
1/2-x,1/2+y,1/2-z
1/2-x,1/2-y,-z
1/2+x,y,-z
1/2-x,y,1/2+z
1/2+x,1/2-y,1/2+z
loop_
_atom_site_type_symbol
_atom_site_label
_atom_site_fract_x
_atom_site_fract_y
_atom_site_fract_z
Si Si1 0.477424 0.125264 0.620349
Si Si2 0.173275 0.058732 0.922656
Si Si3 0.620981 0.041040 0.843652
Si Si4 0.685201 0.424009 0.877351
Si Si5 0.077493 0.261406 0.380086
Si Si6 0.398881 0.845072 0.525616
Si Si7 0.577247 0.583027 0.737686
O O1 0.500000 0.136868 0.750000
O O2 0.448769 0.062486 0.617300
O O3 0.421780 0.171499 0.593593
O O4 0.536252 0.132143 0.535595
O O5 0.238297 0.083433 0.868051
O O6 0.111793 0.085742 0.860171
O O7 0.174393 0.990488 0.904956
O O8 0.170182 0.059153 0.058272
O O9 0.642689 0.078992 0.736192
O O10 0.611328 0.973977 0.816944
O O11 0.658341 0.381989 0.971933
O O12 0.100451 0.250000 0.250000
O O13 0.106277 0.219411 0.475761
O O14 0.000000 0.250000 0.380378
O O15 0.407107 0.862671 0.656989
O O16 0.500000 0.576068 0.750000
#
# Coordination Sequence:
#
# PCOD9507521 Si02
#       7
#    16  16  16  16  16  16  16
#     4  11  18  31  56  91 117 144 198 253 295 346
#     4  10  23  36  54  79 121 160 203 240 291 374
#     4  11  21  35  58  82 119 158 201 246 298 358
#     4  10  21  35  54  84 107 161 209 247 288 349
#     4   9  15  30  53  84 112 140 189 248 289 339
#     4  11  20  34  58  84 121 151 192 255 304 346
#     4  11  24  37  54  87 127 161 194 246 315 373
#
# _framework density 19.605931999999999
#
# number of rings (size 3 to 8) (size 9 to 14) (size 15 to 20)
#    0.000    1.571    5.714    1.286    4.000    2.286 
#    0.000    0.000    0.000   10.714    3.714    0.000 
#    0.000    0.000    0.000    0.000    0.000    0.000 
#
# Total GULP energy -311906.862574 kJ/mol
# GULP energy per Si atom -5569.765403 kJ/mol
# Density = 1.956131 g / cm^3
# Si number density = 19.605932 Si / 1000 Ang^3
#
#
#
# Elastic Constant Matrix: (Units=GPa)
#
#
# Indices 1 2 3 4 5 6 
#
# 1 53.3223 2.9335 6.2969 0.0000 0.0000 0.0000
# 2 2.9335 58.9231 6.9621 0.0000 0.0000 0.0000
# 3 6.2969 6.9621 63.5363 0.0000 0.0000 0.0000
# 4 0.0000 0.0000 0.0000 24.1164 0.0000 0.0000
# 5 0.0000 0.0000 0.0000 0.0000 13.7725 0.0000
# 6 0.0000 0.0000 0.0000 0.0000 0.0000 15.0662
#
#
#
# Elastic Compliance Matrix: (Units=1/GPa)
#
#
# Indices 1 2 3 4 5 6 
#
# 1 0.019007 -0.000733 -0.001803 0.000000 0.000000 0.000000
# 2 -0.000733 0.017222 -0.001814 0.000000 0.000000 0.000000
# 3 -0.001803 -0.001814 0.016117 0.000000 0.000000 0.000000
# 4 0.000000 0.000000 0.000000 0.041466 0.000000 0.000000
# 5 0.000000 0.000000 0.000000 0.000000 0.072608 0.000000
# 6 0.000000 0.000000 0.000000 0.000000 0.000000 0.066374
#
#
# Mechanical properties :
#
#
# Convention : Reuss Voigt Hill
#
# Bulk Modulus (GPa) = 22.91276 23.12962 23.02119
# Shear Modulus (GPa) = 19.52790 21.23029 20.37910
#
# Velocity S-wave (km/s) = 3.15940 3.29424 3.22753
# Velocity P-wave (km/s) = 5.00211 5.12759 5.06524
#
# Compressibility (1/GPa) = 0.04364380
#
# Stress axis : x y z
#
# Youngs Moduli (GPa) = 52.61173 58.06470 62.04786
#
# Poissons Ratio (x) = 0.04257 0.11190
# Poissons Ratio (y) = 0.03857 0.11258
# Poissons Ratio (z) = 0.09488 0.10536
#
# Static dielectric constant tensor:
#      x y z
#    x 1.707900 0.000000 0.000000 
#    y 0.000000 1.731390 0.000000 
#    z 0.000000 0.000000 1.764820 
# 
# From -- ./inp_files/15763.got.cif
#   From: 2010.05.17/outbox.cif.g08.bks.cpg/sg68_8_cif.got.tgz:15763.got - 2010.06.03 18:57:09.
