data_PCOD9507725
_publ_section_title
;
Structure prediction by ZEFSAII (Michael W. Deem and Ramdas Pophale) SiO2 
 PCOD9507725
Probable space group: C C C A
;
_chemical_formula_sum "Si O2"
_cell_formula_units_Z 56
_cell_length_a 17.194694
_cell_length_b 27.866666
_cell_length_c 5.070742
_cell_angle_alpha 90.000000
_cell_angle_beta 90.000000
_cell_angle_gamma 90.000000
_cell_volume 2429.690625
_symmetry_space_group_name_H-M "C C C A"
_symmetry_group_IT_number 68
_space_group.IT_coordinate_system_code '2'
_symmetry_cell_setting 'orthorhombic'
loop_
_space_group_symop_operation_xyz
x,y,z
-x,1/2-y,z
x,1/2-y,1/2-z
-x,y,1/2-z
-x,-y,-z
x,1/2+y,-z
-x,1/2+y,1/2+z
x,-y,1/2+z
1/2+x,1/2+y,z
1/2-x,-y,z
1/2+x,-y,1/2-z
1/2-x,1/2+y,1/2-z
1/2-x,1/2-y,-z
1/2+x,y,-z
1/2-x,y,1/2+z
1/2+x,1/2-y,1/2+z
loop_
_atom_site_type_symbol
_atom_site_label
_atom_site_fract_x
_atom_site_fract_y
_atom_site_fract_z
Si Si1 0.309736 0.250000 0.250000
Si Si2 0.051686 0.573426 0.988884
Si Si3 0.218420 0.052808 0.840796
Si Si4 0.945293 0.683439 0.503181
O O1 0.250000 0.250000 0.500000
O O2 0.371696 0.212161 0.385372
O O3 0.132366 0.548190 0.050286
O O4 0.075405 0.628464 0.924163
O O5 0.000000 0.572795 0.250000
O O6 0.000000 0.553798 0.750000
O O7 0.226727 0.077751 0.557576
O O8 0.250000 0.000000 0.773978
O O9 0.000000 0.681428 0.250000
O O10 0.000000 0.700129 0.750000
#
# Coordination Sequence:
#
# PCOD9507725 Si02
#       4
#     8  16  16  16
#     4  12  25  38  59  96 128 156 202 262 317 372
#     4  10  21  39  63  88 115 158 213 256 295 363
#     4  10  21  38  57  85 121 157 194 245 316 370
#     4  10  22  41  63  86 120 167 209 251 310 376
#
# _framework density 23.048200000000001
#
# number of rings (size 3 to 8) (size 9 to 14) (size 15 to 20)
#    0.000    1.714    0.000    3.857    0.000    3.429 
#    0.000   17.143    0.000    0.000    0.000    0.000 
#    0.000    0.000    0.000    0.000    0.000    0.000 
#
# Total GULP energy -155884.194800 kJ/mol
# GULP energy per Si atom -5567.292671 kJ/mol
# Density = 2.299574 g / cm^3
# Si number density = 23.048200 Si / 1000 Ang^3
#
#
#
# Elastic Constant Matrix: (Units=GPa)
#
#
# Indices 1 2 3 4 5 6 
#
# 1 149.2812 43.1476 21.6223 0.0000 0.0000 0.0000
# 2 43.1476 56.8164 -0.1062 0.0000 0.0000 0.0000
# 3 21.6223 -0.1062 169.1535 0.0000 0.0000 0.0000
# 4 0.0000 0.0000 0.0000 60.3180 0.0000 0.0000
# 5 0.0000 0.0000 0.0000 0.0000 55.7000 0.0000
# 6 0.0000 0.0000 0.0000 0.0000 0.0000 -46.3374
#
#
#
# Elastic Compliance Matrix: (Units=1/GPa)
#
#
# Indices 1 2 3 4 5 6 
#
# 1 0.008793 -0.006680 -0.001128 0.000000 0.000000 0.000000
# 2 -0.006680 0.022675 0.000868 0.000000 0.000000 0.000000
# 3 -0.001128 0.000868 0.006057 0.000000 0.000000 0.000000
# 4 0.000000 0.000000 0.000000 0.016579 0.000000 0.000000
# 5 0.000000 0.000000 0.000000 0.000000 0.017953 0.000000
# 6 0.000000 0.000000 0.000000 0.000000 0.000000 -0.021581
#
#
# Mechanical properties :
#
#
# Convention : Reuss Voigt Hill
#
# Bulk Modulus (GPa) = 42.29251 56.06427 49.17839
# Shear Modulus (GPa) = 69.21726 34.64194 51.92960
#
# Velocity S-wave (km/s) = 5.48605 3.88109 4.75182
# Velocity P-wave (km/s) = 7.64973 6.66794 7.17565
#
# Compressibility (1/GPa) = 0.02364485
#
# Stress axis : x y z
#
# Youngs Moduli (GPa) = 113.72942 44.10185 165.11075
#
# Poissons Ratio (x) = 0.29458 0.18627
# Poissons Ratio (y) = 0.75966 -0.14333
# Poissons Ratio (z) = 0.12830 -0.03828
#
# Static dielectric constant tensor:
#      x y z
#    x 1.842450 0.000000 0.000000 
#    y 0.000000 2.095410 0.000000 
#    z 0.000000 0.000000 2.030850 
# 
# From -- ./inp_files/675.got.cif
#   From: 2010.05.17/outbox.cif.g08.bks.cpg/sg68_1_cif.got.tgz:675.got - 2010.06.03 18:57:09.
