data_PCOD9507805
_publ_section_title
;
Structure prediction by ZEFSAII (Michael W. Deem and Ramdas Pophale) SiO2 
 PCOD9507805
Probable space group: C C C A
;
_chemical_formula_sum "Si O2"
_cell_formula_units_Z 56
_cell_length_a 13.080233
_cell_length_b 18.841690
_cell_length_c 9.092557
_cell_angle_alpha 90.000000
_cell_angle_beta 90.000000
_cell_angle_gamma 90.000000
_cell_volume 2240.894273
_symmetry_space_group_name_H-M "C C C A"
_symmetry_group_IT_number 68
_space_group.IT_coordinate_system_code '2'
_symmetry_cell_setting 'orthorhombic'
loop_
_space_group_symop_operation_xyz
x,y,z
-x,1/2-y,z
x,1/2-y,1/2-z
-x,y,1/2-z
-x,-y,-z
x,1/2+y,-z
-x,1/2+y,1/2+z
x,-y,1/2+z
1/2+x,1/2+y,z
1/2-x,-y,z
1/2+x,-y,1/2-z
1/2-x,1/2+y,1/2-z
1/2-x,1/2-y,-z
1/2+x,y,-z
1/2-x,y,1/2+z
1/2+x,1/2-y,1/2+z
loop_
_atom_site_type_symbol
_atom_site_label
_atom_site_fract_x
_atom_site_fract_y
_atom_site_fract_z
Si Si1 0.750000 0.000000 0.985337
Si Si2 0.661254 0.170392 0.738023
Si Si3 0.857486 0.369960 0.921298
Si Si4 0.939732 0.574740 0.016351
O O1 0.813920 0.949094 0.090075
O O2 0.665179 0.951108 0.907444
O O3 0.619284 0.250000 0.750000
O O4 0.777083 0.175093 0.672425
O O5 0.598438 0.117234 0.629810
O O6 0.657993 0.144381 0.904763
O O7 0.979564 0.373437 0.904413
O O8 0.000000 0.500000 0.000000
#
# Coordination Sequence:
#
# PCOD9507805 Si02
#       4
#     8  16  16  16
#     4   8  18  36  60  92 126 164 222 294 356 420
#     4  11  23  41  63  94 135 184 236 296 369 455
#     4  10  21  38  64  94 131 177 229 293 364 441
#     4   9  19  38  64  96 128 172 235 302 367 438
#
# _framework density 24.990023000000001
#
# number of rings (size 3 to 8) (size 9 to 14) (size 15 to 20)
#    0.000    2.286    0.000    1.714    0.000    9.143 
#    0.000   20.000    0.000    6.857    0.000    0.000 
#    0.000    0.000    0.000    0.000    0.000    0.000 
#
# Total GULP energy -156015.904404 kJ/mol
# GULP energy per Si atom -5571.996586 kJ/mol
# Density = 2.493314 g / cm^3
# Si number density = 24.990023 Si / 1000 Ang^3
#
#
#
# Elastic Constant Matrix: (Units=GPa)
#
#
# Indices 1 2 3 4 5 6 
#
# 1 215.5702 28.7085 58.4342 0.0000 0.0000 0.0000
# 2 28.7085 132.6222 60.8574 0.0000 0.0000 0.0000
# 3 58.4342 60.8574 194.3049 0.0000 0.0000 0.0000
# 4 0.0000 0.0000 0.0000 27.0150 0.0000 0.0000
# 5 0.0000 0.0000 0.0000 0.0000 24.0402 0.0000
# 6 0.0000 0.0000 0.0000 0.0000 0.0000 23.1310
#
#
#
# Elastic Compliance Matrix: (Units=1/GPa)
#
#
# Indices 1 2 3 4 5 6 
#
# 1 0.005075 -0.000465 -0.001381 0.000000 0.000000 0.000000
# 2 -0.000465 0.008848 -0.002632 0.000000 0.000000 0.000000
# 3 -0.001381 -0.002632 0.006386 0.000000 0.000000 0.000000
# 4 0.000000 0.000000 0.000000 0.037016 0.000000 0.000000
# 5 0.000000 0.000000 0.000000 0.000000 0.041597 0.000000
# 6 0.000000 0.000000 0.000000 0.000000 0.000000 0.043232
#
#
# Mechanical properties :
#
#
# Convention : Reuss Voigt Hill
#
# Bulk Modulus (GPa) = 88.06626 93.16637 90.61632
# Shear Modulus (GPa) = 32.28009 41.13706 36.70858
#
# Velocity S-wave (km/s) = 3.59795 4.06167 3.83682
# Velocity P-wave (km/s) = 7.25103 7.70445 7.48117
#
# Compressibility (1/GPa) = 0.01135509
#
# Stress axis : x y z
#
# Youngs Moduli (GPa) = 197.04345 113.01433 156.59394
#
# Poissons Ratio (x) = 0.05256 0.21619
# Poissons Ratio (y) = 0.09164 0.41208
# Poissons Ratio (z) = 0.27203 0.29740
#
# Static dielectric constant tensor:
#      x y z
#    x 2.127800 0.000000 0.000000 
#    y 0.000000 2.074260 0.000000 
#    z 0.000000 0.000000 1.946790 
# 
# From -- ./inp_files/4786.got.cif
#   From: 2010.05.17/outbox.cif.g08.bks.cpg/sg68_3_cif.got.tgz:4786.got - 2010.06.03 18:57:09.
