data_PCOD9507929
_publ_section_title
;
Structure prediction by ZEFSAII (Michael W. Deem and Ramdas Pophale) SiO2 
 PCOD9507929
Probable space group: C C C A
;
_chemical_formula_sum "Si O2"
_cell_formula_units_Z 52
_cell_length_a 8.776666
_cell_length_b 29.405293
_cell_length_c 9.687145
_cell_angle_alpha 90.000000
_cell_angle_beta 90.000000
_cell_angle_gamma 90.000000
_cell_volume 2500.062598
_symmetry_space_group_name_H-M "C C C A"
_symmetry_group_IT_number 68
_space_group.IT_coordinate_system_code '2'
_symmetry_cell_setting 'orthorhombic'
loop_
_space_group_symop_operation_xyz
x,y,z
-x,1/2-y,z
x,1/2-y,1/2-z
-x,y,1/2-z
-x,-y,-z
x,1/2+y,-z
-x,1/2+y,1/2+z
x,-y,1/2+z
1/2+x,1/2+y,z
1/2-x,-y,z
1/2+x,-y,1/2-z
1/2-x,1/2+y,1/2-z
1/2-x,1/2-y,-z
1/2+x,y,-z
1/2-x,y,1/2+z
1/2+x,1/2-y,1/2+z
loop_
_atom_site_type_symbol
_atom_site_label
_atom_site_fract_x
_atom_site_fract_y
_atom_site_fract_z
Si Si1 0.193360 0.332061 0.164364
Si Si2 0.605626 0.869902 0.452146
Si Si3 0.597778 0.971998 0.389275
Si Si4 0.000000 0.250000 0.250000
O O1 0.194544 0.347652 0.322674
O O2 0.112434 0.282806 0.163779
O O3 0.071173 0.363962 0.085958
O O4 0.348925 0.341365 0.086331
O O5 0.639164 0.923219 0.455222
O O6 0.500000 0.964625 0.250000
O O7 0.500000 0.000000 0.500000
O O8 0.750000 0.000000 0.355705
#
# Coordination Sequence:
#
# PCOD9507929 Si02
#       4
#    16  16  16   4
#     4  10  21  39  64  85 127 154 204 257 311 380
#     4  10  22  41  58  89 123 164 201 256 318 367
#     4  12  25  41  63  92 129 171 219 266 315 382
#     4   8  20  40  64  96 116 160 204 264 316 376
#
# _framework density 20.799479000000002
#
# number of rings (size 3 to 8) (size 9 to 14) (size 15 to 20)
#    0.000    1.846    3.077    2.769    4.308    6.154 
#    0.000    0.000    0.000   14.769    0.000    0.000 
#    0.000    0.000    0.000    0.000    0.000    0.000 
#
# Total GULP energy -145175.272635 kJ/mol
# GULP energy per Si atom -5583.664332 kJ/mol
# Density = 2.075214 g / cm^3
# Si number density = 20.799479 Si / 1000 Ang^3
#
#
#
# Elastic Constant Matrix: (Units=GPa)
#
#
# Indices 1 2 3 4 5 6 
#
# 1 39.1593 16.2625 12.8645 0.0000 0.0000 0.0000
# 2 16.2625 141.3148 6.5652 0.0000 0.0000 0.0000
# 3 12.8645 6.5652 65.9641 0.0000 0.0000 0.0000
# 4 0.0000 0.0000 0.0000 7.0456 0.0000 0.0000
# 5 0.0000 0.0000 0.0000 0.0000 24.2173 0.0000
# 6 0.0000 0.0000 0.0000 0.0000 0.0000 22.7101
#
#
#
# Elastic Compliance Matrix: (Units=1/GPa)
#
#
# Indices 1 2 3 4 5 6 
#
# 1 0.028527 -0.003038 -0.005261 0.000000 0.000000 0.000000
# 2 -0.003038 0.007433 -0.000147 0.000000 0.000000 0.000000
# 3 -0.005261 -0.000147 0.016200 0.000000 0.000000 0.000000
# 4 0.000000 0.000000 0.000000 0.141932 0.000000 0.000000
# 5 0.000000 0.000000 0.000000 0.000000 0.041293 0.000000
# 6 0.000000 0.000000 0.000000 0.000000 0.000000 0.044033
#
#
# Mechanical properties :
#
#
# Convention : Reuss Voigt Hill
#
# Bulk Modulus (GPa) = 28.35518 35.31362 31.83440
# Shear Modulus (GPa) = 16.23022 24.84434 20.53728
#
# Velocity S-wave (km/s) = 2.79645 3.45986 3.14569
# Velocity P-wave (km/s) = 4.90806 5.74246 5.34158
#
# Compressibility (1/GPa) = 0.03526692
#
# Stress axis : x y z
#
# Youngs Moduli (GPa) = 35.05471 134.53690 61.72685
#
# Poissons Ratio (x) = 0.40878 0.32474
# Poissons Ratio (y) = 0.10651 0.00909
# Poissons Ratio (z) = 0.18442 0.01981
#
# Static dielectric constant tensor:
#      x y z
#    x 1.755810 0.000000 0.000000 
#    y 0.000000 1.741400 0.000000 
#    z 0.000000 0.000000 1.744950 
# 
# From -- ./inp_files/8481.got.cif
#   From: 2010.05.17/outbox.cif.g08.bks.cpg/sg68_5_cif.got.tgz:8481.got - 2010.06.03 18:57:09.
