data_PCOD9507067
_publ_section_title
;
Structure prediction by ZEFSAII (Michael W. Deem and Ramdas Pophale) SiO2 
 PCOD9507067
Probable space group: C C C A
;
_chemical_formula_sum "Si O2"
_cell_formula_units_Z 72
_cell_length_a 16.389288
_cell_length_b 10.198825
_cell_length_c 17.985200
_cell_angle_alpha 90.000000
_cell_angle_beta 90.000000
_cell_angle_gamma 90.000000
_cell_volume 3006.252801
_symmetry_space_group_name_H-M "C C C A"
_symmetry_group_IT_number 68
_space_group.IT_coordinate_system_code '2'
_symmetry_cell_setting 'orthorhombic'
loop_
_space_group_symop_operation_xyz
x,y,z
-x,1/2-y,z
x,1/2-y,1/2-z
-x,y,1/2-z
-x,-y,-z
x,1/2+y,-z
-x,1/2+y,1/2+z
x,-y,1/2+z
1/2+x,1/2+y,z
1/2-x,-y,z
1/2+x,-y,1/2-z
1/2-x,1/2+y,1/2-z
1/2-x,1/2-y,-z
1/2+x,y,-z
1/2-x,y,1/2+z
1/2+x,1/2-y,1/2+z
loop_
_atom_site_type_symbol
_atom_site_label
_atom_site_fract_x
_atom_site_fract_y
_atom_site_fract_z
Si Si1 0.681106 0.096835 0.159777
Si Si2 0.498467 0.602712 0.864292
Si Si3 0.000000 0.750000 0.506582
Si Si4 0.422876 0.164681 0.649473
Si Si5 0.740507 0.640522 0.670708
O O1 0.590425 0.049605 0.144067
O O2 0.701072 0.112813 0.248082
O O3 0.689492 0.246079 0.131135
O O4 0.750000 0.000000 0.129740
O O5 0.500000 0.750000 0.830154
O O6 0.477199 0.634129 0.949887
O O7 0.441292 0.488263 0.834900
O O8 0.929915 0.697360 0.561370
O O9 0.500000 0.250000 0.676545
O O10 0.332781 0.194817 0.676846
O O11 0.750000 0.500000 0.632148
#
# Coordination Sequence:
#
# PCOD9507067 Si02
#       5
#    16  16   8  16  16
#     4  10  21  39  58  85 125 153 191 246 303 357
#     4  10  20  38  63  86 116 155 202 243 290 349
#     4   8  22  36  66  84 118 152 210 248 274 348
#     4  10  20  38  63  86 116 155 202 243 290 349
#     4  10  21  39  58  85 125 153 191 246 303 357
#
# _framework density 23.950082999999999
#
# number of rings (size 3 to 8) (size 9 to 14) (size 15 to 20)
#    1.333    0.889    0.000    3.333    0.000    0.000 
#    0.000   28.889    0.000    0.000    0.000    0.000 
#    0.000    0.000    0.000    0.000    0.000    0.000 
#
# Total GULP energy -200785.439481 kJ/mol
# GULP energy per Si atom -5577.373319 kJ/mol
# Density = 2.389557 g / cm^3
# Si number density = 23.950083 Si / 1000 Ang^3
#
#
#
# Elastic Constant Matrix: (Units=GPa)
#
#
# Indices 1 2 3 4 5 6 
#
# 1 129.3051 -5.0807 21.4209 0.0000 0.0000 0.0000
# 2 -5.0807 91.7030 19.1494 0.0000 0.0000 0.0000
# 3 21.4209 19.1494 80.7678 0.0000 0.0000 0.0000
# 4 0.0000 0.0000 0.0000 -16.9259 0.0000 0.0000
# 5 0.0000 0.0000 0.0000 0.0000 6.1028 0.0000
# 6 0.0000 0.0000 0.0000 0.0000 0.0000 41.4044
#
#
#
# Elastic Compliance Matrix: (Units=1/GPa)
#
#
# Indices 1 2 3 4 5 6 
#
# 1 0.008167 0.000952 -0.002392 0.000000 0.000000 0.000000
# 2 0.000952 0.011584 -0.002999 0.000000 0.000000 0.000000
# 3 -0.002392 -0.002999 0.013727 0.000000 0.000000 0.000000
# 4 0.000000 0.000000 0.000000 -0.059081 0.000000 0.000000
# 5 0.000000 0.000000 0.000000 0.000000 0.163860 0.000000
# 6 0.000000 0.000000 0.000000 0.000000 0.000000 0.024152
#
#
# Mechanical properties :
#
#
# Convention : Reuss Voigt Hill
#
# Bulk Modulus (GPa) = 40.65023 41.41721 41.03372
# Shear Modulus (GPa) = 27.85726 23.86868 25.86297
#
# Velocity S-wave (km/s) = 3.41418 3.16032 3.28970
# Velocity P-wave (km/s) = 5.70543 5.53602 5.62136
#
# Compressibility (1/GPa) = 0.02460011
#
# Stress axis : x y z
#
# Youngs Moduli (GPa) = 122.43983 86.32788 72.85162
#
# Poissons Ratio (x) = -0.08218 0.17425
# Poissons Ratio (y) = -0.11656 0.21847
# Poissons Ratio (z) = 0.29285 0.25889
#
# Static dielectric constant tensor:
#      x y z
#    x 1.863140 0.000000 0.000000 
#    y 0.000000 2.015400 0.000000 
#    z 0.000000 0.000000 1.898350 
# 
# From -- ./inp_files/39295.got.cif
#   From: 2010.05.17/outbox.cif.g08.bks.cpg/sg68_20_cif.got.tgz:39295.got - 2010.06.03 18:57:09.
