data_PCOD9507063
_publ_section_title
;
Structure prediction by ZEFSAII (Michael W. Deem and Ramdas Pophale) SiO2 
 PCOD9507063
Probable space group: C C C A
;
_chemical_formula_sum "Si O2"
_cell_formula_units_Z 80
_cell_length_a 15.748323
_cell_length_b 12.655263
_cell_length_c 23.518171
_cell_angle_alpha 90.000000
_cell_angle_beta 90.000000
_cell_angle_gamma 90.000000
_cell_volume 4687.151945
_symmetry_space_group_name_H-M "C C C A"
_symmetry_group_IT_number 68
_space_group.IT_coordinate_system_code '2'
_symmetry_cell_setting 'orthorhombic'
loop_
_space_group_symop_operation_xyz
x,y,z
-x,1/2-y,z
x,1/2-y,1/2-z
-x,y,1/2-z
-x,-y,-z
x,1/2+y,-z
-x,1/2+y,1/2+z
x,-y,1/2+z
1/2+x,1/2+y,z
1/2-x,-y,z
1/2+x,-y,1/2-z
1/2-x,1/2+y,1/2-z
1/2-x,1/2-y,-z
1/2+x,y,-z
1/2-x,y,1/2+z
1/2+x,1/2-y,1/2+z
loop_
_atom_site_type_symbol
_atom_site_label
_atom_site_fract_x
_atom_site_fract_y
_atom_site_fract_z
Si Si1 0.173364 0.080376 0.137205
Si Si2 0.000000 0.750000 0.945632
Si Si3 0.583577 0.557347 0.023011
Si Si4 0.402687 0.122463 0.756074
Si Si5 0.157382 0.670245 0.622657
Si Si6 0.250000 0.000000 0.451941
O O1 0.102458 0.048192 0.090545
O O2 0.145375 0.073333 0.202604
O O3 0.188517 0.207232 0.128228
O O4 0.250000 0.000000 0.127147
O O5 0.938669 0.819822 0.983829
O O6 0.935892 0.682370 0.906494
O O7 0.500000 0.500000 0.000000
O O8 0.668273 0.526141 0.990257
O O9 0.404299 0.250000 0.750000
O O10 0.500000 0.086544 0.750000
O O11 0.359325 0.111523 0.817398
O O12 0.220880 0.599859 0.585764
#
# Coordination Sequence:
#
# PCOD9507063 Si02
#       6
#    16   8  16  16  16   8
#     4  10  21  36  57  85 115 154 193 240 292 347
#     4  10  20  38  63  82 118 157 198 240 292 350
#     4  11  22  38  56  85 120 151 194 236 291 346
#     4   9  17  33  57  82 108 144 193 241 288 339
#     4  10  21  36  58  89 114 148 196 246 290 345
#     4  12  24  36  60  88 122 150 194 246 294 342
#
# _framework density 17.067934000000001
#
# number of rings (size 3 to 8) (size 9 to 14) (size 15 to 20)
#    0.000    1.800    3.000    3.600    1.400    4.800 
#    0.000    0.000    0.000    0.000    0.000    1.400 
#    0.000    0.000    0.000    0.000    0.000    0.000 
#
# Total GULP energy -222693.160402 kJ/mol
# GULP energy per Si atom -5567.329010 kJ/mol
# Density = 1.702909 g / cm^3
# Si number density = 17.067934 Si / 1000 Ang^3
#
#
#
# Elastic Constant Matrix: (Units=GPa)
#
#
# Indices 1 2 3 4 5 6 
#
# 1 120.4188 50.5954 56.0798 0.0000 0.0000 0.0000
# 2 50.5954 60.5596 48.6561 0.0000 0.0000 0.0000
# 3 56.0798 48.6561 112.0159 0.0000 0.0000 0.0000
# 4 0.0000 0.0000 0.0000 21.8148 0.0000 0.0000
# 5 0.0000 0.0000 0.0000 0.0000 18.7646 0.0000
# 6 0.0000 0.0000 0.0000 0.0000 0.0000 29.7900
#
#
#
# Elastic Compliance Matrix: (Units=1/GPa)
#
#
# Indices 1 2 3 4 5 6 
#
# 1 0.013354 -0.008887 -0.002825 0.000000 0.000000 0.000000
# 2 -0.008887 0.031279 -0.009137 0.000000 0.000000 0.000000
# 3 -0.002825 -0.009137 0.014311 0.000000 0.000000 0.000000
# 4 0.000000 0.000000 0.000000 0.045841 0.000000 0.000000
# 5 0.000000 0.000000 0.000000 0.000000 0.053292 0.000000
# 6 0.000000 0.000000 0.000000 0.000000 0.000000 0.033568
#
#
# Mechanical properties :
#
#
# Convention : Reuss Voigt Hill
#
# Bulk Modulus (GPa) = 57.99008 67.07299 62.53153
# Shear Modulus (GPa) = 20.91250 23.25139 22.08195
#
# Velocity S-wave (km/s) = 3.50416 3.69492 3.60080
# Velocity P-wave (km/s) = 7.10084 7.58856 7.34875
#
# Compressibility (1/GPa) = 0.01724433
#
# Stress axis : x y z
#
# Youngs Moduli (GPa) = 74.88357 31.97079 69.87720
#
# Poissons Ratio (x) = 0.28412 0.19744
# Poissons Ratio (y) = 0.66547 0.63849
# Poissons Ratio (z) = 0.21158 0.29213
#
# Static dielectric constant tensor:
#      x y z
#    x 1.582670 0.000000 0.000000 
#    y 0.000000 1.609330 0.000000 
#    z 0.000000 0.000000 1.625460 
# 
# From -- ./inp_files/37375.got.cif
#   From: 2010.05.17/outbox.cif.g08.bks.cpg/sg68_19_cif.got.tgz:37375.got - 2010.06.03 18:57:09.
