data_PCOD9507862
_publ_section_title
;
Structure prediction by ZEFSAII (Michael W. Deem and Ramdas Pophale) SiO2 
 PCOD9507862
Probable space group: C C C A
;
_chemical_formula_sum "Si O2"
_cell_formula_units_Z 92
_cell_length_a 8.519354
_cell_length_b 19.797269
_cell_length_c 29.387798
_cell_angle_alpha 90.000000
_cell_angle_beta 90.000000
_cell_angle_gamma 90.000000
_cell_volume 4956.544331
_symmetry_space_group_name_H-M "C C C A"
_symmetry_group_IT_number 68
_space_group.IT_coordinate_system_code '2'
_symmetry_cell_setting 'orthorhombic'
loop_
_space_group_symop_operation_xyz
x,y,z
-x,1/2-y,z
x,1/2-y,1/2-z
-x,y,1/2-z
-x,-y,-z
x,1/2+y,-z
-x,1/2+y,1/2+z
x,-y,1/2+z
1/2+x,1/2+y,z
1/2-x,-y,z
1/2+x,-y,1/2-z
1/2-x,1/2+y,1/2-z
1/2-x,1/2-y,-z
1/2+x,y,-z
1/2-x,y,1/2+z
1/2+x,1/2-y,1/2+z
loop_
_atom_site_type_symbol
_atom_site_label
_atom_site_fract_x
_atom_site_fract_y
_atom_site_fract_z
Si Si1 0.513303 0.416653 0.371848
Si Si2 0.061801 0.490648 0.449260
Si Si3 0.271407 0.660764 0.687775
Si Si4 0.000000 0.250000 0.750000
Si Si5 0.354035 0.882821 0.123564
Si Si6 0.460560 0.040323 0.801233
Si Si7 0.000000 0.750000 0.648931
O O1 0.532582 0.454098 0.419641
O O2 0.632618 0.358143 0.358003
O O3 0.332843 0.392368 0.374317
O O4 0.538672 0.474462 0.333393
O O5 0.250000 0.500000 0.450849
O O6 0.059478 0.423696 0.417207
O O7 0.000000 0.500000 0.500000
O O8 0.390686 0.699416 0.720781
O O9 0.190587 0.589874 0.702590
O O10 0.128868 0.711289 0.678546
O O11 0.414298 0.913247 0.171653
O O12 0.407716 0.806111 0.120628
O O13 0.500000 0.020678 0.750000
#
# Coordination Sequence:
#
# PCOD9507862 Si02
#       7
#    16  16  16   4  16  16   8
#     4  10  21  39  58  88 117 149 198 246 305 351
#     4   9  19  36  63  93 118 148 187 249 310 362
#     4  11  25  37  56  80 113 160 204 244 291 352
#     4  12  28  38  56  78 112 166 214 242 288 362
#     4   9  20  38  59  85 122 155 192 242 293 357
#     4  10  22  35  57  84 116 149 194 250 303 339
#     4  10  22  41  58  79 118 164 195 244 289 348
#
# _framework density 18.561319000000001
#
# number of rings (size 3 to 8) (size 9 to 14) (size 15 to 20)
#    0.000    2.087    0.000    3.130    8.522    5.565 
#    0.000    0.000    0.000   10.435    0.000    0.000 
#    0.000    0.000    0.000    0.000    0.000    0.000 
#
# Total GULP energy -256157.975281 kJ/mol
# GULP energy per Si atom -5568.651637 kJ/mol
# Density = 1.851907 g / cm^3
# Si number density = 18.561319 Si / 1000 Ang^3
#
#
#
# Elastic Constant Matrix: (Units=GPa)
#
#
# Indices 1 2 3 4 5 6 
#
# 1 87.1675 51.5882 39.8021 0.0000 0.0000 0.0000
# 2 51.5882 92.7696 42.4249 0.0000 0.0000 0.0000
# 3 39.8021 42.4249 143.1645 0.0000 0.0000 0.0000
# 4 0.0000 0.0000 0.0000 9.5943 0.0000 0.0000
# 5 0.0000 0.0000 0.0000 0.0000 20.5970 0.0000
# 6 0.0000 0.0000 0.0000 0.0000 0.0000 39.5925
#
#
#
# Elastic Compliance Matrix: (Units=1/GPa)
#
#
# Indices 1 2 3 4 5 6 
#
# 1 0.017744 -0.008804 -0.002324 0.000000 0.000000 0.000000
# 2 -0.008804 0.016838 -0.002542 0.000000 0.000000 0.000000
# 3 -0.002324 -0.002542 0.008384 0.000000 0.000000 0.000000
# 4 0.000000 0.000000 0.000000 0.104229 0.000000 0.000000
# 5 0.000000 0.000000 0.000000 0.000000 0.048551 0.000000
# 6 0.000000 0.000000 0.000000 0.000000 0.000000 0.025257
#
#
# Mechanical properties :
#
#
# Convention : Reuss Voigt Hill
#
# Bulk Modulus (GPa) = 63.99800 65.63690 64.81745
# Shear Modulus (GPa) = 19.71975 26.57584 23.14779
#
# Velocity S-wave (km/s) = 3.26300 3.78800 3.53526
# Velocity P-wave (km/s) = 6.98214 7.38721 7.18753
#
# Compressibility (1/GPa) = 0.01562549
#
# Stress axis : x y z
#
# Youngs Moduli (GPa) = 56.35669 59.38973 119.26965
#
# Poissons Ratio (x) = 0.52290 0.27719
# Poissons Ratio (y) = 0.49619 0.30317
# Poissons Ratio (z) = 0.13098 0.15096
#
# Static dielectric constant tensor:
#      x y z
#    x 1.685790 0.000000 0.000000 
#    y 0.000000 1.679000 0.000000 
#    z 0.000000 0.000000 1.636350 
# 
# From -- ./inp_files/43196.got.cif
#   From: 2010.05.17/outbox.cif.g08.bks.cpg/sg68_22_cif.got.tgz:43196.got - 2010.06.03 18:57:09.
