data_PCOD9507111
_publ_section_title
;
Structure prediction by ZEFSAII (Michael W. Deem and Ramdas Pophale) SiO2 
 PCOD9507111
Probable space group: C C C A
;
_chemical_formula_sum "Si O2"
_cell_formula_units_Z 80
_cell_length_a 18.887028
_cell_length_b 19.853572
_cell_length_c 8.786815
_cell_angle_alpha 90.000000
_cell_angle_beta 90.000000
_cell_angle_gamma 90.000000
_cell_volume 3294.835693
_symmetry_space_group_name_H-M "C C C A"
_symmetry_group_IT_number 68
_space_group.IT_coordinate_system_code '2'
_symmetry_cell_setting 'orthorhombic'
loop_
_space_group_symop_operation_xyz
x,y,z
-x,1/2-y,z
x,1/2-y,1/2-z
-x,y,1/2-z
-x,-y,-z
x,1/2+y,-z
-x,1/2+y,1/2+z
x,-y,1/2+z
1/2+x,1/2+y,z
1/2-x,-y,z
1/2+x,-y,1/2-z
1/2-x,1/2+y,1/2-z
1/2-x,1/2-y,-z
1/2+x,y,-z
1/2-x,y,1/2+z
1/2+x,1/2-y,1/2+z
loop_
_atom_site_type_symbol
_atom_site_label
_atom_site_fract_x
_atom_site_fract_y
_atom_site_fract_z
Si Si1 0.250000 0.750000 0.000000
Si Si2 0.378719 0.689848 0.969342
Si Si3 0.727129 0.872845 0.719151
Si Si4 0.402379 0.438619 0.050329
Si Si5 0.882468 0.921382 0.706963
Si Si6 0.000000 0.843411 0.250000
O O1 0.338431 0.757937 0.009717
O O2 0.248371 0.804523 0.861198
O O3 0.313328 0.652185 0.873482
O O4 0.443069 0.695028 0.853862
O O5 0.400483 0.645248 0.112016
O O6 0.673410 0.912141 0.611426
O O7 0.797632 0.916639 0.740308
O O8 0.414990 0.430769 0.872104
O O9 0.403217 0.516150 0.100937
O O10 0.457294 0.392815 0.139513
#
# Coordination Sequence:
#
# PCOD9507111 Si02
#       6
#     8  16  16  16  16   8
#     4  10  20  38  66  92 118 160 214 270 322 374
#     4  10  22  40  64  92 128 167 215 271 332 400
#     4  10  21  39  62  93 125 163 215 272 326 384
#     4  11  23  38  60  90 129 170 214 267 330 402
#     4  11  22  37  62  92 125 169 215 268 326 391
#     4  10  24  44  61  92 130 172 217 266 340 414
#
# _framework density 24.280421
#
# number of rings (size 3 to 8) (size 9 to 14) (size 15 to 20)
#    0.000    1.600    0.000    6.000    0.000    7.200 
#    0.000    8.000    0.000    0.000    0.000   14.000 
#    0.000    0.000    0.000    0.000    0.000    0.000 
#
# Total GULP energy -223048.209909 kJ/mol
# GULP energy per Si atom -5576.205248 kJ/mol
# Density = 2.422516 g / cm^3
# Si number density = 24.280421 Si / 1000 Ang^3
#
#
#
# Elastic Constant Matrix: (Units=GPa)
#
#
# Indices 1 2 3 4 5 6 
#
# 1 112.1355 -2.4646 27.1272 0.0000 0.0000 0.0000
# 2 -2.4646 32.3102 25.3325 0.0000 0.0000 0.0000
# 3 27.1272 25.3325 170.8452 0.0000 0.0000 0.0000
# 4 0.0000 0.0000 0.0000 -11.1834 0.0000 0.0000
# 5 0.0000 0.0000 0.0000 0.0000 567.5274 0.0000
# 6 0.0000 0.0000 0.0000 0.0000 0.0000 61.0404
#
#
#
# Elastic Compliance Matrix: (Units=1/GPa)
#
#
# Indices 1 2 3 4 5 6 
#
# 1 0.009403 0.002136 -0.001810 0.000000 0.000000 0.000000
# 2 0.002136 0.035507 -0.005604 0.000000 0.000000 0.000000
# 3 -0.001810 -0.005604 0.006972 0.000000 0.000000 0.000000
# 4 0.000000 0.000000 0.000000 -0.089418 0.000000 0.000000
# 5 0.000000 0.000000 0.000000 0.000000 0.001762 0.000000
# 6 0.000000 0.000000 0.000000 0.000000 0.000000 0.016383
#
#
# Mechanical properties :
#
#
# Convention : Reuss Voigt Hill
#
# Bulk Modulus (GPa) = 24.19817 46.14236 35.17026
# Shear Modulus (GPa) = 1012.70556 141.16327 576.93442
#
# Velocity S-wave (km/s) = 20.44487 7.63315 15.43142
# Velocity P-wave (km/s) = 23.81830 9.83523 18.22146
#
# Compressibility (1/GPa) = 0.04132545
#
# Stress axis : x y z
#
# Youngs Moduli (GPa) = 106.35450 28.16374 143.44014
#
# Poissons Ratio (x) = -0.06016 0.25958
# Poissons Ratio (y) = -0.22718 0.80384
# Poissons Ratio (z) = 0.19247 0.15783
#
# Static dielectric constant tensor:
#      x y z
#    x 1.977560 0.000000 0.000000 
#    y 0.000000 1.245660 0.000000 
#    z 0.000000 0.000000 1.920150 
# 
# From -- ./inp_files/7061.got.cif
#   From: 2010.05.17/outbox.cif.g08.bks.cpg/sg68_4_cif.got.tgz:7061.got - 2010.06.03 18:57:09.
