data_PCOD9507033
_publ_section_title
;
Structure prediction by ZEFSAII (Michael W. Deem and Ramdas Pophale) SiO2 
 PCOD9507033
Probable space group: C C C A
;
_chemical_formula_sum "Si O2"
_cell_formula_units_Z 112
_cell_length_a 14.061392
_cell_length_b 23.966614
_cell_length_c 14.702054
_cell_angle_alpha 90.000000
_cell_angle_beta 90.000000
_cell_angle_gamma 90.000000
_cell_volume 4954.650335
_symmetry_space_group_name_H-M "C C C A"
_symmetry_group_IT_number 68
_space_group.IT_coordinate_system_code '2'
_symmetry_cell_setting 'orthorhombic'
loop_
_space_group_symop_operation_xyz
x,y,z
-x,1/2-y,z
x,1/2-y,1/2-z
-x,y,1/2-z
-x,-y,-z
x,1/2+y,-z
-x,1/2+y,1/2+z
x,-y,1/2+z
1/2+x,1/2+y,z
1/2-x,-y,z
1/2+x,-y,1/2-z
1/2-x,1/2+y,1/2-z
1/2-x,1/2-y,-z
1/2+x,y,-z
1/2-x,y,1/2+z
1/2+x,1/2-y,1/2+z
loop_
_atom_site_type_symbol
_atom_site_label
_atom_site_fract_x
_atom_site_fract_y
_atom_site_fract_z
Si Si1 0.849605 0.862065 0.066580
Si Si2 0.843673 0.532641 0.854136
Si Si3 0.723707 0.864862 0.895723
Si Si4 0.613804 0.754701 0.856840
Si Si5 0.098545 0.885634 0.704928
Si Si6 0.996952 0.436691 0.033365
Si Si7 0.608211 0.579365 0.755351
O O1 0.852364 0.795984 0.079450
O O2 0.838788 0.884407 0.168340
O O3 0.769664 0.878441 0.993503
O O4 0.947756 0.892244 0.032758
O O5 0.750000 0.500000 0.884738
O O6 0.842906 0.577970 0.775762
O O7 0.897865 0.481751 0.801511
O O8 0.895128 0.566162 0.934135
O O9 0.653112 0.812689 0.895049
O O10 0.821130 0.847590 0.840897
O O11 0.665460 0.912744 0.839379
O O12 0.500000 0.750000 0.857535
O O13 0.643095 0.750000 0.750000
O O14 0.061808 0.927392 0.626106
O O15 0.000000 0.863109 0.750000
O O16 0.000000 0.500000 0.000000
O O17 0.500000 0.600886 0.750000
#
# Coordination Sequence:
#
# PCOD9507033 Si02
#       7
#    16  16  16  16  16  16  16
#     4  11  24  43  69 105 138 183 245 304 382 441
#     4  11  21  39  62  96 146 195 245 289 365 445
#     4  11  23  43  71 100 141 180 246 318 368 455
#     4  11  23  45  74 104 136 184 245 314 387 458
#     4   9  20  39  62  91 139 195 233 290 372 439
#     4  10  20  38  60  95 141 181 234 300 355 442
#     4  12  23  42  69 103 142 195 247 301 367 447
#
# _framework density 22.605025999999999
#
# number of rings (size 3 to 8) (size 9 to 14) (size 15 to 20)
#    0.000    1.286    4.286    2.571    0.000    0.000 
#    5.143    0.714    0.000    0.000    0.000    0.000 
#    0.000    0.000    0.000    0.000    0.000    0.000 
#
# Total GULP energy -312142.958184 kJ/mol
# GULP energy per Si atom -5573.981396 kJ/mol
# Density = 2.255358 g / cm^3
# Si number density = 22.605026 Si / 1000 Ang^3
#
#
#
# Elastic Constant Matrix: (Units=GPa)
#
#
# Indices 1 2 3 4 5 6 
#
# 1 148.6786 39.5964 53.6782 0.0000 0.0000 0.0000
# 2 39.5964 63.0493 14.0358 0.0000 0.0000 0.0000
# 3 53.6782 14.0358 100.9164 0.0000 0.0000 0.0000
# 4 0.0000 0.0000 0.0000 21.8446 0.0000 0.0000
# 5 0.0000 0.0000 0.0000 0.0000 32.0291 0.0000
# 6 0.0000 0.0000 0.0000 0.0000 0.0000 42.4099
#
#
#
# Elastic Compliance Matrix: (Units=1/GPa)
#
#
# Indices 1 2 3 4 5 6 
#
# 1 0.009687 -0.005094 -0.004444 0.000000 0.000000 0.000000
# 2 -0.005094 0.019047 0.000061 0.000000 0.000000 0.000000
# 3 -0.004444 0.000061 0.012265 0.000000 0.000000 0.000000
# 4 0.000000 0.000000 0.000000 0.045778 0.000000 0.000000
# 5 0.000000 0.000000 0.000000 0.000000 0.031222 0.000000
# 6 0.000000 0.000000 0.000000 0.000000 0.000000 0.023579
#
#
# Mechanical properties :
#
#
# Convention : Reuss Voigt Hill
#
# Bulk Modulus (GPa) = 45.36670 58.58501 51.97586
# Shear Modulus (GPa) = 29.78309 32.94564 31.36437
#
# Velocity S-wave (km/s) = 3.63374 3.82179 3.72895
# Velocity P-wave (km/s) = 6.14152 6.74151 6.44849
#
# Compressibility (1/GPa) = 0.02204260
#
# Stress axis : x y z
#
# Youngs Moduli (GPa) = 103.22937 52.50305 81.53540
#
# Poissons Ratio (x) = 0.26747 0.36235
# Poissons Ratio (y) = 0.52590 -0.00495
# Poissons Ratio (z) = 0.45876 -0.00319
#
# Static dielectric constant tensor:
#      x y z
#    x 0.883580 0.000000 0.000000 
#    y 0.000000 1.850740 0.000000 
#    z 0.000000 0.000000 1.055090 
# 
# From -- ./inp_files/22595.got.cif
#   From: 2010.05.17/outbox.cif.g08.bks.cpg/sg68_12_cif.got.tgz:22595.got - 2010.06.03 18:57:09.
