data_PCOD9507128
_publ_section_title
;
Structure prediction by ZEFSAII (Michael W. Deem and Ramdas Pophale) SiO2 
 PCOD9507128
Probable space group: C C C A
;
_chemical_formula_sum "Si O2"
_cell_formula_units_Z 88
_cell_length_a 20.877188
_cell_length_b 16.376091
_cell_length_c 12.608786
_cell_angle_alpha 90.000000
_cell_angle_beta 90.000000
_cell_angle_gamma 90.000000
_cell_volume 4310.776621
_symmetry_space_group_name_H-M "C C C A"
_symmetry_group_IT_number 68
_space_group.IT_coordinate_system_code '2'
_symmetry_cell_setting 'orthorhombic'
loop_
_space_group_symop_operation_xyz
x,y,z
-x,1/2-y,z
x,1/2-y,1/2-z
-x,y,1/2-z
-x,-y,-z
x,1/2+y,-z
-x,1/2+y,1/2+z
x,-y,1/2+z
1/2+x,1/2+y,z
1/2-x,-y,z
1/2+x,-y,1/2-z
1/2-x,1/2+y,1/2-z
1/2-x,1/2-y,-z
1/2+x,y,-z
1/2-x,y,1/2+z
1/2+x,1/2-y,1/2+z
loop_
_atom_site_type_symbol
_atom_site_label
_atom_site_fract_x
_atom_site_fract_y
_atom_site_fract_z
Si Si1 0.500000 0.450475 0.250000
Si Si2 0.426239 0.736137 0.374884
Si Si3 0.880721 0.110689 0.638546
Si Si4 0.921675 0.953116 0.916505
Si Si5 0.691498 0.560203 0.672073
Si Si6 0.321417 0.726022 0.960843
O O1 0.559367 0.392431 0.280890
O O2 0.518376 0.508703 0.149130
O O3 0.500000 0.750000 0.412688
O O4 0.423073 0.750000 0.250000
O O5 0.413777 0.640271 0.384032
O O6 0.372448 0.785317 0.441829
O O7 0.907668 0.056594 0.541582
O O8 0.821694 0.072704 0.703195
O O9 0.856092 0.199086 0.601011
O O10 0.866876 0.010316 0.874418
O O11 0.750000 0.500000 0.653386
O O12 0.690090 0.647375 0.613111
O O13 0.250000 0.750000 0.000000
#
# Coordination Sequence:
#
# PCOD9507128 Si02
#       6
#     8  16  16  16  16  16
#     4  10  20  38  68  94 128 168 208 260 315 380
#     4  10  22  41  67  96 128 170 215 263 320 384
#     4  10  23  41  63  92 128 166 209 260 320 385
#     4  10  22  40  62  96 128 162 211 264 316 373
#     4  11  24  42  64  91 123 166 213 264 323 383
#     4  11  25  44  65  93 128 170 217 267 325 393
#
# _framework density 20.413954
#
# number of rings (size 3 to 8) (size 9 to 14) (size 15 to 20)
#    0.000    1.636    0.000    4.364    0.000   15.273 
#    0.000    3.636    0.000    0.000    0.000    0.000 
#    0.000    0.000    0.000    0.000    0.000    0.000 
#
# Total GULP energy -244991.925753 kJ/mol
# GULP energy per Si atom -5567.998313 kJ/mol
# Density = 2.036749 g / cm^3
# Si number density = 20.413954 Si / 1000 Ang^3
#
#
#
# Elastic Constant Matrix: (Units=GPa)
#
#
# Indices 1 2 3 4 5 6 
#
# 1 110.0229 49.6673 63.1518 0.0000 0.0000 0.0000
# 2 49.6673 109.3508 56.6699 0.0000 0.0000 0.0000
# 3 63.1518 56.6699 108.1171 0.0000 0.0000 0.0000
# 4 0.0000 0.0000 0.0000 -0.6686 0.0000 0.0000
# 5 0.0000 0.0000 0.0000 0.0000 28.5103 0.0000
# 6 0.0000 0.0000 0.0000 0.0000 0.0000 33.8100
#
#
#
# Elastic Compliance Matrix: (Units=1/GPa)
#
#
# Indices 1 2 3 4 5 6 
#
# 1 0.014349 -0.002985 -0.006817 0.000000 0.000000 0.000000
# 2 -0.002985 0.013176 -0.005163 0.000000 0.000000 0.000000
# 3 -0.006817 -0.005163 0.015937 0.000000 0.000000 0.000000
# 4 0.000000 0.000000 0.000000 -1.495617 0.000000 0.000000
# 5 0.000000 0.000000 0.000000 0.000000 0.035075 0.000000
# 6 0.000000 0.000000 0.000000 0.000000 0.000000 0.029577
#
#
# Mechanical properties :
#
#
# Convention : Reuss Voigt Hill
#
# Bulk Modulus (GPa) = 73.89137 74.05208 73.97172
# Shear Modulus (GPa) = -3.69532 22.86380 9.58424
#
# Velocity S-wave (km/s) = -1.34689 3.35028 2.16913
# Velocity P-wave (km/s) = 5.81861 7.16379 6.52595
#
# Compressibility (1/GPa) = 0.01353338
#
# Stress axis : x y z
#
# Youngs Moduli (GPa) = 69.68994 75.89471 62.74562
#
# Poissons Ratio (x) = 0.22651 0.42775
# Poissons Ratio (y) = 0.20799 0.32396
# Poissons Ratio (z) = 0.47509 0.39185
#
# Static dielectric constant tensor:
#      x y z
#    x 1.769050 0.000000 0.000000 
#    y 0.000000 1.673320 0.000000 
#    z 0.000000 0.000000 1.898030 
# 
# From -- ./inp_files/16305.got.cif
#   From: 2010.05.17/outbox.cif.g08.bks.cpg/sg68_9_cif.got.tgz:16305.got - 2010.06.03 18:57:09.
