data_PCOD9507978
_publ_section_title
;
Structure prediction by ZEFSAII (Michael W. Deem and Ramdas Pophale) SiO2 
 PCOD9507978
Probable space group: C C C A
;
_chemical_formula_sum "Si O2"
_cell_formula_units_Z 100
_cell_length_a 13.870144
_cell_length_b 28.322782
_cell_length_c 14.458297
_cell_angle_alpha 90.000000
_cell_angle_beta 90.000000
_cell_angle_gamma 90.000000
_cell_volume 5679.812789
_symmetry_space_group_name_H-M "C C C A"
_symmetry_group_IT_number 68
_space_group.IT_coordinate_system_code '2'
_symmetry_cell_setting 'orthorhombic'
loop_
_space_group_symop_operation_xyz
x,y,z
-x,1/2-y,z
x,1/2-y,1/2-z
-x,y,1/2-z
-x,-y,-z
x,1/2+y,-z
-x,1/2+y,1/2+z
x,-y,1/2+z
1/2+x,1/2+y,z
1/2-x,-y,z
1/2+x,-y,1/2-z
1/2-x,1/2+y,1/2-z
1/2-x,1/2-y,-z
1/2+x,y,-z
1/2-x,y,1/2+z
1/2+x,1/2-y,1/2+z
loop_
_atom_site_type_symbol
_atom_site_label
_atom_site_fract_x
_atom_site_fract_y
_atom_site_fract_z
Si Si1 0.378090 0.079179 0.400363
Si Si2 0.038111 0.607559 0.533214
Si Si3 0.500000 0.750000 0.250000
Si Si4 0.082722 0.974602 0.828085
Si Si5 0.109051 0.332265 0.348120
Si Si6 0.235229 0.403855 0.249956
Si Si7 0.260243 0.383530 0.451397
O O1 0.476129 0.100813 0.440071
O O2 0.320667 0.107089 0.320715
O O3 0.306181 0.082081 0.487763
O O4 0.395928 0.027029 0.362516
O O5 0.978558 0.640082 0.603477
O O6 0.050495 0.557664 0.585437
O O7 0.142813 0.626438 0.506013
O O8 0.568576 0.783305 0.312038
O O9 0.177110 0.949207 0.785780
O O10 0.000000 0.974541 0.750000
O O11 0.154365 0.363046 0.263778
O O12 0.196195 0.337714 0.422821
O O13 0.277839 0.408763 0.352903
#
# Coordination Sequence:
#
# PCOD9507978 Si02
#       7
#    16  16   4  16  16  16  16
#     4  11  23  36  55  86 120 167 215 260 289 353
#     4  11  21  40  59  80 126 169 200 253 313 354
#     4  12  20  40  76 100 110 138 216 248 312 396
#     4  12  21  35  55  85 117 169 226 258 289 348
#     4   9  22  39  63  92 113 155 190 257 311 365
#     4  10  21  40  55  82 121 162 202 254 314 346
#     4   9  22  40  58  82 121 162 196 246 316 359
#
# _framework density 17.606213
#
# number of rings (size 3 to 8) (size 9 to 14) (size 15 to 20)
#    0.960    0.640    3.200    1.920    2.240    0.000 
#    2.880    0.800    0.000    0.000    0.000    1.120 
#    0.000    0.000    0.000    0.000    0.000    0.000 
#
# Total GULP energy -278537.238768 kJ/mol
# GULP energy per Si atom -5570.744775 kJ/mol
# Density = 1.756614 g / cm^3
# Si number density = 17.606213 Si / 1000 Ang^3
#
#
#
# Elastic Constant Matrix: (Units=GPa)
#
#
# Indices 1 2 3 4 5 6 
#
# 1 121.7407 41.5467 36.7018 0.0000 0.0000 0.0000
# 2 41.5467 78.4467 18.0212 0.0000 0.0000 0.0000
# 3 36.7018 18.0212 76.0792 0.0000 0.0000 0.0000
# 4 0.0000 0.0000 0.0000 21.2598 0.0000 0.0000
# 5 0.0000 0.0000 0.0000 0.0000 45.9404 0.0000
# 6 0.0000 0.0000 0.0000 0.0000 0.0000 1.9304
#
#
#
# Elastic Compliance Matrix: (Units=1/GPa)
#
#
# Indices 1 2 3 4 5 6 
#
# 1 0.011175 -0.004949 -0.004219 0.000000 0.000000 0.000000
# 2 -0.004949 0.015673 -0.001325 0.000000 0.000000 0.000000
# 3 -0.004219 -0.001325 0.015493 0.000000 0.000000 0.000000
# 4 0.000000 0.000000 0.000000 0.047037 0.000000 0.000000
# 5 0.000000 0.000000 0.000000 0.000000 0.021767 0.000000
# 6 0.000000 0.000000 0.000000 0.000000 0.000000 0.518038
#
#
# Mechanical properties :
#
#
# Convention : Reuss Voigt Hill
#
# Bulk Modulus (GPa) = 46.82628 52.08956 49.45792
# Shear Modulus (GPa) = 7.60702 25.82591 16.71647
#
# Velocity S-wave (km/s) = 2.08087 3.83412 3.08468
# Velocity P-wave (km/s) = 5.69452 7.01789 6.39055
#
# Compressibility (1/GPa) = 0.02135553
#
# Stress axis : x y z
#
# Youngs Moduli (GPa) = 89.48476 63.80335 64.54456
#
# Poissons Ratio (x) = 0.31579 0.27229
# Poissons Ratio (y) = 0.44289 0.08552
# Poissons Ratio (z) = 0.37751 0.08453
#
# Static dielectric constant tensor:
#      x y z
#    x 1.635470 0.000000 0.000000 
#    y 0.000000 1.559210 0.000000 
#    z 0.000000 0.000000 1.634630 
# 
# From -- ./inp_files/22695.got.cif
#   From: 2010.05.17/outbox.cif.g08.bks.cpg/sg68_12_cif.got.tgz:22695.got - 2010.06.03 18:57:09.
