data_PCOD9507056
_publ_section_title
;
Structure prediction by ZEFSAII (Michael W. Deem and Ramdas Pophale) SiO2 
 PCOD9507056
Probable space group: C C C A
;
_chemical_formula_sum "Si O2"
_cell_formula_units_Z 104
_cell_length_a 9.380810
_cell_length_b 27.918006
_cell_length_c 21.418248
_cell_angle_alpha 90.000000
_cell_angle_beta 90.000000
_cell_angle_gamma 90.000000
_cell_volume 5609.300144
_symmetry_space_group_name_H-M "C C C A"
_symmetry_group_IT_number 68
_space_group.IT_coordinate_system_code '2'
_symmetry_cell_setting 'orthorhombic'
loop_
_space_group_symop_operation_xyz
x,y,z
-x,1/2-y,z
x,1/2-y,1/2-z
-x,y,1/2-z
-x,-y,-z
x,1/2+y,-z
-x,1/2+y,1/2+z
x,-y,1/2+z
1/2+x,1/2+y,z
1/2-x,-y,z
1/2+x,-y,1/2-z
1/2-x,1/2+y,1/2-z
1/2-x,1/2-y,-z
1/2+x,y,-z
1/2-x,y,1/2+z
1/2+x,1/2-y,1/2+z
loop_
_atom_site_type_symbol
_atom_site_label
_atom_site_fract_x
_atom_site_fract_y
_atom_site_fract_z
Si Si1 0.857078 0.044386 0.208345
Si Si2 0.799767 0.750000 0.250000
Si Si3 0.139398 0.653915 0.707760
Si Si4 0.344031 0.795358 0.978616
Si Si5 0.500000 0.750000 0.863770
Si Si6 0.024418 0.950582 0.930900
Si Si7 0.427138 0.342283 0.562761
Si Si8 0.750000 0.000000 0.476590
O O1 0.796027 0.099541 0.213450
O O2 0.910542 0.040797 0.137146
O O3 0.000000 0.041035 0.250000
O O4 0.750000 0.000000 0.221711
O O5 0.722956 0.701068 0.270347
O O6 0.883675 0.733403 0.187025
O O7 0.095909 0.663987 0.636311
O O8 0.000000 0.651536 0.750000
O O9 0.423742 0.785854 0.912632
O O10 0.227147 0.836432 0.968933
O O11 0.250000 0.750000 0.000000
O O12 0.461292 0.806918 0.030368
O O13 0.013343 0.894918 0.945706
O O14 0.864971 0.971148 0.936026
O O15 0.141107 0.971054 0.979096
#
# Coordination Sequence:
#
# PCOD9507056 Si02
#       8
#    16   8  16  16   8  16  16   8
#     4  10  22  43  63  91 125 163 213 264 311 380
#     4  11  23  42  62  88 131 161 208 266 313 380
#     4  10  23  39  65  91 120 165 210 257 320 376
#     4  12  23  39  60  89 123 166 206 253 311 368
#     4  11  24  40  58  86 127 164 208 256 307 372
#     4  10  21  39  63  91 125 158 204 257 315 382
#     4  11  23  39  61  90 124 160 208 255 309 375
#     4  10  20  38  62  92 120 160 196 252 322 370
#
# _framework density 18.540638000000001
#
# number of rings (size 3 to 8) (size 9 to 14) (size 15 to 20)
#    0.000    1.385    3.846    1.154    3.231    1.231 
#    2.769    0.000    0.000    0.000    0.000    0.000 
#    0.000    0.000    0.000    0.000    0.000    0.000 
#
# Total GULP energy -289579.172881 kJ/mol
# GULP energy per Si atom -5568.830248 kJ/mol
# Density = 1.849844 g / cm^3
# Si number density = 18.540638 Si / 1000 Ang^3
#
#
#
# Elastic Constant Matrix: (Units=GPa)
#
#
# Indices 1 2 3 4 5 6 
#
# 1 108.3311 78.1014 28.5466 0.0000 0.0000 0.0000
# 2 78.1014 134.4297 57.1380 0.0000 0.0000 0.0000
# 3 28.5466 57.1380 66.8814 0.0000 0.0000 0.0000
# 4 0.0000 0.0000 0.0000 33.5493 0.0000 0.0000
# 5 0.0000 0.0000 0.0000 0.0000 75.0708 0.0000
# 6 0.0000 0.0000 0.0000 0.0000 0.0000 18.8176
#
#
#
# Elastic Compliance Matrix: (Units=1/GPa)
#
#
# Indices 1 2 3 4 5 6 
#
# 1 0.016013 -0.010046 0.001748 0.000000 0.000000 0.000000
# 2 -0.010046 0.017983 -0.011075 0.000000 0.000000 0.000000
# 3 0.001748 -0.011075 0.023667 0.000000 0.000000 0.000000
# 4 0.000000 0.000000 0.000000 0.029807 0.000000 0.000000
# 5 0.000000 0.000000 0.000000 0.000000 0.013321 0.000000
# 6 0.000000 0.000000 0.000000 0.000000 0.000000 0.053142
#
#
# Mechanical properties :
#
#
# Convention : Reuss Voigt Hill
#
# Bulk Modulus (GPa) = 52.86364 70.80156 61.83260
# Shear Modulus (GPa) = 25.12742 35.21131 30.16936
#
# Velocity S-wave (km/s) = 3.68538 4.36264 4.03824
# Velocity P-wave (km/s) = 6.83254 7.97791 7.42733
#
# Compressibility (1/GPa) = 0.01891660
#
# Stress axis : x y z
#
# Youngs Moduli (GPa) = 62.44801 55.60802 42.25206
#
# Poissons Ratio (x) = 0.55866 -0.07386
# Poissons Ratio (y) = 0.62738 0.46795
# Poissons Ratio (z) = -0.10916 0.61587
#
# Static dielectric constant tensor:
#      x y z
#    x 1.649090 0.000000 0.000000 
#    y 0.000000 1.677190 0.000000 
#    z 0.000000 0.000000 1.624380 
# 
# From -- ./inp_files/36605.got.cif
#   From: 2010.05.17/outbox.cif.g08.bks.cpg/sg68_19_cif.got.tgz:36605.got - 2010.06.03 18:57:09.
