data_PCOD9507106
_publ_section_title
;
Structure prediction by ZEFSAII (Michael W. Deem and Ramdas Pophale) SiO2 
 PCOD9507106
Probable space group: C C C A
;
_chemical_formula_sum "Si O2"
_cell_formula_units_Z 88
_cell_length_a 22.228835
_cell_length_b 9.248504
_cell_length_c 19.333122
_cell_angle_alpha 90.000000
_cell_angle_beta 90.000000
_cell_angle_gamma 90.000000
_cell_volume 3974.570295
_symmetry_space_group_name_H-M "C C C A"
_symmetry_group_IT_number 68
_space_group.IT_coordinate_system_code '2'
_symmetry_cell_setting 'orthorhombic'
loop_
_space_group_symop_operation_xyz
x,y,z
-x,1/2-y,z
x,1/2-y,1/2-z
-x,y,1/2-z
-x,-y,-z
x,1/2+y,-z
-x,1/2+y,1/2+z
x,-y,1/2+z
1/2+x,1/2+y,z
1/2-x,-y,z
1/2+x,-y,1/2-z
1/2-x,1/2+y,1/2-z
1/2-x,1/2-y,-z
1/2+x,y,-z
1/2-x,y,1/2+z
1/2+x,1/2-y,1/2+z
loop_
_atom_site_type_symbol
_atom_site_label
_atom_site_fract_x
_atom_site_fract_y
_atom_site_fract_z
Si Si1 0.334513 0.250000 0.250000
Si Si2 0.908960 0.517377 0.550921
Si Si3 0.432303 0.259166 0.355114
Si Si4 0.610258 0.552011 0.403389
Si Si5 0.750000 0.000000 0.755562
Si Si6 0.349304 0.301458 0.824154
Si Si7 0.000000 0.250000 0.058678
O O1 0.381051 0.319322 0.304150
O O2 0.293430 0.119727 0.279063
O O3 0.934674 0.368681 0.580800
O O4 0.871414 0.474680 0.483212
O O5 0.880792 0.600648 0.616592
O O6 0.959056 0.628953 0.523026
O O7 0.500000 0.250000 0.327431
O O8 0.407858 0.100364 0.371765
O O9 0.658759 0.647819 0.362744
O O10 0.548938 0.650094 0.401525
O O11 0.792035 0.894537 0.801346
O O12 0.378671 0.250000 0.750000
#
# Coordination Sequence:
#
# PCOD9507106 Si02
#       7
#     8  16  16  16   8  16   8
#     4  12  27  46  72 100 135 186 238 304 368 438
#     4  11  23  41  66 103 144 187 237 290 357 444
#     4  12  24  41  66 106 147 176 232 294 359 434
#     4  11  24  39  68 100 147 189 234 291 360 439
#     4  12  24  48  76  96 134 186 258 302 364 450
#     4  11  24  47  72 101 135 189 242 305 363 430
#     4  10  20  38  65  98 137 200 238 268 352 448
#
# _framework density 22.14076
#
# number of rings (size 3 to 8) (size 9 to 14) (size 15 to 20)
#    0.000    0.727    4.545    4.091    2.545    0.000 
#    0.000    8.182    0.000    0.000    0.000    0.000 
#    0.000    0.000    0.000    0.000    0.000    0.000 
#
# Total GULP energy -245106.381071 kJ/mol
# GULP energy per Si atom -5570.599570 kJ/mol
# Density = 2.209037 g / cm^3
# Si number density = 22.140760 Si / 1000 Ang^3
#
#
#
# Elastic Constant Matrix: (Units=GPa)
#
#
# Indices 1 2 3 4 5 6 
#
# 1 75.1569 29.0256 23.9789 0.0000 0.0000 0.0000
# 2 29.0256 151.3491 34.8674 0.0000 0.0000 0.0000
# 3 23.9789 34.8674 112.2315 0.0000 0.0000 0.0000
# 4 0.0000 0.0000 0.0000 52.9517 0.0000 0.0000
# 5 0.0000 0.0000 0.0000 0.0000 14.1044 0.0000
# 6 0.0000 0.0000 0.0000 0.0000 0.0000 51.5860
#
#
#
# Elastic Compliance Matrix: (Units=1/GPa)
#
#
# Indices 1 2 3 4 5 6 
#
# 1 0.014988 -0.002301 -0.002487 0.000000 0.000000 0.000000
# 2 -0.002301 0.007470 -0.001829 0.000000 0.000000 0.000000
# 3 -0.002487 -0.001829 0.010010 0.000000 0.000000 0.000000
# 4 0.000000 0.000000 0.000000 0.018885 0.000000 0.000000
# 5 0.000000 0.000000 0.000000 0.000000 0.070900 0.000000
# 6 0.000000 0.000000 0.000000 0.000000 0.000000 0.019385
#
#
# Mechanical properties :
#
#
# Convention : Reuss Voigt Hill
#
# Bulk Modulus (GPa) = 51.99578 57.16458 54.58018
# Shear Modulus (GPa) = 31.00127 40.45278 35.72702
#
# Velocity S-wave (km/s) = 3.74597 4.27906 4.02136
# Velocity P-wave (km/s) = 6.49961 7.09145 6.80197
#
# Compressibility (1/GPa) = 0.01923233
#
# Stress axis : x y z
#
# Youngs Moduli (GPa) = 66.72070 133.86961 99.90205
#
# Poissons Ratio (x) = 0.30808 0.24848
# Poissons Ratio (y) = 0.15355 0.18272
# Poissons Ratio (z) = 0.16595 0.24485
#
# Static dielectric constant tensor:
#      x y z
#    x 1.852440 0.000000 0.000000 
#    y 0.000000 1.865210 0.000000 
#    z 0.000000 0.000000 1.879300 
# 
# From -- ./inp_files/40790.got.cif
#   From: 2010.05.17/outbox.cif.g08.bks.cpg/sg68_21_cif.got.tgz:40790.got - 2010.06.03 18:57:09.
