data_PCOD9507036
_publ_section_title
;
Structure prediction by ZEFSAII (Michael W. Deem and Ramdas Pophale) SiO2 
 PCOD9507036
Probable space group: C C C A
;
_chemical_formula_sum "Si O2"
_cell_formula_units_Z 72
_cell_length_a 22.121216
_cell_length_b 15.629355
_cell_length_c 8.620323
_cell_angle_alpha 90.000000
_cell_angle_beta 90.000000
_cell_angle_gamma 90.000000
_cell_volume 2980.393387
_symmetry_space_group_name_H-M "C C C A"
_symmetry_group_IT_number 68
_space_group.IT_coordinate_system_code '2'
_symmetry_cell_setting 'orthorhombic'
loop_
_space_group_symop_operation_xyz
x,y,z
-x,1/2-y,z
x,1/2-y,1/2-z
-x,y,1/2-z
-x,-y,-z
x,1/2+y,-z
-x,1/2+y,1/2+z
x,-y,1/2+z
1/2+x,1/2+y,z
1/2-x,-y,z
1/2+x,-y,1/2-z
1/2-x,1/2+y,1/2-z
1/2-x,1/2-y,-z
1/2+x,y,-z
1/2-x,y,1/2+z
1/2+x,1/2-y,1/2+z
loop_
_atom_site_type_symbol
_atom_site_label
_atom_site_fract_x
_atom_site_fract_y
_atom_site_fract_z
Si Si1 0.000000 0.397908 0.250000
Si Si2 0.171118 0.137632 0.585590
Si Si3 0.500000 0.250000 0.497692
Si Si4 0.250000 0.000000 0.670283
Si Si5 0.878808 0.472283 0.149751
Si Si6 0.869563 0.309481 0.928909
O O1 0.990081 0.332636 0.392614
O O2 0.058575 0.456875 0.267005
O O3 0.233111 0.084954 0.572814
O O4 0.159953 0.163467 0.766199
O O5 0.164773 0.226882 0.498904
O O6 0.121825 0.063085 0.560757
O O7 0.561747 0.274431 0.411082
O O8 0.315073 0.020728 0.745055
O O9 0.871879 0.391283 0.038076
#
# Coordination Sequence:
#
# PCOD9507036 Si02
#       6
#     8  16   8   8  16  16
#     4   9  18  38  60  87 126 150 200 245 304 341
#     4   9  21  38  57  90 118 156 199 246 289 359
#     4   9  20  35  58  92 120 157 200 245 292 372
#     4   8  20  42  56  90 122 152 210 236 292 356
#     4   9  20  38  61  87 119 161 196 248 291 362
#     4  10  20  38  61  85 122 156 196 246 306 340
#
# _framework density 24.157886000000001
#
# number of rings (size 3 to 8) (size 9 to 14) (size 15 to 20)
#    1.333    1.556    0.000    0.000    0.000    7.111 
#    0.000   13.333    0.000    0.000    0.000    0.000 
#    0.000    0.000    0.000    0.000    0.000    0.000 
#
# Total GULP energy -200544.205153 kJ/mol
# GULP energy per Si atom -5570.672365 kJ/mol
# Density = 2.410290 g / cm^3
# Si number density = 24.157886 Si / 1000 Ang^3
#
#
#
# Elastic Constant Matrix: (Units=GPa)
#
#
# Indices 1 2 3 4 5 6 
#
# 1 132.8860 39.4731 25.9065 0.0000 0.0000 0.0000
# 2 39.4731 197.5582 16.5582 0.0000 0.0000 0.0000
# 3 25.9065 16.5582 46.1303 0.0000 0.0000 0.0000
# 4 0.0000 0.0000 0.0000 13.7227 0.0000 0.0000
# 5 0.0000 0.0000 0.0000 0.0000 12.4402 0.0000
# 6 0.0000 0.0000 0.0000 0.0000 0.0000 54.6455
#
#
#
# Elastic Compliance Matrix: (Units=1/GPa)
#
#
# Indices 1 2 3 4 5 6 
#
# 1 0.008804 -0.001386 -0.004447 0.000000 0.000000 0.000000
# 2 -0.001386 0.005437 -0.001173 0.000000 0.000000 0.000000
# 3 -0.004447 -0.001173 0.024596 0.000000 0.000000 0.000000
# 4 0.000000 0.000000 0.000000 0.072872 0.000000 0.000000
# 5 0.000000 0.000000 0.000000 0.000000 0.080385 0.000000
# 6 0.000000 0.000000 0.000000 0.000000 0.000000 0.018300
#
#
# Mechanical properties :
#
#
# Convention : Reuss Voigt Hill
#
# Bulk Modulus (GPa) = 40.28202 60.05001 50.16601
# Shear Modulus (GPa) = 21.48872 35.80414 28.64643
#
# Velocity S-wave (km/s) = 2.98570 3.85397 3.44728
# Velocity P-wave (km/s) = 5.34758 6.68695 6.05442
#
# Compressibility (1/GPa) = 0.02482497
#
# Stress axis : x y z
#
# Youngs Moduli (GPa) = 113.58552 183.92084 40.65710
#
# Poissons Ratio (x) = 0.25498 0.18079
# Poissons Ratio (y) = 0.15747 0.04769
# Poissons Ratio (z) = 0.50507 0.21575
#
# Static dielectric constant tensor:
#      x y z
#    x 1.942170 0.000000 0.000000 
#    y 0.000000 1.983440 0.000000 
#    z 0.000000 0.000000 2.000470 
# 
# From -- ./inp_files/16392.got.cif
#   From: 2010.05.17/outbox.cif.g08.bks.cpg/sg68_9_cif.got.tgz:16392.got - 2010.06.03 18:57:09.
