data_PCOD9507483
_publ_section_title
;
Structure prediction by ZEFSAII (Michael W. Deem and Ramdas Pophale) SiO2 
 PCOD9507483
Probable space group: C C C A
;
_chemical_formula_sum "Si O2"
_cell_formula_units_Z 88
_cell_length_a 12.897017
_cell_length_b 17.156968
_cell_length_c 19.849311
_cell_angle_alpha 90.000000
_cell_angle_beta 90.000000
_cell_angle_gamma 90.000000
_cell_volume 4392.130646
_symmetry_space_group_name_H-M "C C C A"
_symmetry_group_IT_number 68
_space_group.IT_coordinate_system_code '2'
_symmetry_cell_setting 'orthorhombic'
loop_
_space_group_symop_operation_xyz
x,y,z
-x,1/2-y,z
x,1/2-y,1/2-z
-x,y,1/2-z
-x,-y,-z
x,1/2+y,-z
-x,1/2+y,1/2+z
x,-y,1/2+z
1/2+x,1/2+y,z
1/2-x,-y,z
1/2+x,-y,1/2-z
1/2-x,1/2+y,1/2-z
1/2-x,1/2-y,-z
1/2+x,y,-z
1/2-x,y,1/2+z
1/2+x,1/2-y,1/2+z
loop_
_atom_site_type_symbol
_atom_site_label
_atom_site_fract_x
_atom_site_fract_y
_atom_site_fract_z
Si Si1 0.241500 0.750000 0.250000
Si Si2 0.060388 0.066298 0.110623
Si Si3 0.194979 0.076869 0.789642
Si Si4 0.250000 0.500000 0.458905
Si Si5 0.500000 0.990412 0.250000
Si Si6 0.671503 0.103682 0.573862
Si Si7 0.882871 0.734408 0.619730
O O1 0.190406 0.663702 0.242097
O O2 0.309622 0.739853 0.316468
O O3 0.050574 0.062064 0.191730
O O4 0.110912 0.148648 0.090376
O O5 0.942761 0.064000 0.082174
O O6 0.144916 0.005429 0.084456
O O7 0.259880 0.087042 0.859032
O O8 0.250000 0.000000 0.755624
O O9 0.078353 0.045444 0.791091
O O10 0.268284 0.428887 0.510311
O O11 0.649478 0.195710 0.570869
O O12 0.000000 0.750000 0.643409
#
# Coordination Sequence:
#
# PCOD9507483 Si02
#       7
#     8  16  16   8   8  16  16
#     4  10  21  33  60  90 128 162 212 262 328 388
#     4  11  24  37  63  95 124 166 212 275 324 382
#     4  11  21  39  63  87 126 172 202 272 330 378
#     4  12  24  38  66  88 126 170 224 250 318 418
#     4  12  24  37  63  92 132 158 216 259 336 397
#     4  10  21  43  60  86 124 171 214 264 327 374
#     4   9  20  34  59  92 121 159 211 270 320 364
#
# _framework density 20.035833
#
# number of rings (size 3 to 8) (size 9 to 14) (size 15 to 20)
#    0.000    1.455    2.727    1.909    8.909    1.091 
#    0.000    0.000    0.000    0.000    0.000    0.000 
#    0.000    0.000    0.000    0.000    0.000    0.000 
#
# Total GULP energy -245063.122192 kJ/mol
# GULP energy per Si atom -5569.616413 kJ/mol
# Density = 1.999023 g / cm^3
# Si number density = 20.035833 Si / 1000 Ang^3
#
#
#
# Elastic Constant Matrix: (Units=GPa)
#
#
# Indices 1 2 3 4 5 6 
#
# 1 78.2884 25.9382 31.2993 0.0000 0.0000 0.0000
# 2 25.9382 121.8642 18.1866 0.0000 0.0000 0.0000
# 3 31.2993 18.1866 67.9479 0.0000 0.0000 0.0000
# 4 0.0000 0.0000 0.0000 13.2192 0.0000 0.0000
# 5 0.0000 0.0000 0.0000 0.0000 28.8745 0.0000
# 6 0.0000 0.0000 0.0000 0.0000 0.0000 28.7783
#
#
#
# Elastic Compliance Matrix: (Units=1/GPa)
#
#
# Indices 1 2 3 4 5 6 
#
# 1 0.016331 -0.002451 -0.006866 0.000000 0.000000 0.000000
# 2 -0.002451 0.008915 -0.001257 0.000000 0.000000 0.000000
# 3 -0.006866 -0.001257 0.018217 0.000000 0.000000 0.000000
# 4 0.000000 0.000000 0.000000 0.075647 0.000000 0.000000
# 5 0.000000 0.000000 0.000000 0.000000 0.034633 0.000000
# 6 0.000000 0.000000 0.000000 0.000000 0.000000 0.034748
#
#
# Mechanical properties :
#
#
# Convention : Reuss Voigt Hill
#
# Bulk Modulus (GPa) = 44.81699 46.54988 45.68344
# Shear Modulus (GPa) = 23.03324 27.01950 25.02637
#
# Velocity S-wave (km/s) = 3.39426 3.67626 3.53807
# Velocity P-wave (km/s) = 6.14640 6.42679 6.28816
#
# Compressibility (1/GPa) = 0.02231296
#
# Stress axis : x y z
#
# Youngs Moduli (GPa) = 61.23498 112.16827 54.89523
#
# Poissons Ratio (x) = 0.27494 0.37693
# Poissons Ratio (y) = 0.15010 0.06901
# Poissons Ratio (z) = 0.42046 0.14101
#
# Static dielectric constant tensor:
#      x y z
#    x 1.735440 0.000000 0.000000 
#    y 0.000000 1.810710 0.000000 
#    z 0.000000 0.000000 1.694420 
# 
# From -- ./inp_files/37500.got.cif
#   From: 2010.05.17/outbox.cif.g08.bks.cpg/sg68_19_cif.got.tgz:37500.got - 2010.06.03 18:57:09.
