data_PCOD9507690
_publ_section_title
;
Structure prediction by ZEFSAII (Michael W. Deem and Ramdas Pophale) SiO2 
 PCOD9507690
Probable space group: C C C A
;
_chemical_formula_sum "Si O2"
_cell_formula_units_Z 116
_cell_length_a 30.527781
_cell_length_b 17.202734
_cell_length_c 10.373226
_cell_angle_alpha 90.000000
_cell_angle_beta 90.000000
_cell_angle_gamma 90.000000
_cell_volume 5447.616811
_symmetry_space_group_name_H-M "C C C A"
_symmetry_group_IT_number 68
_space_group.IT_coordinate_system_code '2'
_symmetry_cell_setting 'orthorhombic'
loop_
_space_group_symop_operation_xyz
x,y,z
-x,1/2-y,z
x,1/2-y,1/2-z
-x,y,1/2-z
-x,-y,-z
x,1/2+y,-z
-x,1/2+y,1/2+z
x,-y,1/2+z
1/2+x,1/2+y,z
1/2-x,-y,z
1/2+x,-y,1/2-z
1/2-x,1/2+y,1/2-z
1/2-x,1/2-y,-z
1/2+x,y,-z
1/2-x,y,1/2+z
1/2+x,1/2-y,1/2+z
loop_
_atom_site_type_symbol
_atom_site_label
_atom_site_fract_x
_atom_site_fract_y
_atom_site_fract_z
Si Si1 0.131707 0.061974 0.564806
Si Si2 0.708347 0.145289 0.521100
Si Si3 0.069883 0.365261 0.139632
Si Si4 0.808725 0.172905 0.539777
Si Si5 0.000000 0.250000 0.250000
Si Si6 0.526689 0.470708 0.374129
Si Si7 0.617107 0.574867 0.859513
Si Si8 0.342180 0.340457 0.767489
O O1 0.181930 0.091199 0.576752
O O2 0.098216 0.124703 0.494281
O O3 0.116604 0.046558 0.710527
O O4 0.130179 0.991001 0.463793
O O5 0.759434 0.141687 0.552781
O O6 0.696923 0.233690 0.475158
O O7 0.683998 0.121232 0.652586
O O8 0.049088 0.448425 0.166490
O O9 0.106690 0.349336 0.246511
O O10 0.031774 0.302275 0.159319
O O11 0.847364 0.144377 0.633295
O O12 0.825181 0.138279 0.404926
O O13 0.500000 0.442732 0.250000
O O14 0.500000 0.500000 0.500000
O O15 0.566374 0.410521 0.399124
O O16 0.331451 0.250000 0.750000
#
# Coordination Sequence:
#
# PCOD9507690 Si02
#       8
#    16  16  16  16   4  16  16  16
#     4  10  24  44  64  95 139 173 221 276 335 400
#     4   9  21  41  62  95 134 170 224 272 331 409
#     4  10  21  37  64  96 132 165 221 278 336 395
#     4  10  22  37  68  95 127 179 219 270 339 407
#     4  12  20  36  72 108 126 168 224 286 350 400
#     4  11  23  40  62  90 126 169 220 270 323 405
#     4  11  25  42  68  93 131 178 224 275 338 394
#     4   9  18  35  60  91 127 161 212 268 322 393
#
# _framework density 21.293714000000001
#
# number of rings (size 3 to 8) (size 9 to 14) (size 15 to 20)
#    0.000    1.931    1.379    1.655    9.655    1.103 
#    0.000    1.379    0.000    0.000    0.000    0.000 
#    0.000    0.000    0.000    0.000    0.000    0.000 
#
# Total GULP energy -322987.779160 kJ/mol
# GULP energy per Si atom -5568.754813 kJ/mol
# Density = 2.124525 g / cm^3
# Si number density = 21.293714 Si / 1000 Ang^3
#
#
#
# Elastic Constant Matrix: (Units=GPa)
#
#
# Indices 1 2 3 4 5 6 
#
# 1 151.0856 30.6578 27.6182 0.0000 0.0000 0.0000
# 2 30.6578 31.3838 9.6032 0.0000 0.0000 0.0000
# 3 27.6182 9.6032 62.4292 0.0000 0.0000 0.0000
# 4 0.0000 0.0000 0.0000 21.7091 0.0000 0.0000
# 5 0.0000 0.0000 0.0000 0.0000 82.9809 0.0000
# 6 0.0000 0.0000 0.0000 0.0000 0.0000 -39.4084
#
#
#
# Elastic Compliance Matrix: (Units=1/GPa)
#
#
# Indices 1 2 3 4 5 6 
#
# 1 0.008655 -0.007643 -0.002653 0.000000 0.000000 0.000000
# 2 -0.007643 0.040186 -0.002801 0.000000 0.000000 0.000000
# 3 -0.002653 -0.002801 0.017623 0.000000 0.000000 0.000000
# 4 0.000000 0.000000 0.000000 0.046064 0.000000 0.000000
# 5 0.000000 0.000000 0.000000 0.000000 0.012051 0.000000
# 6 0.000000 0.000000 0.000000 0.000000 0.000000 -0.025375
#
#
# Mechanical properties :
#
#
# Convention : Reuss Voigt Hill
#
# Bulk Modulus (GPa) = 24.83181 42.29521 33.56351
# Shear Modulus (GPa) = 36.01815 24.85763 30.43789
#
# Velocity S-wave (km/s) = 4.11724 3.42039 3.78488
# Velocity P-wave (km/s) = 5.85569 5.95857 5.90735
#
# Compressibility (1/GPa) = 0.04027092
#
# Stress axis : x y z
#
# Youngs Moduli (GPa) = 115.54633 24.88411 56.74509
#
# Poissons Ratio (x) = 0.19018 0.15055
# Poissons Ratio (y) = 0.88306 0.15893
# Poissons Ratio (z) = 0.30655 0.06969
#
# Static dielectric constant tensor:
#      x y z
#    x 1.877920 0.000000 0.000000 
#    y 0.000000 1.806380 0.000000 
#    z 0.000000 0.000000 1.934820 
# 
# From -- ./inp_files/9672.got.cif
#   From: 2010.05.17/outbox.cif.g08.bks.cpg/sg68_5_cif.got.tgz:9672.got - 2010.06.03 18:57:09.
