data_PCOD9507579
_publ_section_title
;
Structure prediction by ZEFSAII (Michael W. Deem and Ramdas Pophale) SiO2 
 PCOD9507579
Probable space group: C C C A
;
_chemical_formula_sum "Si O2"
_cell_formula_units_Z 80
_cell_length_a 17.580544
_cell_length_b 15.467580
_cell_length_c 14.779654
_cell_angle_alpha 90.000000
_cell_angle_beta 90.000000
_cell_angle_gamma 90.000000
_cell_volume 4019.008711
_symmetry_space_group_name_H-M "C C C A"
_symmetry_group_IT_number 68
_space_group.IT_coordinate_system_code '2'
_symmetry_cell_setting 'orthorhombic'
loop_
_space_group_symop_operation_xyz
x,y,z
-x,1/2-y,z
x,1/2-y,1/2-z
-x,y,1/2-z
-x,-y,-z
x,1/2+y,-z
-x,1/2+y,1/2+z
x,-y,1/2+z
1/2+x,1/2+y,z
1/2-x,-y,z
1/2+x,-y,1/2-z
1/2-x,1/2+y,1/2-z
1/2-x,1/2-y,-z
1/2+x,y,-z
1/2-x,y,1/2+z
1/2+x,1/2-y,1/2+z
loop_
_atom_site_type_symbol
_atom_site_label
_atom_site_fract_x
_atom_site_fract_y
_atom_site_fract_z
Si Si1 0.958765 0.839436 0.376719
Si Si2 0.803033 0.083146 0.383430
Si Si3 0.619486 0.596623 0.920372
Si Si4 0.802918 0.268519 0.586043
Si Si5 0.915140 0.500525 0.250226
O O1 0.883525 0.816061 0.433645
O O2 0.928240 0.905702 0.300109
O O3 0.000000 0.750000 0.346174
O O4 0.029075 0.883998 0.428105
O O5 0.845171 0.088108 0.480524
O O6 0.750451 0.165450 0.360057
O O7 0.750000 0.000000 0.390039
O O8 0.863023 0.061723 0.306950
O O9 0.666640 0.677172 0.876790
O O10 0.620425 0.519256 0.848400
O O11 0.750000 0.250000 0.500000
O O12 0.000000 0.463714 0.250000
#
# Coordination Sequence:
#
# PCOD9507579 Si02
#       5
#    16  16  16  16  16
#     4   9  17  33  55  83 116 151 198 248 283 354
#     4  11  21  38  57  86 124 149 193 254 298 347
#     4   9  21  36  61  83 114 158 201 233 301 364
#     4   9  18  35  58  86 115 155 197 244 300 352
#     4  10  21  36  58  88 120 156 198 244 304 356
#
# _framework density 19.905405999999999
#
# number of rings (size 3 to 8) (size 9 to 14) (size 15 to 20)
#    0.000    2.400    2.000    0.000    0.000   13.200 
#    0.000    0.000    0.000    0.000    0.000    0.000 
#    0.000    0.000    0.000    0.000    0.000    0.000 
#
# Total GULP energy -222672.517517 kJ/mol
# GULP energy per Si atom -5566.812938 kJ/mol
# Density = 1.986010 g / cm^3
# Si number density = 19.905406 Si / 1000 Ang^3
#
#
#
# Elastic Constant Matrix: (Units=GPa)
#
#
# Indices 1 2 3 4 5 6 
#
# 1 153.5146 44.1045 63.3821 0.0000 0.0000 0.0000
# 2 44.1045 43.5840 19.1872 0.0000 0.0000 0.0000
# 3 63.3821 19.1872 59.3827 0.0000 0.0000 0.0000
# 4 0.0000 0.0000 0.0000 12.5869 0.0000 0.0000
# 5 0.0000 0.0000 0.0000 0.0000 37.5979 0.0000
# 6 0.0000 0.0000 0.0000 0.0000 0.0000 27.7681
#
#
#
# Elastic Compliance Matrix: (Units=1/GPa)
#
#
# Indices 1 2 3 4 5 6 
#
# 1 0.014098 -0.008909 -0.012168 0.000000 0.000000 0.000000
# 2 -0.008909 0.032379 -0.000953 0.000000 0.000000 0.000000
# 3 -0.012168 -0.000953 0.030136 0.000000 0.000000 0.000000
# 4 0.000000 0.000000 0.000000 0.079448 0.000000 0.000000
# 5 0.000000 0.000000 0.000000 0.000000 0.026597 0.000000
# 6 0.000000 0.000000 0.000000 0.000000 0.000000 0.036013
#
#
# Mechanical properties :
#
#
# Convention : Reuss Voigt Hill
#
# Bulk Modulus (GPa) = 30.72045 56.64766 43.68405
# Shear Modulus (GPa) = 18.27607 24.24441 21.26024
#
# Velocity S-wave (km/s) = 3.03338 3.49374 3.27167
# Velocity P-wave (km/s) = 5.26643 6.69292 6.02206
#
# Compressibility (1/GPa) = 0.03255160
#
# Stress axis : x y z
#
# Youngs Moduli (GPa) = 70.93398 30.88403 33.18302
#
# Poissons Ratio (x) = 0.27515 0.40379
# Poissons Ratio (y) = 0.63195 0.03163
# Poissons Ratio (z) = 0.86316 0.02943
#
# Static dielectric constant tensor:
#      x y z
#    x 1.692320 0.000000 0.000000 
#    y 0.000000 1.766870 0.000000 
#    z 0.000000 0.000000 1.714750 
# 
# From -- ./inp_files/30787.got.cif
#   From: 2010.05.17/outbox.cif.g08.bks.cpg/sg68_16_cif.got.tgz:30787.got - 2010.06.03 18:57:09.
