data_PCOD9507464
_publ_section_title
;
Structure prediction by ZEFSAII (Michael W. Deem and Ramdas Pophale) SiO2 
 PCOD9507464
Probable space group: C C C A
;
_chemical_formula_sum "Si O2"
_cell_formula_units_Z 84
_cell_length_a 23.115120
_cell_length_b 19.494413
_cell_length_c 10.443208
_cell_angle_alpha 90.000000
_cell_angle_beta 90.000000
_cell_angle_gamma 90.000000
_cell_volume 4705.873440
_symmetry_space_group_name_H-M "C C C A"
_symmetry_group_IT_number 68
_space_group.IT_coordinate_system_code '2'
_symmetry_cell_setting 'orthorhombic'
loop_
_space_group_symop_operation_xyz
x,y,z
-x,1/2-y,z
x,1/2-y,1/2-z
-x,y,1/2-z
-x,-y,-z
x,1/2+y,-z
-x,1/2+y,1/2+z
x,-y,1/2+z
1/2+x,1/2+y,z
1/2-x,-y,z
1/2+x,-y,1/2-z
1/2-x,1/2+y,1/2-z
1/2-x,1/2-y,-z
1/2+x,y,-z
1/2-x,y,1/2+z
1/2+x,1/2-y,1/2+z
loop_
_atom_site_type_symbol
_atom_site_label
_atom_site_fract_x
_atom_site_fract_y
_atom_site_fract_z
Si Si1 0.000000 0.750000 0.250000
Si Si2 0.040442 0.112725 0.363614
Si Si3 0.559471 0.661912 0.962957
Si Si4 0.813575 0.031170 0.319312
Si Si5 0.858885 0.820371 0.803986
Si Si6 0.112916 0.486807 0.573702
O O1 0.958127 0.794845 0.159787
O O2 0.089706 0.156906 0.293391
O O3 0.000000 0.083479 0.250000
O O4 0.998776 0.156726 0.452414
O O5 0.069068 0.050212 0.438324
O O6 0.579229 0.585053 0.926145
O O7 0.610006 0.688856 0.057939
O O8 0.816622 0.114135 0.308329
O O9 0.844045 0.013929 0.453532
O O10 0.750000 0.000000 0.313568
O O11 0.851905 0.000423 0.204031
O O12 0.833392 0.750000 0.750000
#
# Coordination Sequence:
#
# PCOD9507464 Si02
#       6
#     4  16  16  16  16  16
#     4  12  24  28  46  76 124 164 162 218 276 328
#     4   9  18  32  56  83 107 148 185 223 263 328
#     4  10  21  32  48  80 118 150 182 213 273 332
#     4  10  21  38  61  83 105 141 189 247 286 319
#     4   9  18  36  58  79 107 144 192 222 265 339
#     4  10  21  35  58  82 109 145 187 235 277 329
#
# _framework density 17.850033
#
# number of rings (size 3 to 8) (size 9 to 14) (size 15 to 20)
#    0.000    2.286    0.000    3.429    4.000    2.667 
#    0.000    0.000    2.095    6.857    0.000    0.000 
#    0.000    0.000    0.000    0.000    0.000    0.000 
#
# Total GULP energy -234368.726315 kJ/mol
# GULP energy per Si atom -5580.207769 kJ/mol
# Density = 1.780941 g / cm^3
# Si number density = 17.850033 Si / 1000 Ang^3
#
#
#
# Elastic Constant Matrix: (Units=GPa)
#
#
# Indices 1 2 3 4 5 6 
#
# 1 65.2837 25.6827 17.4608 0.0000 0.0000 0.0000
# 2 25.6827 74.7969 41.0609 0.0000 0.0000 0.0000
# 3 17.4608 41.0609 91.0469 0.0000 0.0000 0.0000
# 4 0.0000 0.0000 0.0000 24.9782 0.0000 0.0000
# 5 0.0000 0.0000 0.0000 0.0000 16.9826 0.0000
# 6 0.0000 0.0000 0.0000 0.0000 0.0000 13.9037
#
#
#
# Elastic Compliance Matrix: (Units=1/GPa)
#
#
# Indices 1 2 3 4 5 6 
#
# 1 0.017762 -0.005620 -0.000872 0.000000 0.000000 0.000000
# 2 -0.005620 0.019547 -0.007738 0.000000 0.000000 0.000000
# 3 -0.000872 -0.007738 0.014640 0.000000 0.000000 0.000000
# 4 0.000000 0.000000 0.000000 0.040035 0.000000 0.000000
# 5 0.000000 0.000000 0.000000 0.000000 0.058884 0.000000
# 6 0.000000 0.000000 0.000000 0.000000 0.000000 0.071923
#
#
# Mechanical properties :
#
#
# Convention : Reuss Voigt Hill
#
# Bulk Modulus (GPa) = 42.57155 44.39294 43.48225
# Shear Modulus (GPa) = 19.29904 20.96777 20.13340
#
# Velocity S-wave (km/s) = 3.29169 3.43105 3.36209
# Velocity P-wave (km/s) = 6.19260 6.37339 6.28365
#
# Compressibility (1/GPa) = 0.02348987
#
# Stress axis : x y z
#
# Youngs Moduli (GPa) = 56.30017 51.15868 68.30578
#
# Poissons Ratio (x) = 0.28753 0.05954
# Poissons Ratio (y) = 0.31643 0.52852
# Poissons Ratio (z) = 0.04907 0.39584
#
# Static dielectric constant tensor:
#      x y z
#    x 1.587870 0.000000 0.000000 
#    y 0.000000 1.617080 0.000000 
#    z 0.000000 0.000000 1.613370 
# 
# From -- ./inp_files/8873.got.cif
#   From: 2010.05.17/outbox.cif.g08.bks.cpg/sg68_5_cif.got.tgz:8873.got - 2010.06.03 18:57:09.
