data_PCOD9507173
_publ_section_title
;
Structure prediction by ZEFSAII (Michael W. Deem and Ramdas Pophale) SiO2 
 PCOD9507173
Probable space group: C C C A
;
_chemical_formula_sum "Si O2"
_cell_formula_units_Z 104
_cell_length_a 23.975421
_cell_length_b 8.194996
_cell_length_c 25.864441
_cell_angle_alpha 90.000000
_cell_angle_beta 90.000000
_cell_angle_gamma 90.000000
_cell_volume 5081.806033
_symmetry_space_group_name_H-M "C C C A"
_symmetry_group_IT_number 68
_space_group.IT_coordinate_system_code '2'
_symmetry_cell_setting 'orthorhombic'
loop_
_space_group_symop_operation_xyz
x,y,z
-x,1/2-y,z
x,1/2-y,1/2-z
-x,y,1/2-z
-x,-y,-z
x,1/2+y,-z
-x,1/2+y,1/2+z
x,-y,1/2+z
1/2+x,1/2+y,z
1/2-x,-y,z
1/2+x,-y,1/2-z
1/2-x,1/2+y,1/2-z
1/2-x,1/2-y,-z
1/2+x,y,-z
1/2-x,y,1/2+z
1/2+x,1/2-y,1/2+z
loop_
_atom_site_type_symbol
_atom_site_label
_atom_site_fract_x
_atom_site_fract_y
_atom_site_fract_z
Si Si1 0.000000 0.250000 0.378786
Si Si2 0.874139 0.804318 0.636258
Si Si3 0.651144 0.322718 0.058837
Si Si4 0.975222 0.569195 0.053179
Si Si5 0.189032 0.437935 0.228397
Si Si6 0.684091 0.466295 0.163004
Si Si7 0.686503 0.031480 0.542790
O O1 0.060027 0.211467 0.354173
O O2 0.011726 0.419588 0.408826
O O3 0.849424 0.928858 0.678452
O O4 0.847678 0.628397 0.645914
O O5 0.850582 0.853482 0.579871
O O6 0.590879 0.402520 0.051618
O O7 0.670250 0.338348 0.118303
O O8 0.652244 0.135163 0.043723
O O9 0.690514 0.405466 0.015934
O O10 0.000000 0.750000 0.065074
O O11 0.000000 0.500000 0.000000
O O12 0.192819 0.250000 0.250000
O O13 0.250000 0.500000 0.213058
O O14 0.169649 0.551171 0.276350
O O15 0.750000 0.500000 0.162498
O O16 0.750000 0.000000 0.562013
#
# Coordination Sequence:
#
# PCOD9507173 Si02
#       7
#     8  16  16  16  16  16  16
#     4  12  24  42  65  96 136 176 230 279 326 402
#     4  11  22  41  62  93 131 172 220 268 334 398
#     4  12  23  40  60  91 129 170 218 273 337 401
#     4  12  24  40  63  91 127 181 236 276 326 391
#     4   9  20  38  65  95 127 164 216 271 333 403
#     4  10  20  39  63  91 125 161 210 272 327 394
#     4  12  25  39  61  95 132 175 215 273 346 409
#
# _framework density 20.465164999999999
#
# number of rings (size 3 to 8) (size 9 to 14) (size 15 to 20)
#    0.000    0.923    2.308    6.000    0.000    2.462 
#    0.000    3.462    0.000    0.000    0.000    0.000 
#    0.000    0.000    0.000    0.000    0.000    0.000 
#
# Total GULP energy -290222.276409 kJ/mol
# GULP energy per Si atom -5581.197623 kJ/mol
# Density = 2.041859 g / cm^3
# Si number density = 20.465165 Si / 1000 Ang^3
#
#
#
# Elastic Constant Matrix: (Units=GPa)
#
#
# Indices 1 2 3 4 5 6 
#
# 1 110.1662 16.3484 24.8412 0.0000 0.0000 0.0000
# 2 16.3484 73.9190 22.5442 0.0000 0.0000 0.0000
# 3 24.8412 22.5442 89.8340 0.0000 0.0000 0.0000
# 4 0.0000 0.0000 0.0000 17.3447 0.0000 0.0000
# 5 0.0000 0.0000 0.0000 0.0000 -0.0484 0.0000
# 6 0.0000 0.0000 0.0000 0.0000 0.0000 38.8249
#
#
#
# Elastic Compliance Matrix: (Units=1/GPa)
#
#
# Indices 1 2 3 4 5 6 
#
# 1 0.009823 -0.001456 -0.002351 0.000000 0.000000 0.000000
# 2 -0.001456 0.014865 -0.003328 0.000000 0.000000 0.000000
# 3 -0.002351 -0.003328 0.012617 0.000000 0.000000 0.000000
# 4 0.000000 0.000000 0.000000 0.057655 0.000000 0.000000
# 5 0.000000 0.000000 0.000000 0.000000-20.649407 0.000000
# 6 0.000000 0.000000 0.000000 0.000000 0.000000 0.025757
#
#
# Mechanical properties :
#
#
# Convention : Reuss Voigt Hill
#
# Bulk Modulus (GPa) = 43.40989 44.59854 44.00422
# Shear Modulus (GPa) = -0.24382 25.23659 12.49639
#
# Velocity S-wave (km/s) = -0.34554 3.51543 2.47375
# Velocity P-wave (km/s) = 4.59330 6.19011 5.45050
#
# Compressibility (1/GPa) = 0.02303622
#
# Stress axis : x y z
#
# Youngs Moduli (GPa) = 101.79838 67.27104 79.25843
#
# Poissons Ratio (x) = 0.09792 0.18634
# Poissons Ratio (y) = 0.14817 0.26377
# Poissons Ratio (z) = 0.23934 0.22388
#
# Static dielectric constant tensor:
#      x y z
#    x 1.842670 0.000000 0.000000 
#    y 0.000000 1.951640 0.000000 
#    z 0.000000 0.000000 1.799970 
# 
# From -- ./inp_files/51863.got.cif
#   From: 2010.05.17/outbox.cif.g08.bks.cpg/sg68_26_cif.got.tgz:51863.got - 2010.06.03 18:57:09.
