data_PCOD9507378
_publ_section_title
;
Structure prediction by ZEFSAII (Michael W. Deem and Ramdas Pophale) SiO2 
 PCOD9507378
Probable space group: C C C A
;
_chemical_formula_sum "Si O2"
_cell_formula_units_Z 120
_cell_length_a 18.756420
_cell_length_b 18.237342
_cell_length_c 13.540024
_cell_angle_alpha 90.000000
_cell_angle_beta 90.000000
_cell_angle_gamma 90.000000
_cell_volume 4631.598724
_symmetry_space_group_name_H-M "C C C A"
_symmetry_group_IT_number 68
_space_group.IT_coordinate_system_code '2'
_symmetry_cell_setting 'orthorhombic'
loop_
_space_group_symop_operation_xyz
x,y,z
-x,1/2-y,z
x,1/2-y,1/2-z
-x,y,1/2-z
-x,-y,-z
x,1/2+y,-z
-x,1/2+y,1/2+z
x,-y,1/2+z
1/2+x,1/2+y,z
1/2-x,-y,z
1/2+x,-y,1/2-z
1/2-x,1/2+y,1/2-z
1/2-x,1/2-y,-z
1/2+x,y,-z
1/2-x,y,1/2+z
1/2+x,1/2-y,1/2+z
loop_
_atom_site_type_symbol
_atom_site_label
_atom_site_fract_x
_atom_site_fract_y
_atom_site_fract_z
Si Si1 0.076903 0.043787 0.210633
Si Si2 0.350841 0.701521 0.551599
Si Si3 0.867084 0.584278 0.891296
Si Si4 0.428039 0.565704 0.525050
Si Si5 0.322195 0.424930 0.334455
Si Si6 0.434388 0.164940 0.064999
Si Si7 0.250000 0.500000 0.522998
Si Si8 0.775901 0.290670 0.155465
O O1 0.101493 0.107073 0.285271
O O2 0.141793 0.987175 0.230680
O O3 0.000000 0.017756 0.250000
O O4 0.072333 0.061101 0.094607
O O5 0.363116 0.615209 0.565383
O O6 0.423472 0.747625 0.571631
O O7 0.289946 0.739713 0.616254
O O8 0.327363 0.703551 0.437500
O O9 0.885953 0.647286 0.968553
O O10 0.915139 0.513906 0.928790
O O11 0.785011 0.559241 0.900292
O O12 0.496998 0.612963 0.555220
O O13 0.388639 0.369855 0.347057
O O14 0.304444 0.469792 0.435499
O O15 0.255952 0.371069 0.318997
O O16 0.805460 0.250000 0.250000
#
# Coordination Sequence:
#
# PCOD9507378 Si02
#       8
#    16  16  16  16  16  16   8  16
#     4  12  24  40  66 103 133 170 218 280 340 400
#     4  10  24  42  69  93 128 178 222 269 339 399
#     4  11  23  39  65  95 131 175 217 272 339 391
#     4  12  22  43  67  95 134 175 220 273 339 402
#     4  10  22  41  65  95 133 166 220 274 328 398
#     4  10  20  42  65  91 130 172 212 269 326 399
#     4  10  20  42  62  92 128 172 214 274 328 388
#     4  10  23  45  64  92 133 172 219 275 330 399
#
# _framework density 25.908981000000001
#
# number of rings (size 3 to 8) (size 9 to 14) (size 15 to 20)
#    0.000    1.333    4.000    2.400    1.867    2.667 
#    0.000    0.000    0.000    0.000    0.000    0.000 
#    0.000    0.000    0.000    0.000    0.000    0.000 
#
# Total GULP energy -334384.538135 kJ/mol
# GULP energy per Si atom -5573.075636 kJ/mol
# Density = 2.585001 g / cm^3
# Si number density = 25.908981 Si / 1000 Ang^3
#
#
#
# Elastic Constant Matrix: (Units=GPa)
#
#
# Indices 1 2 3 4 5 6 
#
# 1 85.4360 29.1204 3.1997 0.0000 0.0000 0.0000
# 2 29.1204 102.4289 2.1384 0.0000 0.0000 0.0000
# 3 3.1997 2.1384 51.9620 0.0000 0.0000 0.0000
# 4 0.0000 0.0000 0.0000 10.6835 0.0000 0.0000
# 5 0.0000 0.0000 0.0000 0.0000 17.9242 0.0000
# 6 0.0000 0.0000 0.0000 0.0000 0.0000 36.2129
#
#
#
# Elastic Compliance Matrix: (Units=1/GPa)
#
#
# Indices 1 2 3 4 5 6 
#
# 1 0.012982 -0.003677 -0.000648 0.000000 0.000000 0.000000
# 2 -0.003677 0.010813 -0.000219 0.000000 0.000000 0.000000
# 3 -0.000648 -0.000219 0.019294 0.000000 0.000000 0.000000
# 4 0.000000 0.000000 0.000000 0.093602 0.000000 0.000000
# 5 0.000000 0.000000 0.000000 0.000000 0.055791 0.000000
# 6 0.000000 0.000000 0.000000 0.000000 0.000000 0.027614
#
#
# Mechanical properties :
#
#
# Convention : Reuss Voigt Hill
#
# Bulk Modulus (GPa) = 29.41086 34.30487 31.85787
# Shear Modulus (GPa) = 20.78846 26.65534 23.72190
#
# Velocity S-wave (km/s) = 2.83568 3.21098 3.02915
# Velocity P-wave (km/s) = 4.70082 5.19774 4.95551
#
# Compressibility (1/GPa) = 0.03400104
#
# Stress axis : x y z
#
# Youngs Moduli (GPa) = 77.02777 92.48221 51.83029
#
# Poissons Ratio (x) = 0.34009 0.03359
# Poissons Ratio (y) = 0.28326 0.01133
# Poissons Ratio (z) = 0.04992 0.02021
#
# Static dielectric constant tensor:
#      x y z
#    x 2.179440 0.000000 0.000000 
#    y 0.000000 2.249890 0.000000 
#    z 0.000000 0.000000 2.065590 
# 
# From -- ./inp_files/24801.got.cif
#   From: 2010.05.17/outbox.cif.g08.bks.cpg/sg68_13_cif.got.tgz:24801.got - 2010.06.03 18:57:09.
