data_PCOD9507186
_publ_section_title
;
Structure prediction by ZEFSAII (Michael W. Deem and Ramdas Pophale) SiO2 
 PCOD9507186
Probable space group: C C C A
;
_chemical_formula_sum "Si O2"
_cell_formula_units_Z 116
_cell_length_a 26.195577
_cell_length_b 12.354717
_cell_length_c 18.014011
_cell_angle_alpha 90.000000
_cell_angle_beta 90.000000
_cell_angle_gamma 90.000000
_cell_volume 5830.035434
_symmetry_space_group_name_H-M "C C C A"
_symmetry_group_IT_number 68
_space_group.IT_coordinate_system_code '2'
_symmetry_cell_setting 'orthorhombic'
loop_
_space_group_symop_operation_xyz
x,y,z
-x,1/2-y,z
x,1/2-y,1/2-z
-x,y,1/2-z
-x,-y,-z
x,1/2+y,-z
-x,1/2+y,1/2+z
x,-y,1/2+z
1/2+x,1/2+y,z
1/2-x,-y,z
1/2+x,-y,1/2-z
1/2-x,1/2+y,1/2-z
1/2-x,1/2-y,-z
1/2+x,y,-z
1/2-x,y,1/2+z
1/2+x,1/2-y,1/2+z
loop_
_atom_site_type_symbol
_atom_site_label
_atom_site_fract_x
_atom_site_fract_y
_atom_site_fract_z
Si Si1 0.557772 0.708233 0.015278
Si Si2 0.323209 0.047030 0.053343
Si Si3 0.500000 0.750000 0.250000
Si Si4 0.525522 0.358250 0.359602
Si Si5 0.927908 0.001605 0.384556
Si Si6 0.574813 0.065120 0.715246
Si Si7 0.729953 0.680665 0.070394
Si Si8 0.352489 0.656309 0.095480
O O1 0.500000 0.750000 0.026778
O O2 0.563677 0.595790 0.057039
O O3 0.600971 0.784523 0.051088
O O4 0.560848 0.682083 0.927480
O O5 0.376965 0.059792 0.092988
O O6 0.281942 0.122038 0.095593
O O7 0.305309 0.922808 0.052691
O O8 0.328732 0.079337 0.967323
O O9 0.464709 0.834091 0.295755
O O10 0.500000 0.250000 0.326905
O O11 0.476870 0.425491 0.388810
O O12 0.553552 0.447920 0.309802
O O13 0.919785 0.054425 0.303588
O O14 0.623478 0.096423 0.666056
O O15 0.692599 0.759503 0.115983
O O16 0.750000 0.750000 0.000000
#
# Coordination Sequence:
#
# PCOD9507186 Si02
#       8
#    16  16   4  16  16  16  16  16
#     4  11  22  36  61  93 127 161 213 263 308 365
#     4  10  20  39  64  92 121 153 216 261 329 383
#     4  12  24  44  54  92 128 184 208 248 296 380
#     4  11  24  42  60  91 130 175 215 260 305 377
#     4  12  22  39  60  92 128 173 205 258 316 382
#     4  12  26  39  63  91 135 173 217 251 314 395
#     4   9  20  38  65  93 116 155 202 272 329 378
#     4  11  22  39  64  96 120 163 209 274 321 379
#
# _framework density 19.896964000000001
#
# number of rings (size 3 to 8) (size 9 to 14) (size 15 to 20)
#    0.000    1.103    2.759    4.552    1.931    1.103 
#    0.000    0.000    0.000    8.276    0.000    0.000 
#    0.000    0.000    0.000    0.000    0.000    0.000 
#
# Total GULP energy -323612.284462 kJ/mol
# GULP energy per Si atom -5579.522146 kJ/mol
# Density = 1.985168 g / cm^3
# Si number density = 19.896964 Si / 1000 Ang^3
#
#
#
# Elastic Constant Matrix: (Units=GPa)
#
#
# Indices 1 2 3 4 5 6 
#
# 1 57.5564 5.2710 0.0522 0.0000 0.0000 0.0000
# 2 5.2710 88.9228 17.4325 0.0000 0.0000 0.0000
# 3 0.0522 17.4325 74.5946 0.0000 0.0000 0.0000
# 4 0.0000 0.0000 0.0000 36.1292 0.0000 0.0000
# 5 0.0000 0.0000 0.0000 0.0000 -13.4478 0.0000
# 6 0.0000 0.0000 0.0000 0.0000 0.0000 27.6243
#
#
#
# Elastic Compliance Matrix: (Units=1/GPa)
#
#
# Indices 1 2 3 4 5 6 
#
# 1 0.017473 -0.001083 0.000241 0.000000 0.000000 0.000000
# 2 -0.001083 0.011853 -0.002769 0.000000 0.000000 0.000000
# 3 0.000241 -0.002769 0.014053 0.000000 0.000000 0.000000
# 4 0.000000 0.000000 0.000000 0.027678 0.000000 0.000000
# 5 0.000000 0.000000 0.000000 0.000000 -0.074361 0.000000
# 6 0.000000 0.000000 0.000000 0.000000 0.000000 0.036200
#
#
# Mechanical properties :
#
#
# Convention : Reuss Voigt Hill
#
# Bulk Modulus (GPa) = 27.65779 29.62057 28.63918
# Shear Modulus (GPa) = 95.83959 23.28235 59.56097
#
# Velocity S-wave (km/s) = 6.94784 3.42445 5.47720
# Velocity P-wave (km/s) = 8.84839 5.52767 7.37730
#
# Compressibility (1/GPa) = 0.03615618
#
# Stress axis : x y z
#
# Youngs Moduli (GPa) = 57.23040 84.36836 71.16030
#
# Poissons Ratio (x) = 0.09137 -0.01714
# Poissons Ratio (y) = 0.06198 0.19706
# Poissons Ratio (z) = -0.01378 0.23363
#
# Static dielectric constant tensor:
#      x y z
#    x 1.739660 0.000000 0.000000 
#    y 0.000000 1.739230 0.000000 
#    z 0.000000 0.000000 1.716730 
# 
# From -- ./inp_files/34184.got.cif
#   From: 2010.05.17/outbox.cif.g08.bks.cpg/sg68_18_cif.got.tgz:34184.got - 2010.06.03 18:57:09.
