data_PCOD9507284
_publ_section_title
;
Structure prediction by ZEFSAII (Michael W. Deem and Ramdas Pophale) SiO2 
 PCOD9507284
Probable space group: C C C A
;
_chemical_formula_sum "Si O2"
_cell_formula_units_Z 92
_cell_length_a 7.832278
_cell_length_b 19.703355
_cell_length_c 25.722493
_cell_angle_alpha 90.000000
_cell_angle_beta 90.000000
_cell_angle_gamma 90.000000
_cell_volume 3969.550523
_symmetry_space_group_name_H-M "C C C A"
_symmetry_group_IT_number 68
_space_group.IT_coordinate_system_code '2'
_symmetry_cell_setting 'orthorhombic'
loop_
_space_group_symop_operation_xyz
x,y,z
-x,1/2-y,z
x,1/2-y,1/2-z
-x,y,1/2-z
-x,-y,-z
x,1/2+y,-z
-x,1/2+y,1/2+z
x,-y,1/2+z
1/2+x,1/2+y,z
1/2-x,-y,z
1/2+x,-y,1/2-z
1/2-x,1/2+y,1/2-z
1/2-x,1/2-y,-z
1/2+x,y,-z
1/2-x,y,1/2+z
1/2+x,1/2-y,1/2+z
loop_
_atom_site_type_symbol
_atom_site_label
_atom_site_fract_x
_atom_site_fract_y
_atom_site_fract_z
Si Si1 0.000000 0.968293 0.250000
Si Si2 0.750000 0.000000 0.667257
Si Si3 0.500000 0.750000 0.094679
Si Si4 0.135608 0.143760 0.674542
Si Si5 0.213287 0.354397 0.613907
Si Si6 0.337116 0.926887 0.476707
Si Si7 0.500000 0.250000 0.250000
Si Si8 0.178217 0.621526 0.928771
O O1 0.114112 0.918756 0.214227
O O2 0.095523 0.010106 0.293115
O O3 0.742678 0.930597 0.635893
O O4 0.638067 0.798518 0.124644
O O5 0.386139 0.801990 0.061513
O O6 0.127436 0.206194 0.714136
O O7 0.278076 0.124507 0.632312
O O8 0.969077 0.160875 0.638692
O O9 0.227354 0.368835 0.552593
O O10 0.334906 0.904964 0.536866
O O11 0.519805 0.924696 0.448086
O O12 0.250000 0.000000 0.471903
#
# Coordination Sequence:
#
# PCOD9507284 Si02
#       8
#     8   8   8  16  16  16   4  16
#     4   9  22  39  64  95 132 171 240 296 368 405
#     4  10  20  40  64  94 134 184 228 310 356 438
#     4  10  24  40  61  99 132 186 227 287 342 420
#     4  10  21  41  66 102 130 188 231 304 356 435
#     4  10  21  41  67  93 143 181 232 286 357 426
#     4  11  23  43  67 103 147 191 231 290 350 439
#     4  10  20  40  74  90 140 178 250 292 372 424
#     4  11  24  41  68 102 141 185 241 281 358 434
#
# _framework density 23.176428000000001
#
# number of rings (size 3 to 8) (size 9 to 14) (size 15 to 20)
#    0.000    1.739    0.870    2.609    0.000    5.565 
#    4.696    6.087    0.000   26.609    0.000    0.000 
#    0.000    0.000    0.000    0.000    0.000    0.000 
#
# Total GULP energy -256399.706362 kJ/mol
# GULP energy per Si atom -5573.906660 kJ/mol
# Density = 2.312368 g / cm^3
# Si number density = 23.176428 Si / 1000 Ang^3
#
#
#
# Elastic Constant Matrix: (Units=GPa)
#
#
# Indices 1 2 3 4 5 6 
#
# 1 89.5287 28.5616 29.4093 0.0000 0.0000 0.0000
# 2 28.5616 72.3961 30.0097 0.0000 0.0000 0.0000
# 3 29.4093 30.0097 122.9395 0.0000 0.0000 0.0000
# 4 0.0000 0.0000 0.0000 -2.0509 0.0000 0.0000
# 5 0.0000 0.0000 0.0000 0.0000 32.3633 0.0000
# 6 0.0000 0.0000 0.0000 0.0000 0.0000 24.2362
#
#
#
# Elastic Compliance Matrix: (Units=1/GPa)
#
#
# Indices 1 2 3 4 5 6 
#
# 1 0.013251 -0.004354 -0.002107 0.000000 0.000000 0.000000
# 2 -0.004354 0.016799 -0.003059 0.000000 0.000000 0.000000
# 3 -0.002107 -0.003059 0.009385 0.000000 0.000000 0.000000
# 4 0.000000 0.000000 0.000000 -0.487590 0.000000 0.000000
# 5 0.000000 0.000000 0.000000 0.000000 0.030899 0.000000
# 6 0.000000 0.000000 0.000000 0.000000 0.000000 0.041261
#
#
# Mechanical properties :
#
#
# Convention : Reuss Voigt Hill
#
# Bulk Modulus (GPa) = 49.03419 51.20284 50.11851
# Shear Modulus (GPa) = -14.27930 24.03528 4.87799
#
# Velocity S-wave (km/s) = -2.48486 3.22383 1.45234
# Velocity P-wave (km/s) = 3.60141 5.99984 4.94814
#
# Compressibility (1/GPa) = 0.02039393
#
# Stress axis : x y z
#
# Youngs Moduli (GPa) = 75.46688 59.52815 106.55534
#
# Poissons Ratio (x) = 0.25921 0.22451
# Poissons Ratio (y) = 0.32861 0.32595
# Poissons Ratio (z) = 0.15900 0.18209
#
# Static dielectric constant tensor:
#      x y z
#    x 2.147880 0.000000 0.000000 
#    y 0.000000 1.891900 0.000000 
#    z 0.000000 0.000000 1.883350 
# 
# From -- ./inp_files/49391.got.cif
#   From: 2010.05.17/outbox.cif.g08.bks.cpg/sg68_25_cif.got.tgz:49391.got - 2010.06.03 18:57:09.
