data_PCOD9507890
_publ_section_title
;
Structure prediction by ZEFSAII (Michael W. Deem and Ramdas Pophale) SiO2 
 PCOD9507890
Probable space group: C C C A
;
_chemical_formula_sum "Si O2"
_cell_formula_units_Z 72
_cell_length_a 10.022650
_cell_length_b 17.458802
_cell_length_c 18.953142
_cell_angle_alpha 90.000000
_cell_angle_beta 90.000000
_cell_angle_gamma 90.000000
_cell_volume 3316.486400
_symmetry_space_group_name_H-M "C C C A"
_symmetry_group_IT_number 68
_space_group.IT_coordinate_system_code '2'
_symmetry_cell_setting 'orthorhombic'
loop_
_space_group_symop_operation_xyz
x,y,z
-x,1/2-y,z
x,1/2-y,1/2-z
-x,y,1/2-z
-x,-y,-z
x,1/2+y,-z
-x,1/2+y,1/2+z
x,-y,1/2+z
1/2+x,1/2+y,z
1/2-x,-y,z
1/2+x,-y,1/2-z
1/2-x,1/2+y,1/2-z
1/2-x,1/2-y,-z
1/2+x,y,-z
1/2-x,y,1/2+z
1/2+x,1/2-y,1/2+z
loop_
_atom_site_type_symbol
_atom_site_label
_atom_site_fract_x
_atom_site_fract_y
_atom_site_fract_z
Si Si1 0.683699 0.186190 0.924043
Si Si2 0.389754 0.042194 0.842733
Si Si3 0.000000 0.579604 0.250000
Si Si4 0.785208 0.839819 0.764984
Si Si5 0.102136 0.651345 0.533092
O O1 0.670736 0.151426 0.846472
O O2 0.673412 0.278986 0.922879
O O3 0.555258 0.167203 0.972082
O O4 0.817098 0.155504 0.960687
O O5 0.376264 0.113171 0.789042
O O6 0.393572 0.074566 0.921378
O O7 0.250000 0.000000 0.833960
O O8 0.494983 0.979098 0.816561
O O9 0.866730 0.630098 0.244717
O O10 0.791565 0.750000 0.750000
#
# Coordination Sequence:
#
# PCOD9507890 Si02
#       5
#    16  16   8  16  16
#     4  10  22  39  66  94 125 166 220 273 320 380
#     4  10  21  39  61  89 132 168 212 269 332 391
#     4  10  23  38  59  96 136 172 208 278 337 396
#     4  11  21  40  65  98 125 171 228 272 324 393
#     4  10  21  41  61  95 127 169 212 272 327 388
#
# _framework density 21.709723
#
# number of rings (size 3 to 8) (size 9 to 14) (size 15 to 20)
#    0.000    1.778    2.222    1.667    0.000    3.556 
#    8.000    7.778    0.000    0.000    0.000    0.000 
#    0.000    0.000    0.000    0.000    0.000    0.000 
#
# Total GULP energy -200984.312804 kJ/mol
# GULP energy per Si atom -5582.897578 kJ/mol
# Density = 2.166031 g / cm^3
# Si number density = 21.709723 Si / 1000 Ang^3
#
#
#
# Elastic Constant Matrix: (Units=GPa)
#
#
# Indices 1 2 3 4 5 6 
#
# 1 91.1769 11.5242 17.4816 0.0000 0.0000 0.0000
# 2 11.5242 79.8736 3.8249 0.0000 0.0000 0.0000
# 3 17.4816 3.8249 65.7385 0.0000 0.0000 0.0000
# 4 0.0000 0.0000 0.0000 18.8107 0.0000 0.0000
# 5 0.0000 0.0000 0.0000 0.0000 31.0188 0.0000
# 6 0.0000 0.0000 0.0000 0.0000 0.0000 -9.6471
#
#
#
# Elastic Compliance Matrix: (Units=1/GPa)
#
#
# Indices 1 2 3 4 5 6 
#
# 1 0.011745 -0.001549 -0.003033 0.000000 0.000000 0.000000
# 2 -0.001549 0.012759 -0.000330 0.000000 0.000000 0.000000
# 3 -0.003033 -0.000330 0.016038 0.000000 0.000000 0.000000
# 4 0.000000 0.000000 0.000000 0.053161 0.000000 0.000000
# 5 0.000000 0.000000 0.000000 0.000000 0.032238 0.000000
# 6 0.000000 0.000000 0.000000 0.000000 0.000000 -0.103658
#
#
# Mechanical properties :
#
#
# Convention : Reuss Voigt Hill
#
# Bulk Modulus (GPa) = 32.55625 33.60561 33.08093
# Shear Modulus (GPa) = 118.06985 21.63371 69.85178
#
# Velocity S-wave (km/s) = 7.38267 3.16016 5.67849
# Velocity P-wave (km/s) = 9.36485 5.36923 7.63312
#
# Compressibility (1/GPa) = 0.03071606
#
# Stress axis : x y z
#
# Youngs Moduli (GPa) = 85.14211 78.37522 62.35346
#
# Poissons Ratio (x) = 0.12143 0.18913
# Poissons Ratio (y) = 0.13191 0.02060
# Poissons Ratio (z) = 0.25825 0.02589
#
# Static dielectric constant tensor:
#      x y z
#    x 1.781880 0.000000 0.000000 
#    y 0.000000 1.814360 0.000000 
#    z 0.000000 0.000000 1.783200 
# 
# From -- ./inp_files/29411.got.cif
#   From: 2010.05.17/outbox.cif.g08.bks.cpg/sg68_15_cif.got.tgz:29411.got - 2010.06.03 18:57:09.
