data_PCOD9507703
_publ_section_title
;
Structure prediction by ZEFSAII (Michael W. Deem and Ramdas Pophale) SiO2 
 PCOD9507703
Probable space group: C C C A
;
_chemical_formula_sum "Si O2"
_cell_formula_units_Z 112
_cell_length_a 27.395121
_cell_length_b 11.962752
_cell_length_c 17.989517
_cell_angle_alpha 90.000000
_cell_angle_beta 90.000000
_cell_angle_gamma 90.000000
_cell_volume 5895.543194
_symmetry_space_group_name_H-M "C C C A"
_symmetry_group_IT_number 68
_space_group.IT_coordinate_system_code '2'
_symmetry_cell_setting 'orthorhombic'
loop_
_space_group_symop_operation_xyz
x,y,z
-x,1/2-y,z
x,1/2-y,1/2-z
-x,y,1/2-z
-x,-y,-z
x,1/2+y,-z
-x,1/2+y,1/2+z
x,-y,1/2+z
1/2+x,1/2+y,z
1/2-x,-y,z
1/2+x,-y,1/2-z
1/2-x,1/2+y,1/2-z
1/2-x,1/2-y,-z
1/2+x,y,-z
1/2-x,y,1/2+z
1/2+x,1/2-y,1/2+z
loop_
_atom_site_type_symbol
_atom_site_label
_atom_site_fract_x
_atom_site_fract_y
_atom_site_fract_z
Si Si1 0.453043 0.312060 0.671727
Si Si2 0.862788 0.154787 0.798991
Si Si3 0.545990 0.576055 0.800786
Si Si4 0.358034 0.750410 0.081230
Si Si5 0.386850 0.334373 0.081049
Si Si6 0.806847 0.017622 0.055013
Si Si7 0.305218 0.968653 0.120923
O O1 0.500000 0.250000 0.635985
O O2 0.447103 0.250000 0.750000
O O3 0.459979 0.443479 0.686339
O O4 0.404343 0.291474 0.626519
O O5 0.835893 0.250000 0.750000
O O6 0.908370 0.114604 0.749693
O O7 0.876325 0.221583 0.873473
O O8 0.835729 0.045265 0.824289
O O9 0.500000 0.613305 0.750000
O O10 0.561951 0.623767 0.882356
O O11 0.323892 0.643840 0.067558
O O12 0.325596 0.843167 0.123194
O O13 0.380450 0.803046 0.005306
O O14 0.345006 0.430325 0.092697
O O15 0.750000 0.000000 0.076526
O O16 0.810592 0.999394 0.966227
O O17 0.250000 0.000000 0.139292
#
# Coordination Sequence:
#
# PCOD9507703 Si02
#       7
#    16  16  16  16  16  16  16
#     4  11  22  41  66  92 124 171 215 262 328 388
#     4  10  22  40  61  85 127 169 210 264 316 377
#     4  11  22  42  67  89 121 173 216 258 323 393
#     4  11  22  41  66  97 132 165 215 278 319 383
#     4  10  22  40  64  94 129 159 218 264 316 383
#     4  10  21  37  67  97 127 171 211 263 329 385
#     4  10  22  37  61  93 128 167 212 261 325 383
#
# _framework density 18.997402000000001
#
# number of rings (size 3 to 8) (size 9 to 14) (size 15 to 20)
#    0.000    1.571    4.286    0.857    2.000    4.286 
#    2.571    5.714    0.000    0.000    0.000    0.000 
#    0.000    0.000    0.000    0.000    0.000    0.000 
#
# Total GULP energy -311963.343912 kJ/mol
# GULP energy per Si atom -5570.773998 kJ/mol
# Density = 1.895416 g / cm^3
# Si number density = 18.997402 Si / 1000 Ang^3
#
#
#
# Elastic Constant Matrix: (Units=GPa)
#
#
# Indices 1 2 3 4 5 6 
#
# 1 109.0104 45.7107 32.7468 0.0000 0.0000 0.0000
# 2 45.7107 111.7109 10.0625 0.0000 0.0000 0.0000
# 3 32.7468 10.0625 35.3312 0.0000 0.0000 0.0000
# 4 0.0000 0.0000 0.0000 29.2646 0.0000 0.0000
# 5 0.0000 0.0000 0.0000 0.0000 33.0231 0.0000
# 6 0.0000 0.0000 0.0000 0.0000 0.0000 33.0957
#
#
#
# Elastic Compliance Matrix: (Units=1/GPa)
#
#
# Indices 1 2 3 4 5 6 
#
# 1 0.015038 -0.005027 -0.012507 0.000000 0.000000 0.000000
# 2 -0.005027 0.010868 0.001564 0.000000 0.000000 0.000000
# 3 -0.012507 0.001564 0.039450 0.000000 0.000000 0.000000
# 4 0.000000 0.000000 0.000000 0.034171 0.000000 0.000000
# 5 0.000000 0.000000 0.000000 0.000000 0.030282 0.000000
# 6 0.000000 0.000000 0.000000 0.000000 0.000000 0.030215
#
#
# Mechanical properties :
#
#
# Convention : Reuss Voigt Hill
#
# Bulk Modulus (GPa) = 29.92492 48.12140 39.02316
# Shear Modulus (GPa) = 24.61813 30.24552 27.43183
#
# Velocity S-wave (km/s) = 3.60372 3.99443 3.80409
# Velocity P-wave (km/s) = 5.75344 6.83077 6.31512
#
# Compressibility (1/GPa) = 0.03341696
#
# Stress axis : x y z
#
# Youngs Moduli (GPa) = 66.49656 92.01530 25.34859
#
# Poissons Ratio (x) = 0.46256 0.31703
# Poissons Ratio (y) = 0.33428 -0.03965
# Poissons Ratio (z) = 0.83165 -0.14392
#
# Static dielectric constant tensor:
#      x y z
#    x 2.586050 0.000000 0.000000 
#    y 0.000000 1.663930 0.000000 
#    z 0.000000 0.000000 1.664300 
# 
# From -- ./inp_files/40873.got.cif
#   From: 2010.05.17/outbox.cif.g08.bks.cpg/sg68_21_cif.got.tgz:40873.got - 2010.06.03 18:57:09.
