data_PCOD9507459
_publ_section_title
;
Structure prediction by ZEFSAII (Michael W. Deem and Ramdas Pophale) SiO2 
 PCOD9507459
Probable space group: C C C A
;
_chemical_formula_sum "Si O2"
_cell_formula_units_Z 100
_cell_length_a 18.882876
_cell_length_b 27.747645
_cell_length_c 9.061167
_cell_angle_alpha 90.000000
_cell_angle_beta 90.000000
_cell_angle_gamma 90.000000
_cell_volume 4747.646835
_symmetry_space_group_name_H-M "C C C A"
_symmetry_group_IT_number 68
_space_group.IT_coordinate_system_code '2'
_symmetry_cell_setting 'orthorhombic'
loop_
_space_group_symop_operation_xyz
x,y,z
-x,1/2-y,z
x,1/2-y,1/2-z
-x,y,1/2-z
-x,-y,-z
x,1/2+y,-z
-x,1/2+y,1/2+z
x,-y,1/2+z
1/2+x,1/2+y,z
1/2-x,-y,z
1/2+x,-y,1/2-z
1/2-x,1/2+y,1/2-z
1/2-x,1/2-y,-z
1/2+x,y,-z
1/2-x,y,1/2+z
1/2+x,1/2-y,1/2+z
loop_
_atom_site_type_symbol
_atom_site_label
_atom_site_fract_x
_atom_site_fract_y
_atom_site_fract_z
Si Si1 0.916969 0.845532 0.827908
Si Si2 0.181427 0.885409 0.897145
Si Si3 0.000000 0.250000 0.250000
Si Si4 0.208962 0.691836 0.001893
Si Si5 0.576399 0.058652 0.974076
Si Si6 0.235576 0.944318 0.617543
Si Si7 0.788272 0.250000 0.750000
Si Si8 0.000000 0.513422 0.250000
O O1 0.893327 0.865999 0.666761
O O2 0.950353 0.791498 0.827040
O O3 0.844459 0.840875 0.915900
O O4 0.952474 0.889726 0.914671
O O5 0.226122 0.837592 0.931345
O O6 0.216710 0.916275 0.766683
O O7 0.196880 0.918978 0.038804
O O8 0.169766 0.714591 0.143640
O O9 0.238869 0.725762 0.872871
O O10 0.544433 0.044269 0.131674
O O11 0.662212 0.057850 0.977017
O O12 0.550819 0.020156 0.850623
O O13 0.250000 0.000000 0.646788
#
# Coordination Sequence:
#
# PCOD9507459 Si02
#       8
#    16  16   4  16  16  16   8   8
#     4  11  24  43  67  93 134 170 230 276 334 406
#     4  11  21  40  62  99 132 166 213 275 341 402
#     4  12  28  48  64  94 124 190 234 280 328 418
#     4  11  19  38  60  96 124 162 204 271 335 394
#     4  10  23  43  67  98 135 179 233 270 330 410
#     4  11  24  37  64 103 141 173 214 275 354 407
#     4  10  21  30  60  92 122 155 202 252 338 398
#     4  10  23  44  68  94 132 192 227 268 322 406
#
# _framework density 21.063065000000002
#
# number of rings (size 3 to 8) (size 9 to 14) (size 15 to 20)
#    0.000    1.280    4.800    1.440    8.960    0.000 
#    0.000    1.600    0.000    0.000    0.000    0.000 
#    0.000    0.000    0.000    0.000    0.000    0.000 
#
# Total GULP energy -278386.692570 kJ/mol
# GULP energy per Si atom -5567.733851 kJ/mol
# Density = 2.101512 g / cm^3
# Si number density = 21.063065 Si / 1000 Ang^3
#
#
#
# Elastic Constant Matrix: (Units=GPa)
#
#
# Indices 1 2 3 4 5 6 
#
# 1 51.1297 24.6833 32.3989 0.0000 0.0000 0.0000
# 2 24.6833 152.0681 42.4355 0.0000 0.0000 0.0000
# 3 32.3989 42.4355 58.1763 0.0000 0.0000 0.0000
# 4 0.0000 0.0000 0.0000 22.3942 0.0000 0.0000
# 5 0.0000 0.0000 0.0000 0.0000 3.3462 0.0000
# 6 0.0000 0.0000 0.0000 0.0000 0.0000 20.6114
#
#
#
# Elastic Compliance Matrix: (Units=1/GPa)
#
#
# Indices 1 2 3 4 5 6 
#
# 1 0.030232 -0.000262 -0.016645 0.000000 0.000000 0.000000
# 2 -0.000262 0.008259 -0.005878 0.000000 0.000000 0.000000
# 3 -0.016645 -0.005878 0.030747 0.000000 0.000000 0.000000
# 4 0.000000 0.000000 0.000000 0.044654 0.000000 0.000000
# 5 0.000000 0.000000 0.000000 0.000000 0.298843 0.000000
# 6 0.000000 0.000000 0.000000 0.000000 0.000000 0.048517
#
#
# Mechanical properties :
#
#
# Convention : Reuss Voigt Hill
#
# Bulk Modulus (GPa) = 42.25409 51.15660 46.70534
# Shear Modulus (GPa) = 9.71416 20.06079 14.88748
#
# Velocity S-wave (km/s) = 2.14987 3.08947 2.66146
# Velocity P-wave (km/s) = 5.12512 6.08823 5.62732
#
# Compressibility (1/GPa) = 0.02366635
#
# Stress axis : x y z
#
# Youngs Moduli (GPa) = 33.07736 121.08105 32.52368
#
# Poissons Ratio (x) = 0.03175 0.54137
# Poissons Ratio (y) = 0.00867 0.19118
# Poissons Ratio (z) = 0.55058 0.71175
#
# Static dielectric constant tensor:
#      x y z
#    x 1.809540 0.000000 0.000000 
#    y 0.000000 1.892700 0.000000 
#    z 0.000000 0.000000 1.778040 
# 
# From -- ./inp_files/7518.got.cif
#   From: 2010.05.17/outbox.cif.g08.bks.cpg/sg68_4_cif.got.tgz:7518.got - 2010.06.03 18:57:09.
