data_PCOD9507626
_publ_section_title
;
Structure prediction by ZEFSAII (Michael W. Deem and Ramdas Pophale) SiO2 
 PCOD9507626
Probable space group: C C C A
;
_chemical_formula_sum "Si O2"
_cell_formula_units_Z 80
_cell_length_a 24.541808
_cell_length_b 15.325153
_cell_length_c 9.281737
_cell_angle_alpha 90.000000
_cell_angle_beta 90.000000
_cell_angle_gamma 90.000000
_cell_volume 3490.925910
_symmetry_space_group_name_H-M "C C C A"
_symmetry_group_IT_number 68
_space_group.IT_coordinate_system_code '2'
_symmetry_cell_setting 'orthorhombic'
loop_
_space_group_symop_operation_xyz
x,y,z
-x,1/2-y,z
x,1/2-y,1/2-z
-x,y,1/2-z
-x,-y,-z
x,1/2+y,-z
-x,1/2+y,1/2+z
x,-y,1/2+z
1/2+x,1/2+y,z
1/2-x,-y,z
1/2+x,-y,1/2-z
1/2-x,1/2+y,1/2-z
1/2-x,1/2-y,-z
1/2+x,y,-z
1/2-x,y,1/2+z
1/2+x,1/2-y,1/2+z
loop_
_atom_site_type_symbol
_atom_site_label
_atom_site_fract_x
_atom_site_fract_y
_atom_site_fract_z
Si Si1 0.183293 0.842169 0.053833
Si Si2 0.435458 0.358474 0.403820
Si Si3 0.142917 0.814669 0.628252
Si Si4 0.554454 0.645542 0.929789
Si Si5 0.743895 0.398878 0.788782
O O1 0.123385 0.885267 0.036660
O O2 0.205084 0.850023 0.215925
O O3 0.172723 0.746282 0.989997
O O4 0.230296 0.883745 0.955655
O O5 0.435021 0.382082 0.234472
O O6 0.440318 0.252224 0.419202
O O7 0.493581 0.385760 0.468660
O O8 0.116953 0.750000 0.750000
O O9 0.099417 0.875187 0.548691
O O10 0.189540 0.864348 0.712574
O O11 0.750000 0.500000 0.761344
#
# Coordination Sequence:
#
# PCOD9507626 Si02
#       5
#    16  16  16  16  16
#     4  10  21  37  56  83 113 147 192 236 277 341
#     4   8  15  29  53  84 113 143 181 230 285 340
#     4   9  19  35  56  86 113 144 192 237 287 338
#     4   8  14  29  54  85 114 140 179 232 290 336
#     4  11  23  38  54  78 114 155 190 231 288 340
#
# _framework density 22.916556
#
# number of rings (size 3 to 8) (size 9 to 14) (size 15 to 20)
#    0.000    2.800    0.000    2.400    2.800    0.000 
#    7.200   17.000    0.000    1.200    0.000    0.000 
#    0.000    0.000    0.000    0.000    0.000    0.000 
#
# Total GULP energy -223140.488051 kJ/mol
# GULP energy per Si atom -5578.512201 kJ/mol
# Density = 2.286440 g / cm^3
# Si number density = 22.916556 Si / 1000 Ang^3
#
#
#
# Elastic Constant Matrix: (Units=GPa)
#
#
# Indices 1 2 3 4 5 6 
#
# 1 97.4048 10.8990 30.6819 0.0000 0.0000 0.0000
# 2 10.8990 34.3388 14.1164 0.0000 0.0000 0.0000
# 3 30.6819 14.1164 66.7698 0.0000 0.0000 0.0000
# 4 0.0000 0.0000 0.0000 9.7715 0.0000 0.0000
# 5 0.0000 0.0000 0.0000 0.0000 44.8187 0.0000
# 6 0.0000 0.0000 0.0000 0.0000 0.0000 -15.1605
#
#
#
# Elastic Compliance Matrix: (Units=1/GPa)
#
#
# Indices 1 2 3 4 5 6 
#
# 1 0.012094 -0.001702 -0.005198 0.000000 0.000000 0.000000
# 2 -0.001702 0.032133 -0.006011 0.000000 0.000000 0.000000
# 3 -0.005198 -0.006011 0.018636 0.000000 0.000000 0.000000
# 4 0.000000 0.000000 0.000000 0.102339 0.000000 0.000000
# 5 0.000000 0.000000 0.000000 0.000000 0.022312 0.000000
# 6 0.000000 0.000000 0.000000 0.000000 0.000000 -0.065961
#
#
# Mechanical properties :
#
#
# Convention : Reuss Voigt Hill
#
# Bulk Modulus (GPa) = 26.99691 34.43421 30.71556
# Shear Modulus (GPa) = 31.30434 17.40701 24.35567
#
# Velocity S-wave (km/s) = 3.69997 2.75904 3.26360
# Velocity P-wave (km/s) = 5.48262 5.02078 5.25678
#
# Compressibility (1/GPa) = 0.03704128
#
# Stress axis : x y z
#
# Youngs Moduli (GPa) = 82.68499 31.12060 53.65902
#
# Poissons Ratio (x) = 0.05296 0.27890
# Poissons Ratio (y) = 0.14072 0.32257
# Poissons Ratio (z) = 0.42977 0.18708
#
# Static dielectric constant tensor:
#      x y z
#    x 1.899190 0.000000 0.000000 
#    y 0.000000 1.897030 0.000000 
#    z 0.000000 0.000000 1.880100 
# 
# From -- ./inp_files/8769.got.cif
#   From: 2010.05.17/outbox.cif.g08.bks.cpg/sg68_5_cif.got.tgz:8769.got - 2010.06.03 18:57:09.
