data_PCOD9507983
_publ_section_title
;
Structure prediction by ZEFSAII (Michael W. Deem and Ramdas Pophale) SiO2 
 PCOD9507983
Probable space group: C C C A
;
_chemical_formula_sum "Si O2"
_cell_formula_units_Z 96
_cell_length_a 23.296267
_cell_length_b 21.152356
_cell_length_c 9.837228
_cell_angle_alpha 90.000000
_cell_angle_beta 90.000000
_cell_angle_gamma 90.000000
_cell_volume 4847.500020
_symmetry_space_group_name_H-M "C C C A"
_symmetry_group_IT_number 68
_space_group.IT_coordinate_system_code '2'
_symmetry_cell_setting 'orthorhombic'
loop_
_space_group_symop_operation_xyz
x,y,z
-x,1/2-y,z
x,1/2-y,1/2-z
-x,y,1/2-z
-x,-y,-z
x,1/2+y,-z
-x,1/2+y,1/2+z
x,-y,1/2+z
1/2+x,1/2+y,z
1/2-x,-y,z
1/2+x,-y,1/2-z
1/2-x,1/2+y,1/2-z
1/2-x,1/2-y,-z
1/2+x,y,-z
1/2-x,y,1/2+z
1/2+x,1/2-y,1/2+z
loop_
_atom_site_type_symbol
_atom_site_label
_atom_site_fract_x
_atom_site_fract_y
_atom_site_fract_z
Si Si1 0.617204 0.504134 0.788197
Si Si2 0.301004 0.886064 0.738899
Si Si3 0.168603 0.621242 0.793469
Si Si4 0.876675 0.658574 0.996305
Si Si5 0.312785 0.781844 0.963667
Si Si6 0.947591 0.546288 0.041572
O O1 0.666726 0.555290 0.805677
O O2 0.634501 0.443986 0.696641
O O3 0.599616 0.478625 0.934153
O O4 0.567075 0.535927 0.699284
O O5 0.234132 0.898024 0.730721
O O6 0.307860 0.821967 0.825779
O O7 0.330836 0.878290 0.592171
O O8 0.170649 0.668470 0.919160
O O9 0.142863 0.654750 0.659924
O O10 0.937768 0.622436 0.017351
O O11 0.863432 0.730134 0.040966
O O12 0.250000 0.750000 0.000000
O O13 0.000000 0.500000 0.000000
#
# Coordination Sequence:
#
# PCOD9507983 Si02
#       6
#    16  16  16  16  16  16
#     4  10  22  36  58  86 110 150 206 250 310 358
#     4  11  20  34  53  82 122 160 192 239 289 367
#     4  11  20  34  53  82 122 160 192 239 289 367
#     4  10  22  33  53  85 114 155 208 233 288 374
#     4  12  21  33  54  83 126 166 192 222 293 366
#     4  10  21  40  60  81 110 149 201 269 309 346
#
# _framework density 19.804022
#
# number of rings (size 3 to 8) (size 9 to 14) (size 15 to 20)
#    0.000    1.333    3.333    3.000    0.000    0.000 
#    0.000    6.667    0.000    4.000    0.000   18.667 
#    0.000    0.000    0.000    0.000    0.000    0.000 
#
# Total GULP energy -267448.429681 kJ/mol
# GULP energy per Si atom -5571.842285 kJ/mol
# Density = 1.975895 g / cm^3
# Si number density = 19.804022 Si / 1000 Ang^3
#
#
#
# Elastic Constant Matrix: (Units=GPa)
#
#
# Indices 1 2 3 4 5 6 
#
# 1 40.2562 23.8528 2.1675 0.0000 0.0000 0.0000
# 2 23.8528 83.9557 4.9734 0.0000 0.0000 0.0000
# 3 2.1675 4.9734 69.8368 0.0000 0.0000 0.0000
# 4 0.0000 0.0000 0.0000 41.0842 0.0000 0.0000
# 5 0.0000 0.0000 0.0000 0.0000 14.5228 0.0000
# 6 0.0000 0.0000 0.0000 0.0000 0.0000 26.8419
#
#
#
# Elastic Compliance Matrix: (Units=1/GPa)
#
#
# Indices 1 2 3 4 5 6 
#
# 1 0.029876 -0.008469 -0.000324 0.000000 0.000000 0.000000
# 2 -0.008469 0.014362 -0.000760 0.000000 0.000000 0.000000
# 3 -0.000324 -0.000760 0.014383 0.000000 0.000000 0.000000
# 4 0.000000 0.000000 0.000000 0.024340 0.000000 0.000000
# 5 0.000000 0.000000 0.000000 0.000000 0.068857 0.000000
# 6 0.000000 0.000000 0.000000 0.000000 0.000000 0.037255
#
#
# Mechanical properties :
#
#
# Convention : Reuss Voigt Hill
#
# Bulk Modulus (GPa) = 25.30642 28.44845 26.87744
# Shear Modulus (GPa) = 22.58839 27.36012 24.97425
#
# Velocity S-wave (km/s) = 3.38094 3.72094 3.55501
# Velocity P-wave (km/s) = 5.29595 5.73208 5.51833
#
# Compressibility (1/GPa) = 0.03951566
#
# Stress axis : x y z
#
# Youngs Moduli (GPa) = 33.47119 69.62712 69.52517
#
# Poissons Ratio (x) = 0.58967 0.02254
# Poissons Ratio (y) = 0.28347 0.05284
# Poissons Ratio (z) = 0.01085 0.05291
#
# Static dielectric constant tensor:
#      x y z
#    x 1.703970 0.000000 0.000000 
#    y 0.000000 1.756660 0.000000 
#    z 0.000000 0.000000 1.712970 
# 
# From -- ./inp_files/16412.got.cif
#   From: 2010.05.17/outbox.cif.g08.bks.cpg/sg68_9_cif.got.tgz:16412.got - 2010.06.03 18:57:09.
