data_PCOD9507447
_publ_section_title
;
Structure prediction by ZEFSAII (Michael W. Deem and Ramdas Pophale) SiO2 
 PCOD9507447
Probable space group: C C C A
;
_chemical_formula_sum "Si O2"
_cell_formula_units_Z 92
_cell_length_a 20.057396
_cell_length_b 9.422706
_cell_length_c 19.892020
_cell_angle_alpha 90.000000
_cell_angle_beta 90.000000
_cell_angle_gamma 90.000000
_cell_volume 3759.491238
_symmetry_space_group_name_H-M "C C C A"
_symmetry_group_IT_number 68
_space_group.IT_coordinate_system_code '2'
_symmetry_cell_setting 'orthorhombic'
loop_
_space_group_symop_operation_xyz
x,y,z
-x,1/2-y,z
x,1/2-y,1/2-z
-x,y,1/2-z
-x,-y,-z
x,1/2+y,-z
-x,1/2+y,1/2+z
x,-y,1/2+z
1/2+x,1/2+y,z
1/2-x,-y,z
1/2+x,-y,1/2-z
1/2-x,1/2+y,1/2-z
1/2-x,1/2-y,-z
1/2+x,y,-z
1/2-x,y,1/2+z
1/2+x,1/2-y,1/2+z
loop_
_atom_site_type_symbol
_atom_site_label
_atom_site_fract_x
_atom_site_fract_y
_atom_site_fract_z
Si Si1 0.937268 0.994509 0.337736
Si Si2 0.424514 0.397403 0.628680
Si Si3 0.679477 0.420271 0.757912
Si Si4 0.167327 0.765424 0.550139
Si Si5 0.500000 0.750000 0.750000
Si Si6 0.750000 0.500000 0.989235
Si Si7 0.060856 0.639981 0.480085
O O1 0.957714 0.850743 0.298293
O O2 0.934237 0.954712 0.415513
O O3 0.868657 0.036757 0.303043
O O4 0.005143 0.090963 0.333792
O O5 0.367443 0.457605 0.677256
O O6 0.390280 0.248375 0.606301
O O7 0.435725 0.447824 0.550942
O O8 0.689933 0.250000 0.750000
O O9 0.750000 0.500000 0.759462
O O10 0.215769 0.626751 0.554168
O O11 0.127459 0.734467 0.481739
O O12 0.202807 0.911862 0.539200
O O13 0.000000 0.750000 0.481993
#
# Coordination Sequence:
#
# PCOD9507447 Si02
#       7
#    16  16  16  16   4   8  16
#     4  12  25  50  82 119 166 211 287 337 430 496
#     4  10  25  46  80 116 159 210 268 352 407 493
#     4  12  31  56  80 114 162 224 280 344 417 515
#     4   9  24  39  74 104 160 201 262 318 409 468
#     4  12  24  44  82 116 160 236 250 352 408 516
#     4  10  20  46  58 110 154 214 246 314 394 498
#     4  10  24  43  79 126 157 201 264 352 413 489
#
# _framework density 24.471395999999999
#
# number of rings (size 3 to 8) (size 9 to 14) (size 15 to 20)
#    1.043    0.348    2.609    0.522    7.304    2.087 
#    9.391    0.000    0.000    1.043    0.000    0.000 
#    0.000    0.000    0.000    0.000    0.000    0.000 
#
# Total GULP energy -256596.937047 kJ/mol
# GULP energy per Si atom -5578.194284 kJ/mol
# Density = 2.441570 g / cm^3
# Si number density = 24.471396 Si / 1000 Ang^3
#
#
#
# Elastic Constant Matrix: (Units=GPa)
#
#
# Indices 1 2 3 4 5 6 
#
# 1 219.9153 87.8463 76.4400 0.0000 0.0000 0.0000
# 2 87.8463 140.0465 41.7816 0.0000 0.0000 0.0000
# 3 76.4400 41.7816 170.2437 0.0000 0.0000 0.0000
# 4 0.0000 0.0000 0.0000 17.8587 0.0000 0.0000
# 5 0.0000 0.0000 0.0000 0.0000 35.0608 0.0000
# 6 0.0000 0.0000 0.0000 0.0000 0.0000 46.0207
#
#
#
# Elastic Compliance Matrix: (Units=1/GPa)
#
#
# Indices 1 2 3 4 5 6 
#
# 1 0.006720 -0.003577 -0.002139 0.000000 0.000000 0.000000
# 2 -0.003577 0.009608 -0.000752 0.000000 0.000000 0.000000
# 3 -0.002139 -0.000752 0.007019 0.000000 0.000000 0.000000
# 4 0.000000 0.000000 0.000000 0.055995 0.000000 0.000000
# 5 0.000000 0.000000 0.000000 0.000000 0.028522 0.000000
# 6 0.000000 0.000000 0.000000 0.000000 0.000000 0.021729
#
#
# Mechanical properties :
#
#
# Convention : Reuss Voigt Hill
#
# Bulk Modulus (GPa) = 96.05482 104.70460 100.37971
# Shear Modulus (GPa) = 34.24662 41.39722 37.82192
#
# Velocity S-wave (km/s) = 3.74499 4.11744 3.93562
# Velocity P-wave (km/s) = 7.61820 8.09221 7.85878
#
# Compressibility (1/GPa) = 0.01041072
#
# Stress axis : x y z
#
# Youngs Moduli (GPa) = 148.82009 104.07538 142.46881
#
# Poissons Ratio (x) = 0.37224 0.30478
# Poissons Ratio (y) = 0.53228 0.10716
# Poissons Ratio (z) = 0.31837 0.07828
#
# Static dielectric constant tensor:
#      x y z
#    x 2.022460 0.000000 0.000000 
#    y 0.000000 2.126400 0.000000 
#    z 0.000000 0.000000 1.996020 
# 
# From -- ./inp_files/46547.got.cif
#   From: 2010.05.17/outbox.cif.g08.bks.cpg/sg68_24_cif.got.tgz:46547.got - 2010.06.03 18:57:09.
