data_PCOD9507305
_publ_section_title
;
Structure prediction by ZEFSAII (Michael W. Deem and Ramdas Pophale) SiO2 
 PCOD9507305
Probable space group: C C C A
;
_chemical_formula_sum "Si O2"
_cell_formula_units_Z 88
_cell_length_a 30.779403
_cell_length_b 5.704403
_cell_length_c 19.913084
_cell_angle_alpha 90.000000
_cell_angle_beta 90.000000
_cell_angle_gamma 90.000000
_cell_volume 3496.301828
_symmetry_space_group_name_H-M "C C C A"
_symmetry_group_IT_number 68
_space_group.IT_coordinate_system_code '2'
_symmetry_cell_setting 'orthorhombic'
loop_
_space_group_symop_operation_xyz
x,y,z
-x,1/2-y,z
x,1/2-y,1/2-z
-x,y,1/2-z
-x,-y,-z
x,1/2+y,-z
-x,1/2+y,1/2+z
x,-y,1/2+z
1/2+x,1/2+y,z
1/2-x,-y,z
1/2+x,-y,1/2-z
1/2-x,1/2+y,1/2-z
1/2-x,1/2-y,-z
1/2+x,y,-z
1/2-x,y,1/2+z
1/2+x,1/2-y,1/2+z
loop_
_atom_site_type_symbol
_atom_site_label
_atom_site_fract_x
_atom_site_fract_y
_atom_site_fract_z
Si Si1 0.838245 0.494594 0.519989
Si Si2 0.060167 0.606991 0.814621
Si Si3 0.081959 0.490612 0.076064
Si Si4 0.860051 0.352764 0.658699
Si Si5 0.500000 0.250000 0.107322
Si Si6 0.736916 0.248139 0.174230
O O1 0.817628 0.734130 0.490871
O O2 0.885846 0.451462 0.485999
O O3 0.845635 0.527909 0.598733
O O4 0.046192 0.750000 0.750000
O O5 0.069398 0.769185 0.879095
O O6 0.106144 0.485895 0.794406
O O7 0.025212 0.424930 0.842608
O O8 0.111057 0.654728 0.123892
O O9 0.036836 0.624531 0.062821
O O10 0.814887 0.247981 0.681510
O O11 0.757106 0.250000 0.250000
O O12 0.750000 0.500000 0.143054
O O13 0.750000 0.000000 0.141897
#
# Coordination Sequence:
#
# PCOD9507305 Si02
#       6
#    16  16  16  16   8  16
#     4  10  20  40  66  94 128 172 229 282 332 392
#     4  11  24  40  67  97 134 182 232 286 348 416
#     4  10  22  40  65  95 130 181 233 280 344 401
#     4  10  23  40  68  99 135 175 230 279 342 409
#     4  10  24  43  60  98 136 182 225 292 350 410
#     4  10  24  42  68 104 144 179 218 278 346 418
#
# _framework density 25.169450999999999
#
# number of rings (size 3 to 8) (size 9 to 14) (size 15 to 20)
#    0.000    1.818    1.818    0.545    5.091    5.091 
#    0.000    8.182    0.000   13.091    0.000    0.000 
#    0.000    0.000    0.000    0.000    0.000    0.000 
#
# Total GULP energy -245957.020403 kJ/mol
# GULP energy per Si atom -5589.932282 kJ/mol
# Density = 2.511216 g / cm^3
# Si number density = 25.169451 Si / 1000 Ang^3
#
#
#
# Elastic Constant Matrix: (Units=GPa)
#
#
# Indices 1 2 3 4 5 6 
#
# 1 125.9934 37.6688 -6.3262 0.0000 0.0000 0.0000
# 2 37.6688 148.1853 -8.8116 0.0000 0.0000 0.0000
# 3 -6.3262 -8.8116 50.1072 0.0000 0.0000 0.0000
# 4 0.0000 0.0000 0.0000 24.9512 0.0000 0.0000
# 5 0.0000 0.0000 0.0000 0.0000 -0.0166 0.0000
# 6 0.0000 0.0000 0.0000 0.0000 0.0000 17.4206
#
#
#
# Elastic Compliance Matrix: (Units=1/GPa)
#
#
# Indices 1 2 3 4 5 6 
#
# 1 0.008615 -0.002148 0.000710 0.000000 0.000000 0.000000
# 2 -0.002148 0.007355 0.001022 0.000000 0.000000 0.000000
# 3 0.000710 0.001022 0.020227 0.000000 0.000000 0.000000
# 4 0.000000 0.000000 0.000000 0.040078 0.000000 0.000000
# 5 0.000000 0.000000 0.000000 0.000000-60.276523 0.000000
# 6 0.000000 0.000000 0.000000 0.000000 0.000000 0.057403
#
#
# Mechanical properties :
#
#
# Convention : Reuss Voigt Hill
#
# Bulk Modulus (GPa) = 28.27615 41.03865 34.65740
# Shear Modulus (GPa) = -0.08315 28.58805 14.25245
#
# Velocity S-wave (km/s) = -0.18196 3.37385 2.38220
# Velocity P-wave (km/s) = 3.34881 5.61405 4.62234
#
# Compressibility (1/GPa) = 0.03536549
#
# Stress axis : x y z
#
# Youngs Moduli (GPa) = 116.08124 135.96150 49.43981
#
# Poissons Ratio (x) = 0.29200 -0.03510
# Poissons Ratio (y) = 0.24930 -0.05054
# Poissons Ratio (z) = -0.08241 -0.13899
#
# Static dielectric constant tensor:
#      x y z
#    x 1.984760 0.000000 0.000000 
#    y 0.000000 2.090950 0.000000 
#    z 0.000000 0.000000 1.998840 
# 
# From -- ./inp_files/42394.got.cif
#   From: 2010.05.17/outbox.cif.g08.bks.cpg/sg68_22_cif.got.tgz:42394.got - 2010.06.03 18:57:09.
