data_PCOD9507906
_publ_section_title
;
Structure prediction by ZEFSAII (Michael W. Deem and Ramdas Pophale) SiO2 
 PCOD9507906
Probable space group: C C C A
;
_chemical_formula_sum "Si O2"
_cell_formula_units_Z 96
_cell_length_a 23.804249
_cell_length_b 7.905077
_cell_length_c 21.315477
_cell_angle_alpha 90.000000
_cell_angle_beta 90.000000
_cell_angle_gamma 90.000000
_cell_volume 4011.027549
_symmetry_space_group_name_H-M "C C C A"
_symmetry_group_IT_number 68
_space_group.IT_coordinate_system_code '2'
_symmetry_cell_setting 'orthorhombic'
loop_
_space_group_symop_operation_xyz
x,y,z
-x,1/2-y,z
x,1/2-y,1/2-z
-x,y,1/2-z
-x,-y,-z
x,1/2+y,-z
-x,1/2+y,1/2+z
x,-y,1/2+z
1/2+x,1/2+y,z
1/2-x,-y,z
1/2+x,-y,1/2-z
1/2-x,1/2+y,1/2-z
1/2-x,1/2-y,-z
1/2+x,y,-z
1/2-x,y,1/2+z
1/2+x,1/2-y,1/2+z
loop_
_atom_site_type_symbol
_atom_site_label
_atom_site_fract_x
_atom_site_fract_y
_atom_site_fract_z
Si Si1 0.689337 0.435058 0.895915
Si Si2 0.088987 0.451237 0.907318
Si Si3 0.375787 0.434113 0.219917
Si Si4 0.985840 0.943044 0.653761
Si Si5 0.687827 0.064859 0.833868
Si Si6 0.083689 0.329648 0.037533
O O1 0.750000 0.500000 0.915492
O O2 0.662619 0.552786 0.842167
O O3 0.692248 0.249657 0.864158
O O4 0.644273 0.415695 0.951265
O O5 0.151766 0.445205 0.880696
O O6 0.084453 0.640481 0.935911
O O7 0.042338 0.448170 0.852861
O O8 0.073177 0.329652 0.963918
O O9 0.373214 0.250000 0.250000
O O10 0.437882 0.485479 0.198250
O O11 0.348986 0.560371 0.270910
O O12 0.959381 0.926917 0.583244
O O13 0.000000 0.750000 0.672422
O O14 0.750000 0.000000 0.820789
#
# Coordination Sequence:
#
# PCOD9507906 Si02
#       6
#    16  16  16  16  16  16
#     4  10  21  39  63  92 127 170 213 257 312 375
#     4  10  21  39  62  90 125 163 207 253 311 374
#     4  11  23  41  66  96 125 161 210 264 316 371
#     4   9  20  41  66  92 124 166 206 252 316 382
#     4  11  24  41  62  91 127 171 212 258 316 375
#     4   9  20  37  62  91 122 163 205 253 313 370
#
# _framework density 23.934017999999998
#
# number of rings (size 3 to 8) (size 9 to 14) (size 15 to 20)
#    0.000    2.000    0.000    3.500    0.000    5.333 
#    0.000   10.833    0.000    2.000    0.000    0.000 
#    0.000    0.000    0.000    0.000    0.000    0.000 
#
# Total GULP energy -268859.887891 kJ/mol
# GULP energy per Si atom -5601.247664 kJ/mol
# Density = 2.387954 g / cm^3
# Si number density = 23.934018 Si / 1000 Ang^3
#
#
#
# Elastic Constant Matrix: (Units=GPa)
#
#
# Indices 1 2 3 4 5 6 
#
# 1 168.8802 25.9767 28.2355 0.0000 0.0000 0.0000
# 2 25.9767 71.2479 7.0042 0.0000 0.0000 0.0000
# 3 28.2355 7.0042 72.2955 0.0000 0.0000 0.0000
# 4 0.0000 0.0000 0.0000 27.5753 0.0000 0.0000
# 5 0.0000 0.0000 0.0000 0.0000 15.6232 0.0000
# 6 0.0000 0.0000 0.0000 0.0000 0.0000 30.4487
#
#
#
# Elastic Compliance Matrix: (Units=1/GPa)
#
#
# Indices 1 2 3 4 5 6 
#
# 1 0.006658 -0.002193 -0.002388 0.000000 0.000000 0.000000
# 2 -0.002193 0.014893 -0.000586 0.000000 0.000000 0.000000
# 3 -0.002388 -0.000586 0.014822 0.000000 0.000000 0.000000
# 4 0.000000 0.000000 0.000000 0.036264 0.000000 0.000000
# 5 0.000000 0.000000 0.000000 0.000000 0.064007 0.000000
# 6 0.000000 0.000000 0.000000 0.000000 0.000000 0.032842
#
#
# Mechanical properties :
#
#
# Convention : Reuss Voigt Hill
#
# Bulk Modulus (GPa) = 38.40542 48.31739 43.36140
# Shear Modulus (GPa) = 26.52531 31.47657 29.00094
#
# Velocity S-wave (km/s) = 3.33268 3.63042 3.48473
# Velocity P-wave (km/s) = 5.55789 6.14856 5.86068
#
# Compressibility (1/GPa) = 0.02603799
#
# Stress axis : x y z
#
# Youngs Moduli (GPa) = 150.19845 67.14739 67.46944
#
# Poissons Ratio (x) = 0.14723 0.16111
# Poissons Ratio (y) = 0.32934 0.03957
# Poissons Ratio (z) = 0.35865 0.03938
#
# Static dielectric constant tensor:
#      x y z
#    x 1.900010 0.000000 0.000000 
#    y 0.000000 1.906380 0.000000 
#    z 0.000000 0.000000 1.920150 
# 
# From -- ./inp_files/46912.got.cif
#   From: 2010.05.17/outbox.cif.g08.bks.cpg/sg68_24_cif.got.tgz:46912.got - 2010.06.03 18:57:09.
