data_PCOD9507839
_publ_section_title
;
Structure prediction by ZEFSAII (Michael W. Deem and Ramdas Pophale) SiO2 
 PCOD9507839
Probable space group: C C C A
;
_chemical_formula_sum "Si O2"
_cell_formula_units_Z 112
_cell_length_a 16.807654
_cell_length_b 29.139866
_cell_length_c 10.490779
_cell_angle_alpha 90.000000
_cell_angle_beta 90.000000
_cell_angle_gamma 90.000000
_cell_volume 5138.098051
_symmetry_space_group_name_H-M "C C C A"
_symmetry_group_IT_number 68
_space_group.IT_coordinate_system_code '2'
_symmetry_cell_setting 'orthorhombic'
loop_
_space_group_symop_operation_xyz
x,y,z
-x,1/2-y,z
x,1/2-y,1/2-z
-x,y,1/2-z
-x,-y,-z
x,1/2+y,-z
-x,1/2+y,1/2+z
x,-y,1/2+z
1/2+x,1/2+y,z
1/2-x,-y,z
1/2+x,-y,1/2-z
1/2-x,1/2+y,1/2-z
1/2-x,1/2-y,-z
1/2+x,y,-z
1/2-x,y,1/2+z
1/2+x,1/2-y,1/2+z
loop_
_atom_site_type_symbol
_atom_site_label
_atom_site_fract_x
_atom_site_fract_y
_atom_site_fract_z
Si Si1 0.346382 0.392749 0.745382
Si Si2 0.744341 0.549381 0.592156
Si Si3 0.588305 0.320325 0.553759
Si Si4 0.814900 0.263437 0.394123
Si Si5 0.587638 0.648380 0.489376
Si Si6 0.911333 0.579298 0.220355
Si Si7 0.698327 0.624291 0.898901
O O1 0.315680 0.440452 0.806009
O O2 0.390905 0.359619 0.843074
O O3 0.399508 0.391350 0.618182
O O4 0.259807 0.369878 0.715625
O O5 0.750000 0.500000 0.526495
O O6 0.657908 0.549052 0.657611
O O7 0.754195 0.593446 0.500794
O O8 0.608380 0.270049 0.600710
O O9 0.498174 0.328079 0.516803
O O10 0.655090 0.330694 0.446764
O O11 0.784335 0.250000 0.250000
O O12 0.750000 0.250000 0.500000
O O13 0.848458 0.313207 0.441885
O O14 0.589639 0.624136 0.627317
O O15 0.875045 0.593366 0.355374
O O16 0.000000 0.562425 0.250000
#
# Coordination Sequence:
#
# PCOD9507839 Si02
#       7
#    16  16  16  16  16  16  16
#     4  10  21  38  67  93 126 173 224 266 332 401
#     4  10  23  43  70 101 132 177 227 282 343 419
#     4  11  23  40  66  95 131 174 226 279 336 395
#     4  12  28  43  67 100 141 182 236 292 339 409
#     4  12  23  43  67  98 134 179 227 282 344 407
#     4  11  23  44  69 100 136 179 224 287 347 409
#     4  10  21  40  67  93 131 174 230 271 339 414
#
# _framework density 21.79795
#
# number of rings (size 3 to 8) (size 9 to 14) (size 15 to 20)
#    0.000    1.143    4.286    1.714    4.000    2.857 
#    0.000    3.571    0.000    0.000    0.000    0.000 
#    0.000    0.000    0.000    0.000    0.000    0.000 
#
# Total GULP energy -311824.576265 kJ/mol
# GULP energy per Si atom -5568.296005 kJ/mol
# Density = 2.174834 g / cm^3
# Si number density = 21.797950 Si / 1000 Ang^3
#
#
#
# Elastic Constant Matrix: (Units=GPa)
#
#
# Indices 1 2 3 4 5 6 
#
# 1 61.3077 17.4279 6.4638 0.0000 0.0000 0.0000
# 2 17.4279 70.4624 6.5572 0.0000 0.0000 0.0000
# 3 6.4638 6.5572 67.6112 0.0000 0.0000 0.0000
# 4 0.0000 0.0000 0.0000 6.8384 0.0000 0.0000
# 5 0.0000 0.0000 0.0000 0.0000 34.5532 0.0000
# 6 0.0000 0.0000 0.0000 0.0000 0.0000 11.9255
#
#
#
# Elastic Compliance Matrix: (Units=1/GPa)
#
#
# Indices 1 2 3 4 5 6 
#
# 1 0.017653 -0.004248 -0.001276 0.000000 0.000000 0.000000
# 2 -0.004248 0.015343 -0.001082 0.000000 0.000000 0.000000
# 3 -0.001276 -0.001082 0.015017 0.000000 0.000000 0.000000
# 4 0.000000 0.000000 0.000000 0.146232 0.000000 0.000000
# 5 0.000000 0.000000 0.000000 0.000000 0.028941 0.000000
# 6 0.000000 0.000000 0.000000 0.000000 0.000000 0.083854
#
#
# Mechanical properties :
#
#
# Convention : Reuss Voigt Hill
#
# Bulk Modulus (GPa) = 28.73298 28.91989 28.82644
# Shear Modulus (GPa) = 15.06696 21.92560 18.49628
#
# Velocity S-wave (km/s) = 2.63194 3.17496 2.91612
# Velocity P-wave (km/s) = 4.73775 5.17074 4.95897
#
# Compressibility (1/GPa) = 0.03480321
#
# Stress axis : x y z
#
# Youngs Moduli (GPa) = 56.64728 65.17532 66.58971
#
# Poissons Ratio (x) = 0.27683 0.08495
# Poissons Ratio (y) = 0.24061 0.07205
# Poissons Ratio (z) = 0.07227 0.07052
#
# Static dielectric constant tensor:
#      x y z
#    x 1.786650 0.000000 0.000000 
#    y 0.000000 1.885300 0.000000 
#    z 0.000000 0.000000 1.926360 
# 
# From -- ./inp_files/13588.got.cif
#   From: 2010.05.17/outbox.cif.g08.bks.cpg/sg68_7_cif.got.tgz:13588.got - 2010.06.03 18:57:09.
