data_PCOD9507687
_publ_section_title
;
Structure prediction by ZEFSAII (Michael W. Deem and Ramdas Pophale) SiO2 
 PCOD9507687
Probable space group: C C C A
;
_chemical_formula_sum "Si O2"
_cell_formula_units_Z 64
_cell_length_a 8.856140
_cell_length_b 22.566923
_cell_length_c 11.975279
_cell_angle_alpha 90.000000
_cell_angle_beta 90.000000
_cell_angle_gamma 90.000000
_cell_volume 2393.329318
_symmetry_space_group_name_H-M "C C C A"
_symmetry_group_IT_number 68
_space_group.IT_coordinate_system_code '2'
_symmetry_cell_setting 'orthorhombic'
loop_
_space_group_symop_operation_xyz
x,y,z
-x,1/2-y,z
x,1/2-y,1/2-z
-x,y,1/2-z
-x,-y,-z
x,1/2+y,-z
-x,1/2+y,1/2+z
x,-y,1/2+z
1/2+x,1/2+y,z
1/2-x,-y,z
1/2+x,-y,1/2-z
1/2-x,1/2+y,1/2-z
1/2-x,1/2-y,-z
1/2+x,y,-z
1/2-x,y,1/2+z
1/2+x,1/2-y,1/2+z
loop_
_atom_site_type_symbol
_atom_site_label
_atom_site_fract_x
_atom_site_fract_y
_atom_site_fract_z
Si Si1 0.371280 0.544360 0.670479
Si Si2 0.253095 0.750000 0.250000
Si Si3 0.000000 0.250000 0.567621
Si Si4 0.065373 0.121384 0.497745
Si Si5 0.166451 0.377046 0.334936
O O1 0.500000 0.516035 0.750000
O O2 0.250000 0.500000 0.615389
O O3 0.467767 0.583416 0.585587
O O4 0.267604 0.584782 0.750590
O O5 0.141144 0.764625 0.352665
O O6 0.334024 0.690072 0.288004
O O7 0.967986 0.308557 0.499681
O O8 0.232375 0.119582 0.550048
O O9 0.998951 0.103278 0.377190
#
# Coordination Sequence:
#
# PCOD9507687 Si02
#       5
#    16   8   8  16  16
#     4  10  22  42  64  90 125 172 214 258 312 375
#     4   9  16  32  62  83 118 165 198 241 316 379
#     4   9  16  34  60  85 118 160 201 250 302 389
#     4  10  21  37  64  93 121 163 213 254 316 375
#     4  10  21  39  63  92 124 164 210 257 317 375
#
# _framework density 26.74099
#
# number of rings (size 3 to 8) (size 9 to 14) (size 15 to 20)
#    0.000    2.250    2.500    0.000    0.000    7.000 
#    0.000    5.000    0.000    0.000    0.000    0.000 
#    0.000    0.000    0.000    0.000    0.000    0.000 
#
# Total GULP energy -179070.618538 kJ/mol
# GULP energy per Si atom -5595.956829 kJ/mol
# Density = 2.668013 g / cm^3
# Si number density = 26.740990 Si / 1000 Ang^3
#
#
#
# Elastic Constant Matrix: (Units=GPa)
#
#
# Indices 1 2 3 4 5 6 
#
# 1 162.3308 47.3336 43.6827 0.0000 0.0000 0.0000
# 2 47.3336 95.7379 26.2571 0.0000 0.0000 0.0000
# 3 43.6827 26.2571 79.0004 0.0000 0.0000 0.0000
# 4 0.0000 0.0000 0.0000 19.2016 0.0000 0.0000
# 5 0.0000 0.0000 0.0000 0.0000 68.9459 0.0000
# 6 0.0000 0.0000 0.0000 0.0000 0.0000 25.5579
#
#
#
# Elastic Compliance Matrix: (Units=1/GPa)
#
#
# Indices 1 2 3 4 5 6 
#
# 1 0.007949 -0.002998 -0.003399 0.000000 0.000000 0.000000
# 2 -0.002998 0.012623 -0.002538 0.000000 0.000000 0.000000
# 3 -0.003399 -0.002538 0.015381 0.000000 0.000000 0.000000
# 4 0.000000 0.000000 0.000000 0.052079 0.000000 0.000000
# 5 0.000000 0.000000 0.000000 0.000000 0.014504 0.000000
# 6 0.000000 0.000000 0.000000 0.000000 0.000000 0.039127
#
#
# Mechanical properties :
#
#
# Convention : Reuss Voigt Hill
#
# Bulk Modulus (GPa) = 55.29747 63.51286 59.40516
# Shear Modulus (GPa) = 30.20030 37.39412 33.79721
#
# Velocity S-wave (km/s) = 3.36425 3.74355 3.55896
# Velocity P-wave (km/s) = 5.98454 6.51830 6.25711
#
# Compressibility (1/GPa) = 0.01808401
#
# Stress axis : x y z
#
# Youngs Moduli (GPa) = 125.80109 79.21783 65.01468
#
# Poissons Ratio (x) = 0.23749 0.22098
# Poissons Ratio (y) = 0.37714 0.16500
# Poissons Ratio (z) = 0.42760 0.20105
#
# Static dielectric constant tensor:
#      x y z
#    x 2.087870 0.000000 0.000000 
#    y 0.000000 2.137100 0.000000 
#    z 0.000000 0.000000 2.105040 
# 
# From -- ./inp_files/19257.got.cif
#   From: 2010.05.17/outbox.cif.g08.bks.cpg/sg68_10_cif.got.tgz:19257.got - 2010.06.03 18:57:09.
