data_PCOD9507475
_publ_section_title
;
Structure prediction by ZEFSAII (Michael W. Deem and Ramdas Pophale) SiO2 
 PCOD9507475
Probable space group: C C C A
;
_chemical_formula_sum "Si O2"
_cell_formula_units_Z 88
_cell_length_a 15.582030
_cell_length_b 28.206931
_cell_length_c 10.795761
_cell_angle_alpha 90.000000
_cell_angle_beta 90.000000
_cell_angle_gamma 90.000000
_cell_volume 4744.966316
_symmetry_space_group_name_H-M "C C C A"
_symmetry_group_IT_number 68
_space_group.IT_coordinate_system_code '2'
_symmetry_cell_setting 'orthorhombic'
loop_
_space_group_symop_operation_xyz
x,y,z
-x,1/2-y,z
x,1/2-y,1/2-z
-x,y,1/2-z
-x,-y,-z
x,1/2+y,-z
-x,1/2+y,1/2+z
x,-y,1/2+z
1/2+x,1/2+y,z
1/2-x,-y,z
1/2+x,-y,1/2-z
1/2-x,1/2+y,1/2-z
1/2-x,1/2-y,-z
1/2+x,y,-z
1/2-x,y,1/2+z
1/2+x,1/2-y,1/2+z
loop_
_atom_site_type_symbol
_atom_site_label
_atom_site_fract_x
_atom_site_fract_y
_atom_site_fract_z
Si Si1 0.428156 0.864326 0.998066
Si Si2 0.102471 0.697843 0.220689
Si Si3 0.893347 0.107068 0.867834
Si Si4 0.150285 0.555432 0.611218
Si Si5 0.654350 0.946377 0.632834
Si Si6 0.000000 0.388242 0.250000
O O1 0.390798 0.820021 0.921172
O O2 0.514511 0.879639 0.924696
O O3 0.366876 0.909354 0.976108
O O4 0.456091 0.858474 0.139442
O O5 0.136829 0.750000 0.250000
O O6 0.140523 0.656007 0.306812
O O7 0.000000 0.699330 0.250000
O O8 0.896148 0.070397 0.754654
O O9 0.844519 0.082902 0.980886
O O10 0.245322 0.557499 0.667998
O O11 0.132057 0.499635 0.594071
O O12 0.074918 0.579557 0.690119
#
# Coordination Sequence:
#
# PCOD9507475 Si02
#       6
#    16  16  16  16  16   8
#     4   9  19  34  53  78 107 137 177 226 265 319
#     4   8  14  30  58  80  97 130 178 222 259 314
#     4   9  19  34  50  78 104 130 184 222 257 324
#     4  10  23  32  50  76 108 149 180 218 266 315
#     4  10  21  33  52  74 103 147 191 217 251 320
#     4  10  22  34  50  79 116 142 167 224 284 306
#
# _framework density 18.545968999999999
#
# number of rings (size 3 to 8) (size 9 to 14) (size 15 to 20)
#    0.000    2.727    0.000    1.636    7.636    2.909 
#    0.000    0.000    0.000   24.000    0.000    0.000 
#    0.000    0.000    0.000    0.000    0.000    0.000 
#
# Total GULP energy -245016.000536 kJ/mol
# GULP energy per Si atom -5568.545467 kJ/mol
# Density = 1.850376 g / cm^3
# Si number density = 18.545969 Si / 1000 Ang^3
#
#
#
# Elastic Constant Matrix: (Units=GPa)
#
#
# Indices 1 2 3 4 5 6 
#
# 1 28.6661 15.2214 21.8357 0.0000 0.0000 0.0000
# 2 15.2214 134.9849 62.8193 0.0000 0.0000 0.0000
# 3 21.8357 62.8193 130.0656 0.0000 0.0000 0.0000
# 4 0.0000 0.0000 0.0000 8.3016 0.0000 0.0000
# 5 0.0000 0.0000 0.0000 0.0000 16.3358 0.0000
# 6 0.0000 0.0000 0.0000 0.0000 0.0000 2396.5650
#
#
#
# Elastic Compliance Matrix: (Units=1/GPa)
#
#
# Indices 1 2 3 4 5 6 
#
# 1 0.040337 -0.001802 -0.005901 0.000000 0.000000 0.000000
# 2 -0.001802 0.009637 -0.004352 0.000000 0.000000 0.000000
# 3 -0.005901 -0.004352 0.010781 0.000000 0.000000 0.000000
# 4 0.000000 0.000000 0.000000 0.120459 0.000000 0.000000
# 5 0.000000 0.000000 0.000000 0.000000 0.061215 0.000000
# 6 0.000000 0.000000 0.000000 0.000000 0.000000 0.000417
#
#
# Mechanical properties :
#
#
# Convention : Reuss Voigt Hill
#
# Bulk Modulus (GPa) = 27.28985 54.82992 41.05988
# Shear Modulus (GPa) = 17.91020 497.16317 257.53669
#
# Velocity S-wave (km/s) = 3.11097 16.39063 11.79684
# Velocity P-wave (km/s) = 5.25841 19.69345 14.41324
#
# Compressibility (1/GPa) = 0.03664366
#
# Stress axis : x y z
#
# Youngs Moduli (GPa) = 24.79140 103.77011 92.75573
#
# Poissons Ratio (x) = 0.18700 0.54739
# Poissons Ratio (y) = 0.04468 0.40365
# Poissons Ratio (z) = 0.14630 0.45159
#
# Static dielectric constant tensor:
#      x y z
#    x 1.676280 0.000000 0.000000 
#    y 0.000000 1.644920 0.000000 
#    z 0.000000 0.000000 1.668800 
# 
# From -- ./inp_files/13454.got.cif
#   From: 2010.05.17/outbox.cif.g08.bks.cpg/sg68_7_cif.got.tgz:13454.got - 2010.06.03 18:57:09.
