data_PCOD9507938
_publ_section_title
;
Structure prediction by ZEFSAII (Michael W. Deem and Ramdas Pophale) SiO2 
 PCOD9507938
Probable space group: C C C A
;
_chemical_formula_sum "Si O2"
_cell_formula_units_Z 68
_cell_length_a 14.595849
_cell_length_b 5.562800
_cell_length_c 36.615306
_cell_angle_alpha 90.000000
_cell_angle_beta 90.000000
_cell_angle_gamma 90.000000
_cell_volume 2972.935423
_symmetry_space_group_name_H-M "C C C A"
_symmetry_group_IT_number 68
_space_group.IT_coordinate_system_code '2'
_symmetry_cell_setting 'orthorhombic'
loop_
_space_group_symop_operation_xyz
x,y,z
-x,1/2-y,z
x,1/2-y,1/2-z
-x,y,1/2-z
-x,-y,-z
x,1/2+y,-z
-x,1/2+y,1/2+z
x,-y,1/2+z
1/2+x,1/2+y,z
1/2-x,-y,z
1/2+x,-y,1/2-z
1/2-x,1/2+y,1/2-z
1/2-x,1/2-y,-z
1/2+x,y,-z
1/2-x,y,1/2+z
1/2+x,1/2-y,1/2+z
loop_
_atom_site_type_symbol
_atom_site_label
_atom_site_fract_x
_atom_site_fract_y
_atom_site_fract_z
Si Si1 0.149450 0.235337 0.867086
Si Si2 0.897591 0.640933 0.287265
Si Si3 0.143065 0.236529 0.104146
Si Si4 0.500000 0.750000 0.250000
Si Si5 0.389384 0.258013 0.981533
O O1 0.155791 0.195589 0.823740
O O2 0.106006 0.492717 0.877183
O O3 0.250733 0.249269 0.884023
O O4 0.103555 0.994200 0.883216
O O5 0.856651 0.750000 0.250000
O O6 0.927547 0.373968 0.277373
O O7 0.000000 0.750000 0.291718
O O8 0.135804 0.217727 0.060787
O O9 0.500000 0.250000 0.984050
O O10 0.357849 0.500175 0.002432
#
# Coordination Sequence:
#
# PCOD9507938 Si02
#       5
#    16  16  16   4  16
#     4  10  22  39  58  85 127 161 199 245 300 359
#     4   9  20  36  60  89 116 160 206 253 301 357
#     4  10  22  40  58  89 125 158 200 244 298 368
#     4   8  18  36  60  90 120 148 218 258 310 352
#     4  10  21  39  65  90 119 155 198 248 300 358
#
# _framework density 22.873017999999998
#
# number of rings (size 3 to 8) (size 9 to 14) (size 15 to 20)
#    0.000    2.588    0.000    1.412    6.588    1.882 
#    0.000   18.824    0.000    0.000    0.000    0.000 
#    0.000    0.000    0.000    0.000    0.000    0.000 
#
# Total GULP energy -189627.710991 kJ/mol
# GULP energy per Si atom -5577.285617 kJ/mol
# Density = 2.282096 g / cm^3
# Si number density = 22.873018 Si / 1000 Ang^3
#
#
#
# Elastic Constant Matrix: (Units=GPa)
#
#
# Indices 1 2 3 4 5 6 
#
# 1 70.8611 15.6023 1.7504 0.0000 0.0000 0.0000
# 2 15.6023 213.5130 99.5527 0.0000 0.0000 0.0000
# 3 1.7504 99.5527 186.9463 0.0000 0.0000 0.0000
# 4 0.0000 0.0000 0.0000 78.2064 0.0000 0.0000
# 5 0.0000 0.0000 0.0000 0.0000 53.4424 0.0000
# 6 0.0000 0.0000 0.0000 0.0000 0.0000 8.3028
#
#
#
# Elastic Compliance Matrix: (Units=1/GPa)
#
#
# Indices 1 2 3 4 5 6 
#
# 1 0.014388 -0.001315 0.000566 0.000000 0.000000 0.000000
# 2 -0.001315 0.006351 -0.003370 0.000000 0.000000 0.000000
# 3 0.000566 -0.003370 0.007138 0.000000 0.000000 0.000000
# 4 0.000000 0.000000 0.000000 0.012787 0.000000 0.000000
# 5 0.000000 0.000000 0.000000 0.000000 0.018712 0.000000
# 6 0.000000 0.000000 0.000000 0.000000 0.000000 0.120441
#
#
# Mechanical properties :
#
#
# Convention : Reuss Voigt Hill
#
# Bulk Modulus (GPa) = 50.92034 78.34788 64.63411
# Shear Modulus (GPa) = 25.69372 51.61801 38.65587
#
# Velocity S-wave (km/s) = 3.35523 4.75565 4.11545
# Velocity P-wave (km/s) = 6.10906 8.03011 7.13454
#
# Compressibility (1/GPa) = 0.01963852
#
# Stress axis : x y z
#
# Youngs Moduli (GPa) = 69.50377 157.46133 140.09110
#
# Poissons Ratio (x) = 0.20708 -0.07924
# Poissons Ratio (y) = 0.09140 0.47205
# Poissons Ratio (z) = -0.03931 0.53058
#
# Static dielectric constant tensor:
#      x y z
#    x 1.788100 0.000000 0.000000 
#    y 0.000000 1.645550 0.000000 
#    z 0.000000 0.000000 1.636240 
# 
# From -- ./inp_files/51623.got.cif
#   From: 2010.05.17/outbox.cif.g08.bks.cpg/sg68_26_cif.got.tgz:51623.got - 2010.06.03 18:57:09.
