data_PCOD9507637
_publ_section_title
;
Structure prediction by ZEFSAII (Michael W. Deem and Ramdas Pophale) SiO2 
 PCOD9507637
Probable space group: C C C A
;
_chemical_formula_sum "Si O2"
_cell_formula_units_Z 64
_cell_length_a 7.955453
_cell_length_b 27.446385
_cell_length_c 14.103433
_cell_angle_alpha 90.000000
_cell_angle_beta 90.000000
_cell_angle_gamma 90.000000
_cell_volume 3079.462395
_symmetry_space_group_name_H-M "C C C A"
_symmetry_group_IT_number 68
_space_group.IT_coordinate_system_code '2'
_symmetry_cell_setting 'orthorhombic'
loop_
_space_group_symop_operation_xyz
x,y,z
-x,1/2-y,z
x,1/2-y,1/2-z
-x,y,1/2-z
-x,-y,-z
x,1/2+y,-z
-x,1/2+y,1/2+z
x,-y,1/2+z
1/2+x,1/2+y,z
1/2-x,-y,z
1/2+x,-y,1/2-z
1/2-x,1/2+y,1/2-z
1/2-x,1/2-y,-z
1/2+x,y,-z
1/2-x,y,1/2+z
1/2+x,1/2-y,1/2+z
loop_
_atom_site_type_symbol
_atom_site_label
_atom_site_fract_x
_atom_site_fract_y
_atom_site_fract_z
Si Si1 0.454482 0.303284 0.862059
Si Si2 0.828956 0.130764 0.801760
Si Si3 0.792513 0.056463 0.439415
Si Si4 0.638072 0.601682 0.386460
O O1 0.500000 0.250000 0.900234
O O2 0.500000 0.301814 0.750000
O O3 0.265697 0.324987 0.855934
O O4 0.566155 0.344738 0.911884
O O5 0.839865 0.086598 0.875599
O O6 0.710285 0.109349 0.718216
O O7 0.000000 0.145327 0.750000
O O8 0.775769 0.080761 0.542548
O O9 0.976460 0.066695 0.396370
O O10 0.750000 0.000000 0.442753
#
# Coordination Sequence:
#
# PCOD9507637 Si02
#       4
#    16  16  16  16
#     4   8  16  35  59  80 109 148 186 235 291 338
#     4  10  21  37  58  85 117 151 191 240 287 343
#     4  11  22  36  57  84 116 157 196 237 288 339
#     4  10  21  38  56  81 116 149 191 243 283 338
#
# _framework density 20.782847
#
# number of rings (size 3 to 8) (size 9 to 14) (size 15 to 20)
#    0.000    2.250    0.000    4.500    0.000    3.000 
#    0.000   15.000    0.000    6.000    0.000    0.000 
#    0.000    0.000    0.000    0.000    0.000    0.000 
#
# Total GULP energy -178411.301638 kJ/mol
# GULP energy per Si atom -5575.353176 kJ/mol
# Density = 2.073554 g / cm^3
# Si number density = 20.782847 Si / 1000 Ang^3
#
#
#
# Elastic Constant Matrix: (Units=GPa)
#
#
# Indices 1 2 3 4 5 6 
#
# 1 100.8619 39.0606 22.5351 0.0000 0.0000 0.0000
# 2 39.0606 170.8641 33.9348 0.0000 0.0000 0.0000
# 3 22.5351 33.9348 52.0580 0.0000 0.0000 0.0000
# 4 0.0000 0.0000 0.0000 23.9242 0.0000 0.0000
# 5 0.0000 0.0000 0.0000 0.0000 18.4443 0.0000
# 6 0.0000 0.0000 0.0000 0.0000 0.0000 9.3054
#
#
#
# Elastic Compliance Matrix: (Units=1/GPa)
#
#
# Indices 1 2 3 4 5 6 
#
# 1 0.011479 -0.001881 -0.003743 0.000000 0.000000 0.000000
# 2 -0.001881 0.007031 -0.003769 0.000000 0.000000 0.000000
# 3 -0.003743 -0.003769 0.023287 0.000000 0.000000 0.000000
# 4 0.000000 0.000000 0.000000 0.041799 0.000000 0.000000
# 5 0.000000 0.000000 0.000000 0.000000 0.054217 0.000000
# 6 0.000000 0.000000 0.000000 0.000000 0.000000 0.107464
#
#
# Mechanical properties :
#
#
# Convention : Reuss Voigt Hill
#
# Bulk Modulus (GPa) = 43.45789 57.20503 50.33146
# Shear Modulus (GPa) = 18.40036 25.55169 21.97603
#
# Velocity S-wave (km/s) = 2.97873 3.51017 3.25531
# Velocity P-wave (km/s) = 5.72593 6.63425 6.19676
#
# Compressibility (1/GPa) = 0.02301078
#
# Stress axis : x y z
#
# Youngs Moduli (GPa) = 87.11381 142.22405 42.94294
#
# Poissons Ratio (x) = 0.26750 0.16074
# Poissons Ratio (y) = 0.16384 0.16186
# Poissons Ratio (z) = 0.32608 0.53607
#
# Static dielectric constant tensor:
#      x y z
#    x 1.799150 0.000000 0.000000 
#    y 0.000000 1.732140 0.000000 
#    z 0.000000 0.000000 1.762750 
# 
# From -- ./inp_files/17444.got.cif
#   From: 2010.05.17/outbox.cif.g08.bks.cpg/sg68_9_cif.got.tgz:17444.got - 2010.06.03 18:57:09.
