data_PCOD9507191
_publ_section_title
;
Structure prediction by ZEFSAII (Michael W. Deem and Ramdas Pophale) SiO2 
 PCOD9507191
Probable space group: C C C A
;
_chemical_formula_sum "Si O2"
_cell_formula_units_Z 116
_cell_length_a 17.568427
_cell_length_b 18.416941
_cell_length_c 17.320945
_cell_angle_alpha 90.000000
_cell_angle_beta 90.000000
_cell_angle_gamma 90.000000
_cell_volume 5604.307520
_symmetry_space_group_name_H-M "C C C A"
_symmetry_group_IT_number 68
_space_group.IT_coordinate_system_code '2'
_symmetry_cell_setting 'orthorhombic'
loop_
_space_group_symop_operation_xyz
x,y,z
-x,1/2-y,z
x,1/2-y,1/2-z
-x,y,1/2-z
-x,-y,-z
x,1/2+y,-z
-x,1/2+y,1/2+z
x,-y,1/2+z
1/2+x,1/2+y,z
1/2-x,-y,z
1/2+x,-y,1/2-z
1/2-x,1/2+y,1/2-z
1/2-x,1/2-y,-z
1/2+x,y,-z
1/2-x,y,1/2+z
1/2+x,1/2-y,1/2+z
loop_
_atom_site_type_symbol
_atom_site_label
_atom_site_fract_x
_atom_site_fract_y
_atom_site_fract_z
Si Si1 0.107223 0.377385 0.767636
Si Si2 0.787278 0.361214 0.211333
Si Si3 0.431274 0.458956 0.807219
Si Si4 0.032968 0.922891 0.518870
Si Si5 0.371386 0.336892 0.089707
Si Si6 0.500000 0.250000 0.250000
Si Si7 0.567664 0.709407 0.488836
Si Si8 0.295903 0.283249 0.625013
O O1 0.196558 0.375900 0.789250
O O2 0.074347 0.453259 0.798909
O O3 0.105593 0.367125 0.673984
O O4 0.057637 0.306774 0.792306
O O5 0.846686 0.427235 0.208613
O O6 0.805257 0.322192 0.292676
O O7 0.799142 0.302522 0.143352
O O8 0.500000 0.436403 0.750000
O O9 0.452395 0.426214 0.890270
O O10 0.107945 0.898781 0.472278
O O11 0.968596 0.866783 0.490564
O O12 0.000000 0.000000 0.500000
O O13 0.284640 0.311433 0.094244
O O14 0.413667 0.265184 0.057362
O O15 0.500000 0.750000 0.442165
O O16 0.640023 0.698670 0.436056
#
# Coordination Sequence:
#
# PCOD9507191 Si02
#       8
#    16  16  16  16  16   4  16  16
#     4  11  24  41  67 100 133 178 230 296 345 421
#     4  10  22  40  64  97 135 175 232 289 343 414
#     4  12  24  44  66  95 138 189 228 278 359 429
#     4  11  25  41  63  96 134 175 226 287 350 420
#     4  10  22  41  66  94 134 170 225 287 345 406
#     4  12  24  40  72 100 130 170 250 280 360 396
#     4  10  21  38  61  90 125 168 213 281 341 410
#     4  10  20  39  64  95 126 173 227 277 339 407
#
# _framework density 20.698364000000002
#
# number of rings (size 3 to 8) (size 9 to 14) (size 15 to 20)
#    0.000    1.379    0.690    5.793    2.897    1.103 
#    0.000    4.828    0.000    0.000    0.000    0.000 
#    0.000    0.000    0.000    0.000    0.000    0.000 
#
# Total GULP energy -323653.229554 kJ/mol
# GULP energy per Si atom -5580.228096 kJ/mol
# Density = 2.065125 g / cm^3
# Si number density = 20.698364 Si / 1000 Ang^3
#
#
#
# Elastic Constant Matrix: (Units=GPa)
#
#
# Indices 1 2 3 4 5 6 
#
# 1 118.2662 47.8982 34.2746 0.0000 0.0000 0.0000
# 2 47.8982 129.0992 12.7439 0.0000 0.0000 0.0000
# 3 34.2746 12.7439 69.7112 0.0000 0.0000 0.0000
# 4 0.0000 0.0000 0.0000 25.4811 0.0000 0.0000
# 5 0.0000 0.0000 0.0000 0.0000 13.1437 0.0000
# 6 0.0000 0.0000 0.0000 0.0000 0.0000 32.0497
#
#
#
# Elastic Compliance Matrix: (Units=1/GPa)
#
#
# Indices 1 2 3 4 5 6 
#
# 1 0.011397 -0.003743 -0.004919 0.000000 0.000000 0.000000
# 2 -0.003743 0.009118 0.000173 0.000000 0.000000 0.000000
# 3 -0.004919 0.000173 0.016732 0.000000 0.000000 0.000000
# 4 0.000000 0.000000 0.000000 0.039245 0.000000 0.000000
# 5 0.000000 0.000000 0.000000 0.000000 0.076082 0.000000
# 6 0.000000 0.000000 0.000000 0.000000 0.000000 0.031202
#
#
# Mechanical properties :
#
#
# Convention : Reuss Voigt Hill
#
# Bulk Modulus (GPa) = 49.33651 56.32335 52.82993
# Shear Modulus (GPa) = 24.09537 28.94556 26.52047
#
# Velocity S-wave (km/s) = 3.41562 3.74364 3.58338
# Velocity P-wave (km/s) = 6.28036 6.77916 6.53452
#
# Compressibility (1/GPa) = 0.02026897
#
# Stress axis : x y z
#
# Youngs Moduli (GPa) = 87.74202 109.67864 59.76636
#
# Poissons Ratio (x) = 0.41052 0.29401
# Poissons Ratio (y) = 0.32841 -0.01037
# Poissons Ratio (z) = 0.43163 -0.01903
#
# Static dielectric constant tensor:
#      x y z
#    x 1.733330 0.000000 0.000000 
#    y 0.000000 1.758320 0.000000 
#    z 0.000000 0.000000 -1.104670 
# 
# From -- ./inp_files/32168.got.cif
#   From: 2010.05.17/outbox.cif.g08.bks.cpg/sg68_17_cif.got.tgz:32168.got - 2010.06.03 18:57:09.
