data_PCOD9507797
_publ_section_title
;
Structure prediction by ZEFSAII (Michael W. Deem and Ramdas Pophale) SiO2 
 PCOD9507797
Probable space group: C C C A
;
_chemical_formula_sum "Si O2"
_cell_formula_units_Z 72
_cell_length_a 10.030128
_cell_length_b 20.471049
_cell_length_c 19.161803
_cell_angle_alpha 90.000000
_cell_angle_beta 90.000000
_cell_angle_gamma 90.000000
_cell_volume 3934.440157
_symmetry_space_group_name_H-M "C C C A"
_symmetry_group_IT_number 68
_space_group.IT_coordinate_system_code '2'
_symmetry_cell_setting 'orthorhombic'
loop_
_space_group_symop_operation_xyz
x,y,z
-x,1/2-y,z
x,1/2-y,1/2-z
-x,y,1/2-z
-x,-y,-z
x,1/2+y,-z
-x,1/2+y,1/2+z
x,-y,1/2+z
1/2+x,1/2+y,z
1/2-x,-y,z
1/2+x,-y,1/2-z
1/2-x,1/2+y,1/2-z
1/2-x,1/2-y,-z
1/2+x,y,-z
1/2-x,y,1/2+z
1/2+x,1/2-y,1/2+z
loop_
_atom_site_type_symbol
_atom_site_label
_atom_site_fract_x
_atom_site_fract_y
_atom_site_fract_z
Si Si1 0.236328 0.816389 0.541423
Si Si2 0.137345 0.207391 0.689302
Si Si3 0.016949 0.396790 0.014387
Si Si4 0.500000 0.582602 0.750000
Si Si5 0.592577 0.986752 0.609481
O O1 0.250000 0.750000 0.500000
O O2 0.281204 0.801687 0.619759
O O3 0.086303 0.841244 0.535461
O O4 0.339847 0.868768 0.508413
O O5 0.205162 0.250000 0.750000
O O6 0.104921 0.135225 0.718637
O O7 0.000000 0.250000 0.674877
O O8 0.027485 0.447401 0.078426
O O9 0.953501 0.432732 0.946968
O O10 0.449692 0.538442 0.685857
O O11 0.750000 0.000000 0.608228
#
# Coordination Sequence:
#
# PCOD9507797 Si02
#       5
#    16  16  16   8  16
#     4  12  23  40  67  95 127 167 215 264 324 377
#     4   9  20  37  61  91 128 166 211 260 308 389
#     4  11  24  41  64  96 128 166 212 266 321 379
#     4  10  21  38  64  88 125 176 216 246 322 386
#     4  11  23  41  63  93 133 170 211 267 314 386
#
# _framework density 18.299935999999999
#
# number of rings (size 3 to 8) (size 9 to 14) (size 15 to 20)
#    0.000    1.556    4.444    2.000    3.111    1.778 
#    0.000    0.000    0.000    4.000    0.000    0.000 
#    0.000    0.000    0.000    0.000    0.000    0.000 
#
# Total GULP energy -200850.066859 kJ/mol
# GULP energy per Si atom -5579.168524 kJ/mol
# Density = 1.825828 g / cm^3
# Si number density = 18.299936 Si / 1000 Ang^3
#
#
#
# Elastic Constant Matrix: (Units=GPa)
#
#
# Indices 1 2 3 4 5 6 
#
# 1 38.2586 2.7616 15.6253 0.0000 0.0000 0.0000
# 2 2.7616 67.4456 43.7286 0.0000 0.0000 0.0000
# 3 15.6253 43.7286 126.4401 0.0000 0.0000 0.0000
# 4 0.0000 0.0000 0.0000 26.7214 0.0000 0.0000
# 5 0.0000 0.0000 0.0000 0.0000 21.6066 0.0000
# 6 0.0000 0.0000 0.0000 0.0000 0.0000 32.6862
#
#
#
# Elastic Compliance Matrix: (Units=1/GPa)
#
#
# Indices 1 2 3 4 5 6 
#
# 1 0.027629 0.001395 -0.003897 0.000000 0.000000 0.000000
# 2 0.001395 0.019183 -0.006807 0.000000 0.000000 0.000000
# 3 -0.003897 -0.006807 0.010745 0.000000 0.000000 0.000000
# 4 0.000000 0.000000 0.000000 0.037423 0.000000 0.000000
# 5 0.000000 0.000000 0.000000 0.000000 0.046282 0.000000
# 6 0.000000 0.000000 0.000000 0.000000 0.000000 0.030594
#
#
# Mechanical properties :
#
#
# Convention : Reuss Voigt Hill
#
# Bulk Modulus (GPa) = 25.68089 39.59726 32.63907
# Shear Modulus (GPa) = 24.57587 27.53810 26.05699
#
# Velocity S-wave (km/s) = 3.66860 3.88341 3.77753
# Velocity P-wave (km/s) = 5.65762 6.46473 6.07459
#
# Compressibility (1/GPa) = 0.03893947
#
# Stress axis : x y z
#
# Youngs Moduli (GPa) = 36.19420 52.13013 93.07078
#
# Poissons Ratio (x) = -0.07274 0.36269
# Poissons Ratio (y) = -0.05050 0.63350
# Poissons Ratio (z) = 0.14104 0.35483
#
# Static dielectric constant tensor:
#      x y z
#    x 1.622420 0.000000 0.000000 
#    y 0.000000 1.632550 0.000000 
#    z 0.000000 0.000000 1.621070 
# 
# From -- ./inp_files/29391.got.cif
#   From: 2010.05.17/outbox.cif.g08.bks.cpg/sg68_15_cif.got.tgz:29391.got - 2010.06.03 18:57:09.
