data_PCOD9507084
_publ_section_title
;
Structure prediction by ZEFSAII (Michael W. Deem and Ramdas Pophale) SiO2 
 PCOD9507084
Probable space group: C C C A
;
_chemical_formula_sum "Si O2"
_cell_formula_units_Z 96
_cell_length_a 25.750538
_cell_length_b 8.126474
_cell_length_c 22.830555
_cell_angle_alpha 90.000000
_cell_angle_beta 90.000000
_cell_angle_gamma 90.000000
_cell_volume 4777.546540
_symmetry_space_group_name_H-M "C C C A"
_symmetry_group_IT_number 68
_space_group.IT_coordinate_system_code '2'
_symmetry_cell_setting 'orthorhombic'
loop_
_space_group_symop_operation_xyz
x,y,z
-x,1/2-y,z
x,1/2-y,1/2-z
-x,y,1/2-z
-x,-y,-z
x,1/2+y,-z
-x,1/2+y,1/2+z
x,-y,1/2+z
1/2+x,1/2+y,z
1/2-x,-y,z
1/2+x,-y,1/2-z
1/2-x,1/2+y,1/2-z
1/2-x,1/2-y,-z
1/2+x,y,-z
1/2-x,y,1/2+z
1/2+x,1/2-y,1/2+z
loop_
_atom_site_type_symbol
_atom_site_label
_atom_site_fract_x
_atom_site_fract_y
_atom_site_fract_z
Si Si1 0.301579 0.068372 0.417477
Si Si2 0.937629 0.061763 0.251101
Si Si3 0.083890 0.540774 0.380410
Si Si4 0.340637 0.360193 0.474146
Si Si5 0.083126 0.415582 0.625273
Si Si6 0.556372 0.228187 0.545068
O O1 0.296892 0.245612 0.446641
O O2 0.354448 0.081248 0.381416
O O3 0.250000 0.000000 0.388156
O O4 0.316080 0.955411 0.472566
O O5 0.918807 0.250000 0.250000
O O6 0.000000 0.065234 0.250000
O O7 0.915719 0.986511 0.311043
O O8 0.925800 0.966049 0.191867
O O9 0.136539 0.540803 0.418917
O O10 0.063856 0.729379 0.386626
O O11 0.056311 0.382495 0.409735
O O12 0.392738 0.271267 0.502623
O O13 0.061410 0.556334 0.581207
O O14 0.500000 0.250000 0.514879
#
# Coordination Sequence:
#
# PCOD9507084 Si02
#       6
#    16  16  16  16  16  16
#     4  10  20  38  64  87 118 158 204 259 308 361
#     4  11  22  39  61  88 121 168 209 249 301 358
#     4  11  22  39  60  84 127 159 206 255 294 365
#     4  10  21  39  56  92 121 159 203 250 309 368
#     4  10  23  39  60  92 119 162 211 253 308 362
#     4  11  22  38  57  87 131 166 199 249 306 367
#
# _framework density 20.093995
#
# number of rings (size 3 to 8) (size 9 to 14) (size 15 to 20)
#    0.000    1.500    3.333    2.000    0.000    4.000 
#    6.000    0.000    0.000    5.000    0.000    0.000 
#    0.000    0.000    0.000    0.000    0.000    0.000 
#
# Total GULP energy -267487.528580 kJ/mol
# GULP energy per Si atom -5572.656845 kJ/mol
# Density = 2.004826 g / cm^3
# Si number density = 20.093995 Si / 1000 Ang^3
#
#
#
# Elastic Constant Matrix: (Units=GPa)
#
#
# Indices 1 2 3 4 5 6 
#
# 1 43.1664 4.6216 -4.7366 0.0000 0.0000 0.0000
# 2 4.6216 122.1187 22.6174 0.0000 0.0000 0.0000
# 3 -4.7366 22.6174 87.9074 0.0000 0.0000 0.0000
# 4 0.0000 0.0000 0.0000 10.5147 0.0000 0.0000
# 5 0.0000 0.0000 0.0000 0.0000 11.5415 0.0000
# 6 0.0000 0.0000 0.0000 0.0000 0.0000 -78.6931
#
#
#
# Elastic Compliance Matrix: (Units=1/GPa)
#
#
# Indices 1 2 3 4 5 6 
#
# 1 0.023464 -0.001178 0.001567 0.000000 0.000000 0.000000
# 2 -0.001178 0.008658 -0.002291 0.000000 0.000000 0.000000
# 3 0.001567 -0.002291 0.012050 0.000000 0.000000 0.000000
# 4 0.000000 0.000000 0.000000 0.095105 0.000000 0.000000
# 5 0.000000 0.000000 0.000000 0.000000 0.086644 0.000000
# 6 0.000000 0.000000 0.000000 0.000000 0.000000 -0.012708
#
#
# Mechanical properties :
#
#
# Convention : Reuss Voigt Hill
#
# Bulk Modulus (GPa) = 24.77224 33.13304 28.95264
# Shear Modulus (GPa) = 21.69461 4.05196 12.87329
#
# Velocity S-wave (km/s) = 3.28938 1.42158 2.53386
# Velocity P-wave (km/s) = 5.17510 4.38399 4.79588
#
# Compressibility (1/GPa) = 0.04036777
#
# Stress axis : x y z
#
# Youngs Moduli (GPa) = 42.61794 115.50465 82.99098
#
# Poissons Ratio (x) = 0.13610 -0.13008
# Poissons Ratio (y) = 0.05022 0.19013
# Poissons Ratio (z) = -0.06680 0.26462
#
# Static dielectric constant tensor:
#      x y z
#    x 1.713850 0.000000 0.000000 
#    y 0.000000 1.808060 0.000000 
#    z 0.000000 0.000000 1.647600 
# 
# From -- ./inp_files/46948.got.cif
#   From: 2010.05.17/outbox.cif.g08.bks.cpg/sg68_24_cif.got.tgz:46948.got - 2010.06.03 18:57:09.
