data_PCOD9507311
_publ_section_title
;
Structure prediction by ZEFSAII (Michael W. Deem and Ramdas Pophale) SiO2 
 PCOD9507311
Probable space group: C C C A
;
_chemical_formula_sum "Si O2"
_cell_formula_units_Z 88
_cell_length_a 24.123822
_cell_length_b 11.162932
_cell_length_c 13.855606
_cell_angle_alpha 90.000000
_cell_angle_beta 90.000000
_cell_angle_gamma 90.000000
_cell_volume 3731.211950
_symmetry_space_group_name_H-M "C C C A"
_symmetry_group_IT_number 68
_space_group.IT_coordinate_system_code '2'
_symmetry_cell_setting 'orthorhombic'
loop_
_space_group_symop_operation_xyz
x,y,z
-x,1/2-y,z
x,1/2-y,1/2-z
-x,y,1/2-z
-x,-y,-z
x,1/2+y,-z
-x,1/2+y,1/2+z
x,-y,1/2+z
1/2+x,1/2+y,z
1/2-x,-y,z
1/2+x,-y,1/2-z
1/2-x,1/2+y,1/2-z
1/2-x,1/2-y,-z
1/2+x,y,-z
1/2-x,y,1/2+z
1/2+x,1/2-y,1/2+z
loop_
_atom_site_type_symbol
_atom_site_label
_atom_site_fract_x
_atom_site_fract_y
_atom_site_fract_z
Si Si1 0.108293 0.136106 0.457143
Si Si2 0.709338 0.740658 0.365791
Si Si3 0.451507 0.541528 0.685500
Si Si4 0.811494 0.388181 0.621293
Si Si5 0.120864 0.750000 0.250000
Si Si6 0.000000 0.750000 0.051321
Si Si7 0.750000 0.500000 0.796170
O O1 0.150569 0.234551 0.415969
O O2 0.145741 0.069702 0.539784
O O3 0.053298 0.200970 0.495101
O O4 0.087382 0.047088 0.373779
O O5 0.703528 0.750000 0.250000
O O6 0.750182 0.842047 0.407202
O O7 0.734956 0.608130 0.366168
O O8 0.500000 0.483112 0.750000
O O9 0.415535 0.631290 0.750772
O O10 0.480011 0.636469 0.613423
O O11 0.840358 0.264895 0.658079
O O12 0.799048 0.463895 0.719299
#
# Coordination Sequence:
#
# PCOD9507311 Si02
#       7
#    16  16  16  16   8   8   8
#     4  12  27  40  70 104 134 181 240 298 345 410
#     4  10  23  41  64  96 140 182 223 277 361 425
#     4  12  24  45  72  98 130 188 240 283 355 423
#     4  11  22  42  67 103 138 179 226 293 349 419
#     4  12  19  44  78  90 138 189 230 280 354 430
#     4  12  25  46  65  94 142 174 232 302 345 411
#     4  10  20  40  68 100 140 184 228 272 354 440
#
# _framework density 23.58483
#
# number of rings (size 3 to 8) (size 9 to 14) (size 15 to 20)
#    0.000    0.727    6.364    2.182    0.000    5.091 
#    0.000    0.000    0.000    0.000    0.000    0.000 
#    0.000    0.000    0.000    0.000    0.000    0.000 
#
# Total GULP energy -245720.236197 kJ/mol
# GULP energy per Si atom -5584.550823 kJ/mol
# Density = 2.353115 g / cm^3
# Si number density = 23.584830 Si / 1000 Ang^3
#
#
#
# Elastic Constant Matrix: (Units=GPa)
#
#
# Indices 1 2 3 4 5 6 
#
# 1 166.2220 30.1424 51.5225 0.0000 0.0000 0.0000
# 2 30.1424 50.0830 14.6152 0.0000 0.0000 0.0000
# 3 51.5225 14.6152 82.9306 0.0000 0.0000 0.0000
# 4 0.0000 0.0000 0.0000 7.0649 0.0000 0.0000
# 5 0.0000 0.0000 0.0000 0.0000 173.8309 0.0000
# 6 0.0000 0.0000 0.0000 0.0000 0.0000 31.6328
#
#
#
# Elastic Compliance Matrix: (Units=1/GPa)
#
#
# Indices 1 2 3 4 5 6 
#
# 1 0.008008 -0.003550 -0.004349 0.000000 0.000000 0.000000
# 2 -0.003550 0.022623 -0.001781 0.000000 0.000000 0.000000
# 3 -0.004349 -0.001781 0.015074 0.000000 0.000000 0.000000
# 4 0.000000 0.000000 0.000000 0.141545 0.000000 0.000000
# 5 0.000000 0.000000 0.000000 0.000000 0.005753 0.000000
# 6 0.000000 0.000000 0.000000 0.000000 0.000000 0.031613
#
#
# Mechanical properties :
#
#
# Convention : Reuss Voigt Hill
#
# Bulk Modulus (GPa) = 37.95984 54.64399 46.30191
# Shear Modulus (GPa) = 19.78165 56.03609 37.90887
#
# Velocity S-wave (km/s) = 2.89925 4.87965 4.01352
# Velocity P-wave (km/s) = 5.22853 7.41400 6.41502
#
# Compressibility (1/GPa) = 0.02634363
#
# Stress axis : x y z
#
# Youngs Moduli (GPa) = 124.87447 44.20197 66.33759
#
# Poissons Ratio (x) = 0.15693 0.28853
# Poissons Ratio (y) = 0.44335 0.11817
# Poissons Ratio (z) = 0.54314 0.07874
#
# Static dielectric constant tensor:
#      x y z
#    x 1.973230 0.000000 0.000000 
#    y 0.000000 1.938910 0.000000 
#    z 0.000000 0.000000 1.955110 
# 
# From -- ./inp_files/21013.got.cif
#   From: 2010.05.17/outbox.cif.g08.bks.cpg/sg68_11_cif.got.tgz:21013.got - 2010.06.03 18:57:09.
