data_PCOD9507796
_publ_section_title
;
Structure prediction by ZEFSAII (Michael W. Deem and Ramdas Pophale) SiO2 
 PCOD9507796
Probable space group: C C C A
;
_chemical_formula_sum "Si O2"
_cell_formula_units_Z 104
_cell_length_a 16.072745
_cell_length_b 24.439276
_cell_length_c 13.286924
_cell_angle_alpha 90.000000
_cell_angle_beta 90.000000
_cell_angle_gamma 90.000000
_cell_volume 5219.186806
_symmetry_space_group_name_H-M "C C C A"
_symmetry_group_IT_number 68
_space_group.IT_coordinate_system_code '2'
_symmetry_cell_setting 'orthorhombic'
loop_
_space_group_symop_operation_xyz
x,y,z
-x,1/2-y,z
x,1/2-y,1/2-z
-x,y,1/2-z
-x,-y,-z
x,1/2+y,-z
-x,1/2+y,1/2+z
x,-y,1/2+z
1/2+x,1/2+y,z
1/2-x,-y,z
1/2+x,-y,1/2-z
1/2-x,1/2+y,1/2-z
1/2-x,1/2-y,-z
1/2+x,y,-z
1/2-x,y,1/2+z
1/2+x,1/2-y,1/2+z
loop_
_atom_site_type_symbol
_atom_site_label
_atom_site_fract_x
_atom_site_fract_y
_atom_site_fract_z
Si Si1 0.589770 0.730034 0.918718
Si Si2 0.915029 0.568208 0.947849
Si Si3 0.874267 0.150107 0.408575
Si Si4 0.818248 0.657421 0.065785
Si Si5 0.909502 0.443669 0.950918
Si Si6 0.000000 0.382623 0.250000
Si Si7 0.098395 0.362200 0.727436
O O1 0.500000 0.750000 0.884075
O O2 0.577939 0.688561 0.011735
O O3 0.640635 0.783237 0.949779
O O4 0.626968 0.693052 0.829929
O O5 0.882676 0.506281 0.944488
O O6 0.956749 0.583574 0.840598
O O7 0.849059 0.614454 0.980991
O O8 0.991097 0.563807 0.028823
O O9 0.778893 0.167088 0.415865
O O10 0.872761 0.088690 0.453890
O O11 0.925893 0.150339 0.305658
O O12 0.854268 0.632900 0.168937
O O13 0.887242 0.411393 0.849935
O O14 0.000000 0.358745 0.750000
#
# Coordination Sequence:
#
# PCOD9507796 Si02
#       7
#    16  16  16  16  16   8  16
#     4  11  21  40  64  89 120 159 205 263 319 377
#     4  10  21  38  64  86 121 166 208 255 310 378
#     4  10  24  42  59  90 125 167 213 255 320 381
#     4  12  23  38  63  93 127 163 207 262 315 379
#     4   9  20  39  61  89 119 159 208 256 314 375
#     4  10  22  42  61  88 126 170 213 260 316 394
#     4  11  20  35  63  97 119 152 205 263 319 362
#
# _framework density 19.926475
#
# number of rings (size 3 to 8) (size 9 to 14) (size 15 to 20)
#    0.000    1.538    3.077    2.769    1.077    4.308 
#    0.000    8.077    0.000    0.000    0.000    0.000 
#    0.000    0.000    0.000    0.000    0.000    0.000 
#
# Total GULP energy -290144.128734 kJ/mol
# GULP energy per Si atom -5579.694783 kJ/mol
# Density = 1.988112 g / cm^3
# Si number density = 19.926475 Si / 1000 Ang^3
#
#
#
# Elastic Constant Matrix: (Units=GPa)
#
#
# Indices 1 2 3 4 5 6 
#
# 1 40.9182 17.5764 -0.3488 0.0000 0.0000 0.0000
# 2 17.5764 120.4960 32.1805 0.0000 0.0000 0.0000
# 3 -0.3488 32.1805 98.2734 0.0000 0.0000 0.0000
# 4 0.0000 0.0000 0.0000 17.0121 0.0000 0.0000
# 5 0.0000 0.0000 0.0000 0.0000 16.5482 0.0000
# 6 0.0000 0.0000 0.0000 0.0000 0.0000 15.3054
#
#
#
# Elastic Compliance Matrix: (Units=1/GPa)
#
#
# Indices 1 2 3 4 5 6 
#
# 1 0.026267 -0.004226 0.001477 0.000000 0.000000 0.000000
# 2 -0.004226 0.009774 -0.003216 0.000000 0.000000 0.000000
# 3 0.001477 -0.003216 0.011234 0.000000 0.000000 0.000000
# 4 0.000000 0.000000 0.000000 0.058782 0.000000 0.000000
# 5 0.000000 0.000000 0.000000 0.000000 0.060430 0.000000
# 6 0.000000 0.000000 0.000000 0.000000 0.000000 0.065337
#
#
# Mechanical properties :
#
#
# Convention : Reuss Voigt Hill
#
# Bulk Modulus (GPa) = 28.29182 39.83376 34.06279
# Shear Modulus (GPa) = 19.56688 23.79177 21.67932
#
# Velocity S-wave (km/s) = 3.13701 3.45915 3.30201
# Velocity P-wave (km/s) = 5.22973 5.99900 5.62753
#
# Compressibility (1/GPa) = 0.03534590
#
# Stress axis : x y z
#
# Youngs Moduli (GPa) = 38.07084 102.30956 89.01599
#
# Poissons Ratio (x) = 0.43235 -0.13148
# Poissons Ratio (y) = 0.16088 0.28625
# Poissons Ratio (z) = -0.05623 0.32899
#
# Static dielectric constant tensor:
#      x y z
#    x 1.720860 0.000000 0.000000 
#    y 0.000000 1.705750 0.000000 
#    z 0.000000 0.000000 1.696520 
# 
# From -- ./inp_files/14771.got.cif
#   From: 2010.05.17/outbox.cif.g08.bks.cpg/sg68_8_cif.got.tgz:14771.got - 2010.06.03 18:57:09.
