data_PCOD9507054
_publ_section_title
;
Structure prediction by ZEFSAII (Michael W. Deem and Ramdas Pophale) SiO2 
 PCOD9507054
Probable space group: C C C A
;
_chemical_formula_sum "Si O2"
_cell_formula_units_Z 112
_cell_length_a 15.577838
_cell_length_b 23.144637
_cell_length_c 14.203093
_cell_angle_alpha 90.000000
_cell_angle_beta 90.000000
_cell_angle_gamma 90.000000
_cell_volume 5120.831522
_symmetry_space_group_name_H-M "C C C A"
_symmetry_group_IT_number 68
_space_group.IT_coordinate_system_code '2'
_symmetry_cell_setting 'orthorhombic'
loop_
_space_group_symop_operation_xyz
x,y,z
-x,1/2-y,z
x,1/2-y,1/2-z
-x,y,1/2-z
-x,-y,-z
x,1/2+y,-z
-x,1/2+y,1/2+z
x,-y,1/2+z
1/2+x,1/2+y,z
1/2-x,-y,z
1/2+x,-y,1/2-z
1/2-x,1/2+y,1/2-z
1/2-x,1/2-y,-z
1/2+x,y,-z
1/2-x,y,1/2+z
1/2+x,1/2-y,1/2+z
loop_
_atom_site_type_symbol
_atom_site_label
_atom_site_fract_x
_atom_site_fract_y
_atom_site_fract_z
Si Si1 0.938095 0.400279 0.532405
Si Si2 0.715842 0.825921 0.590564
Si Si3 0.312404 0.189865 0.096611
Si Si4 0.346897 0.983352 0.651215
Si Si5 0.572266 0.594886 0.816256
Si Si6 0.455525 0.405325 0.846085
Si Si7 0.824914 0.181704 0.255895
O O1 0.902661 0.338888 0.570758
O O2 0.858969 0.441732 0.560593
O O3 0.013539 0.427376 0.597717
O O4 0.976664 0.394783 0.428980
O O5 0.686204 0.759225 0.601325
O O6 0.744200 0.829733 0.482894
O O7 0.642357 0.866552 0.631070
O O8 0.803037 0.837137 0.650108
O O9 0.266747 0.171128 0.192775
O O10 0.385210 0.951047 0.744386
O O11 0.250000 0.000000 0.671098
O O12 0.394436 0.042422 0.626591
O O13 0.500000 0.625774 0.750000
O O14 0.500000 0.424840 0.750000
O O15 0.398605 0.350643 0.812908
O O16 0.842723 0.250000 0.250000
#
# Coordination Sequence:
#
# PCOD9507054 Si02
#       7
#    16  16  16  16  16  16  16
#     4  11  23  40  62  94 131 165 212 271 330 388
#     4  10  20  38  62  89 124 166 211 260 315 380
#     4  10  21  38  61  90 124 165 214 259 313 388
#     4  11  24  43  66  91 123 168 220 267 324 399
#     4  10  21  39  62  92 128 161 211 274 330 389
#     4  12  24  41  63  90 128 167 211 269 328 384
#     4  10  21  39  62  89 123 164 209 256 311 382
#
# _framework density 21.871448000000001
#
# number of rings (size 3 to 8) (size 9 to 14) (size 15 to 20)
#    0.000    1.429    0.000    6.857    0.000    0.857 
#    0.000    5.000    0.000    0.000    0.000    0.000 
#    0.000    0.000    0.000    0.000    0.000    0.000 
#
# Total GULP energy -312475.209497 kJ/mol
# GULP energy per Si atom -5579.914455 kJ/mol
# Density = 2.182167 g / cm^3
# Si number density = 21.871448 Si / 1000 Ang^3
#
#
#
# Elastic Constant Matrix: (Units=GPa)
#
#
# Indices 1 2 3 4 5 6 
#
# 1 94.9770 46.0663 27.0270 0.0000 0.0000 0.0000
# 2 46.0663 86.2931 25.0710 0.0000 0.0000 0.0000
# 3 27.0270 25.0710 86.7294 0.0000 0.0000 0.0000
# 4 0.0000 0.0000 0.0000 5.4951 0.0000 0.0000
# 5 0.0000 0.0000 0.0000 0.0000 45.3604 0.0000
# 6 0.0000 0.0000 0.0000 0.0000 0.0000 24.9377
#
#
#
# Elastic Compliance Matrix: (Units=1/GPa)
#
#
# Indices 1 2 3 4 5 6 
#
# 1 0.014697 -0.007112 -0.002524 0.000000 0.000000 0.000000
# 2 -0.007112 0.016093 -0.002436 0.000000 0.000000 0.000000
# 3 -0.002524 -0.002436 0.013021 0.000000 0.000000 0.000000
# 4 0.000000 0.000000 0.000000 0.181982 0.000000 0.000000
# 5 0.000000 0.000000 0.000000 0.000000 0.022046 0.000000
# 6 0.000000 0.000000 0.000000 0.000000 0.000000 0.040100
#
#
# Mechanical properties :
#
#
# Convention : Reuss Voigt Hill
#
# Bulk Modulus (GPa) = 50.84768 51.59203 51.21986
# Shear Modulus (GPa) = 15.69184 26.48096 21.08640
#
# Velocity S-wave (km/s) = 2.68145 3.48337 3.10837
# Velocity P-wave (km/s) = 5.73461 6.31018 6.02927
#
# Compressibility (1/GPa) = 0.01966658
#
# Stress axis : x y z
#
# Youngs Moduli (GPa) = 68.04217 62.13931 76.80088
#
# Poissons Ratio (x) = 0.44196 0.19384
# Poissons Ratio (y) = 0.48394 0.18706
# Poissons Ratio (z) = 0.17173 0.15135
#
# Static dielectric constant tensor:
#      x y z
#    x 1.841140 0.000000 0.000000 
#    y 0.000000 1.802040 0.000000 
#    z 0.000000 0.000000 1.797830 
# 
# From -- ./inp_files/22616.got.cif
#   From: 2010.05.17/outbox.cif.g08.bks.cpg/sg68_12_cif.got.tgz:22616.got - 2010.06.03 18:57:09.
