data_PCOD9507412
_publ_section_title
;
Structure prediction by ZEFSAII (Michael W. Deem and Ramdas Pophale) SiO2 
 PCOD9507412
Probable space group: C C C A
;
_chemical_formula_sum "Si O2"
_cell_formula_units_Z 56
_cell_length_a 18.133447
_cell_length_b 8.943416
_cell_length_c 14.822989
_cell_angle_alpha 90.000000
_cell_angle_beta 90.000000
_cell_angle_gamma 90.000000
_cell_volume 2403.917649
_symmetry_space_group_name_H-M "C C C A"
_symmetry_group_IT_number 68
_space_group.IT_coordinate_system_code '2'
_symmetry_cell_setting 'orthorhombic'
loop_
_space_group_symop_operation_xyz
x,y,z
-x,1/2-y,z
x,1/2-y,1/2-z
-x,y,1/2-z
-x,-y,-z
x,1/2+y,-z
-x,1/2+y,1/2+z
x,-y,1/2+z
1/2+x,1/2+y,z
1/2-x,-y,z
1/2+x,-y,1/2-z
1/2-x,1/2+y,1/2-z
1/2-x,1/2-y,-z
1/2+x,y,-z
1/2-x,y,1/2+z
1/2+x,1/2-y,1/2+z
loop_
_atom_site_type_symbol
_atom_site_label
_atom_site_fract_x
_atom_site_fract_y
_atom_site_fract_z
Si Si1 0.500000 0.750000 0.250000
Si Si2 0.000000 0.750000 0.250000
Si Si3 0.167561 0.804523 0.971445
Si Si4 0.661880 0.995606 0.377661
Si Si5 0.397308 0.002143 0.821900
O O1 0.547230 0.859563 0.188348
O O2 0.051044 0.643952 0.186686
O O3 0.135477 0.658624 0.922635
O O4 0.157220 0.946414 0.902751
O O5 0.250000 0.750000 0.000000
O O6 0.132535 0.866265 0.063559
O O7 0.645561 0.002514 0.272812
O O8 0.750000 0.000000 0.386460
#
# Coordination Sequence:
#
# PCOD9507412 Si02
#       5
#     4   4  16  16  16
#     4  10  20  42  76  86 136 212 240 288 358 450
#     4  10  28  42  72 106 140 216 248 304 370 462
#     4  10  22  41  68 104 140 180 242 309 378 449
#     4  10  22  40  67 104 137 182 232 311 380 434
#     4  11  22  47  68  99 145 190 255 297 372 447
#
# _framework density 23.295306
#
# number of rings (size 3 to 8) (size 9 to 14) (size 15 to 20)
#    0.000    1.714    2.857    0.000    4.000    3.429 
#    5.143    8.571    0.000    0.000    0.000    0.000 
#    0.000    0.000    0.000    0.000    0.000    0.000 
#
# Total GULP energy -156085.901853 kJ/mol
# GULP energy per Si atom -5574.496495 kJ/mol
# Density = 2.324229 g / cm^3
# Si number density = 23.295306 Si / 1000 Ang^3
#
#
#
# Elastic Constant Matrix: (Units=GPa)
#
#
# Indices 1 2 3 4 5 6 
#
# 1 64.8613 69.7053 44.1702 0.0000 0.0000 0.0000
# 2 69.7053 153.2136 58.7963 0.0000 0.0000 0.0000
# 3 44.1702 58.7963 147.9891 0.0000 0.0000 0.0000
# 4 0.0000 0.0000 0.0000 25.4100 0.0000 0.0000
# 5 0.0000 0.0000 0.0000 0.0000 29.8500 0.0000
# 6 0.0000 0.0000 0.0000 0.0000 0.0000 52.9070
#
#
#
# Elastic Compliance Matrix: (Units=1/GPa)
#
#
# Indices 1 2 3 4 5 6 
#
# 1 0.032543 -0.013071 -0.004520 0.000000 0.000000 0.000000
# 2 -0.013071 0.012951 -0.001244 0.000000 0.000000 0.000000
# 3 -0.004520 -0.001244 0.008601 0.000000 0.000000 0.000000
# 4 0.000000 0.000000 0.000000 0.039355 0.000000 0.000000
# 5 0.000000 0.000000 0.000000 0.000000 0.033501 0.000000
# 6 0.000000 0.000000 0.000000 0.000000 0.000000 0.018901
#
#
# Mechanical properties :
#
#
# Convention : Reuss Voigt Hill
#
# Bulk Modulus (GPa) = 60.88555 79.04527 69.96541
# Shear Modulus (GPa) = 26.45570 34.52620 30.49095
#
# Velocity S-wave (km/s) = 3.37362 3.85399 3.62178
# Velocity P-wave (km/s) = 6.43181 7.33552 6.89848
#
# Compressibility (1/GPa) = 0.01642426
#
# Stress axis : x y z
#
# Youngs Moduli (GPa) = 30.72902 77.21440 116.27077
#
# Poissons Ratio (x) = 1.00926 0.52553
# Poissons Ratio (y) = 0.40165 0.14466
# Poissons Ratio (z) = 0.13889 0.09607
#
# Static dielectric constant tensor:
#      x y z
#    x 1.936890 0.000000 0.000000 
#    y 0.000000 1.930470 0.000000 
#    z 0.000000 0.000000 1.904040 
# 
# From -- ./inp_files/24970.got.cif
#   From: 2010.05.17/outbox.cif.g08.bks.cpg/sg68_13_cif.got.tgz:24970.got - 2010.06.03 18:57:09.
