data_PCOD9507833
_publ_section_title
;
Structure prediction by ZEFSAII (Michael W. Deem and Ramdas Pophale) SiO2 
 PCOD9507833
Probable space group: C C C A
;
_chemical_formula_sum "Si O2"
_cell_formula_units_Z 96
_cell_length_a 25.447095
_cell_length_b 11.449697
_cell_length_c 14.732328
_cell_angle_alpha 90.000000
_cell_angle_beta 90.000000
_cell_angle_gamma 90.000000
_cell_volume 4292.433586
_symmetry_space_group_name_H-M "C C C A"
_symmetry_group_IT_number 68
_space_group.IT_coordinate_system_code '2'
_symmetry_cell_setting 'orthorhombic'
loop_
_space_group_symop_operation_xyz
x,y,z
-x,1/2-y,z
x,1/2-y,1/2-z
-x,y,1/2-z
-x,-y,-z
x,1/2+y,-z
-x,1/2+y,1/2+z
x,-y,1/2+z
1/2+x,1/2+y,z
1/2-x,-y,z
1/2+x,-y,1/2-z
1/2-x,1/2+y,1/2-z
1/2-x,1/2-y,-z
1/2+x,y,-z
1/2-x,y,1/2+z
1/2+x,1/2-y,1/2+z
loop_
_atom_site_type_symbol
_atom_site_label
_atom_site_fract_x
_atom_site_fract_y
_atom_site_fract_z
Si Si1 0.561231 0.475139 0.426491
Si Si2 0.369597 0.758091 0.917827
Si Si3 0.128207 0.819949 0.886630
Si Si4 0.750000 0.000000 0.294172
Si Si5 0.859625 0.426753 0.205003
Si Si6 0.450838 0.063860 0.124766
Si Si7 0.208232 0.250000 0.750000
O O1 0.611670 0.391612 0.421024
O O2 0.574431 0.608455 0.400524
O O3 0.513287 0.428342 0.365388
O O4 0.551103 0.481288 0.534776
O O5 0.422758 0.685510 0.897359
O O6 0.328090 0.744698 0.838532
O O7 0.349277 0.704906 0.013381
O O8 0.124300 0.693854 0.841609
O O9 0.154894 0.900106 0.809623
O O10 0.806832 0.023228 0.341364
O O11 0.739227 0.126922 0.247872
O O12 0.910740 0.507936 0.196989
#
# Coordination Sequence:
#
# PCOD9507833 Si02
#       7
#    16  16  16   8  16  16   8
#     4  10  21  38  67 100 142 179 222 277 346 429
#     4  11  22  43  67 100 137 180 224 292 351 430
#     4  10  23  41  69  96 139 179 228 284 343 429
#     4  12  26  48  72 102 136 188 242 314 364 420
#     4  11  22  46  66  95 138 182 233 292 347 416
#     4  10  21  39  66  98 139 183 221 277 350 419
#     4  12  26  46  75  98 140 183 242 302 378 420
#
# _framework density 22.364934999999999
#
# number of rings (size 3 to 8) (size 9 to 14) (size 15 to 20)
#    0.000    1.333    3.333    2.500    0.000    1.333 
#    0.000    7.500    0.000    0.000    0.000    0.000 
#    0.000    0.000    0.000    0.000    0.000    0.000 
#
# Total GULP energy -267362.872970 kJ/mol
# GULP energy per Si atom -5570.059854 kJ/mol
# Density = 2.231403 g / cm^3
# Si number density = 22.364935 Si / 1000 Ang^3
#
#
#
# Elastic Constant Matrix: (Units=GPa)
#
#
# Indices 1 2 3 4 5 6 
#
# 1 94.2086 25.0831 46.7998 0.0000 0.0000 0.0000
# 2 25.0831 114.7242 31.7488 0.0000 0.0000 0.0000
# 3 46.7998 31.7488 104.9640 0.0000 0.0000 0.0000
# 4 0.0000 0.0000 0.0000 34.3492 0.0000 0.0000
# 5 0.0000 0.0000 0.0000 0.0000 13.5030 0.0000
# 6 0.0000 0.0000 0.0000 0.0000 0.0000 21.6694
#
#
#
# Elastic Compliance Matrix: (Units=1/GPa)
#
#
# Indices 1 2 3 4 5 6 
#
# 1 0.013849 -0.001440 -0.005739 0.000000 0.000000 0.000000
# 2 -0.001440 0.009663 -0.002281 0.000000 0.000000 0.000000
# 3 -0.005739 -0.002281 0.012776 0.000000 0.000000 0.000000
# 4 0.000000 0.000000 0.000000 0.029113 0.000000 0.000000
# 5 0.000000 0.000000 0.000000 0.000000 0.074058 0.000000
# 6 0.000000 0.000000 0.000000 0.000000 0.000000 0.046148
#
#
# Mechanical properties :
#
#
# Convention : Reuss Voigt Hill
#
# Bulk Modulus (GPa) = 57.57714 57.90670 57.74192
# Shear Modulus (GPa) = 23.77386 27.92200 25.84793
#
# Velocity S-wave (km/s) = 3.26390 3.53721 3.40330
# Velocity P-wave (km/s) = 6.32490 6.52919 6.42786
#
# Compressibility (1/GPa) = 0.01736800
#
# Stress axis : x y z
#
# Youngs Moduli (GPa) = 72.20634 103.49287 78.27200
#
# Poissons Ratio (x) = 0.14899 0.44924
# Poissons Ratio (y) = 0.10395 0.17852
# Poissons Ratio (z) = 0.41442 0.23604
#
# Static dielectric constant tensor:
#      x y z
#    x 1.860440 0.000000 0.000000 
#    y 0.000000 1.832360 0.000000 
#    z 0.000000 0.000000 1.892310 
# 
# From -- ./inp_files/33584.got.cif
#   From: 2010.05.17/outbox.cif.g08.bks.cpg/sg68_17_cif.got.tgz:33584.got - 2010.06.03 18:57:09.
