data_PCOD9507849
_publ_section_title
;
Structure prediction by ZEFSAII (Michael W. Deem and Ramdas Pophale) SiO2 
 PCOD9507849
Probable space group: C C C A
;
_chemical_formula_sum "Si O2"
_cell_formula_units_Z 64
_cell_length_a 10.003533
_cell_length_b 17.711070
_cell_length_c 15.710119
_cell_angle_alpha 90.000000
_cell_angle_beta 90.000000
_cell_angle_gamma 90.000000
_cell_volume 2783.413206
_symmetry_space_group_name_H-M "C C C A"
_symmetry_group_IT_number 68
_space_group.IT_coordinate_system_code '2'
_symmetry_cell_setting 'orthorhombic'
loop_
_space_group_symop_operation_xyz
x,y,z
-x,1/2-y,z
x,1/2-y,1/2-z
-x,y,1/2-z
-x,-y,-z
x,1/2+y,-z
-x,1/2+y,1/2+z
x,-y,1/2+z
1/2+x,1/2+y,z
1/2-x,-y,z
1/2+x,-y,1/2-z
1/2-x,1/2+y,1/2-z
1/2-x,1/2-y,-z
1/2+x,y,-z
1/2-x,y,1/2+z
1/2+x,1/2-y,1/2+z
loop_
_atom_site_type_symbol
_atom_site_label
_atom_site_fract_x
_atom_site_fract_y
_atom_site_fract_z
Si Si1 0.472911 0.163489 0.585608
Si Si2 0.455064 0.850861 0.885599
Si Si3 0.721496 0.779550 0.839558
Si Si4 0.096041 0.988770 0.918402
O O1 0.500000 0.250000 0.612483
O O2 0.498101 0.158221 0.484559
O O3 0.316913 0.162718 0.610921
O O4 0.555590 0.092172 0.620857
O O5 0.578258 0.820014 0.831009
O O6 0.322739 0.798732 0.884168
O O7 0.429356 0.937064 0.862247
O O8 0.776345 0.750000 0.750000
O O9 0.250000 0.000000 0.944957
O O10 0.000000 0.000000 0.000000
#
# Coordination Sequence:
#
# PCOD9507849 Si02
#       4
#    16  16  16  16
#     4  11  22  37  68  96 131 172 236 281 348 396
#     4  10  21  38  68  93 133 174 234 277 353 406
#     4  11  23  40  67  98 134 179 226 286 346 429
#     4  10  23  36  63 101 140 172 228 291 346 409
#
# _framework density 22.993354
#
# number of rings (size 3 to 8) (size 9 to 14) (size 15 to 20)
#    0.000    1.500    2.500    3.750   14.000    0.500 
#    0.000    0.000   27.500    0.000    0.000    0.000 
#    0.000    0.000    0.000    0.000    0.000    0.000 
#
# Total GULP energy -178324.556339 kJ/mol
# GULP energy per Si atom -5572.642386 kJ/mol
# Density = 2.294102 g / cm^3
# Si number density = 22.993354 Si / 1000 Ang^3
#
#
#
# Elastic Constant Matrix: (Units=GPa)
#
#
# Indices 1 2 3 4 5 6 
#
# 1 136.3467 68.0459 10.2484 0.0000 0.0000 0.0000
# 2 68.0459 211.8055 3.3569 0.0000 0.0000 0.0000
# 3 10.2484 3.3569 33.3840 0.0000 0.0000 0.0000
# 4 0.0000 0.0000 0.0000 7.3577 0.0000 0.0000
# 5 0.0000 0.0000 0.0000 0.0000 16.5954 0.0000
# 6 0.0000 0.0000 0.0000 0.0000 0.0000 43.4416
#
#
#
# Elastic Compliance Matrix: (Units=1/GPa)
#
#
# Indices 1 2 3 4 5 6 
#
# 1 0.008932 -0.002830 -0.002457 0.000000 0.000000 0.000000
# 2 -0.002830 0.005626 0.000303 0.000000 0.000000 0.000000
# 3 -0.002457 0.000303 0.030678 0.000000 0.000000 0.000000
# 4 0.000000 0.000000 0.000000 0.135912 0.000000 0.000000
# 5 0.000000 0.000000 0.000000 0.000000 0.060258 0.000000
# 6 0.000000 0.000000 0.000000 0.000000 0.000000 0.023019
#
#
# Mechanical properties :
#
#
# Convention : Reuss Voigt Hill
#
# Bulk Modulus (GPa) = 28.35533 60.53761 44.44647
# Shear Modulus (GPa) = 17.47341 33.47128 25.47235
#
# Velocity S-wave (km/s) = 2.75968 3.81949 3.33199
# Velocity P-wave (km/s) = 4.74481 6.77029 5.84594
#
# Compressibility (1/GPa) = 0.03526674
#
# Stress axis : x y z
#
# Youngs Moduli (GPa) = 111.96307 177.75142 32.59629
#
# Poissons Ratio (x) = 0.50312 0.08010
# Poissons Ratio (y) = 0.31691 -0.00988
# Poissons Ratio (z) = 0.27512 -0.05389
#
# Static dielectric constant tensor:
#      x y z
#    x 2.036620 0.000000 0.000000 
#    y 0.000000 1.929400 0.000000 
#    z 0.000000 0.000000 1.860470 
# 
# From -- ./inp_files/28072.got.cif
#   From: 2010.05.17/outbox.cif.g08.bks.cpg/sg68_15_cif.got.tgz:28072.got - 2010.06.03 18:57:09.
