data_PCOD9507733
_publ_section_title
;
Structure prediction by ZEFSAII (Michael W. Deem and Ramdas Pophale) SiO2 
 PCOD9507733
Probable space group: C C C A
;
_chemical_formula_sum "Si O2"
_cell_formula_units_Z 116
_cell_length_a 25.121021
_cell_length_b 9.417097
_cell_length_c 25.836291
_cell_angle_alpha 90.000000
_cell_angle_beta 90.000000
_cell_angle_gamma 90.000000
_cell_volume 6112.016217
_symmetry_space_group_name_H-M "C C C A"
_symmetry_group_IT_number 68
_space_group.IT_coordinate_system_code '2'
_symmetry_cell_setting 'orthorhombic'
loop_
_space_group_symop_operation_xyz
x,y,z
-x,1/2-y,z
x,1/2-y,1/2-z
-x,y,1/2-z
-x,-y,-z
x,1/2+y,-z
-x,1/2+y,1/2+z
x,-y,1/2+z
1/2+x,1/2+y,z
1/2-x,-y,z
1/2+x,-y,1/2-z
1/2-x,1/2+y,1/2-z
1/2-x,1/2-y,-z
1/2+x,y,-z
1/2-x,y,1/2+z
1/2+x,1/2-y,1/2+z
loop_
_atom_site_type_symbol
_atom_site_label
_atom_site_fract_x
_atom_site_fract_y
_atom_site_fract_z
Si Si1 0.945450 0.942056 0.940231
Si Si2 0.402491 0.449979 0.642309
Si Si3 0.200439 0.099012 0.814884
Si Si4 0.976256 0.008097 0.824208
Si Si5 0.430291 0.122642 0.964847
Si Si6 0.386521 0.332094 0.800698
Si Si7 0.802196 0.922383 0.309372
Si Si8 0.500000 0.250000 0.250000
O O1 0.919879 0.789236 0.954518
O O2 0.007327 0.909372 0.953646
O O3 0.948503 0.994837 0.880815
O O4 0.922014 0.062619 0.977833
O O5 0.355939 0.535827 0.668834
O O6 0.460973 0.487737 0.664829
O O7 0.401815 0.465259 0.580531
O O8 0.390916 0.286185 0.655581
O O9 0.203201 0.095438 0.752640
O O10 0.198550 0.263542 0.831493
O O11 0.250000 0.000000 0.833307
O O12 0.968325 0.148625 0.789678
O O13 0.946399 0.887131 0.791668
O O14 0.365103 0.250000 0.750000
O O15 0.351068 0.468185 0.815011
O O16 0.750000 0.000000 0.329683
#
# Coordination Sequence:
#
# PCOD9507733 Si02
#       8
#    16  16  16  16  16  16  16   4
#     4   9  18  36  56  80 113 154 199 253 294 352
#     4  11  21  37  59  84 120 160 206 246 303 368
#     4  10  21  38  59  83 117 157 205 260 312 359
#     4  11  25  38  55  82 131 166 207 239 304 367
#     4   9  18  34  58  84 108 150 203 250 301 347
#     4  12  22  37  57  82 119 169 200 245 300 368
#     4  10  22  36  57  82 115 158 214 256 300 363
#     4  12  28  36  50  84 124 168 206 244 286 358
#
# _framework density 18.979009000000001
#
# number of rings (size 3 to 8) (size 9 to 14) (size 15 to 20)
#    0.000    1.655    2.759    2.069    3.862    3.862 
#    0.000    0.000    0.000    0.000    0.000    1.931 
#    0.000    0.000    0.000    0.000    0.000    0.000 
#
# Total GULP energy -323156.557018 kJ/mol
# GULP energy per Si atom -5571.664776 kJ/mol
# Density = 1.893581 g / cm^3
# Si number density = 18.979009 Si / 1000 Ang^3
#
#
#
# Elastic Constant Matrix: (Units=GPa)
#
#
# Indices 1 2 3 4 5 6 
#
# 1 95.6960 54.1434 8.7632 0.0000 0.0000 0.0000
# 2 54.1434 152.9504 48.5073 0.0000 0.0000 0.0000
# 3 8.7632 48.5073 81.2744 0.0000 0.0000 0.0000
# 4 0.0000 0.0000 0.0000 20.6234 0.0000 0.0000
# 5 0.0000 0.0000 0.0000 0.0000 11.3722 0.0000
# 6 0.0000 0.0000 0.0000 0.0000 0.0000 22.6726
#
#
#
# Elastic Compliance Matrix: (Units=1/GPa)
#
#
# Indices 1 2 3 4 5 6 
#
# 1 0.013253 -0.005228 0.001691 0.000000 0.000000 0.000000
# 2 -0.005228 0.010127 -0.005480 0.000000 0.000000 0.000000
# 3 0.001691 -0.005480 0.015392 0.000000 0.000000 0.000000
# 4 0.000000 0.000000 0.000000 0.048489 0.000000 0.000000
# 5 0.000000 0.000000 0.000000 0.000000 0.087934 0.000000
# 6 0.000000 0.000000 0.000000 0.000000 0.000000 0.044106
#
#
# Mechanical properties :
#
#
# Convention : Reuss Voigt Hill
#
# Bulk Modulus (GPa) = 48.22037 61.41652 54.81844
# Shear Modulus (GPa) = 20.47112 25.50076 22.98594
#
# Velocity S-wave (km/s) = 3.28780 3.66953 3.48390
# Velocity P-wave (km/s) = 6.31468 7.09820 6.71787
#
# Compressibility (1/GPa) = 0.02073812
#
# Stress axis : x y z
#
# Youngs Moduli (GPa) = 75.45666 98.74918 64.96679
#
# Poissons Ratio (x) = 0.51623 -0.10987
# Poissons Ratio (y) = 0.39446 0.35604
# Poissons Ratio (z) = -0.12761 0.54117
#
# Static dielectric constant tensor:
#      x y z
#    x 1.652740 0.000000 0.000000 
#    y 0.000000 1.742040 0.000000 
#    z 0.000000 0.000000 1.696530 
# 
# From -- ./inp_files/52207.got.cif
#   From: 2010.05.17/outbox.cif.g08.bks.cpg/sg68_27_cif.got.tgz:52207.got - 2010.06.03 18:57:09.
