data_PCOD9507286
_publ_section_title
;
Structure prediction by ZEFSAII (Michael W. Deem and Ramdas Pophale) SiO2 
 PCOD9507286
Probable space group: C C C A
;
_chemical_formula_sum "Si O2"
_cell_formula_units_Z 104
_cell_length_a 26.776113
_cell_length_b 20.792177
_cell_length_c 8.931327
_cell_angle_alpha 90.000000
_cell_angle_beta 90.000000
_cell_angle_gamma 90.000000
_cell_volume 4972.370556
_symmetry_space_group_name_H-M "C C C A"
_symmetry_group_IT_number 68
_space_group.IT_coordinate_system_code '2'
_symmetry_cell_setting 'orthorhombic'
loop_
_space_group_symop_operation_xyz
x,y,z
-x,1/2-y,z
x,1/2-y,1/2-z
-x,y,1/2-z
-x,-y,-z
x,1/2+y,-z
-x,1/2+y,1/2+z
x,-y,1/2+z
1/2+x,1/2+y,z
1/2-x,-y,z
1/2+x,-y,1/2-z
1/2-x,1/2+y,1/2-z
1/2-x,1/2-y,-z
1/2+x,y,-z
1/2-x,y,1/2+z
1/2+x,1/2-y,1/2+z
loop_
_atom_site_type_symbol
_atom_site_label
_atom_site_fract_x
_atom_site_fract_y
_atom_site_fract_z
Si Si1 0.910355 0.020373 0.363116
Si Si2 0.750000 0.000000 0.303324
Si Si3 0.666480 0.092043 0.421911
Si Si4 0.875540 0.185296 0.669429
Si Si5 0.822383 0.897624 0.742446
Si Si6 0.044801 0.574315 0.133824
Si Si7 0.702952 0.718689 0.086328
O O1 0.872192 0.077735 0.323860
O O2 0.955523 0.048372 0.463154
O O3 0.877820 0.961493 0.434044
O O4 0.929124 0.986105 0.214584
O O5 0.784609 0.950081 0.391077
O O6 0.709988 0.960582 0.209888
O O7 0.656810 0.141400 0.285545
O O8 0.667833 0.130488 0.578160
O O9 0.893846 0.250000 0.750000
O O10 0.920177 0.137182 0.627778
O O11 0.841990 0.210386 0.531595
O O12 0.790650 0.854174 0.854725
O O13 0.000000 0.588693 0.250000
O O14 0.692804 0.750000 0.250000
O O15 0.750000 0.750000 0.000000
#
# Coordination Sequence:
#
# PCOD9507286 Si02
#       7
#    16   8  16  16  16  16  16
#     4  10  20  40  64  98 134 164 213 264 350 409
#     4  10  24  32  60  94 126 168 222 266 328 392
#     4  10  22  40  63  91 133 177 219 273 335 397
#     4  11  25  45  65  92 130 179 228 273 336 405
#     4  11  22  39  61  87 132 170 215 272 327 394
#     4  11  22  41  71 102 131 168 214 283 343 419
#     4  12  28  44  64  91 128 180 237 282 326 401
#
# _framework density 20.915576999999999
#
# number of rings (size 3 to 8) (size 9 to 14) (size 15 to 20)
#    0.000    1.231    3.077    2.308    6.462    0.308 
#    0.000    0.000    0.000    0.000    0.000    1.077 
#    0.000    0.000    0.000    0.000    0.000    0.000 
#
# Total GULP energy -289752.037738 kJ/mol
# GULP energy per Si atom -5572.154572 kJ/mol
# Density = 2.086797 g / cm^3
# Si number density = 20.915577 Si / 1000 Ang^3
#
#
#
# Elastic Constant Matrix: (Units=GPa)
#
#
# Indices 1 2 3 4 5 6 
#
# 1 64.2487 22.7993 21.9682 0.0000 0.0000 0.0000
# 2 22.7993 93.5520 36.9562 0.0000 0.0000 0.0000
# 3 21.9682 36.9562 104.7506 0.0000 0.0000 0.0000
# 4 0.0000 0.0000 0.0000 34.6833 0.0000 0.0000
# 5 0.0000 0.0000 0.0000 0.0000 -4.7824 0.0000
# 6 0.0000 0.0000 0.0000 0.0000 0.0000 6.1332
#
#
#
# Elastic Compliance Matrix: (Units=1/GPa)
#
#
# Indices 1 2 3 4 5 6 
#
# 1 0.017597 -0.003289 -0.002530 0.000000 0.000000 0.000000
# 2 -0.003289 0.013035 -0.003909 0.000000 0.000000 0.000000
# 3 -0.002530 -0.003909 0.011456 0.000000 0.000000 0.000000
# 4 0.000000 0.000000 0.000000 0.028832 0.000000 0.000000
# 5 0.000000 0.000000 0.000000 0.000000 -0.209098 0.000000
# 6 0.000000 0.000000 0.000000 0.000000 0.000000 0.163046
#
#
# Mechanical properties :
#
#
# Convention : Reuss Voigt Hill
#
# Bulk Modulus (GPa) = 44.18552 47.33321 45.75936
# Shear Modulus (GPa) = 96.39821 19.26200 57.83010
#
# Velocity S-wave (km/s) = 6.79627 3.03799 5.26396
# Velocity P-wave (km/s) = 9.09710 5.91486 7.67277
#
# Compressibility (1/GPa) = 0.02263185
#
# Stress axis : x y z
#
# Youngs Moduli (GPa) = 56.82877 76.71663 87.28913
#
# Poissons Ratio (x) = 0.25232 0.22084
# Poissons Ratio (y) = 0.18691 0.34121
# Poissons Ratio (z) = 0.14378 0.29988
#
# Static dielectric constant tensor:
#      x y z
#    x 1.769230 0.000000 0.000000 
#    y 0.000000 1.803100 0.000000 
#    z 0.000000 0.000000 1.815190 
# 
# From -- ./inp_files/9010.got.cif
#   From: 2010.05.17/outbox.cif.g08.bks.cpg/sg68_5_cif.got.tgz:9010.got - 2010.06.03 18:57:09.
