data_PCOD9507105
_publ_section_title
;
Structure prediction by ZEFSAII (Michael W. Deem and Ramdas Pophale) SiO2 
 PCOD9507105
Probable space group: C C C A
;
_chemical_formula_sum "Si O2"
_cell_formula_units_Z 104
_cell_length_a 22.132737
_cell_length_b 9.275973
_cell_length_c 24.696152
_cell_angle_alpha 90.000000
_cell_angle_beta 90.000000
_cell_angle_gamma 90.000000
_cell_volume 5070.185965
_symmetry_space_group_name_H-M "C C C A"
_symmetry_group_IT_number 68
_space_group.IT_coordinate_system_code '2'
_symmetry_cell_setting 'orthorhombic'
loop_
_space_group_symop_operation_xyz
x,y,z
-x,1/2-y,z
x,1/2-y,1/2-z
-x,y,1/2-z
-x,-y,-z
x,1/2+y,-z
-x,1/2+y,1/2+z
x,-y,1/2+z
1/2+x,1/2+y,z
1/2-x,-y,z
1/2+x,-y,1/2-z
1/2-x,1/2+y,1/2-z
1/2-x,1/2-y,-z
1/2+x,y,-z
1/2-x,y,1/2+z
1/2+x,1/2-y,1/2+z
loop_
_atom_site_type_symbol
_atom_site_label
_atom_site_fract_x
_atom_site_fract_y
_atom_site_fract_z
Si Si1 0.563827 0.768077 0.437469
Si Si2 0.500000 0.250000 0.135610
Si Si3 0.684788 0.803279 0.585138
Si Si4 0.686743 0.863118 0.095050
Si Si5 0.615952 0.346928 0.302840
Si Si6 0.304764 0.099111 0.779787
Si Si7 0.920401 0.601385 0.045634
O O1 0.500000 0.750000 0.407005
O O2 0.622935 0.713732 0.406923
O O3 0.555863 0.664490 0.489403
O O4 0.579529 0.929813 0.455618
O O5 0.549539 0.168654 0.171807
O O6 0.463552 0.145210 0.095477
O O7 0.755344 0.779519 0.571581
O O8 0.661522 0.800132 0.648210
O O9 0.642214 0.688215 0.555428
O O10 0.677212 0.974817 0.571784
O O11 0.707378 0.875911 0.157035
O O12 0.622166 0.250000 0.250000
O O13 0.634656 0.504567 0.282225
O O14 0.308943 0.250000 0.750000
O O15 0.250000 0.000000 0.757587
#
# Coordination Sequence:
#
# PCOD9507105 Si02
#       7
#    16   8  16  16  16  16  16
#     4  12  26  40  66  92 129 165 218 267 329 392
#     4  10  23  40  70  84 132 170 225 254 322 398
#     4   9  20  40  67  90 127 165 214 262 328 377
#     4  10  21  42  64  94 128 171 208 274 324 382
#     4  10  20  38  65  96 126 174 213 263 320 387
#     4  11  22  39  67  99 131 171 214 268 327 386
#     4  11  24  42  64  95 117 175 215 271 321 397
#
# _framework density 20.512069
#
# number of rings (size 3 to 8) (size 9 to 14) (size 15 to 20)
#    0.000    1.538    3.846    2.077    6.462    3.692 
#    0.000    0.000    0.000    0.000    0.000    0.000 
#    0.000    0.000    0.000    0.000    0.000    0.000 
#
# Total GULP energy -290092.228566 kJ/mol
# GULP energy per Si atom -5578.696703 kJ/mol
# Density = 2.046538 g / cm^3
# Si number density = 20.512069 Si / 1000 Ang^3
#
#
#
# Elastic Constant Matrix: (Units=GPa)
#
#
# Indices 1 2 3 4 5 6 
#
# 1 175.8421 41.6945 16.2844 0.0000 0.0000 0.0000
# 2 41.6945 80.8266 4.6942 0.0000 0.0000 0.0000
# 3 16.2844 4.6942 26.9706 0.0000 0.0000 0.0000
# 4 0.0000 0.0000 0.0000 55.0197 0.0000 0.0000
# 5 0.0000 0.0000 0.0000 0.0000 20.2992 0.0000
# 6 0.0000 0.0000 0.0000 0.0000 0.0000 27.1734
#
#
#
# Elastic Compliance Matrix: (Units=1/GPa)
#
#
# Indices 1 2 3 4 5 6 
#
# 1 0.006796 -0.003301 -0.003529 0.000000 0.000000 0.000000
# 2 -0.003301 0.014102 -0.000461 0.000000 0.000000 0.000000
# 3 -0.003529 -0.000461 0.039288 0.000000 0.000000 0.000000
# 4 0.000000 0.000000 0.000000 0.018175 0.000000 0.000000
# 5 0.000000 0.000000 0.000000 0.000000 0.049263 0.000000
# 6 0.000000 0.000000 0.000000 0.000000 0.000000 0.036801
#
#
# Mechanical properties :
#
#
# Convention : Reuss Voigt Hill
#
# Bulk Modulus (GPa) = 21.92791 45.44283 33.68537
# Shear Modulus (GPa) = 25.74535 35.22952 30.48743
#
# Velocity S-wave (km/s) = 3.54663 4.14877 3.85946
# Velocity P-wave (km/s) = 5.24260 6.71953 6.02648
#
# Compressibility (1/GPa) = 0.04560398
#
# Stress axis : x y z
#
# Youngs Moduli (GPa) = 147.13571 70.91307 25.45276
#
# Poissons Ratio (x) = 0.23408 0.08982
# Poissons Ratio (y) = 0.48569 0.01174
# Poissons Ratio (z) = 0.51925 0.03271
#
# Static dielectric constant tensor:
#      x y z
#    x 1.822860 0.000000 0.000000 
#    y 0.000000 1.728480 0.000000 
#    z 0.000000 0.000000 1.751190 
# 
# From -- ./inp_files/51865.got.cif
#   From: 2010.05.17/outbox.cif.g08.bks.cpg/sg68_26_cif.got.tgz:51865.got - 2010.06.03 18:57:09.
