data_PCOD9507611
_publ_section_title
;
Structure prediction by ZEFSAII (Michael W. Deem and Ramdas Pophale) SiO2 
 PCOD9507611
Probable space group: C C C A
;
_chemical_formula_sum "Si O2"
_cell_formula_units_Z 60
_cell_length_a 10.978834
_cell_length_b 9.864798
_cell_length_c 23.581927
_cell_angle_alpha 90.000000
_cell_angle_beta 90.000000
_cell_angle_gamma 90.000000
_cell_volume 2554.016543
_symmetry_space_group_name_H-M "C C C A"
_symmetry_group_IT_number 68
_space_group.IT_coordinate_system_code '2'
_symmetry_cell_setting 'orthorhombic'
loop_
_space_group_symop_operation_xyz
x,y,z
-x,1/2-y,z
x,1/2-y,1/2-z
-x,y,1/2-z
-x,-y,-z
x,1/2+y,-z
-x,1/2+y,1/2+z
x,-y,1/2+z
1/2+x,1/2+y,z
1/2-x,-y,z
1/2+x,-y,1/2-z
1/2-x,1/2+y,1/2-z
1/2-x,1/2-y,-z
1/2+x,y,-z
1/2-x,y,1/2+z
1/2+x,1/2-y,1/2+z
loop_
_atom_site_type_symbol
_atom_site_label
_atom_site_fract_x
_atom_site_fract_y
_atom_site_fract_z
Si Si1 0.500000 0.750000 0.662054
Si Si2 0.500000 0.750000 0.250000
Si Si3 0.106345 0.528325 0.831258
Si Si4 0.358360 0.609885 0.452511
Si Si5 0.812045 0.359341 0.926832
O O1 0.541370 0.609035 0.689442
O O2 0.387358 0.707937 0.622731
O O3 0.421949 0.847273 0.209533
O O4 0.250000 0.500000 0.833009
O O5 0.067809 0.565837 0.896527
O O6 0.250000 0.500000 0.456959
O O7 0.296641 0.754981 0.440944
O O8 0.399789 0.619788 0.517876
O O9 0.750000 0.500000 0.910724
#
# Coordination Sequence:
#
# PCOD9507611 Si02
#       5
#     8   4  16  16  16
#     4  12  24  40  74 100 132 188 218 262 358 398
#     4  12  32  48  76  98 116 188 236 280 372 374
#     4  11  26  50  69  99 136 169 231 295 324 405
#     4   9  18  42  63  95 152 172 212 281 314 390
#     4  10  21  36  66 107 142 183 213 258 330 412
#
# _framework density 23.492408999999999
#
# number of rings (size 3 to 8) (size 9 to 14) (size 15 to 20)
#    0.000    1.600    5.333    0.000    3.733    4.800 
#    0.000    0.000    0.000    0.000    0.000    0.000 
#    0.000    0.000    0.000    0.000    0.000    0.000 
#
# Total GULP energy -167692.681365 kJ/mol
# GULP energy per Si atom -5589.756045 kJ/mol
# Density = 2.343894 g / cm^3
# Si number density = 23.492409 Si / 1000 Ang^3
#
#
#
# Elastic Constant Matrix: (Units=GPa)
#
#
# Indices 1 2 3 4 5 6 
#
# 1 36.4847 21.9050 31.3551 0.0000 0.0000 0.0000
# 2 21.9050 187.9964 46.3594 0.0000 0.0000 0.0000
# 3 31.3551 46.3594 124.1064 0.0000 0.0000 0.0000
# 4 0.0000 0.0000 0.0000 43.9604 0.0000 0.0000
# 5 0.0000 0.0000 0.0000 0.0000 23.9314 0.0000
# 6 0.0000 0.0000 0.0000 0.0000 0.0000 39.3325
#
#
#
# Elastic Compliance Matrix: (Units=1/GPa)
#
#
# Indices 1 2 3 4 5 6 
#
# 1 0.035773 -0.002136 -0.008240 0.000000 0.000000 0.000000
# 2 -0.002136 0.005987 -0.001697 0.000000 0.000000 0.000000
# 3 -0.008240 -0.001697 0.010773 0.000000 0.000000 0.000000
# 4 0.000000 0.000000 0.000000 0.022748 0.000000 0.000000
# 5 0.000000 0.000000 0.000000 0.000000 0.041786 0.000000
# 6 0.000000 0.000000 0.000000 0.000000 0.000000 0.025424
#
#
# Mechanical properties :
#
#
# Convention : Reuss Voigt Hill
#
# Bulk Modulus (GPa) = 35.22736 60.86959 48.04847
# Shear Modulus (GPa) = 28.39328 38.04273 33.21801
#
# Velocity S-wave (km/s) = 3.48029 4.02850 3.76438
# Velocity P-wave (km/s) = 5.58369 6.89963 6.27625
#
# Compressibility (1/GPa) = 0.02838703
#
# Stress axis : x y z
#
# Youngs Moduli (GPa) = 27.95432 167.04196 92.82373
#
# Poissons Ratio (x) = 0.35684 0.76485
# Poissons Ratio (y) = 0.05972 0.15748
# Poissons Ratio (z) = 0.23034 0.28339
#
# Static dielectric constant tensor:
#      x y z
#    x 1.833300 0.000000 0.000000 
#    y 0.000000 1.636760 0.000000 
#    z 0.000000 0.000000 1.982650 
# 
# From -- ./inp_files/42691.got.cif
#   From: 2010.05.17/outbox.cif.g08.bks.cpg/sg68_22_cif.got.tgz:42691.got - 2010.06.03 18:57:09.
