data_PCOD9507246
_publ_section_title
;
Structure prediction by ZEFSAII (Michael W. Deem and Ramdas Pophale) SiO2 
 PCOD9507246
Probable space group: C C C A
;
_chemical_formula_sum "Si O2"
_cell_formula_units_Z 60
_cell_length_a 16.831194
_cell_length_b 12.434501
_cell_length_c 12.017764
_cell_angle_alpha 90.000000
_cell_angle_beta 90.000000
_cell_angle_gamma 90.000000
_cell_volume 2515.167767
_symmetry_space_group_name_H-M "C C C A"
_symmetry_group_IT_number 68
_space_group.IT_coordinate_system_code '2'
_symmetry_cell_setting 'orthorhombic'
loop_
_space_group_symop_operation_xyz
x,y,z
-x,1/2-y,z
x,1/2-y,1/2-z
-x,y,1/2-z
-x,-y,-z
x,1/2+y,-z
-x,1/2+y,1/2+z
x,-y,1/2+z
1/2+x,1/2+y,z
1/2-x,-y,z
1/2+x,-y,1/2-z
1/2-x,1/2+y,1/2-z
1/2-x,1/2-y,-z
1/2+x,y,-z
1/2-x,y,1/2+z
1/2+x,1/2-y,1/2+z
loop_
_atom_site_type_symbol
_atom_site_label
_atom_site_fract_x
_atom_site_fract_y
_atom_site_fract_z
Si Si1 0.363609 0.835657 0.603497
Si Si2 0.033461 0.131472 0.392350
Si Si3 0.000000 0.750000 0.250000
Si Si4 0.740365 0.250000 0.750000
Si Si5 0.622380 0.939379 0.320792
O O1 0.396051 0.844739 0.479307
O O2 0.444205 0.818593 0.671903
O O3 0.302463 0.743494 0.644913
O O4 0.334502 0.951062 0.646983
O O5 0.074156 0.062163 0.295383
O O6 0.000000 0.250000 0.361369
O O7 0.947169 0.076455 0.414912
O O8 0.682364 0.342458 0.704505
#
# Coordination Sequence:
#
# PCOD9507246 Si02
#       5
#    16  16   4   8  16
#     4  11  24  40  68 101 136 183 229 290 350 419
#     4  11  21  43  73  97 132 183 239 288 347 419
#     4  10  20  40  60  98 140 166 224 286 336 400
#     4  11  24  44  64  97 150 178 226 293 366 416
#     4  11  22  44  68 100 138 184 232 293 350 420
#
# _framework density 23.855266
#
# number of rings (size 3 to 8) (size 9 to 14) (size 15 to 20)
#    0.000    1.067    4.000    4.000    0.000    1.067 
#    0.000    2.667    0.000    0.000    0.000    0.000 
#    0.000    0.000    0.000    0.000    0.000    0.000 
#
# Total GULP energy -167003.888089 kJ/mol
# GULP energy per Si atom -5566.796270 kJ/mol
# Density = 2.380097 g / cm^3
# Si number density = 23.855266 Si / 1000 Ang^3
#
#
#
# Elastic Constant Matrix: (Units=GPa)
#
#
# Indices 1 2 3 4 5 6 
#
# 1 146.8265 18.8311 34.6088 0.0000 0.0000 0.0000
# 2 18.8311 79.7674 5.2711 0.0000 0.0000 0.0000
# 3 34.6088 5.2711 99.9565 0.0000 0.0000 0.0000
# 4 0.0000 0.0000 0.0000 19.8237 0.0000 0.0000
# 5 0.0000 0.0000 0.0000 0.0000 73.8310 0.0000
# 6 0.0000 0.0000 0.0000 0.0000 0.0000 45.6161
#
#
#
# Elastic Compliance Matrix: (Units=1/GPa)
#
#
# Indices 1 2 3 4 5 6 
#
# 1 0.007622 -0.001631 -0.002553 0.000000 0.000000 0.000000
# 2 -0.001631 0.012929 -0.000117 0.000000 0.000000 0.000000
# 3 -0.002553 -0.000117 0.010894 0.000000 0.000000 0.000000
# 4 0.000000 0.000000 0.000000 0.050445 0.000000 0.000000
# 5 0.000000 0.000000 0.000000 0.000000 0.013544 0.000000
# 6 0.000000 0.000000 0.000000 0.000000 0.000000 0.021922
#
#
# Mechanical properties :
#
#
# Convention : Reuss Voigt Hill
#
# Bulk Modulus (GPa) = 43.77563 49.33027 46.55295
# Shear Modulus (GPa) = 37.43282 45.71011 41.57147
#
# Velocity S-wave (km/s) = 3.96556 4.38213 4.17904
# Velocity P-wave (km/s) = 6.27359 6.80646 6.54545
#
# Compressibility (1/GPa) = 0.02284376
#
# Stress axis : x y z
#
# Youngs Moduli (GPa) = 131.20531 77.34464 91.78983
#
# Poissons Ratio (x) = 0.12612 0.23433
# Poissons Ratio (y) = 0.21394 0.01076
# Poissons Ratio (z) = 0.33496 0.00907
#
# Static dielectric constant tensor:
#      x y z
#    x 1.687870 0.000000 0.000000 
#    y 0.000000 1.804640 0.000000 
#    z 0.000000 0.000000 2.051300 
# 
# From -- ./inp_files/12739.got.cif
#   From: 2010.05.17/outbox.cif.g08.bks.cpg/sg68_7_cif.got.tgz:12739.got - 2010.06.03 18:57:09.
