data_PCOD9507376
_publ_section_title
;
Structure prediction by ZEFSAII (Michael W. Deem and Ramdas Pophale) SiO2 
 PCOD9507376
Probable space group: C C C A
;
_chemical_formula_sum "Si O2"
_cell_formula_units_Z 112
_cell_length_a 20.798000
_cell_length_b 9.774094
_cell_length_c 23.653724
_cell_angle_alpha 90.000000
_cell_angle_beta 90.000000
_cell_angle_gamma 90.000000
_cell_volume 4808.367027
_symmetry_space_group_name_H-M "C C C A"
_symmetry_group_IT_number 68
_space_group.IT_coordinate_system_code '2'
_symmetry_cell_setting 'orthorhombic'
loop_
_space_group_symop_operation_xyz
x,y,z
-x,1/2-y,z
x,1/2-y,1/2-z
-x,y,1/2-z
-x,-y,-z
x,1/2+y,-z
-x,1/2+y,1/2+z
x,-y,1/2+z
1/2+x,1/2+y,z
1/2-x,-y,z
1/2+x,-y,1/2-z
1/2-x,1/2+y,1/2-z
1/2-x,1/2-y,-z
1/2+x,y,-z
1/2-x,y,1/2+z
1/2+x,1/2-y,1/2+z
loop_
_atom_site_type_symbol
_atom_site_label
_atom_site_fract_x
_atom_site_fract_y
_atom_site_fract_z
Si Si1 0.736854 0.215450 0.376261
Si Si2 0.853647 0.029399 0.651545
Si Si3 0.593404 0.533949 0.027506
Si Si4 0.076135 0.916081 0.240781
Si Si5 0.030014 0.885962 0.421869
Si Si6 0.349478 0.952486 0.140371
Si Si7 0.301287 0.884567 0.457282
O O1 0.694397 0.340885 0.352985
O O2 0.689520 0.086992 0.378119
O O3 0.759851 0.251256 0.440236
O O4 0.797009 0.158350 0.339383
O O5 0.873597 0.010649 0.716145
O O6 0.923540 0.054505 0.624387
O O7 0.823646 0.921630 0.607798
O O8 0.528641 0.472562 0.054127
O O9 0.623595 0.606266 0.081552
O O10 0.574933 0.635476 0.976853
O O11 0.638322 0.418370 0.997694
O O12 0.085841 0.750000 0.250000
O O13 0.096921 0.985681 0.181669
O O14 0.000000 0.940087 0.250000
O O15 0.000000 0.750000 0.397646
O O16 0.250000 0.000000 0.473943
#
# Coordination Sequence:
#
# PCOD9507376 Si02
#       7
#    16  16  16  16  16  16  16
#     4  10  22  40  59  89 127 167 204 263 318 382
#     4  10  20  42  62  91 123 165 220 263 315 377
#     4  10  22  37  58  92 127 163 212 260 319 374
#     4  11  23  40  67  93 121 165 211 268 319 371
#     4  10  21  36  61  90 123 167 212 267 310 371
#     4  11  23  40  58  98 126 161 212 259 320 386
#     4   9  21  40  61  89 125 174 212 256 320 384
#
# _framework density 23.292731
#
# number of rings (size 3 to 8) (size 9 to 14) (size 15 to 20)
#    0.000    1.857    1.429    1.714    6.000    0.571 
#   10.286    0.000    0.000    0.857    0.000    0.000 
#    0.000    0.000    0.000    0.000    0.000    0.000 
#
# Total GULP energy -312202.661390 kJ/mol
# GULP energy per Si atom -5575.047525 kJ/mol
# Density = 2.323972 g / cm^3
# Si number density = 23.292731 Si / 1000 Ang^3
#
#
#
# Elastic Constant Matrix: (Units=GPa)
#
#
# Indices 1 2 3 4 5 6 
#
# 1 121.0043 20.8015 28.8513 0.0000 0.0000 0.0000
# 2 20.8015 47.6936 -2.6612 0.0000 0.0000 0.0000
# 3 28.8513 -2.6612 84.9602 0.0000 0.0000 0.0000
# 4 0.0000 0.0000 0.0000 16.8094 0.0000 0.0000
# 5 0.0000 0.0000 0.0000 0.0000 51.6148 0.0000
# 6 0.0000 0.0000 0.0000 0.0000 0.0000 23.6940
#
#
#
# Elastic Compliance Matrix: (Units=1/GPa)
#
#
# Indices 1 2 3 4 5 6 
#
# 1 0.009871 -0.004500 -0.003493 0.000000 0.000000 0.000000
# 2 -0.004500 0.023055 0.002250 0.000000 0.000000 0.000000
# 3 -0.003493 0.002250 0.013027 0.000000 0.000000 0.000000
# 4 0.000000 0.000000 0.000000 0.059491 0.000000 0.000000
# 5 0.000000 0.000000 0.000000 0.000000 0.019374 0.000000
# 6 0.000000 0.000000 0.000000 0.000000 0.000000 0.042205
#
#
# Mechanical properties :
#
#
# Convention : Reuss Voigt Hill
#
# Bulk Modulus (GPa) = 29.01262 38.62680 33.81971
# Shear Modulus (GPa) = 26.31627 32.20142 29.25885
#
# Velocity S-wave (km/s) = 3.36491 3.72219 3.54805
# Velocity P-wave (km/s) = 5.25162 5.92386 5.59784
#
# Compressibility (1/GPa) = 0.03446776
#
# Stress axis : x y z
#
# Youngs Moduli (GPa) = 101.31151 43.37385 76.76466
#
# Poissons Ratio (x) = 0.19518 0.26813
# Poissons Ratio (y) = 0.45589 -0.17274
# Poissons Ratio (z) = 0.35387 -0.09760
#
# Static dielectric constant tensor:
#      x y z
#    x 1.942770 0.000000 0.000000 
#    y 0.000000 1.912550 0.000000 
#    z 0.000000 0.000000 1.928490 
# 
# From -- ./inp_files/46658.got.cif
#   From: 2010.05.17/outbox.cif.g08.bks.cpg/sg68_24_cif.got.tgz:46658.got - 2010.06.03 18:57:09.
