data_PCOD9507405
_publ_section_title
;
Structure prediction by ZEFSAII (Michael W. Deem and Ramdas Pophale) SiO2 
 PCOD9507405
Probable space group: C C C A
;
_chemical_formula_sum "Si O2"
_cell_formula_units_Z 88
_cell_length_a 26.084600
_cell_length_b 11.904507
_cell_length_c 14.013585
_cell_angle_alpha 90.000000
_cell_angle_beta 90.000000
_cell_angle_gamma 90.000000
_cell_volume 4351.558719
_symmetry_space_group_name_H-M "C C C A"
_symmetry_group_IT_number 68
_space_group.IT_coordinate_system_code '2'
_symmetry_cell_setting 'orthorhombic'
loop_
_space_group_symop_operation_xyz
x,y,z
-x,1/2-y,z
x,1/2-y,1/2-z
-x,y,1/2-z
-x,-y,-z
x,1/2+y,-z
-x,1/2+y,1/2+z
x,-y,1/2+z
1/2+x,1/2+y,z
1/2-x,-y,z
1/2+x,-y,1/2-z
1/2-x,1/2+y,1/2-z
1/2-x,1/2-y,-z
1/2+x,y,-z
1/2-x,y,1/2+z
1/2+x,1/2-y,1/2+z
loop_
_atom_site_type_symbol
_atom_site_label
_atom_site_fract_x
_atom_site_fract_y
_atom_site_fract_z
Si Si1 0.562446 0.949878 0.076055
Si Si2 0.744093 0.370516 0.442018
Si Si3 0.450390 0.670579 0.881097
Si Si4 0.000000 0.014681 0.750000
Si Si5 0.346195 0.707999 0.142723
Si Si6 0.368904 0.164974 0.450531
O O1 0.608773 0.876914 0.117114
O O2 0.520045 0.950998 0.158181
O O3 0.588403 0.068849 0.052879
O O4 0.541881 0.897899 0.978608
O O5 0.750000 0.500000 0.484122
O O6 0.750000 0.250000 0.500000
O O7 0.791532 0.353737 0.370539
O O8 0.685703 0.366816 0.405300
O O9 0.500000 0.750000 0.872176
O O10 0.453545 0.591643 0.789020
O O11 0.396689 0.732629 0.896599
O O12 0.350977 0.750000 0.250000
O O13 0.354605 0.802886 0.060260
#
# Coordination Sequence:
#
# PCOD9507405 Si02
#       6
#    16  16  16   8  16  16
#     4  11  24  40  67  90 126 176 216 275 334 403
#     4  10  20  42  69  97 133 175 225 278 346 412
#     4  11  24  41  61  92 129 166 217 272 334 402
#     4  12  25  40  63  94 130 168 229 274 331 404
#     4  10  23  42  63  98 132 169 221 281 333 412
#     4  10  22  41  67  88 131 171 214 273 342 399
#
# _framework density 20.222639000000001
#
# number of rings (size 3 to 8) (size 9 to 14) (size 15 to 20)
#    0.000    1.455    3.636    0.818    2.545    1.455 
#    3.273    3.636    0.000    0.000    0.000    0.000 
#    0.000    0.000    0.000    0.000    0.000    0.000 
#
# Total GULP energy -245160.948227 kJ/mol
# GULP energy per Si atom -5571.839732 kJ/mol
# Density = 2.017661 g / cm^3
# Si number density = 20.222639 Si / 1000 Ang^3
#
#
#
# Elastic Constant Matrix: (Units=GPa)
#
#
# Indices 1 2 3 4 5 6 
#
# 1 78.8161 -2.3928 11.1536 0.0000 0.0000 0.0000
# 2 -2.3928 63.6376 15.6077 0.0000 0.0000 0.0000
# 3 11.1536 15.6077 80.5472 0.0000 0.0000 0.0000
# 4 0.0000 0.0000 0.0000 15.5180 0.0000 0.0000
# 5 0.0000 0.0000 0.0000 0.0000 18.9430 0.0000
# 6 0.0000 0.0000 0.0000 0.0000 0.0000 26.8419
#
#
#
# Elastic Compliance Matrix: (Units=1/GPa)
#
#
# Indices 1 2 3 4 5 6 
#
# 1 0.012999 0.000977 -0.001989 0.000000 0.000000 0.000000
# 2 0.000977 0.016571 -0.003346 0.000000 0.000000 0.000000
# 3 -0.001989 -0.003346 0.013339 0.000000 0.000000 0.000000
# 4 0.000000 0.000000 0.000000 0.064441 0.000000 0.000000
# 5 0.000000 0.000000 0.000000 0.000000 0.052790 0.000000
# 6 0.000000 0.000000 0.000000 0.000000 0.000000 0.037255
#
#
# Mechanical properties :
#
#
# Convention : Reuss Voigt Hill
#
# Bulk Modulus (GPa) = 29.24704 30.19310 29.72007
# Shear Modulus (GPa) = 22.98736 25.50273 24.24505
#
# Velocity S-wave (km/s) = 3.37518 3.55505 3.46628
# Velocity P-wave (km/s) = 5.44821 5.64038 5.54513
#
# Compressibility (1/GPa) = 0.03419150
#
# Stress axis : x y z
#
# Youngs Moduli (GPa) = 76.92941 60.34489 74.96837
#
# Poissons Ratio (x) = -0.05894 0.14913
# Poissons Ratio (y) = -0.07513 0.25087
# Poissons Ratio (z) = 0.15303 0.20193
#
# Static dielectric constant tensor:
#      x y z
#    x 1.708630 0.000000 0.000000 
#    y 0.000000 1.837610 0.000000 
#    z 0.000000 0.000000 1.684270 
# 
# From -- ./inp_files/12060.got.cif
#   From: 2010.05.17/outbox.cif.g08.bks.cpg/sg68_7_cif.got.tgz:12060.got - 2010.06.03 18:57:09.
