data_PCOD9507050
_publ_section_title
;
Structure prediction by ZEFSAII (Michael W. Deem and Ramdas Pophale) SiO2 
 PCOD9507050
Probable space group: C C C A
;
_chemical_formula_sum "Si O2"
_cell_formula_units_Z 112
_cell_length_a 25.848224
_cell_length_b 14.734145
_cell_length_c 13.523176
_cell_angle_alpha 90.000000
_cell_angle_beta 90.000000
_cell_angle_gamma 90.000000
_cell_volume 5150.321599
_symmetry_space_group_name_H-M "C C C A"
_symmetry_group_IT_number 68
_space_group.IT_coordinate_system_code '2'
_symmetry_cell_setting 'orthorhombic'
loop_
_space_group_symop_operation_xyz
x,y,z
-x,1/2-y,z
x,1/2-y,1/2-z
-x,y,1/2-z
-x,-y,-z
x,1/2+y,-z
-x,1/2+y,1/2+z
x,-y,1/2+z
1/2+x,1/2+y,z
1/2-x,-y,z
1/2+x,-y,1/2-z
1/2-x,1/2+y,1/2-z
1/2-x,1/2-y,-z
1/2+x,y,-z
1/2-x,y,1/2+z
1/2+x,1/2-y,1/2+z
loop_
_atom_site_type_symbol
_atom_site_label
_atom_site_fract_x
_atom_site_fract_y
_atom_site_fract_z
Si Si1 0.822139 0.634237 0.928368
Si Si2 0.205304 0.440816 0.880546
Si Si3 0.281615 0.336218 0.184819
Si Si4 0.568596 0.674335 0.494339
Si Si5 0.456324 0.386057 0.960053
Si Si6 0.094062 0.469281 0.837953
Si Si7 0.871835 0.557379 0.383938
O O1 0.774556 0.670717 0.864948
O O2 0.880163 0.672016 0.926315
O O3 0.835174 0.529870 0.901147
O O4 0.804402 0.639936 0.042776
O O5 0.250000 0.500000 0.926799
O O6 0.220723 0.412056 0.771029
O O7 0.151997 0.494731 0.872960
O O8 0.294990 0.250000 0.250000
O O9 0.329967 0.361114 0.114974
O O10 0.555286 0.780746 0.487685
O O11 0.518504 0.616530 0.461302
O O12 0.580586 0.622220 0.598807
O O13 0.440950 0.443629 0.862372
O O14 0.418753 0.436028 0.039055
O O15 0.100956 0.446542 0.723263
#
# Coordination Sequence:
#
# PCOD9507050 Si02
#       7
#    16  16  16  16  16  16  16
#     4  11  23  43  64  93 133 177 220 272 336 406
#     4  10  20  38  62  87 127 166 216 261 327 403
#     4  11  25  39  61  99 136 168 219 281 333 411
#     4  10  24  43  66  99 136 175 231 278 343 414
#     4  11  23  44  70  95 137 179 222 290 342 397
#     4  10  22  40  66 100 130 175 225 275 332 409
#     4  11  23  40  70  96 134 180 223 283 345 401
#
# _framework density 21.746214999999999
#
# number of rings (size 3 to 8) (size 9 to 14) (size 15 to 20)
#    0.000    1.429    2.857    3.429    6.000    3.429 
#    0.000    1.429    0.000    1.714    0.000    0.000 
#    0.000    0.000    0.000    0.000    0.000    0.000 
#
# Total GULP energy -311892.983540 kJ/mol
# GULP energy per Si atom -5569.517563 kJ/mol
# Density = 2.169672 g / cm^3
# Si number density = 21.746215 Si / 1000 Ang^3
#
#
#
# Elastic Constant Matrix: (Units=GPa)
#
#
# Indices 1 2 3 4 5 6 
#
# 1 109.3575 9.2574 24.0630 0.0000 0.0000 0.0000
# 2 9.2574 52.4526 -11.2598 0.0000 0.0000 0.0000
# 3 24.0630 -11.2598 48.3916 0.0000 0.0000 0.0000
# 4 0.0000 0.0000 0.0000 12.5689 0.0000 0.0000
# 5 0.0000 0.0000 0.0000 0.0000 -17.0417 0.0000
# 6 0.0000 0.0000 0.0000 0.0000 0.0000 27.3052
#
#
#
# Elastic Compliance Matrix: (Units=1/GPa)
#
#
# Indices 1 2 3 4 5 6 
#
# 1 0.010757 -0.003207 -0.006095 0.000000 0.000000 0.000000
# 2 -0.003207 0.021023 0.006486 0.000000 0.000000 0.000000
# 3 -0.006095 0.006486 0.025205 0.000000 0.000000 0.000000
# 4 0.000000 0.000000 0.000000 0.079561 0.000000 0.000000
# 5 0.000000 0.000000 0.000000 0.000000 -0.058680 0.000000
# 6 0.000000 0.000000 0.000000 0.000000 0.000000 0.036623
#
#
# Mechanical properties :
#
#
# Convention : Reuss Voigt Hill
#
# Bulk Modulus (GPa) = 19.47285 28.25811 23.86548
# Shear Modulus (GPa) = 36.43277 17.10923 26.77100
#
# Velocity S-wave (km/s) = 4.09756 2.80798 3.51246
# Velocity P-wave (km/s) = 5.60006 4.85136 5.23910
#
# Compressibility (1/GPa) = 0.05135354
#
# Stress axis : x y z
#
# Youngs Moduli (GPa) = 92.96295 47.56649 39.67493
#
# Poissons Ratio (x) = 0.15254 0.24183
# Poissons Ratio (y) = 0.29812 -0.25735
# Poissons Ratio (z) = 0.56662 -0.30853
#
# Static dielectric constant tensor:
#      x y z
#    x 1.815490 0.000000 0.000000 
#    y 0.000000 1.990700 0.000000 
#    z 0.000000 0.000000 1.832550 
# 
# From -- ./inp_files/25485.got.cif
#   From: 2010.05.17/outbox.cif.g08.bks.cpg/sg68_13_cif.got.tgz:25485.got - 2010.06.03 18:57:09.
