data_PCOD9507145
_publ_section_title
;
Structure prediction by ZEFSAII (Michael W. Deem and Ramdas Pophale) SiO2 
 PCOD9507145
Probable space group: C C C A
;
_chemical_formula_sum "Si O2"
_cell_formula_units_Z 80
_cell_length_a 11.789482
_cell_length_b 12.332406
_cell_length_c 26.972418
_cell_angle_alpha 90.000000
_cell_angle_beta 90.000000
_cell_angle_gamma 90.000000
_cell_volume 3921.592100
_symmetry_space_group_name_H-M "C C C A"
_symmetry_group_IT_number 68
_space_group.IT_coordinate_system_code '2'
_symmetry_cell_setting 'orthorhombic'
loop_
_space_group_symop_operation_xyz
x,y,z
-x,1/2-y,z
x,1/2-y,1/2-z
-x,y,1/2-z
-x,-y,-z
x,1/2+y,-z
-x,1/2+y,1/2+z
x,-y,1/2+z
1/2+x,1/2+y,z
1/2-x,-y,z
1/2+x,-y,1/2-z
1/2-x,1/2+y,1/2-z
1/2-x,1/2-y,-z
1/2+x,y,-z
1/2-x,y,1/2+z
1/2+x,1/2-y,1/2+z
loop_
_atom_site_type_symbol
_atom_site_label
_atom_site_fract_x
_atom_site_fract_y
_atom_site_fract_z
Si Si1 0.007214 0.086253 0.307107
Si Si2 0.678005 0.390529 0.887723
Si Si3 0.948622 0.368863 0.644850
Si Si4 0.804067 0.150796 0.380050
Si Si5 0.470588 0.022951 0.556404
O O1 0.906427 0.140090 0.339990
O O2 0.000000 0.114357 0.250000
O O3 0.126876 0.114270 0.332285
O O4 0.996072 0.957070 0.316689
O O5 0.750000 0.500000 0.893741
O O6 0.727575 0.272544 0.897104
O O7 0.569850 0.400379 0.923212
O O8 0.812808 0.383391 0.645570
O O9 0.980032 0.414901 0.590186
O O10 0.000000 0.250000 0.652618
O O11 0.853510 0.081652 0.426600
O O12 0.500000 0.000000 0.500000
#
# Coordination Sequence:
#
# PCOD9507145 Si02
#       5
#    16  16  16  16  16
#     4  10  21  37  57  83 112 148 194 236 284 347
#     4  10  21  37  56  82 114 147 188 237 286 345
#     4  10  21  39  58  82 116 154 190 236 294 349
#     4  10  20  39  60  81 115 153 188 238 294 346
#     4  10  21  37  57  83 112 149 192 236 287 347
#
# _framework density 20.399878999999999
#
# number of rings (size 3 to 8) (size 9 to 14) (size 15 to 20)
#    0.000    2.400    0.000    7.200    0.000    6.800 
#    0.000    5.000    0.000    0.000    0.000    0.000 
#    0.000    0.000    0.000    0.000    0.000    0.000 
#
# Total GULP energy -222857.122381 kJ/mol
# GULP energy per Si atom -5571.428060 kJ/mol
# Density = 2.035345 g / cm^3
# Si number density = 20.399879 Si / 1000 Ang^3
#
#
#
# Elastic Constant Matrix: (Units=GPa)
#
#
# Indices 1 2 3 4 5 6 
#
# 1 59.2770 6.7122 2.1700 0.0000 0.0000 0.0000
# 2 6.7122 127.2486 0.8590 0.0000 0.0000 0.0000
# 3 2.1700 0.8590 105.1147 0.0000 0.0000 0.0000
# 4 0.0000 0.0000 0.0000 1.9434 0.0000 0.0000
# 5 0.0000 0.0000 0.0000 0.0000 11.3710 0.0000
# 6 0.0000 0.0000 0.0000 0.0000 0.0000 26.7027
#
#
#
# Elastic Compliance Matrix: (Units=1/GPa)
#
#
# Indices 1 2 3 4 5 6 
#
# 1 0.016984 -0.000894 -0.000343 0.000000 0.000000 0.000000
# 2 -0.000894 0.007906 -0.000046 0.000000 0.000000 0.000000
# 3 -0.000343 -0.000046 0.009521 0.000000 0.000000 0.000000
# 4 0.000000 0.000000 0.000000 0.514559 0.000000 0.000000
# 5 0.000000 0.000000 0.000000 0.000000 0.087943 0.000000
# 6 0.000000 0.000000 0.000000 0.000000 0.000000 0.037449
#
#
# Mechanical properties :
#
#
# Convention : Reuss Voigt Hill
#
# Bulk Modulus (GPa) = 31.40247 34.56917 32.98582
# Shear Modulus (GPa) = 7.27227 26.79669 17.03448
#
# Velocity S-wave (km/s) = 1.89013 3.62825 2.89282
# Velocity P-wave (km/s) = 4.49337 5.87664 5.23093
#
# Compressibility (1/GPa) = 0.03184463
#
# Stress axis : x y z
#
# Youngs Moduli (GPa) = 58.87995 126.48498 105.03229
#
# Poissons Ratio (x) = 0.11302 0.03606
# Poissons Ratio (y) = 0.05261 0.00485
# Poissons Ratio (z) = 0.02021 0.00584
#
# Static dielectric constant tensor:
#      x y z
#    x 1.818500 0.000000 0.000000 
#    y 0.000000 1.804770 0.000000 
#    z 0.000000 0.000000 1.698980 
# 
# From -- ./inp_files/54524.got.cif
#   From: 2010.05.17/outbox.cif.g08.bks.cpg/sg68_28_cif.got.tgz:54524.got - 2010.06.03 18:57:09.
