data_PCOD9507969
_publ_section_title
;
Structure prediction by ZEFSAII (Michael W. Deem and Ramdas Pophale) SiO2 
 PCOD9507969
Probable space group: C C C A
;
_chemical_formula_sum "Si O2"
_cell_formula_units_Z 116
_cell_length_a 9.367120
_cell_length_b 27.560351
_cell_length_c 20.652375
_cell_angle_alpha 90.000000
_cell_angle_beta 90.000000
_cell_angle_gamma 90.000000
_cell_volume 5331.640159
_symmetry_space_group_name_H-M "C C C A"
_symmetry_group_IT_number 68
_space_group.IT_coordinate_system_code '2'
_symmetry_cell_setting 'orthorhombic'
loop_
_space_group_symop_operation_xyz
x,y,z
-x,1/2-y,z
x,1/2-y,1/2-z
-x,y,1/2-z
-x,-y,-z
x,1/2+y,-z
-x,1/2+y,1/2+z
x,-y,1/2+z
1/2+x,1/2+y,z
1/2-x,-y,z
1/2+x,-y,1/2-z
1/2-x,1/2+y,1/2-z
1/2-x,1/2-y,-z
1/2+x,y,-z
1/2-x,y,1/2+z
1/2+x,1/2-y,1/2+z
loop_
_atom_site_type_symbol
_atom_site_label
_atom_site_fract_x
_atom_site_fract_y
_atom_site_fract_z
Si Si1 0.280022 0.056238 0.864367
Si Si2 0.301339 0.679417 0.323214
Si Si3 0.472147 0.307517 0.405175
Si Si4 0.127668 0.135677 0.788822
Si Si5 0.737049 0.444625 0.072734
Si Si6 0.000000 0.250000 0.250000
Si Si7 0.065949 0.399358 0.529520
Si Si8 0.929222 0.075429 0.319945
O O1 0.236127 0.093783 0.808207
O O2 0.186469 0.078939 0.921871
O O3 0.448872 0.059090 0.870081
O O4 0.250000 0.000000 0.853069
O O5 0.193775 0.684967 0.383831
O O6 0.197906 0.671160 0.262159
O O7 0.398480 0.722717 0.300534
O O8 0.404114 0.632848 0.323909
O O9 0.500000 0.250000 0.412189
O O10 0.565501 0.332474 0.347439
O O11 0.523408 0.342499 0.463589
O O12 0.000000 0.110542 0.750000
O O13 0.750000 0.500000 0.049970
O O14 0.580546 0.425694 0.052651
O O15 0.779344 0.443487 0.149339
O O16 0.855734 0.411799 0.037101
O O17 0.000000 0.061452 0.250000
#
# Coordination Sequence:
#
# PCOD9507969 Si02
#       8
#    16  16  16  16  16   4  16  16
#     4  11  22  37  60  93 130 179 226 280 347 412
#     4  11  20  38  56  93 134 179 230 288 351 412
#     4  10  21  39  67  96 131 175 234 291 362 422
#     4   9  19  35  57  85 131 176 226 285 338 413
#     4  12  25  46  73 103 136 188 237 290 345 421
#     4  12  20  28  62  84 124 180 228 274 340 434
#     4  11  24  45  71  98 135 179 240 293 343 415
#     4  12  24  41  63  96 146 176 219 290 352 404
#
# _framework density 21.756907000000002
#
# number of rings (size 3 to 8) (size 9 to 14) (size 15 to 20)
#    0.000    1.103    3.448    3.310    0.000    4.138 
#    0.000    0.690    1.517    0.000    0.000    0.000 
#    0.000    0.000    0.000    0.000    0.000    0.000 
#
# Total GULP energy -323246.208743 kJ/mol
# GULP energy per Si atom -5573.210496 kJ/mol
# Density = 2.170739 g / cm^3
# Si number density = 21.756907 Si / 1000 Ang^3
#
#
#
# Elastic Constant Matrix: (Units=GPa)
#
#
# Indices 1 2 3 4 5 6 
#
# 1 67.1244 -4.7932 20.2267 0.0000 0.0000 0.0000
# 2 -4.7932 103.7274 4.0660 0.0000 0.0000 0.0000
# 3 20.2267 4.0660 57.3174 0.0000 0.0000 0.0000
# 4 0.0000 0.0000 0.0000 16.0436 0.0000 0.0000
# 5 0.0000 0.0000 0.0000 0.0000 26.7664 0.0000
# 6 0.0000 0.0000 0.0000 0.0000 0.0000 11.4685
#
#
#
# Elastic Compliance Matrix: (Units=1/GPa)
#
#
# Indices 1 2 3 4 5 6 
#
# 1 0.016775 0.001010 -0.005991 0.000000 0.000000 0.000000
# 2 0.001010 0.009728 -0.001047 0.000000 0.000000 0.000000
# 3 -0.005991 -0.001047 0.019635 0.000000 0.000000 0.000000
# 4 0.000000 0.000000 0.000000 0.062330 0.000000 0.000000
# 5 0.000000 0.000000 0.000000 0.000000 0.037360 0.000000
# 6 0.000000 0.000000 0.000000 0.000000 0.000000 0.087195
#
#
# Mechanical properties :
#
#
# Convention : Reuss Voigt Hill
#
# Bulk Modulus (GPa) = 29.34019 29.68536 29.51278
# Shear Modulus (GPa) = 19.49762 24.76702 22.13232
#
# Velocity S-wave (km/s) = 2.99684 3.37761 3.19290
# Velocity P-wave (km/s) = 5.04871 5.37445 5.21412
#
# Compressibility (1/GPa) = 0.03408294
#
# Stress axis : x y z
#
# Youngs Moduli (GPa) = 59.61159 102.79237 50.92874
#
# Poissons Ratio (x) = -0.10382 0.30514
# Poissons Ratio (y) = -0.06021 0.05330
# Poissons Ratio (z) = 0.35716 0.10758
#
# Static dielectric constant tensor:
#      x y z
#    x 1.820720 0.000000 0.000000 
#    y 0.000000 1.784810 0.000000 
#    z 0.000000 0.000000 1.973090 
# 
# From -- ./inp_files/43543.got.cif
#   From: 2010.05.17/outbox.cif.g08.bks.cpg/sg68_22_cif.got.tgz:43543.got - 2010.06.03 18:57:09.
