data_PCOD9507953
_publ_section_title
;
Structure prediction by ZEFSAII (Michael W. Deem and Ramdas Pophale) SiO2 
 PCOD9507953
Probable space group: C C C A
;
_chemical_formula_sum "Si O2"
_cell_formula_units_Z 120
_cell_length_a 11.906750
_cell_length_b 22.501970
_cell_length_c 21.528785
_cell_angle_alpha 90.000000
_cell_angle_beta 90.000000
_cell_angle_gamma 90.000000
_cell_volume 5768.106854
_symmetry_space_group_name_H-M "C C C A"
_symmetry_group_IT_number 68
_space_group.IT_coordinate_system_code '2'
_symmetry_cell_setting 'orthorhombic'
loop_
_space_group_symop_operation_xyz
x,y,z
-x,1/2-y,z
x,1/2-y,1/2-z
-x,y,1/2-z
-x,-y,-z
x,1/2+y,-z
-x,1/2+y,1/2+z
x,-y,1/2+z
1/2+x,1/2+y,z
1/2-x,-y,z
1/2+x,-y,1/2-z
1/2-x,1/2+y,1/2-z
1/2-x,1/2-y,-z
1/2+x,y,-z
1/2-x,y,1/2+z
1/2+x,1/2-y,1/2+z
loop_
_atom_site_type_symbol
_atom_site_label
_atom_site_fract_x
_atom_site_fract_y
_atom_site_fract_z
Si Si1 0.105548 0.533739 0.829988
Si Si2 0.357658 0.853097 0.404163
Si Si3 0.978323 0.179291 0.820711
Si Si4 0.963709 0.432702 0.505692
Si Si5 0.000000 0.250000 0.046375
Si Si6 0.383580 0.664390 0.552480
Si Si7 0.655056 0.549408 0.312422
Si Si8 0.809671 0.908593 0.376461
O O1 0.143912 0.552954 0.761555
O O2 0.142805 0.465910 0.839734
O O3 0.175995 0.578137 0.875039
O O4 0.971396 0.533030 0.833717
O O5 0.413702 0.905507 0.443650
O O6 0.440331 0.797591 0.409095
O O7 0.247199 0.831519 0.438723
O O8 0.322647 0.885418 0.340690
O O9 0.859204 0.151163 0.844528
O O10 0.000000 0.250000 0.816515
O O11 0.000000 0.155997 0.750000
O O12 0.059650 0.164599 0.878959
O O13 0.868490 0.417401 0.557000
O O14 0.000000 0.500000 0.500000
O O15 0.074843 0.397237 0.524395
O O16 0.076299 0.213743 0.996864
O O17 0.750000 0.500000 0.328795
#
# Coordination Sequence:
#
# PCOD9507953 Si02
#       8
#    16  16  16  16   8  16  16  16
#     4  10  23  41  64  96 129 181 214 270 347 418
#     4  11  25  39  68  95 126 179 216 277 333 398
#     4  10  22  38  63  98 127 163 223 279 330 386
#     4  10  23  40  61 100 137 168 216 273 332 408
#     4  10  22  48  61  93 132 174 228 266 334 404
#     4  10  22  40  67  93 129 173 220 275 327 399
#     4  11  24  41  64  96 131 168 229 274 335 410
#     4  10  21  39  66  91 132 174 212 269 345 398
#
# _framework density 20.804053
#
# number of rings (size 3 to 8) (size 9 to 14) (size 15 to 20)
#    0.000    1.733    2.000    1.200    9.333    4.267 
#    2.400    0.000    0.000    1.600    0.000    0.000 
#    0.000    0.000    0.000    0.000    0.000    0.000 
#
# Total GULP energy -334496.202621 kJ/mol
# GULP energy per Si atom -5574.936710 kJ/mol
# Density = 2.075670 g / cm^3
# Si number density = 20.804053 Si / 1000 Ang^3
#
#
#
# Elastic Constant Matrix: (Units=GPa)
#
#
# Indices 1 2 3 4 5 6 
#
# 1 104.7571 27.3082 8.4071 0.0000 0.0000 0.0000
# 2 27.3082 102.5482 42.0238 0.0000 0.0000 0.0000
# 3 8.4071 42.0238 94.4130 0.0000 0.0000 0.0000
# 4 0.0000 0.0000 0.0000 175.4366 0.0000 0.0000
# 5 0.0000 0.0000 0.0000 0.0000 13.2598 0.0000
# 6 0.0000 0.0000 0.0000 0.0000 0.0000 4.8561
#
#
#
# Elastic Compliance Matrix: (Units=1/GPa)
#
#
# Indices 1 2 3 4 5 6 
#
# 1 0.010269 -0.002886 0.000370 0.000000 0.000000 0.000000
# 2 -0.002886 0.012738 -0.005413 0.000000 0.000000 0.000000
# 3 0.000370 -0.005413 0.012968 0.000000 0.000000 0.000000
# 4 0.000000 0.000000 0.000000 0.005700 0.000000 0.000000
# 5 0.000000 0.000000 0.000000 0.000000 0.075416 0.000000
# 6 0.000000 0.000000 0.000000 0.000000 0.000000 0.205928
#
#
# Mechanical properties :
#
#
# Convention : Reuss Voigt Hill
#
# Bulk Modulus (GPa) = 49.70839 50.79961 50.25400
# Shear Modulus (GPa) = 14.46832 53.64243 34.05538
#
# Velocity S-wave (km/s) = 2.64001 5.08336 4.05032
# Velocity P-wave (km/s) = 5.76527 7.67628 6.78836
#
# Compressibility (1/GPa) = 0.02011733
#
# Stress axis : x y z
#
# Youngs Moduli (GPa) = 97.38468 78.50358 77.11235
#
# Poissons Ratio (x) = 0.22658 -0.02856
# Poissons Ratio (y) = 0.28107 0.41740
# Poissons Ratio (z) = -0.03606 0.42493
#
# Static dielectric constant tensor:
#      x y z
#    x 1.795030 0.000000 0.000000 
#    y 0.000000 1.739140 0.000000 
#    z 0.000000 0.000000 1.765920 
# 
# From -- ./inp_files/37888.got.cif
#   From: 2010.05.17/outbox.cif.g08.bks.cpg/sg68_19_cif.got.tgz:37888.got - 2010.06.03 18:57:09.
