data_PCOD9507893
_publ_section_title
;
Structure prediction by ZEFSAII (Michael W. Deem and Ramdas Pophale) SiO2 
 PCOD9507893
Probable space group: C C C A
;
_chemical_formula_sum "Si O2"
_cell_formula_units_Z 120
_cell_length_a 8.698906
_cell_length_b 24.174157
_cell_length_c 27.125760
_cell_angle_alpha 90.000000
_cell_angle_beta 90.000000
_cell_angle_gamma 90.000000
_cell_volume 5704.241332
_symmetry_space_group_name_H-M "C C C A"
_symmetry_group_IT_number 68
_space_group.IT_coordinate_system_code '2'
_symmetry_cell_setting 'orthorhombic'
loop_
_space_group_symop_operation_xyz
x,y,z
-x,1/2-y,z
x,1/2-y,1/2-z
-x,y,1/2-z
-x,-y,-z
x,1/2+y,-z
-x,1/2+y,1/2+z
x,-y,1/2+z
1/2+x,1/2+y,z
1/2-x,-y,z
1/2+x,-y,1/2-z
1/2-x,1/2+y,1/2-z
1/2-x,1/2-y,-z
1/2+x,y,-z
1/2-x,y,1/2+z
1/2+x,1/2-y,1/2+z
loop_
_atom_site_type_symbol
_atom_site_label
_atom_site_fract_x
_atom_site_fract_y
_atom_site_fract_z
Si Si1 0.546710 0.053675 0.144477
Si Si2 0.000000 0.250000 0.108796
Si Si3 0.289222 0.937209 0.711080
Si Si4 0.558893 0.428644 0.629304
Si Si5 0.047706 0.860255 0.955622
Si Si6 0.799385 0.384555 0.308954
Si Si7 0.836165 0.223833 0.644636
Si Si8 0.097095 0.860209 0.438413
O O1 0.465471 0.069375 0.196610
O O2 0.720243 0.066009 0.160106
O O3 0.523493 0.094878 0.098566
O O4 0.501077 0.991496 0.132210
O O5 0.980434 0.196513 0.074097
O O6 0.831661 0.254470 0.137075
O O7 0.220869 0.929861 0.656272
O O8 0.213860 0.898590 0.751799
O O9 0.250000 0.000000 0.726641
O O10 0.548656 0.405845 0.574523
O O11 0.464301 0.386780 0.665239
O O12 0.226879 0.876212 0.950979
O O13 0.996973 0.854490 0.011700
O O14 0.711898 0.328210 0.321461
O O15 0.884042 0.196451 0.592254
O O16 0.000000 0.250000 0.662240
#
# Coordination Sequence:
#
# PCOD9507893 Si02
#       8
#    16   8  16  16  16  16  16  16
#     4  10  21  39  61  91 136 166 205 265 322 387
#     4  10  22  44  64  95 134 168 223 284 328 388
#     4  10  22  36  65 100 128 173 219 262 319 394
#     4  11  21  39  62  93 131 171 208 261 321 395
#     4  11  24  39  64  91 125 170 220 268 333 386
#     4  11  20  40  62  97 124 165 219 265 327 383
#     4  10  23  42  69  98 130 173 223 278 338 391
#     4  10  24  40  60  99 121 168 218 265 335 393
#
# _framework density 21.036978000000001
#
# number of rings (size 3 to 8) (size 9 to 14) (size 15 to 20)
#    0.000    1.600    4.000    2.000    4.667    4.800 
#    0.000    0.000    0.000   16.000    0.000    0.000 
#    0.000    0.000    0.000    0.000    0.000    0.000 
#
# Total GULP energy -334349.143462 kJ/mol
# GULP energy per Si atom -5572.485724 kJ/mol
# Density = 2.098910 g / cm^3
# Si number density = 21.036978 Si / 1000 Ang^3
#
#
#
# Elastic Constant Matrix: (Units=GPa)
#
#
# Indices 1 2 3 4 5 6 
#
# 1 80.5918 37.1197 33.7478 0.0000 0.0000 0.0000
# 2 37.1197 66.6145 29.4539 0.0000 0.0000 0.0000
# 3 33.7478 29.4539 65.1017 0.0000 0.0000 0.0000
# 4 0.0000 0.0000 0.0000 11.9255 0.0000 0.0000
# 5 0.0000 0.0000 0.0000 0.0000 24.6386 0.0000
# 6 0.0000 0.0000 0.0000 0.0000 0.0000 23.5736
#
#
#
# Elastic Compliance Matrix: (Units=1/GPa)
#
#
# Indices 1 2 3 4 5 6 
#
# 1 0.018472 -0.007574 -0.006149 0.000000 0.000000 0.000000
# 2 -0.007574 0.021872 -0.005969 0.000000 0.000000 0.000000
# 3 -0.006149 -0.005969 0.021248 0.000000 0.000000 0.000000
# 4 0.000000 0.000000 0.000000 0.083854 0.000000 0.000000
# 5 0.000000 0.000000 0.000000 0.000000 0.040587 0.000000
# 6 0.000000 0.000000 0.000000 0.000000 0.000000 0.042420
#
#
# Mechanical properties :
#
#
# Convention : Reuss Voigt Hill
#
# Bulk Modulus (GPa) = 45.02888 45.88343 45.45615
# Shear Modulus (GPa) = 18.16606 19.49333 18.82969
#
# Velocity S-wave (km/s) = 2.94178 3.04735 2.99503
# Velocity P-wave (km/s) = 5.74368 5.85149 5.79784
#
# Compressibility (1/GPa) = 0.02220797
#
# Stress axis : x y z
#
# Youngs Moduli (GPa) = 54.13729 45.72151 47.06233
#
# Poissons Ratio (x) = 0.34631 0.28937
# Poissons Ratio (y) = 0.41005 0.28091
# Poissons Ratio (z) = 0.33287 0.27291
#
# Static dielectric constant tensor:
#      x y z
#    x 1.824980 0.000000 0.000000 
#    y 0.000000 1.754680 0.000000 
#    z 0.000000 0.000000 1.726670 
# 
# From -- ./inp_files/49726.got.cif
#   From: 2010.05.17/outbox.cif.g08.bks.cpg/sg68_25_cif.got.tgz:49726.got - 2010.06.03 18:57:09.
