data_PCOD9507768
_publ_section_title
;
Structure prediction by ZEFSAII (Michael W. Deem and Ramdas Pophale) SiO2 
 PCOD9507768
Probable space group: C C C A
;
_chemical_formula_sum "Si O2"
_cell_formula_units_Z 112
_cell_length_a 14.847185
_cell_length_b 24.915118
_cell_length_c 14.701896
_cell_angle_alpha 90.000000
_cell_angle_beta 90.000000
_cell_angle_gamma 90.000000
_cell_volume 5438.516051
_symmetry_space_group_name_H-M "C C C A"
_symmetry_group_IT_number 68
_space_group.IT_coordinate_system_code '2'
_symmetry_cell_setting 'orthorhombic'
loop_
_space_group_symop_operation_xyz
x,y,z
-x,1/2-y,z
x,1/2-y,1/2-z
-x,y,1/2-z
-x,-y,-z
x,1/2+y,-z
-x,1/2+y,1/2+z
x,-y,1/2+z
1/2+x,1/2+y,z
1/2-x,-y,z
1/2+x,-y,1/2-z
1/2-x,1/2+y,1/2-z
1/2-x,1/2-y,-z
1/2+x,y,-z
1/2-x,y,1/2+z
1/2+x,1/2-y,1/2+z
loop_
_atom_site_type_symbol
_atom_site_label
_atom_site_fract_x
_atom_site_fract_y
_atom_site_fract_z
Si Si1 0.901243 0.733733 0.097705
Si Si2 0.656928 0.528848 0.447974
Si Si3 0.859946 0.340216 0.016963
Si Si4 0.774729 0.199706 0.297030
Si Si5 0.557433 0.947951 0.671967
Si Si6 0.765412 0.107260 0.656811
Si Si7 0.543212 0.880577 0.960614
O O1 0.820374 0.723298 0.166728
O O2 0.000000 0.750000 0.135941
O O3 0.876868 0.782595 0.030872
O O4 0.910949 0.677209 0.045515
O O5 0.750000 0.500000 0.480534
O O6 0.585422 0.485422 0.412401
O O7 0.688380 0.564112 0.361565
O O8 0.609597 0.571629 0.512741
O O9 0.819003 0.328044 0.115040
O O10 0.954833 0.371832 0.023085
O O11 0.799087 0.372327 0.943106
O O12 0.824993 0.250000 0.250000
O O13 0.761624 0.156274 0.218720
O O14 0.500000 0.975849 0.750000
O O15 0.651701 0.923442 0.703702
O O16 0.498874 0.897983 0.635852
#
# Coordination Sequence:
#
# PCOD9507768 Si02
#       7
#    16  16  16  16  16  16  16
#     4  10  21  38  61  91 124 163 203 258 308 369
#     4  10  22  40  62  86 119 159 203 260 314 361
#     4  10  22  40  58  90 127 163 202 250 308 376
#     4  12  23  35  61  89 125 166 205 250 310 379
#     4  10  21  39  60  88 119 151 205 265 308 362
#     4  10  22  40  59  89 123 162 202 252 310 370
#     4  10  21  39  66  84 119 162 209 252 311 379
#
# _framework density 20.593851999999998
#
# number of rings (size 3 to 8) (size 9 to 14) (size 15 to 20)
#    0.000    1.714    1.429    2.571    2.000    1.429 
#    0.000    3.571    0.000    0.000    0.000    0.000 
#    0.000    0.000    0.000    0.000    0.000    0.000 
#
# Total GULP energy -312468.558479 kJ/mol
# GULP energy per Si atom -5579.795687 kJ/mol
# Density = 2.054698 g / cm^3
# Si number density = 20.593852 Si / 1000 Ang^3
#
#
#
# Elastic Constant Matrix: (Units=GPa)
#
#
# Indices 1 2 3 4 5 6 
#
# 1 55.2843 13.2797 29.0801 0.0000 0.0000 0.0000
# 2 13.2797 99.4123 10.3584 0.0000 0.0000 0.0000
# 3 29.0801 10.3584 63.3479 0.0000 0.0000 0.0000
# 4 0.0000 0.0000 0.0000 30.0295 0.0000 0.0000
# 5 0.0000 0.0000 0.0000 0.0000 13.0025 0.0000
# 6 0.0000 0.0000 0.0000 0.0000 0.0000 14.2671
#
#
#
# Elastic Compliance Matrix: (Units=1/GPa)
#
#
# Indices 1 2 3 4 5 6 
#
# 1 0.024277 -0.002118 -0.010798 0.000000 0.000000 0.000000
# 2 -0.002118 0.010418 -0.000731 0.000000 0.000000 0.000000
# 3 -0.010798 -0.000731 0.020862 0.000000 0.000000 0.000000
# 4 0.000000 0.000000 0.000000 0.033301 0.000000 0.000000
# 5 0.000000 0.000000 0.000000 0.000000 0.076908 0.000000
# 6 0.000000 0.000000 0.000000 0.000000 0.000000 0.070091
#
#
# Mechanical properties :
#
#
# Convention : Reuss Voigt Hill
#
# Bulk Modulus (GPa) = 35.38207 35.94233 35.66220
# Shear Modulus (GPa) = 18.34369 22.48158 20.41263
#
# Velocity S-wave (km/s) = 2.98776 3.30762 3.15175
# Velocity P-wave (km/s) = 5.39634 5.66374 5.53165
#
# Compressibility (1/GPa) = 0.02826290
#
# Stress axis : x y z
#
# Youngs Moduli (GPa) = 41.19131 95.98563 47.93319
#
# Poissons Ratio (x) = 0.20328 0.51759
# Poissons Ratio (y) = 0.08724 0.03506
# Poissons Ratio (z) = 0.44479 0.07020
#
# Static dielectric constant tensor:
#      x y z
#    x 1.779530 0.000000 0.000000 
#    y 0.000000 1.755520 0.000000 
#    z 0.000000 0.000000 1.763410 
# 
# From -- ./inp_files/22625.got.cif
#   From: 2010.05.17/outbox.cif.g08.bks.cpg/sg68_12_cif.got.tgz:22625.got - 2010.06.03 18:57:09.
