data_PCOD9507853
_publ_section_title
;
Structure prediction by ZEFSAII (Michael W. Deem and Ramdas Pophale) SiO2 
 PCOD9507853
Probable space group: C C C A
;
_chemical_formula_sum "Si O2"
_cell_formula_units_Z 96
_cell_length_a 25.767898
_cell_length_b 13.136164
_cell_length_c 12.480208
_cell_angle_alpha 90.000000
_cell_angle_beta 90.000000
_cell_angle_gamma 90.000000
_cell_volume 4224.442255
_symmetry_space_group_name_H-M "C C C A"
_symmetry_group_IT_number 68
_space_group.IT_coordinate_system_code '2'
_symmetry_cell_setting 'orthorhombic'
loop_
_space_group_symop_operation_xyz
x,y,z
-x,1/2-y,z
x,1/2-y,1/2-z
-x,y,1/2-z
-x,-y,-z
x,1/2+y,-z
-x,1/2+y,1/2+z
x,-y,1/2+z
1/2+x,1/2+y,z
1/2-x,-y,z
1/2+x,-y,1/2-z
1/2-x,1/2+y,1/2-z
1/2-x,1/2-y,-z
1/2+x,y,-z
1/2-x,y,1/2+z
1/2+x,1/2-y,1/2+z
loop_
_atom_site_type_symbol
_atom_site_label
_atom_site_fract_x
_atom_site_fract_y
_atom_site_fract_z
Si Si1 0.290819 0.412765 0.673956
Si Si2 0.707475 0.750000 0.750000
Si Si3 0.500000 0.486569 0.750000
Si Si4 0.310835 0.268606 0.487199
Si Si5 0.055226 0.194073 0.373613
Si Si6 0.551645 0.950417 0.945121
Si Si7 0.131516 0.116291 0.128543
O O1 0.250000 0.500000 0.639695
O O2 0.248192 0.339081 0.726771
O O3 0.318655 0.362651 0.570252
O O4 0.335007 0.422278 0.768228
O O5 0.677329 0.723674 0.639631
O O6 0.458136 0.408247 0.695629
O O7 0.468718 0.560925 0.826117
O O8 0.250000 0.250000 0.500000
O O9 0.333168 0.166092 0.537841
O O10 0.094798 0.285108 0.346792
O O11 0.000000 0.250000 0.377124
O O12 0.067477 0.148489 0.490089
O O13 0.597296 0.031067 0.929179
O O14 0.500000 0.000000 0.000000
#
# Coordination Sequence:
#
# PCOD9507853 Si02
#       7
#    16   8   8  16  16  16  16
#     4  11  24  42  73 111 146 192 257 320 374 448
#     4  10  22  50  68  94 156 192 240 314 384 446
#     4  10  21  38  73 100 148 182 247 306 371 448
#     4  10  22  45  69  98 145 190 248 308 370 456
#     4  11  23  41  73 104 148 196 245 312 373 460
#     4  10  23  43  65 113 146 184 252 318 367 452
#     4  12  23  43  78 106 147 201 257 304 393 460
#
# _framework density 22.724893999999999
#
# number of rings (size 3 to 8) (size 9 to 14) (size 15 to 20)
#    0.000    1.333    6.667    0.250    4.667    2.000 
#    6.000    3.750    0.000    0.000    0.000    0.000 
#    0.000    0.000    0.000    0.000    0.000    0.000 
#
# Total GULP energy -267397.357811 kJ/mol
# GULP energy per Si atom -5570.778288 kJ/mol
# Density = 2.267317 g / cm^3
# Si number density = 22.724894 Si / 1000 Ang^3
#
#
#
# Elastic Constant Matrix: (Units=GPa)
#
#
# Indices 1 2 3 4 5 6 
#
# 1 96.8220 12.2508 35.9099 0.0000 0.0000 0.0000
# 2 12.2508 43.2231 37.4856 0.0000 0.0000 0.0000
# 3 35.9099 37.4856 155.1343 0.0000 0.0000 0.0000
# 4 0.0000 0.0000 0.0000 33.8393 0.0000 0.0000
# 5 0.0000 0.0000 0.0000 0.0000 26.2085 0.0000
# 6 0.0000 0.0000 0.0000 0.0000 0.0000 -6.2095
#
#
#
# Elastic Compliance Matrix: (Units=1/GPa)
#
#
# Indices 1 2 3 4 5 6 
#
# 1 0.011346 -0.001187 -0.002340 0.000000 0.000000 0.000000
# 2 -0.001187 0.029394 -0.006828 0.000000 0.000000 0.000000
# 3 -0.002340 -0.006828 0.008637 0.000000 0.000000 0.000000
# 4 0.000000 0.000000 0.000000 0.029551 0.000000 0.000000
# 5 0.000000 0.000000 0.000000 0.000000 0.038156 0.000000
# 6 0.000000 0.000000 0.000000 0.000000 0.000000 -0.161043
#
#
# Mechanical properties :
#
#
# Convention : Reuss Voigt Hill
#
# Bulk Modulus (GPa) = 34.88115 51.83023 43.35569
# Shear Modulus (GPa) = -365.11030 24.73652 -170.18689
#
# Velocity S-wave (km/s) = -12.68913 3.30285 -8.66329
# Velocity P-wave (km/s) = 14.11747 6.11574 8.99724
#
# Compressibility (1/GPa) = 0.02866878
#
# Stress axis : x y z
#
# Youngs Moduli (GPa) = 88.13586 34.02103 115.77563
#
# Poissons Ratio (x) = 0.04038 0.27087
# Poissons Ratio (y) = 0.10460 0.79049
# Poissons Ratio (z) = 0.20620 0.23229
#
# Static dielectric constant tensor:
#      x y z
#    x 1.538280 0.000000 0.000000 
#    y 0.000000 1.422980 0.000000 
#    z 0.000000 0.000000 2.049230 
# 
# From -- ./inp_files/17733.got.cif
#   From: 2010.05.17/outbox.cif.g08.bks.cpg/sg68_9_cif.got.tgz:17733.got - 2010.06.03 18:57:09.
