data_PCOD9507153
_publ_section_title
;
Structure prediction by ZEFSAII (Michael W. Deem and Ramdas Pophale) SiO2 
 PCOD9507153
Probable space group: C C C A
;
_chemical_formula_sum "Si O2"
_cell_formula_units_Z 96
_cell_length_a 20.242357
_cell_length_b 9.562663
_cell_length_c 22.450167
_cell_angle_alpha 90.000000
_cell_angle_beta 90.000000
_cell_angle_gamma 90.000000
_cell_volume 4345.697647
_symmetry_space_group_name_H-M "C C C A"
_symmetry_group_IT_number 68
_space_group.IT_coordinate_system_code '2'
_symmetry_cell_setting 'orthorhombic'
loop_
_space_group_symop_operation_xyz
x,y,z
-x,1/2-y,z
x,1/2-y,1/2-z
-x,y,1/2-z
-x,-y,-z
x,1/2+y,-z
-x,1/2+y,1/2+z
x,-y,1/2+z
1/2+x,1/2+y,z
1/2-x,-y,z
1/2+x,-y,1/2-z
1/2-x,1/2+y,1/2-z
1/2-x,1/2-y,-z
1/2+x,y,-z
1/2-x,y,1/2+z
1/2+x,1/2-y,1/2+z
loop_
_atom_site_type_symbol
_atom_site_label
_atom_site_fract_x
_atom_site_fract_y
_atom_site_fract_z
Si Si1 0.034752 0.973063 0.313235
Si Si2 0.652161 0.703846 0.314215
Si Si3 0.183680 0.955986 0.923804
Si Si4 0.609513 0.267373 0.388269
Si Si5 0.924632 0.256045 0.022369
Si Si6 0.096196 0.966495 0.616110
O O1 0.067240 0.828353 0.334139
O O2 0.000000 0.964259 0.250000
O O3 0.979230 0.007261 0.362886
O O4 0.090667 0.094216 0.309198
O O5 0.679112 0.750000 0.250000
O O6 0.699072 0.632435 0.363429
O O7 0.623827 0.844736 0.342715
O O8 0.126245 0.863043 0.954646
O O9 0.250000 0.000000 0.958727
O O10 0.156809 0.105080 0.903248
O O11 0.572730 0.249608 0.451497
O O12 0.634131 0.112008 0.375292
O O13 0.899786 0.403019 0.049737
O O14 0.000000 0.250000 0.045200
#
# Coordination Sequence:
#
# PCOD9507153 Si02
#       6
#    16  16  16  16  16  16
#     4  11  21  35  58  90 134 170 209 272 340 412
#     4  10  20  39  61  86 118 171 226 261 334 414
#     4  10  24  45  65  91 130 176 228 280 340 414
#     4  11  24  38  59  96 133 166 222 282 338 388
#     4  11  22  41  67  95 135 181 218 267 343 419
#     4  11  21  34  59  92 128 168 213 267 328 399
#
# _framework density 22.090814000000002
#
# number of rings (size 3 to 8) (size 9 to 14) (size 15 to 20)
#    0.000    1.333    1.667    6.000    0.000    4.000 
#    0.000    5.000    0.000    0.000    0.000    0.000 
#    0.000    0.000    0.000    0.000    0.000    0.000 
#
# Total GULP energy -267865.568208 kJ/mol
# GULP energy per Si atom -5580.532671 kJ/mol
# Density = 2.204053 g / cm^3
# Si number density = 22.090814 Si / 1000 Ang^3
#
#
#
# Elastic Constant Matrix: (Units=GPa)
#
#
# Indices 1 2 3 4 5 6 
#
# 1 78.3293 37.3165 8.4594 0.0000 0.0000 0.0000
# 2 37.3165 184.4898 34.0489 0.0000 0.0000 0.0000
# 3 8.4594 34.0489 94.7335 0.0000 0.0000 0.0000
# 4 0.0000 0.0000 0.0000 27.5432 0.0000 0.0000
# 5 0.0000 0.0000 0.0000 0.0000 4.8922 0.0000
# 6 0.0000 0.0000 0.0000 0.0000 0.0000 18.3238
#
#
#
# Elastic Compliance Matrix: (Units=1/GPa)
#
#
# Indices 1 2 3 4 5 6 
#
# 1 0.014134 -0.002812 -0.000251 0.000000 0.000000 0.000000
# 2 -0.002812 0.006365 -0.002037 0.000000 0.000000 0.000000
# 3 -0.000251 -0.002037 0.011310 0.000000 0.000000 0.000000
# 4 0.000000 0.000000 0.000000 0.036307 0.000000 0.000000
# 5 0.000000 0.000000 0.000000 0.000000 0.204409 0.000000
# 6 0.000000 0.000000 0.000000 0.000000 0.000000 0.054574
#
#
# Mechanical properties :
#
#
# Convention : Reuss Voigt Hill
#
# Bulk Modulus (GPa) = 46.27801 57.46691 51.87246
# Shear Modulus (GPa) = 14.51373 28.66702 21.59038
#
# Velocity S-wave (km/s) = 2.56599 3.60625 3.12965
# Velocity P-wave (km/s) = 5.45651 6.58866 6.04913
#
# Compressibility (1/GPa) = 0.02160853
#
# Stress axis : x y z
#
# Youngs Moduli (GPa) = 70.75342 157.10710 88.41456
#
# Poissons Ratio (x) = 0.44185 0.02221
# Poissons Ratio (y) = 0.19899 0.18006
# Poissons Ratio (z) = 0.01778 0.31996
#
# Static dielectric constant tensor:
#      x y z
#    x 1.886880 0.000000 0.000000 
#    y 0.000000 1.819500 0.000000 
#    z 0.000000 0.000000 1.841250 
# 
# From -- ./inp_files/46941.got.cif
#   From: 2010.05.17/outbox.cif.g08.bks.cpg/sg68_24_cif.got.tgz:46941.got - 2010.06.03 18:57:09.
