data_PCOD9507229
_publ_section_title
;
Structure prediction by ZEFSAII (Michael W. Deem and Ramdas Pophale) SiO2 
 PCOD9507229
Probable space group: C C C A
;
_chemical_formula_sum "Si O2"
_cell_formula_units_Z 92
_cell_length_a 23.045421
_cell_length_b 21.987908
_cell_length_c 9.218202
_cell_angle_alpha 90.000000
_cell_angle_beta 90.000000
_cell_angle_gamma 90.000000
_cell_volume 4671.052819
_symmetry_space_group_name_H-M "C C C A"
_symmetry_group_IT_number 68
_space_group.IT_coordinate_system_code '2'
_symmetry_cell_setting 'orthorhombic'
loop_
_space_group_symop_operation_xyz
x,y,z
-x,1/2-y,z
x,1/2-y,1/2-z
-x,y,1/2-z
-x,-y,-z
x,1/2+y,-z
-x,1/2+y,1/2+z
x,-y,1/2+z
1/2+x,1/2+y,z
1/2-x,-y,z
1/2+x,-y,1/2-z
1/2-x,1/2+y,1/2-z
1/2-x,1/2-y,-z
1/2+x,y,-z
1/2-x,y,1/2+z
1/2+x,1/2-y,1/2+z
loop_
_atom_site_type_symbol
_atom_site_label
_atom_site_fract_x
_atom_site_fract_y
_atom_site_fract_z
Si Si1 0.908244 0.198996 0.035021
Si Si2 0.229582 0.645942 0.248649
Si Si3 0.000000 0.501879 0.750000
Si Si4 0.000000 0.750000 0.750000
Si Si5 0.865538 0.250000 0.750000
Si Si6 0.290766 0.441375 0.511995
Si Si7 0.813393 0.750000 0.750000
Si Si8 0.577986 0.057772 0.498931
O O1 0.960343 0.211199 0.144047
O O2 0.851880 0.219206 0.126054
O O3 0.904945 0.237174 0.888768
O O4 0.911541 0.129384 0.992252
O O5 0.175408 0.691097 0.215071
O O6 0.263815 0.607556 0.125794
O O7 0.210048 0.595443 0.362012
O O8 0.274603 0.695540 0.313552
O O9 0.954511 0.464968 0.647206
O O10 0.037260 0.540446 0.634694
O O11 0.250000 0.500000 0.508620
O O12 0.356660 0.465303 0.531882
#
# Coordination Sequence:
#
# PCOD9507229 Si02
#       8
#    16  16   8   4   8  16   8  16
#     4  11  22  42  64  99 127 173 219 283 329 399
#     4  11  22  42  61 102 132 175 211 264 348 419
#     4  10  27  46  72  88 130 192 231 288 328 394
#     4  10  26  40  64  92 132 168 230 270 344 386
#     4  11  22  38  70  96 136 170 218 271 346 408
#     4  12  26  39  67 100 139 171 220 281 341 408
#     4  10  20  39  70  90 138 175 210 260 344 424
#     4  11  24  48  67  96 131 175 237 278 337 400
#
# _framework density 19.695772999999999
#
# number of rings (size 3 to 8) (size 9 to 14) (size 15 to 20)
#    0.000    1.043    3.478    2.087    4.870    4.522 
#    0.000    1.739    0.000    0.000    0.000    0.000 
#    0.000    0.000    0.000    0.000    0.000    0.000 
#
# Total GULP energy -256601.103985 kJ/mol
# GULP energy per Si atom -5578.284869 kJ/mol
# Density = 1.965094 g / cm^3
# Si number density = 19.695773 Si / 1000 Ang^3
#
#
#
# Elastic Constant Matrix: (Units=GPa)
#
#
# Indices 1 2 3 4 5 6 
#
# 1 116.8506 47.2359 47.4947 0.0000 0.0000 0.0000
# 2 47.2359 112.8158 33.4436 0.0000 0.0000 0.0000
# 3 47.4947 33.4436 117.5404 0.0000 0.0000 0.0000
# 4 0.0000 0.0000 0.0000 22.9025 0.0000 0.0000
# 5 0.0000 0.0000 0.0000 0.0000 49.9609 0.0000
# 6 0.0000 0.0000 0.0000 0.0000 0.0000 134.2674
#
#
#
# Elastic Compliance Matrix: (Units=1/GPa)
#
#
# Indices 1 2 3 4 5 6 
#
# 1 0.011541 -0.003767 -0.003591 0.000000 0.000000 0.000000
# 2 -0.003767 0.010910 -0.001582 0.000000 0.000000 0.000000
# 3 -0.003591 -0.001582 0.010409 0.000000 0.000000 0.000000
# 4 0.000000 0.000000 0.000000 0.043663 0.000000 0.000000
# 5 0.000000 0.000000 0.000000 0.000000 0.020016 0.000000
# 6 0.000000 0.000000 0.000000 0.000000 0.000000 0.007448
#
#
# Mechanical properties :
#
#
# Convention : Reuss Voigt Hill
#
# Bulk Modulus (GPa) = 66.76224 67.06170 66.91197
# Shear Modulus (GPa) = 39.41322 56.02834 47.72078
#
# Velocity S-wave (km/s) = 4.47822 5.33935 4.92763
# Velocity P-wave (km/s) = 7.79164 8.49319 8.14996
#
# Compressibility (1/GPa) = 0.01497853
#
# Stress axis : x y z
#
# Youngs Moduli (GPa) = 86.65070 91.65567 96.07087
#
# Poissons Ratio (x) = 0.34531 0.34502
# Poissons Ratio (y) = 0.32645 0.15199
# Poissons Ratio (z) = 0.31119 0.14500
#
# Static dielectric constant tensor:
#      x y z
#    x 1.754150 0.000000 0.000000 
#    y 0.000000 1.666100 0.000000 
#    z 0.000000 0.000000 1.689370 
# 
# From -- ./inp_files/7196.got.cif
#   From: 2010.05.17/outbox.cif.g08.bks.cpg/sg68_4_cif.got.tgz:7196.got - 2010.06.03 18:57:09.
