data_PCOD9507398
_publ_section_title
;
Structure prediction by ZEFSAII (Michael W. Deem and Ramdas Pophale) SiO2 
 PCOD9507398
Probable space group: C C C A
;
_chemical_formula_sum "Si O2"
_cell_formula_units_Z 112
_cell_length_a 15.801654
_cell_length_b 13.641306
_cell_length_c 23.348383
_cell_angle_alpha 90.000000
_cell_angle_beta 90.000000
_cell_angle_gamma 90.000000
_cell_volume 5032.865309
_symmetry_space_group_name_H-M "C C C A"
_symmetry_group_IT_number 68
_space_group.IT_coordinate_system_code '2'
_symmetry_cell_setting 'orthorhombic'
loop_
_space_group_symop_operation_xyz
x,y,z
-x,1/2-y,z
x,1/2-y,1/2-z
-x,y,1/2-z
-x,-y,-z
x,1/2+y,-z
-x,1/2+y,1/2+z
x,-y,1/2+z
1/2+x,1/2+y,z
1/2-x,-y,z
1/2+x,-y,1/2-z
1/2-x,1/2+y,1/2-z
1/2-x,1/2-y,-z
1/2+x,y,-z
1/2-x,y,1/2+z
1/2+x,1/2-y,1/2+z
loop_
_atom_site_type_symbol
_atom_site_label
_atom_site_fract_x
_atom_site_fract_y
_atom_site_fract_z
Si Si1 0.852073 0.222174 0.439747
Si Si2 0.452193 0.973810 0.060377
Si Si3 0.599045 0.229705 0.342745
Si Si4 0.692184 0.907360 0.277085
Si Si5 0.044459 0.524416 0.312286
Si Si6 0.833203 0.646659 0.041802
Si Si7 0.732472 0.303190 0.827872
O O1 0.924819 0.140123 0.433907
O O2 0.873167 0.304542 0.486042
O O3 0.767530 0.162189 0.459689
O O4 0.817278 0.285638 0.386423
O O5 0.492142 0.011954 0.122000
O O6 0.366182 0.038396 0.054429
O O7 0.500000 0.000000 0.000000
O O8 0.500000 0.250000 0.338463
O O9 0.601255 0.123097 0.313564
O O10 0.630054 0.211450 0.406737
O O11 0.664978 0.313767 0.324011
O O12 0.689136 0.886831 0.209451
O O13 0.724472 0.805633 0.301612
O O14 0.750000 0.000000 0.289560
O O15 0.603126 0.929744 0.305341
O O16 0.000000 0.530798 0.250000
#
# Coordination Sequence:
#
# PCOD9507398 Si02
#       7
#    16  16  16  16  16  16  16
#     4  10  20  42  67  93 129 169 223 277 326 402
#     4  11  24  41  68  95 128 175 222 270 335 402
#     4  10  22  38  64  96 131 165 214 284 342 392
#     4  11  22  41  64  95 129 173 223 272 329 422
#     4  11  25  42  63  96 135 171 216 278 344 399
#     4   9  22  39  63  96 123 171 218 270 329 395
#     4  10  22  40  68  96 126 177 225 269 343 404
#
# _framework density 22.253726
#
# number of rings (size 3 to 8) (size 9 to 14) (size 15 to 20)
#    0.000    1.714    2.857    0.429    6.000    1.429 
#    0.000    5.714    0.000    0.000    0.000    0.000 
#    0.000    0.000    0.000    0.000    0.000    0.000 
#
# Total GULP energy -311746.571355 kJ/mol
# GULP energy per Si atom -5566.903060 kJ/mol
# Density = 2.220308 g / cm^3
# Si number density = 22.253726 Si / 1000 Ang^3
#
#
#
# Elastic Constant Matrix: (Units=GPa)
#
#
# Indices 1 2 3 4 5 6 
#
# 1 45.8795 5.1194 33.5922 0.0000 0.0000 0.0000
# 2 5.1194 24.4709 10.4246 0.0000 0.0000 0.0000
# 3 33.5922 10.4246 138.4783 0.0000 0.0000 0.0000
# 4 0.0000 0.0000 0.0000 22.3493 0.0000 0.0000
# 5 0.0000 0.0000 0.0000 0.0000 24.8635 0.0000
# 6 0.0000 0.0000 0.0000 0.0000 0.0000 22.6038
#
#
#
# Elastic Compliance Matrix: (Units=1/GPa)
#
#
# Indices 1 2 3 4 5 6 
#
# 1 0.026704 -0.002921 -0.006258 0.000000 0.000000 0.000000
# 2 -0.002921 0.042538 -0.002494 0.000000 0.000000 0.000000
# 3 -0.006258 -0.002494 0.008927 0.000000 0.000000 0.000000
# 4 0.000000 0.000000 0.000000 0.044744 0.000000 0.000000
# 5 0.000000 0.000000 0.000000 0.000000 0.040220 0.000000
# 6 0.000000 0.000000 0.000000 0.000000 0.000000 0.044240
#
#
# Mechanical properties :
#
#
# Convention : Reuss Voigt Hill
#
# Bulk Modulus (GPa) = 18.23998 34.12235 26.18117
# Shear Modulus (GPa) = 20.08084 24.60948 22.34516
#
# Velocity S-wave (km/s) = 3.00719 3.32905 3.17221
# Velocity P-wave (km/s) = 4.50241 5.49030 5.02071
#
# Compressibility (1/GPa) = 0.05482461
#
# Stress axis : x y z
#
# Youngs Moduli (GPa) = 37.44735 23.50825 112.01766
#
# Poissons Ratio (x) = 0.06866 0.70101
# Poissons Ratio (y) = 0.10937 0.27935
# Poissons Ratio (z) = 0.23435 0.05862
#
# Static dielectric constant tensor:
#      x y z
#    x 1.921360 0.000000 0.000000 
#    y 0.000000 1.833090 0.000000 
#    z 0.000000 0.000000 1.988640 
# 
# From -- ./inp_files/45540.got.cif
#   From: 2010.05.17/outbox.cif.g08.bks.cpg/sg68_23_cif.got.tgz:45540.got - 2010.06.03 18:57:09.
