data_PCOD9507016
_publ_section_title
;
Structure prediction by ZEFSAII (Michael W. Deem and Ramdas Pophale) SiO2 
 PCOD9507016
Probable space group: C C C A
;
_chemical_formula_sum "Si O2"
_cell_formula_units_Z 104
_cell_length_a 23.053021
_cell_length_b 14.225742
_cell_length_c 14.045945
_cell_angle_alpha 90.000000
_cell_angle_beta 90.000000
_cell_angle_gamma 90.000000
_cell_volume 4606.316101
_symmetry_space_group_name_H-M "C C C A"
_symmetry_group_IT_number 68
_space_group.IT_coordinate_system_code '2'
_symmetry_cell_setting 'orthorhombic'
loop_
_space_group_symop_operation_xyz
x,y,z
-x,1/2-y,z
x,1/2-y,1/2-z
-x,y,1/2-z
-x,-y,-z
x,1/2+y,-z
-x,1/2+y,1/2+z
x,-y,1/2+z
1/2+x,1/2+y,z
1/2-x,-y,z
1/2+x,-y,1/2-z
1/2-x,1/2+y,1/2-z
1/2-x,1/2-y,-z
1/2+x,y,-z
1/2-x,y,1/2+z
1/2+x,1/2-y,1/2+z
loop_
_atom_site_type_symbol
_atom_site_label
_atom_site_fract_x
_atom_site_fract_y
_atom_site_fract_z
Si Si1 0.500000 0.250000 0.931235
Si Si2 0.957873 0.550548 0.617423
Si Si3 0.308533 0.320104 0.817671
Si Si4 0.781626 0.404692 0.560032
Si Si5 0.919381 0.023711 0.591776
Si Si6 0.118378 0.314357 0.063341
Si Si7 0.352900 0.515843 0.761226
O O1 0.483244 0.344273 0.873426
O O2 0.440375 0.224918 0.986583
O O3 0.919462 0.549880 0.519736
O O4 0.915156 0.514975 0.697253
O O5 0.011585 0.477600 0.612041
O O6 0.274358 0.250000 0.750000
O O7 0.272799 0.343680 0.910219
O O8 0.363318 0.260404 0.856070
O O9 0.319666 0.415605 0.759633
O O10 0.750000 0.500000 0.521079
O O11 0.826264 0.346275 0.497066
O O12 0.816817 0.429705 0.657669
O O13 0.902023 0.914758 0.601813
O O14 0.871798 0.067740 0.663388
#
# Coordination Sequence:
#
# PCOD9507016 Si02
#       7
#     8  16  16  16  16  16  16
#     4  10  22  36  67  95 124 160 192 272 319 381
#     4  10  20  38  59  93 127 157 206 249 316 380
#     4  11  22  40  60  91 125 160 213 272 313 369
#     4  10  24  42  62  86 127 176 213 261 313 385
#     4  10  21  35  63  91 123 166 200 253 312 381
#     4  11  20  41  63  92 125 161 209 259 326 376
#     4  11  20  40  62  90 124 163 210 257 313 374
#
# _framework density 22.577694000000001
#
# number of rings (size 3 to 8) (size 9 to 14) (size 15 to 20)
#    0.000    1.538    4.615    0.923    0.000    0.000 
#    5.538    1.154    0.000    0.923    0.000    0.000 
#    0.000    0.000    0.000    0.000    0.000    0.000 
#
# Total GULP energy -289548.494921 kJ/mol
# GULP energy per Si atom -5568.240287 kJ/mol
# Density = 2.252631 g / cm^3
# Si number density = 22.577694 Si / 1000 Ang^3
#
#
#
# Elastic Constant Matrix: (Units=GPa)
#
#
# Indices 1 2 3 4 5 6 
#
# 1 68.3423 11.7625 16.4755 0.0000 0.0000 0.0000
# 2 11.7625 47.2504 14.5390 0.0000 0.0000 0.0000
# 3 16.4755 14.5390 66.5494 0.0000 0.0000 0.0000
# 4 0.0000 0.0000 0.0000 14.7682 0.0000 0.0000
# 5 0.0000 0.0000 0.0000 0.0000 -36.7458 0.0000
# 6 0.0000 0.0000 0.0000 0.0000 0.0000 37.2695
#
#
#
# Elastic Compliance Matrix: (Units=1/GPa)
#
#
# Indices 1 2 3 4 5 6 
#
# 1 0.015936 -0.002952 -0.003300 0.000000 0.000000 0.000000
# 2 -0.002952 0.023236 -0.004346 0.000000 0.000000 0.000000
# 3 -0.003300 -0.004346 0.016793 0.000000 0.000000 0.000000
# 4 0.000000 0.000000 0.000000 0.067713 0.000000 0.000000
# 5 0.000000 0.000000 0.000000 0.000000 -0.027214 0.000000
# 6 0.000000 0.000000 0.000000 0.000000 0.000000 0.026832
#
#
# Mechanical properties :
#
#
# Convention : Reuss Voigt Hill
#
# Bulk Modulus (GPa) = 28.76087 29.74400 29.25244
# Shear Modulus (GPa) = 32.03490 12.34939 22.19215
#
# Velocity S-wave (km/s) = 3.77088 2.34128 3.13856
# Velocity P-wave (km/s) = 5.63255 4.52896 5.11063
#
# Compressibility (1/GPa) = 0.03476946
#
# Stress axis : x y z
#
# Youngs Moduli (GPa) = 62.75163 43.03716 59.54904
#
# Poissons Ratio (x) = 0.12702 0.19653
# Poissons Ratio (y) = 0.18521 0.25878
# Poissons Ratio (z) = 0.20710 0.18702
#
# Static dielectric constant tensor:
#      x y z
#    x 1.906110 0.000000 0.000000 
#    y 0.000000 1.885420 0.000000 
#    z 0.000000 0.000000 1.925590 
# 
# From -- ./inp_files/24646.got.cif
#   From: 2010.05.17/outbox.cif.g08.bks.cpg/sg68_13_cif.got.tgz:24646.got - 2010.06.03 18:57:09.
