data_PCOD9507474
_publ_section_title
;
Structure prediction by ZEFSAII (Michael W. Deem and Ramdas Pophale) SiO2 
 PCOD9507474
Probable space group: C C C A
;
_chemical_formula_sum "Si O2"
_cell_formula_units_Z 108
_cell_length_a 14.826698
_cell_length_b 29.313228
_cell_length_c 11.315064
_cell_angle_alpha 90.000000
_cell_angle_beta 90.000000
_cell_angle_gamma 90.000000
_cell_volume 4917.734774
_symmetry_space_group_name_H-M "C C C A"
_symmetry_group_IT_number 68
_space_group.IT_coordinate_system_code '2'
_symmetry_cell_setting 'orthorhombic'
loop_
_space_group_symop_operation_xyz
x,y,z
-x,1/2-y,z
x,1/2-y,1/2-z
-x,y,1/2-z
-x,-y,-z
x,1/2+y,-z
-x,1/2+y,1/2+z
x,-y,1/2+z
1/2+x,1/2+y,z
1/2-x,-y,z
1/2+x,-y,1/2-z
1/2-x,1/2+y,1/2-z
1/2-x,1/2-y,-z
1/2+x,y,-z
1/2-x,y,1/2+z
1/2+x,1/2-y,1/2+z
loop_
_atom_site_type_symbol
_atom_site_label
_atom_site_fract_x
_atom_site_fract_y
_atom_site_fract_z
Si Si1 0.390612 0.080268 0.644263
Si Si2 0.891825 0.326066 0.886677
Si Si3 0.753102 0.545526 0.962487
Si Si4 0.926393 0.485819 0.601172
Si Si5 0.500000 0.750000 0.750000
Si Si6 0.500000 0.096300 0.250000
Si Si7 0.505161 0.339364 0.884295
Si Si8 0.305651 0.361201 0.653099
O O1 0.335050 0.066069 0.527145
O O2 0.483826 0.106341 0.620749
O O3 0.335959 0.119902 0.716126
O O4 0.412570 0.029256 0.688702
O O5 0.934282 0.370541 0.822462
O O6 0.785173 0.332338 0.865451
O O7 0.934667 0.282391 0.824544
O O8 0.932709 0.323229 0.019694
O O9 0.750000 0.500000 0.880388
O O10 0.791943 0.589647 0.902944
O O11 0.828001 0.526405 0.051532
O O12 0.954648 0.438905 0.660954
O O13 0.000000 0.500000 0.500000
O O14 0.500000 0.320654 0.750000
O O15 0.610962 0.335882 0.910884
#
# Coordination Sequence:
#
# PCOD9507474 Si02
#       8
#    16  16  16  16   4   8  16  16
#     4  10  21  38  56  93 141 187 242 286 341 402
#     4  11  23  49  72 105 134 180 237 294 380 446
#     4  10  21  33  48  82 126 177 233 283 327 390
#     4  11  23  34  53  88 139 192 243 296 344 396
#     4  10  28  52  82 104 146 164 224 318 372 462
#     4  11  24  35  64  88 132 184 242 289 340 423
#     4  10  22  42  70 102 141 185 228 289 352 433
#     4  11  22  36  70  93 131 187 230 290 354 429
#
# _framework density 21.961331000000001
#
# number of rings (size 3 to 8) (size 9 to 14) (size 15 to 20)
#    0.000    1.481    1.481    3.556    7.259    2.963 
#    0.000    1.111    0.000    0.000    0.000    0.000 
#    0.000    0.000    0.000    0.000    0.000    0.000 
#
# Total GULP energy -300731.439456 kJ/mol
# GULP energy per Si atom -5569.100731 kJ/mol
# Density = 2.191135 g / cm^3
# Si number density = 21.961331 Si / 1000 Ang^3
#
#
#
# Elastic Constant Matrix: (Units=GPa)
#
#
# Indices 1 2 3 4 5 6 
#
# 1 176.7086 40.4844 45.3680 0.0000 0.0000 0.0000
# 2 40.4844 90.2226 35.8322 0.0000 0.0000 0.0000
# 3 45.3680 35.8322 78.6673 0.0000 0.0000 0.0000
# 4 0.0000 0.0000 0.0000 15.6286 0.0000 0.0000
# 5 0.0000 0.0000 0.0000 0.0000 25.0268 0.0000
# 6 0.0000 0.0000 0.0000 0.0000 0.0000 17.5054
#
#
#
# Elastic Compliance Matrix: (Units=1/GPa)
#
#
# Indices 1 2 3 4 5 6 
#
# 1 0.006886 -0.001847 -0.003130 0.000000 0.000000 0.000000
# 2 -0.001847 0.014027 -0.005324 0.000000 0.000000 0.000000
# 3 -0.003130 -0.005324 0.016942 0.000000 0.000000 0.000000
# 4 0.000000 0.000000 0.000000 0.063985 0.000000 0.000000
# 5 0.000000 0.000000 0.000000 0.000000 0.039957 0.000000
# 6 0.000000 0.000000 0.000000 0.000000 0.000000 0.057125
#
#
# Mechanical properties :
#
#
# Convention : Reuss Voigt Hill
#
# Bulk Modulus (GPa) = 57.96073 65.44087 61.70080
# Shear Modulus (GPa) = 22.19515 26.55973 24.37744
#
# Velocity S-wave (km/s) = 3.18252 3.48140 3.33531
# Velocity P-wave (km/s) = 6.32092 6.78403 6.55656
#
# Compressibility (1/GPa) = 0.01725306
#
# Stress axis : x y z
#
# Youngs Moduli (GPa) = 145.22901 71.29200 59.02541
#
# Poissons Ratio (x) = 0.13165 0.18474
# Poissons Ratio (y) = 0.26819 0.31426
# Poissons Ratio (z) = 0.45455 0.37956
#
# Static dielectric constant tensor:
#      x y z
#    x 1.961450 0.000000 0.000000 
#    y 0.000000 1.824530 0.000000 
#    z 0.000000 0.000000 2.026420 
# 
# From -- ./inp_files/13618.got.cif
#   From: 2010.05.17/outbox.cif.g08.bks.cpg/sg68_7_cif.got.tgz:13618.got - 2010.06.03 18:57:09.
