data_PCOD9507732
_publ_section_title
;
Structure prediction by ZEFSAII (Michael W. Deem and Ramdas Pophale) SiO2 
 PCOD9507732
Probable space group: C C C A
;
_chemical_formula_sum "Si O2"
_cell_formula_units_Z 72
_cell_length_a 15.789331
_cell_length_b 17.872225
_cell_length_c 12.678776
_cell_angle_alpha 90.000000
_cell_angle_beta 90.000000
_cell_angle_gamma 90.000000
_cell_volume 3577.829837
_symmetry_space_group_name_H-M "C C C A"
_symmetry_group_IT_number 68
_space_group.IT_coordinate_system_code '2'
_symmetry_cell_setting 'orthorhombic'
loop_
_space_group_symop_operation_xyz
x,y,z
-x,1/2-y,z
x,1/2-y,1/2-z
-x,y,1/2-z
-x,-y,-z
x,1/2+y,-z
-x,1/2+y,1/2+z
x,-y,1/2+z
1/2+x,1/2+y,z
1/2-x,-y,z
1/2+x,-y,1/2-z
1/2-x,1/2+y,1/2-z
1/2-x,1/2-y,-z
1/2+x,y,-z
1/2-x,y,1/2+z
1/2+x,1/2-y,1/2+z
loop_
_atom_site_type_symbol
_atom_site_label
_atom_site_fract_x
_atom_site_fract_y
_atom_site_fract_z
Si Si1 0.670543 0.718786 0.636236
Si Si2 0.413975 0.422589 0.422109
Si Si3 0.828886 0.645993 0.511834
Si Si4 0.989076 0.424902 0.128322
Si Si5 0.250000 0.000000 0.507370
O O1 0.692138 0.750000 0.750000
O O2 0.599360 0.654394 0.638153
O O3 0.753364 0.681702 0.581620
O O4 0.642293 0.788940 0.565728
O O5 0.479135 0.484551 0.380384
O O6 0.437266 0.405700 0.544494
O O7 0.324835 0.465993 0.422630
O O8 0.905857 0.615544 0.581932
O O9 0.790467 0.572663 0.451798
O O10 0.000000 0.404485 0.250000
#
# Coordination Sequence:
#
# PCOD9507732 Si02
#       5
#    16  16  16  16   8
#     4  10  21  38  59  83 115 152 190 239 294 345
#     4   9  20  37  56  85 116 147 194 237 281 352
#     4   9  20  37  56  85 116 147 194 237 281 352
#     4  10  21  38  59  83 115 152 190 239 294 345
#     4   8  16  36  58  76 112 150 184 236 274 320
#
# _framework density 20.123930999999999
#
# number of rings (size 3 to 8) (size 9 to 14) (size 15 to 20)
#    0.000    2.667    0.000    0.000    0.000   11.556 
#    0.000   11.111    0.000    0.000    0.000    0.000 
#    0.000    0.000    0.000    0.000    0.000    0.000 
#
# Total GULP energy -200530.905061 kJ/mol
# GULP energy per Si atom -5570.302918 kJ/mol
# Density = 2.007813 g / cm^3
# Si number density = 20.123931 Si / 1000 Ang^3
#
#
#
# Elastic Constant Matrix: (Units=GPa)
#
#
# Indices 1 2 3 4 5 6 
#
# 1 43.4292 21.3601 20.0598 0.0000 0.0000 0.0000
# 2 21.3601 136.0869 23.6572 0.0000 0.0000 0.0000
# 3 20.0598 23.6572 73.2300 0.0000 0.0000 0.0000
# 4 0.0000 0.0000 0.0000 12.8911 0.0000 0.0000
# 5 0.0000 0.0000 0.0000 0.0000 10.2259 0.0000
# 6 0.0000 0.0000 0.0000 0.0000 0.0000 14.3864
#
#
#
# Elastic Compliance Matrix: (Units=1/GPa)
#
#
# Indices 1 2 3 4 5 6 
#
# 1 0.027616 -0.003199 -0.006531 0.000000 0.000000 0.000000
# 2 -0.003199 0.008156 -0.001758 0.000000 0.000000 0.000000
# 3 -0.006531 -0.001758 0.016013 0.000000 0.000000 0.000000
# 4 0.000000 0.000000 0.000000 0.077573 0.000000 0.000000
# 5 0.000000 0.000000 0.000000 0.000000 0.097791 0.000000
# 6 0.000000 0.000000 0.000000 0.000000 0.000000 0.069510
#
#
# Mechanical properties :
#
#
# Convention : Reuss Voigt Hill
#
# Bulk Modulus (GPa) = 34.71376 42.54449 38.62913
# Shear Modulus (GPa) = 15.18652 20.01195 17.59924
#
# Velocity S-wave (km/s) = 2.75007 3.15689 2.96047
# Velocity P-wave (km/s) = 5.23176 5.87155 5.56086
#
# Compressibility (1/GPa) = 0.02880702
#
# Stress axis : x y z
#
# Youngs Moduli (GPa) = 36.21043 122.60772 62.44988
#
# Poissons Ratio (x) = 0.39225 0.40789
# Poissons Ratio (y) = 0.11585 0.10982
# Poissons Ratio (z) = 0.23650 0.21561
#
# Static dielectric constant tensor:
#      x y z
#    x 1.743690 0.000000 0.000000 
#    y 0.000000 1.756650 0.000000 
#    z 0.000000 0.000000 1.672610 
# 
# From -- ./inp_files/14213.got.cif
#   From: 2010.05.17/outbox.cif.g08.bks.cpg/sg68_8_cif.got.tgz:14213.got - 2010.06.03 18:57:09.
