data_PCOD9507079
_publ_section_title
;
Structure prediction by ZEFSAII (Michael W. Deem and Ramdas Pophale) SiO2 
 PCOD9507079
Probable space group: C C C A
;
_chemical_formula_sum "Si O2"
_cell_formula_units_Z 120
_cell_length_a 21.041785
_cell_length_b 20.779460
_cell_length_c 12.233806
_cell_angle_alpha 90.000000
_cell_angle_beta 90.000000
_cell_angle_gamma 90.000000
_cell_volume 5349.071774
_symmetry_space_group_name_H-M "C C C A"
_symmetry_group_IT_number 68
_space_group.IT_coordinate_system_code '2'
_symmetry_cell_setting 'orthorhombic'
loop_
_space_group_symop_operation_xyz
x,y,z
-x,1/2-y,z
x,1/2-y,1/2-z
-x,y,1/2-z
-x,-y,-z
x,1/2+y,-z
-x,1/2+y,1/2+z
x,-y,1/2+z
1/2+x,1/2+y,z
1/2-x,-y,z
1/2+x,-y,1/2-z
1/2-x,1/2+y,1/2-z
1/2-x,1/2-y,-z
1/2+x,y,-z
1/2-x,y,1/2+z
1/2+x,1/2-y,1/2+z
loop_
_atom_site_type_symbol
_atom_site_label
_atom_site_fract_x
_atom_site_fract_y
_atom_site_fract_z
Si Si1 0.482631 0.567978 0.128469
Si Si2 0.898124 0.941360 0.139340
Si Si3 0.000000 0.153186 0.750000
Si Si4 0.318402 0.572481 0.845998
Si Si5 0.078059 0.165674 0.545102
Si Si6 0.688636 0.768335 0.073078
Si Si7 0.193497 0.146001 0.225207
Si Si8 0.376513 0.447764 0.907375
O O1 0.500000 0.592790 0.250000
O O2 0.430188 0.511615 0.128452
O O3 0.549406 0.532658 0.097488
O O4 0.462480 0.624606 0.044401
O O5 0.841925 0.945633 0.225245
O O6 0.949866 0.893468 0.189744
O O7 0.872940 0.914377 0.024744
O O8 0.963539 0.187370 0.850307
O O9 0.369895 0.617573 0.903566
O O10 0.254419 0.611257 0.827778
O O11 0.326207 0.505536 0.908970
O O12 0.122777 0.219630 0.490845
O O13 0.680746 0.709423 0.155305
O O14 0.700435 0.831656 0.149532
O O15 0.750000 0.750000 0.000000
O O16 0.137784 0.096904 0.195805
#
# Coordination Sequence:
#
# PCOD9507079 Si02
#       8
#    16  16   8  16  16  16  16  16
#     4  12  20  37  64 105 150 199 235 287 372 461
#     4  11  21  34  64 103 147 189 226 283 371 452
#     4  10  20  38  64 111 148 182 245 298 370 456
#     4  11  23  40  67 107 146 184 243 303 371 450
#     4  11  22  41  73 107 145 195 248 307 378 452
#     4  11  25  50  76  95 135 198 257 309 372 430
#     4  11  27  47  69 103 137 191 258 312 363 437
#     4  12  23  40  65 105 154 188 227 299 381 451
#
# _framework density 22.433799
#
# number of rings (size 3 to 8) (size 9 to 14) (size 15 to 20)
#    0.000    0.800    6.000    2.400    1.867    0.000 
#    0.000    2.000    0.000    3.200    0.000    0.000 
#    0.000    0.000    0.000    0.000    0.000    0.000 
#
# Total GULP energy -335053.157062 kJ/mol
# GULP energy per Si atom -5584.219284 kJ/mol
# Density = 2.238274 g / cm^3
# Si number density = 22.433799 Si / 1000 Ang^3
#
#
#
# Elastic Constant Matrix: (Units=GPa)
#
#
# Indices 1 2 3 4 5 6 
#
# 1 109.6296 55.9009 58.2840 0.0000 0.0000 0.0000
# 2 55.9009 75.0577 34.2124 0.0000 0.0000 0.0000
# 3 58.2840 34.2124 142.5215 0.0000 0.0000 0.0000
# 4 0.0000 0.0000 0.0000 25.5057 0.0000 0.0000
# 5 0.0000 0.0000 0.0000 0.0000 38.5739 0.0000
# 6 0.0000 0.0000 0.0000 0.0000 0.0000 36.6063
#
#
#
# Elastic Compliance Matrix: (Units=1/GPa)
#
#
# Indices 1 2 3 4 5 6 
#
# 1 0.016802 -0.010534 -0.004342 0.000000 0.000000 0.000000
# 2 -0.010534 0.021565 -0.000869 0.000000 0.000000 0.000000
# 3 -0.004342 -0.000869 0.009001 0.000000 0.000000 0.000000
# 4 0.000000 0.000000 0.000000 0.039207 0.000000 0.000000
# 5 0.000000 0.000000 0.000000 0.000000 0.025924 0.000000
# 6 0.000000 0.000000 0.000000 0.000000 0.000000 0.027318
#
#
# Mechanical properties :
#
#
# Convention : Reuss Voigt Hill
#
# Bulk Modulus (GPa) = 62.98488 69.33369 66.15928
# Shear Modulus (GPa) = 28.31289 32.05795 30.18542
#
# Velocity S-wave (km/s) = 3.55641 3.78432 3.67213
# Velocity P-wave (km/s) = 6.70827 7.07586 6.89451
#
# Compressibility (1/GPa) = 0.01587683
#
# Stress axis : x y z
#
# Youngs Moduli (GPa) = 59.51829 46.37249 111.10147
#
# Poissons Ratio (x) = 0.48849 0.48243
# Poissons Ratio (y) = 0.62697 0.09651
# Poissons Ratio (z) = 0.25844 0.04028
#
# Static dielectric constant tensor:
#      x y z
#    x 1.831280 0.000000 0.000000 
#    y 0.000000 1.834480 0.000000 
#    z 0.000000 0.000000 1.885890 
# 
# From -- ./inp_files/15812.got.cif
#   From: 2010.05.17/outbox.cif.g08.bks.cpg/sg68_8_cif.got.tgz:15812.got - 2010.06.03 18:57:09.
