data_PCOD9507032
_publ_section_title
;
Structure prediction by ZEFSAII (Michael W. Deem and Ramdas Pophale) SiO2 
 PCOD9507032
Probable space group: C C C A
;
_chemical_formula_sum "Si O2"
_cell_formula_units_Z 88
_cell_length_a 12.868030
_cell_length_b 22.737381
_cell_length_c 15.323023
_cell_angle_alpha 90.000000
_cell_angle_beta 90.000000
_cell_angle_gamma 90.000000
_cell_volume 4483.291294
_symmetry_space_group_name_H-M "C C C A"
_symmetry_group_IT_number 68
_space_group.IT_coordinate_system_code '2'
_symmetry_cell_setting 'orthorhombic'
loop_
_space_group_symop_operation_xyz
x,y,z
-x,1/2-y,z
x,1/2-y,1/2-z
-x,y,1/2-z
-x,-y,-z
x,1/2+y,-z
-x,1/2+y,1/2+z
x,-y,1/2+z
1/2+x,1/2+y,z
1/2-x,-y,z
1/2+x,-y,1/2-z
1/2-x,1/2+y,1/2-z
1/2-x,1/2-y,-z
1/2+x,y,-z
1/2-x,y,1/2+z
1/2+x,1/2-y,1/2+z
loop_
_atom_site_type_symbol
_atom_site_label
_atom_site_fract_x
_atom_site_fract_y
_atom_site_fract_z
Si Si1 0.349077 0.202861 0.329584
Si Si2 0.500000 0.750000 0.520833
Si Si3 0.000000 0.402363 0.250000
Si Si4 0.151562 0.031091 0.454680
Si Si5 0.000000 0.605986 0.250000
Si Si6 0.934312 0.500385 0.135270
Si Si7 0.628204 0.660383 0.399941
O O1 0.350396 0.250000 0.250000
O O2 0.412864 0.224683 0.413853
O O3 0.413703 0.146601 0.295471
O O4 0.232169 0.189155 0.360497
O O5 0.558834 0.702679 0.460197
O O6 0.081528 0.446521 0.298071
O O7 0.057470 0.362751 0.179477
O O8 0.137818 0.005620 0.551739
O O9 0.159746 0.101387 0.452921
O O10 0.250000 0.000000 0.412328
O O11 0.048696 0.013318 0.402769
O O12 0.941783 0.562240 0.183814
#
# Coordination Sequence:
#
# PCOD9507032 Si02
#       7
#    16   8   8  16   8  16  16
#     4  12  25  44  65  97 127 172 233 272 330 396
#     4  12  25  49  64  94 130 178 226 283 323 402
#     4   9  22  43  59 101 127 174 209 268 330 410
#     4  10  20  38  60  95 129 162 212 265 328 406
#     4  11  19  40  67  83 132 163 211 274 324 388
#     4   9  20  37  63  92 126 167 206 257 333 395
#     4  11  26  41  70  93 136 173 224 272 342 387
#
# _framework density 19.628437000000002
#
# number of rings (size 3 to 8) (size 9 to 14) (size 15 to 20)
#    0.000    1.455    1.818    2.727    2.545    4.364 
#    0.000    1.818    0.000    0.000    0.000    0.000 
#    0.000    0.000    0.000    0.000    0.000    0.000 
#
# Total GULP energy -245716.227795 kJ/mol
# GULP energy per Si atom -5584.459723 kJ/mol
# Density = 1.958376 g / cm^3
# Si number density = 19.628437 Si / 1000 Ang^3
#
#
#
# Elastic Constant Matrix: (Units=GPa)
#
#
# Indices 1 2 3 4 5 6 
#
# 1 109.7780 67.2248 50.0133 0.0000 0.0000 0.0000
# 2 67.2248 136.9557 70.0301 0.0000 0.0000 0.0000
# 3 50.0133 70.0301 124.1163 0.0000 0.0000 0.0000
# 4 0.0000 0.0000 0.0000 21.0894 0.0000 0.0000
# 5 0.0000 0.0000 0.0000 0.0000 1.5182 0.0000
# 6 0.0000 0.0000 0.0000 0.0000 0.0000 29.4036
#
#
#
# Elastic Compliance Matrix: (Units=1/GPa)
#
#
# Indices 1 2 3 4 5 6 
#
# 1 0.013511 -0.005409 -0.002393 0.000000 0.000000 0.000000
# 2 -0.005409 0.012427 -0.004833 0.000000 0.000000 0.000000
# 3 -0.002393 -0.004833 0.011748 0.000000 0.000000 0.000000
# 4 0.000000 0.000000 0.000000 0.047417 0.000000 0.000000
# 5 0.000000 0.000000 0.000000 0.000000 0.658676 0.000000
# 6 0.000000 0.000000 0.000000 0.000000 0.000000 0.034009
#
#
# Mechanical properties :
#
#
# Convention : Reuss Voigt Hill
#
# Bulk Modulus (GPa) = 80.52260 82.82071 81.67165
# Shear Modulus (GPa) = 6.19428 22.64104 14.41766
#
# Velocity S-wave (km/s) = 1.77838 3.39998 2.71316
# Velocity P-wave (km/s) = 6.73271 7.59599 7.17734
#
# Compressibility (1/GPa) = 0.01241887
#
# Stress axis : x y z
#
# Youngs Moduli (GPa) = 74.01111 80.46697 85.12215
#
# Poissons Ratio (x) = 0.43521 0.20368
# Poissons Ratio (y) = 0.40029 0.41135
# Poissons Ratio (z) = 0.17710 0.38886
#
# Static dielectric constant tensor:
#      x y z
#    x 1.658410 0.000000 0.000000 
#    y 0.000000 1.684030 0.000000 
#    z 0.000000 0.000000 1.750680 
# 
# From -- ./inp_files/29688.got.cif
#   From: 2010.05.17/outbox.cif.g08.bks.cpg/sg68_15_cif.got.tgz:29688.got - 2010.06.03 18:57:09.
