data_PCOD9507618
_publ_section_title
;
Structure prediction by ZEFSAII (Michael W. Deem and Ramdas Pophale) SiO2 
 PCOD9507618
Probable space group: C C C A
;
_chemical_formula_sum "Si O2"
_cell_formula_units_Z 96
_cell_length_a 17.451005
_cell_length_b 10.413099
_cell_length_c 27.173931
_cell_angle_alpha 90.000000
_cell_angle_beta 90.000000
_cell_angle_gamma 90.000000
_cell_volume 4938.020728
_symmetry_space_group_name_H-M "C C C A"
_symmetry_group_IT_number 68
_space_group.IT_coordinate_system_code '2'
_symmetry_cell_setting 'orthorhombic'
loop_
_space_group_symop_operation_xyz
x,y,z
-x,1/2-y,z
x,1/2-y,1/2-z
-x,y,1/2-z
-x,-y,-z
x,1/2+y,-z
-x,1/2+y,1/2+z
x,-y,1/2+z
1/2+x,1/2+y,z
1/2-x,-y,z
1/2+x,-y,1/2-z
1/2-x,1/2+y,1/2-z
1/2-x,1/2-y,-z
1/2+x,y,-z
1/2-x,y,1/2+z
1/2+x,1/2-y,1/2+z
loop_
_atom_site_type_symbol
_atom_site_label
_atom_site_fract_x
_atom_site_fract_y
_atom_site_fract_z
Si Si1 0.595300 0.540331 0.607858
Si Si2 0.587043 0.281164 0.192216
Si Si3 0.341587 0.787084 0.945094
Si Si4 0.835192 0.299392 0.059859
Si Si5 0.165171 0.950342 0.355667
Si Si6 0.951723 0.368223 0.376946
O O1 0.604141 0.583914 0.665057
O O2 0.607311 0.670084 0.576150
O O3 0.654375 0.433619 0.588372
O O4 0.513394 0.469884 0.602353
O O5 0.500000 0.250000 0.174986
O O6 0.587277 0.250000 0.250000
O O7 0.648510 0.182003 0.171089
O O8 0.252408 0.747427 0.937391
O O9 0.351376 0.914374 0.912571
O O10 0.354857 0.812493 0.002315
O O11 0.894383 0.199040 0.084187
O O12 0.250000 0.000000 0.349352
O O13 0.102920 0.055137 0.340048
O O14 0.000000 0.250000 0.355138
#
# Coordination Sequence:
#
# PCOD9507618 Si02
#       6
#    16  16  16  16  16  16
#     4  10  21  38  58  86 119 154 205 251 294 360
#     4  10  21  41  68  91 112 155 204 254 314 370
#     4  10  22  34  59  85 119 165 208 235 293 354
#     4  10  21  37  54  86 124 168 195 243 297 355
#     4  11  21  39  63  86 120 157 197 254 297 356
#     4  10  21  38  56  83 121 159 196 246 301 346
#
# _framework density 19.440985999999999
#
# number of rings (size 3 to 8) (size 9 to 14) (size 15 to 20)
#    0.000    1.833    3.333    0.500    2.333    0.667 
#    6.000    3.333    0.000    3.000    0.000    0.000 
#    0.000    0.000    0.000    0.000    0.000    0.000 
#
# Total GULP energy -267540.345967 kJ/mol
# GULP energy per Si atom -5573.757208 kJ/mol
# Density = 1.939674 g / cm^3
# Si number density = 19.440986 Si / 1000 Ang^3
#
#
#
# Elastic Constant Matrix: (Units=GPa)
#
#
# Indices 1 2 3 4 5 6 
#
# 1 63.6637 50.8055 -4.2216 0.0000 0.0000 0.0000
# 2 50.8055 108.0927 31.8375 0.0000 0.0000 0.0000
# 3 -4.2216 31.8375 64.9303 0.0000 0.0000 0.0000
# 4 0.0000 0.0000 0.0000 8.0680 0.0000 0.0000
# 5 0.0000 0.0000 0.0000 0.0000 9.5792 0.0000
# 6 0.0000 0.0000 0.0000 0.0000 0.0000 41.8402
#
#
#
# Elastic Compliance Matrix: (Units=1/GPa)
#
#
# Indices 1 2 3 4 5 6 
#
# 1 0.030158 -0.017243 0.010416 0.000000 0.000000 0.000000
# 2 -0.017243 0.020671 -0.011257 0.000000 0.000000 0.000000
# 3 0.010416 -0.011257 0.021598 0.000000 0.000000 0.000000
# 4 0.000000 0.000000 0.000000 0.123946 0.000000 0.000000
# 5 0.000000 0.000000 0.000000 0.000000 0.104393 0.000000
# 6 0.000000 0.000000 0.000000 0.000000 0.000000 0.023900
#
#
# Mechanical properties :
#
#
# Convention : Reuss Voigt Hill
#
# Bulk Modulus (GPa) = 27.57907 43.72550 35.65229
# Shear Modulus (GPa) = 13.40762 22.44851 17.92807
#
# Velocity S-wave (km/s) = 2.62898 3.40177 3.04003
# Velocity P-wave (km/s) = 4.84069 6.16195 5.54084
#
# Compressibility (1/GPa) = 0.03625938
#
# Stress axis : x y z
#
# Youngs Moduli (GPa) = 33.15820 48.37614 46.30068
#
# Poissons Ratio (x) = 0.83414 -0.48225
# Poissons Ratio (y) = 0.57174 0.52120
# Poissons Ratio (z) = -0.34536 0.54457
#
# Static dielectric constant tensor:
#      x y z
#    x 1.698500 0.000000 0.000000 
#    y 0.000000 1.726900 0.000000 
#    z 0.000000 0.000000 1.701550 
# 
# From -- ./inp_files/51757.got.cif
#   From: 2010.05.17/outbox.cif.g08.bks.cpg/sg68_26_cif.got.tgz:51757.got - 2010.06.03 18:57:09.
