data_PCOD9507326
_publ_section_title
;
Structure prediction by ZEFSAII (Michael W. Deem and Ramdas Pophale) SiO2 
 PCOD9507326
Probable space group: C C C A
;
_chemical_formula_sum "Si O2"
_cell_formula_units_Z 56
_cell_length_a 11.256994
_cell_length_b 8.367783
_cell_length_c 24.127733
_cell_angle_alpha 90.000000
_cell_angle_beta 90.000000
_cell_angle_gamma 90.000000
_cell_volume 2272.737941
_symmetry_space_group_name_H-M "C C C A"
_symmetry_group_IT_number 68
_space_group.IT_coordinate_system_code '2'
_symmetry_cell_setting 'orthorhombic'
loop_
_space_group_symop_operation_xyz
x,y,z
-x,1/2-y,z
x,1/2-y,1/2-z
-x,y,1/2-z
-x,-y,-z
x,1/2+y,-z
-x,1/2+y,1/2+z
x,-y,1/2+z
1/2+x,1/2+y,z
1/2-x,-y,z
1/2+x,-y,1/2-z
1/2-x,1/2+y,1/2-z
1/2-x,1/2-y,-z
1/2+x,y,-z
1/2-x,y,1/2+z
1/2+x,1/2-y,1/2+z
loop_
_atom_site_type_symbol
_atom_site_label
_atom_site_fract_x
_atom_site_fract_y
_atom_site_fract_z
Si Si1 0.159888 0.780591 0.813164
Si Si2 0.868794 0.245006 0.964046
Si Si3 0.250000 0.500000 0.389174
Si Si4 0.907772 0.604286 0.351798
O O1 0.129389 0.750000 0.750000
O O2 0.180867 0.626523 0.851526
O O3 0.294448 0.848526 0.815250
O O4 0.074169 0.919003 0.837103
O O5 0.871890 0.381461 0.916690
O O6 0.000000 0.250000 0.991059
O O7 0.847353 0.085372 0.927821
O O8 0.750000 0.250000 0.000000
O O9 0.000000 0.750000 0.342349
#
# Coordination Sequence:
#
# PCOD9507326 Si02
#       4
#    16  16   8  16
#     4  10  20  40  69 101 146 193 240 297 362 445
#     4  10  23  45  71 101 142 192 243 304 374 446
#     4  10  22  40  68 106 144 188 242 302 372 446
#     4   9  20  41  70 102 144 189 239 301 368 445
#
# _framework density 24.639885
#
# number of rings (size 3 to 8) (size 9 to 14) (size 15 to 20)
#    0.000    2.286    0.000    1.714    0.000    6.286 
#    0.000   37.143    0.000   39.429    0.000    0.000 
#    0.000    0.000    0.000    0.000    0.000    0.000 
#
# Total GULP energy -156387.111224 kJ/mol
# GULP energy per Si atom -5585.253972 kJ/mol
# Density = 2.458380 g / cm^3
# Si number density = 24.639885 Si / 1000 Ang^3
#
#
#
# Elastic Constant Matrix: (Units=GPa)
#
#
# Indices 1 2 3 4 5 6 
#
# 1 219.3453 74.9897 69.3689 0.0000 0.0000 0.0000
# 2 74.9897 197.5933 74.9328 0.0000 0.0000 0.0000
# 3 69.3689 74.9328 119.6212 0.0000 0.0000 0.0000
# 4 0.0000 0.0000 0.0000 -18.8680 0.0000 0.0000
# 5 0.0000 0.0000 0.0000 0.0000 23.3317 0.0000
# 6 0.0000 0.0000 0.0000 0.0000 0.0000 42.5893
#
#
#
# Elastic Compliance Matrix: (Units=1/GPa)
#
#
# Indices 1 2 3 4 5 6 
#
# 1 0.005797 -0.001213 -0.002601 0.000000 0.000000 0.000000
# 2 -0.001213 0.006892 -0.003613 0.000000 0.000000 0.000000
# 3 -0.002601 -0.003613 0.012132 0.000000 0.000000 0.000000
# 4 0.000000 0.000000 0.000000 -0.053000 0.000000 0.000000
# 5 0.000000 0.000000 0.000000 0.000000 0.042860 0.000000
# 6 0.000000 0.000000 0.000000 0.000000 0.000000 0.023480
#
#
# Mechanical properties :
#
#
# Convention : Reuss Voigt Hill
#
# Bulk Modulus (GPa) = 100.36455 108.34918 104.35686
# Shear Modulus (GPa) = 88.75005 30.56183 59.65594
#
# Velocity S-wave (km/s) = 6.00808 3.52567 4.92582
# Velocity P-wave (km/s) = 9.43135 7.78732 8.64849
#
# Compressibility (1/GPa) = 0.00996368
#
# Stress axis : x y z
#
# Youngs Moduli (GPa) = 172.51658 145.10183 82.42803
#
# Poissons Ratio (x) = 0.17606 0.21443
# Poissons Ratio (y) = 0.20933 0.29785
# Poissons Ratio (z) = 0.44878 0.52432
#
# Static dielectric constant tensor:
#      x y z
#    x 2.046410 0.000000 0.000000 
#    y 0.000000 2.061660 0.000000 
#    z 0.000000 0.000000 1.941410 
# 
# From -- ./inp_files/49897.got.cif
#   From: 2010.05.17/outbox.cif.g08.bks.cpg/sg68_25_cif.got.tgz:49897.got - 2010.06.03 18:57:09.
