data_PCOD9507450
_publ_section_title
;
Structure prediction by ZEFSAII (Michael W. Deem and Ramdas Pophale) SiO2 
 PCOD9507450
Probable space group: C C C A
;
_chemical_formula_sum "Si O2"
_cell_formula_units_Z 100
_cell_length_a 7.920796
_cell_length_b 20.112994
_cell_length_c 26.352906
_cell_angle_alpha 90.000000
_cell_angle_beta 90.000000
_cell_angle_gamma 90.000000
_cell_volume 4198.305763
_symmetry_space_group_name_H-M "C C C A"
_symmetry_group_IT_number 68
_space_group.IT_coordinate_system_code '2'
_symmetry_cell_setting 'orthorhombic'
loop_
_space_group_symop_operation_xyz
x,y,z
-x,1/2-y,z
x,1/2-y,1/2-z
-x,y,1/2-z
-x,-y,-z
x,1/2+y,-z
-x,1/2+y,1/2+z
x,-y,1/2+z
1/2+x,1/2+y,z
1/2-x,-y,z
1/2+x,-y,1/2-z
1/2-x,1/2+y,1/2-z
1/2-x,1/2-y,-z
1/2+x,y,-z
1/2-x,y,1/2+z
1/2+x,1/2-y,1/2+z
loop_
_atom_site_type_symbol
_atom_site_label
_atom_site_fract_x
_atom_site_fract_y
_atom_site_fract_z
Si Si1 0.615278 0.195239 0.512925
Si Si2 0.000000 0.750000 0.750000
Si Si3 0.250000 0.500000 0.721915
Si Si4 0.558608 0.478649 0.145568
Si Si5 0.829823 0.843865 0.401193
Si Si6 0.745245 0.644403 0.297535
Si Si7 0.057099 0.895169 0.900864
Si Si8 0.500000 0.750000 0.829594
O O1 0.500000 0.250000 0.541110
O O2 0.750000 0.250000 0.500000
O O3 0.584829 0.166762 0.456436
O O4 0.646186 0.134435 0.549803
O O5 0.115580 0.700521 0.718903
O O6 0.426186 0.510415 0.690739
O O7 0.262865 0.421452 0.738887
O O8 0.750000 0.500000 0.160041
O O9 0.574394 0.404766 0.125483
O O10 0.486512 0.526973 0.101889
O O11 0.631889 0.863138 0.401511
O O12 0.857218 0.779301 0.366832
O O13 0.674285 0.620364 0.352337
O O14 0.918189 0.687104 0.300841
#
# Coordination Sequence:
#
# PCOD9507450 Si02
#       8
#    16   4   8  16  16  16  16   8
#     4  12  23  33  52  86 129 174 229 275 323 389
#     4  12  28  50  70 108 136 172 214 280 348 418
#     4  10  20  46  74 102 136 182 226 272 348 418
#     4   9  20  38  64  96 128 174 232 277 332 404
#     4  11  21  37  59  94 130 171 230 276 327 388
#     4  11  25  45  74 100 138 172 223 275 345 418
#     4  10  23  41  61  86 128 182 217 272 344 401
#     4  12  22  37  71 100 124 172 215 277 324 400
#
# _framework density 23.819130999999999
#
# number of rings (size 3 to 8) (size 9 to 14) (size 15 to 20)
#    0.000    1.280    4.000    1.920    1.120    0.960 
#    0.000    1.600    7.040    0.000    0.000    0.000 
#    0.000    0.000    0.000    0.000    0.000    0.000 
#
# Total GULP energy -278650.876149 kJ/mol
# GULP energy per Si atom -5573.017523 kJ/mol
# Density = 2.376492 g / cm^3
# Si number density = 23.819131 Si / 1000 Ang^3
#
#
#
# Elastic Constant Matrix: (Units=GPa)
#
#
# Indices 1 2 3 4 5 6 
#
# 1 63.7354 28.2438 13.5421 0.0000 0.0000 0.0000
# 2 28.2438 163.2079 36.9266 0.0000 0.0000 0.0000
# 3 13.5421 36.9266 68.5607 0.0000 0.0000 0.0000
# 4 0.0000 0.0000 0.0000 11.6206 0.0000 0.0000
# 5 0.0000 0.0000 0.0000 0.0000 23.5605 0.0000
# 6 0.0000 0.0000 0.0000 0.0000 0.0000 43.6718
#
#
#
# Elastic Compliance Matrix: (Units=1/GPa)
#
#
# Indices 1 2 3 4 5 6 
#
# 1 0.017242 -0.002520 -0.002048 0.000000 0.000000 0.000000
# 2 -0.002520 0.007346 -0.003459 0.000000 0.000000 0.000000
# 3 -0.002048 -0.003459 0.016853 0.000000 0.000000 0.000000
# 4 0.000000 0.000000 0.000000 0.086054 0.000000 0.000000
# 5 0.000000 0.000000 0.000000 0.000000 0.042444 0.000000
# 6 0.000000 0.000000 0.000000 0.000000 0.000000 0.022898
#
#
# Mechanical properties :
#
#
# Convention : Reuss Voigt Hill
#
# Bulk Modulus (GPa) = 39.39114 50.32546 44.85830
# Shear Modulus (GPa) = 23.00399 30.22335 26.61367
#
# Velocity S-wave (km/s) = 3.11107 3.56598 3.34627
# Velocity P-wave (km/s) = 5.42941 6.17487 5.81410
#
# Compressibility (1/GPa) = 0.02538642
#
# Stress axis : x y z
#
# Youngs Moduli (GPa) = 57.99810 136.13133 59.33676
#
# Poissons Ratio (x) = 0.34310 0.12153
# Poissons Ratio (y) = 0.14618 0.20522
# Poissons Ratio (z) = 0.11879 0.47083
#
# Static dielectric constant tensor:
#      x y z
#    x -0.776940 0.000000 0.000000 
#    y 0.000000 1.826390 0.000000 
#    z 0.000000 0.000000 1.981660 
# 
# From -- ./inp_files/49461.got.cif
#   From: 2010.05.17/outbox.cif.g08.bks.cpg/sg68_25_cif.got.tgz:49461.got - 2010.06.03 18:57:09.
