data_PCOD9507298
_publ_section_title
;
Structure prediction by ZEFSAII (Michael W. Deem and Ramdas Pophale) SiO2 
 PCOD9507298
Probable space group: C C C A
;
_chemical_formula_sum "Si O2"
_cell_formula_units_Z 68
_cell_length_a 20.501985
_cell_length_b 9.212708
_cell_length_c 15.222128
_cell_angle_alpha 90.000000
_cell_angle_beta 90.000000
_cell_angle_gamma 90.000000
_cell_volume 2875.137289
_symmetry_space_group_name_H-M "C C C A"
_symmetry_group_IT_number 68
_space_group.IT_coordinate_system_code '2'
_symmetry_cell_setting 'orthorhombic'
loop_
_space_group_symop_operation_xyz
x,y,z
-x,1/2-y,z
x,1/2-y,1/2-z
-x,y,1/2-z
-x,-y,-z
x,1/2+y,-z
-x,1/2+y,1/2+z
x,-y,1/2+z
1/2+x,1/2+y,z
1/2-x,-y,z
1/2+x,-y,1/2-z
1/2-x,1/2+y,1/2-z
1/2-x,1/2-y,-z
1/2+x,y,-z
1/2-x,y,1/2+z
1/2+x,1/2-y,1/2+z
loop_
_atom_site_type_symbol
_atom_site_label
_atom_site_fract_x
_atom_site_fract_y
_atom_site_fract_z
Si Si1 0.603767 0.038852 0.198692
Si Si2 0.863882 0.694940 0.931281
Si Si3 0.138296 0.467420 0.899723
Si Si4 0.732574 0.276264 0.347420
Si Si5 0.500000 0.250000 0.250000
O O1 0.606949 0.023440 0.303667
O O2 0.670097 0.120883 0.168050
O O3 0.544632 0.149638 0.188211
O O4 0.599398 0.888171 0.147435
O O5 0.787175 0.661823 0.911433
O O6 0.862395 0.867956 0.932339
O O7 0.890082 0.628296 0.021291
O O8 0.204641 0.376876 0.880559
O O9 0.762809 0.250000 0.250000
#
# Coordination Sequence:
#
# PCOD9507298 Si02
#       5
#    16  16  16  16   4
#     4  11  24  46  73  97 138 189 240 294 350 423
#     4  12  24  39  70 106 147 179 229 290 360 432
#     4  11  23  41  66 110 145 186 222 282 363 429
#     4  10  20  40  66 103 148 185 226 281 356 425
#     4  12  24  52  82  88 140 190 250 294 372 396
#
# _framework density 23.651046000000001
#
# number of rings (size 3 to 8) (size 9 to 14) (size 15 to 20)
#    0.000    0.941    3.529    5.647    0.000    5.647 
#    0.000    3.529    0.000    0.000    0.000    0.000 
#    0.000    0.000    0.000    0.000    0.000    0.000 
#
# Total GULP energy -190044.333574 kJ/mol
# GULP energy per Si atom -5589.539223 kJ/mol
# Density = 2.359722 g / cm^3
# Si number density = 23.651046 Si / 1000 Ang^3
#
#
#
# Elastic Constant Matrix: (Units=GPa)
#
#
# Indices 1 2 3 4 5 6 
#
# 1 26.9219 13.6476 6.9539 0.0000 0.0000 0.0000
# 2 13.6476 188.4197 65.7925 0.0000 0.0000 0.0000
# 3 6.9539 65.7925 157.6205 0.0000 0.0000 0.0000
# 4 0.0000 0.0000 0.0000 44.1733 0.0000 0.0000
# 5 0.0000 0.0000 0.0000 0.0000 3.8606 0.0000
# 6 0.0000 0.0000 0.0000 0.0000 0.0000 19.3407
#
#
#
# Elastic Compliance Matrix: (Units=1/GPa)
#
#
# Indices 1 2 3 4 5 6 
#
# 1 0.038613 -0.002578 -0.000628 0.000000 0.000000 0.000000
# 2 -0.002578 0.006385 -0.002551 0.000000 0.000000 0.000000
# 3 -0.000628 -0.002551 0.007437 0.000000 0.000000 0.000000
# 4 0.000000 0.000000 0.000000 0.022638 0.000000 0.000000
# 5 0.000000 0.000000 0.000000 0.000000 0.259025 0.000000
# 6 0.000000 0.000000 0.000000 0.000000 0.000000 0.051704
#
#
# Mechanical properties :
#
#
# Convention : Reuss Voigt Hill
#
# Bulk Modulus (GPa) = 24.43679 60.63890 42.53784
# Shear Modulus (GPa) = 12.16671 32.57945 22.37308
#
# Velocity S-wave (km/s) = 2.27056 3.71550 3.07899
# Velocity P-wave (km/s) = 4.15073 6.64088 5.53759
#
# Compressibility (1/GPa) = 0.04092190
#
# Stress axis : x y z
#
# Youngs Moduli (GPa) = 25.89779 156.61927 134.46230
#
# Poissons Ratio (x) = 0.40372 0.08439
# Poissons Ratio (y) = 0.06676 0.34307
# Poissons Ratio (z) = 0.01625 0.39960
#
# Static dielectric constant tensor:
#      x y z
#    x 1.919250 0.000000 0.000000 
#    y 0.000000 1.922740 0.000000 
#    z 0.000000 0.000000 1.927890 
# 
# From -- ./inp_files/25764.got.cif
#   From: 2010.05.17/outbox.cif.g08.bks.cpg/sg68_13_cif.got.tgz:25764.got - 2010.06.03 18:57:09.
