data_PCOD9507000
_publ_section_title
;
Structure prediction by ZEFSAII (Michael W. Deem and Ramdas Pophale) SiO2 
 PCOD9507000
Probable space group: C C C A
;
_chemical_formula_sum "Si O2"
_cell_formula_units_Z 112
_cell_length_a 14.016231
_cell_length_b 26.714989
_cell_length_c 13.609407
_cell_angle_alpha 90.000000
_cell_angle_beta 90.000000
_cell_angle_gamma 90.000000
_cell_volume 5095.953405
_symmetry_space_group_name_H-M "C C C A"
_symmetry_group_IT_number 68
_space_group.IT_coordinate_system_code '2'
_symmetry_cell_setting 'orthorhombic'
loop_
_space_group_symop_operation_xyz
x,y,z
-x,1/2-y,z
x,1/2-y,1/2-z
-x,y,1/2-z
-x,-y,-z
x,1/2+y,-z
-x,1/2+y,1/2+z
x,-y,1/2+z
1/2+x,1/2+y,z
1/2-x,-y,z
1/2+x,-y,1/2-z
1/2-x,1/2+y,1/2-z
1/2-x,1/2-y,-z
1/2+x,y,-z
1/2-x,y,1/2+z
1/2+x,1/2-y,1/2+z
loop_
_atom_site_type_symbol
_atom_site_label
_atom_site_fract_x
_atom_site_fract_y
_atom_site_fract_z
Si Si1 0.970589 0.481358 0.650886
Si Si2 0.103921 0.774143 0.608166
Si Si3 0.914422 0.564547 0.955664
Si Si4 0.205458 0.452534 0.340428
Si Si5 0.604359 0.121518 0.974696
Si Si6 0.222042 0.203834 0.295241
Si Si7 0.220452 0.094948 0.848566
O O1 0.053547 0.512264 0.594981
O O2 0.898324 0.525307 0.686195
O O3 0.000000 0.454150 0.750000
O O4 0.919336 0.446453 0.571656
O O5 0.112199 0.818699 0.530261
O O6 0.176591 0.727195 0.605941
O O7 0.136483 0.799155 0.713199
O O8 0.000000 0.750000 0.610326
O O9 0.999479 0.604609 0.939746
O O10 0.814587 0.582450 0.913140
O O11 0.250000 0.500000 0.397402
O O12 0.182153 0.403689 0.402575
O O13 0.269443 0.440696 0.245714
O O14 0.630071 0.096469 0.079375
O O15 0.282912 0.250000 0.250000
O O16 0.268933 0.151344 0.309585
#
# Coordination Sequence:
#
# PCOD9507000 Si02
#       7
#    16  16  16  16  16  16  16
#     4  10  20  38  56  79 117 168 209 264 317 365
#     4   9  17  35  60  92 122 151 197 264 328 385
#     4  10  23  37  58  89 120 161 218 266 316 386
#     4  11  23  38  61  86 126 175 214 264 324 375
#     4  11  24  38  61  98 126 162 216 265 332 395
#     4   8  18  34  59  88 113 155 193 254 326 378
#     4  12  22  39  61  92 128 165 215 268 314 394
#
# _framework density 21.978223
#
# number of rings (size 3 to 8) (size 9 to 14) (size 15 to 20)
#    0.857    0.857    2.857    2.571    2.000    2.286 
#    0.000    0.000    0.000    0.000    0.000    0.000 
#    0.000    0.000    0.000    0.000    0.000    0.000 
#
# Total GULP energy -312117.852508 kJ/mol
# GULP energy per Si atom -5573.533080 kJ/mol
# Density = 2.192820 g / cm^3
# Si number density = 21.978223 Si / 1000 Ang^3
#
#
#
# Elastic Constant Matrix: (Units=GPa)
#
#
# Indices 1 2 3 4 5 6 
#
# 1 52.4601 9.8926 0.9468 0.0000 0.0000 0.0000
# 2 9.8926 96.3947 8.0418 0.0000 0.0000 0.0000
# 3 0.9468 8.0418 77.5608 0.0000 0.0000 0.0000
# 4 0.0000 0.0000 0.0000 34.1756 0.0000 0.0000
# 5 0.0000 0.0000 0.0000 0.0000 27.5532 0.0000
# 6 0.0000 0.0000 0.0000 0.0000 0.0000 28.0016
#
#
#
# Elastic Compliance Matrix: (Units=1/GPa)
#
#
# Indices 1 2 3 4 5 6 
#
# 1 0.019438 -0.001992 -0.000031 0.000000 0.000000 0.000000
# 2 -0.001992 0.010669 -0.001082 0.000000 0.000000 0.000000
# 3 -0.000031 -0.001082 0.013006 0.000000 0.000000 0.000000
# 4 0.000000 0.000000 0.000000 0.029261 0.000000 0.000000
# 5 0.000000 0.000000 0.000000 0.000000 0.036293 0.000000
# 6 0.000000 0.000000 0.000000 0.000000 0.000000 0.035712
#
#
# Mechanical properties :
#
#
# Convention : Reuss Voigt Hill
#
# Bulk Modulus (GPa) = 27.09810 29.35311 28.22560
# Shear Modulus (GPa) = 30.69559 31.78170 31.23865
#
# Velocity S-wave (km/s) = 3.74121 3.80683 3.77416
# Velocity P-wave (km/s) = 5.56943 5.71901 5.64472
#
# Compressibility (1/GPa) = 0.03690296
#
# Stress axis : x y z
#
# Youngs Moduli (GPa) = 51.44472 93.73184 76.88965
#
# Poissons Ratio (x) = 0.18674 0.00236
# Poissons Ratio (y) = 0.10249 0.08318
# Poissons Ratio (z) = 0.00158 0.10140
#
# Static dielectric constant tensor:
#      x y z
#    x 1.875200 0.000000 0.000000 
#    y 0.000000 1.804930 0.000000 
#    z 0.000000 0.000000 1.877360 
# 
# From -- ./inp_files/22806.got.cif
#   From: 2010.05.17/outbox.cif.g08.bks.cpg/sg68_12_cif.got.tgz:22806.got - 2010.06.03 18:57:09.
