data_PCOD9507995
_publ_section_title
;
Structure prediction by ZEFSAII (Michael W. Deem and Ramdas Pophale) SiO2 
 PCOD9507995
Probable space group: C C C A
;
_chemical_formula_sum "Si O2"
_cell_formula_units_Z 68
_cell_length_a 14.062934
_cell_length_b 15.501964
_cell_length_c 15.799164
_cell_angle_alpha 90.000000
_cell_angle_beta 90.000000
_cell_angle_gamma 90.000000
_cell_volume 3444.266676
_symmetry_space_group_name_H-M "C C C A"
_symmetry_group_IT_number 68
_space_group.IT_coordinate_system_code '2'
_symmetry_cell_setting 'orthorhombic'
loop_
_space_group_symop_operation_xyz
x,y,z
-x,1/2-y,z
x,1/2-y,1/2-z
-x,y,1/2-z
-x,-y,-z
x,1/2+y,-z
-x,1/2+y,1/2+z
x,-y,1/2+z
1/2+x,1/2+y,z
1/2-x,-y,z
1/2+x,-y,1/2-z
1/2-x,1/2+y,1/2-z
1/2-x,1/2-y,-z
1/2+x,y,-z
1/2-x,y,1/2+z
1/2+x,1/2-y,1/2+z
loop_
_atom_site_type_symbol
_atom_site_label
_atom_site_fract_x
_atom_site_fract_y
_atom_site_fract_z
Si Si1 0.042426 0.115596 0.120069
Si Si2 0.000000 0.750000 0.750000
Si Si3 0.829654 0.364190 0.967056
Si Si4 0.620934 0.336888 0.009867
Si Si5 0.007239 0.421338 0.653968
O O1 0.061772 0.185506 0.192448
O O2 0.957761 0.154593 0.062890
O O3 0.010368 0.023574 0.154085
O O4 0.127893 0.101233 0.055185
O O5 0.717297 0.377780 0.972556
O O6 0.890996 0.403124 0.890433
O O7 0.853598 0.261797 0.968255
O O8 0.572306 0.379921 0.091932
O O9 0.000000 0.388331 0.750000
#
# Coordination Sequence:
#
# PCOD9507995 Si02
#       5
#    16   4  16  16  16
#     4  11  21  39  62  82 118 157 196 252 298 351
#     4  12  20  40  60  84 116 154 216 240 288 356
#     4  10  21  40  62  85 119 160 194 237 306 361
#     4  10  21  40  62  85 119 160 194 237 306 361
#     4  11  23  38  60  92 120 154 200 252 298 348
#
# _framework density 19.742954999999998
#
# number of rings (size 3 to 8) (size 9 to 14) (size 15 to 20)
#    0.000    1.412    3.529    4.941    0.000    5.647 
#    4.235    2.353    0.000    0.000    0.000    0.000 
#    0.000    0.000    0.000    0.000    0.000    0.000 
#
# Total GULP energy -189834.796312 kJ/mol
# GULP energy per Si atom -5583.376362 kJ/mol
# Density = 1.969802 g / cm^3
# Si number density = 19.742955 Si / 1000 Ang^3
#
#
#
# Elastic Constant Matrix: (Units=GPa)
#
#
# Indices 1 2 3 4 5 6 
#
# 1 109.9447 18.0370 35.2760 0.0000 0.0000 0.0000
# 2 18.0370 69.3143 33.6453 0.0000 0.0000 0.0000
# 3 35.2760 33.6453 131.6109 0.0000 0.0000 0.0000
# 4 0.0000 0.0000 0.0000 22.2743 0.0000 0.0000
# 5 0.0000 0.0000 0.0000 0.0000 1.9304 0.0000
# 6 0.0000 0.0000 0.0000 0.0000 0.0000 10.1732
#
#
#
# Elastic Compliance Matrix: (Units=1/GPa)
#
#
# Indices 1 2 3 4 5 6 
#
# 1 0.010086 -0.001498 -0.002320 0.000000 0.000000 0.000000
# 2 -0.001498 0.016693 -0.003866 0.000000 0.000000 0.000000
# 3 -0.002320 -0.003866 0.009208 0.000000 0.000000 0.000000
# 4 0.000000 0.000000 0.000000 0.044895 0.000000 0.000000
# 5 0.000000 0.000000 0.000000 0.000000 0.518039 0.000000
# 6 0.000000 0.000000 0.000000 0.000000 0.000000 0.098297
#
#
# Mechanical properties :
#
#
# Convention : Reuss Voigt Hill
#
# Bulk Modulus (GPa) = 48.50002 53.86518 51.18260
# Shear Modulus (GPa) = 6.94965 21.80302 14.37633
#
# Velocity S-wave (km/s) = 1.87822 3.32677 2.70140
# Velocity P-wave (km/s) = 5.41504 6.48838 5.97586
#
# Compressibility (1/GPa) = 0.02061855
#
# Stress axis : x y z
#
# Youngs Moduli (GPa) = 99.14980 59.90371 108.59679
#
# Poissons Ratio (x) = 0.08975 0.25198
# Poissons Ratio (y) = 0.14855 0.41983
# Poissons Ratio (z) = 0.23006 0.23159
#
# Static dielectric constant tensor:
#      x y z
#    x 1.687560 0.000000 0.000000 
#    y 0.000000 1.734690 0.000000 
#    z 0.000000 0.000000 1.701240 
# 
# From -- ./inp_files/30767.got.cif
#   From: 2010.05.17/outbox.cif.g08.bks.cpg/sg68_16_cif.got.tgz:30767.got - 2010.06.03 18:57:09.
