data_PCOD9507718
_publ_section_title
;
Structure prediction by ZEFSAII (Michael W. Deem and Ramdas Pophale) SiO2 
 PCOD9507718
Probable space group: C C C A
;
_chemical_formula_sum "Si O2"
_cell_formula_units_Z 88
_cell_length_a 10.796779
_cell_length_b 18.282922
_cell_length_c 19.862441
_cell_angle_alpha 90.000000
_cell_angle_beta 90.000000
_cell_angle_gamma 90.000000
_cell_volume 3920.779678
_symmetry_space_group_name_H-M "C C C A"
_symmetry_group_IT_number 68
_space_group.IT_coordinate_system_code '2'
_symmetry_cell_setting 'orthorhombic'
loop_
_space_group_symop_operation_xyz
x,y,z
-x,1/2-y,z
x,1/2-y,1/2-z
-x,y,1/2-z
-x,-y,-z
x,1/2+y,-z
-x,1/2+y,1/2+z
x,-y,1/2+z
1/2+x,1/2+y,z
1/2-x,-y,z
1/2+x,-y,1/2-z
1/2-x,1/2+y,1/2-z
1/2-x,1/2-y,-z
1/2+x,y,-z
1/2-x,y,1/2+z
1/2+x,1/2-y,1/2+z
loop_
_atom_site_type_symbol
_atom_site_label
_atom_site_fract_x
_atom_site_fract_y
_atom_site_fract_z
Si Si1 0.440362 0.025229 0.095567
Si Si2 0.500000 0.250000 0.924590
Si Si3 0.767768 0.769130 0.827041
Si Si4 0.316037 0.613440 0.636326
Si Si5 0.595229 0.399689 0.966943
Si Si6 0.862809 0.911734 0.279045
O O1 0.560794 0.076771 0.107593
O O2 0.379932 0.022084 0.168973
O O3 0.486846 0.949882 0.064390
O O4 0.364635 0.066833 0.038001
O O5 0.385925 0.272919 0.875972
O O6 0.546088 0.317400 0.969218
O O7 0.806904 0.750000 0.750000
O O8 0.683612 0.701002 0.852031
O O9 0.692303 0.844095 0.820802
O O10 0.206722 0.597172 0.585216
O O11 0.287587 0.580328 0.710182
O O12 0.000000 0.892942 0.250000
#
# Coordination Sequence:
#
# PCOD9507718 Si02
#       6
#    16   8  16  16  16  16
#     4  10  21  38  59  86 116 150 190 238 292 347
#     4  10  21  38  56  82 115 156 198 232 284 356
#     4   9  18  34  57  84 117 153 192 243 294 342
#     4   9  19  37  60  83 113 153 191 237 289 343
#     4  10  22  39  59  83 118 154 190 237 291 347
#     4   9  19  36  59  89 116 148 197 245 294 347
#
# _framework density 22.444516
#
# number of rings (size 3 to 8) (size 9 to 14) (size 15 to 20)
#    0.000    2.545    0.000    0.818    0.000   11.273 
#    0.000   28.182    0.000    0.000    0.000    0.000 
#    0.000    0.000    0.000    0.000    0.000    0.000 
#
# Total GULP energy -245858.314735 kJ/mol
# GULP energy per Si atom -5587.688971 kJ/mol
# Density = 2.239343 g / cm^3
# Si number density = 22.444516 Si / 1000 Ang^3
#
#
#
# Elastic Constant Matrix: (Units=GPa)
#
#
# Indices 1 2 3 4 5 6 
#
# 1 51.4696 15.3274 3.3375 0.0000 0.0000 0.0000
# 2 15.3274 47.0193 14.0741 0.0000 0.0000 0.0000
# 3 3.3375 14.0741 100.8443 0.0000 0.0000 0.0000
# 4 0.0000 0.0000 0.0000 5.8164 0.0000 0.0000
# 5 0.0000 0.0000 0.0000 0.0000 24.1142 0.0000
# 6 0.0000 0.0000 0.0000 0.0000 0.0000 25.7408
#
#
#
# Elastic Compliance Matrix: (Units=1/GPa)
#
#
# Indices 1 2 3 4 5 6 
#
# 1 0.021525 -0.007100 0.000279 0.000000 0.000000 0.000000
# 2 -0.007100 0.024537 -0.003189 0.000000 0.000000 0.000000
# 3 0.000279 -0.003189 0.010352 0.000000 0.000000 0.000000
# 4 0.000000 0.000000 0.000000 0.171929 0.000000 0.000000
# 5 0.000000 0.000000 0.000000 0.000000 0.041469 0.000000
# 6 0.000000 0.000000 0.000000 0.000000 0.000000 0.038849
#
#
# Mechanical properties :
#
#
# Convention : Reuss Voigt Hill
#
# Bulk Modulus (GPa) = 27.47836 29.42346 28.45091
# Shear Modulus (GPa) = 14.67074 22.24056 18.45565
#
# Velocity S-wave (km/s) = 2.55942 3.15129 2.87065
# Velocity P-wave (km/s) = 4.58296 5.13602 4.86736
#
# Compressibility (1/GPa) = 0.03639227
#
# Stress axis : x y z
#
# Youngs Moduli (GPa) = 46.45700 40.75465 96.59787
#
# Poissons Ratio (x) = 0.28937 -0.02691
# Poissons Ratio (y) = 0.32985 0.30810
# Poissons Ratio (z) = -0.01294 0.12999
#
# Static dielectric constant tensor:
#      x y z
#    x 1.839670 0.000000 0.000000 
#    y 0.000000 1.831700 0.000000 
#    z 0.000000 0.000000 1.827010 
# 
# From -- ./inp_files/37451.got.cif
#   From: 2010.05.17/outbox.cif.g08.bks.cpg/sg68_19_cif.got.tgz:37451.got - 2010.06.03 18:57:09.
