data_PCOD9507935
_publ_section_title
;
Structure prediction by ZEFSAII (Michael W. Deem and Ramdas Pophale) SiO2 
 PCOD9507935
Probable space group: C C C A
;
_chemical_formula_sum "Si O2"
_cell_formula_units_Z 64
_cell_length_a 23.996119
_cell_length_b 5.262071
_cell_length_c 24.946214
_cell_angle_alpha 90.000000
_cell_angle_beta 90.000000
_cell_angle_gamma 90.000000
_cell_volume 3149.940528
_symmetry_space_group_name_H-M "C C C A"
_symmetry_group_IT_number 68
_space_group.IT_coordinate_system_code '2'
_symmetry_cell_setting 'orthorhombic'
loop_
_space_group_symop_operation_xyz
x,y,z
-x,1/2-y,z
x,1/2-y,1/2-z
-x,y,1/2-z
-x,-y,-z
x,1/2+y,-z
-x,1/2+y,1/2+z
x,-y,1/2+z
1/2+x,1/2+y,z
1/2-x,-y,z
1/2+x,-y,1/2-z
1/2-x,1/2+y,1/2-z
1/2-x,1/2-y,-z
1/2+x,y,-z
1/2-x,y,1/2+z
1/2+x,1/2-y,1/2+z
loop_
_atom_site_type_symbol
_atom_site_label
_atom_site_fract_x
_atom_site_fract_y
_atom_site_fract_z
Si Si1 0.024724 0.999959 0.688388
Si Si2 0.146753 0.908137 0.147998
Si Si3 0.189969 0.883559 0.803089
Si Si4 0.183158 0.499459 0.467240
O O1 0.000000 0.250000 0.662521
O O2 0.000000 0.000247 0.750000
O O3 0.090136 0.009331 0.678119
O O4 0.000000 0.750000 0.662840
O O5 0.159807 0.628072 0.171480
O O6 0.190524 0.138055 0.159079
O O7 0.147459 0.911218 0.083922
O O8 0.165944 0.750000 0.750000
O O9 0.250000 0.000000 0.789159
O O10 0.172327 0.713161 0.512666
O O11 0.250000 0.500000 0.455333
#
# Coordination Sequence:
#
# PCOD9507935 Si02
#       4
#    16  16  16  16
#     4  10  23  40  61  90 120 163 225 275 313 377
#     4  12  24  40  68  90 130 178 214 266 334 381
#     4  12  25  39  57  94 135 172 209 250 317 414
#     4  10  21  39  64  95 128 165 216 268 318 391
#
# _framework density 20.317844999999998
#
# number of rings (size 3 to 8) (size 9 to 14) (size 15 to 20)
#    0.000    1.000    0.000    7.500   10.500    2.000 
#    0.000    0.000    0.000    4.500    0.000    0.000 
#    0.000    0.000    0.000    0.000    0.000    0.000 
#
# Total GULP energy -178257.024016 kJ/mol
# GULP energy per Si atom -5570.532000 kJ/mol
# Density = 2.027160 g / cm^3
# Si number density = 20.317845 Si / 1000 Ang^3
#
#
#
# Elastic Constant Matrix: (Units=GPa)
#
#
# Indices 1 2 3 4 5 6 
#
# 1 85.0425 37.8634 35.7482 0.0000 0.0000 0.0000
# 2 37.8634 184.3252 23.3874 0.0000 0.0000 0.0000
# 3 35.7482 23.3874 81.7682 0.0000 0.0000 0.0000
# 4 0.0000 0.0000 0.0000 27.9176 0.0000 0.0000
# 5 0.0000 0.0000 0.0000 0.0000 25.9658 0.0000
# 6 0.0000 0.0000 0.0000 0.0000 0.0000 21.8203
#
#
#
# Elastic Compliance Matrix: (Units=1/GPa)
#
#
# Indices 1 2 3 4 5 6 
#
# 1 0.015358 -0.002390 -0.006031 0.000000 0.000000 0.000000
# 2 -0.002390 0.006001 -0.000672 0.000000 0.000000 0.000000
# 3 -0.006031 -0.000672 0.015058 0.000000 0.000000 0.000000
# 4 0.000000 0.000000 0.000000 0.035820 0.000000 0.000000
# 5 0.000000 0.000000 0.000000 0.000000 0.038512 0.000000
# 6 0.000000 0.000000 0.000000 0.000000 0.000000 0.045829
#
#
# Mechanical properties :
#
#
# Convention : Reuss Voigt Hill
#
# Bulk Modulus (GPa) = 54.84497 60.57044 57.70770
# Shear Modulus (GPa) = 27.64870 32.08321 29.86595
#
# Velocity S-wave (km/s) = 3.69292 3.97806 3.83814
# Velocity P-wave (km/s) = 6.72574 7.13975 6.93584
#
# Compressibility (1/GPa) = 0.01823321
#
# Stress axis : x y z
#
# Youngs Moduli (GPa) = 65.11342 166.63096 66.40782
#
# Poissons Ratio (x) = 0.39817 0.40049
# Poissons Ratio (y) = 0.15559 0.04461
# Poissons Ratio (z) = 0.39269 0.11194
#
# Static dielectric constant tensor:
#      x y z
#    x 1.754510 0.000000 0.000000 
#    y 0.000000 1.713610 0.000000 
#    z 0.000000 0.000000 1.771140 
# 
# From -- ./inp_files/46328.got.cif
#   From: 2010.05.17/outbox.cif.g08.bks.cpg/sg68_24_cif.got.tgz:46328.got - 2010.06.03 18:57:09.
