data_PCOD9507279
_publ_section_title
;
Structure prediction by ZEFSAII (Michael W. Deem and Ramdas Pophale) SiO2 
 PCOD9507279
Probable space group: C C C A
;
_chemical_formula_sum "Si O2"
_cell_formula_units_Z 108
_cell_length_a 15.374549
_cell_length_b 29.805113
_cell_length_c 11.460017
_cell_angle_alpha 90.000000
_cell_angle_beta 90.000000
_cell_angle_gamma 90.000000
_cell_volume 5251.440141
_symmetry_space_group_name_H-M "C C C A"
_symmetry_group_IT_number 68
_space_group.IT_coordinate_system_code '2'
_symmetry_cell_setting 'orthorhombic'
loop_
_space_group_symop_operation_xyz
x,y,z
-x,1/2-y,z
x,1/2-y,1/2-z
-x,y,1/2-z
-x,-y,-z
x,1/2+y,-z
-x,1/2+y,1/2+z
x,-y,1/2+z
1/2+x,1/2+y,z
1/2-x,-y,z
1/2+x,-y,1/2-z
1/2-x,1/2+y,1/2-z
1/2-x,1/2-y,-z
1/2+x,y,-z
1/2-x,y,1/2+z
1/2+x,1/2-y,1/2+z
loop_
_atom_site_type_symbol
_atom_site_label
_atom_site_fract_x
_atom_site_fract_y
_atom_site_fract_z
Si Si1 0.544648 0.419602 0.419908
Si Si2 0.843100 0.706088 0.615575
Si Si3 0.720908 0.883548 0.258584
Si Si4 0.632954 0.950738 0.810850
Si Si5 0.637456 0.668235 0.867498
Si Si6 0.303424 0.750000 0.750000
Si Si7 0.411899 0.548841 0.318365
Si Si8 0.500000 0.250000 0.750000
O O1 0.603794 0.446047 0.325303
O O2 0.446887 0.433832 0.390079
O O3 0.561281 0.367692 0.385140
O O4 0.569198 0.430357 0.553414
O O5 0.811922 0.658799 0.668612
O O6 0.857060 0.698153 0.481111
O O7 0.766659 0.741120 0.646678
O O8 0.933818 0.720746 0.673126
O O9 0.787561 0.916583 0.325806
O O10 0.776095 0.862178 0.152968
O O11 0.638811 0.915319 0.238483
O O12 0.642952 0.003297 0.834317
O O13 0.639796 0.705167 0.765187
O O14 0.500000 0.536795 0.250000
#
# Coordination Sequence:
#
# PCOD9507279 Si02
#       8
#    16  16  16  16  16   8  16   4
#     4  10  21  41  62  91 132 173 219 280 327 394
#     4  10  20  41  62  95 129 168 211 271 335 394
#     4  10  23  39  62  94 130 170 216 273 318 405
#     4  10  22  42  62  89 131 181 217 271 331 392
#     4  10  20  40  64  92 135 164 220 265 334 401
#     4   9  20  37  68  94 126 164 214 265 331 405
#     4  12  23  39  64  96 131 169 233 275 335 397
#     4  10  24  40  68  92 132 166 216 286 332 394
#
# _framework density 20.565785999999999
#
# number of rings (size 3 to 8) (size 9 to 14) (size 15 to 20)
#    0.000    1.778    2.963    1.333    1.037    1.185 
#    0.000   11.852    0.000    1.778    0.000    0.000 
#    0.000    0.000    0.000    0.000    0.000    0.000 
#
# Total GULP energy -301116.109173 kJ/mol
# GULP energy per Si atom -5576.224244 kJ/mol
# Density = 2.051898 g / cm^3
# Si number density = 20.565786 Si / 1000 Ang^3
#
#
#
# Elastic Constant Matrix: (Units=GPa)
#
#
# Indices 1 2 3 4 5 6 
#
# 1 62.4149 41.7032 14.6838 0.0000 0.0000 0.0000
# 2 41.7032 111.4024 14.7413 0.0000 0.0000 0.0000
# 3 14.6838 14.7413 59.5356 0.0000 0.0000 0.0000
# 4 0.0000 0.0000 0.0000 19.7890 0.0000 0.0000
# 5 0.0000 0.0000 0.0000 0.0000 8.7274 0.0000
# 6 0.0000 0.0000 0.0000 0.0000 0.0000 19.6949
#
#
#
# Elastic Compliance Matrix: (Units=1/GPa)
#
#
# Indices 1 2 3 4 5 6 
#
# 1 0.022053 -0.007791 -0.003510 0.000000 0.000000 0.000000
# 2 -0.007791 0.012033 -0.001058 0.000000 0.000000 0.000000
# 3 -0.003510 -0.001058 0.017924 0.000000 0.000000 0.000000
# 4 0.000000 0.000000 0.000000 0.050533 0.000000 0.000000
# 5 0.000000 0.000000 0.000000 0.000000 0.114581 0.000000
# 6 0.000000 0.000000 0.000000 0.000000 0.000000 0.050775
#
#
# Mechanical properties :
#
#
# Convention : Reuss Voigt Hill
#
# Bulk Modulus (GPa) = 36.64003 41.73440 39.18721
# Shear Modulus (GPa) = 16.57190 20.45723 18.51456
#
# Velocity S-wave (km/s) = 2.84174 3.15734 3.00369
# Velocity P-wave (km/s) = 5.34995 5.79904 5.57902
#
# Compressibility (1/GPa) = 0.02729256
#
# Stress axis : x y z
#
# Youngs Moduli (GPa) = 45.34465 83.10455 55.79008
#
# Poissons Ratio (x) = 0.64748 0.19583
# Poissons Ratio (y) = 0.35329 0.05902
# Poissons Ratio (z) = 0.15916 0.08791
#
# Static dielectric constant tensor:
#      x y z
#    x 1.934290 0.000000 0.000000 
#    y 0.000000 1.751610 0.000000 
#    z 0.000000 0.000000 1.731160 
# 
# From -- ./inp_files/13638.got.cif
#   From: 2010.05.17/outbox.cif.g08.bks.cpg/sg68_7_cif.got.tgz:13638.got - 2010.06.03 18:57:09.
