data_PCOD9507593
_publ_section_title
;
Structure prediction by ZEFSAII (Michael W. Deem and Ramdas Pophale) SiO2 
 PCOD9507593
Probable space group: C C C A
;
_chemical_formula_sum "Si O2"
_cell_formula_units_Z 96
_cell_length_a 12.096523
_cell_length_b 17.242818
_cell_length_c 22.066999
_cell_angle_alpha 90.000000
_cell_angle_beta 90.000000
_cell_angle_gamma 90.000000
_cell_volume 4602.693707
_symmetry_space_group_name_H-M "C C C A"
_symmetry_group_IT_number 68
_space_group.IT_coordinate_system_code '2'
_symmetry_cell_setting 'orthorhombic'
loop_
_space_group_symop_operation_xyz
x,y,z
-x,1/2-y,z
x,1/2-y,1/2-z
-x,y,1/2-z
-x,-y,-z
x,1/2+y,-z
-x,1/2+y,1/2+z
x,-y,1/2+z
1/2+x,1/2+y,z
1/2-x,-y,z
1/2+x,-y,1/2-z
1/2-x,1/2+y,1/2-z
1/2-x,1/2-y,-z
1/2+x,y,-z
1/2-x,y,1/2+z
1/2+x,1/2-y,1/2+z
loop_
_atom_site_type_symbol
_atom_site_label
_atom_site_fract_x
_atom_site_fract_y
_atom_site_fract_z
Si Si1 0.197653 0.583030 0.698919
Si Si2 0.199405 0.917597 0.661221
Si Si3 0.514172 0.337778 0.881049
Si Si4 0.803587 0.833263 0.517533
Si Si5 0.135421 0.842551 0.382253
Si Si6 0.110142 0.841877 0.108860
O O1 0.250000 0.500000 0.682182
O O2 0.163123 0.578681 0.768948
O O3 0.092620 0.610004 0.660687
O O4 0.294954 0.642000 0.678384
O O5 0.306546 0.863610 0.661311
O O6 0.104435 0.879960 0.619513
O O7 0.250000 0.000000 0.641891
O O8 0.500000 0.250000 0.856446
O O9 0.583244 0.326615 0.943397
O O10 0.750000 0.750000 0.500000
O O11 0.712619 0.871050 0.562040
O O12 0.837352 0.871286 0.454295
O O13 0.114986 0.751302 0.392937
O O14 0.011904 0.875309 0.381895
#
# Coordination Sequence:
#
# PCOD9507593 Si02
#       6
#    16  16  16  16  16  16
#     4  10  23  42  63  86 127 169 211 261 323 381
#     4  11  25  41  60  92 129 168 208 264 326 377
#     4  11  23  40  70  98 122 168 218 272 318 384
#     4   9  19  36  63  93 126 161 202 264 321 383
#     4   9  20  37  61  90 116 164 206 253 308 379
#     4  10  21  36  61  91 123 159 207 251 310 386
#
# _framework density 20.857351000000001
#
# number of rings (size 3 to 8) (size 9 to 14) (size 15 to 20)
#    0.000    2.000    0.000    3.500    9.333    4.000 
#    0.000    5.833    0.000    0.000    0.000    0.000 
#    0.000    0.000    0.000    0.000    0.000    0.000 
#
# Total GULP energy -267475.225692 kJ/mol
# GULP energy per Si atom -5572.400535 kJ/mol
# Density = 2.080988 g / cm^3
# Si number density = 20.857351 Si / 1000 Ang^3
#
#
#
# Elastic Constant Matrix: (Units=GPa)
#
#
# Indices 1 2 3 4 5 6 
#
# 1 141.8557 24.7063 15.6974 0.0000 0.0000 0.0000
# 2 24.7063 43.6487 19.6335 0.0000 0.0000 0.0000
# 3 15.6974 19.6335 39.5085 0.0000 0.0000 0.0000
# 4 0.0000 0.0000 0.0000 19.9061 0.0000 0.0000
# 5 0.0000 0.0000 0.0000 0.0000 19.1954 0.0000
# 6 0.0000 0.0000 0.0000 0.0000 0.0000 25.9292
#
#
#
# Elastic Compliance Matrix: (Units=1/GPa)
#
#
# Indices 1 2 3 4 5 6 
#
# 1 0.007862 -0.003922 -0.001175 0.000000 0.000000 0.000000
# 2 -0.003922 0.031462 -0.014077 0.000000 0.000000 0.000000
# 3 -0.001175 -0.014077 0.032773 0.000000 0.000000 0.000000
# 4 0.000000 0.000000 0.000000 0.050236 0.000000 0.000000
# 5 0.000000 0.000000 0.000000 0.000000 0.052096 0.000000
# 6 0.000000 0.000000 0.000000 0.000000 0.000000 0.038567
#
#
# Mechanical properties :
#
#
# Convention : Reuss Voigt Hill
#
# Bulk Modulus (GPa) = 29.62903 38.34303 33.98603
# Shear Modulus (GPa) = 19.04090 24.00452 21.52271
#
# Velocity S-wave (km/s) = 3.02472 3.39616 3.21581
# Velocity P-wave (km/s) = 5.14149 5.81394 5.48803
#
# Compressibility (1/GPa) = 0.03375068
#
# Stress axis : x y z
#
# Youngs Moduli (GPa) = 127.18622 31.78457 30.51284
#
# Poissons Ratio (x) = 0.12466 0.03585
# Poissons Ratio (y) = 0.49881 0.42952
# Poissons Ratio (z) = 0.14944 0.44742
#
# Static dielectric constant tensor:
#      x y z
#    x 1.661190 0.000000 0.000000 
#    y 0.000000 2.528350 0.000000 
#    z 0.000000 0.000000 1.777690 
# 
# From -- ./inp_files/44387.got.cif
#   From: 2010.05.17/outbox.cif.g08.bks.cpg/sg68_23_cif.got.tgz:44387.got - 2010.06.03 18:57:09.
