data_PCOD9507345
_publ_section_title
;
Structure prediction by ZEFSAII (Michael W. Deem and Ramdas Pophale) SiO2 
 PCOD9507345
Probable space group: C C C A
;
_chemical_formula_sum "Si O2"
_cell_formula_units_Z 60
_cell_length_a 25.773383
_cell_length_b 8.481615
_cell_length_c 13.488300
_cell_angle_alpha 90.000000
_cell_angle_beta 90.000000
_cell_angle_gamma 90.000000
_cell_volume 2948.541191
_symmetry_space_group_name_H-M "C C C A"
_symmetry_group_IT_number 68
_space_group.IT_coordinate_system_code '2'
_symmetry_cell_setting 'orthorhombic'
loop_
_space_group_symop_operation_xyz
x,y,z
-x,1/2-y,z
x,1/2-y,1/2-z
-x,y,1/2-z
-x,-y,-z
x,1/2+y,-z
-x,1/2+y,1/2+z
x,-y,1/2+z
1/2+x,1/2+y,z
1/2-x,-y,z
1/2+x,-y,1/2-z
1/2-x,1/2+y,1/2-z
1/2-x,1/2-y,-z
1/2+x,y,-z
1/2-x,y,1/2+z
1/2+x,1/2-y,1/2+z
loop_
_atom_site_type_symbol
_atom_site_label
_atom_site_fract_x
_atom_site_fract_y
_atom_site_fract_z
Si Si1 0.500000 0.750000 0.934567
Si Si2 0.938808 0.451528 0.405877
Si Si3 0.000000 0.250000 0.250000
Si Si4 0.318111 0.588087 0.050593
Si Si5 0.723828 0.256554 0.367534
O O1 0.542838 0.632304 0.887707
O O2 0.466595 0.627958 0.999430
O O3 0.962527 0.356156 0.315356
O O4 0.878614 0.417937 0.424928
O O5 0.298680 0.419176 0.088658
O O6 0.285211 0.722367 0.109127
O O7 0.302768 0.622246 0.935581
O O8 0.715032 0.250000 0.250000
#
# Coordination Sequence:
#
# PCOD9507345 Si02
#       5
#     8  16   4  16  16
#     4   9  20  38  64  83 128 166 217 268 332 395
#     4  10  20  41  61  92 125 173 211 283 334 400
#     4  10  24  38  60 102 122 166 234 260 340 418
#     4  10  22  41  66  91 136 172 221 285 335 394
#     4  10  23  42  63 101 130 178 228 272 333 419
#
# _framework density 20.349048
#
# number of rings (size 3 to 8) (size 9 to 14) (size 15 to 20)
#    0.000    2.133    0.000    1.600    1.867    9.067 
#   19.200    0.000    0.000    0.000    0.000    0.000 
#    0.000    0.000    0.000    0.000    0.000    0.000 
#
# Total GULP energy -167115.192004 kJ/mol
# GULP energy per Si atom -5570.506400 kJ/mol
# Density = 2.030273 g / cm^3
# Si number density = 20.349048 Si / 1000 Ang^3
#
#
#
# Elastic Constant Matrix: (Units=GPa)
#
#
# Indices 1 2 3 4 5 6 
#
# 1 200.3625 61.7275 55.4324 0.0000 0.0000 0.0000
# 2 61.7275 135.6027 65.4242 0.0000 0.0000 0.0000
# 3 55.4324 65.4242 156.5078 0.0000 0.0000 0.0000
# 4 0.0000 0.0000 0.0000 43.3708 0.0000 0.0000
# 5 0.0000 0.0000 0.0000 0.0000 16.2317 0.0000
# 6 0.0000 0.0000 0.0000 0.0000 0.0000 22.7429
#
#
#
# Elastic Compliance Matrix: (Units=1/GPa)
#
#
# Indices 1 2 3 4 5 6 
#
# 1 0.005988 -0.002133 -0.001229 0.000000 0.000000 0.000000
# 2 -0.002133 0.009997 -0.003424 0.000000 0.000000 0.000000
# 3 -0.001229 -0.003424 0.008256 0.000000 0.000000 0.000000
# 4 0.000000 0.000000 0.000000 0.023057 0.000000 0.000000
# 5 0.000000 0.000000 0.000000 0.000000 0.061608 0.000000
# 6 0.000000 0.000000 0.000000 0.000000 0.000000 0.043970
#
#
# Mechanical properties :
#
#
# Convention : Reuss Voigt Hill
#
# Bulk Modulus (GPa) = 93.72249 95.29348 94.50798
# Shear Modulus (GPa) = 29.41102 37.12832 33.26967
#
# Velocity S-wave (km/s) = 3.80587 4.27614 4.04784
# Velocity P-wave (km/s) = 8.09137 8.44462 8.26988
#
# Compressibility (1/GPa) = 0.01066980
#
# Stress axis : x y z
#
# Youngs Moduli (GPa) = 166.99756 100.02860 121.12310
#
# Poissons Ratio (x) = 0.21333 0.14890
# Poissons Ratio (y) = 0.35616 0.41469
# Poissons Ratio (z) = 0.20530 0.34247
#
# Static dielectric constant tensor:
#      x y z
#    x 1.779250 0.000000 0.000000 
#    y 0.000000 1.767390 0.000000 
#    z 0.000000 0.000000 1.737370 
# 
# From -- ./inp_files/16863.got.cif
#   From: 2010.05.17/outbox.cif.g08.bks.cpg/sg68_9_cif.got.tgz:16863.got - 2010.06.03 18:57:09.
