data_PCOD9507900
_publ_section_title
;
Structure prediction by ZEFSAII (Michael W. Deem and Ramdas Pophale) SiO2 
 PCOD9507900
Probable space group: C C C A
;
_chemical_formula_sum "Si O2"
_cell_formula_units_Z 60
_cell_length_a 20.859637
_cell_length_b 27.555960
_cell_length_c 5.129484
_cell_angle_alpha 90.000000
_cell_angle_beta 90.000000
_cell_angle_gamma 90.000000
_cell_volume 2948.464965
_symmetry_space_group_name_H-M "C C C A"
_symmetry_group_IT_number 68
_space_group.IT_coordinate_system_code '2'
_symmetry_cell_setting 'orthorhombic'
loop_
_space_group_symop_operation_xyz
x,y,z
-x,1/2-y,z
x,1/2-y,1/2-z
-x,y,1/2-z
-x,-y,-z
x,1/2+y,-z
-x,1/2+y,1/2+z
x,-y,1/2+z
1/2+x,1/2+y,z
1/2-x,-y,z
1/2+x,-y,1/2-z
1/2-x,1/2+y,1/2-z
1/2-x,1/2-y,-z
1/2+x,y,-z
1/2-x,y,1/2+z
1/2+x,1/2-y,1/2+z
loop_
_atom_site_type_symbol
_atom_site_label
_atom_site_fract_x
_atom_site_fract_y
_atom_site_fract_z
Si Si1 0.858674 0.034394 0.292814
Si Si2 0.000000 0.750000 0.750000
Si Si3 0.375377 0.780772 0.009950
Si Si4 0.711231 0.867080 0.356743
Si Si5 0.500000 0.965314 0.250000
O O1 0.809260 0.076861 0.353848
O O2 0.930181 0.058821 0.273175
O O3 0.852352 0.994669 0.522178
O O4 0.951409 0.780933 0.926704
O O5 0.346223 0.750000 0.250000
O O6 0.345282 0.833422 0.033465
O O7 0.364141 0.750000 0.750000
O O8 0.768686 0.856935 0.559346
O O9 0.500000 0.000000 0.500000
#
# Coordination Sequence:
#
# PCOD9507900 Si02
#       5
#    16   4  16  16   8
#     4  10  21  39  62  88 124 165 208 260 306 355
#     4   8  22  42  70  96 118 156 202 250 340 372
#     4  10  22  42  67  91 125 156 202 262 311 376
#     4  12  26  40  60  94 126 169 218 245 305 375
#     4   8  16  33  58  82 109 148 203 250 305 352
#
# _framework density 20.349572999999999
#
# number of rings (size 3 to 8) (size 9 to 14) (size 15 to 20)
#    0.800    1.067    0.000    3.600    0.000    7.467 
#    0.000    0.000   11.733    0.000    0.000    0.000 
#    0.000    0.000    0.000    0.000    0.000    0.000 
#
# Total GULP energy -167091.851280 kJ/mol
# GULP energy per Si atom -5569.728376 kJ/mol
# Density = 2.030326 g / cm^3
# Si number density = 20.349573 Si / 1000 Ang^3
#
#
#
# Elastic Constant Matrix: (Units=GPa)
#
#
# Indices 1 2 3 4 5 6 
#
# 1 55.6646 25.5668 9.5895 0.0000 0.0000 0.0000
# 2 25.5668 63.7414 15.7068 0.0000 0.0000 0.0000
# 3 9.5895 15.7068 136.0852 0.0000 0.0000 0.0000
# 4 0.0000 0.0000 0.0000 21.3690 0.0000 0.0000
# 5 0.0000 0.0000 0.0000 0.0000 19.8553 0.0000
# 6 0.0000 0.0000 0.0000 0.0000 0.0000 35.6757
#
#
#
# Elastic Compliance Matrix: (Units=1/GPa)
#
#
# Indices 1 2 3 4 5 6 
#
# 1 0.022061 -0.008714 -0.000549 0.000000 0.000000 0.000000
# 2 -0.008714 0.019589 -0.001647 0.000000 0.000000 0.000000
# 3 -0.000549 -0.001647 0.007577 0.000000 0.000000 0.000000
# 4 0.000000 0.000000 0.000000 0.046797 0.000000 0.000000
# 5 0.000000 0.000000 0.000000 0.000000 0.050364 0.000000
# 6 0.000000 0.000000 0.000000 0.000000 0.000000 0.028030
#
#
# Mechanical properties :
#
#
# Convention : Reuss Voigt Hill
#
# Bulk Modulus (GPa) = 36.48451 39.69084 38.08767
# Shear Modulus (GPa) = 24.34576 29.02188 26.68382
#
# Velocity S-wave (km/s) = 3.46262 3.78056 3.62508
# Velocity P-wave (km/s) = 5.82702 6.21319 6.02320
#
# Compressibility (1/GPa) = 0.02740889
#
# Stress axis : x y z
#
# Youngs Moduli (GPa) = 45.32792 51.04836 131.97657
#
# Poissons Ratio (x) = 0.44482 0.07244
# Poissons Ratio (y) = 0.39497 0.21736
# Poissons Ratio (z) = 0.02488 0.08407
#
# Static dielectric constant tensor:
#      x y z
#    x 1.811450 0.000000 0.000000 
#    y 0.000000 1.692760 0.000000 
#    z 0.000000 0.000000 1.701860 
# 
# From -- ./inp_files/1415.got.cif
#   From: 2010.05.17/outbox.cif.g08.bks.cpg/sg68_1_cif.got.tgz:1415.got - 2010.06.03 18:57:09.
