data_PCOD9507919
_publ_section_title
;
Structure prediction by ZEFSAII (Michael W. Deem and Ramdas Pophale) SiO2 
 PCOD9507919
Probable space group: C C C A
;
_chemical_formula_sum "Si O2"
_cell_formula_units_Z 96
_cell_length_a 20.476997
_cell_length_b 21.194751
_cell_length_c 9.279258
_cell_angle_alpha 90.000000
_cell_angle_beta 90.000000
_cell_angle_gamma 90.000000
_cell_volume 4027.243001
_symmetry_space_group_name_H-M "C C C A"
_symmetry_group_IT_number 68
_space_group.IT_coordinate_system_code '2'
_symmetry_cell_setting 'orthorhombic'
loop_
_space_group_symop_operation_xyz
x,y,z
-x,1/2-y,z
x,1/2-y,1/2-z
-x,y,1/2-z
-x,-y,-z
x,1/2+y,-z
-x,1/2+y,1/2+z
x,-y,1/2+z
1/2+x,1/2+y,z
1/2-x,-y,z
1/2+x,-y,1/2-z
1/2-x,1/2+y,1/2-z
1/2-x,1/2-y,-z
1/2+x,y,-z
1/2-x,y,1/2+z
1/2+x,1/2-y,1/2+z
loop_
_atom_site_type_symbol
_atom_site_label
_atom_site_fract_x
_atom_site_fract_y
_atom_site_fract_z
Si Si1 0.430089 0.961319 0.177496
Si Si2 0.201358 0.059401 0.355230
Si Si3 0.115882 0.225161 0.590452
Si Si4 0.067409 0.395359 0.833877
Si Si5 0.123220 0.640635 0.037124
Si Si6 0.737004 0.360910 0.104451
O O1 0.500000 0.949546 0.250000
O O2 0.368950 0.956810 0.287788
O O3 0.431609 0.032800 0.118185
O O4 0.414952 0.911560 0.052799
O O5 0.233671 0.113199 0.253635
O O6 0.197347 0.084609 0.518517
O O7 0.250000 0.000000 0.352368
O O8 0.098162 0.250000 0.750000
O O9 0.076329 0.161834 0.555064
O O10 0.100566 0.287993 0.503170
O O11 0.191323 0.200996 0.597826
O O12 0.118898 0.380413 0.704547
O O13 0.000000 0.385725 0.750000
O O14 0.197762 0.644494 0.989307
#
# Coordination Sequence:
#
# PCOD9507919 Si02
#       6
#    16  16  16  16  16  16
#     4  10  23  41  61  92 129 166 207 257 323 388
#     4  11  22  38  64  95 129 166 213 267 319 382
#     4  10  21  39  63  90 121 161 209 259 315 373
#     4  10  22  39  62  89 119 160 209 258 307 366
#     4  10  22  39  61  90 124 159 206 262 310 375
#     4  11  22  38  62  92 125 164 209 261 320 376
#
# _framework density 23.837647
#
# number of rings (size 3 to 8) (size 9 to 14) (size 15 to 20)
#    0.000    1.667    0.000    5.000    0.000   11.000 
#    0.000    2.500    0.000    1.000    0.000    1.167 
#    0.000    0.000    0.000    0.000    0.000    0.000 
#
# Total GULP energy -268341.320258 kJ/mol
# GULP energy per Si atom -5590.444172 kJ/mol
# Density = 2.378339 g / cm^3
# Si number density = 23.837647 Si / 1000 Ang^3
#
#
#
# Elastic Constant Matrix: (Units=GPa)
#
#
# Indices 1 2 3 4 5 6 
#
# 1 94.7457 49.0884 6.2872 0.0000 0.0000 0.0000
# 2 49.0884 198.3297 29.8387 0.0000 0.0000 0.0000
# 3 6.2872 29.8387 65.4246 0.0000 0.0000 0.0000
# 4 0.0000 0.0000 0.0000 27.2754 0.0000 0.0000
# 5 0.0000 0.0000 0.0000 0.0000 23.7495 0.0000
# 6 0.0000 0.0000 0.0000 0.0000 0.0000 24.7528
#
#
#
# Elastic Compliance Matrix: (Units=1/GPa)
#
#
# Indices 1 2 3 4 5 6 
#
# 1 0.012110 -0.003030 0.000218 0.000000 0.000000 0.000000
# 2 -0.003030 0.006172 -0.002524 0.000000 0.000000 0.000000
# 3 0.000218 -0.002524 0.016415 0.000000 0.000000 0.000000
# 4 0.000000 0.000000 0.000000 0.036663 0.000000 0.000000
# 5 0.000000 0.000000 0.000000 0.000000 0.042106 0.000000
# 6 0.000000 0.000000 0.000000 0.000000 0.000000 0.040399
#
#
# Mechanical properties :
#
#
# Convention : Reuss Voigt Hill
#
# Bulk Modulus (GPa) = 41.62246 58.76984 50.19615
# Shear Modulus (GPa) = 28.97796 33.37459 31.17628
#
# Velocity S-wave (km/s) = 3.49038 3.74582 3.62036
# Velocity P-wave (km/s) = 5.80882 6.58908 6.21122
#
# Compressibility (1/GPa) = 0.02402549
#
# Stress axis : x y z
#
# Youngs Moduli (GPa) = 82.57614 162.02772 60.92076
#
# Poissons Ratio (x) = 0.49097 -0.01330
# Poissons Ratio (y) = 0.25022 0.15374
# Poissons Ratio (z) = -0.01802 0.40890
#
# Static dielectric constant tensor:
#      x y z
#    x 2.008590 0.000000 0.000000 
#    y 0.000000 1.950530 0.000000 
#    z 0.000000 0.000000 1.964980 
# 
# From -- ./inp_files/16416.got.cif
#   From: 2010.05.17/outbox.cif.g08.bks.cpg/sg68_9_cif.got.tgz:16416.got - 2010.06.03 18:57:09.
