data_PCOD9507526
_publ_section_title
;
Structure prediction by ZEFSAII (Michael W. Deem and Ramdas Pophale) SiO2 
 PCOD9507526
Probable space group: C C C A
;
_chemical_formula_sum "Si O2"
_cell_formula_units_Z 80
_cell_length_a 12.199317
_cell_length_b 25.432273
_cell_length_c 13.805498
_cell_angle_alpha 90.000000
_cell_angle_beta 90.000000
_cell_angle_gamma 90.000000
_cell_volume 4283.243562
_symmetry_space_group_name_H-M "C C C A"
_symmetry_group_IT_number 68
_space_group.IT_coordinate_system_code '2'
_symmetry_cell_setting 'orthorhombic'
loop_
_space_group_symop_operation_xyz
x,y,z
-x,1/2-y,z
x,1/2-y,1/2-z
-x,y,1/2-z
-x,-y,-z
x,1/2+y,-z
-x,1/2+y,1/2+z
x,-y,1/2+z
1/2+x,1/2+y,z
1/2-x,-y,z
1/2+x,-y,1/2-z
1/2-x,1/2+y,1/2-z
1/2-x,1/2-y,-z
1/2+x,y,-z
1/2-x,y,1/2+z
1/2+x,1/2-y,1/2+z
loop_
_atom_site_type_symbol
_atom_site_label
_atom_site_fract_x
_atom_site_fract_y
_atom_site_fract_z
Si Si1 0.850191 0.193283 0.201559
Si Si2 0.896545 0.441427 0.456679
Si Si3 0.056677 0.853025 0.613985
Si Si4 0.810175 0.366174 0.925927
Si Si5 0.036934 0.956518 0.358885
O O1 0.844311 0.250000 0.250000
O O2 0.872993 0.151267 0.287888
O O3 0.743914 0.177622 0.141618
O O4 0.956621 0.187408 0.132567
O O5 0.789379 0.405387 0.454709
O O6 0.888943 0.495675 0.398666
O O7 0.995327 0.408090 0.406577
O O8 0.935561 0.453599 0.565753
O O9 0.131957 0.843179 0.521231
O O10 0.897668 0.402087 0.869839
O O11 0.000000 0.965676 0.250000
#
# Coordination Sequence:
#
# PCOD9507526 Si02
#       5
#    16  16  16  16  16
#     4  10  21  38  62  86 111 151 202 241 296 354
#     4   9  20  37  52  85 119 154 193 232 284 353
#     4   9  19  36  59  81 118 149 188 242 290 347
#     4  10  21  36  58  86 115 153 196 241 289 349
#     4  10  21  35  56  82 121 155 191 238 289 340
#
# _framework density 18.677433000000001
#
# number of rings (size 3 to 8) (size 9 to 14) (size 15 to 20)
#    0.000    2.400    0.000    1.800    8.400    0.800 
#    0.000    2.000    0.000    0.000    0.000    0.000 
#    0.000    0.000    0.000    0.000    0.000    0.000 
#
# Total GULP energy -223137.455121 kJ/mol
# GULP energy per Si atom -5578.436378 kJ/mol
# Density = 1.863492 g / cm^3
# Si number density = 18.677433 Si / 1000 Ang^3
#
#
#
# Elastic Constant Matrix: (Units=GPa)
#
#
# Indices 1 2 3 4 5 6 
#
# 1 66.7686 23.2574 57.8449 0.0000 0.0000 0.0000
# 2 23.2574 69.3813 49.1578 0.0000 0.0000 0.0000
# 3 57.8449 49.1578 141.3602 0.0000 0.0000 0.0000
# 4 0.0000 0.0000 0.0000 32.3329 0.0000 0.0000
# 5 0.0000 0.0000 0.0000 0.0000 33.5750 0.0000
# 6 0.0000 0.0000 0.0000 0.0000 0.0000 18.8083
#
#
#
# Elastic Compliance Matrix: (Units=1/GPa)
#
#
# Indices 1 2 3 4 5 6 
#
# 1 0.023305 -0.001400 -0.009049 0.000000 0.000000 0.000000
# 2 -0.001400 0.019209 -0.006107 0.000000 0.000000 0.000000
# 3 -0.009049 -0.006107 0.012901 0.000000 0.000000 0.000000
# 4 0.000000 0.000000 0.000000 0.030928 0.000000 0.000000
# 5 0.000000 0.000000 0.000000 0.000000 0.029784 0.000000
# 6 0.000000 0.000000 0.000000 0.000000 0.000000 0.053168
#
#
# Mechanical properties :
#
#
# Convention : Reuss Voigt Hill
#
# Bulk Modulus (GPa) = 44.83996 59.78114 52.31055
# Shear Modulus (GPa) = 23.82735 26.75991 25.29363
#
# Velocity S-wave (km/s) = 3.57561 3.78926 3.68399
# Velocity P-wave (km/s) = 6.41142 7.15691 6.79440
#
# Compressibility (1/GPa) = 0.02230154
#
# Stress axis : x y z
#
# Youngs Moduli (GPa) = 42.90951 52.05776 77.51421
#
# Poissons Ratio (x) = 0.07290 0.70146
# Poissons Ratio (y) = 0.06009 0.47338
# Poissons Ratio (z) = 0.38831 0.31792
#
# Static dielectric constant tensor:
#      x y z
#    x 1.654060 0.000000 0.000000 
#    y 0.000000 1.647160 0.000000 
#    z 0.000000 0.000000 1.630550 
# 
# From -- ./inp_files/11966.got.cif
#   From: 2010.05.17/outbox.cif.g08.bks.cpg/sg68_6_cif.got.tgz:11966.got - 2010.06.03 18:57:09.
