data_PCOD9507692
_publ_section_title
;
Structure prediction by ZEFSAII (Michael W. Deem and Ramdas Pophale) SiO2 
 PCOD9507692
Probable space group: C C C A
;
_chemical_formula_sum "Si O2"
_cell_formula_units_Z 88
_cell_length_a 17.024109
_cell_length_b 9.734002
_cell_length_c 21.734673
_cell_angle_alpha 90.000000
_cell_angle_beta 90.000000
_cell_angle_gamma 90.000000
_cell_volume 3601.711587
_symmetry_space_group_name_H-M "C C C A"
_symmetry_group_IT_number 68
_space_group.IT_coordinate_system_code '2'
_symmetry_cell_setting 'orthorhombic'
loop_
_space_group_symop_operation_xyz
x,y,z
-x,1/2-y,z
x,1/2-y,1/2-z
-x,y,1/2-z
-x,-y,-z
x,1/2+y,-z
-x,1/2+y,1/2+z
x,-y,1/2+z
1/2+x,1/2+y,z
1/2-x,-y,z
1/2+x,-y,1/2-z
1/2-x,1/2+y,1/2-z
1/2-x,1/2-y,-z
1/2+x,y,-z
1/2-x,y,1/2+z
1/2+x,1/2-y,1/2+z
loop_
_atom_site_type_symbol
_atom_site_label
_atom_site_fract_x
_atom_site_fract_y
_atom_site_fract_z
Si Si1 0.629056 0.509023 0.126339
Si Si2 0.543891 0.445676 0.380755
Si Si3 0.406454 0.722629 0.057712
Si Si4 0.673874 0.745511 0.928352
Si Si5 0.750000 0.500000 0.861647
Si Si6 0.117235 0.414061 0.736561
O O1 0.545030 0.459214 0.098363
O O2 0.625504 0.666472 0.106547
O O3 0.688600 0.396357 0.098989
O O4 0.629069 0.490876 0.199426
O O5 0.589503 0.572310 0.412373
O O6 0.593009 0.313351 0.398828
O O7 0.541716 0.443282 0.306489
O O8 0.500000 0.750000 0.042568
O O9 0.349883 0.740966 0.999278
O O10 0.737272 0.632279 0.906395
O O11 0.819036 0.471737 0.812078
O O12 0.124127 0.250000 0.750000
#
# Coordination Sequence:
#
# PCOD9507692 Si02
#       6
#    16  16  16  16   8  16
#     4  11  21  38  68  99 131 175 220 276 362 415
#     4  10  21  37  65 104 134 166 221 285 342 421
#     4  10  22  39  61 101 145 173 209 278 355 416
#     4  11  21  40  65  90 133 183 228 278 333 412
#     4  10  24  44  62  92 128 172 244 296 320 390
#     4  11  22  43  67  92 129 176 231 285 341 408
#
# _framework density 24.432827
#
# number of rings (size 3 to 8) (size 9 to 14) (size 15 to 20)
#    0.000    1.455    3.636    3.273    0.000    4.364 
#    6.545   11.818    0.000    0.000    0.000    0.000 
#    0.000    0.000    0.000    0.000    0.000    0.000 
#
# Total GULP energy -245694.866893 kJ/mol
# GULP energy per Si atom -5583.974248 kJ/mol
# Density = 2.437722 g / cm^3
# Si number density = 24.432827 Si / 1000 Ang^3
#
#
#
# Elastic Constant Matrix: (Units=GPa)
#
#
# Indices 1 2 3 4 5 6 
#
# 1 71.8839 43.0327 8.2678 0.0000 0.0000 0.0000
# 2 43.0327 172.8140 61.7413 0.0000 0.0000 0.0000
# 3 8.2678 61.7413 171.2747 0.0000 0.0000 0.0000
# 4 0.0000 0.0000 0.0000 104.5137 0.0000 0.0000
# 5 0.0000 0.0000 0.0000 0.0000 31.4089 0.0000
# 6 0.0000 0.0000 0.0000 0.0000 0.0000 40.4691
#
#
#
# Elastic Compliance Matrix: (Units=1/GPa)
#
#
# Indices 1 2 3 4 5 6 
#
# 1 0.016439 -0.004373 0.000783 0.000000 0.000000 0.000000
# 2 -0.004373 0.007805 -0.002603 0.000000 0.000000 0.000000
# 3 0.000783 -0.002603 0.006739 0.000000 0.000000 0.000000
# 4 0.000000 0.000000 0.000000 0.009568 0.000000 0.000000
# 5 0.000000 0.000000 0.000000 0.000000 0.031838 0.000000
# 6 0.000000 0.000000 0.000000 0.000000 0.000000 0.024710
#
#
# Mechanical properties :
#
#
# Convention : Reuss Voigt Hill
#
# Bulk Modulus (GPa) = 53.76990 71.33958 62.55474
# Shear Modulus (GPa) = 43.22068 55.47371 49.34719
#
# Velocity S-wave (km/s) = 4.21046 4.77010 4.49899
# Velocity P-wave (km/s) = 6.75961 7.72011 7.25577
#
# Compressibility (1/GPa) = 0.01859777
#
# Stress axis : x y z
#
# Youngs Moduli (GPa) = 60.82974 128.11644 148.39078
#
# Poissons Ratio (x) = 0.56029 -0.11618
# Poissons Ratio (y) = 0.26603 0.38620
# Poissons Ratio (z) = -0.04763 0.33343
#
# Static dielectric constant tensor:
#      x y z
#    x 2.189770 0.000000 0.000000 
#    y 0.000000 1.883610 0.000000 
#    z 0.000000 0.000000 1.923960 
# 
# From -- ./inp_files/40733.got.cif
#   From: 2010.05.17/outbox.cif.g08.bks.cpg/sg68_21_cif.got.tgz:40733.got - 2010.06.03 18:57:09.
