data_PCOD9507897
_publ_section_title
;
Structure prediction by ZEFSAII (Michael W. Deem and Ramdas Pophale) SiO2 
 PCOD9507897
Probable space group: C C C A
;
_chemical_formula_sum "Si O2"
_cell_formula_units_Z 48
_cell_length_a 4.903501
_cell_length_b 13.953851
_cell_length_c 32.132651
_cell_angle_alpha 90.000000
_cell_angle_beta 90.000000
_cell_angle_gamma 90.000000
_cell_volume 2198.603457
_symmetry_space_group_name_H-M "C C C A"
_symmetry_group_IT_number 68
_space_group.IT_coordinate_system_code '2'
_symmetry_cell_setting 'orthorhombic'
loop_
_space_group_symop_operation_xyz
x,y,z
-x,1/2-y,z
x,1/2-y,1/2-z
-x,y,1/2-z
-x,-y,-z
x,1/2+y,-z
-x,1/2+y,1/2+z
x,-y,1/2+z
1/2+x,1/2+y,z
1/2-x,-y,z
1/2+x,-y,1/2-z
1/2-x,1/2+y,1/2-z
1/2-x,1/2-y,-z
1/2+x,y,-z
1/2-x,y,1/2+z
1/2+x,1/2-y,1/2+z
loop_
_atom_site_type_symbol
_atom_site_label
_atom_site_fract_x
_atom_site_fract_y
_atom_site_fract_z
Si Si1 0.250000 0.500000 0.031869
Si Si2 0.998762 0.635761 0.899014
Si Si3 0.496290 0.135460 0.346152
Si Si4 0.750000 0.000000 0.777883
O O1 0.150022 0.415818 0.062977
O O2 0.500000 0.500000 0.000000
O O3 0.811562 0.611917 0.858988
O O4 0.000000 0.750000 0.906025
O O5 0.306605 0.610911 0.885614
O O6 0.500000 0.250000 0.340055
O O7 0.614135 0.080504 0.306954
O O8 0.500000 0.038407 0.750000
#
# Coordination Sequence:
#
# PCOD9507897 Si02
#       4
#     8  16  16   8
#     4  12  24  36  56  88 122 152 186 244 312 362
#     4  10  21  39  62  83 111 156 205 246 288 355
#     4  10  21  40  63  85 113 158 208 247 291 358
#     4  12  24  38  60  92 128 158 192 252 318 370
#
# _framework density 21.832039000000002
#
# number of rings (size 3 to 8) (size 9 to 14) (size 15 to 20)
#    0.000    1.333    0.000    6.000    0.000    2.000 
#    0.000    1.667    0.000    0.000    0.000    0.000 
#    0.000    0.000    0.000    0.000    0.000    0.000 
#
# Total GULP energy -134068.389208 kJ/mol
# GULP energy per Si atom -5586.182884 kJ/mol
# Density = 2.178235 g / cm^3
# Si number density = 21.832039 Si / 1000 Ang^3
#
#
#
# Elastic Constant Matrix: (Units=GPa)
#
#
# Indices 1 2 3 4 5 6 
#
# 1 156.4804 26.1624 53.4776 0.0000 0.0000 0.0000
# 2 26.1624 117.9416 53.1257 0.0000 0.0000 0.0000
# 3 53.4776 53.1257 125.9733 0.0000 0.0000 0.0000
# 4 0.0000 0.0000 0.0000 0.6927 0.0000 0.0000
# 5 0.0000 0.0000 0.0000 0.0000 38.4269 0.0000
# 6 0.0000 0.0000 0.0000 0.0000 0.0000 32.2032
#
#
#
# Elastic Compliance Matrix: (Units=1/GPa)
#
#
# Indices 1 2 3 4 5 6 
#
# 1 0.007483 -0.000283 -0.003057 0.000000 0.000000 0.000000
# 2 -0.000283 0.010478 -0.004299 0.000000 0.000000 0.000000
# 3 -0.003057 -0.004299 0.011049 0.000000 0.000000 0.000000
# 4 0.000000 0.000000 0.000000 1.443606 0.000000 0.000000
# 5 0.000000 0.000000 0.000000 0.000000 0.026023 0.000000
# 6 0.000000 0.000000 0.000000 0.000000 0.000000 0.031053
#
#
# Mechanical properties :
#
#
# Convention : Reuss Voigt Hill
#
# Bulk Modulus (GPa) = 72.82270 73.99186 73.40728
# Shear Modulus (GPa) = 3.22675 32.10653 17.66664
#
# Velocity S-wave (km/s) = 1.21704 3.83902 2.84774
# Velocity P-wave (km/s) = 5.95006 7.32228 6.67154
#
# Compressibility (1/GPa) = 0.01373198
#
# Stress axis : x y z
#
# Youngs Moduli (GPa) = 133.64190 95.43998 90.50667
#
# Poissons Ratio (x) = 0.02698 0.27670
# Poissons Ratio (y) = 0.03778 0.38906
# Poissons Ratio (z) = 0.40858 0.41027
#
# Static dielectric constant tensor:
#      x y z
#    x 1.768360 0.000000 0.000000 
#    y 0.000000 1.798240 0.000000 
#    z 0.000000 0.000000 1.840910 
# 
# From -- ./inp_files/47851.got.cif
#   From: 2010.05.17/outbox.cif.g08.bks.cpg/sg68_24_cif.got.tgz:47851.got - 2010.06.03 18:57:09.
