data_PCOD9507614
_publ_section_title
;
Structure prediction by ZEFSAII (Michael W. Deem and Ramdas Pophale) SiO2 
 PCOD9507614
Probable space group: C C C A
;
_chemical_formula_sum "Si O2"
_cell_formula_units_Z 96
_cell_length_a 27.720308
_cell_length_b 9.916640
_cell_length_c 15.215606
_cell_angle_alpha 90.000000
_cell_angle_beta 90.000000
_cell_angle_gamma 90.000000
_cell_volume 4182.653159
_symmetry_space_group_name_H-M "C C C A"
_symmetry_group_IT_number 68
_space_group.IT_coordinate_system_code '2'
_symmetry_cell_setting 'orthorhombic'
loop_
_space_group_symop_operation_xyz
x,y,z
-x,1/2-y,z
x,1/2-y,1/2-z
-x,y,1/2-z
-x,-y,-z
x,1/2+y,-z
-x,1/2+y,1/2+z
x,-y,1/2+z
1/2+x,1/2+y,z
1/2-x,-y,z
1/2+x,-y,1/2-z
1/2-x,1/2+y,1/2-z
1/2-x,1/2-y,-z
1/2+x,y,-z
1/2-x,y,1/2+z
1/2+x,1/2-y,1/2+z
loop_
_atom_site_type_symbol
_atom_site_label
_atom_site_fract_x
_atom_site_fract_y
_atom_site_fract_z
Si Si1 0.572343 0.965164 0.598116
Si Si2 0.379985 0.890440 0.720989
Si Si3 0.342966 0.810694 0.000783
Si Si4 0.473619 0.468116 0.345278
Si Si5 0.414114 0.741050 0.356747
Si Si6 0.698483 0.544532 0.591228
O O1 0.517346 0.916350 0.596179
O O2 0.565565 0.127094 0.592733
O O3 0.599064 0.957459 0.692569
O O4 0.608712 0.878781 0.539596
O O5 0.357430 0.750000 0.750000
O O6 0.341987 0.972810 0.665998
O O7 0.428491 0.866791 0.663792
O O8 0.361761 0.764776 0.096508
O O9 0.308185 0.937031 0.013453
O O10 0.316511 0.691269 0.948065
O O11 0.500000 0.485233 0.250000
O O12 0.447728 0.608631 0.370426
O O13 0.411965 0.750000 0.250000
O O14 0.750000 0.500000 0.628707
#
# Coordination Sequence:
#
# PCOD9507614 Si02
#       6
#    16  16  16  16  16  16
#     4  11  23  39  68 103 141 184 234 286 360 435
#     4  11  22  43  68  98 142 177 230 289 353 427
#     4  12  25  46  71 100 142 182 233 308 360 419
#     4  10  21  36  67 101 140 193 231 280 353 431
#     4  12  21  40  68  97 140 189 242 279 349 424
#     4  12  26  49  72  99 133 184 236 301 366 422
#
# _framework density 22.951938999999999
#
# number of rings (size 3 to 8) (size 9 to 14) (size 15 to 20)
#    0.000    0.667    8.333    1.000    0.000    3.667 
#    0.000    3.333    0.000    0.000    0.000    0.000 
#    0.000    0.000    0.000    0.000    0.000    0.000 
#
# Total GULP energy -267587.442658 kJ/mol
# GULP energy per Si atom -5574.738389 kJ/mol
# Density = 2.289970 g / cm^3
# Si number density = 22.951939 Si / 1000 Ang^3
#
#
#
# Elastic Constant Matrix: (Units=GPa)
#
#
# Indices 1 2 3 4 5 6 
#
# 1 110.4741 13.8668 27.5334 0.0000 0.0000 0.0000
# 2 13.8668 61.8792 16.1622 0.0000 0.0000 0.0000
# 3 27.5334 16.1622 49.6777 0.0000 0.0000 0.0000
# 4 0.0000 0.0000 0.0000 16.4011 0.0000 0.0000
# 5 0.0000 0.0000 0.0000 0.0000 25.6481 0.0000
# 6 0.0000 0.0000 0.0000 0.0000 0.0000 21.9148
#
#
#
# Elastic Compliance Matrix: (Units=1/GPa)
#
#
# Indices 1 2 3 4 5 6 
#
# 1 0.010550 -0.000915 -0.005550 0.000000 0.000000 0.000000
# 2 -0.000915 0.017741 -0.005265 0.000000 0.000000 0.000000
# 3 -0.005550 -0.005265 0.024918 0.000000 0.000000 0.000000
# 4 0.000000 0.000000 0.000000 0.060971 0.000000 0.000000
# 5 0.000000 0.000000 0.000000 0.000000 0.038989 0.000000
# 6 0.000000 0.000000 0.000000 0.000000 0.000000 0.045631
#
#
# Mechanical properties :
#
#
# Convention : Reuss Voigt Hill
#
# Bulk Modulus (GPa) = 33.61256 37.46175 35.53715
# Shear Modulus (GPa) = 21.53542 23.75738 22.64640
#
# Velocity S-wave (km/s) = 3.06646 3.22078 3.14457
# Velocity P-wave (km/s) = 5.21672 5.49440 5.35736
#
# Compressibility (1/GPa) = 0.02975079
#
# Stress axis : x y z
#
# Youngs Moduli (GPa) = 94.78824 56.36784 40.13094
#
# Poissons Ratio (x) = 0.05156 0.22271
# Poissons Ratio (y) = 0.08670 0.21128
# Poissons Ratio (z) = 0.52603 0.29676
#
# Static dielectric constant tensor:
#      x y z
#    x 1.888240 0.000000 0.000000 
#    y 0.000000 2.001390 0.000000 
#    z 0.000000 0.000000 1.950060 
# 
# From -- ./inp_files/40842.got.cif
#   From: 2010.05.17/outbox.cif.g08.bks.cpg/sg68_21_cif.got.tgz:40842.got - 2010.06.03 18:57:09.
