data_PCOD9507830
_publ_section_title
;
Structure prediction by ZEFSAII (Michael W. Deem and Ramdas Pophale) SiO2 
 PCOD9507830
Probable space group: C C C A
;
_chemical_formula_sum "Si O2"
_cell_formula_units_Z 88
_cell_length_a 16.625597
_cell_length_b 15.892041
_cell_length_c 17.422733
_cell_angle_alpha 90.000000
_cell_angle_beta 90.000000
_cell_angle_gamma 90.000000
_cell_volume 4603.341636
_symmetry_space_group_name_H-M "C C C A"
_symmetry_group_IT_number 68
_space_group.IT_coordinate_system_code '2'
_symmetry_cell_setting 'orthorhombic'
loop_
_space_group_symop_operation_xyz
x,y,z
-x,1/2-y,z
x,1/2-y,1/2-z
-x,y,1/2-z
-x,-y,-z
x,1/2+y,-z
-x,1/2+y,1/2+z
x,-y,1/2+z
1/2+x,1/2+y,z
1/2-x,-y,z
1/2+x,-y,1/2-z
1/2-x,1/2+y,1/2-z
1/2-x,1/2-y,-z
1/2+x,y,-z
1/2-x,y,1/2+z
1/2+x,1/2-y,1/2+z
loop_
_atom_site_type_symbol
_atom_site_label
_atom_site_fract_x
_atom_site_fract_y
_atom_site_fract_z
Si Si1 0.845584 0.250000 0.750000
Si Si2 0.500000 0.750000 0.922831
Si Si3 0.746434 0.322450 0.890137
Si Si4 0.250000 0.000000 0.943371
Si Si5 0.867552 0.791586 0.970212
Si Si6 0.455869 0.395517 0.323873
Si Si7 0.084918 0.978834 0.542784
O O1 0.793938 0.289975 0.817499
O O2 0.896628 0.324490 0.710416
O O3 0.485153 0.834083 0.873532
O O4 0.574148 0.765592 0.978487
O O5 0.733542 0.421154 0.888333
O O6 0.669689 0.263604 0.903139
O O7 0.798174 0.315153 0.968880
O O8 0.167976 0.003356 0.995349
O O9 0.910079 0.877888 0.944507
O O10 0.500000 0.433892 0.250000
O O11 0.417737 0.463869 0.380513
O O12 0.000000 0.000000 0.500000
#
# Coordination Sequence:
#
# PCOD9507830 Si02
#       7
#     8   8  16   8  16  16  16
#     4  12  23  40  64  95 128 166 216 276 347 390
#     4  12  17  36  66  91 120 164 216 274 321 378
#     4  10  22  41  62  92 128 164 214 268 330 395
#     4  10  24  44  66  98 128 170 230 270 324 398
#     4  10  21  38  66  92 123 168 214 265 323 393
#     4  12  22  37  62  97 129 166 220 281 337 390
#     4  11  24  40  66  98 133 172 224 276 331 396
#
# _framework density 19.116548000000002
#
# number of rings (size 3 to 8) (size 9 to 14) (size 15 to 20)
#    0.000    1.091    5.455    1.091    7.636    0.000 
#    3.273    0.000    0.000    0.000    0.000    0.000 
#    0.000    0.000    0.000    0.000    0.000    0.000 
#
# Total GULP energy -245270.899124 kJ/mol
# GULP energy per Si atom -5574.338616 kJ/mol
# Density = 1.907304 g / cm^3
# Si number density = 19.116548 Si / 1000 Ang^3
#
#
#
# Elastic Constant Matrix: (Units=GPa)
#
#
# Indices 1 2 3 4 5 6 
#
# 1 86.6258 42.7896 37.7036 0.0000 0.0000 0.0000
# 2 42.7896 133.0287 68.0402 0.0000 0.0000 0.0000
# 3 37.7036 68.0402 100.1004 0.0000 0.0000 0.0000
# 4 0.0000 0.0000 0.0000 26.0380 0.0000 0.0000
# 5 0.0000 0.0000 0.0000 0.0000 34.5628 0.0000
# 6 0.0000 0.0000 0.0000 0.0000 0.0000 28.4933
#
#
#
# Elastic Compliance Matrix: (Units=1/GPa)
#
#
# Indices 1 2 3 4 5 6 
#
# 1 0.014486 -0.002865 -0.003509 0.000000 0.000000 0.000000
# 2 -0.002865 0.012090 -0.007139 0.000000 0.000000 0.000000
# 3 -0.003509 -0.007139 0.016164 0.000000 0.000000 0.000000
# 4 0.000000 0.000000 0.000000 0.038405 0.000000 0.000000
# 5 0.000000 0.000000 0.000000 0.000000 0.028933 0.000000
# 6 0.000000 0.000000 0.000000 0.000000 0.000000 0.035096
#
#
# Mechanical properties :
#
#
# Convention : Reuss Voigt Hill
#
# Bulk Modulus (GPa) = 63.63346 68.53574 66.08460
# Shear Modulus (GPa) = 28.17886 29.23359 28.70623
#
# Velocity S-wave (km/s) = 3.84351 3.91478 3.87931
# Velocity P-wave (km/s) = 7.28396 7.50755 7.39660
#
# Compressibility (1/GPa) = 0.01571500
#
# Stress axis : x y z
#
# Youngs Moduli (GPa) = 69.03055 82.71380 61.86587
#
# Poissons Ratio (x) = 0.23696 0.21709
# Poissons Ratio (y) = 0.19776 0.44164
# Poissons Ratio (z) = 0.24224 0.59047
#
# Static dielectric constant tensor:
#      x y z
#    x 1.719770 0.000000 0.000000 
#    y 0.000000 1.738340 0.000000 
#    z 0.000000 0.000000 1.656840 
# 
# From -- ./inp_files/30970.got.cif
#   From: 2010.05.17/outbox.cif.g08.bks.cpg/sg68_16_cif.got.tgz:30970.got - 2010.06.03 18:57:09.
