data_PCOD9507433
_publ_section_title
;
Structure prediction by ZEFSAII (Michael W. Deem and Ramdas Pophale) SiO2 
 PCOD9507433
Probable space group: C C C A
;
_chemical_formula_sum "Si O2"
_cell_formula_units_Z 96
_cell_length_a 14.763502
_cell_length_b 15.811035
_cell_length_c 19.658009
_cell_angle_alpha 90.000000
_cell_angle_beta 90.000000
_cell_angle_gamma 90.000000
_cell_volume 4588.695261
_symmetry_space_group_name_H-M "C C C A"
_symmetry_group_IT_number 68
_space_group.IT_coordinate_system_code '2'
_symmetry_cell_setting 'orthorhombic'
loop_
_space_group_symop_operation_xyz
x,y,z
-x,1/2-y,z
x,1/2-y,1/2-z
-x,y,1/2-z
-x,-y,-z
x,1/2+y,-z
-x,1/2+y,1/2+z
x,-y,1/2+z
1/2+x,1/2+y,z
1/2-x,-y,z
1/2+x,-y,1/2-z
1/2-x,1/2+y,1/2-z
1/2-x,1/2-y,-z
1/2+x,y,-z
1/2-x,y,1/2+z
1/2+x,1/2-y,1/2+z
loop_
_atom_site_type_symbol
_atom_site_label
_atom_site_fract_x
_atom_site_fract_y
_atom_site_fract_z
Si Si1 0.401907 0.130113 0.772704
Si Si2 0.179599 0.433569 0.362602
Si Si3 0.699382 0.191180 0.445426
Si Si4 0.721234 0.195912 0.183102
Si Si5 0.930859 0.063774 0.688360
Si Si6 0.955084 0.443187 0.558955
O O1 0.500000 0.162895 0.750000
O O2 0.353640 0.120714 0.699894
O O3 0.329669 0.178706 0.819699
O O4 0.418054 0.037126 0.804415
O O5 0.250000 0.500000 0.332274
O O6 0.228899 0.378216 0.419065
O O7 0.104140 0.490346 0.397589
O O8 0.750000 0.250000 0.500000
O O9 0.683831 0.251987 0.380839
O O10 0.610176 0.134971 0.464089
O O11 0.703477 0.250000 0.250000
O O12 0.665173 0.109970 0.192534
O O13 0.000000 0.088065 0.750000
O O14 0.973016 0.087295 0.615216
O O15 0.000000 0.500000 0.500000
#
# Coordination Sequence:
#
# PCOD9507433 Si02
#       6
#    16  16  16  16  16  16
#     4  11  22  41  70 100 128 174 229 279 339 416
#     4  10  20  44  69  92 132 175 217 274 336 408
#     4  11  27  45  64  97 141 180 223 284 353 406
#     4  12  25  42  66 100 138 173 217 288 353 405
#     4  11  23  42  71  99 129 174 228 280 339 415
#     4  11  25  45  70  97 131 184 235 278 338 417
#
# _framework density 20.920978999999999
#
# number of rings (size 3 to 8) (size 9 to 14) (size 15 to 20)
#    0.000    1.000    5.000    2.500    4.667    2.667 
#    0.000    1.667    0.000    0.000    0.000    0.000 
#    0.000    0.000    0.000    0.000    0.000    0.000 
#
# Total GULP energy -267985.123057 kJ/mol
# GULP energy per Si atom -5583.023397 kJ/mol
# Density = 2.087336 g / cm^3
# Si number density = 20.920979 Si / 1000 Ang^3
#
#
#
# Elastic Constant Matrix: (Units=GPa)
#
#
# Indices 1 2 3 4 5 6 
#
# 1 115.1920 50.8542 35.7657 0.0000 0.0000 0.0000
# 2 50.8542 111.8894 25.4146 0.0000 0.0000 0.0000
# 3 35.7657 25.4146 97.2625 0.0000 0.0000 0.0000
# 4 0.0000 0.0000 0.0000 0.3215 0.0000 0.0000
# 5 0.0000 0.0000 0.0000 0.0000 6.7677 0.0000
# 6 0.0000 0.0000 0.0000 0.0000 0.0000 11.7353
#
#
#
# Elastic Compliance Matrix: (Units=1/GPa)
#
#
# Indices 1 2 3 4 5 6 
#
# 1 0.011673 -0.004604 -0.003089 0.000000 0.000000 0.000000
# 2 -0.004604 0.011317 -0.001264 0.000000 0.000000 0.000000
# 3 -0.003089 -0.001264 0.011748 0.000000 0.000000 0.000000
# 4 0.000000 0.000000 0.000000 3.109944 0.000000 0.000000
# 5 0.000000 0.000000 0.000000 0.000000 0.147761 0.000000
# 6 0.000000 0.000000 0.000000 0.000000 0.000000 0.085213
#
#
# Mechanical properties :
#
#
# Convention : Reuss Voigt Hill
#
# Bulk Modulus (GPa) = 59.44248 60.93477 60.18862
# Shear Modulus (GPa) = 1.47008 17.91887 9.69448
#
# Velocity S-wave (km/s) = 0.83917 2.92978 2.15497
# Velocity P-wave (km/s) = 5.42342 6.37450 5.91809
#
# Compressibility (1/GPa) = 0.01682299
#
# Stress axis : x y z
#
# Youngs Moduli (GPa) = 85.66964 88.36337 85.12191
#
# Poissons Ratio (x) = 0.40679 0.26298
# Poissons Ratio (y) = 0.39439 0.10762
# Poissons Ratio (z) = 0.26467 0.11171
#
# Static dielectric constant tensor:
#      x y z
#    x 1.916580 0.000000 0.000000 
#    y 0.000000 1.771000 0.000000 
#    z 0.000000 0.000000 1.742490 
# 
# From -- ./inp_files/38576.got.cif
#   From: 2010.05.17/outbox.cif.g08.bks.cpg/sg68_20_cif.got.tgz:38576.got - 2010.06.03 18:57:09.
