data_PCOD9507316
_publ_section_title
;
Structure prediction by ZEFSAII (Michael W. Deem and Ramdas Pophale) SiO2 
 PCOD9507316
Probable space group: C C C A
;
_chemical_formula_sum "Si O2"
_cell_formula_units_Z 116
_cell_length_a 9.216696
_cell_length_b 23.526658
_cell_length_c 26.447980
_cell_angle_alpha 90.000000
_cell_angle_beta 90.000000
_cell_angle_gamma 90.000000
_cell_volume 5734.928533
_symmetry_space_group_name_H-M "C C C A"
_symmetry_group_IT_number 68
_space_group.IT_coordinate_system_code '2'
_symmetry_cell_setting 'orthorhombic'
loop_
_space_group_symop_operation_xyz
x,y,z
-x,1/2-y,z
x,1/2-y,1/2-z
-x,y,1/2-z
-x,-y,-z
x,1/2+y,-z
-x,1/2+y,1/2+z
x,-y,1/2+z
1/2+x,1/2+y,z
1/2-x,-y,z
1/2+x,-y,1/2-z
1/2-x,1/2+y,1/2-z
1/2-x,1/2-y,-z
1/2+x,y,-z
1/2-x,y,1/2+z
1/2+x,1/2-y,1/2+z
loop_
_atom_site_type_symbol
_atom_site_label
_atom_site_fract_x
_atom_site_fract_y
_atom_site_fract_z
Si Si1 0.500000 0.750000 0.250000
Si Si2 0.018745 0.136341 0.986283
Si Si3 0.631711 0.391522 0.863554
Si Si4 0.874718 0.290303 0.598423
Si Si5 0.825280 0.060152 0.243402
Si Si6 0.298059 0.936748 0.470311
Si Si7 0.337341 0.656989 0.319606
Si Si8 0.627581 0.787402 0.075303
O O1 0.406205 0.707355 0.285307
O O2 0.959238 0.165037 0.936103
O O3 0.183780 0.114803 0.982414
O O4 0.935012 0.078144 0.995968
O O5 0.962224 0.178438 0.031580
O O6 0.699844 0.417362 0.813449
O O7 0.655182 0.431647 0.911653
O O8 0.465434 0.375325 0.850457
O O9 0.689874 0.331200 0.883691
O O10 0.778577 0.318640 0.641487
O O11 0.762379 0.253694 0.563146
O O12 0.000000 0.250000 0.619660
O O13 0.775847 0.109034 0.281964
O O14 0.000000 0.054721 0.250000
O O15 0.750000 0.000000 0.251986
O O16 0.250000 0.000000 0.481066
O O17 0.500000 0.750000 0.099684
#
# Coordination Sequence:
#
# PCOD9507316 Si02
#       8
#     4  16  16  16  16  16  16  16
#     4  12  20  44  74  96 128 172 234 274 324 428
#     4  11  24  41  62  95 133 171 220 262 322 401
#     4  10  20  40  68  92 123 166 227 261 320 390
#     4  12  24  41  62 100 136 167 209 272 337 397
#     4  10  22  45  67  97 127 172 225 271 326 395
#     4  11  24  43  67  93 128 175 222 275 325 373
#     4  11  23  41  70  98 129 174 222 273 335 404
#     4  11  20  37  68  93 128 177 214 255 321 397
#
# _framework density 20.226929999999999
#
# number of rings (size 3 to 8) (size 9 to 14) (size 15 to 20)
#    0.000    1.103    3.448    4.966    1.931    0.000 
#    9.931    0.345    0.000    0.000    0.000    0.000 
#    0.000    0.000    0.000    0.000    0.000    0.000 
#
# Total GULP energy -323693.523070 kJ/mol
# GULP energy per Si atom -5580.922812 kJ/mol
# Density = 2.018089 g / cm^3
# Si number density = 20.226930 Si / 1000 Ang^3
#
#
#
# Elastic Constant Matrix: (Units=GPa)
#
#
# Indices 1 2 3 4 5 6 
#
# 1 69.0730 14.9106 27.3252 0.0000 0.0000 0.0000
# 2 14.9106 101.6216 42.1446 0.0000 0.0000 0.0000
# 3 27.3252 42.1446 85.9708 0.0000 0.0000 0.0000
# 4 0.0000 0.0000 0.0000 18.0419 0.0000 0.0000
# 5 0.0000 0.0000 0.0000 0.0000 6.7516 0.0000
# 6 0.0000 0.0000 0.0000 0.0000 0.0000 44.9759
#
#
#
# Elastic Compliance Matrix: (Units=1/GPa)
#
#
# Indices 1 2 3 4 5 6 
#
# 1 0.016567 -0.000310 -0.005114 0.000000 0.000000 0.000000
# 2 -0.000310 0.012357 -0.005959 0.000000 0.000000 0.000000
# 3 -0.005114 -0.005959 0.016179 0.000000 0.000000 0.000000
# 4 0.000000 0.000000 0.000000 0.055427 0.000000 0.000000
# 5 0.000000 0.000000 0.000000 0.000000 0.148113 0.000000
# 6 0.000000 0.000000 0.000000 0.000000 0.000000 0.022234
#
#
# Mechanical properties :
#
#
# Convention : Reuss Voigt Hill
#
# Bulk Modulus (GPa) = 44.76871 47.26958 46.01915
# Shear Modulus (GPa) = 16.60639 25.43954 21.02296
#
# Velocity S-wave (km/s) = 2.86843 3.55026 3.22740
# Velocity P-wave (km/s) = 5.75776 6.34241 6.05714
#
# Compressibility (1/GPa) = 0.02233703
#
# Stress axis : x y z
#
# Youngs Moduli (GPa) = 60.35954 80.92344 61.81009
#
# Poissons Ratio (x) = 0.02509 0.31609
# Poissons Ratio (y) = 0.01872 0.36834
# Poissons Ratio (z) = 0.30867 0.48224
#
# Static dielectric constant tensor:
#      x y z
#    x 1.718350 0.000000 0.000000 
#    y 0.000000 1.745820 0.000000 
#    z 0.000000 0.000000 1.727110 
# 
# From -- ./inp_files/49626.got.cif
#   From: 2010.05.17/outbox.cif.g08.bks.cpg/sg68_25_cif.got.tgz:49626.got - 2010.06.03 18:57:09.
