data_PCOD9507996
_publ_section_title
;
Structure prediction by ZEFSAII (Michael W. Deem and Ramdas Pophale) SiO2 
 PCOD9507996
Probable space group: C C C A
;
_chemical_formula_sum "Si O2"
_cell_formula_units_Z 80
_cell_length_a 15.622185
_cell_length_b 9.021597
_cell_length_c 28.447134
_cell_angle_alpha 90.000000
_cell_angle_beta 90.000000
_cell_angle_gamma 90.000000
_cell_volume 4009.255355
_symmetry_space_group_name_H-M "C C C A"
_symmetry_group_IT_number 68
_space_group.IT_coordinate_system_code '2'
_symmetry_cell_setting 'orthorhombic'
loop_
_space_group_symop_operation_xyz
x,y,z
-x,1/2-y,z
x,1/2-y,1/2-z
-x,y,1/2-z
-x,-y,-z
x,1/2+y,-z
-x,1/2+y,1/2+z
x,-y,1/2+z
1/2+x,1/2+y,z
1/2-x,-y,z
1/2+x,-y,1/2-z
1/2-x,1/2+y,1/2-z
1/2-x,1/2-y,-z
1/2+x,y,-z
1/2-x,y,1/2+z
1/2+x,1/2-y,1/2+z
loop_
_atom_site_type_symbol
_atom_site_label
_atom_site_fract_x
_atom_site_fract_y
_atom_site_fract_z
Si Si1 0.096290 0.306493 0.369827
Si Si2 0.728977 0.826529 0.201653
Si Si3 0.834741 0.396786 0.647840
Si Si4 0.338039 0.593868 0.470026
Si Si5 0.403685 0.800555 0.549386
O O1 0.156028 0.203019 0.337500
O O2 0.095434 0.472701 0.346856
O O3 0.140904 0.322872 0.421190
O O4 0.000000 0.250000 0.374824
O O5 0.699824 0.750000 0.250000
O O6 0.811540 0.728789 0.185298
O O7 0.750000 0.000000 0.206899
O O8 0.750000 0.500000 0.644662
O O9 0.856742 0.316582 0.599226
O O10 0.250000 0.500000 0.468982
O O11 0.349570 0.698311 0.514399
O O12 0.407539 0.463811 0.472593
O O13 0.500000 0.750000 0.556226
#
# Coordination Sequence:
#
# PCOD9507996 Si02
#       5
#    16  16  16  16  16
#     4  10  21  40  62  86 121 159 199 250 305 355
#     4  11  23  41  66  91 118 155 197 246 302 367
#     4   9  21  42  61  86 121 160 203 247 297 364
#     4  11  23  39  57  83 121 165 205 247 294 355
#     4  11  22  36  57  85 120 156 200 252 300 346
#
# _framework density 19.95383
#
# number of rings (size 3 to 8) (size 9 to 14) (size 15 to 20)
#    0.000    1.600    0.000    8.400    0.000    7.600 
#    0.000    1.000    0.000    4.200    0.000    0.000 
#    0.000    0.000    0.000    0.000    0.000    0.000 
#
# Total GULP energy -223129.820065 kJ/mol
# GULP energy per Si atom -5578.245502 kJ/mol
# Density = 1.990841 g / cm^3
# Si number density = 19.953830 Si / 1000 Ang^3
#
#
#
# Elastic Constant Matrix: (Units=GPa)
#
#
# Indices 1 2 3 4 5 6 
#
# 1 100.6969 48.0784 38.9067 0.0000 0.0000 0.0000
# 2 48.0784 120.7066 61.2042 0.0000 0.0000 0.0000
# 3 38.9067 61.2042 76.5974 0.0000 0.0000 0.0000
# 4 0.0000 0.0000 0.0000 37.0636 0.0000 0.0000
# 5 0.0000 0.0000 0.0000 0.0000 11.1468 0.0000
# 6 0.0000 0.0000 0.0000 0.0000 0.0000 37.3040
#
#
#
# Elastic Compliance Matrix: (Units=1/GPa)
#
#
# Indices 1 2 3 4 5 6 
#
# 1 0.013001 -0.003077 -0.004146 0.000000 0.000000 0.000000
# 2 -0.003077 0.014655 -0.010147 0.000000 0.000000 0.000000
# 3 -0.004146 -0.010147 0.023269 0.000000 0.000000 0.000000
# 4 0.000000 0.000000 0.000000 0.026981 0.000000 0.000000
# 5 0.000000 0.000000 0.000000 0.000000 0.089712 0.000000
# 6 0.000000 0.000000 0.000000 0.000000 0.000000 0.026807
#
#
# Mechanical properties :
#
#
# Convention : Reuss Voigt Hill
#
# Bulk Modulus (GPa) = 61.77924 66.04218 63.91071
# Shear Modulus (GPa) = 21.31653 27.09032 24.20343
#
# Velocity S-wave (km/s) = 3.27202 3.68863 3.48655
# Velocity P-wave (km/s) = 6.73076 7.16315 6.95032
#
# Compressibility (1/GPa) = 0.01618667
#
# Stress axis : x y z
#
# Youngs Moduli (GPa) = 76.91424 68.23535 42.97539
#
# Poissons Ratio (x) = 0.20993 0.17816
# Poissons Ratio (y) = 0.23663 0.43609
# Poissons Ratio (z) = 0.31886 0.69241
#
# Static dielectric constant tensor:
#      x y z
#    x 1.741980 0.000000 0.000000 
#    y 0.000000 1.745450 0.000000 
#    z 0.000000 0.000000 1.715920 
# 
# From -- ./inp_files/55533.got.cif
#   From: 2010.05.17/outbox.cif.g08.bks.cpg/sg68_28_cif.got.tgz:55533.got - 2010.06.03 18:57:09.
