data_PCOD9507465
_publ_section_title
;
Structure prediction by ZEFSAII (Michael W. Deem and Ramdas Pophale) SiO2 
 PCOD9507465
Probable space group: C C C A
;
_chemical_formula_sum "Si O2"
_cell_formula_units_Z 96
_cell_length_a 15.365253
_cell_length_b 14.696628
_cell_length_c 22.327532
_cell_angle_alpha 90.000000
_cell_angle_beta 90.000000
_cell_angle_gamma 90.000000
_cell_volume 5041.945391
_symmetry_space_group_name_H-M "C C C A"
_symmetry_group_IT_number 68
_space_group.IT_coordinate_system_code '2'
_symmetry_cell_setting 'orthorhombic'
loop_
_space_group_symop_operation_xyz
x,y,z
-x,1/2-y,z
x,1/2-y,1/2-z
-x,y,1/2-z
-x,-y,-z
x,1/2+y,-z
-x,1/2+y,1/2+z
x,-y,1/2+z
1/2+x,1/2+y,z
1/2-x,-y,z
1/2+x,-y,1/2-z
1/2-x,1/2+y,1/2-z
1/2-x,1/2-y,-z
1/2+x,y,-z
1/2-x,y,1/2+z
1/2+x,1/2-y,1/2+z
loop_
_atom_site_type_symbol
_atom_site_label
_atom_site_fract_x
_atom_site_fract_y
_atom_site_fract_z
Si Si1 0.602376 0.245088 0.821472
Si Si2 0.527652 0.647151 0.511055
Si Si3 0.729288 0.142819 0.496655
Si Si4 0.826997 0.563702 0.617759
Si Si5 0.814059 0.426000 0.369996
Si Si6 0.988539 0.499039 0.906136
O O1 0.500000 0.250000 0.842458
O O2 0.599714 0.250000 0.750000
O O3 0.647761 0.154493 0.846542
O O4 0.661826 0.328497 0.843329
O O5 0.500000 0.750000 0.499442
O O6 0.629662 0.639461 0.526045
O O7 0.474672 0.598682 0.563640
O O8 0.512700 0.580575 0.455213
O O9 0.750000 0.250000 0.500000
O O10 0.794576 0.094497 0.449495
O O11 0.722959 0.097008 0.562660
O O12 0.750000 0.500000 0.641664
O O13 0.915446 0.505888 0.619325
O O14 0.750000 0.500000 0.341791
O O15 0.906735 0.476671 0.367151
#
# Coordination Sequence:
#
# PCOD9507465 Si02
#       6
#    16  16  16  16  16  16
#     4  11  25  46  70  90 117 169 227 266 311 367
#     4  10  21  32  49  77 128 174 201 238 303 379
#     4  11  21  32  55  89 125 162 197 240 309 389
#     4  12  22  39  63  94 127 163 208 258 317 376
#     4  11  24  39  63  94 126 163 205 262 317 376
#     4  10  22  36  52  86 126 167 207 252 304 373
#
# _framework density 19.040268999999999
#
# number of rings (size 3 to 8) (size 9 to 14) (size 15 to 20)
#    0.000    1.167    5.000    1.500    9.333    0.667 
#    0.000    0.000    0.000    0.000    0.000    1.167 
#    0.000    0.000    0.000    0.000    0.000    0.000 
#
# Total GULP energy -267722.427983 kJ/mol
# GULP energy per Si atom -5577.550583 kJ/mol
# Density = 1.899693 g / cm^3
# Si number density = 19.040269 Si / 1000 Ang^3
#
#
#
# Elastic Constant Matrix: (Units=GPa)
#
#
# Indices 1 2 3 4 5 6 
#
# 1 123.6686 41.8809 21.3503 0.0000 0.0000 0.0000
# 2 41.8809 130.9684 23.1473 0.0000 0.0000 0.0000
# 3 21.3503 23.1473 48.9755 0.0000 0.0000 0.0000
# 4 0.0000 0.0000 0.0000 -8.8659 0.0000 0.0000
# 5 0.0000 0.0000 0.0000 0.0000 11.7645 0.0000
# 6 0.0000 0.0000 0.0000 0.0000 0.0000 35.6829
#
#
#
# Elastic Compliance Matrix: (Units=1/GPa)
#
#
# Indices 1 2 3 4 5 6 
#
# 1 0.009439 -0.002500 -0.002933 0.000000 0.000000 0.000000
# 2 -0.002500 0.008994 -0.003161 0.000000 0.000000 0.000000
# 3 -0.002933 -0.003161 0.023191 0.000000 0.000000 0.000000
# 4 0.000000 0.000000 0.000000 -0.112792 0.000000 0.000000
# 5 0.000000 0.000000 0.000000 0.000000 0.085001 0.000000
# 6 0.000000 0.000000 0.000000 0.000000 0.000000 0.028025
#
#
# Mechanical properties :
#
#
# Convention : Reuss Voigt Hill
#
# Bulk Modulus (GPa) = 40.92405 52.92994 46.92699
# Shear Modulus (GPa) = 74.41495 22.19859 48.30677
#
# Velocity S-wave (km/s) = 6.25842 3.41820 5.04241
# Velocity P-wave (km/s) = 8.58858 6.59076 7.65512
#
# Compressibility (1/GPa) = 0.02443551
#
# Stress axis : x y z
#
# Youngs Moduli (GPa) = 105.94144 111.19133 43.12019
#
# Poissons Ratio (x) = 0.27798 0.12649
# Poissons Ratio (y) = 0.26485 0.13629
# Poissons Ratio (z) = 0.31076 0.35145
#
# Static dielectric constant tensor:
#      x y z
#    x 1.719200 0.000000 0.000000 
#    y 0.000000 1.681900 0.000000 
#    z 0.000000 0.000000 1.681570 
# 
# From -- ./inp_files/38555.got.cif
#   From: 2010.05.17/outbox.cif.g08.bks.cpg/sg68_20_cif.got.tgz:38555.got - 2010.06.03 18:57:09.
