data_PCOD9507726
_publ_section_title
;
Structure prediction by ZEFSAII (Michael W. Deem and Ramdas Pophale) SiO2 
 PCOD9507726
Probable space group: C C C A
;
_chemical_formula_sum "Si O2"
_cell_formula_units_Z 64
_cell_length_a 14.197923
_cell_length_b 5.269456
_cell_length_c 35.842350
_cell_angle_alpha 90.000000
_cell_angle_beta 90.000000
_cell_angle_gamma 90.000000
_cell_volume 2681.557263
_symmetry_space_group_name_H-M "C C C A"
_symmetry_group_IT_number 68
_space_group.IT_coordinate_system_code '2'
_symmetry_cell_setting 'orthorhombic'
loop_
_space_group_symop_operation_xyz
x,y,z
-x,1/2-y,z
x,1/2-y,1/2-z
-x,y,1/2-z
-x,-y,-z
x,1/2+y,-z
-x,1/2+y,1/2+z
x,-y,1/2+z
1/2+x,1/2+y,z
1/2-x,-y,z
1/2+x,-y,1/2-z
1/2-x,1/2+y,1/2-z
1/2-x,1/2-y,-z
1/2+x,y,-z
1/2-x,y,1/2+z
1/2+x,1/2-y,1/2+z
loop_
_atom_site_type_symbol
_atom_site_label
_atom_site_fract_x
_atom_site_fract_y
_atom_site_fract_z
Si Si1 0.105148 0.447167 0.395543
Si Si2 0.894350 0.560821 0.365963
Si Si3 0.815299 0.747994 0.291256
Si Si4 0.136300 0.018636 0.020491
O O1 0.150868 0.725196 0.392257
O O2 0.103189 0.388956 0.439023
O O3 0.000716 0.502782 0.379378
O O4 0.148357 0.219402 0.371215
O O5 0.884549 0.685992 0.325340
O O6 0.860815 0.750000 0.250000
O O7 0.750000 0.500000 0.290755
O O8 0.750000 0.000000 0.296067
O O9 0.250000 0.000000 0.021628
O O10 0.106671 0.235468 0.991185
#
# Coordination Sequence:
#
# PCOD9507726 Si02
#       4
#    16  16  16  16
#     4  10  21  38  59  87 121 158 200 243 300 364
#     4  10  21  38  57  86 122 156 198 244 298 361
#     4  10  21  38  62  90 120 158 202 250 304 361
#     4  10  21  38  59  85 118 155 197 247 300 356
#
# _framework density 23.866727999999998
#
# number of rings (size 3 to 8) (size 9 to 14) (size 15 to 20)
#    0.000    2.000    0.000    3.000    0.000    3.000 
#    0.000   17.500    0.000    6.000    0.000    0.000 
#    0.000    0.000    0.000    0.000    0.000    0.000 
#
# Total GULP energy -178565.806766 kJ/mol
# GULP energy per Si atom -5580.181461 kJ/mol
# Density = 2.381241 g / cm^3
# Si number density = 23.866728 Si / 1000 Ang^3
#
#
#
# Elastic Constant Matrix: (Units=GPa)
#
#
# Indices 1 2 3 4 5 6 
#
# 1 94.4638 5.2034 17.2341 0.0000 0.0000 0.0000
# 2 5.2034 211.3770 32.6040 0.0000 0.0000 0.0000
# 3 17.2341 32.6040 156.8862 0.0000 0.0000 0.0000
# 4 0.0000 0.0000 0.0000 -18.8856 0.0000 0.0000
# 5 0.0000 0.0000 0.0000 0.0000 12.3792 0.0000
# 6 0.0000 0.0000 0.0000 0.0000 0.0000 2.9627
#
#
#
# Elastic Compliance Matrix: (Units=1/GPa)
#
#
# Indices 1 2 3 4 5 6 
#
# 1 0.010804 -0.000086 -0.001169 0.000000 0.000000 0.000000
# 2 -0.000086 0.004888 -0.001006 0.000000 0.000000 0.000000
# 3 -0.001169 -0.001006 0.006712 0.000000 0.000000 0.000000
# 4 0.000000 0.000000 0.000000 -0.052950 0.000000 0.000000
# 5 0.000000 0.000000 0.000000 0.000000 0.080781 0.000000
# 6 0.000000 0.000000 0.000000 0.000000 0.000000 0.337525
#
#
# Mechanical properties :
#
#
# Convention : Reuss Voigt Hill
#
# Bulk Modulus (GPa) = 55.92326 63.64555 59.78440
# Shear Modulus (GPa) = 12.55518 26.47030 19.51274
#
# Velocity S-wave (km/s) = 2.29607 3.33391 2.86242
# Velocity P-wave (km/s) = 5.52373 6.44553 6.00235
#
# Compressibility (1/GPa) = 0.01788165
#
# Stress axis : x y z
#
# Youngs Moduli (GPa) = 92.55771 204.57284 148.99506
#
# Poissons Ratio (x) = 0.01752 0.17418
# Poissons Ratio (y) = 0.00793 0.14996
# Poissons Ratio (z) = 0.10820 0.20589
#
# Static dielectric constant tensor:
#      x y z
#    x 4.152140 0.000000 0.000000 
#    y 0.000000 2.576690 0.000000 
#    z 0.000000 0.000000 1.928660 
# 
# From -- ./inp_files/55467.got.cif
#   From: 2010.05.17/outbox.cif.g08.bks.cpg/sg68_28_cif.got.tgz:55467.got - 2010.06.03 18:57:09.
