data_PCOD9507743
_publ_section_title
;
Structure prediction by ZEFSAII (Michael W. Deem and Ramdas Pophale) SiO2 
 PCOD9507743
Probable space group: C C C A
;
_chemical_formula_sum "Si O2"
_cell_formula_units_Z 84
_cell_length_a 20.954182
_cell_length_b 18.970518
_cell_length_c 9.534634
_cell_angle_alpha 90.000000
_cell_angle_beta 90.000000
_cell_angle_gamma 90.000000
_cell_volume 3790.128444
_symmetry_space_group_name_H-M "C C C A"
_symmetry_group_IT_number 68
_space_group.IT_coordinate_system_code '2'
_symmetry_cell_setting 'orthorhombic'
loop_
_space_group_symop_operation_xyz
x,y,z
-x,1/2-y,z
x,1/2-y,1/2-z
-x,y,1/2-z
-x,-y,-z
x,1/2+y,-z
-x,1/2+y,1/2+z
x,-y,1/2+z
1/2+x,1/2+y,z
1/2-x,-y,z
1/2+x,-y,1/2-z
1/2-x,1/2+y,1/2-z
1/2-x,1/2-y,-z
1/2+x,y,-z
1/2-x,y,1/2+z
1/2+x,1/2-y,1/2+z
loop_
_atom_site_type_symbol
_atom_site_label
_atom_site_fract_x
_atom_site_fract_y
_atom_site_fract_z
Si Si1 0.427766 0.443958 0.382262
Si Si2 0.472905 0.397840 0.893647
Si Si3 0.210315 0.572782 0.503060
Si Si4 0.745260 0.830730 0.739653
Si Si5 0.500000 0.250000 0.250000
Si Si6 0.895920 0.847674 0.121668
O O1 0.474117 0.398462 0.482496
O O2 0.457000 0.520615 0.366206
O O3 0.360698 0.448108 0.460668
O O4 0.414751 0.410158 0.230321
O O5 0.500000 0.366160 0.750000
O O6 0.408261 0.367303 0.960973
O O7 0.250000 0.500000 0.512383
O O8 0.212800 0.616901 0.645804
O O9 0.234851 0.628007 0.385295
O O10 0.768469 0.750000 0.750000
O O11 0.675548 0.826583 0.662688
O O12 0.449500 0.290309 0.153915
#
# Coordination Sequence:
#
# PCOD9507743 Si02
#       6
#    16  16  16  16   4  16
#     4  10  21  38  60  88 122 161 202 255 323 398
#     4  11  21  35  61  97 125 149 202 274 329 372
#     4  11  24  41  64  91 128 169 223 274 330 398
#     4  11  24  43  66  94 127 176 226 275 335 405
#     4  12  20  40  66  80 120 168 218 242 302 424
#     4  11  22  40  65  88 120 169 212 251 327 408
#
# _framework density 22.162838000000001
#
# number of rings (size 3 to 8) (size 9 to 14) (size 15 to 20)
#    0.000    1.143    2.857    4.571    0.000    6.095 
#    0.000    0.476    0.000    0.000    0.000    0.000 
#    0.000    0.000    0.000    0.000    0.000    0.000 
#
# Total GULP energy -234782.756246 kJ/mol
# GULP energy per Si atom -5590.065625 kJ/mol
# Density = 2.211239 g / cm^3
# Si number density = 22.162838 Si / 1000 Ang^3
#
#
#
# Elastic Constant Matrix: (Units=GPa)
#
#
# Indices 1 2 3 4 5 6 
#
# 1 54.8662 10.7548 5.1699 0.0000 0.0000 0.0000
# 2 10.7548 87.5247 8.8861 0.0000 0.0000 0.0000
# 3 5.1699 8.8861 76.6172 0.0000 0.0000 0.0000
# 4 0.0000 0.0000 0.0000 22.3081 0.0000 0.0000
# 5 0.0000 0.0000 0.0000 0.0000 11.4550 0.0000
# 6 0.0000 0.0000 0.0000 0.0000 0.0000 11.4909
#
#
#
# Elastic Compliance Matrix: (Units=1/GPa)
#
#
# Indices 1 2 3 4 5 6 
#
# 1 0.018753 -0.002202 -0.001010 0.000000 0.000000 0.000000
# 2 -0.002202 0.011820 -0.001222 0.000000 0.000000 0.000000
# 3 -0.001010 -0.001222 0.013262 0.000000 0.000000 0.000000
# 4 0.000000 0.000000 0.000000 0.044827 0.000000 0.000000
# 5 0.000000 0.000000 0.000000 0.000000 0.087298 0.000000
# 6 0.000000 0.000000 0.000000 0.000000 0.000000 0.087026
#
#
# Mechanical properties :
#
#
# Convention : Reuss Voigt Hill
#
# Bulk Modulus (GPa) = 28.59878 29.84772 29.22325
# Shear Modulus (GPa) = 17.63611 21.99727 19.81669
#
# Velocity S-wave (km/s) = 2.82397 3.15386 2.99346
# Velocity P-wave (km/s) = 4.85438 5.17292 5.01618
#
# Compressibility (1/GPa) = 0.03496653
#
# Stress axis : x y z
#
# Youngs Moduli (GPa) = 53.32505 84.60241 75.40442
#
# Poissons Ratio (x) = 0.18627 0.07616
# Poissons Ratio (y) = 0.11741 0.09217
# Poissons Ratio (z) = 0.05386 0.10341
#
# Static dielectric constant tensor:
#      x y z
#    x 1.804880 0.000000 0.000000 
#    y 0.000000 1.833510 0.000000 
#    z 0.000000 0.000000 1.821660 
# 
# From -- ./inp_files/7970.got.cif
#   From: 2010.05.17/outbox.cif.g08.bks.cpg/sg68_4_cif.got.tgz:7970.got - 2010.06.03 18:57:09.
