data_PCOD9507273
_publ_section_title
;
Structure prediction by ZEFSAII (Michael W. Deem and Ramdas Pophale) SiO2 
 PCOD9507273
Probable space group: C C C A
;
_chemical_formula_sum "Si O2"
_cell_formula_units_Z 64
_cell_length_a 11.689017
_cell_length_b 9.518284
_cell_length_c 22.309046
_cell_angle_alpha 90.000000
_cell_angle_beta 90.000000
_cell_angle_gamma 90.000000
_cell_volume 2482.090704
_symmetry_space_group_name_H-M "C C C A"
_symmetry_group_IT_number 68
_space_group.IT_coordinate_system_code '2'
_symmetry_cell_setting 'orthorhombic'
loop_
_space_group_symop_operation_xyz
x,y,z
-x,1/2-y,z
x,1/2-y,1/2-z
-x,y,1/2-z
-x,-y,-z
x,1/2+y,-z
-x,1/2+y,1/2+z
x,-y,1/2+z
1/2+x,1/2+y,z
1/2-x,-y,z
1/2+x,-y,1/2-z
1/2-x,1/2+y,1/2-z
1/2-x,1/2-y,-z
1/2+x,y,-z
1/2-x,y,1/2+z
1/2+x,1/2-y,1/2+z
loop_
_atom_site_type_symbol
_atom_site_label
_atom_site_fract_x
_atom_site_fract_y
_atom_site_fract_z
Si Si1 0.130425 0.542428 0.019943
Si Si2 0.845201 0.283964 0.611642
Si Si3 0.030274 0.053992 0.818027
Si Si4 0.612671 0.810765 0.117509
O O1 0.250000 0.500000 0.983465
O O2 0.132068 0.701958 0.047950
O O3 0.149395 0.435244 0.074554
O O4 0.000000 0.500000 0.000000
O O5 0.929127 0.407354 0.633798
O O6 0.710933 0.303170 0.620031
O O7 0.873541 0.162844 0.660845
O O8 0.000000 0.082242 0.750000
O O9 0.072192 0.894363 0.824078
O O10 0.500000 0.750000 0.088715
#
# Coordination Sequence:
#
# PCOD9507273 Si02
#       4
#    16  16  16  16
#     4   9  19  41  65  89 124 166 208 261 317 379
#     4   9  19  40  65  82 126 162 200 260 310 367
#     4  10  20  40  64  89 118 163 216 252 315 381
#     4  10  22  42  57  89 132 159 202 265 313 370
#
# _framework density 25.784716
#
# number of rings (size 3 to 8) (size 9 to 14) (size 15 to 20)
#    0.000    2.500    0.000    3.750    0.000    1.500 
#   36.000    2.500    0.000    0.000    0.000    0.000 
#    0.000    0.000    0.000    0.000    0.000    0.000 
#
# Total GULP energy -178337.216148 kJ/mol
# GULP energy per Si atom -5573.038005 kJ/mol
# Density = 2.572603 g / cm^3
# Si number density = 25.784716 Si / 1000 Ang^3
#
#
#
# Elastic Constant Matrix: (Units=GPa)
#
#
# Indices 1 2 3 4 5 6 
#
# 1 237.1946 30.6790 35.9564 0.0000 0.0000 0.0000
# 2 30.6790 66.2104 24.8363 0.0000 0.0000 0.0000
# 3 35.9564 24.8363 93.1064 0.0000 0.0000 0.0000
# 4 0.0000 0.0000 0.0000 23.0715 0.0000 0.0000
# 5 0.0000 0.0000 0.0000 0.0000 8.8991 0.0000
# 6 0.0000 0.0000 0.0000 0.0000 0.0000 34.1663
#
#
#
# Elastic Compliance Matrix: (Units=1/GPa)
#
#
# Indices 1 2 3 4 5 6 
#
# 1 0.004633 -0.001640 -0.001352 0.000000 0.000000 0.000000
# 2 -0.001640 0.017363 -0.003998 0.000000 0.000000 0.000000
# 3 -0.001352 -0.003998 0.012329 0.000000 0.000000 0.000000
# 4 0.000000 0.000000 0.000000 0.043343 0.000000 0.000000
# 5 0.000000 0.000000 0.000000 0.000000 0.112371 0.000000
# 6 0.000000 0.000000 0.000000 0.000000 0.000000 0.029269
#
#
# Mechanical properties :
#
#
# Convention : Reuss Voigt Hill
#
# Bulk Modulus (GPa) = 49.15150 64.38387 56.76768
# Shear Modulus (GPa) = 20.82732 33.56335 27.19533
#
# Velocity S-wave (km/s) = 2.84516 3.61179 3.25115
# Velocity P-wave (km/s) = 5.46780 6.51286 6.01308
#
# Compressibility (1/GPa) = 0.02034526
#
# Stress axis : x y z
#
# Youngs Moduli (GPa) = 215.84567 57.59391 81.10935
#
# Poissons Ratio (x) = 0.09443 0.10964
# Poissons Ratio (y) = 0.35391 0.32431
# Poissons Ratio (z) = 0.29178 0.23028
#
# Static dielectric constant tensor:
#      x y z
#    x 2.213200 0.000000 0.000000 
#    y 0.000000 2.088240 0.000000 
#    z 0.000000 0.000000 2.076160 
# 
# From -- ./inp_files/37038.got.cif
#   From: 2010.05.17/outbox.cif.g08.bks.cpg/sg68_19_cif.got.tgz:37038.got - 2010.06.03 18:57:09.
