data_PCOD9507945
_publ_section_title
;
Structure prediction by ZEFSAII (Michael W. Deem and Ramdas Pophale) SiO2 
 PCOD9507945
Probable space group: C C C A
;
_chemical_formula_sum "Si O2"
_cell_formula_units_Z 104
_cell_length_a 22.343896
_cell_length_b 16.537399
_cell_length_c 12.299562
_cell_angle_alpha 90.000000
_cell_angle_beta 90.000000
_cell_angle_gamma 90.000000
_cell_volume 4544.810212
_symmetry_space_group_name_H-M "C C C A"
_symmetry_group_IT_number 68
_space_group.IT_coordinate_system_code '2'
_symmetry_cell_setting 'orthorhombic'
loop_
_space_group_symop_operation_xyz
x,y,z
-x,1/2-y,z
x,1/2-y,1/2-z
-x,y,1/2-z
-x,-y,-z
x,1/2+y,-z
-x,1/2+y,1/2+z
x,-y,1/2+z
1/2+x,1/2+y,z
1/2-x,-y,z
1/2+x,-y,1/2-z
1/2-x,1/2+y,1/2-z
1/2-x,1/2-y,-z
1/2+x,y,-z
1/2-x,y,1/2+z
1/2+x,1/2-y,1/2+z
loop_
_atom_site_type_symbol
_atom_site_label
_atom_site_fract_x
_atom_site_fract_y
_atom_site_fract_z
Si Si1 0.851072 0.299605 0.853354
Si Si2 0.360619 0.250000 0.750000
Si Si3 0.809478 0.049430 0.954332
Si Si4 0.908416 0.948378 0.275247
Si Si5 0.954117 0.678514 0.074928
Si Si6 0.411144 0.599816 0.127652
Si Si7 0.282267 0.677766 0.441222
O O1 0.821688 0.250000 0.750000
O O2 0.885367 0.373284 0.796430
O O3 0.891825 0.228670 0.908443
O O4 0.820876 0.348199 0.953997
O O5 0.396763 0.175188 0.796589
O O6 0.321402 0.211123 0.655025
O O7 0.855493 0.020908 0.859458
O O8 0.771106 0.121587 0.901549
O O9 0.750000 0.000000 0.991220
O O10 0.852266 0.075911 0.054041
O O11 0.955975 0.900065 0.348734
O O12 0.927206 0.022423 0.199663
O O13 0.000000 0.750000 0.097593
O O14 0.958105 0.637588 0.957185
O O15 0.250000 0.750000 0.500000
#
# Coordination Sequence:
#
# PCOD9507945 Si02
#       7
#    16   8  16  16  16  16  16
#     4  10  21  39  65  97 134 182 237 297 356 419
#     4  12  24  38  63  90 150 194 237 294 358 414
#     4  11  23  38  60 100 143 190 234 287 346 419
#     4  10  23  40  69 103 137 183 237 295 358 430
#     4  10  22  47  76 101 135 183 239 307 370 437
#     4  11  23  44  65 103 142 186 236 294 367 423
#     4  12  22  34  57  93 134 189 244 280 336 423
#
# _framework density 22.883243
#
# number of rings (size 3 to 8) (size 9 to 14) (size 15 to 20)
#    0.000    1.231    3.077    3.692    3.231    7.077 
#    0.000    1.154    3.385    0.000    0.000    0.000 
#    0.000    0.000    0.000    0.000    0.000    0.000 
#
# Total GULP energy -289727.026461 kJ/mol
# GULP energy per Si atom -5571.673586 kJ/mol
# Density = 2.283116 g / cm^3
# Si number density = 22.883243 Si / 1000 Ang^3
#
#
#
# Elastic Constant Matrix: (Units=GPa)
#
#
# Indices 1 2 3 4 5 6 
#
# 1 45.5142 21.5500 21.7622 0.0000 0.0000 0.0000
# 2 21.5500 121.3627 41.0811 0.0000 0.0000 0.0000
# 3 21.7622 41.0811 130.6434 0.0000 0.0000 0.0000
# 4 0.0000 0.0000 0.0000 53.2491 0.0000 0.0000
# 5 0.0000 0.0000 0.0000 0.0000 19.3076 0.0000
# 6 0.0000 0.0000 0.0000 0.0000 0.0000 50.3782
#
#
#
# Elastic Compliance Matrix: (Units=1/GPa)
#
#
# Indices 1 2 3 4 5 6 
#
# 1 0.025066 -0.003399 -0.003106 0.000000 0.000000 0.000000
# 2 -0.003399 0.009682 -0.002478 0.000000 0.000000 0.000000
# 3 -0.003106 -0.002478 0.008951 0.000000 0.000000 0.000000
# 4 0.000000 0.000000 0.000000 0.018780 0.000000 0.000000
# 5 0.000000 0.000000 0.000000 0.000000 0.051793 0.000000
# 6 0.000000 0.000000 0.000000 0.000000 0.000000 0.019850
#
#
# Mechanical properties :
#
#
# Convention : Reuss Voigt Hill
#
# Bulk Modulus (GPa) = 38.86344 51.81186 45.33765
# Shear Modulus (GPa) = 31.12017 38.79546 34.95782
#
# Velocity S-wave (km/s) = 3.69176 4.12195 3.91277
# Velocity P-wave (km/s) = 5.93231 6.73386 6.34576
#
# Compressibility (1/GPa) = 0.02573113
#
# Stress axis : x y z
#
# Youngs Moduli (GPa) = 39.89465 103.28124 111.71668
#
# Poissons Ratio (x) = 0.35109 0.34705
# Poissons Ratio (y) = 0.13562 0.27687
# Poissons Ratio (z) = 0.12393 0.25597
#
# Static dielectric constant tensor:
#      x y z
#    x 1.879690 0.000000 0.000000 
#    y 0.000000 1.909580 0.000000 
#    z 0.000000 0.000000 -0.836610 
# 
# From -- ./inp_files/17200.got.cif
#   From: 2010.05.17/outbox.cif.g08.bks.cpg/sg68_9_cif.got.tgz:17200.got - 2010.06.03 18:57:09.
