data_PCOD9507461
_publ_section_title
;
Structure prediction by ZEFSAII (Michael W. Deem and Ramdas Pophale) SiO2 
 PCOD9507461
Probable space group: C C C A
;
_chemical_formula_sum "Si O2"
_cell_formula_units_Z 112
_cell_length_a 11.994274
_cell_length_b 26.443677
_cell_length_c 19.457019
_cell_angle_alpha 90.000000
_cell_angle_beta 90.000000
_cell_angle_gamma 90.000000
_cell_volume 6171.235396
_symmetry_space_group_name_H-M "C C C A"
_symmetry_group_IT_number 68
_space_group.IT_coordinate_system_code '2'
_symmetry_cell_setting 'orthorhombic'
loop_
_space_group_symop_operation_xyz
x,y,z
-x,1/2-y,z
x,1/2-y,1/2-z
-x,y,1/2-z
-x,-y,-z
x,1/2+y,-z
-x,1/2+y,1/2+z
x,-y,1/2+z
1/2+x,1/2+y,z
1/2-x,-y,z
1/2+x,-y,1/2-z
1/2-x,1/2+y,1/2-z
1/2-x,1/2-y,-z
1/2+x,y,-z
1/2-x,y,1/2+z
1/2+x,1/2-y,1/2+z
loop_
_atom_site_type_symbol
_atom_site_label
_atom_site_fract_x
_atom_site_fract_y
_atom_site_fract_z
Si Si1 0.668019 0.952482 0.309327
Si Si2 0.265521 0.416491 0.172829
Si Si3 0.015611 0.523038 0.143947
Si Si4 0.862824 0.309320 0.824493
Si Si5 0.349789 0.964508 0.458726
Si Si6 0.171072 0.904087 0.092610
Si Si7 0.370300 0.197699 0.161584
O O1 0.695206 0.918192 0.243243
O O2 0.712068 0.925795 0.378756
O O3 0.750000 0.000000 0.300410
O O4 0.546722 0.976442 0.319729
O O5 0.375536 0.452444 0.178838
O O6 0.306944 0.360913 0.151168
O O7 0.193581 0.439681 0.111730
O O8 0.052965 0.501272 0.069426
O O9 0.925379 0.567810 0.137033
O O10 0.827699 0.254470 0.853169
O O11 0.843299 0.310796 0.742104
O O12 0.995253 0.307863 0.838586
O O13 0.360676 0.921546 0.516112
O O14 0.250000 0.000000 0.485927
O O15 0.171950 0.845255 0.110661
#
# Coordination Sequence:
#
# PCOD9507461 Si02
#       7
#    16  16  16  16  16  16  16
#     4  10  21  31  50  77 106 138 185 220 251 324
#     4  11  20  35  53  77 110 141 176 225 275 316
#     4  10  21  35  50  73 113 149 175 216 269 317
#     4   9  17  32  51  82 102 132 169 225 288 321
#     4  10  22  35  49  75 111 153 187 212 260 331
#     4  11  19  33  52  78 107 142 182 222 264 319
#     4   9  17  30  55  78 105 129 173 223 283 326
#
# _framework density 18.148717000000001
#
# number of rings (size 3 to 8) (size 9 to 14) (size 15 to 20)
#    0.000    2.000    2.857    3.857    0.000    6.286 
#    0.000    0.714    0.000    0.000    0.000    0.000 
#    0.000    0.000    0.000    0.000    0.000    0.000 
#
# Total GULP energy -311994.242624 kJ/mol
# GULP energy per Si atom -5571.325761 kJ/mol
# Density = 1.810741 g / cm^3
# Si number density = 18.148717 Si / 1000 Ang^3
#
#
#
# Elastic Constant Matrix: (Units=GPa)
#
#
# Indices 1 2 3 4 5 6 
#
# 1 40.4763 23.1415 15.9552 0.0000 0.0000 0.0000
# 2 23.1415 132.4130 20.8098 0.0000 0.0000 0.0000
# 3 15.9552 20.8098 49.3343 0.0000 0.0000 0.0000
# 4 0.0000 0.0000 0.0000 25.5848 0.0000 0.0000
# 5 0.0000 0.0000 0.0000 0.0000 2.6267 0.0000
# 6 0.0000 0.0000 0.0000 0.0000 0.0000 20.0864
#
#
#
# Elastic Compliance Matrix: (Units=1/GPa)
#
#
# Indices 1 2 3 4 5 6 
#
# 1 0.030177 -0.004006 -0.008070 0.000000 0.000000 0.000000
# 2 -0.004006 0.008620 -0.002341 0.000000 0.000000 0.000000
# 3 -0.008070 -0.002341 0.023867 0.000000 0.000000 0.000000
# 4 0.000000 0.000000 0.000000 0.039086 0.000000 0.000000
# 5 0.000000 0.000000 0.000000 0.000000 0.380713 0.000000
# 6 0.000000 0.000000 0.000000 0.000000 0.000000 0.049785
#
#
# Mechanical properties :
#
#
# Convention : Reuss Voigt Hill
#
# Bulk Modulus (GPa) = 29.55800 38.00405 33.78102
# Shear Modulus (GPa) = 8.73580 20.48071 14.60826
#
# Velocity S-wave (km/s) = 2.19634 3.36295 2.84019
# Velocity P-wave (km/s) = 4.77009 6.00542 5.42305
#
# Compressibility (1/GPa) = 0.03383179
#
# Stress axis : x y z
#
# Youngs Moduli (GPa) = 33.13777 116.00889 41.89884
#
# Poissons Ratio (x) = 0.46470 0.33812
# Poissons Ratio (y) = 0.13274 0.09807
# Poissons Ratio (z) = 0.26742 0.27152
#
# Static dielectric constant tensor:
#      x y z
#    x 1.644080 0.000000 0.000000 
#    y 0.000000 1.647030 0.000000 
#    z 0.000000 0.000000 1.662330 
# 
# From -- ./inp_files/37947.got.cif
#   From: 2010.05.17/outbox.cif.g08.bks.cpg/sg68_19_cif.got.tgz:37947.got - 2010.06.03 18:57:09.
