data_PCOD9507216
_publ_section_title
;
Structure prediction by ZEFSAII (Michael W. Deem and Ramdas Pophale) SiO2 
 PCOD9507216
Probable space group: C C C A
;
_chemical_formula_sum "Si O2"
_cell_formula_units_Z 48
_cell_length_a 7.932049
_cell_length_b 17.936756
_cell_length_c 13.572745
_cell_angle_alpha 90.000000
_cell_angle_beta 90.000000
_cell_angle_gamma 90.000000
_cell_volume 1931.065383
_symmetry_space_group_name_H-M "C C C A"
_symmetry_group_IT_number 68
_space_group.IT_coordinate_system_code '2'
_symmetry_cell_setting 'orthorhombic'
loop_
_space_group_symop_operation_xyz
x,y,z
-x,1/2-y,z
x,1/2-y,1/2-z
-x,y,1/2-z
-x,-y,-z
x,1/2+y,-z
-x,1/2+y,1/2+z
x,-y,1/2+z
1/2+x,1/2+y,z
1/2-x,-y,z
1/2+x,-y,1/2-z
1/2-x,1/2+y,1/2-z
1/2-x,1/2-y,-z
1/2+x,y,-z
1/2-x,y,1/2+z
1/2+x,1/2-y,1/2+z
loop_
_atom_site_type_symbol
_atom_site_label
_atom_site_fract_x
_atom_site_fract_y
_atom_site_fract_z
Si Si1 0.550282 0.360465 0.143419
Si Si2 0.947624 0.984565 0.612100
Si Si3 0.582650 0.829324 0.431709
O O1 0.500000 0.330563 0.250000
O O2 0.560158 0.450121 0.158534
O O3 0.726801 0.330695 0.104515
O O4 0.426432 0.344326 0.050549
O O5 0.991219 0.897965 0.624530
O O6 0.750000 0.000000 0.628181
O O7 0.000000 0.000000 0.500000
O O8 0.500000 0.750000 0.412057
#
# Coordination Sequence:
#
# PCOD9507216 Si02
#       3
#    16  16  16
#     4  11  24  44  76 110 146 199 253 300 364 447
#     4  10  20  39  67 103 143 193 244 295 355 432
#     4  11  23  45  75 111 152 191 239 313 376 436
#
# _framework density 24.856745
#
# number of rings (size 3 to 8) (size 9 to 14) (size 15 to 20)
#    0.000    1.333    0.000   10.000    0.000    3.333 
#    0.000    5.000    0.000   29.000    0.000    0.000 
#    0.000    0.000    0.000    0.000    0.000    0.000 
#
# Total GULP energy -134229.780996 kJ/mol
# GULP energy per Si atom -5592.907541 kJ/mol
# Density = 2.480017 g / cm^3
# Si number density = 24.856745 Si / 1000 Ang^3
#
#
#
# Elastic Constant Matrix: (Units=GPa)
#
#
# Indices 1 2 3 4 5 6 
#
# 1 152.1672 53.7529 87.9282 0.0000 0.0000 0.0000
# 2 53.7529 233.2798 44.9227 0.0000 0.0000 0.0000
# 3 87.9282 44.9227 167.8411 0.0000 0.0000 0.0000
# 4 0.0000 0.0000 0.0000 -30.0736 0.0000 0.0000
# 5 0.0000 0.0000 0.0000 0.0000 19.9126 0.0000
# 6 0.0000 0.0000 0.0000 0.0000 0.0000 19.6819
#
#
#
# Elastic Compliance Matrix: (Units=1/GPa)
#
#
# Indices 1 2 3 4 5 6 
#
# 1 0.009806 -0.001339 -0.004779 0.000000 0.000000 0.000000
# 2 -0.001339 0.004703 -0.000557 0.000000 0.000000 0.000000
# 3 -0.004779 -0.000557 0.008611 0.000000 0.000000 0.000000
# 4 0.000000 0.000000 0.000000 -0.033252 0.000000 0.000000
# 5 0.000000 0.000000 0.000000 0.000000 0.050219 0.000000
# 6 0.000000 0.000000 0.000000 0.000000 0.000000 0.050808
#
#
# Mechanical properties :
#
#
# Convention : Reuss Voigt Hill
#
# Bulk Modulus (GPa) = 102.36295 102.94394 102.65345
# Shear Modulus (GPa) = 46.51094 26.34982 36.43038
#
# Velocity S-wave (km/s) = 4.33038 3.25940 3.83249
# Velocity P-wave (km/s) = 8.14085 7.46121 7.80843
#
# Compressibility (1/GPa) = 0.00976916
#
# Stress axis : x y z
#
# Youngs Moduli (GPa) = 101.97639 212.64975 116.13602
#
# Poissons Ratio (x) = 0.28481 0.55499
# Poissons Ratio (y) = 0.13658 0.06469
# Poissons Ratio (z) = 0.48732 0.11845
#
# Static dielectric constant tensor:
#      x y z
#    x 1.922840 0.000000 0.000000 
#    y 0.000000 2.044800 0.000000 
#    z 0.000000 0.000000 1.641210 
# 
# From -- ./inp_files/18764.got.cif
#   From: 2010.05.17/outbox.cif.g08.bks.cpg/sg68_10_cif.got.tgz:18764.got - 2010.06.03 18:57:09.
