data_PCOD9507482
_publ_section_title
;
Structure prediction by ZEFSAII (Michael W. Deem and Ramdas Pophale) SiO2 
 PCOD9507482
Probable space group: C C C A
;
_chemical_formula_sum "Si O2"
_cell_formula_units_Z 88
_cell_length_a 19.373613
_cell_length_b 16.162404
_cell_length_c 13.429212
_cell_angle_alpha 90.000000
_cell_angle_beta 90.000000
_cell_angle_gamma 90.000000
_cell_volume 4205.010730
_symmetry_space_group_name_H-M "C C C A"
_symmetry_group_IT_number 68
_space_group.IT_coordinate_system_code '2'
_symmetry_cell_setting 'orthorhombic'
loop_
_space_group_symop_operation_xyz
x,y,z
-x,1/2-y,z
x,1/2-y,1/2-z
-x,y,1/2-z
-x,-y,-z
x,1/2+y,-z
-x,1/2+y,1/2+z
x,-y,1/2+z
1/2+x,1/2+y,z
1/2-x,-y,z
1/2+x,-y,1/2-z
1/2-x,1/2+y,1/2-z
1/2-x,1/2-y,-z
1/2+x,y,-z
1/2-x,y,1/2+z
1/2+x,1/2-y,1/2+z
loop_
_atom_site_type_symbol
_atom_site_label
_atom_site_fract_x
_atom_site_fract_y
_atom_site_fract_z
Si Si1 0.000000 0.250000 0.417236
Si Si2 0.500000 0.462831 0.250000
Si Si3 0.851292 0.273035 0.354156
Si Si4 0.250000 0.500000 0.596504
Si Si5 0.317863 0.119384 0.544850
Si Si6 0.471650 0.910826 0.964877
Si Si7 0.357364 0.054173 0.761060
O O1 0.070176 0.261705 0.356537
O O2 0.991847 0.332927 0.482422
O O3 0.485678 0.409371 0.152354
O O4 0.432999 0.520733 0.263001
O O5 0.815669 0.250000 0.250000
O O6 0.815907 0.218674 0.439539
O O7 0.859566 0.370270 0.340328
O O8 0.258497 0.577633 0.521339
O O9 0.312659 0.509184 0.674623
O O10 0.391168 0.096958 0.493618
O O11 0.322503 0.081017 0.656778
O O12 0.500000 0.000000 0.000000
#
# Coordination Sequence:
#
# PCOD9507482 Si02
#       7
#     8   8  16   8  16  16  16
#     4  10  21  33  58  94 130 162 204 256 338 386
#     4  12  22  37  67  92 126 162 222 269 328 383
#     4   9  20  35  59  91 123 156 208 274 316 369
#     4  12  24  40  62  86 130 174 212 254 324 408
#     4  10  22  40  59  90 124 165 214 260 323 389
#     4  11  21  38  62  91 129 161 204 269 324 381
#     4  11  23  38  64  93 122 169 216 272 324 386
#
# _framework density 20.927415
#
# number of rings (size 3 to 8) (size 9 to 14) (size 15 to 20)
#    0.000    1.455    3.636    1.909    5.091    1.091 
#    0.000    0.000    0.000    2.182    0.000    0.000 
#    0.000    0.000    0.000    0.000    0.000    0.000 
#
# Total GULP energy -245161.481983 kJ/mol
# GULP energy per Si atom -5571.851863 kJ/mol
# Density = 2.087978 g / cm^3
# Si number density = 20.927415 Si / 1000 Ang^3
#
#
#
# Elastic Constant Matrix: (Units=GPa)
#
#
# Indices 1 2 3 4 5 6 
#
# 1 54.6510 2.0746 36.7654 0.0000 0.0000 0.0000
# 2 2.0746 70.0388 39.0090 0.0000 0.0000 0.0000
# 3 36.7654 39.0090 144.3897 0.0000 0.0000 0.0000
# 4 0.0000 0.0000 0.0000 -10.6329 0.0000 0.0000
# 5 0.0000 0.0000 0.0000 0.0000 27.7175 0.0000
# 6 0.0000 0.0000 0.0000 0.0000 0.0000 19.6978
#
#
#
# Elastic Compliance Matrix: (Units=1/GPa)
#
#
# Indices 1 2 3 4 5 6 
#
# 1 0.022598 0.002984 -0.006560 0.000000 0.000000 0.000000
# 2 0.002984 0.017201 -0.005407 0.000000 0.000000 0.000000
# 3 -0.006560 -0.005407 0.010057 0.000000 0.000000 0.000000
# 4 0.000000 0.000000 0.000000 -0.094047 0.000000 0.000000
# 5 0.000000 0.000000 0.000000 0.000000 0.036078 0.000000
# 6 0.000000 0.000000 0.000000 0.000000 0.000000 0.050767
#
#
# Mechanical properties :
#
#
# Convention : Reuss Voigt Hill
#
# Bulk Modulus (GPa) = 31.35770 47.19750 39.27760
# Shear Modulus (GPa) = 70.17579 20.10516 45.14048
#
# Velocity S-wave (km/s) = 5.79705 3.10289 4.64939
# Velocity P-wave (km/s) = 7.73461 5.95308 6.90157
#
# Compressibility (1/GPa) = 0.03189009
#
# Stress axis : x y z
#
# Youngs Moduli (GPa) = 44.25174 58.13653 99.43406
#
# Poissons Ratio (x) = -0.17351 0.65232
# Poissons Ratio (y) = -0.13207 0.53764
# Poissons Ratio (z) = 0.29031 0.31434
#
# Static dielectric constant tensor:
#      x y z
#    x 1.780330 0.000000 0.000000 
#    y 0.000000 1.833330 0.000000 
#    z 0.000000 0.000000 1.763550 
# 
# From -- ./inp_files/15467.got.cif
#   From: 2010.05.17/outbox.cif.g08.bks.cpg/sg68_8_cif.got.tgz:15467.got - 2010.06.03 18:57:09.
