data_PCOD9507307
_publ_section_title
;
Structure prediction by ZEFSAII (Michael W. Deem and Ramdas Pophale) SiO2 
 PCOD9507307
Probable space group: C C C A
;
_chemical_formula_sum "Si O2"
_cell_formula_units_Z 104
_cell_length_a 18.036551
_cell_length_b 12.936930
_cell_length_c 20.790515
_cell_angle_alpha 90.000000
_cell_angle_beta 90.000000
_cell_angle_gamma 90.000000
_cell_volume 4851.208826
_symmetry_space_group_name_H-M "C C C A"
_symmetry_group_IT_number 68
_space_group.IT_coordinate_system_code '2'
_symmetry_cell_setting 'orthorhombic'
loop_
_space_group_symop_operation_xyz
x,y,z
-x,1/2-y,z
x,1/2-y,1/2-z
-x,y,1/2-z
-x,-y,-z
x,1/2+y,-z
-x,1/2+y,1/2+z
x,-y,1/2+z
1/2+x,1/2+y,z
1/2-x,-y,z
1/2+x,-y,1/2-z
1/2-x,1/2+y,1/2-z
1/2-x,1/2-y,-z
1/2+x,y,-z
1/2-x,y,1/2+z
1/2+x,1/2-y,1/2+z
loop_
_atom_site_type_symbol
_atom_site_label
_atom_site_fract_x
_atom_site_fract_y
_atom_site_fract_z
Si Si1 0.271204 0.113572 0.972257
Si Si2 0.250000 0.500000 0.721536
Si Si3 0.630919 0.047904 0.823317
Si Si4 0.853886 0.204803 0.438849
Si Si5 0.380867 0.651200 0.908345
Si Si6 0.133694 0.330488 0.691190
Si Si7 0.500000 0.250000 0.017556
Si Si8 0.500000 0.035224 0.250000
O O1 0.197700 0.159331 0.004678
O O2 0.328750 0.118507 0.032392
O O3 0.250000 0.000000 0.950725
O O4 0.312736 0.187582 0.922109
O O5 0.307810 0.441317 0.768472
O O6 0.198240 0.415945 0.686810
O O7 0.642342 0.131225 0.878244
O O8 0.549553 0.039692 0.793566
O O9 0.636361 0.934794 0.855687
O O10 0.933479 0.216454 0.471384
O O11 0.369440 0.761198 0.873048
O O12 0.463733 0.661353 0.937426
O O13 0.146951 0.250000 0.750000
O O14 0.057159 0.391052 0.710177
#
# Coordination Sequence:
#
# PCOD9507307 Si02
#       8
#    16   8  16  16  16  16   8   8
#     4  10  20  40  66  96 124 170 217 273 330 398
#     4  10  22  38  64  96 128 176 224 264 336 384
#     4  11  20  37  64  94 133 179 213 269 332 393
#     4  10  22  39  64  92 135 165 219 269 334 393
#     4  11  20  35  66  93 132 173 218 267 333 378
#     4  11  21  36  63  99 134 172 222 276 317 395
#     4  10  24  40  59  97 124 172 220 270 318 398
#     4  10  21  34  60  97 134 180 231 266 323 392
#
# _framework density 21.437956
#
# number of rings (size 3 to 8) (size 9 to 14) (size 15 to 20)
#    0.000    1.538    4.615    2.077    0.000    0.615 
#    0.000    3.077   15.231    0.000    0.000    0.000 
#    0.000    0.000    0.000    0.000    0.000    0.000 
#
# Total GULP energy -290404.120183 kJ/mol
# GULP energy per Si atom -5584.694619 kJ/mol
# Density = 2.138916 g / cm^3
# Si number density = 21.437956 Si / 1000 Ang^3
#
#
#
# Elastic Constant Matrix: (Units=GPa)
#
#
# Indices 1 2 3 4 5 6 
#
# 1 146.9581 69.6150 31.7584 0.0000 0.0000 0.0000
# 2 69.6150 132.3356 50.8963 0.0000 0.0000 0.0000
# 3 31.7584 50.8963 73.8592 0.0000 0.0000 0.0000
# 4 0.0000 0.0000 0.0000 44.3191 0.0000 0.0000
# 5 0.0000 0.0000 0.0000 0.0000 20.2331 0.0000
# 6 0.0000 0.0000 0.0000 0.0000 0.0000 21.6023
#
#
#
# Elastic Compliance Matrix: (Units=1/GPa)
#
#
# Indices 1 2 3 4 5 6 
#
# 1 0.009101 -0.004466 -0.000836 0.000000 0.000000 0.000000
# 2 -0.004466 0.012473 -0.006675 0.000000 0.000000 0.000000
# 3 -0.000836 -0.006675 0.018498 0.000000 0.000000 0.000000
# 4 0.000000 0.000000 0.000000 0.022564 0.000000 0.000000
# 5 0.000000 0.000000 0.000000 0.000000 0.049424 0.000000
# 6 0.000000 0.000000 0.000000 0.000000 0.000000 0.046291
#
#
# Mechanical properties :
#
#
# Convention : Reuss Voigt Hill
#
# Bulk Modulus (GPa) = 62.03867 73.07693 67.55780
# Shear Modulus (GPa) = 26.64148 30.62312 28.63230
#
# Velocity S-wave (km/s) = 3.52905 3.78359 3.65854
# Velocity P-wave (km/s) = 6.75331 7.29719 7.03051
#
# Compressibility (1/GPa) = 0.01611898
#
# Stress axis : x y z
#
# Youngs Moduli (GPa) = 109.87949 80.17274 54.05936
#
# Poissons Ratio (x) = 0.35806 0.04518
# Poissons Ratio (y) = 0.49073 0.36084
# Poissons Ratio (z) = 0.09182 0.53514
#
# Static dielectric constant tensor:
#      x y z
#    x 1.802270 0.000000 0.000000 
#    y 0.000000 1.820150 0.000000 
#    z 0.000000 0.000000 1.812680 
# 
# From -- ./inp_files/51476.got.cif
#   From: 2010.05.17/outbox.cif.g08.bks.cpg/sg68_26_cif.got.tgz:51476.got - 2010.06.03 18:57:09.
