data_PCOD9507677
_publ_section_title
;
Structure prediction by ZEFSAII (Michael W. Deem and Ramdas Pophale) SiO2 
 PCOD9507677
Probable space group: C C C A
;
_chemical_formula_sum "Si O2"
_cell_formula_units_Z 80
_cell_length_a 14.699413
_cell_length_b 14.126973
_cell_length_c 18.603715
_cell_angle_alpha 90.000000
_cell_angle_beta 90.000000
_cell_angle_gamma 90.000000
_cell_volume 3863.214167
_symmetry_space_group_name_H-M "C C C A"
_symmetry_group_IT_number 68
_space_group.IT_coordinate_system_code '2'
_symmetry_cell_setting 'orthorhombic'
loop_
_space_group_symop_operation_xyz
x,y,z
-x,1/2-y,z
x,1/2-y,1/2-z
-x,y,1/2-z
-x,-y,-z
x,1/2+y,-z
-x,1/2+y,1/2+z
x,-y,1/2+z
1/2+x,1/2+y,z
1/2-x,-y,z
1/2+x,-y,1/2-z
1/2-x,1/2+y,1/2-z
1/2-x,1/2-y,-z
1/2+x,y,-z
1/2-x,y,1/2+z
1/2+x,1/2-y,1/2+z
loop_
_atom_site_type_symbol
_atom_site_label
_atom_site_fract_x
_atom_site_fract_y
_atom_site_fract_z
Si Si1 0.090993 0.464383 0.353422
Si Si2 0.795453 0.782455 0.826310
Si Si3 0.500000 0.250000 0.138628
Si Si4 0.846454 0.866257 0.438299
Si Si5 0.568810 0.837057 0.088095
Si Si6 0.500000 0.894216 0.750000
O O1 0.146670 0.378725 0.319606
O O2 0.145993 0.525048 0.412399
O O3 0.998204 0.421862 0.387910
O O4 0.068783 0.539622 0.291882
O O5 0.753277 0.750000 0.750000
O O6 0.732025 0.809934 0.894881
O O7 0.867695 0.702024 0.848510
O O8 0.434860 0.187831 0.091226
O O9 0.546912 0.174403 0.191855
O O10 0.861831 0.860992 0.523418
O O11 0.500000 0.750000 0.068797
#
# Coordination Sequence:
#
# PCOD9507677 Si02
#       6
#    16  16   8  16  16   8
#     4  10  21  37  63  87 122 160 207 257 306 372
#     4  11  24  38  62  91 125 163 201 253 322 372
#     4   9  20  34  60  86 111 164 200 250 305 376
#     4  11  21  39  61  88 123 155 209 256 316 361
#     4  10  21  40  63  89 120 164 211 252 311 382
#     4   9  18  34  59  86 116 152 205 246 300 363
#
# _framework density 20.708144999999998
#
# number of rings (size 3 to 8) (size 9 to 14) (size 15 to 20)
#    0.000    1.800    1.000    3.000    5.600    2.800 
#    0.000    0.000    0.000    0.000    0.000    0.000 
#    0.000    0.000    0.000    0.000    0.000    0.000 
#
# Total GULP energy -222901.212176 kJ/mol
# GULP energy per Si atom -5572.530304 kJ/mol
# Density = 2.066101 g / cm^3
# Si number density = 20.708145 Si / 1000 Ang^3
#
#
#
# Elastic Constant Matrix: (Units=GPa)
#
#
# Indices 1 2 3 4 5 6 
#
# 1 55.3274 17.1320 6.9462 0.0000 0.0000 0.0000
# 2 17.1320 90.7526 31.7290 0.0000 0.0000 0.0000
# 3 6.9462 31.7290 63.0066 0.0000 0.0000 0.0000
# 4 0.0000 0.0000 0.0000 -54.7945 0.0000 0.0000
# 5 0.0000 0.0000 0.0000 0.0000 -63.8180 0.0000
# 6 0.0000 0.0000 0.0000 0.0000 0.0000 21.0040
#
#
#
# Elastic Compliance Matrix: (Units=1/GPa)
#
#
# Indices 1 2 3 4 5 6 
#
# 1 0.019203 -0.003501 -0.000354 0.000000 0.000000 0.000000
# 2 -0.003501 0.014012 -0.006670 0.000000 0.000000 0.000000
# 3 -0.000354 -0.006670 0.019269 0.000000 0.000000 0.000000
# 4 0.000000 0.000000 0.000000 -0.018250 0.000000 0.000000
# 5 0.000000 0.000000 0.000000 0.000000 -0.015670 0.000000
# 6 0.000000 0.000000 0.000000 0.000000 0.000000 0.047610
#
#
# Mechanical properties :
#
#
# Convention : Reuss Voigt Hill
#
# Bulk Modulus (GPa) = 31.81320 35.63344 33.72332
# Shear Modulus (GPa) = 51.17552 -9.30307 20.93622
#
# Velocity S-wave (km/s) = 4.97659 -2.12184 3.18309
# Velocity P-wave (km/s) = 6.95829 3.35289 5.46167
#
# Compressibility (1/GPa) = 0.03143349
#
# Stress axis : x y z
#
# Youngs Moduli (GPa) = 52.07564 71.36755 51.89591
#
# Poissons Ratio (x) = 0.24988 0.01836
# Poissons Ratio (y) = 0.18234 0.34615
# Poissons Ratio (z) = 0.01842 0.47603
#
# Static dielectric constant tensor:
#      x y z
#    x 1.771730 0.000000 0.000000 
#    y 0.000000 1.729780 0.000000 
#    z 0.000000 0.000000 1.797220 
# 
# From -- ./inp_files/31811.got.cif
#   From: 2010.05.17/outbox.cif.g08.bks.cpg/sg68_16_cif.got.tgz:31811.got - 2010.06.03 18:57:09.
