data_PCOD9507719
_publ_section_title
;
Structure prediction by ZEFSAII (Michael W. Deem and Ramdas Pophale) SiO2 
 PCOD9507719
Probable space group: C C C A
;
_chemical_formula_sum "Si O2"
_cell_formula_units_Z 64
_cell_length_a 14.325383
_cell_length_b 5.303421
_cell_length_c 33.438476
_cell_angle_alpha 90.000000
_cell_angle_beta 90.000000
_cell_angle_gamma 90.000000
_cell_volume 2540.439295
_symmetry_space_group_name_H-M "C C C A"
_symmetry_group_IT_number 68
_space_group.IT_coordinate_system_code '2'
_symmetry_cell_setting 'orthorhombic'
loop_
_space_group_symop_operation_xyz
x,y,z
-x,1/2-y,z
x,1/2-y,1/2-z
-x,y,1/2-z
-x,-y,-z
x,1/2+y,-z
-x,1/2+y,1/2+z
x,-y,1/2+z
1/2+x,1/2+y,z
1/2-x,-y,z
1/2+x,-y,1/2-z
1/2-x,1/2+y,1/2-z
1/2-x,1/2-y,-z
1/2+x,y,-z
1/2-x,y,1/2+z
1/2+x,1/2-y,1/2+z
loop_
_atom_site_type_symbol
_atom_site_label
_atom_site_fract_x
_atom_site_fract_y
_atom_site_fract_z
Si Si1 0.888628 0.194108 0.105062
Si Si2 0.644364 0.303329 0.984798
Si Si3 0.362672 0.997859 0.725323
Si Si4 0.103706 0.809317 0.138522
O O1 0.861795 0.109124 0.060797
O O2 0.848994 0.473124 0.112767
O O3 0.000000 0.250000 0.107978
O O4 0.856536 0.974557 0.135830
O O5 0.601218 0.525278 0.011391
O O6 0.750000 0.250000 0.000000
O O7 0.387437 0.750000 0.750000
O O8 0.403720 0.943923 0.681638
O O9 0.388489 0.250000 0.750000
O O10 0.250000 0.000000 0.720335
O O11 0.000000 0.750000 0.123101
#
# Coordination Sequence:
#
# PCOD9507719 Si02
#       4
#    16  16  16  16
#     4  10  21  38  60  84 119 159 198 247 302 358
#     4  10  21  38  56  82 118 150 194 255 293 359
#     4  10  21  39  61  88 125 160 200 247 300 358
#     4  10  21  39  60  90 122 156 203 246 296 361
#
# _framework density 25.192492000000001
#
# number of rings (size 3 to 8) (size 9 to 14) (size 15 to 20)
#    0.000    2.000    0.000    3.000    0.000    1.500 
#   13.500    1.250    0.000    0.000    0.000    0.000 
#    0.000    0.000    0.000    0.000    0.000    0.000 
#
# Total GULP energy -178645.694800 kJ/mol
# GULP energy per Si atom -5582.677963 kJ/mol
# Density = 2.513515 g / cm^3
# Si number density = 25.192492 Si / 1000 Ang^3
#
#
#
# Elastic Constant Matrix: (Units=GPa)
#
#
# Indices 1 2 3 4 5 6 
#
# 1 100.8735 12.5995 -27.1108 0.0000 0.0000 0.0000
# 2 12.5995 237.9710 43.2508 0.0000 0.0000 0.0000
# 3 -27.1108 43.2508 80.2410 0.0000 0.0000 0.0000
# 4 0.0000 0.0000 0.0000 32.2368 0.0000 0.0000
# 5 0.0000 0.0000 0.0000 0.0000 11.8550 0.0000
# 6 0.0000 0.0000 0.0000 0.0000 0.0000 -27.3425
#
#
#
# Elastic Compliance Matrix: (Units=1/GPa)
#
#
# Indices 1 2 3 4 5 6 
#
# 1 0.011330 -0.001436 0.004602 0.000000 0.000000 0.000000
# 2 -0.001436 0.004841 -0.003094 0.000000 0.000000 0.000000
# 3 0.004602 -0.003094 0.015685 0.000000 0.000000 0.000000
# 4 0.000000 0.000000 0.000000 0.031020 0.000000 0.000000
# 5 0.000000 0.000000 0.000000 0.000000 0.084353 0.000000
# 6 0.000000 0.000000 0.000000 0.000000 0.000000 -0.036573
#
#
# Mechanical properties :
#
#
# Convention : Reuss Voigt Hill
#
# Bulk Modulus (GPa) = 31.25158 52.95159 42.10159
# Shear Modulus (GPa) = 41.26125 29.37291 35.31708
#
# Velocity S-wave (km/s) = 4.05141 3.41829 3.74824
# Velocity P-wave (km/s) = 5.85810 6.05343 5.95657
#
# Compressibility (1/GPa) = 0.03199838
#
# Stress axis : x y z
#
# Youngs Moduli (GPa) = 88.26387 206.58407 63.75399
#
# Poissons Ratio (x) = 0.29671 -0.29340
# Poissons Ratio (y) = 0.12677 0.19728
# Poissons Ratio (z) = -0.40620 0.63926
#
# Static dielectric constant tensor:
#      x y z
#    x 5.927630 0.000000 0.000000 
#    y 0.000000 2.243830 0.000000 
#    z 0.000000 0.000000 2.026790 
# 
# From -- ./inp_files/46322.got.cif
#   From: 2010.05.17/outbox.cif.g08.bks.cpg/sg68_24_cif.got.tgz:46322.got - 2010.06.03 18:57:09.
