data_PCOD9507704
_publ_section_title
;
Structure prediction by ZEFSAII (Michael W. Deem and Ramdas Pophale) SiO2 
 PCOD9507704
Probable space group: C C C A
;
_chemical_formula_sum "Si O2"
_cell_formula_units_Z 52
_cell_length_a 9.103162
_cell_length_b 13.577242
_cell_length_c 16.241168
_cell_angle_alpha 90.000000
_cell_angle_beta 90.000000
_cell_angle_gamma 90.000000
_cell_volume 2007.340695
_symmetry_space_group_name_H-M "C C C A"
_symmetry_group_IT_number 68
_space_group.IT_coordinate_system_code '2'
_symmetry_cell_setting 'orthorhombic'
loop_
_space_group_symop_operation_xyz
x,y,z
-x,1/2-y,z
x,1/2-y,1/2-z
-x,y,1/2-z
-x,-y,-z
x,1/2+y,-z
-x,1/2+y,1/2+z
x,-y,1/2+z
1/2+x,1/2+y,z
1/2-x,-y,z
1/2+x,-y,1/2-z
1/2-x,1/2+y,1/2-z
1/2-x,1/2-y,-z
1/2+x,y,-z
1/2-x,y,1/2+z
1/2+x,1/2-y,1/2+z
loop_
_atom_site_type_symbol
_atom_site_label
_atom_site_fract_x
_atom_site_fract_y
_atom_site_fract_z
Si Si1 0.396159 0.349424 0.045735
Si Si2 0.271414 0.301414 0.872631
Si Si3 0.916693 0.043015 0.832516
Si Si4 0.000000 0.750000 0.750000
O O1 0.500000 0.250000 0.035261
O O2 0.264815 0.311108 0.104550
O O3 0.477676 0.443160 0.086697
O O4 0.319138 0.356637 0.956750
O O5 0.129484 0.342380 0.827163
O O6 0.402536 0.312767 0.810448
O O7 0.000000 0.013055 0.750000
O O8 0.750000 0.000000 0.839698
#
# Coordination Sequence:
#
# PCOD9507704 Si02
#       4
#    16  16  16   4
#     4   9  19  42  66  97 131 171 224 281 342 402
#     4  10  21  37  69 100 132 168 220 283 341 401
#     4  11  25  44  64  93 139 182 224 276 339 409
#     4  12  20  32  66 108 122 160 216 288 324 400
#
# _framework density 25.904920000000001
#
# number of rings (size 3 to 8) (size 9 to 14) (size 15 to 20)
#    0.000    1.846    1.538    1.846    2.154    5.538 
#    0.000    1.538    0.000    0.000    0.000    0.000 
#    0.000    0.000    0.000    0.000    0.000    0.000 
#
# Total GULP energy -144830.424418 kJ/mol
# GULP energy per Si atom -5570.400939 kJ/mol
# Density = 2.584596 g / cm^3
# Si number density = 25.904920 Si / 1000 Ang^3
#
#
#
# Elastic Constant Matrix: (Units=GPa)
#
#
# Indices 1 2 3 4 5 6 
#
# 1 116.0176 34.7329 73.4524 0.0000 0.0000 0.0000
# 2 34.7329 53.8205 49.6120 0.0000 0.0000 0.0000
# 3 73.4524 49.6120 154.5211 0.0000 0.0000 0.0000
# 4 0.0000 0.0000 0.0000 19.2175 0.0000 0.0000
# 5 0.0000 0.0000 0.0000 0.0000 66.4897 0.0000
# 6 0.0000 0.0000 0.0000 0.0000 0.0000 -172.8439
#
#
#
# Elastic Compliance Matrix: (Units=1/GPa)
#
#
# Indices 1 2 3 4 5 6 
#
# 1 0.012850 -0.003781 -0.004894 0.000000 0.000000 0.000000
# 2 -0.003781 0.027504 -0.007033 0.000000 0.000000 0.000000
# 3 -0.004894 -0.007033 0.011056 0.000000 0.000000 0.000000
# 4 0.000000 0.000000 0.000000 0.052036 0.000000 0.000000
# 5 0.000000 0.000000 0.000000 0.000000 0.015040 0.000000
# 6 0.000000 0.000000 0.000000 0.000000 0.000000 -0.005786
#
#
# Mechanical properties :
#
#
# Convention : Reuss Voigt Hill
#
# Bulk Modulus (GPa) = 50.01828 71.10596 60.56212
# Shear Modulus (GPa) = 33.16054 -6.32318 13.41868
#
# Velocity S-wave (km/s) = 3.58171 -1.56404 2.27842
# Velocity P-wave (km/s) = 6.03781 4.92410 5.50917
#
# Compressibility (1/GPa) = 0.01999269
#
# Stress axis : x y z
#
# Youngs Moduli (GPa) = 77.82093 36.35880 90.44624
#
# Poissons Ratio (x) = 0.13748 0.44267
# Poissons Ratio (y) = 0.29425 0.63613
# Poissons Ratio (z) = 0.38088 0.25572
#
# Static dielectric constant tensor:
#      x y z
#    x 2.192780 0.000000 0.000000 
#    y 0.000000 2.227780 0.000000 
#    z 0.000000 0.000000 1.992350 
# 
# From -- ./inp_files/18981.got.cif
#   From: 2010.05.17/outbox.cif.g08.bks.cpg/sg68_10_cif.got.tgz:18981.got - 2010.06.03 18:57:09.
