data_PCOD9507212
_publ_section_title
;
Structure prediction by ZEFSAII (Michael W. Deem and Ramdas Pophale) SiO2 
 PCOD9507212
Probable space group: C C C A
;
_chemical_formula_sum "Si O2"
_cell_formula_units_Z 116
_cell_length_a 14.573188
_cell_length_b 20.012403
_cell_length_c 16.465789
_cell_angle_alpha 90.000000
_cell_angle_beta 90.000000
_cell_angle_gamma 90.000000
_cell_volume 4802.156985
_symmetry_space_group_name_H-M "C C C A"
_symmetry_group_IT_number 68
_space_group.IT_coordinate_system_code '2'
_symmetry_cell_setting 'orthorhombic'
loop_
_space_group_symop_operation_xyz
x,y,z
-x,1/2-y,z
x,1/2-y,1/2-z
-x,y,1/2-z
-x,-y,-z
x,1/2+y,-z
-x,1/2+y,1/2+z
x,-y,1/2+z
1/2+x,1/2+y,z
1/2-x,-y,z
1/2+x,-y,1/2-z
1/2-x,1/2+y,1/2-z
1/2-x,1/2-y,-z
1/2+x,y,-z
1/2-x,y,1/2+z
1/2+x,1/2-y,1/2+z
loop_
_atom_site_type_symbol
_atom_site_label
_atom_site_fract_x
_atom_site_fract_y
_atom_site_fract_z
Si Si1 0.221652 0.594768 0.720950
Si Si2 0.196889 0.135811 0.633751
Si Si3 0.169001 0.283714 0.647576
Si Si4 0.000000 0.750000 0.250000
Si Si5 0.055738 0.658079 0.822628
Si Si6 0.979289 0.415640 0.558852
Si Si7 0.640488 0.330260 0.522089
Si Si8 0.572936 0.461247 0.887453
O O1 0.293104 0.580736 0.794342
O O2 0.268073 0.652625 0.666837
O O3 0.142931 0.625662 0.778821
O O4 0.167781 0.544616 0.661619
O O5 0.206392 0.210584 0.671613
O O6 0.094592 0.131882 0.599633
O O7 0.271700 0.132341 0.561277
O O8 0.070026 0.290167 0.691310
O O9 0.163597 0.280371 0.549833
O O10 0.090185 0.700507 0.899023
O O11 0.000000 0.688370 0.750000
O O12 0.991575 0.598750 0.856596
O O13 0.923145 0.451186 0.484970
O O14 0.067170 0.379640 0.519662
O O15 0.019743 0.469411 0.621399
#
# Coordination Sequence:
#
# PCOD9507212 Si02
#       8
#    16  16  16   4  16  16  16  16
#     4  10  20  39  66  94 132 180 231 286 351 429
#     4  11  22  42  66  99 137 186 236 292 362 435
#     4  12  23  41  63  96 141 185 234 288 358 433
#     4  12  24  40  64  92 136 196 228 284 352 432
#     4   8  17  38  65  93 130 172 228 295 360 421
#     4  10  21  41  65  97 134 178 230 299 365 422
#     4  10  22  37  66 101 134 181 240 298 358 446
#     4   9  19  40  68  93 131 175 225 292 360 423
#
# _framework density 24.155812000000001
#
# number of rings (size 3 to 8) (size 9 to 14) (size 15 to 20)
#    0.000    1.931    1.379    2.069    0.000    0.000 
#    0.000   25.517    0.000   42.207    0.000    0.000 
#    0.000    0.000    0.000    0.000    0.000    0.000 
#
# Total GULP energy -323693.829105 kJ/mol
# GULP energy per Si atom -5580.928088 kJ/mol
# Density = 2.410083 g / cm^3
# Si number density = 24.155812 Si / 1000 Ang^3
#
#
#
# Elastic Constant Matrix: (Units=GPa)
#
#
# Indices 1 2 3 4 5 6 
#
# 1 122.1972 35.8111 45.3747 0.0000 0.0000 0.0000
# 2 35.8111 51.7240 28.5727 0.0000 0.0000 0.0000
# 3 45.3747 28.5727 129.4512 0.0000 0.0000 0.0000
# 4 0.0000 0.0000 0.0000 1.3579 0.0000 0.0000
# 5 0.0000 0.0000 0.0000 0.0000 49.9974 0.0000
# 6 0.0000 0.0000 0.0000 0.0000 0.0000 53.4911
#
#
#
# Elastic Compliance Matrix: (Units=1/GPa)
#
#
# Indices 1 2 3 4 5 6 
#
# 1 0.010912 -0.006198 -0.002457 0.000000 0.000000 0.000000
# 2 -0.006198 0.025538 -0.003464 0.000000 0.000000 0.000000
# 3 -0.002457 -0.003464 0.009351 0.000000 0.000000 0.000000
# 4 0.000000 0.000000 0.000000 0.736442 0.000000 0.000000
# 5 0.000000 0.000000 0.000000 0.000000 0.020001 0.000000
# 6 0.000000 0.000000 0.000000 0.000000 0.000000 0.018695
#
#
# Mechanical properties :
#
#
# Convention : Reuss Voigt Hill
#
# Bulk Modulus (GPa) = 46.37595 58.09882 52.23739
# Shear Modulus (GPa) = 5.86603 33.87686 19.87145
#
# Velocity S-wave (km/s) = 1.56003 3.74897 2.87128
# Velocity P-wave (km/s) = 4.74186 6.54550 5.71528
#
# Compressibility (1/GPa) = 0.02156290
#
# Stress axis : x y z
#
# Youngs Moduli (GPa) = 91.64119 39.15697 106.94314
#
# Poissons Ratio (x) = 0.24269 0.26275
# Poissons Ratio (y) = 0.56798 0.37050
# Poissons Ratio (z) = 0.22515 0.13566
#
# Static dielectric constant tensor:
#      x y z
#    x 1.929760 0.000000 0.000000 
#    y 0.000000 1.915450 0.000000 
#    z 0.000000 0.000000 1.986950 
# 
# From -- ./inp_files/31251.got.cif
#   From: 2010.05.17/outbox.cif.g08.bks.cpg/sg68_16_cif.got.tgz:31251.got - 2010.06.03 18:57:09.
