data_PCOD9507556
_publ_section_title
;
Structure prediction by ZEFSAII (Michael W. Deem and Ramdas Pophale) SiO2 
 PCOD9507556
Probable space group: C C C A
;
_chemical_formula_sum "Si O2"
_cell_formula_units_Z 56
_cell_length_a 15.832534
_cell_length_b 5.098756
_cell_length_c 34.178321
_cell_angle_alpha 90.000000
_cell_angle_beta 90.000000
_cell_angle_gamma 90.000000
_cell_volume 2759.086924
_symmetry_space_group_name_H-M "C C C A"
_symmetry_group_IT_number 68
_space_group.IT_coordinate_system_code '2'
_symmetry_cell_setting 'orthorhombic'
loop_
_space_group_symop_operation_xyz
x,y,z
-x,1/2-y,z
x,1/2-y,1/2-z
-x,y,1/2-z
-x,-y,-z
x,1/2+y,-z
-x,1/2+y,1/2+z
x,-y,1/2+z
1/2+x,1/2+y,z
1/2-x,-y,z
1/2+x,-y,1/2-z
1/2-x,1/2+y,1/2-z
1/2-x,1/2-y,-z
1/2+x,y,-z
1/2-x,y,1/2+z
1/2+x,1/2-y,1/2+z
loop_
_atom_site_type_symbol
_atom_site_label
_atom_site_fract_x
_atom_site_fract_y
_atom_site_fract_z
Si Si1 0.939468 0.501683 0.807784
Si Si2 0.696537 0.750000 0.750000
Si Si3 0.558926 0.504052 0.396168
Si Si4 0.648582 0.997961 0.523550
O O1 0.863308 0.411056 0.780041
O O2 0.906944 0.547230 0.852133
O O3 0.000000 0.250000 0.808016
O O4 0.000000 0.750000 0.796952
O O5 0.750000 0.500000 0.732661
O O6 0.500000 0.250000 0.395196
O O7 0.623697 0.475304 0.431379
O O8 0.500000 0.750000 0.405217
O O9 0.616497 0.759121 0.497318
O O10 0.750000 0.000000 0.521491
#
# Coordination Sequence:
#
# PCOD9507556 Si02
#       4
#    16   8  16  16
#     4  10  22  42  64  86 120 164 200 239 305 372
#     4  12  25  40  63  98 126 152 204 260 305 360
#     4  10  21  37  59  86 112 148 199 243 283 343
#     4  10  21  36  54  80 115 153 188 230 292 351
#
# _framework density 20.296571
#
# number of rings (size 3 to 8) (size 9 to 14) (size 15 to 20)
#    0.000    1.714    0.000    3.857    0.000    5.714 
#    0.000    4.286    0.000    0.000    0.000    0.000 
#    0.000    0.000    0.000    0.000    0.000    0.000 
#
# Total GULP energy -156218.910676 kJ/mol
# GULP energy per Si atom -5579.246810 kJ/mol
# Density = 2.025038 g / cm^3
# Si number density = 20.296571 Si / 1000 Ang^3
#
#
#
# Elastic Constant Matrix: (Units=GPa)
#
#
# Indices 1 2 3 4 5 6 
#
# 1 48.1787 37.7350 49.0183 0.0000 0.0000 0.0000
# 2 37.7350 161.7836 35.1458 0.0000 0.0000 0.0000
# 3 49.0183 35.1458 135.0153 0.0000 0.0000 0.0000
# 4 0.0000 0.0000 0.0000 -3.3231 0.0000 0.0000
# 5 0.0000 0.0000 0.0000 0.0000 78.2803 0.0000
# 6 0.0000 0.0000 0.0000 0.0000 0.0000 14.9225
#
#
#
# Elastic Compliance Matrix: (Units=1/GPa)
#
#
# Indices 1 2 3 4 5 6 
#
# 1 0.038029 -0.006223 -0.012187 0.000000 0.000000 0.000000
# 2 -0.006223 0.007570 0.000289 0.000000 0.000000 0.000000
# 3 -0.012187 0.000289 0.011756 0.000000 0.000000 0.000000
# 4 0.000000 0.000000 0.000000 -0.300920 0.000000 0.000000
# 5 0.000000 0.000000 0.000000 0.000000 0.012775 0.000000
# 6 0.000000 0.000000 0.000000 0.000000 0.000000 0.067013
#
#
# Mechanical properties :
#
#
# Convention : Reuss Voigt Hill
#
# Bulk Modulus (GPa) = 47.36381 65.41953 56.39167
# Shear Modulus (GPa) = -41.49438 32.84785 -4.32327
#
# Velocity S-wave (km/s) = -4.52641 4.02729 -1.46105
# Velocity P-wave (km/s) = 1.98277 7.34352 4.99979
#
# Compressibility (1/GPa) = 0.02111317
#
# Stress axis : x y z
#
# Youngs Moduli (GPa) = 26.29565 132.10466 85.06305
#
# Poissons Ratio (x) = 0.82203 1.03666
# Poissons Ratio (y) = 0.16363 -0.02455
# Poissons Ratio (z) = 0.32046 -0.03813
#
# Static dielectric constant tensor:
#      x y z
#    x 1.735270 0.000000 0.000000 
#    y 0.000000 1.706350 0.000000 
#    z 0.000000 0.000000 1.740930 
# 
# From -- ./inp_files/55030.got.cif
#   From: 2010.05.17/outbox.cif.g08.bks.cpg/sg68_28_cif.got.tgz:55030.got - 2010.06.03 18:57:09.
