data_PCOD9507808
_publ_section_title
;
Structure prediction by ZEFSAII (Michael W. Deem and Ramdas Pophale) SiO2 
 PCOD9507808
Probable space group: C C C A
;
_chemical_formula_sum "Si O2"
_cell_formula_units_Z 88
_cell_length_a 15.759274
_cell_length_b 17.773755
_cell_length_c 13.854404
_cell_angle_alpha 90.000000
_cell_angle_beta 90.000000
_cell_angle_gamma 90.000000
_cell_volume 3880.638996
_symmetry_space_group_name_H-M "C C C A"
_symmetry_group_IT_number 68
_space_group.IT_coordinate_system_code '2'
_symmetry_cell_setting 'orthorhombic'
loop_
_space_group_symop_operation_xyz
x,y,z
-x,1/2-y,z
x,1/2-y,1/2-z
-x,y,1/2-z
-x,-y,-z
x,1/2+y,-z
-x,1/2+y,1/2+z
x,-y,1/2+z
1/2+x,1/2+y,z
1/2-x,-y,z
1/2+x,-y,1/2-z
1/2-x,1/2+y,1/2-z
1/2-x,1/2-y,-z
1/2+x,y,-z
1/2-x,y,1/2+z
1/2+x,1/2-y,1/2+z
loop_
_atom_site_type_symbol
_atom_site_label
_atom_site_fract_x
_atom_site_fract_y
_atom_site_fract_z
Si Si1 0.980620 0.447041 0.644055
Si Si2 0.250000 0.500000 0.210852
Si Si3 0.177824 0.879412 0.142614
Si Si4 0.560050 0.093299 0.959293
Si Si5 0.358685 0.389540 0.579467
Si Si6 0.807678 0.226568 0.408132
O O1 0.922921 0.372606 0.653953
O O2 0.925300 0.513770 0.594153
O O3 0.000000 0.474542 0.750000
O O4 0.057566 0.425575 0.573464
O O5 0.203346 0.557145 0.282307
O O6 0.315177 0.548361 0.146308
O O7 0.239758 0.810834 0.162163
O O8 0.185215 0.895658 0.026984
O O9 0.460353 0.105202 0.933947
O O10 0.621546 0.162141 0.932362
O O11 0.346141 0.305917 0.622149
O O12 0.750000 0.250000 0.500000
#
# Coordination Sequence:
#
# PCOD9507808 Si02
#       6
#    16   8  16  16  16  16
#     4  10  21  38  64  96 129 169 216 270 327 386
#     4  12  22  38  66  94 128 170 214 266 328 388
#     4  10  22  39  60  92 127 161 212 265 312 387
#     4  10  21  39  64  95 129 169 218 270 324 391
#     4  10  23  41  66  94 127 171 215 268 332 393
#     4  10  22  41  64  89 127 170 209 263 328 391
#
# _framework density 22.676679
#
# number of rings (size 3 to 8) (size 9 to 14) (size 15 to 20)
#    0.000    1.818    0.000    3.273    0.000   10.909 
#    0.000    1.818    0.000   16.364    0.000    0.000 
#    0.000    0.000    0.000    0.000    0.000    0.000 
#
# Total GULP energy -245403.323882 kJ/mol
# GULP energy per Si atom -5577.348270 kJ/mol
# Density = 2.262507 g / cm^3
# Si number density = 22.676679 Si / 1000 Ang^3
#
#
#
# Elastic Constant Matrix: (Units=GPa)
#
#
# Indices 1 2 3 4 5 6 
#
# 1 106.2422 66.5554 31.0855 0.0000 0.0000 0.0000
# 2 66.5554 156.0151 39.7927 0.0000 0.0000 0.0000
# 3 31.0855 39.7927 100.5386 0.0000 0.0000 0.0000
# 4 0.0000 0.0000 0.0000 24.3991 0.0000 0.0000
# 5 0.0000 0.0000 0.0000 0.0000 15.2884 0.0000
# 6 0.0000 0.0000 0.0000 0.0000 0.0000 47.7167
#
#
#
# Elastic Compliance Matrix: (Units=1/GPa)
#
#
# Indices 1 2 3 4 5 6 
#
# 1 0.013219 -0.005113 -0.002064 0.000000 0.000000 0.000000
# 2 -0.005113 0.009107 -0.002024 0.000000 0.000000 0.000000
# 3 -0.002064 -0.002024 0.011385 0.000000 0.000000 0.000000
# 4 0.000000 0.000000 0.000000 0.040985 0.000000 0.000000
# 5 0.000000 0.000000 0.000000 0.000000 0.065409 0.000000
# 6 0.000000 0.000000 0.000000 0.000000 0.000000 0.020957
#
#
# Mechanical properties :
#
#
# Convention : Reuss Voigt Hill
#
# Bulk Modulus (GPa) = 65.31119 70.85147 68.08133
# Shear Modulus (GPa) = 27.09049 32.50501 29.79775
#
# Velocity S-wave (km/s) = 3.46011 3.79015 3.62888
# Velocity P-wave (km/s) = 6.69527 7.10392 6.90262
#
# Compressibility (1/GPa) = 0.01531131
#
# Stress axis : x y z
#
# Youngs Moduli (GPa) = 75.64731 109.80637 87.83183
#
# Poissons Ratio (x) = 0.56143 0.18125
# Poissons Ratio (y) = 0.38678 0.17774
# Poissons Ratio (z) = 0.15610 0.22221
#
# Static dielectric constant tensor:
#      x y z
#    x 1.945000 0.000000 0.000000 
#    y 0.000000 1.878430 0.000000 
#    z 0.000000 0.000000 1.887220 
# 
# From -- ./inp_files/23587.got.cif
#   From: 2010.05.17/outbox.cif.g08.bks.cpg/sg68_12_cif.got.tgz:23587.got - 2010.06.03 18:57:09.
