data_PCOD9507162
_publ_section_title
;
Structure prediction by ZEFSAII (Michael W. Deem and Ramdas Pophale) SiO2 
 PCOD9507162
Probable space group: C C C A
;
_chemical_formula_sum "Si O2"
_cell_formula_units_Z 104
_cell_length_a 18.588381
_cell_length_b 24.716047
_cell_length_c 12.643777
_cell_angle_alpha 90.000000
_cell_angle_beta 90.000000
_cell_angle_gamma 90.000000
_cell_volume 5808.946884
_symmetry_space_group_name_H-M "C C C A"
_symmetry_group_IT_number 68
_space_group.IT_coordinate_system_code '2'
_symmetry_cell_setting 'orthorhombic'
loop_
_space_group_symop_operation_xyz
x,y,z
-x,1/2-y,z
x,1/2-y,1/2-z
-x,y,1/2-z
-x,-y,-z
x,1/2+y,-z
-x,1/2+y,1/2+z
x,-y,1/2+z
1/2+x,1/2+y,z
1/2-x,-y,z
1/2+x,-y,1/2-z
1/2-x,1/2+y,1/2-z
1/2-x,1/2-y,-z
1/2+x,y,-z
1/2-x,y,1/2+z
1/2+x,1/2-y,1/2+z
loop_
_atom_site_type_symbol
_atom_site_label
_atom_site_fract_x
_atom_site_fract_y
_atom_site_fract_z
Si Si1 0.770859 0.677127 0.600672
Si Si2 0.963592 0.166121 0.024740
Si Si3 0.750000 0.500000 0.108708
Si Si4 0.328012 0.250000 0.250000
Si Si5 0.831760 0.093785 0.015137
Si Si6 0.103571 0.218538 0.956546
Si Si7 0.500000 0.877320 0.250000
Si Si8 0.845612 0.084621 0.265656
O O1 0.721564 0.713500 0.675378
O O2 0.721045 0.641014 0.524864
O O3 0.826441 0.708877 0.527530
O O4 0.815732 0.638100 0.677502
O O5 0.912245 0.116432 0.989491
O O6 0.974233 0.158866 0.150923
O O7 0.926234 0.222483 0.990806
O O8 0.043690 0.172961 0.979257
O O9 0.803274 0.464270 0.180194
O O10 0.800704 0.540008 0.040059
O O11 0.376786 0.282126 0.166751
O O12 0.829654 0.086576 0.141057
O O13 0.568436 0.913758 0.281079
#
# Coordination Sequence:
#
# PCOD9507162 Si02
#       8
#    16  16   8   8  16  16   8  16
#     4  11  22  37  59  91 122 159 210 244 297 359
#     4  10  22  38  58  89 125 164 202 244 296 365
#     4  10  22  40  70  88 118 150 200 258 328 368
#     4  12  24  35  58  87 128 170 202 248 302 361
#     4  10  21  41  62  90 120 153 204 259 303 367
#     4  11  23  38  57  86 129 171 203 242 295 365
#     4  10  20  39  62  88 118 156 198 257 292 354
#     4  10  21  39  65  87 117 155 200 255 310 359
#
# _framework density 17.903417000000001
#
# number of rings (size 3 to 8) (size 9 to 14) (size 15 to 20)
#    0.000    1.538    3.077    1.846    4.308    2.462 
#    0.000    3.077   10.154    0.000    0.000    0.000 
#    0.000    0.000    0.000    0.000    0.000    0.000 
#
# Total GULP energy -290096.189915 kJ/mol
# GULP energy per Si atom -5578.772883 kJ/mol
# Density = 1.786267 g / cm^3
# Si number density = 17.903417 Si / 1000 Ang^3
#
#
#
# Elastic Constant Matrix: (Units=GPa)
#
#
# Indices 1 2 3 4 5 6 
#
# 1 112.1126 36.5479 57.3485 0.0000 0.0000 0.0000
# 2 36.5479 62.5963 42.4329 0.0000 0.0000 0.0000
# 3 57.3485 42.4329 114.8737 0.0000 0.0000 0.0000
# 4 0.0000 0.0000 0.0000 9.1443 0.0000 0.0000
# 5 0.0000 0.0000 0.0000 0.0000 21.8524 0.0000
# 6 0.0000 0.0000 0.0000 0.0000 0.0000 999.3384
#
#
#
# Elastic Compliance Matrix: (Units=1/GPa)
#
#
# Indices 1 2 3 4 5 6 
#
# 1 0.012747 -0.004174 -0.004822 0.000000 0.000000 0.000000
# 2 -0.004174 0.022679 -0.006294 0.000000 0.000000 0.000000
# 3 -0.004822 -0.006294 0.013437 0.000000 0.000000 0.000000
# 4 0.000000 0.000000 0.000000 0.109358 0.000000 0.000000
# 5 0.000000 0.000000 0.000000 0.000000 0.045762 0.000000
# 6 0.000000 0.000000 0.000000 0.000000 0.000000 0.001001
#
#
# Mechanical properties :
#
#
# Convention : Reuss Voigt Hill
#
# Bulk Modulus (GPa) = 54.69186 62.47126 58.58156
# Shear Modulus (GPa) = 20.69063 216.28391 118.48727
#
# Velocity S-wave (km/s) = 3.40322 11.00310 8.14402
# Velocity P-wave (km/s) = 6.78654 14.01405 11.01024
#
# Compressibility (1/GPa) = 0.01828426
#
# Stress axis : x y z
#
# Youngs Moduli (GPa) = 78.45167 44.09447 74.42053
#
# Poissons Ratio (x) = 0.18404 0.35884
# Poissons Ratio (y) = 0.32744 0.46837
# Poissons Ratio (z) = 0.37828 0.27751
#
# Static dielectric constant tensor:
#      x y z
#    x 1.644670 0.000000 0.000000 
#    y 0.000000 1.615200 0.000000 
#    z 0.000000 0.000000 1.586250 
# 
# From -- ./inp_files/14818.got.cif
#   From: 2010.05.17/outbox.cif.g08.bks.cpg/sg68_8_cif.got.tgz:14818.got - 2010.06.03 18:57:09.
