data_PCOD9507553
_publ_section_title
;
Structure prediction by ZEFSAII (Michael W. Deem and Ramdas Pophale) SiO2 
 PCOD9507553
Probable space group: C C C A
;
_chemical_formula_sum "Si O2"
_cell_formula_units_Z 64
_cell_length_a 5.133190
_cell_length_b 28.863248
_cell_length_c 19.472453
_cell_angle_alpha 90.000000
_cell_angle_beta 90.000000
_cell_angle_gamma 90.000000
_cell_volume 2885.049074
_symmetry_space_group_name_H-M "C C C A"
_symmetry_group_IT_number 68
_space_group.IT_coordinate_system_code '2'
_symmetry_cell_setting 'orthorhombic'
loop_
_space_group_symop_operation_xyz
x,y,z
-x,1/2-y,z
x,1/2-y,1/2-z
-x,y,1/2-z
-x,-y,-z
x,1/2+y,-z
-x,1/2+y,1/2+z
x,-y,1/2+z
1/2+x,1/2+y,z
1/2-x,-y,z
1/2+x,-y,1/2-z
1/2-x,1/2+y,1/2-z
1/2-x,1/2-y,-z
1/2+x,y,-z
1/2-x,y,1/2+z
1/2+x,1/2-y,1/2+z
loop_
_atom_site_type_symbol
_atom_site_label
_atom_site_fract_x
_atom_site_fract_y
_atom_site_fract_z
Si Si1 0.521409 0.805007 0.544576
Si Si2 0.146988 0.550441 0.528468
Si Si3 0.042365 0.867805 0.324835
Si Si4 0.542856 0.070592 0.824601
O O1 0.500000 0.750000 0.558679
O O2 0.299240 0.815575 0.489089
O O3 0.487162 0.833389 0.613837
O O4 0.250000 0.500000 0.503661
O O5 0.426819 0.574904 0.517635
O O6 0.040091 0.545175 0.605508
O O7 0.836567 0.910589 0.328495
O O8 0.000000 0.845974 0.250000
O O9 0.336627 0.887009 0.325711
O O10 0.500000 0.046968 0.750000
#
# Coordination Sequence:
#
# PCOD9507553 Si02
#       4
#    16  16  16  16
#     4  10  21  36  54  79 109 140 179 224 268 320
#     4  10  21  37  56  80 109 140 177 220 265 317
#     4  10  21  36  55  79 108 141 179 222 267 319
#     4  10  21  37  55  80 110 140 179 223 266 319
#
# _framework density 22.183330000000002
#
# number of rings (size 3 to 8) (size 9 to 14) (size 15 to 20)
#    0.000    2.000    0.000    3.000    0.000    6.500 
#    0.000    7.500    0.000    9.000    0.000    0.000 
#    0.000    0.000    0.000    0.000    0.000    0.000 
#
# Total GULP energy -178706.874613 kJ/mol
# GULP energy per Si atom -5584.589832 kJ/mol
# Density = 2.213284 g / cm^3
# Si number density = 22.183330 Si / 1000 Ang^3
#
#
#
# Elastic Constant Matrix: (Units=GPa)
#
#
# Indices 1 2 3 4 5 6 
#
# 1 108.7544 -5.8288 11.0243 0.0000 0.0000 0.0000
# 2 -5.8288 33.4744 26.8348 0.0000 0.0000 0.0000
# 3 11.0243 26.8348 171.6456 0.0000 0.0000 0.0000
# 4 0.0000 0.0000 0.0000 13.9189 0.0000 0.0000
# 5 0.0000 0.0000 0.0000 0.0000 33.3596 0.0000
# 6 0.0000 0.0000 0.0000 0.0000 0.0000 15.6638
#
#
#
# Elastic Compliance Matrix: (Units=1/GPa)
#
#
# Indices 1 2 3 4 5 6 
#
# 1 0.009425 0.002431 -0.000985 0.000000 0.000000 0.000000
# 2 0.002431 0.034781 -0.005594 0.000000 0.000000 0.000000
# 3 -0.000985 -0.005594 0.006764 0.000000 0.000000 0.000000
# 4 0.000000 0.000000 0.000000 0.071845 0.000000 0.000000
# 5 0.000000 0.000000 0.000000 0.000000 0.029976 0.000000
# 6 0.000000 0.000000 0.000000 0.000000 0.000000 0.063842
#
#
# Mechanical properties :
#
#
# Convention : Reuss Voigt Hill
#
# Bulk Modulus (GPa) = 23.43343 41.99278 32.71310
# Shear Modulus (GPa) = 20.90706 31.37806 26.14256
#
# Velocity S-wave (km/s) = 3.07329 3.76505 3.43662
# Velocity P-wave (km/s) = 4.81456 6.15400 5.52502
#
# Compressibility (1/GPa) = 0.04267408
#
# Stress axis : x y z
#
# Youngs Moduli (GPa) = 106.09826 28.75116 147.84650
#
# Poissons Ratio (x) = -0.06990 0.14569
# Poissons Ratio (y) = -0.25794 0.82702
# Poissons Ratio (z) = 0.10455 0.16083
#
# Static dielectric constant tensor:
#      x y z
#    x 2.048130 0.000000 0.000000 
#    y 0.000000 1.943990 0.000000 
#    z 0.000000 0.000000 1.826750 
# 
# From -- ./inp_files/27125.got.cif
#   From: 2010.05.17/outbox.cif.g08.bks.cpg/sg68_14_cif.got.tgz:27125.got - 2010.06.03 18:57:09.
