data_PCOD9507213
_publ_section_title
;
Structure prediction by ZEFSAII (Michael W. Deem and Ramdas Pophale) SiO2 
 PCOD9507213
Probable space group: C C C A
;
_chemical_formula_sum "Si O2"
_cell_formula_units_Z 112
_cell_length_a 18.930652
_cell_length_b 16.802563
_cell_length_c 18.331297
_cell_angle_alpha 90.000000
_cell_angle_beta 90.000000
_cell_angle_gamma 90.000000
_cell_volume 5830.882612
_symmetry_space_group_name_H-M "C C C A"
_symmetry_group_IT_number 68
_space_group.IT_coordinate_system_code '2'
_symmetry_cell_setting 'orthorhombic'
loop_
_space_group_symop_operation_xyz
x,y,z
-x,1/2-y,z
x,1/2-y,1/2-z
-x,y,1/2-z
-x,-y,-z
x,1/2+y,-z
-x,1/2+y,1/2+z
x,-y,1/2+z
1/2+x,1/2+y,z
1/2-x,-y,z
1/2+x,-y,1/2-z
1/2-x,1/2+y,1/2-z
1/2-x,1/2-y,-z
1/2+x,y,-z
1/2-x,y,1/2+z
1/2+x,1/2-y,1/2+z
loop_
_atom_site_type_symbol
_atom_site_label
_atom_site_fract_x
_atom_site_fract_y
_atom_site_fract_z
Si Si1 0.826467 0.390014 0.254464
Si Si2 0.321878 0.171372 0.300250
Si Si3 0.926406 0.965246 0.208172
Si Si4 0.620930 0.677097 0.400279
Si Si5 0.863609 0.862759 0.909204
Si Si6 0.230960 0.667470 0.038835
Si Si7 0.991785 0.549513 0.927367
O O1 0.745464 0.383227 0.278891
O O2 0.867122 0.473367 0.262934
O O3 0.868840 0.334106 0.312653
O O4 0.827579 0.365660 0.170021
O O5 0.318819 0.250000 0.250000
O O6 0.392723 0.121599 0.288440
O O7 0.312002 0.185346 0.386969
O O8 0.000000 0.971355 0.250000
O O9 0.948476 0.994055 0.128112
O O10 0.615005 0.770066 0.418484
O O11 0.692011 0.638087 0.434907
O O12 0.554898 0.629145 0.430431
O O13 0.930547 0.920815 0.904528
O O14 0.812974 0.881361 0.978449
O O15 0.250000 0.750000 0.000000
O O16 0.000000 0.500000 0.000000
#
# Coordination Sequence:
#
# PCOD9507213 Si02
#       7
#    16  16  16  16  16  16  16
#     4  10  20  39  66  95 119 157 201 265 319 371
#     4  11  22  40  66  89 124 170 211 256 311 375
#     4  11  23  43  59  90 130 166 211 254 312 384
#     4   9  20  36  62  90 122 151 202 255 320 371
#     4  11  19  37  63  91 119 153 205 261 312 364
#     4   9  19  37  60  91 121 150 203 265 305 358
#     4  11  23  40  58  85 126 166 201 249 314 377
#
# _framework density 19.208068999999998
#
# number of rings (size 3 to 8) (size 9 to 14) (size 15 to 20)
#    0.000    1.714    1.429    4.714    0.000    0.286 
#    7.714    3.571    0.000    0.000    0.000    0.000 
#    0.000    0.000    0.000    0.000    0.000    0.000 
#
# Total GULP energy -312192.094042 kJ/mol
# GULP energy per Si atom -5574.858822 kJ/mol
# Density = 1.916435 g / cm^3
# Si number density = 19.208069 Si / 1000 Ang^3
#
#
#
# Elastic Constant Matrix: (Units=GPa)
#
#
# Indices 1 2 3 4 5 6 
#
# 1 70.8186 37.1633 36.2360 0.0000 0.0000 0.0000
# 2 37.1633 46.7483 33.2811 0.0000 0.0000 0.0000
# 3 36.2360 33.2811 130.3671 0.0000 0.0000 0.0000
# 4 0.0000 0.0000 0.0000 22.3370 0.0000 0.0000
# 5 0.0000 0.0000 0.0000 0.0000 27.3027 0.0000
# 6 0.0000 0.0000 0.0000 0.0000 0.0000 24.9334
#
#
#
# Elastic Compliance Matrix: (Units=1/GPa)
#
#
# Indices 1 2 3 4 5 6 
#
# 1 0.024766 -0.018072 -0.002270 0.000000 0.000000 0.000000
# 2 -0.018072 0.039329 -0.005017 0.000000 0.000000 0.000000
# 3 -0.002270 -0.005017 0.009583 0.000000 0.000000 0.000000
# 4 0.000000 0.000000 0.000000 0.044769 0.000000 0.000000
# 5 0.000000 0.000000 0.000000 0.000000 0.036626 0.000000
# 6 0.000000 0.000000 0.000000 0.000000 0.000000 0.040107
#
#
# Mechanical properties :
#
#
# Convention : Reuss Voigt Hill
#
# Bulk Modulus (GPa) = 43.55527 51.25497 47.40512
# Shear Modulus (GPa) = 19.71995 24.33154 22.02574
#
# Velocity S-wave (km/s) = 3.20761 3.56298 3.38996
# Velocity P-wave (km/s) = 6.03681 6.60821 6.32896
#
# Compressibility (1/GPa) = 0.02295933
#
# Stress axis : x y z
#
# Youngs Moduli (GPa) = 40.37862 25.42635 104.35682
#
# Poissons Ratio (x) = 0.45949 0.23692
# Poissons Ratio (y) = 0.72970 0.52358
# Poissons Ratio (z) = 0.09167 0.12757
#
# Static dielectric constant tensor:
#      x y z
#    x 1.687180 0.000000 0.000000 
#    y 0.000000 1.668370 0.000000 
#    z 0.000000 0.000000 1.649890 
# 
# From -- ./inp_files/33148.got.cif
#   From: 2010.05.17/outbox.cif.g08.bks.cpg/sg68_17_cif.got.tgz:33148.got - 2010.06.03 18:57:09.
