data_PCOD9507494
_publ_section_title
;
Structure prediction by ZEFSAII (Michael W. Deem and Ramdas Pophale) SiO2 
 PCOD9507494
Probable space group: C C C A
;
_chemical_formula_sum "Si O2"
_cell_formula_units_Z 80
_cell_length_a 10.975575
_cell_length_b 24.239170
_cell_length_c 15.163831
_cell_angle_alpha 90.000000
_cell_angle_beta 90.000000
_cell_angle_gamma 90.000000
_cell_volume 4034.167831
_symmetry_space_group_name_H-M "C C C A"
_symmetry_group_IT_number 68
_space_group.IT_coordinate_system_code '2'
_symmetry_cell_setting 'orthorhombic'
loop_
_space_group_symop_operation_xyz
x,y,z
-x,1/2-y,z
x,1/2-y,1/2-z
-x,y,1/2-z
-x,-y,-z
x,1/2+y,-z
-x,1/2+y,1/2+z
x,-y,1/2+z
1/2+x,1/2+y,z
1/2-x,-y,z
1/2+x,-y,1/2-z
1/2-x,1/2+y,1/2-z
1/2-x,1/2-y,-z
1/2+x,y,-z
1/2-x,y,1/2+z
1/2+x,1/2-y,1/2+z
loop_
_atom_site_type_symbol
_atom_site_label
_atom_site_fract_x
_atom_site_fract_y
_atom_site_fract_z
Si Si1 0.170227 0.109479 0.063057
Si Si2 0.228997 0.098192 0.372675
Si Si3 0.165341 0.444340 0.805752
Si Si4 0.012702 0.315903 0.147567
Si Si5 0.485169 0.483731 0.601331
O O1 0.294833 0.095213 0.112831
O O2 0.078645 0.066513 0.108926
O O3 0.101318 0.164876 0.088056
O O4 0.187752 0.100135 0.959636
O O5 0.303849 0.090309 0.282287
O O6 0.137822 0.151494 0.378139
O O7 0.143951 0.043510 0.379053
O O8 0.250000 0.500000 0.803063
O O9 0.034389 0.468284 0.836052
O O10 0.000000 0.250000 0.145024
O O11 0.000000 0.332970 0.250000
O O12 0.500000 0.500000 0.500000
#
# Coordination Sequence:
#
# PCOD9507494 Si02
#       5
#    16  16  16  16  16
#     4  10  21  37  56  88 115 155 206 239 301 365
#     4  11  22  38  59  85 123 156 201 254 293 364
#     4  10  21  34  54  85 121 158 198 232 289 357
#     4  10  21  40  64  86 112 152 204 265 312 354
#     4  10  21  36  55  82 122 163 194 237 288 359
#
# _framework density 19.830607000000001
#
# number of rings (size 3 to 8) (size 9 to 14) (size 15 to 20)
#    0.000    1.800    4.000    0.000    2.800    0.800 
#    0.000    0.000    0.000    0.000    0.000    1.400 
#    0.000    0.000    0.000    0.000    0.000    0.000 
#
# Total GULP energy -222923.568749 kJ/mol
# GULP energy per Si atom -5573.089219 kJ/mol
# Density = 1.978547 g / cm^3
# Si number density = 19.830607 Si / 1000 Ang^3
#
#
#
# Elastic Constant Matrix: (Units=GPa)
#
#
# Indices 1 2 3 4 5 6 
#
# 1 48.9695 33.3204 17.8960 0.0000 0.0000 0.0000
# 2 33.3204 68.3965 24.5806 0.0000 0.0000 0.0000
# 3 17.8960 24.5806 129.8466 0.0000 0.0000 0.0000
# 4 0.0000 0.0000 0.0000 26.2852 0.0000 0.0000
# 5 0.0000 0.0000 0.0000 0.0000 31.5953 0.0000
# 6 0.0000 0.0000 0.0000 0.0000 0.0000 21.4595
#
#
#
# Elastic Compliance Matrix: (Units=1/GPa)
#
#
# Indices 1 2 3 4 5 6 
#
# 1 0.030819 -0.014472 -0.001508 0.000000 0.000000 0.000000
# 2 -0.014472 0.022484 -0.002262 0.000000 0.000000 0.000000
# 3 -0.001508 -0.002262 0.008337 0.000000 0.000000 0.000000
# 4 0.000000 0.000000 0.000000 0.038044 0.000000 0.000000
# 5 0.000000 0.000000 0.000000 0.000000 0.031650 0.000000
# 6 0.000000 0.000000 0.000000 0.000000 0.000000 0.046599
#
#
# Mechanical properties :
#
#
# Convention : Reuss Voigt Hill
#
# Bulk Modulus (GPa) = 39.75069 44.31184 42.03127
# Shear Modulus (GPa) = 22.44132 27.29572 24.86852
#
# Velocity S-wave (km/s) = 3.36765 3.71407 3.54509
# Velocity P-wave (km/s) = 5.93381 6.38640 6.16426
#
# Compressibility (1/GPa) = 0.02515680
#
# Stress axis : x y z
#
# Youngs Moduli (GPa) = 32.44728 44.47658 119.94174
#
# Poissons Ratio (x) = 0.64367 0.18087
# Poissons Ratio (y) = 0.46958 0.27127
# Poissons Ratio (z) = 0.04893 0.10059
#
# Static dielectric constant tensor:
#      x y z
#    x 1.784310 0.000000 0.000000 
#    y 0.000000 2.119590 0.000000 
#    z 0.000000 0.000000 1.703340 
# 
# From -- ./inp_files/20839.got.cif
#   From: 2010.05.17/outbox.cif.g08.bks.cpg/sg68_11_cif.got.tgz:20839.got - 2010.06.03 18:57:09.
