data_PCOD9507201
_publ_section_title
;
Structure prediction by ZEFSAII (Michael W. Deem and Ramdas Pophale) SiO2 
 PCOD9507201
Probable space group: C C C A
;
_chemical_formula_sum "Si O2"
_cell_formula_units_Z 88
_cell_length_a 8.513508
_cell_length_b 21.252130
_cell_length_c 19.321834
_cell_angle_alpha 90.000000
_cell_angle_beta 90.000000
_cell_angle_gamma 90.000000
_cell_volume 3495.902880
_symmetry_space_group_name_H-M "C C C A"
_symmetry_group_IT_number 68
_space_group.IT_coordinate_system_code '2'
_symmetry_cell_setting 'orthorhombic'
loop_
_space_group_symop_operation_xyz
x,y,z
-x,1/2-y,z
x,1/2-y,1/2-z
-x,y,1/2-z
-x,-y,-z
x,1/2+y,-z
-x,1/2+y,1/2+z
x,-y,1/2+z
1/2+x,1/2+y,z
1/2-x,-y,z
1/2+x,-y,1/2-z
1/2-x,1/2+y,1/2-z
1/2-x,1/2-y,-z
1/2+x,y,-z
1/2-x,y,1/2+z
1/2+x,1/2-y,1/2+z
loop_
_atom_site_type_symbol
_atom_site_label
_atom_site_fract_x
_atom_site_fract_y
_atom_site_fract_z
Si Si1 0.000000 0.250000 0.925294
Si Si2 0.795811 0.928985 0.461984
Si Si3 0.726839 0.927745 0.227011
Si Si4 0.971044 0.860798 0.130711
Si Si5 0.550944 0.379893 0.645569
Si Si6 0.329432 0.819706 0.442714
O O1 0.918059 0.198887 0.863644
O O2 0.111189 0.284445 0.990121
O O3 0.650967 0.898978 0.420662
O O4 0.821305 0.892245 0.532371
O O5 0.947490 0.914738 0.414498
O O6 0.750000 0.000000 0.472885
O O7 0.874242 0.894440 0.190078
O O8 0.670051 0.884336 0.290217
O O9 0.583857 0.927864 0.172379
O O10 0.750000 0.000000 0.250209
O O11 0.851407 0.813687 0.084037
O O12 0.449691 0.319804 0.621154
#
# Coordination Sequence:
#
# PCOD9507201 Si02
#       6
#     8  16  16  16  16  16
#     4   8  20  46  62  91 132 181 240 274 342 412
#     4  12  23  36  60 103 145 182 232 287 356 422
#     4  10  20  39  65  94 139 179 227 291 354 429
#     4   9  21  40  64  92 136 187 224 288 349 405
#     4  10  22  38  61 101 133 178 236 281 357 421
#     4   9  21  41  63  92 139 187 227 287 342 412
#
# _framework density 25.172322999999999
#
# number of rings (size 3 to 8) (size 9 to 14) (size 15 to 20)
#    1.091    1.091    0.000    2.727    0.000    8.727 
#    0.000    0.000    0.000    2.182    4.727    0.000 
#    0.000    0.000    0.000    0.000    0.000    0.000 
#
# Total GULP energy -245098.799813 kJ/mol
# GULP energy per Si atom -5570.427268 kJ/mol
# Density = 2.511503 g / cm^3
# Si number density = 25.172323 Si / 1000 Ang^3
#
#
#
# Elastic Constant Matrix: (Units=GPa)
#
#
# Indices 1 2 3 4 5 6 
#
# 1 122.0963 62.5082 64.7269 0.0000 0.0000 0.0000
# 2 62.5082 146.9034 38.8939 0.0000 0.0000 0.0000
# 3 64.7269 38.8939 96.7801 0.0000 0.0000 0.0000
# 4 0.0000 0.0000 0.0000 10.7566 0.0000 0.0000
# 5 0.0000 0.0000 0.0000 0.0000 52.7567 0.0000
# 6 0.0000 0.0000 0.0000 0.0000 0.0000 27.8467
#
#
#
# Elastic Compliance Matrix: (Units=1/GPa)
#
#
# Indices 1 2 3 4 5 6 
#
# 1 0.014564 -0.004049 -0.008114 0.000000 0.000000 0.000000
# 2 -0.004049 0.008743 -0.000806 0.000000 0.000000 0.000000
# 3 -0.008114 -0.000806 0.016083 0.000000 0.000000 0.000000
# 4 0.000000 0.000000 0.000000 0.092966 0.000000 0.000000
# 5 0.000000 0.000000 0.000000 0.000000 0.018955 0.000000
# 6 0.000000 0.000000 0.000000 0.000000 0.000000 0.035911
#
#
# Mechanical properties :
#
#
# Convention : Reuss Voigt Hill
#
# Bulk Modulus (GPa) = 74.32725 77.55977 75.94351
# Shear Modulus (GPa) = 22.97325 31.58205 27.27765
#
# Velocity S-wave (km/s) = 3.02427 3.54592 3.29543
# Velocity P-wave (km/s) = 6.46424 6.90240 6.68691
#
# Compressibility (1/GPa) = 0.01345402
#
# Stress axis : x y z
#
# Youngs Moduli (GPa) = 68.66028 114.37133 62.17799
#
# Poissons Ratio (x) = 0.46311 0.50448
# Poissons Ratio (y) = 0.27802 0.05010
# Poissons Ratio (z) = 0.55708 0.09215
#
# Static dielectric constant tensor:
#      x y z
#    x 2.168080 0.000000 0.000000 
#    y 0.000000 2.027450 0.000000 
#    z 0.000000 0.000000 1.992970 
# 
# From -- ./inp_files/36294.got.cif
#   From: 2010.05.17/outbox.cif.g08.bks.cpg/sg68_19_cif.got.tgz:36294.got - 2010.06.03 18:57:09.
