data_PCOD9507759
_publ_section_title
;
Structure prediction by ZEFSAII (Michael W. Deem and Ramdas Pophale) SiO2 
 PCOD9507759
Probable space group: C C C A
;
_chemical_formula_sum "Si O2"
_cell_formula_units_Z 80
_cell_length_a 8.720584
_cell_length_b 31.056683
_cell_length_c 14.900780
_cell_angle_alpha 90.000000
_cell_angle_beta 90.000000
_cell_angle_gamma 90.000000
_cell_volume 4035.614201
_symmetry_space_group_name_H-M "C C C A"
_symmetry_group_IT_number 68
_space_group.IT_coordinate_system_code '2'
_symmetry_cell_setting 'orthorhombic'
loop_
_space_group_symop_operation_xyz
x,y,z
-x,1/2-y,z
x,1/2-y,1/2-z
-x,y,1/2-z
-x,-y,-z
x,1/2+y,-z
-x,1/2+y,1/2+z
x,-y,1/2+z
1/2+x,1/2+y,z
1/2-x,-y,z
1/2+x,-y,1/2-z
1/2-x,1/2+y,1/2-z
1/2-x,1/2-y,-z
1/2+x,y,-z
1/2-x,y,1/2+z
1/2+x,1/2-y,1/2+z
loop_
_atom_site_type_symbol
_atom_site_label
_atom_site_fract_x
_atom_site_fract_y
_atom_site_fract_z
Si Si1 0.191796 0.043469 0.110932
Si Si2 0.173376 0.542976 0.590174
Si Si3 0.183666 0.199967 0.753907
Si Si4 0.312987 0.361418 0.595069
Si Si5 0.680421 0.361103 0.605540
O O1 0.218039 0.091565 0.146804
O O2 0.009473 0.039394 0.097209
O O3 0.250000 0.000000 0.158120
O O4 0.277224 0.044123 0.014490
O O5 0.250000 0.500000 0.628626
O O6 0.223835 0.589548 0.626934
O O7 0.229113 0.250000 0.750000
O O8 0.241469 0.174732 0.841731
O O9 0.254854 0.175197 0.669688
O O10 0.000000 0.197601 0.750000
O O11 0.497007 0.358009 0.597132
O O12 0.252289 0.357706 0.493527
#
# Coordination Sequence:
#
# PCOD9507759 Si02
#       5
#    16  16  16  16  16
#     4   9  16  27  48  79 113 149 187 225 270 326
#     4   9  16  27  48  79 113 149 187 225 270 326
#     4  11  25  43  62  85 112 145 190 243 296 347
#     4  10  21  38  61  88 118 153 192 234 283 340
#     4  10  21  38  61  88 118 153 192 234 283 340
#
# _framework density 19.823501
#
# number of rings (size 3 to 8) (size 9 to 14) (size 15 to 20)
#    0.000    2.200    0.000    4.200    0.000    7.200 
#    0.000    1.000    0.000    0.000    0.000    0.000 
#    0.000    0.000    0.000    0.000    0.000    0.000 
#
# Total GULP energy -223263.948819 kJ/mol
# GULP energy per Si atom -5581.598720 kJ/mol
# Density = 1.977838 g / cm^3
# Si number density = 19.823501 Si / 1000 Ang^3
#
#
#
# Elastic Constant Matrix: (Units=GPa)
#
#
# Indices 1 2 3 4 5 6 
#
# 1 59.3693 66.0394 19.2147 0.0000 0.0000 0.0000
# 2 66.0394 221.5254 68.9341 0.0000 0.0000 0.0000
# 3 19.2147 68.9341 88.9827 0.0000 0.0000 0.0000
# 4 0.0000 0.0000 0.0000 40.9690 0.0000 0.0000
# 5 0.0000 0.0000 0.0000 0.0000 20.4022 0.0000
# 6 0.0000 0.0000 0.0000 0.0000 0.0000 36.1662
#
#
#
# Elastic Compliance Matrix: (Units=1/GPa)
#
#
# Indices 1 2 3 4 5 6 
#
# 1 0.025217 -0.007673 0.000499 0.000000 0.000000 0.000000
# 2 -0.007673 0.008283 -0.004760 0.000000 0.000000 0.000000
# 3 0.000499 -0.004760 0.014818 0.000000 0.000000 0.000000
# 4 0.000000 0.000000 0.000000 0.024409 0.000000 0.000000
# 5 0.000000 0.000000 0.000000 0.000000 0.049014 0.000000
# 6 0.000000 0.000000 0.000000 0.000000 0.000000 0.027650
#
#
# Mechanical properties :
#
#
# Convention : Reuss Voigt Hill
#
# Bulk Modulus (GPa) = 40.89976 75.36152 58.13064
# Shear Modulus (GPa) = 27.56225 33.88678 30.72452
#
# Velocity S-wave (km/s) = 3.73283 4.13900 3.94115
# Velocity P-wave (km/s) = 6.26541 7.80645 7.07799
#
# Compressibility (1/GPa) = 0.02445002
#
# Stress axis : x y z
#
# Youngs Moduli (GPa) = 39.65577 120.73563 67.48692
#
# Poissons Ratio (x) = 0.92636 -0.03365
# Poissons Ratio (y) = 0.30427 0.32121
# Poissons Ratio (z) = -0.01977 0.57465
#
# Static dielectric constant tensor:
#      x y z
#    x 1.658660 0.000000 0.000000 
#    y 0.000000 1.730850 0.000000 
#    z 0.000000 0.000000 1.710940 
# 
# From -- ./inp_files/28313.got.cif
#   From: 2010.05.17/outbox.cif.g08.bks.cpg/sg68_15_cif.got.tgz:28313.got - 2010.06.03 18:57:09.
