data_PCOD9507288
_publ_section_title
;
Structure prediction by ZEFSAII (Michael W. Deem and Ramdas Pophale) SiO2 
 PCOD9507288
Probable space group: C C C A
;
_chemical_formula_sum "Si O2"
_cell_formula_units_Z 80
_cell_length_a 19.717162
_cell_length_b 19.960384
_cell_length_c 8.797766
_cell_angle_alpha 90.000000
_cell_angle_beta 90.000000
_cell_angle_gamma 90.000000
_cell_volume 3462.467481
_symmetry_space_group_name_H-M "C C C A"
_symmetry_group_IT_number 68
_space_group.IT_coordinate_system_code '2'
_symmetry_cell_setting 'orthorhombic'
loop_
_space_group_symop_operation_xyz
x,y,z
-x,1/2-y,z
x,1/2-y,1/2-z
-x,y,1/2-z
-x,-y,-z
x,1/2+y,-z
-x,1/2+y,1/2+z
x,-y,1/2+z
1/2+x,1/2+y,z
1/2-x,-y,z
1/2+x,-y,1/2-z
1/2-x,1/2+y,1/2-z
1/2-x,1/2-y,-z
1/2+x,y,-z
1/2-x,y,1/2+z
1/2+x,1/2-y,1/2+z
loop_
_atom_site_type_symbol
_atom_site_label
_atom_site_fract_x
_atom_site_fract_y
_atom_site_fract_z
Si Si1 0.693896 0.327379 0.227262
Si Si2 0.500000 0.583914 0.750000
Si Si3 0.421537 0.544933 0.238953
Si Si4 0.671395 0.633308 0.071684
Si Si5 0.592742 0.750000 0.250000
Si Si6 0.427324 0.852227 0.500178
O O1 0.715680 0.250000 0.250000
O O2 0.677436 0.357091 0.392248
O O3 0.753964 0.367803 0.145636
O O4 0.628867 0.326709 0.117662
O O5 0.564590 0.534162 0.762139
O O6 0.508383 0.627121 0.600038
O O7 0.500000 0.569997 0.250000
O O8 0.374113 0.571068 0.372497
O O9 0.398544 0.581773 0.085673
O O10 0.636425 0.698320 0.148785
O O11 0.557299 0.702234 0.372508
#
# Coordination Sequence:
#
# PCOD9507288 Si02
#       6
#    16   8  16  16   8  16
#     4  12  23  39  68 103 147 187 240 299 385 460
#     4  10  24  46  75  97 144 198 250 286 358 426
#     4   9  23  43  70  97 140 192 249 295 356 426
#     4  11  21  40  67 102 141 191 239 304 371 441
#     4  10  20  40  65 100 142 181 232 290 382 422
#     4  11  23  41  71 104 139 195 237 303 365 439
#
# _framework density 23.10491
#
# number of rings (size 3 to 8) (size 9 to 14) (size 15 to 20)
#    0.600    0.800    3.000    3.600    2.800    0.000 
#    0.000   13.500    0.000    7.200    0.000    0.000 
#    0.000    0.000    0.000    0.000    0.000    0.000 
#
# Total GULP energy -223689.742491 kJ/mol
# GULP energy per Si atom -5592.243562 kJ/mol
# Density = 2.305232 g / cm^3
# Si number density = 23.104910 Si / 1000 Ang^3
#
#
#
# Elastic Constant Matrix: (Units=GPa)
#
#
# Indices 1 2 3 4 5 6 
#
# 1 93.4222 49.0544 61.9821 0.0000 0.0000 0.0000
# 2 49.0544 89.4726 68.4940 0.0000 0.0000 0.0000
# 3 61.9821 68.4940 216.8065 0.0000 0.0000 0.0000
# 4 0.0000 0.0000 0.0000 27.6719 0.0000 0.0000
# 5 0.0000 0.0000 0.0000 0.0000 30.5667 0.0000
# 6 0.0000 0.0000 0.0000 0.0000 0.0000 23.9371
#
#
#
# Elastic Compliance Matrix: (Units=1/GPa)
#
#
# Indices 1 2 3 4 5 6 
#
# 1 0.015899 -0.006908 -0.002363 0.000000 0.000000 0.000000
# 2 -0.006908 0.017743 -0.003631 0.000000 0.000000 0.000000
# 3 -0.002363 -0.003631 0.006435 0.000000 0.000000 0.000000
# 4 0.000000 0.000000 0.000000 0.036138 0.000000 0.000000
# 5 0.000000 0.000000 0.000000 0.000000 0.032715 0.000000
# 6 0.000000 0.000000 0.000000 0.000000 0.000000 0.041776
#
#
# Mechanical properties :
#
#
# Convention : Reuss Voigt Hill
#
# Bulk Modulus (GPa) = 70.05603 84.30692 77.18148
# Shear Modulus (GPa) = 27.58353 31.11321 29.34837
#
# Velocity S-wave (km/s) = 3.45895 3.67359 3.56788
# Velocity P-wave (km/s) = 6.80728 7.38659 7.10284
#
# Compressibility (1/GPa) = 0.01427429
#
# Stress axis : x y z
#
# Youngs Moduli (GPa) = 62.89671 56.35924 155.40161
#
# Poissons Ratio (x) = 0.38933 0.36721
# Poissons Ratio (y) = 0.43449 0.56420
# Poissons Ratio (z) = 0.14862 0.20462
#
# Static dielectric constant tensor:
#      x y z
#    x 1.882550 0.000000 0.000000 
#    y 0.000000 1.870690 0.000000 
#    z 0.000000 0.000000 1.844600 
# 
# From -- ./inp_files/7078.got.cif
#   From: 2010.05.17/outbox.cif.g08.bks.cpg/sg68_4_cif.got.tgz:7078.got - 2010.06.03 18:57:09.
