data_PCOD9507028
_publ_section_title
;
Structure prediction by ZEFSAII (Michael W. Deem and Ramdas Pophale) SiO2 
 PCOD9507028
Probable space group: C C C A
;
_chemical_formula_sum "Si O2"
_cell_formula_units_Z 80
_cell_length_a 13.649106
_cell_length_b 23.365314
_cell_length_c 12.380160
_cell_angle_alpha 90.000000
_cell_angle_beta 90.000000
_cell_angle_gamma 90.000000
_cell_volume 3948.226743
_symmetry_space_group_name_H-M "C C C A"
_symmetry_group_IT_number 68
_space_group.IT_coordinate_system_code '2'
_symmetry_cell_setting 'orthorhombic'
loop_
_space_group_symop_operation_xyz
x,y,z
-x,1/2-y,z
x,1/2-y,1/2-z
-x,y,1/2-z
-x,-y,-z
x,1/2+y,-z
-x,1/2+y,1/2+z
x,-y,1/2+z
1/2+x,1/2+y,z
1/2-x,-y,z
1/2+x,-y,1/2-z
1/2-x,1/2+y,1/2-z
1/2-x,1/2-y,-z
1/2+x,y,-z
1/2-x,y,1/2+z
1/2+x,1/2-y,1/2+z
loop_
_atom_site_type_symbol
_atom_site_label
_atom_site_fract_x
_atom_site_fract_y
_atom_site_fract_z
Si Si1 0.172152 0.250000 0.750000
Si Si2 0.107791 0.566445 0.700570
Si Si3 0.500000 0.250000 0.423696
Si Si4 0.567613 0.372741 0.011867
Si Si5 0.077187 0.439768 0.650641
Si Si6 0.279563 0.127001 0.208540
O O1 0.236014 0.305660 0.774861
O O2 0.095416 0.260447 0.651892
O O3 0.110772 0.610911 0.602747
O O4 0.122100 0.503122 0.650857
O O5 0.185300 0.586568 0.790131
O O6 0.000000 0.567380 0.750000
O O7 0.523801 0.191249 0.485102
O O8 0.482400 0.417594 0.047361
O O9 0.651576 0.378057 0.103494
O O10 0.158425 0.395046 0.688441
O O11 0.000000 0.439553 0.750000
#
# Coordination Sequence:
#
# PCOD9507028 Si02
#       6
#     8  16   8  16  16  16
#     4   9  16  34  63  86 112 142 201 258 285 342
#     4  11  24  39  54  88 129 160 191 244 305 361
#     4   9  16  34  63  90 108 146 209 252 291 358
#     4  10  20  38  63  90 115 157 203 249 305 350
#     4   9  18  37  64  87 115 150 201 249 291 353
#     4  10  20  38  60  89 113 155 203 245 295 356
#
# _framework density 20.262260999999999
#
# number of rings (size 3 to 8) (size 9 to 14) (size 15 to 20)
#    0.000    2.200    2.000    1.200    0.000    1.600 
#    3.600    8.000    0.000    0.000    0.000    0.000 
#    0.000    0.000    0.000    0.000    0.000    0.000 
#
# Total GULP energy -223161.718951 kJ/mol
# GULP energy per Si atom -5579.042974 kJ/mol
# Density = 2.021614 g / cm^3
# Si number density = 20.262261 Si / 1000 Ang^3
#
#
#
# Elastic Constant Matrix: (Units=GPa)
#
#
# Indices 1 2 3 4 5 6 
#
# 1 67.2187 35.0460 -2.2321 0.0000 0.0000 0.0000
# 2 35.0460 146.5817 23.3042 0.0000 0.0000 0.0000
# 3 -2.2321 23.3042 43.2424 0.0000 0.0000 0.0000
# 4 0.0000 0.0000 0.0000 17.1800 0.0000 0.0000
# 5 0.0000 0.0000 0.0000 0.0000 13.6383 0.0000
# 6 0.0000 0.0000 0.0000 0.0000 0.0000 20.6781
#
#
#
# Elastic Compliance Matrix: (Units=1/GPa)
#
#
# Indices 1 2 3 4 5 6 
#
# 1 0.017452 -0.004720 0.003445 0.000000 0.000000 0.000000
# 2 -0.004720 0.008738 -0.004953 0.000000 0.000000 0.000000
# 3 0.003445 -0.004953 0.025972 0.000000 0.000000 0.000000
# 4 0.000000 0.000000 0.000000 0.058207 0.000000 0.000000
# 5 0.000000 0.000000 0.000000 0.000000 0.073323 0.000000
# 6 0.000000 0.000000 0.000000 0.000000 0.000000 0.048360
#
#
# Mechanical properties :
#
#
# Convention : Reuss Voigt Hill
#
# Bulk Modulus (GPa) = 25.18508 41.03099 33.10804
# Shear Modulus (GPa) = 19.39899 23.69427 21.54663
#
# Velocity S-wave (km/s) = 3.09754 3.42333 3.26450
# Velocity P-wave (km/s) = 5.02489 5.99329 5.53033
#
# Compressibility (1/GPa) = 0.03970605
#
# Stress axis : x y z
#
# Youngs Moduli (GPa) = 57.29925 114.44112 38.50239
#
# Poissons Ratio (x) = 0.54019 -0.13263
# Poissons Ratio (y) = 0.27047 0.19069
# Poissons Ratio (z) = -0.19738 0.56680
#
# Static dielectric constant tensor:
#      x y z
#    x 1.746760 0.000000 0.000000 
#    y 0.000000 1.747030 0.000000 
#    z 0.000000 0.000000 1.702670 
# 
# From -- ./inp_files/13243.got.cif
#   From: 2010.05.17/outbox.cif.g08.bks.cpg/sg68_7_cif.got.tgz:13243.got - 2010.06.03 18:57:09.
