data_PCOD9507982
_publ_section_title
;
Structure prediction by ZEFSAII (Michael W. Deem and Ramdas Pophale) SiO2 
 PCOD9507982
Probable space group: C C C A
;
_chemical_formula_sum "Si O2"
_cell_formula_units_Z 64
_cell_length_a 13.860909
_cell_length_b 15.854376
_cell_length_c 12.428410
_cell_angle_alpha 90.000000
_cell_angle_beta 90.000000
_cell_angle_gamma 90.000000
_cell_volume 2731.218451
_symmetry_space_group_name_H-M "C C C A"
_symmetry_group_IT_number 68
_space_group.IT_coordinate_system_code '2'
_symmetry_cell_setting 'orthorhombic'
loop_
_space_group_symop_operation_xyz
x,y,z
-x,1/2-y,z
x,1/2-y,1/2-z
-x,y,1/2-z
-x,-y,-z
x,1/2+y,-z
-x,1/2+y,1/2+z
x,-y,1/2+z
1/2+x,1/2+y,z
1/2-x,-y,z
1/2+x,-y,1/2-z
1/2-x,1/2+y,1/2-z
1/2-x,1/2-y,-z
1/2+x,y,-z
1/2-x,y,1/2+z
1/2+x,1/2-y,1/2+z
loop_
_atom_site_type_symbol
_atom_site_label
_atom_site_fract_x
_atom_site_fract_y
_atom_site_fract_z
Si Si1 0.308858 0.152716 0.906834
Si Si2 0.394870 0.432736 0.791382
Si Si3 0.610631 0.681667 0.005976
Si Si4 0.942369 0.928027 0.432341
O O1 0.322950 0.099297 0.799238
O O2 0.200679 0.183461 0.924940
O O3 0.379945 0.233352 0.921988
O O4 0.346187 0.094024 0.003127
O O5 0.500000 0.402894 0.750000
O O6 0.410358 0.531089 0.819768
O O7 0.371363 0.388918 0.903501
O O8 0.515779 0.651292 0.940553
O O9 0.000000 0.000000 0.500000
#
# Coordination Sequence:
#
# PCOD9507982 Si02
#       4
#    16  16  16  16
#     4  11  22  43  68  98 139 179 225 286 348 416
#     4  11  22  42  68  98 128 180 236 273 350 420
#     4  10  23  41  70 102 133 176 231 290 344 407
#     4  10  21  40  60 103 133 169 224 287 339 405
#
# _framework density 23.432765
#
# number of rings (size 3 to 8) (size 9 to 14) (size 15 to 20)
#    0.000    1.500    5.000    1.500    0.000    5.000 
#    9.000    0.000    0.000    1.500    0.000    0.000 
#    0.000    0.000    0.000    0.000    0.000    0.000 
#
# Total GULP energy -178487.619980 kJ/mol
# GULP energy per Si atom -5577.738124 kJ/mol
# Density = 2.337943 g / cm^3
# Si number density = 23.432765 Si / 1000 Ang^3
#
#
#
# Elastic Constant Matrix: (Units=GPa)
#
#
# Indices 1 2 3 4 5 6 
#
# 1 51.0711 15.9994 20.8432 0.0000 0.0000 0.0000
# 2 15.9994 93.6357 40.5385 0.0000 0.0000 0.0000
# 3 20.8432 40.5385 88.3433 0.0000 0.0000 0.0000
# 4 0.0000 0.0000 0.0000 38.4466 0.0000 0.0000
# 5 0.0000 0.0000 0.0000 0.0000 29.2019 0.0000
# 6 0.0000 0.0000 0.0000 0.0000 0.0000 25.0870
#
#
#
# Elastic Compliance Matrix: (Units=1/GPa)
#
#
# Indices 1 2 3 4 5 6 
#
# 1 0.021929 -0.001881 -0.004311 0.000000 0.000000 0.000000
# 2 -0.001881 0.013489 -0.005746 0.000000 0.000000 0.000000
# 3 -0.004311 -0.005746 0.014973 0.000000 0.000000 0.000000
# 4 0.000000 0.000000 0.000000 0.026010 0.000000 0.000000
# 5 0.000000 0.000000 0.000000 0.000000 0.034244 0.000000
# 6 0.000000 0.000000 0.000000 0.000000 0.000000 0.039861
#
#
# Mechanical properties :
#
#
# Convention : Reuss Voigt Hill
#
# Bulk Modulus (GPa) = 37.71290 43.09028 40.40159
# Shear Modulus (GPa) = 27.28959 28.92505 28.10732
#
# Velocity S-wave (km/s) = 3.41631 3.51719 3.46712
# Velocity P-wave (km/s) = 5.62944 5.90957 5.77121
#
# Compressibility (1/GPa) = 0.02651613
#
# Stress axis : x y z
#
# Youngs Moduli (GPa) = 45.60158 74.13638 66.78594
#
# Poissons Ratio (x) = 0.13943 0.28790
# Poissons Ratio (y) = 0.08576 0.38375
# Poissons Ratio (z) = 0.19658 0.42598
#
# Static dielectric constant tensor:
#      x y z
#    x 1.931020 0.000000 0.000000 
#    y 0.000000 1.996990 0.000000 
#    z 0.000000 0.000000 1.872130 
# 
# From -- ./inp_files/12789.got.cif
#   From: 2010.05.17/outbox.cif.g08.bks.cpg/sg68_7_cif.got.tgz:12789.got - 2010.06.03 18:57:09.
