data_PCOD9507122
_publ_section_title
;
Structure prediction by ZEFSAII (Michael W. Deem and Ramdas Pophale) SiO2 
 PCOD9507122
Probable space group: C C C A
;
_chemical_formula_sum "Si O2"
_cell_formula_units_Z 104
_cell_length_a 9.002145
_cell_length_b 29.865643
_cell_length_c 21.484103
_cell_angle_alpha 90.000000
_cell_angle_beta 90.000000
_cell_angle_gamma 90.000000
_cell_volume 5776.105264
_symmetry_space_group_name_H-M "C C C A"
_symmetry_group_IT_number 68
_space_group.IT_coordinate_system_code '2'
_symmetry_cell_setting 'orthorhombic'
loop_
_space_group_symop_operation_xyz
x,y,z
-x,1/2-y,z
x,1/2-y,1/2-z
-x,y,1/2-z
-x,-y,-z
x,1/2+y,-z
-x,1/2+y,1/2+z
x,-y,1/2+z
1/2+x,1/2+y,z
1/2-x,-y,z
1/2+x,-y,1/2-z
1/2-x,1/2+y,1/2-z
1/2-x,1/2-y,-z
1/2+x,y,-z
1/2-x,y,1/2+z
1/2+x,1/2-y,1/2+z
loop_
_atom_site_type_symbol
_atom_site_label
_atom_site_fract_x
_atom_site_fract_y
_atom_site_fract_z
Si Si1 0.577320 0.638957 0.926329
Si Si2 0.750000 0.000000 0.987577
Si Si3 0.240841 0.250000 0.250000
Si Si4 0.418150 0.794336 0.041203
Si Si5 0.494686 0.434983 0.971926
Si Si6 0.000000 0.827543 0.750000
Si Si7 0.876757 0.714328 0.122148
Si Si8 0.403570 0.639488 0.122842
O O1 0.449329 0.664911 0.887404
O O2 0.725027 0.635825 0.883911
O O3 0.613320 0.672033 0.984502
O O4 0.530902 0.592922 0.962812
O O5 0.848310 0.962648 0.954139
O O6 0.628529 0.970439 0.023669
O O7 0.135854 0.292968 0.238399
O O8 0.331351 0.232103 0.190630
O O9 0.500000 0.750000 0.020560
O O10 0.268165 0.784768 0.078839
O O11 0.536500 0.816442 0.088205
O O12 0.533212 0.400006 0.919275
O O13 0.017748 0.858490 0.810385
O O14 0.000000 0.750000 0.103552
#
# Coordination Sequence:
#
# PCOD9507122 Si02
#       8
#    16   8   8  16  16   8  16  16
#     4  11  23  37  58  91 125 152 196 257 308 359
#     4  10  20  38  66  98 128 152 180 244 324 384
#     4  11  23  40  54  80 112 170 228 250 282 338
#     4  11  21  36  55  81 118 160 200 247 309 352
#     4  10  21  38  64  98 128 152 190 246 315 387
#     4  11  22  38  62  76 118 170 218 252 284 338
#     4  12  24  36  55  81 117 165 208 255 290 340
#     4  11  22  38  58  86 120 161 207 246 294 365
#
# _framework density 18.005213000000001
#
# number of rings (size 3 to 8) (size 9 to 14) (size 15 to 20)
#    0.000    1.077    3.077    5.308    2.154    1.846 
#    0.000    0.000    0.000    0.923    0.000    0.000 
#    0.000    0.000    0.000    0.000    0.000    0.000 
#
# Total GULP energy -289843.080982 kJ/mol
# GULP energy per Si atom -5573.905403 kJ/mol
# Density = 1.796423 g / cm^3
# Si number density = 18.005213 Si / 1000 Ang^3
#
#
#
# Elastic Constant Matrix: (Units=GPa)
#
#
# Indices 1 2 3 4 5 6 
#
# 1 104.1592 37.7641 30.1689 0.0000 0.0000 0.0000
# 2 37.7641 75.2347 23.2619 0.0000 0.0000 0.0000
# 3 30.1689 23.2619 103.9725 0.0000 0.0000 0.0000
# 4 0.0000 0.0000 0.0000 3.3906 0.0000 0.0000
# 5 0.0000 0.0000 0.0000 0.0000 19.5720 0.0000
# 6 0.0000 0.0000 0.0000 0.0000 0.0000 37.0200
#
#
#
# Elastic Compliance Matrix: (Units=1/GPa)
#
#
# Indices 1 2 3 4 5 6 
#
# 1 0.012244 -0.005423 -0.002340 0.000000 0.000000 0.000000
# 2 -0.005423 0.016681 -0.002159 0.000000 0.000000 0.000000
# 3 -0.002340 -0.002159 0.010780 0.000000 0.000000 0.000000
# 4 0.000000 0.000000 0.000000 0.294931 0.000000 0.000000
# 5 0.000000 0.000000 0.000000 0.000000 0.051093 0.000000
# 6 0.000000 0.000000 0.000000 0.000000 0.000000 0.027012
#
#
# Mechanical properties :
#
#
# Convention : Reuss Voigt Hill
#
# Bulk Modulus (GPa) = 50.34400 51.75072 51.04736
# Shear Modulus (GPa) = 11.38420 24.80797 18.09608
#
# Velocity S-wave (km/s) = 2.51723 3.71593 3.17369
# Velocity P-wave (km/s) = 6.03905 6.87134 6.46859
#
# Compressibility (1/GPa) = 0.01986334
#
# Stress axis : x y z
#
# Youngs Moduli (GPa) = 81.66995 59.94808 92.76650
#
# Poissons Ratio (x) = 0.32508 0.21704
# Poissons Ratio (y) = 0.44287 0.20025
# Poissons Ratio (z) = 0.19108 0.12941
#
# Static dielectric constant tensor:
#      x y z
#    x 1.690070 0.000000 0.000000 
#    y 0.000000 1.641180 0.000000 
#    z 0.000000 0.000000 1.677130 
# 
# From -- ./inp_files/36744.got.cif
#   From: 2010.05.17/outbox.cif.g08.bks.cpg/sg68_19_cif.got.tgz:36744.got - 2010.06.03 18:57:09.
