data_PCOD9507710
_publ_section_title
;
Structure prediction by ZEFSAII (Michael W. Deem and Ramdas Pophale) SiO2 
 PCOD9507710
Probable space group: C C C A
;
_chemical_formula_sum "Si O2"
_cell_formula_units_Z 116
_cell_length_a 14.604278
_cell_length_b 24.415250
_cell_length_c 17.510530
_cell_angle_alpha 90.000000
_cell_angle_beta 90.000000
_cell_angle_gamma 90.000000
_cell_volume 6243.678874
_symmetry_space_group_name_H-M "C C C A"
_symmetry_group_IT_number 68
_space_group.IT_coordinate_system_code '2'
_symmetry_cell_setting 'orthorhombic'
loop_
_space_group_symop_operation_xyz
x,y,z
-x,1/2-y,z
x,1/2-y,1/2-z
-x,y,1/2-z
-x,-y,-z
x,1/2+y,-z
-x,1/2+y,1/2+z
x,-y,1/2+z
1/2+x,1/2+y,z
1/2-x,-y,z
1/2+x,-y,1/2-z
1/2-x,1/2+y,1/2-z
1/2-x,1/2-y,-z
1/2+x,y,-z
1/2-x,y,1/2+z
1/2+x,1/2-y,1/2+z
loop_
_atom_site_type_symbol
_atom_site_label
_atom_site_fract_x
_atom_site_fract_y
_atom_site_fract_z
Si Si1 0.734784 0.171321 0.913601
Si Si2 0.000000 0.250000 0.250000
Si Si3 0.757453 0.655706 0.262669
Si Si4 0.085070 0.877499 0.471080
Si Si5 0.738701 0.435907 0.382916
Si Si6 0.053927 0.307313 0.680660
Si Si7 0.865085 0.229278 0.133679
Si Si8 0.890430 0.366169 0.474094
O O1 0.741421 0.150589 0.826832
O O2 0.714965 0.236107 0.905661
O O3 0.649927 0.148940 0.963908
O O4 0.827739 0.154362 0.955803
O O5 0.928339 0.269737 0.184141
O O6 0.771752 0.597755 0.304342
O O7 0.844479 0.693199 0.284548
O O8 0.675698 0.686433 0.305899
O O9 0.148396 0.923915 0.433349
O O10 0.063084 0.836003 0.401108
O O11 0.986202 0.893223 0.503519
O O12 0.750000 0.500000 0.372170
O O13 0.824388 0.406759 0.426218
O O14 0.000000 0.250000 0.670825
O O15 0.000000 0.337610 0.750000
O O16 0.912362 0.189770 0.072507
#
# Coordination Sequence:
#
# PCOD9507710 Si02
#       8
#    16   4  16  16  16  16  16  16
#     4  11  21  37  57  84 127 156 194 245 289 361
#     4  12  20  32  52  80 114 168 190 236 260 340
#     4  10  21  38  55  82 111 157 204 238 290 351
#     4  10  22  37  58  92 118 153 200 248 295 367
#     4   9  21  43  62  82 114 152 198 258 311 354
#     4  10  22  33  55  83 119 161 198 232 280 352
#     4  11  22  33  52  81 122 164 196 226 290 352
#     4  10  22  35  59  87 117 157 192 246 301 356
#
# _framework density 18.578790000000001
#
# number of rings (size 3 to 8) (size 9 to 14) (size 15 to 20)
#    0.000    1.793    1.379    2.897    7.724    0.552 
#    0.000    2.759    0.000    8.276    0.000    0.000 
#    0.000    0.000    0.000    0.000    0.000    0.000 
#
# Total GULP energy -322876.264390 kJ/mol
# GULP energy per Si atom -5566.832145 kJ/mol
# Density = 1.853650 g / cm^3
# Si number density = 18.578790 Si / 1000 Ang^3
#
#
#
# Elastic Constant Matrix: (Units=GPa)
#
#
# Indices 1 2 3 4 5 6 
#
# 1 106.8839 25.9753 42.3347 0.0000 0.0000 0.0000
# 2 25.9753 105.6330 34.6589 0.0000 0.0000 0.0000
# 3 42.3347 34.6589 112.0458 0.0000 0.0000 0.0000
# 4 0.0000 0.0000 0.0000 10.6246 0.0000 0.0000
# 5 0.0000 0.0000 0.0000 0.0000 28.6218 0.0000
# 6 0.0000 0.0000 0.0000 0.0000 0.0000 13.9414
#
#
#
# Elastic Compliance Matrix: (Units=1/GPa)
#
#
# Indices 1 2 3 4 5 6 
#
# 1 0.011218 -0.001522 -0.003768 0.000000 0.000000 0.000000
# 2 -0.001522 0.010743 -0.002748 0.000000 0.000000 0.000000
# 3 -0.003768 -0.002748 0.011198 0.000000 0.000000 0.000000
# 4 0.000000 0.000000 0.000000 0.094121 0.000000 0.000000
# 5 0.000000 0.000000 0.000000 0.000000 0.034938 0.000000
# 6 0.000000 0.000000 0.000000 0.000000 0.000000 0.071729
#
#
# Mechanical properties :
#
#
# Convention : Reuss Voigt Hill
#
# Bulk Modulus (GPa) = 58.53574 58.94453 58.74013
# Shear Modulus (GPa) = 19.55278 25.41048 22.48163
#
# Velocity S-wave (km/s) = 3.24763 3.70227 3.48238
# Velocity P-wave (km/s) = 6.75559 7.07612 6.91771
#
# Compressibility (1/GPa) = 0.01708358
#
# Stress axis : x y z
#
# Youngs Moduli (GPa) = 89.14056 93.08675 89.29791
#
# Poissons Ratio (x) = 0.14171 0.33645
# Poissons Ratio (y) = 0.13570 0.24537
# Poissons Ratio (z) = 0.33586 0.25578
#
# Static dielectric constant tensor:
#      x y z
#    x 1.714910 0.000000 0.000000 
#    y 0.000000 1.617360 0.000000 
#    z 0.000000 0.000000 1.679040 
# 
# From -- ./inp_files/31268.got.cif
#   From: 2010.05.17/outbox.cif.g08.bks.cpg/sg68_16_cif.got.tgz:31268.got - 2010.06.03 18:57:09.
