data_PCOD9507444
_publ_section_title
;
Structure prediction by ZEFSAII (Michael W. Deem and Ramdas Pophale) SiO2 
 PCOD9507444
Probable space group: C C C A
;
_chemical_formula_sum "Si O2"
_cell_formula_units_Z 108
_cell_length_a 14.124493
_cell_length_b 15.056172
_cell_length_c 22.607639
_cell_angle_alpha 90.000000
_cell_angle_beta 90.000000
_cell_angle_gamma 90.000000
_cell_volume 4807.758506
_symmetry_space_group_name_H-M "C C C A"
_symmetry_group_IT_number 68
_space_group.IT_coordinate_system_code '2'
_symmetry_cell_setting 'orthorhombic'
loop_
_space_group_symop_operation_xyz
x,y,z
-x,1/2-y,z
x,1/2-y,1/2-z
-x,y,1/2-z
-x,-y,-z
x,1/2+y,-z
-x,1/2+y,1/2+z
x,-y,1/2+z
1/2+x,1/2+y,z
1/2-x,-y,z
1/2+x,-y,1/2-z
1/2-x,1/2+y,1/2-z
1/2-x,1/2-y,-z
1/2+x,y,-z
1/2-x,y,1/2+z
1/2+x,1/2-y,1/2+z
loop_
_atom_site_type_symbol
_atom_site_label
_atom_site_fract_x
_atom_site_fract_y
_atom_site_fract_z
Si Si1 0.505925 0.439790 0.057592
Si Si2 0.172188 0.719193 0.317479
Si Si3 0.500000 0.250000 0.750000
Si Si4 0.836452 0.650686 0.003933
Si Si5 0.375873 0.638728 0.339064
Si Si6 0.500000 0.250000 0.931236
Si Si7 0.046275 0.953519 0.184462
Si Si8 0.671744 0.827357 0.571792
O O1 0.484004 0.470651 0.124617
O O2 0.429118 0.361776 0.049855
O O3 0.500000 0.500000 0.000000
O O4 0.616034 0.414237 0.051422
O O5 0.177325 0.750000 0.250000
O O6 0.269491 0.672802 0.336785
O O7 0.089029 0.645717 0.322015
O O8 0.163201 0.806413 0.358945
O O9 0.567031 0.312963 0.712752
O O10 0.922982 0.690753 0.965635
O O11 0.756182 0.616550 0.958813
O O12 0.804267 0.731249 0.045178
O O13 0.434628 0.678810 0.394932
O O14 0.380348 0.534267 0.325060
O O15 0.000000 0.960603 0.250000
#
# Coordination Sequence:
#
# PCOD9507444 Si02
#       8
#    16  16   4  16  16   8  16  16
#     4  12  26  46  71 104 145 190 235 298 363 428
#     4  12  25  45  72 101 138 191 239 288 360 440
#     4  10  20  44  76  88 136 176 230 284 346 418
#     4  11  22  42  71  99 136 179 231 294 348 423
#     4  11  23  43  69 104 134 177 235 292 355 427
#     4  11  20  39  74 100 133 182 229 292 362 421
#     4  12  27  46  69 104 147 185 233 301 362 426
#     4  11  24  43  69 103 139 181 241 291 351 427
#
# _framework density 22.46369
#
# number of rings (size 3 to 8) (size 9 to 14) (size 15 to 20)
#    0.000    0.593    5.926    2.222    0.000    2.074 
#    5.333    0.000    0.000    0.000    0.000    0.000 
#    0.000    0.000    0.000    0.000    0.000    0.000 
#
# Total GULP energy -301019.202470 kJ/mol
# GULP energy per Si atom -5574.429675 kJ/mol
# Density = 2.241256 g / cm^3
# Si number density = 22.463690 Si / 1000 Ang^3
#
#
#
# Elastic Constant Matrix: (Units=GPa)
#
#
# Indices 1 2 3 4 5 6 
#
# 1 66.9638 10.5666 36.6853 0.0000 0.0000 0.0000
# 2 10.5666 48.7069 27.4932 0.0000 0.0000 0.0000
# 3 36.6853 27.4932 175.9378 0.0000 0.0000 0.0000
# 4 0.0000 0.0000 0.0000 48.3149 0.0000 0.0000
# 5 0.0000 0.0000 0.0000 0.0000 42.0675 0.0000
# 6 0.0000 0.0000 0.0000 0.0000 0.0000 18.3092
#
#
#
# Elastic Compliance Matrix: (Units=1/GPa)
#
#
# Indices 1 2 3 4 5 6 
#
# 1 0.017010 -0.001851 -0.003258 0.000000 0.000000 0.000000
# 2 -0.001851 0.022719 -0.003164 0.000000 0.000000 0.000000
# 3 -0.003258 -0.003164 0.006858 0.000000 0.000000 0.000000
# 4 0.000000 0.000000 0.000000 0.020698 0.000000 0.000000
# 5 0.000000 0.000000 0.000000 0.000000 0.023771 0.000000
# 6 0.000000 0.000000 0.000000 0.000000 0.000000 0.054617
#
#
# Mechanical properties :
#
#
# Convention : Reuss Voigt Hill
#
# Bulk Modulus (GPa) = 33.28881 49.01095 41.14988
# Shear Modulus (GPa) = 29.03060 36.19588 32.61324
#
# Velocity S-wave (km/s) = 3.59881 4.01846 3.81441
# Velocity P-wave (km/s) = 5.66742 6.58756 6.14474
#
# Compressibility (1/GPa) = 0.03004013
#
# Stress axis : x y z
#
# Youngs Moduli (GPa) = 58.78830 44.01670 145.82562
#
# Poissons Ratio (x) = 0.08150 0.47503
# Poissons Ratio (y) = 0.10885 0.46141
# Poissons Ratio (z) = 0.19150 0.13927
#
# Static dielectric constant tensor:
#      x y z
#    x 1.988330 0.000000 0.000000 
#    y 0.000000 1.951610 0.000000 
#    z 0.000000 0.000000 1.909140 
# 
# From -- ./inp_files/45571.got.cif
#   From: 2010.05.17/outbox.cif.g08.bks.cpg/sg68_23_cif.got.tgz:45571.got - 2010.06.03 18:57:09.
