data_PCOD9507932
_publ_section_title
;
Structure prediction by ZEFSAII (Michael W. Deem and Ramdas Pophale) SiO2 
 PCOD9507932
Probable space group: C C C A
;
_chemical_formula_sum "Si O2"
_cell_formula_units_Z 48
_cell_length_a 17.150248
_cell_length_b 4.884476
_cell_length_c 24.901900
_cell_angle_alpha 90.000000
_cell_angle_beta 90.000000
_cell_angle_gamma 90.000000
_cell_volume 2086.031534
_symmetry_space_group_name_H-M "C C C A"
_symmetry_group_IT_number 68
_space_group.IT_coordinate_system_code '2'
_symmetry_cell_setting 'orthorhombic'
loop_
_space_group_symop_operation_xyz
x,y,z
-x,1/2-y,z
x,1/2-y,1/2-z
-x,y,1/2-z
-x,-y,-z
x,1/2+y,-z
-x,1/2+y,1/2+z
x,-y,1/2+z
1/2+x,1/2+y,z
1/2-x,-y,z
1/2+x,-y,1/2-z
1/2-x,1/2+y,1/2-z
1/2-x,1/2-y,-z
1/2+x,y,-z
1/2-x,y,1/2+z
1/2+x,1/2-y,1/2+z
loop_
_atom_site_type_symbol
_atom_site_label
_atom_site_fract_x
_atom_site_fract_y
_atom_site_fract_z
Si Si1 0.166625 0.403711 0.805991
Si Si2 0.843825 0.485315 0.467181
Si Si3 0.085055 0.617522 0.646475
O O1 0.184151 0.250000 0.750000
O O2 0.250000 0.500000 0.830788
O O3 0.122992 0.690670 0.808247
O O4 0.108589 0.191628 0.836232
O O5 0.868305 0.788878 0.483821
O O6 0.750000 0.500000 0.463076
O O7 0.876313 0.367859 0.412143
O O8 0.000000 0.750000 0.641370
#
# Coordination Sequence:
#
# PCOD9507932 Si02
#       3
#    16  16  16
#     4  12  25  45  70  96 130 177 233 283 336 410
#     4  10  21  39  64  93 128 175 228 278 333 406
#     4  12  26  42  66 101 139 176 218 283 357 416
#
# _framework density 23.010200000000001
#
# number of rings (size 3 to 8) (size 9 to 14) (size 15 to 20)
#    0.000    0.667    0.000    9.000    0.000    8.000 
#    0.000    0.000    0.000    0.000    0.000    0.000 
#    0.000    0.000    0.000    0.000    0.000    0.000 
#
# Total GULP energy -133790.681174 kJ/mol
# GULP energy per Si atom -5574.611716 kJ/mol
# Density = 2.295783 g / cm^3
# Si number density = 23.010200 Si / 1000 Ang^3
#
#
#
# Elastic Constant Matrix: (Units=GPa)
#
#
# Indices 1 2 3 4 5 6 
#
# 1 91.4168 47.0682 42.0116 0.0000 0.0000 0.0000
# 2 47.0682 136.4979 32.7393 0.0000 0.0000 0.0000
# 3 42.0116 32.7393 91.9438 0.0000 0.0000 0.0000
# 4 0.0000 0.0000 0.0000 23.1625 0.0000 0.0000
# 5 0.0000 0.0000 0.0000 0.0000 31.2173 0.0000
# 6 0.0000 0.0000 0.0000 0.0000 0.0000 38.9144
#
#
#
# Elastic Compliance Matrix: (Units=1/GPa)
#
#
# Indices 1 2 3 4 5 6 
#
# 1 0.015634 -0.004021 -0.005712 0.000000 0.000000 0.000000
# 2 -0.004021 0.009044 -0.001383 0.000000 0.000000 0.000000
# 3 -0.005712 -0.001383 0.013979 0.000000 0.000000 0.000000
# 4 0.000000 0.000000 0.000000 0.043173 0.000000 0.000000
# 5 0.000000 0.000000 0.000000 0.000000 0.032034 0.000000
# 6 0.000000 0.000000 0.000000 0.000000 0.000000 0.025697
#
#
# Mechanical properties :
#
#
# Convention : Reuss Voigt Hill
#
# Bulk Modulus (GPa) = 60.88280 62.61074 61.74677
# Shear Modulus (GPa) = 29.89200 31.86147 30.87673
#
# Velocity S-wave (km/s) = 3.60818 3.72515 3.66713
# Velocity P-wave (km/s) = 6.62383 6.76545 6.69502
#
# Compressibility (1/GPa) = 0.01642500
#
# Stress axis : x y z
#
# Youngs Moduli (GPa) = 63.96223 110.56484 71.53772
#
# Poissons Ratio (x) = 0.44459 0.40861
# Poissons Ratio (y) = 0.25720 0.09895
# Poissons Ratio (z) = 0.36534 0.15293
#
# Static dielectric constant tensor:
#      x y z
#    x 1.936680 0.000000 0.000000 
#    y 0.000000 1.776450 0.000000 
#    z 0.000000 0.000000 1.857350 
# 
# From -- ./inp_files/41886.got.cif
#   From: 2010.05.17/outbox.cif.g08.bks.cpg/sg68_21_cif.got.tgz:41886.got - 2010.06.03 18:57:09.
