data_PCOD9507572
_publ_section_title
;
Structure prediction by ZEFSAII (Michael W. Deem and Ramdas Pophale) SiO2 
 PCOD9507572
Probable space group: C C C A
;
_chemical_formula_sum "Si O2"
_cell_formula_units_Z 96
_cell_length_a 27.092789
_cell_length_b 18.172531
_cell_length_c 8.904997
_cell_angle_alpha 90.000000
_cell_angle_beta 90.000000
_cell_angle_gamma 90.000000
_cell_volume 4384.326723
_symmetry_space_group_name_H-M "C C C A"
_symmetry_group_IT_number 68
_space_group.IT_coordinate_system_code '2'
_symmetry_cell_setting 'orthorhombic'
loop_
_space_group_symop_operation_xyz
x,y,z
-x,1/2-y,z
x,1/2-y,1/2-z
-x,y,1/2-z
-x,-y,-z
x,1/2+y,-z
-x,1/2+y,1/2+z
x,-y,1/2+z
1/2+x,1/2+y,z
1/2-x,-y,z
1/2+x,-y,1/2-z
1/2-x,1/2+y,1/2-z
1/2-x,1/2-y,-z
1/2+x,y,-z
1/2-x,y,1/2+z
1/2+x,1/2-y,1/2+z
loop_
_atom_site_type_symbol
_atom_site_label
_atom_site_fract_x
_atom_site_fract_y
_atom_site_fract_z
Si Si1 0.944076 0.725173 0.913526
Si Si2 0.127373 0.196165 0.868587
Si Si3 0.875514 0.900241 0.597181
Si Si4 0.909466 0.029664 0.391989
Si Si5 0.450068 0.589930 0.688310
Si Si6 0.302933 0.240238 0.925043
O O1 0.923026 0.750000 0.750000
O O2 0.928468 0.640646 0.926363
O O3 0.000000 0.750000 0.912591
O O4 0.919250 0.764740 0.054002
O O5 0.152140 0.250000 0.750000
O O6 0.102570 0.129708 0.782520
O O7 0.165111 0.192959 0.003658
O O8 0.876871 0.924661 0.772338
O O9 0.834412 0.837224 0.557745
O O10 0.877152 0.973397 0.494455
O O11 0.943370 0.074679 0.510479
O O12 0.945748 0.983576 0.285602
O O13 0.500000 0.627512 0.750000
O O14 0.297434 0.250000 0.750000
O O15 0.250000 0.250000 0.000000
#
# Coordination Sequence:
#
# PCOD9507572 Si02
#       6
#    16  16  16  16  16  16
#     4  10  21  36  57  86 126 173 222 279 335 387
#     4  11  23  37  60  91 127 164 218 280 337 384
#     4  10  21  42  65  95 129 174 224 274 336 404
#     4  10  22  39  59  86 129 179 221 267 318 397
#     4  11  22  35  55  82 124 170 223 264 320 387
#     4  11  23  43  73 101 130 164 216 281 355 415
#
# _framework density 21.896179
#
# number of rings (size 3 to 8) (size 9 to 14) (size 15 to 20)
#    0.000    1.500    0.000    7.000    4.667    0.000 
#   12.000    0.000    0.000   17.000    0.000    0.000 
#    0.000    0.000    0.000    0.000    0.000    0.000 
#
# Total GULP energy -267605.285860 kJ/mol
# GULP energy per Si atom -5575.110122 kJ/mol
# Density = 2.184634 g / cm^3
# Si number density = 21.896179 Si / 1000 Ang^3
#
#
#
# Elastic Constant Matrix: (Units=GPa)
#
#
# Indices 1 2 3 4 5 6 
#
# 1 124.5979 37.6642 41.0060 0.0000 0.0000 0.0000
# 2 37.6642 80.9140 30.3209 0.0000 0.0000 0.0000
# 3 41.0060 30.3209 130.2858 0.0000 0.0000 0.0000
# 4 0.0000 0.0000 0.0000 45.4407 0.0000 0.0000
# 5 0.0000 0.0000 0.0000 0.0000 40.0093 0.0000
# 6 0.0000 0.0000 0.0000 0.0000 0.0000 21.0241
#
#
#
# Elastic Compliance Matrix: (Units=1/GPa)
#
#
# Indices 1 2 3 4 5 6 
#
# 1 0.009902 -0.003770 -0.002239 0.000000 0.000000 0.000000
# 2 -0.003770 0.014975 -0.002298 0.000000 0.000000 0.000000
# 3 -0.002239 -0.002298 0.008915 0.000000 0.000000 0.000000
# 4 0.000000 0.000000 0.000000 0.022007 0.000000 0.000000
# 5 0.000000 0.000000 0.000000 0.000000 0.024994 0.000000
# 6 0.000000 0.000000 0.000000 0.000000 0.000000 0.047564
#
#
# Mechanical properties :
#
#
# Convention : Reuss Voigt Hill
#
# Bulk Modulus (GPa) = 58.21837 61.53109 59.87473
# Shear Modulus (GPa) = 33.17860 36.41527 34.79693
#
# Velocity S-wave (km/s) = 3.89687 4.08252 3.99077
# Velocity P-wave (km/s) = 6.84789 7.09824 6.97418
#
# Compressibility (1/GPa) = 0.01717671
#
# Stress axis : x y z
#
# Youngs Moduli (GPa) = 100.98470 66.77736 112.16910
#
# Poissons Ratio (x) = 0.25177 0.25117
# Poissons Ratio (y) = 0.38075 0.25781
# Poissons Ratio (z) = 0.22613 0.15348
#
# Static dielectric constant tensor:
#      x y z
#    x 1.829130 0.000000 0.000000 
#    y 0.000000 1.945180 0.000000 
#    z 0.000000 0.000000 1.897930 
# 
# From -- ./inp_files/8943.got.cif
#   From: 2010.05.17/outbox.cif.g08.bks.cpg/sg68_5_cif.got.tgz:8943.got - 2010.06.03 18:57:09.
