data_PCOD9507143
_publ_section_title
;
Structure prediction by ZEFSAII (Michael W. Deem and Ramdas Pophale) SiO2 
 PCOD9507143
Probable space group: C C C A
;
_chemical_formula_sum "Si O2"
_cell_formula_units_Z 112
_cell_length_a 14.584698
_cell_length_b 16.713386
_cell_length_c 23.021719
_cell_angle_alpha 90.000000
_cell_angle_beta 90.000000
_cell_angle_gamma 90.000000
_cell_volume 5611.767026
_symmetry_space_group_name_H-M "C C C A"
_symmetry_group_IT_number 68
_space_group.IT_coordinate_system_code '2'
_symmetry_cell_setting 'orthorhombic'
loop_
_space_group_symop_operation_xyz
x,y,z
-x,1/2-y,z
x,1/2-y,1/2-z
-x,y,1/2-z
-x,-y,-z
x,1/2+y,-z
-x,1/2+y,1/2+z
x,-y,1/2+z
1/2+x,1/2+y,z
1/2-x,-y,z
1/2+x,-y,1/2-z
1/2-x,1/2+y,1/2-z
1/2-x,1/2-y,-z
1/2+x,y,-z
1/2-x,y,1/2+z
1/2+x,1/2-y,1/2+z
loop_
_atom_site_type_symbol
_atom_site_label
_atom_site_fract_x
_atom_site_fract_y
_atom_site_fract_z
Si Si1 0.015718 0.437491 0.817012
Si Si2 0.970143 0.093506 0.388513
Si Si3 0.838516 0.158508 0.088411
Si Si4 0.626295 0.712435 0.188349
Si Si5 0.668491 0.698238 0.691545
Si Si6 0.096217 0.704782 0.982459
Si Si7 0.138804 0.652684 0.110306
O O1 0.925556 0.398039 0.846841
O O2 0.000000 0.464954 0.750000
O O3 0.045338 0.507467 0.860888
O O4 0.094416 0.370849 0.812688
O O5 0.951341 0.154786 0.335723
O O6 0.903174 0.130041 0.437863
O O7 0.073706 0.100609 0.413323
O O8 0.858515 0.216224 0.142892
O O9 0.835361 0.222734 0.035295
O O10 0.740772 0.118169 0.099342
O O11 0.606980 0.750000 0.250000
O O12 0.726017 0.669330 0.191580
O O13 0.655256 0.750000 0.750000
O O14 0.653028 0.760737 0.639752
O O15 0.000000 0.750000 0.971793
O O16 0.098426 0.670674 0.046912
#
# Coordination Sequence:
#
# PCOD9507143 Si02
#       7
#    16  16  16  16  16  16  16
#     4  12  25  37  57  86 125 167 193 247 303 371
#     4  10  23  39  55  90 127 153 198 243 305 369
#     4   9  20  37  60  90 120 152 206 254 292 360
#     4   9  19  35  62  84 111 155 196 254 297 343
#     4  10  20  39  59  87 116 146 208 253 295 352
#     4   9  18  38  64  90 118 155 205 261 301 362
#     4  11  21  37  65  89 115 165 205 250 306 349
#
# _framework density 19.958062999999999
#
# number of rings (size 3 to 8) (size 9 to 14) (size 15 to 20)
#    0.000    2.000    1.429    3.000    2.000    2.286 
#    0.000    1.429    0.000    5.143    0.000    0.000 
#    0.000    0.000    0.000    0.000    0.000    0.000 
#
# Total GULP energy -312295.412943 kJ/mol
# GULP energy per Si atom -5576.703803 kJ/mol
# Density = 1.991264 g / cm^3
# Si number density = 19.958063 Si / 1000 Ang^3
#
#
#
# Elastic Constant Matrix: (Units=GPa)
#
#
# Indices 1 2 3 4 5 6 
#
# 1 91.2457 20.9660 14.3390 0.0000 0.0000 0.0000
# 2 20.9660 46.0478 26.2170 0.0000 0.0000 0.0000
# 3 14.3390 26.2170 102.6541 0.0000 0.0000 0.0000
# 4 0.0000 0.0000 0.0000 19.3818 0.0000 0.0000
# 5 0.0000 0.0000 0.0000 0.0000 16.5357 0.0000
# 6 0.0000 0.0000 0.0000 0.0000 0.0000 7.2061
#
#
#
# Elastic Compliance Matrix: (Units=1/GPa)
#
#
# Indices 1 2 3 4 5 6 
#
# 1 0.012250 -0.005386 -0.000335 0.000000 0.000000 0.000000
# 2 -0.005386 0.027780 -0.006342 0.000000 0.000000 0.000000
# 3 -0.000335 -0.006342 0.011408 0.000000 0.000000 0.000000
# 4 0.000000 0.000000 0.000000 0.051595 0.000000 0.000000
# 5 0.000000 0.000000 0.000000 0.000000 0.060475 0.000000
# 6 0.000000 0.000000 0.000000 0.000000 0.000000 0.138771
#
#
# Mechanical properties :
#
#
# Convention : Reuss Voigt Hill
#
# Bulk Modulus (GPa) = 36.61744 40.33239 38.47491
# Shear Modulus (GPa) = 14.90267 20.51977 17.71122
#
# Velocity S-wave (km/s) = 2.73554 3.20995 2.98219
# Velocity P-wave (km/s) = 5.32584 5.83016 5.58370
#
# Compressibility (1/GPa) = 0.02730939
#
# Stress axis : x y z
#
# Youngs Moduli (GPa) = 81.63393 35.99698 87.65692
#
# Poissons Ratio (x) = 0.19390 0.02940
# Poissons Ratio (y) = 0.43972 0.55596
# Poissons Ratio (z) = 0.02738 0.22831
#
# Static dielectric constant tensor:
#      x y z
#    x 1.775910 0.000000 0.000000 
#    y 0.000000 1.691050 0.000000 
#    z 0.000000 0.000000 1.714880 
# 
# From -- ./inp_files/45514.got.cif
#   From: 2010.05.17/outbox.cif.g08.bks.cpg/sg68_23_cif.got.tgz:45514.got - 2010.06.03 18:57:09.
