data_PCOD9507424
_publ_section_title
;
Structure prediction by ZEFSAII (Michael W. Deem and Ramdas Pophale) SiO2 
 PCOD9507424
Probable space group: C C C A
;
_chemical_formula_sum "Si O2"
_cell_formula_units_Z 88
_cell_length_a 18.495565
_cell_length_b 13.838260
_cell_length_c 18.513698
_cell_angle_alpha 90.000000
_cell_angle_beta 90.000000
_cell_angle_gamma 90.000000
_cell_volume 4738.515045
_symmetry_space_group_name_H-M "C C C A"
_symmetry_group_IT_number 68
_space_group.IT_coordinate_system_code '2'
_symmetry_cell_setting 'orthorhombic'
loop_
_space_group_symop_operation_xyz
x,y,z
-x,1/2-y,z
x,1/2-y,1/2-z
-x,y,1/2-z
-x,-y,-z
x,1/2+y,-z
-x,1/2+y,1/2+z
x,-y,1/2+z
1/2+x,1/2+y,z
1/2-x,-y,z
1/2+x,-y,1/2-z
1/2-x,1/2+y,1/2-z
1/2-x,1/2-y,-z
1/2+x,y,-z
1/2-x,y,1/2+z
1/2+x,1/2-y,1/2+z
loop_
_atom_site_type_symbol
_atom_site_label
_atom_site_fract_x
_atom_site_fract_y
_atom_site_fract_z
Si Si1 0.750000 0.000000 0.116195
Si Si2 0.726612 0.636520 0.249083
Si Si3 0.026116 0.858450 0.061840
Si Si4 0.115197 0.145868 0.710858
Si Si5 0.921813 0.053389 0.226514
Si Si6 0.595544 0.523406 0.434816
O O1 0.746047 0.910137 0.172668
O O2 0.821078 0.992875 0.068100
O O3 0.716309 0.750000 0.250000
O O4 0.799168 0.621170 0.202058
O O5 0.648248 0.592564 0.231041
O O6 0.070610 0.855758 0.136816
O O7 0.000000 0.750000 0.045461
O O8 0.957734 0.931220 0.065548
O O9 0.075549 0.905780 0.999727
O O10 0.110114 0.250000 0.750000
O O11 0.083428 0.062070 0.761894
O O12 0.914824 0.075516 0.142239
O O13 0.000000 0.088491 0.250000
#
# Coordination Sequence:
#
# PCOD9507424 Si02
#       6
#     8  16  16  16  16  16
#     4  10  20  44  64  82 130 170 198 256 318 364
#     4  10  21  37  61  94 123 152 210 261 305 364
#     4  11  24  40  62  94 127 157 206 263 312 371
#     4  11  21  36  68  97 118 152 212 270 308 354
#     4  11  20  39  63  90 124 167 206 256 311 366
#     4  10  22  43  60  87 128 168 198 249 320 375
#
# _framework density 18.571218999999999
#
# number of rings (size 3 to 8) (size 9 to 14) (size 15 to 20)
#    0.000    1.455    5.455    1.091    2.545    0.364 
#    9.818    0.909    0.000    0.000    0.000    0.000 
#    0.000    0.000    0.000    0.000    0.000    0.000 
#
# Total GULP energy -245309.016052 kJ/mol
# GULP energy per Si atom -5575.204910 kJ/mol
# Density = 1.852895 g / cm^3
# Si number density = 18.571219 Si / 1000 Ang^3
#
#
#
# Elastic Constant Matrix: (Units=GPa)
#
#
# Indices 1 2 3 4 5 6 
#
# 1 188.4667 46.8672 58.2064 0.0000 0.0000 0.0000
# 2 46.8672 100.7571 45.5409 0.0000 0.0000 0.0000
# 3 58.2064 45.5409 91.0251 0.0000 0.0000 0.0000
# 4 0.0000 0.0000 0.0000 16.1711 0.0000 0.0000
# 5 0.0000 0.0000 0.0000 0.0000 33.9112 0.0000
# 6 0.0000 0.0000 0.0000 0.0000 0.0000 17.3563
#
#
#
# Elastic Compliance Matrix: (Units=1/GPa)
#
#
# Indices 1 2 3 4 5 6 
#
# 1 0.006793 -0.001546 -0.003570 0.000000 0.000000 0.000000
# 2 -0.001546 0.013177 -0.005604 0.000000 0.000000 0.000000
# 3 -0.003570 -0.005604 0.016073 0.000000 0.000000 0.000000
# 4 0.000000 0.000000 0.000000 0.061839 0.000000 0.000000
# 5 0.000000 0.000000 0.000000 0.000000 0.029489 0.000000
# 6 0.000000 0.000000 0.000000 0.000000 0.000000 0.057616
#
#
# Mechanical properties :
#
#
# Convention : Reuss Voigt Hill
#
# Bulk Modulus (GPa) = 68.48334 75.71976 72.10155
# Shear Modulus (GPa) = 23.66368 28.79669 26.23018
#
# Velocity S-wave (km/s) = 3.57348 3.94205 3.76228
# Velocity P-wave (km/s) = 7.34728 7.84734 7.60142
#
# Compressibility (1/GPa) = 0.01460209
#
# Stress axis : x y z
#
# Youngs Moduli (GPa) = 147.20751 75.89036 62.21700
#
# Poissons Ratio (x) = 0.11733 0.22214
# Poissons Ratio (y) = 0.22759 0.34866
# Poissons Ratio (z) = 0.52559 0.42528
#
# Static dielectric constant tensor:
#      x y z
#    x 1.706710 0.000000 0.000000 
#    y 0.000000 1.637700 0.000000 
#    z 0.000000 0.000000 1.612880 
# 
# From -- ./inp_files/31846.got.cif
#   From: 2010.05.17/outbox.cif.g08.bks.cpg/sg68_16_cif.got.tgz:31846.got - 2010.06.03 18:57:09.
