data_PCOD9507530
_publ_section_title
;
Structure prediction by ZEFSAII (Michael W. Deem and Ramdas Pophale) SiO2 
 PCOD9507530
Probable space group: C C C A
;
_chemical_formula_sum "Si O2"
_cell_formula_units_Z 120
_cell_length_a 23.951096
_cell_length_b 11.855235
_cell_length_c 20.452015
_cell_angle_alpha 90.000000
_cell_angle_beta 90.000000
_cell_angle_gamma 90.000000
_cell_volume 5807.265225
_symmetry_space_group_name_H-M "C C C A"
_symmetry_group_IT_number 68
_space_group.IT_coordinate_system_code '2'
_symmetry_cell_setting 'orthorhombic'
loop_
_space_group_symop_operation_xyz
x,y,z
-x,1/2-y,z
x,1/2-y,1/2-z
-x,y,1/2-z
-x,-y,-z
x,1/2+y,-z
-x,1/2+y,1/2+z
x,-y,1/2+z
1/2+x,1/2+y,z
1/2-x,-y,z
1/2+x,-y,1/2-z
1/2-x,1/2+y,1/2-z
1/2-x,1/2-y,-z
1/2+x,y,-z
1/2-x,y,1/2+z
1/2+x,1/2-y,1/2+z
loop_
_atom_site_type_symbol
_atom_site_label
_atom_site_fract_x
_atom_site_fract_y
_atom_site_fract_z
Si Si1 0.896095 0.153840 0.429735
Si Si2 0.814623 0.987913 0.120466
Si Si3 0.510222 0.035222 0.572271
Si Si4 0.311595 0.458987 0.467524
Si Si5 0.905366 0.644174 0.844949
Si Si6 0.369964 0.257105 0.075059
Si Si7 0.033170 0.857318 0.160913
Si Si8 0.000000 0.051833 0.250000
O O1 0.958034 0.113625 0.411313
O O2 0.856217 0.045698 0.436920
O O3 0.881944 0.236058 0.368956
O O4 0.894773 0.205361 0.503841
O O5 0.841466 0.863674 0.110948
O O6 0.750000 0.000000 0.140618
O O7 0.854564 0.060139 0.167552
O O8 0.816469 0.037528 0.046336
O O9 0.566034 0.099651 0.587901
O O10 0.500000 0.000000 0.500000
O O11 0.509232 0.919229 0.611435
O O12 0.250000 0.500000 0.450743
O O13 0.323062 0.334060 0.442946
O O14 0.956822 0.625924 0.793889
O O15 0.414354 0.190933 0.120782
O O16 0.000000 0.750000 0.186092
O O17 0.039711 0.961252 0.211373
#
# Coordination Sequence:
#
# PCOD9507530 Si02
#       8
#    16  16  16  16  16  16  16   8
#     4  11  21  35  59  90 128 167 204 246 314 390
#     4  10  22  36  59  93 129 165 205 247 309 381
#     4  11  20  34  55  90 127 154 199 245 313 383
#     4  10  21  35  57  91 130 172 202 244 309 381
#     4  11  22  40  58  90 121 167 205 261 313 372
#     4  11  20  36  59  90 129 165 199 257 311 386
#     4  11  21  37  59  86 117 159 205 258 314 367
#     4  10  25  42  63  86 118 158 220 276 318 376
#
# _framework density 20.663771000000001
#
# number of rings (size 3 to 8) (size 9 to 14) (size 15 to 20)
#    0.000    1.333    2.667    5.400    1.867    1.600 
#    0.000    5.333    0.000    0.800    0.000    5.600 
#    0.000    0.000    0.000    0.000    0.000    0.000 
#
# Total GULP energy -334585.402355 kJ/mol
# GULP energy per Si atom -5576.423373 kJ/mol
# Density = 2.061674 g / cm^3
# Si number density = 20.663771 Si / 1000 Ang^3
#
#
#
# Elastic Constant Matrix: (Units=GPa)
#
#
# Indices 1 2 3 4 5 6 
#
# 1 107.6455 17.3922 0.8157 0.0000 0.0000 0.0000
# 2 17.3922 75.1496 22.0549 0.0000 0.0000 0.0000
# 3 0.8157 22.0549 45.9936 0.0000 0.0000 0.0000
# 4 0.0000 0.0000 0.0000 17.5174 0.0000 0.0000
# 5 0.0000 0.0000 0.0000 0.0000 19.0900 0.0000
# 6 0.0000 0.0000 0.0000 0.0000 0.0000 30.5288
#
#
#
# Elastic Compliance Matrix: (Units=1/GPa)
#
#
# Indices 1 2 3 4 5 6 
#
# 1 0.009694 -0.002552 0.001052 0.000000 0.000000 0.000000
# 2 -0.002552 0.016158 -0.007703 0.000000 0.000000 0.000000
# 3 0.001052 -0.007703 0.025417 0.000000 0.000000 0.000000
# 4 0.000000 0.000000 0.000000 0.057086 0.000000 0.000000
# 5 0.000000 0.000000 0.000000 0.000000 0.052383 0.000000
# 6 0.000000 0.000000 0.000000 0.000000 0.000000 0.032756
#
#
# Mechanical properties :
#
#
# Convention : Reuss Voigt Hill
#
# Bulk Modulus (GPa) = 30.42935 34.36825 32.39880
# Shear Modulus (GPa) = 22.43603 25.99563 24.21583
#
# Velocity S-wave (km/s) = 3.29867 3.55072 3.42701
# Velocity P-wave (km/s) = 5.40983 5.78605 5.60110
#
# Compressibility (1/GPa) = 0.03286301
#
# Stress axis : x y z
#
# Youngs Moduli (GPa) = 103.15498 61.88837 39.34345
#
# Poissons Ratio (x) = 0.15796 -0.04139
# Poissons Ratio (y) = 0.26328 0.30306
# Poissons Ratio (z) = -0.10851 0.47672
#
# Static dielectric constant tensor:
#      x y z
#    x 1.722510 0.000000 0.000000 
#    y 0.000000 0.933210 0.000000 
#    z 0.000000 0.000000 1.652540 
# 
# From -- ./inp_files/40936.got.cif
#   From: 2010.05.17/outbox.cif.g08.bks.cpg/sg68_21_cif.got.tgz:40936.got - 2010.06.03 18:57:09.
