data_PCOD9507985
_publ_section_title
;
Structure prediction by ZEFSAII (Michael W. Deem and Ramdas Pophale) SiO2 
 PCOD9507985
Probable space group: C C C A
;
_chemical_formula_sum "Si O2"
_cell_formula_units_Z 80
_cell_length_a 24.468981
_cell_length_b 11.801741
_cell_length_c 13.393590
_cell_angle_alpha 90.000000
_cell_angle_beta 90.000000
_cell_angle_gamma 90.000000
_cell_volume 3867.755065
_symmetry_space_group_name_H-M "C C C A"
_symmetry_group_IT_number 68
_space_group.IT_coordinate_system_code '2'
_symmetry_cell_setting 'orthorhombic'
loop_
_space_group_symop_operation_xyz
x,y,z
-x,1/2-y,z
x,1/2-y,1/2-z
-x,y,1/2-z
-x,-y,-z
x,1/2+y,-z
-x,1/2+y,1/2+z
x,-y,1/2+z
1/2+x,1/2+y,z
1/2-x,-y,z
1/2+x,-y,1/2-z
1/2-x,1/2+y,1/2-z
1/2-x,1/2-y,-z
1/2+x,y,-z
1/2-x,y,1/2+z
1/2+x,1/2-y,1/2+z
loop_
_atom_site_type_symbol
_atom_site_label
_atom_site_fract_x
_atom_site_fract_y
_atom_site_fract_z
Si Si1 0.443998 0.477339 0.692501
Si Si2 0.645368 0.657653 0.176174
Si Si3 0.311182 0.963150 0.990623
Si Si4 0.120073 0.698827 0.147953
Si Si5 0.901763 0.157496 0.029307
O O1 0.500000 0.469423 0.750000
O O2 0.395702 0.416904 0.756785
O O3 0.424430 0.604078 0.673423
O O4 0.447945 0.412514 0.586439
O O5 0.672966 0.750000 0.250000
O O6 0.610742 0.734279 0.098812
O O7 0.682679 0.581505 0.104567
O O8 0.333560 0.864152 0.917802
O O9 0.250000 0.000000 0.968575
O O10 0.350764 0.070624 0.974383
O O11 0.142568 0.750000 0.250000
O O12 0.091921 0.795810 0.081308
#
# Coordination Sequence:
#
# PCOD9507985 Si02
#       5
#    16  16  16  16  16
#     4  10  21  40  64  90 120 159 204 247 301 363
#     4   9  19  37  58  86 122 156 198 248 298 358
#     4  10  21  40  62  87 121 160 204 252 302 359
#     4  10  21  40  60  87 125 159 200 251 300 357
#     4   9  20  39  60  86 122 156 195 248 296 353
#
# _framework density 20.683833
#
# number of rings (size 3 to 8) (size 9 to 14) (size 15 to 20)
#    0.000    2.400    0.000    1.200    0.000    7.200 
#    0.000   46.000    0.000    0.000    0.000    0.000 
#    0.000    0.000    0.000    0.000    0.000    0.000 
#
# Total GULP energy -223272.540847 kJ/mol
# GULP energy per Si atom -5581.813521 kJ/mol
# Density = 2.063676 g / cm^3
# Si number density = 20.683833 Si / 1000 Ang^3
#
#
#
# Elastic Constant Matrix: (Units=GPa)
#
#
# Indices 1 2 3 4 5 6 
#
# 1 82.2208 44.2326 47.1801 0.0000 0.0000 0.0000
# 2 44.2326 80.7094 53.6573 0.0000 0.0000 0.0000
# 3 47.1801 53.6573 144.2691 0.0000 0.0000 0.0000
# 4 0.0000 0.0000 0.0000 54.7974 0.0000 0.0000
# 5 0.0000 0.0000 0.0000 0.0000 -1.2911 0.0000
# 6 0.0000 0.0000 0.0000 0.0000 0.0000 -0.9489
#
#
#
# Elastic Compliance Matrix: (Units=1/GPa)
#
#
# Indices 1 2 3 4 5 6 
#
# 1 0.018159 -0.007976 -0.002972 0.000000 0.000000 0.000000
# 2 -0.007976 0.019963 -0.004817 0.000000 0.000000 0.000000
# 3 -0.002972 -0.004817 0.009695 0.000000 0.000000 0.000000
# 4 0.000000 0.000000 0.000000 0.018249 0.000000 0.000000
# 5 0.000000 0.000000 0.000000 0.000000 -0.774559 0.000000
# 6 0.000000 0.000000 0.000000 0.000000 0.000000 -1.053907
#
#
# Mechanical properties :
#
#
# Convention : Reuss Voigt Hill
#
# Bulk Modulus (GPa) = 61.39495 66.37104 63.88300
# Shear Modulus (GPa) = -2.89781 21.32012 9.21116
#
# Velocity S-wave (km/s) = -1.18492 3.21403 2.11258
# Velocity P-wave (km/s) = 5.27967 6.77727 6.07480
#
# Compressibility (1/GPa) = 0.01628798
#
# Stress axis : x y z
#
# Youngs Moduli (GPa) = 55.07037 50.09149 103.14816
#
# Poissons Ratio (x) = 0.39953 0.30655
# Poissons Ratio (y) = 0.43924 0.49682
# Poissons Ratio (z) = 0.16366 0.24127
#
# Static dielectric constant tensor:
#      x y z
#    x 1.689740 0.000000 0.000000 
#    y 0.000000 1.750690 0.000000 
#    z 0.000000 0.000000 1.792080 
# 
# From -- ./inp_files/25178.got.cif
#   From: 2010.05.17/outbox.cif.g08.bks.cpg/sg68_13_cif.got.tgz:25178.got - 2010.06.03 18:57:09.
