data_PCOD9507409
_publ_section_title
;
Structure prediction by ZEFSAII (Michael W. Deem and Ramdas Pophale) SiO2 
 PCOD9507409
Probable space group: C C C A
;
_chemical_formula_sum "Si O2"
_cell_formula_units_Z 80
_cell_length_a 13.411184
_cell_length_b 23.886505
_cell_length_c 10.990895
_cell_angle_alpha 90.000000
_cell_angle_beta 90.000000
_cell_angle_gamma 90.000000
_cell_volume 3520.892697
_symmetry_space_group_name_H-M "C C C A"
_symmetry_group_IT_number 68
_space_group.IT_coordinate_system_code '2'
_symmetry_cell_setting 'orthorhombic'
loop_
_space_group_symop_operation_xyz
x,y,z
-x,1/2-y,z
x,1/2-y,1/2-z
-x,y,1/2-z
-x,-y,-z
x,1/2+y,-z
-x,1/2+y,1/2+z
x,-y,1/2+z
1/2+x,1/2+y,z
1/2-x,-y,z
1/2+x,-y,1/2-z
1/2-x,1/2+y,1/2-z
1/2-x,1/2-y,-z
1/2+x,y,-z
1/2-x,y,1/2+z
1/2+x,1/2-y,1/2+z
loop_
_atom_site_type_symbol
_atom_site_label
_atom_site_fract_x
_atom_site_fract_y
_atom_site_fract_z
Si Si1 0.727626 0.689242 0.214357
Si Si2 0.565724 0.997671 0.624944
Si Si3 0.065357 0.805935 0.500646
Si Si4 0.920785 0.880271 0.638832
Si Si5 0.614200 0.619436 0.791351
O O1 0.767361 0.750000 0.250000
O O2 0.646968 0.800972 0.392850
O O3 0.663047 0.663102 0.323889
O O4 0.808715 0.640385 0.188220
O O5 0.500000 0.999137 0.750000
O O6 0.628488 0.940728 0.643474
O O7 0.500000 0.000000 0.500000
O O8 0.620349 0.057475 0.621207
O O9 0.121679 0.829377 0.384799
O O10 0.000000 0.750000 0.485898
O O11 0.986937 0.855351 0.531718
O O12 0.000000 0.882326 0.750000
O O13 0.500000 0.619234 0.750000
#
# Coordination Sequence:
#
# PCOD9507409 Si02
#       5
#    16  16  16  16  16
#     4  11  24  41  65 101 137 176 238 288 348 432
#     4  10  20  42  70  97 131 182 235 289 354 422
#     4  11  22  41  70  97 132 184 230 288 358 432
#     4   9  19  38  69  94 126 177 235 284 338 421
#     4  11  27  43  64 100 140 179 228 297 361 422
#
# _framework density 22.721509999999999
#
# number of rings (size 3 to 8) (size 9 to 14) (size 15 to 20)
#    0.000    1.600    4.000    0.000    2.800    3.200 
#    0.000    0.000    0.000    0.000    0.000    0.000 
#    0.000    0.000    0.000    0.000    0.000    0.000 
#
# Total GULP energy -223070.031359 kJ/mol
# GULP energy per Si atom -5576.750784 kJ/mol
# Density = 2.266979 g / cm^3
# Si number density = 22.721510 Si / 1000 Ang^3
#
#
#
# Elastic Constant Matrix: (Units=GPa)
#
#
# Indices 1 2 3 4 5 6 
#
# 1 72.4780 48.9790 0.2048 0.0000 0.0000 0.0000
# 2 48.9790 219.6863 31.3378 0.0000 0.0000 0.0000
# 3 0.2048 31.3378 66.2065 0.0000 0.0000 0.0000
# 4 0.0000 0.0000 0.0000 23.3104 0.0000 0.0000
# 5 0.0000 0.0000 0.0000 0.0000 21.1985 0.0000
# 6 0.0000 0.0000 0.0000 0.0000 0.0000 24.4012
#
#
#
# Elastic Compliance Matrix: (Units=1/GPa)
#
#
# Indices 1 2 3 4 5 6 
#
# 1 0.016444 -0.003924 0.001806 0.000000 0.000000 0.000000
# 2 -0.003924 0.005818 -0.002742 0.000000 0.000000 0.000000
# 3 0.001806 -0.002742 0.016396 0.000000 0.000000 0.000000
# 4 0.000000 0.000000 0.000000 0.042899 0.000000 0.000000
# 5 0.000000 0.000000 0.000000 0.000000 0.047173 0.000000
# 6 0.000000 0.000000 0.000000 0.000000 0.000000 0.040982
#
#
# Mechanical properties :
#
#
# Convention : Reuss Voigt Hill
#
# Bulk Modulus (GPa) = 34.55436 57.71267 46.13352
# Shear Modulus (GPa) = 26.44429 32.30532 29.37480
#
# Velocity S-wave (km/s) = 3.41522 3.77476 3.59948
# Velocity P-wave (km/s) = 5.54909 6.66735 6.13376
#
# Compressibility (1/GPa) = 0.02893991
#
# Stress axis : x y z
#
# Youngs Moduli (GPa) = 60.81312 171.88472 60.98911
#
# Poissons Ratio (x) = 0.67445 -0.11017
# Poissons Ratio (y) = 0.23862 0.16721
# Poissons Ratio (z) = -0.10985 0.47125
#
# Static dielectric constant tensor:
#      x y z
#    x 1.900470 0.000000 0.000000 
#    y 0.000000 1.878350 0.000000 
#    z 0.000000 0.000000 1.483350 
# 
# From -- ./inp_files/13217.got.cif
#   From: 2010.05.17/outbox.cif.g08.bks.cpg/sg68_7_cif.got.tgz:13217.got - 2010.06.03 18:57:09.
