data_PCOD9507567
_publ_section_title
;
Structure prediction by ZEFSAII (Michael W. Deem and Ramdas Pophale) SiO2 
 PCOD9507567
Probable space group: C C C A
;
_chemical_formula_sum "Si O2"
_cell_formula_units_Z 80
_cell_length_a 8.983511
_cell_length_b 15.499246
_cell_length_c 28.790402
_cell_angle_alpha 90.000000
_cell_angle_beta 90.000000
_cell_angle_gamma 90.000000
_cell_volume 4008.707829
_symmetry_space_group_name_H-M "C C C A"
_symmetry_group_IT_number 68
_space_group.IT_coordinate_system_code '2'
_symmetry_cell_setting 'orthorhombic'
loop_
_space_group_symop_operation_xyz
x,y,z
-x,1/2-y,z
x,1/2-y,1/2-z
-x,y,1/2-z
-x,-y,-z
x,1/2+y,-z
-x,1/2+y,1/2+z
x,-y,1/2+z
1/2+x,1/2+y,z
1/2-x,-y,z
1/2+x,-y,1/2-z
1/2-x,1/2+y,1/2-z
1/2-x,1/2-y,-z
1/2+x,y,-z
1/2-x,y,1/2+z
1/2+x,1/2-y,1/2+z
loop_
_atom_site_type_symbol
_atom_site_label
_atom_site_fract_x
_atom_site_fract_y
_atom_site_fract_z
Si Si1 0.193233 0.407002 0.464370
Si Si2 0.822612 0.095050 0.136545
Si Si3 0.678475 0.591553 0.144489
Si Si4 0.891841 0.667049 0.961616
Si Si5 0.675590 0.254485 0.305448
O O1 0.250000 0.500000 0.478237
O O2 0.221217 0.394003 0.409642
O O3 0.278988 0.338393 0.495850
O O4 0.017467 0.404375 0.471071
O O5 0.811989 0.142735 0.086444
O O6 0.744674 0.157987 0.173535
O O7 0.999243 0.087497 0.146805
O O8 0.750000 0.000000 0.135058
O O9 0.750000 0.500000 0.158963
O O10 0.740781 0.672148 0.172856
O O11 0.000000 0.750000 0.956095
O O12 0.500000 0.250000 0.316904
O O13 0.691534 0.250000 0.250000
#
# Coordination Sequence:
#
# PCOD9507567 Si02
#       5
#    16  16  16  16  16
#     4  10  21  36  56  85 120 160 202 248 300 359
#     4  11  23  41  64  91 124 165 207 253 306 365
#     4  10  22  41  64  93 126 162 207 254 308 369
#     4  11  22  37  57  87 123 161 208 252 300 357
#     4  11  25  44  66  93 122 155 200 254 314 377
#
# _framework density 19.956554000000001
#
# number of rings (size 3 to 8) (size 9 to 14) (size 15 to 20)
#    0.000    1.400    0.000    6.000    0.000    8.000 
#    0.000    0.000    0.000    0.000    0.000    0.000 
#    0.000    0.000    0.000    0.000    0.000    0.000 
#
# Total GULP energy -223488.379867 kJ/mol
# GULP energy per Si atom -5587.209497 kJ/mol
# Density = 1.991113 g / cm^3
# Si number density = 19.956554 Si / 1000 Ang^3
#
#
#
# Elastic Constant Matrix: (Units=GPa)
#
#
# Indices 1 2 3 4 5 6 
#
# 1 87.3667 55.5568 59.1832 0.0000 0.0000 0.0000
# 2 55.5568 148.2908 71.3029 0.0000 0.0000 0.0000
# 3 59.1832 71.3029 77.6711 0.0000 0.0000 0.0000
# 4 0.0000 0.0000 0.0000 29.1212 0.0000 0.0000
# 5 0.0000 0.0000 0.0000 0.0000 16.4945 0.0000
# 6 0.0000 0.0000 0.0000 0.0000 0.0000 38.4629
#
#
#
# Elastic Compliance Matrix: (Units=1/GPa)
#
#
# Indices 1 2 3 4 5 6 
#
# 1 0.023667 -0.000350 -0.017712 0.000000 0.000000 0.000000
# 2 -0.000350 0.012078 -0.010820 0.000000 0.000000 0.000000
# 3 -0.017712 -0.010820 0.036304 0.000000 0.000000 0.000000
# 4 0.000000 0.000000 0.000000 0.034339 0.000000 0.000000
# 5 0.000000 0.000000 0.000000 0.000000 0.060626 0.000000
# 6 0.000000 0.000000 0.000000 0.000000 0.000000 0.025999
#
#
# Mechanical properties :
#
#
# Convention : Reuss Voigt Hill
#
# Bulk Modulus (GPa) = 70.01212 76.15714 73.08463
# Shear Modulus (GPa) = 19.56643 25.30145 22.43394
#
# Velocity S-wave (km/s) = 3.13461 3.56452 3.35646
# Velocity P-wave (km/s) = 6.94691 7.42869 7.19183
#
# Compressibility (1/GPa) = 0.01428324
#
# Stress axis : x y z
#
# Youngs Moduli (GPa) = 42.25269 82.79846 27.54509
#
# Poissons Ratio (x) = 0.02900 0.48788
# Poissons Ratio (y) = 0.01480 0.29805
# Poissons Ratio (z) = 0.74838 0.89591
#
# Static dielectric constant tensor:
#      x y z
#    x 1.692210 0.000000 0.000000 
#    y 0.000000 1.756850 0.000000 
#    z 0.000000 0.000000 1.692390 
# 
# From -- ./inp_files/49112.got.cif
#   From: 2010.05.17/outbox.cif.g08.bks.cpg/sg68_25_cif.got.tgz:49112.got - 2010.06.03 18:57:09.
