data_PCOD9507729
_publ_section_title
;
Structure prediction by ZEFSAII (Michael W. Deem and Ramdas Pophale) SiO2 
 PCOD9507729
Probable space group: C C C A
;
_chemical_formula_sum "Si O2"
_cell_formula_units_Z 88
_cell_length_a 10.409897
_cell_length_b 11.816696
_cell_length_c 30.997847
_cell_angle_alpha 90.000000
_cell_angle_beta 90.000000
_cell_angle_gamma 90.000000
_cell_volume 3813.063394
_symmetry_space_group_name_H-M "C C C A"
_symmetry_group_IT_number 68
_space_group.IT_coordinate_system_code '2'
_symmetry_cell_setting 'orthorhombic'
loop_
_space_group_symop_operation_xyz
x,y,z
-x,1/2-y,z
x,1/2-y,1/2-z
-x,y,1/2-z
-x,-y,-z
x,1/2+y,-z
-x,1/2+y,1/2+z
x,-y,1/2+z
1/2+x,1/2+y,z
1/2-x,-y,z
1/2+x,-y,1/2-z
1/2-x,1/2+y,1/2-z
1/2-x,1/2-y,-z
1/2+x,y,-z
1/2-x,y,1/2+z
1/2+x,1/2-y,1/2+z
loop_
_atom_site_type_symbol
_atom_site_label
_atom_site_fract_x
_atom_site_fract_y
_atom_site_fract_z
Si Si1 0.287995 0.380608 0.161928
Si Si2 0.750000 0.000000 0.994139
Si Si3 0.599196 0.587835 0.575933
Si Si4 0.822760 0.824851 0.792210
Si Si5 0.191337 0.832634 0.434490
Si Si6 0.927089 0.947837 0.323050
O O1 0.250000 0.500000 0.182203
O O2 0.202181 0.275094 0.174398
O O3 0.264702 0.382399 0.110957
O O4 0.439044 0.378273 0.174995
O O5 0.866506 0.996819 0.960252
O O6 0.758784 0.108028 0.025387
O O7 0.456942 0.629122 0.565562
O O8 0.690022 0.697302 0.568772
O O9 0.610126 0.550161 0.625836
O O10 0.848262 0.750000 0.750000
O O11 0.682365 0.886529 0.794492
O O12 0.923768 0.922847 0.805231
#
# Coordination Sequence:
#
# PCOD9507729 Si02
#       6
#    16   8  16  16  16  16
#     4  11  23  42  67  93 135 175 212 276 336 394
#     4  12  20  34  60  92 124 164 216 278 324 380
#     4  10  21  38  61  85 126 172 214 265 323 397
#     4  11  24  43  70 101 126 163 224 275 332 406
#     4  10  21  38  57  89 125 165 218 266 323 389
#     4  10  23  45  69  96 128 180 225 262 338 413
#
# _framework density 23.078557
#
# number of rings (size 3 to 8) (size 9 to 14) (size 15 to 20)
#    0.000    1.455    2.727    2.727    2.545    2.182 
#    0.000    0.909    0.000    0.000    0.000    0.000 
#    0.000    0.000    0.000    0.000    0.000    0.000 
#
# Total GULP energy -245387.722820 kJ/mol
# GULP energy per Si atom -5576.993700 kJ/mol
# Density = 2.302603 g / cm^3
# Si number density = 23.078557 Si / 1000 Ang^3
#
#
#
# Elastic Constant Matrix: (Units=GPa)
#
#
# Indices 1 2 3 4 5 6 
#
# 1 18.2769 1.1777 22.2943 0.0000 0.0000 0.0000
# 2 1.1777 109.0705 42.7742 0.0000 0.0000 0.0000
# 3 22.2943 42.7742 123.3065 0.0000 0.0000 0.0000
# 4 0.0000 0.0000 0.0000 68.7404 0.0000 0.0000
# 5 0.0000 0.0000 0.0000 0.0000 144.3794 0.0000
# 6 0.0000 0.0000 0.0000 0.0000 0.0000 28.5849
#
#
#
# Elastic Compliance Matrix: (Units=1/GPa)
#
#
# Indices 1 2 3 4 5 6 
#
# 1 0.072517 0.005045 -0.014862 0.000000 0.000000 0.000000
# 2 0.005045 0.010963 -0.004715 0.000000 0.000000 0.000000
# 3 -0.014862 -0.004715 0.012433 0.000000 0.000000 0.000000
# 4 0.000000 0.000000 0.000000 0.014547 0.000000 0.000000
# 5 0.000000 0.000000 0.000000 0.000000 0.006926 0.000000
# 6 0.000000 0.000000 0.000000 0.000000 0.000000 0.034984
#
#
# Mechanical properties :
#
#
# Convention : Reuss Voigt Hill
#
# Bulk Modulus (GPa) = 14.95896 42.57180 28.76538
# Shear Modulus (GPa) = 24.54400 60.63481 42.58940
#
# Velocity S-wave (km/s) = 3.26467 5.13130 4.30048
# Velocity P-wave (km/s) = 4.55045 7.32076 6.09508
#
# Compressibility (1/GPa) = 0.06684957
#
# Stress axis : x y z
#
# Youngs Moduli (GPa) = 13.78989 91.21532 80.43394
#
# Poissons Ratio (x) = -0.46020 1.19537
# Poissons Ratio (y) = -0.06957 0.37926
# Poissons Ratio (z) = 0.20494 0.43010
#
# Static dielectric constant tensor:
#      x y z
#    x 2.025380 0.000000 0.000000 
#    y 0.000000 1.941920 0.000000 
#    z 0.000000 0.000000 1.890770 
# 
# From -- ./inp_files/54620.got.cif
#   From: 2010.05.17/outbox.cif.g08.bks.cpg/sg68_28_cif.got.tgz:54620.got - 2010.06.03 18:57:09.
