data_PCOD9507701
_publ_section_title
;
Structure prediction by ZEFSAII (Michael W. Deem and Ramdas Pophale) SiO2 
 PCOD9507701
Probable space group: C C C A
;
_chemical_formula_sum "Si O2"
_cell_formula_units_Z 104
_cell_length_a 18.185836
_cell_length_b 21.077548
_cell_length_c 13.745081
_cell_angle_alpha 90.000000
_cell_angle_beta 90.000000
_cell_angle_gamma 90.000000
_cell_volume 5268.665913
_symmetry_space_group_name_H-M "C C C A"
_symmetry_group_IT_number 68
_space_group.IT_coordinate_system_code '2'
_symmetry_cell_setting 'orthorhombic'
loop_
_space_group_symop_operation_xyz
x,y,z
-x,1/2-y,z
x,1/2-y,1/2-z
-x,y,1/2-z
-x,-y,-z
x,1/2+y,-z
-x,1/2+y,1/2+z
x,-y,1/2+z
1/2+x,1/2+y,z
1/2-x,-y,z
1/2+x,-y,1/2-z
1/2-x,1/2+y,1/2-z
1/2-x,1/2-y,-z
1/2+x,y,-z
1/2-x,y,1/2+z
1/2+x,1/2-y,1/2+z
loop_
_atom_site_type_symbol
_atom_site_label
_atom_site_fract_x
_atom_site_fract_y
_atom_site_fract_z
Si Si1 0.162274 0.997976 0.410477
Si Si2 0.215713 0.194249 0.564906
Si Si3 0.957198 0.815520 0.086010
Si Si4 0.136213 0.250000 0.750000
Si Si5 0.905147 0.599187 0.053031
Si Si6 0.162480 0.997197 0.683266
Si Si7 0.142917 0.386204 0.457271
O O1 0.143108 0.927267 0.443672
O O2 0.250000 0.000000 0.434881
O O3 0.110570 0.046634 0.469740
O O4 0.153642 0.010133 0.297452
O O5 0.250000 0.250000 0.500000
O O6 0.187583 0.218144 0.668995
O O7 0.144697 0.158956 0.521859
O O8 0.278610 0.141579 0.571157
O O9 0.912614 0.800500 0.186840
O O10 0.000000 0.750000 0.072683
O O11 0.015795 0.873123 0.081818
O O12 0.907378 0.828153 0.990718
O O13 0.872015 0.562720 0.146078
O O14 0.125854 0.938394 0.625135
O O15 0.250000 0.000000 0.661585
#
# Coordination Sequence:
#
# PCOD9507701 Si02
#       7
#    16  16  16   8  16  16  16
#     4  10  21  38  67  97 127 173 222 277 339 387
#     4  12  23  40  65  96 130 170 225 273 326 391
#     4  12  26  42  63  95 140 174 216 270 338 394
#     4  12  27  40  68 104 129 182 224 276 335 394
#     4  11  22  41  63  94 136 169 215 277 334 398
#     4  10  21  37  66  99 127 172 226 282 330 393
#     4  11  22  42  64  94 132 171 219 283 333 392
#
# _framework density 19.739342000000001
#
# number of rings (size 3 to 8) (size 9 to 14) (size 15 to 20)
#    0.000    0.923    6.154    1.154    2.154    3.692 
#    0.000    2.308    0.000    0.923    0.000    0.000 
#    0.000    0.000    0.000    0.000    0.000    0.000 
#
# Total GULP energy -289890.967398 kJ/mol
# GULP energy per Si atom -5574.826296 kJ/mol
# Density = 1.969441 g / cm^3
# Si number density = 19.739342 Si / 1000 Ang^3
#
#
#
# Elastic Constant Matrix: (Units=GPa)
#
#
# Indices 1 2 3 4 5 6 
#
# 1 102.6055 39.6400 48.6601 0.0000 0.0000 0.0000
# 2 39.6400 88.3084 48.7747 0.0000 0.0000 0.0000
# 3 48.6601 48.7747 129.9666 0.0000 0.0000 0.0000
# 4 0.0000 0.0000 0.0000 24.4110 0.0000 0.0000
# 5 0.0000 0.0000 0.0000 0.0000 0.5275 0.0000
# 6 0.0000 0.0000 0.0000 0.0000 0.0000 40.8819
#
#
#
# Elastic Compliance Matrix: (Units=1/GPa)
#
#
# Indices 1 2 3 4 5 6 
#
# 1 0.012844 -0.003922 -0.003337 0.000000 0.000000 0.000000
# 2 -0.003922 0.015483 -0.004342 0.000000 0.000000 0.000000
# 3 -0.003337 -0.004342 0.010573 0.000000 0.000000 0.000000
# 4 0.000000 0.000000 0.000000 0.040965 0.000000 0.000000
# 5 0.000000 0.000000 0.000000 0.000000 1.895837 0.000000
# 6 0.000000 0.000000 0.000000 0.000000 0.000000 0.024461
#
#
# Mechanical properties :
#
#
# Convention : Reuss Voigt Hill
#
# Bulk Modulus (GPa) = 63.70434 66.11445 64.90939
# Shear Modulus (GPa) = 2.46476 25.41780 13.94128
#
# Velocity S-wave (km/s) = 1.11864 3.59231 2.66045
# Velocity P-wave (km/s) = 5.83192 7.12550 6.51091
#
# Compressibility (1/GPa) = 0.01569752
#
# Stress axis : x y z
#
# Youngs Moduli (GPa) = 77.85816 64.58791 94.58005
#
# Poissons Ratio (x) = 0.25334 0.31559
# Poissons Ratio (y) = 0.30539 0.41066
# Poissons Ratio (z) = 0.25980 0.28044
#
# Static dielectric constant tensor:
#      x y z
#    x 1.777000 0.000000 0.000000 
#    y 0.000000 1.827030 0.000000 
#    z 0.000000 0.000000 1.691590 
# 
# From -- ./inp_files/23790.got.cif
#   From: 2010.05.17/outbox.cif.g08.bks.cpg/sg68_12_cif.got.tgz:23790.got - 2010.06.03 18:57:09.
