data_PCOD9507537
_publ_section_title
;
Structure prediction by ZEFSAII (Michael W. Deem and Ramdas Pophale) SiO2 
 PCOD9507537
Probable space group: C C C A
;
_chemical_formula_sum "Si O2"
_cell_formula_units_Z 68
_cell_length_a 10.028319
_cell_length_b 13.727742
_cell_length_c 19.379435
_cell_angle_alpha 90.000000
_cell_angle_beta 90.000000
_cell_angle_gamma 90.000000
_cell_volume 2667.892708
_symmetry_space_group_name_H-M "C C C A"
_symmetry_group_IT_number 68
_space_group.IT_coordinate_system_code '2'
_symmetry_cell_setting 'orthorhombic'
loop_
_space_group_symop_operation_xyz
x,y,z
-x,1/2-y,z
x,1/2-y,1/2-z
-x,y,1/2-z
-x,-y,-z
x,1/2+y,-z
-x,1/2+y,1/2+z
x,-y,1/2+z
1/2+x,1/2+y,z
1/2-x,-y,z
1/2+x,-y,1/2-z
1/2-x,1/2+y,1/2-z
1/2-x,1/2-y,-z
1/2+x,y,-z
1/2-x,y,1/2+z
1/2+x,1/2-y,1/2+z
loop_
_atom_site_type_symbol
_atom_site_label
_atom_site_fract_x
_atom_site_fract_y
_atom_site_fract_z
Si Si1 0.227277 0.219816 0.843412
Si Si2 0.094672 0.529870 0.897642
Si Si3 0.000000 0.750000 0.250000
Si Si4 0.828389 0.096422 0.266350
Si Si5 0.857276 0.590127 0.460667
O O1 0.340581 0.163849 0.800599
O O2 0.249875 0.331240 0.821492
O O3 0.205943 0.180910 0.919843
O O4 0.093715 0.190345 0.801260
O O5 0.250000 0.500000 0.895357
O O6 0.060835 0.557934 0.819392
O O7 0.991087 0.448621 0.923337
O O8 0.097704 0.608074 0.960321
O O9 0.750000 0.000000 0.244131
O O10 0.750000 0.500000 0.458329
#
# Coordination Sequence:
#
# PCOD9507537 Si02
#       5
#    16  16   4  16  16
#     4  10  21  35  60  93 125 161 211 264 309 383
#     4   9  20  38  63  88 124 166 209 258 312 369
#     4   8  20  32  52  92 118 150 216 258 286 368
#     4   9  19  37  57  89 121 158 207 262 312 359
#     4  10  21  39  61  92 127 165 207 254 313 383
#
# _framework density 25.488282000000002
#
# number of rings (size 3 to 8) (size 9 to 14) (size 15 to 20)
#    0.000    2.824    0.000    0.706   13.176    0.941 
#    0.000    1.176    0.000    8.471    0.000    0.000 
#    0.000    0.000    0.000    0.000    0.000    0.000 
#
# Total GULP energy -189382.155415 kJ/mol
# GULP energy per Si atom -5570.063395 kJ/mol
# Density = 2.543027 g / cm^3
# Si number density = 25.488282 Si / 1000 Ang^3
#
#
#
# Elastic Constant Matrix: (Units=GPa)
#
#
# Indices 1 2 3 4 5 6 
#
# 1 91.3021 -9.5320 -38.4434 0.0000 0.0000 0.0000
# 2 -9.5320 100.2770 -4.7100 0.0000 0.0000 0.0000
# 3 -38.4434 -4.7100 97.5579 0.0000 0.0000 0.0000
# 4 0.0000 0.0000 0.0000 28.3283 0.0000 0.0000
# 5 0.0000 0.0000 0.0000 0.0000 19.9312 0.0000
# 6 0.0000 0.0000 0.0000 0.0000 0.0000 27.3984
#
#
#
# Elastic Compliance Matrix: (Units=1/GPa)
#
#
# Indices 1 2 3 4 5 6 
#
# 1 0.013359 0.001521 0.005338 0.000000 0.000000 0.000000
# 2 0.001521 0.010168 0.001090 0.000000 0.000000 0.000000
# 3 0.005338 0.001090 0.012406 0.000000 0.000000 0.000000
# 4 0.000000 0.000000 0.000000 0.035300 0.000000 0.000000
# 5 0.000000 0.000000 0.000000 0.000000 0.050173 0.000000
# 6 0.000000 0.000000 0.000000 0.000000 0.000000 0.036498
#
#
# Mechanical properties :
#
#
# Convention : Reuss Voigt Hill
#
# Bulk Modulus (GPa) = 19.29404 20.41849 19.85626
# Shear Modulus (GPa) = 31.39032 37.91974 34.65503
#
# Velocity S-wave (km/s) = 3.51316 3.86130 3.69134
# Velocity P-wave (km/s) = 4.90333 5.28279 5.09659
#
# Compressibility (1/GPa) = 0.05182949
#
# Stress axis : x y z
#
# Youngs Moduli (GPa) = 74.85703 98.34669 80.60457
#
# Poissons Ratio (x) = -0.14954 -0.43023
# Poissons Ratio (y) = -0.11382 -0.08787
# Poissons Ratio (z) = -0.39955 -0.10721
#
# Static dielectric constant tensor:
#      x y z
#    x 2.300840 0.000000 0.000000 
#    y 0.000000 2.061320 0.000000 
#    z 0.000000 0.000000 2.194220 
# 
# From -- ./inp_files/37215.got.cif
#   From: 2010.05.17/outbox.cif.g08.bks.cpg/sg68_19_cif.got.tgz:37215.got - 2010.06.03 18:57:09.
