data_PCOD9507177
_publ_section_title
;
Structure prediction by ZEFSAII (Michael W. Deem and Ramdas Pophale) SiO2 
 PCOD9507177
Probable space group: C C C A
;
_chemical_formula_sum "Si O2"
_cell_formula_units_Z 80
_cell_length_a 11.815038
_cell_length_b 10.330819
_cell_length_c 28.168858
_cell_angle_alpha 90.000000
_cell_angle_beta 90.000000
_cell_angle_gamma 90.000000
_cell_volume 3438.263175
_symmetry_space_group_name_H-M "C C C A"
_symmetry_group_IT_number 68
_space_group.IT_coordinate_system_code '2'
_symmetry_cell_setting 'orthorhombic'
loop_
_space_group_symop_operation_xyz
x,y,z
-x,1/2-y,z
x,1/2-y,1/2-z
-x,y,1/2-z
-x,-y,-z
x,1/2+y,-z
-x,1/2+y,1/2+z
x,-y,1/2+z
1/2+x,1/2+y,z
1/2-x,-y,z
1/2+x,-y,1/2-z
1/2-x,1/2+y,1/2-z
1/2-x,1/2-y,-z
1/2+x,y,-z
1/2-x,y,1/2+z
1/2+x,1/2-y,1/2+z
loop_
_atom_site_type_symbol
_atom_site_label
_atom_site_fract_x
_atom_site_fract_y
_atom_site_fract_z
Si Si1 0.500000 0.458663 0.750000
Si Si2 0.500000 0.750000 0.167627
Si Si3 0.692791 0.871056 0.723991
Si Si4 0.500000 0.250000 0.503652
Si Si5 0.166247 0.303594 0.416755
Si Si6 0.411647 0.098094 0.077745
Si Si7 0.000000 0.750000 0.160459
O O1 0.511531 0.370750 0.796629
O O2 0.392332 0.550925 0.758950
O O3 0.609156 0.743414 0.132505
O O4 0.757603 0.750000 0.750000
O O5 0.608127 0.795543 0.689808
O O6 0.750000 0.000000 0.701792
O O7 0.393555 0.264030 0.538685
O O8 0.490391 0.368177 0.466771
O O9 0.301122 0.308064 0.421052
O O10 0.127429 0.452023 0.422235
O O11 0.473893 0.130384 0.126187
#
# Coordination Sequence:
#
# PCOD9507177 Si02
#       7
#     8   8  16   8  16  16   8
#     4  11  23  46  66  96 146 180 242 302 358 424
#     4  10  24  38  66 103 133 182 242 302 350 432
#     4  12  27  47  72 101 140 192 240 303 368 427
#     4  10  20  39  63  93 129 169 231 284 350 428
#     4  10  21  39  63  95 132 172 232 284 352 426
#     4  10  22  38  65  91 133 180 216 285 360 421
#     4  11  23  47  65  99 145 177 235 291 355 426
#
# _framework density 23.267562000000002
#
# number of rings (size 3 to 8) (size 9 to 14) (size 15 to 20)
#    0.000    1.400    2.000    2.400    5.600    0.000 
#    0.000    0.000    8.800    0.000    0.000    0.000 
#    0.000    0.000    0.000    0.000    0.000    0.000 
#
# Total GULP energy -223302.898767 kJ/mol
# GULP energy per Si atom -5582.572469 kJ/mol
# Density = 2.321460 g / cm^3
# Si number density = 23.267562 Si / 1000 Ang^3
#
#
#
# Elastic Constant Matrix: (Units=GPa)
#
#
# Indices 1 2 3 4 5 6 
#
# 1 42.0425 0.9228 17.0351 0.0000 0.0000 0.0000
# 2 0.9228 100.3115 45.1016 0.0000 0.0000 0.0000
# 3 17.0351 45.1016 139.3565 0.0000 0.0000 0.0000
# 4 0.0000 0.0000 0.0000 25.0167 0.0000 0.0000
# 5 0.0000 0.0000 0.0000 0.0000 11.5792 0.0000
# 6 0.0000 0.0000 0.0000 0.0000 0.0000 41.8149
#
#
#
# Elastic Compliance Matrix: (Units=1/GPa)
#
#
# Indices 1 2 3 4 5 6 
#
# 1 0.025180 0.001349 -0.003514 0.000000 0.000000 0.000000
# 2 0.001349 0.011739 -0.003964 0.000000 0.000000 0.000000
# 3 -0.003514 -0.003964 0.008888 0.000000 0.000000 0.000000
# 4 0.000000 0.000000 0.000000 0.039973 0.000000 0.000000
# 5 0.000000 0.000000 0.000000 0.000000 0.086361 0.000000
# 6 0.000000 0.000000 0.000000 0.000000 0.000000 0.023915
#
#
# Mechanical properties :
#
#
# Convention : Reuss Voigt Hill
#
# Bulk Modulus (GPa) = 29.80879 45.31438 37.56159
# Shear Modulus (GPa) = 22.77914 30.25889 26.51902
#
# Velocity S-wave (km/s) = 3.13231 3.61012 3.37967
# Velocity P-wave (km/s) = 5.09126 6.07412 5.60428
#
# Compressibility (1/GPa) = 0.03354715
#
# Stress axis : x y z
#
# Youngs Moduli (GPa) = 39.71424 85.18736 112.50647
#
# Poissons Ratio (x) = -0.11488 0.39540
# Poissons Ratio (y) = -0.05356 0.44598
# Poissons Ratio (z) = 0.13957 0.33768
#
# Static dielectric constant tensor:
#      x y z
#    x 1.905190 0.000000 0.000000 
#    y 0.000000 1.888620 0.000000 
#    z 0.000000 0.000000 1.852410 
# 
# From -- ./inp_files/54557.got.cif
#   From: 2010.05.17/outbox.cif.g08.bks.cpg/sg68_28_cif.got.tgz:54557.got - 2010.06.03 18:57:09.
