data_PCOD9507346
_publ_section_title
;
Structure prediction by ZEFSAII (Michael W. Deem and Ramdas Pophale) SiO2 
 PCOD9507346
Probable space group: C C C A
;
_chemical_formula_sum "Si O2"
_cell_formula_units_Z 116
_cell_length_a 14.138512
_cell_length_b 23.052605
_cell_length_c 18.161181
_cell_angle_alpha 90.000000
_cell_angle_beta 90.000000
_cell_angle_gamma 90.000000
_cell_volume 5919.265232
_symmetry_space_group_name_H-M "C C C A"
_symmetry_group_IT_number 68
_space_group.IT_coordinate_system_code '2'
_symmetry_cell_setting 'orthorhombic'
loop_
_space_group_symop_operation_xyz
x,y,z
-x,1/2-y,z
x,1/2-y,1/2-z
-x,y,1/2-z
-x,-y,-z
x,1/2+y,-z
-x,1/2+y,1/2+z
x,-y,1/2+z
1/2+x,1/2+y,z
1/2-x,-y,z
1/2+x,-y,1/2-z
1/2-x,1/2+y,1/2-z
1/2-x,1/2-y,-z
1/2+x,y,-z
1/2-x,y,1/2+z
1/2+x,1/2-y,1/2+z
loop_
_atom_site_type_symbol
_atom_site_label
_atom_site_fract_x
_atom_site_fract_y
_atom_site_fract_z
Si Si1 0.334245 0.834954 0.266143
Si Si2 0.717719 0.668098 0.625310
Si Si3 0.666138 0.046456 0.653913
Si Si4 0.483352 0.868977 0.669348
Si Si5 0.000000 0.750000 0.750000
Si Si6 0.162915 0.297503 0.628170
Si Si7 0.552331 0.033590 0.063553
Si Si8 0.270261 0.604467 0.521416
O O1 0.307100 0.829138 0.180196
O O2 0.346648 0.902452 0.287425
O O3 0.424879 0.795263 0.286581
O O4 0.242106 0.812220 0.310286
O O5 0.625865 0.647091 0.668997
O O6 0.683971 0.732427 0.602829
O O7 0.736307 0.625076 0.557691
O O8 0.692354 0.080133 0.577906
O O9 0.750000 0.000000 0.671984
O O10 0.577020 0.008212 0.631890
O O11 0.500000 0.895299 0.750000
O O12 0.559114 0.816040 0.658376
O O13 0.501706 0.911981 0.601383
O O14 0.184522 0.339596 0.560481
O O15 0.648900 0.056029 0.025748
O O16 0.500000 0.000000 0.000000
#
# Coordination Sequence:
#
# PCOD9507346 Si02
#       8
#    16  16  16  16   4  16  16  16
#     4  11  23  40  64  89 128 170 213 262 326 397
#     4  12  21  37  63  99 126 161 215 267 313 388
#     4   9  20  42  64  83 122 171 205 258 338 382
#     4  11  23  37  65  98 126 163 221 264 326 394
#     4  12  24  44  56  94 128 180 220 256 332 402
#     4  10  20  41  62  89 129 171 195 262 330 379
#     4  10  21  42  63  85 127 171 212 273 326 376
#     4   9  21  37  63  89 124 166 215 255 319 390
#
# _framework density 19.597027000000001
#
# number of rings (size 3 to 8) (size 9 to 14) (size 15 to 20)
#    0.000    1.655    2.759    2.483    0.000    1.655 
#    3.724    3.448    0.000    0.000    0.000    0.000 
#    0.000    0.000    0.000    0.000    0.000    0.000 
#
# Total GULP energy -323256.434160 kJ/mol
# GULP energy per Si atom -5573.386796 kJ/mol
# Density = 1.955242 g / cm^3
# Si number density = 19.597027 Si / 1000 Ang^3
#
#
#
# Elastic Constant Matrix: (Units=GPa)
#
#
# Indices 1 2 3 4 5 6 
#
# 1 64.7370 15.5086 24.9625 0.0000 0.0000 0.0000
# 2 15.5086 105.3144 19.7830 0.0000 0.0000 0.0000
# 3 24.9625 19.7830 49.3038 0.0000 0.0000 0.0000
# 4 0.0000 0.0000 0.0000 20.6370 0.0000 0.0000
# 5 0.0000 0.0000 0.0000 0.0000 15.3934 0.0000
# 6 0.0000 0.0000 0.0000 0.0000 0.0000 13.0961
#
#
#
# Elastic Compliance Matrix: (Units=1/GPa)
#
#
# Indices 1 2 3 4 5 6 
#
# 1 0.019309 -0.001089 -0.009339 0.000000 0.000000 0.000000
# 2 -0.001089 0.010331 -0.003594 0.000000 0.000000 0.000000
# 3 -0.009339 -0.003594 0.026453 0.000000 0.000000 0.000000
# 4 0.000000 0.000000 0.000000 0.048457 0.000000 0.000000
# 5 0.000000 0.000000 0.000000 0.000000 0.064963 0.000000
# 6 0.000000 0.000000 0.000000 0.000000 0.000000 0.076359
#
#
# Mechanical properties :
#
#
# Convention : Reuss Voigt Hill
#
# Bulk Modulus (GPa) = 35.65242 37.76262 36.70752
# Shear Modulus (GPa) = 17.65130 20.43203 19.04166
#
# Velocity S-wave (km/s) = 3.00444 3.23245 3.12053
# Velocity P-wave (km/s) = 5.50162 5.76568 5.63520
#
# Compressibility (1/GPa) = 0.02804859
#
# Stress axis : x y z
#
# Youngs Moduli (GPa) = 51.78867 96.79742 37.80305
#
# Poissons Ratio (x) = 0.10542 0.35305
# Poissons Ratio (y) = 0.05640 0.13586
# Poissons Ratio (z) = 0.48367 0.34787
#
# Static dielectric constant tensor:
#      x y z
#    x 0.731570 0.000000 0.000000 
#    y 0.000000 1.637160 0.000000 
#    z 0.000000 0.000000 1.686150 
# 
# From -- ./inp_files/31248.got.cif
#   From: 2010.05.17/outbox.cif.g08.bks.cpg/sg68_16_cif.got.tgz:31248.got - 2010.06.03 18:57:09.
