data_PCOD9507416
_publ_section_title
;
Structure prediction by ZEFSAII (Michael W. Deem and Ramdas Pophale) SiO2 
 PCOD9507416
Probable space group: C C C A
;
_chemical_formula_sum "Si O2"
_cell_formula_units_Z 100
_cell_length_a 13.949763
_cell_length_b 23.177978
_cell_length_c 14.877855
_cell_angle_alpha 90.000000
_cell_angle_beta 90.000000
_cell_angle_gamma 90.000000
_cell_volume 4810.416686
_symmetry_space_group_name_H-M "C C C A"
_symmetry_group_IT_number 68
_space_group.IT_coordinate_system_code '2'
_symmetry_cell_setting 'orthorhombic'
loop_
_space_group_symop_operation_xyz
x,y,z
-x,1/2-y,z
x,1/2-y,1/2-z
-x,y,1/2-z
-x,-y,-z
x,1/2+y,-z
-x,1/2+y,1/2+z
x,-y,1/2+z
1/2+x,1/2+y,z
1/2-x,-y,z
1/2+x,-y,1/2-z
1/2-x,1/2+y,1/2-z
1/2-x,1/2-y,-z
1/2+x,y,-z
1/2-x,y,1/2+z
1/2+x,1/2-y,1/2+z
loop_
_atom_site_type_symbol
_atom_site_label
_atom_site_fract_x
_atom_site_fract_y
_atom_site_fract_z
Si Si1 0.455221 0.439558 0.345665
Si Si2 0.168835 0.177006 0.845259
Si Si3 0.000000 0.750000 0.894351
Si Si4 0.336871 0.750000 0.250000
Si Si5 0.500000 0.750000 0.750000
Si Si6 0.560811 0.927972 0.332622
Si Si7 0.766496 0.937676 0.246974
Si Si8 0.460718 0.853365 0.993557
O O1 0.500000 0.422245 0.250000
O O2 0.479595 0.507587 0.355170
O O3 0.342038 0.440970 0.328406
O O4 0.487665 0.393966 0.419740
O O5 0.262113 0.209270 0.804841
O O6 0.192091 0.111229 0.817274
O O7 0.135178 0.173678 0.948772
O O8 0.074503 0.208394 0.802752
O O9 0.911717 0.768477 0.829121
O O10 0.023362 0.802600 0.961738
O O11 0.500000 0.902887 0.250000
O O12 0.665745 0.925758 0.291356
O O13 0.561633 0.894001 0.423749
O O14 0.750000 0.000000 0.201344
#
# Coordination Sequence:
#
# PCOD9507416 Si02
#       8
#    16  16   8   8   4  16  16  16
#     4  10  20  43  67  99 139 176 223 293 357 423
#     4  11  22  41  70 101 132 180 236 295 352 422
#     4  11  27  46  66 100 140 184 240 286 368 436
#     4  10  26  48  70  90 142 196 230 294 372 438
#     4  10  22  42  70  98 134 182 234 300 366 398
#     4  10  24  42  67  97 141 185 227 278 358 435
#     4  10  21  40  66  98 136 179 222 279 358 435
#     4  12  24  40  69 103 131 179 238 295 347 426
#
# _framework density 20.788219000000002
#
# number of rings (size 3 to 8) (size 9 to 14) (size 15 to 20)
#    0.000    1.440    1.600    2.880    4.480    3.200 
#    0.000    0.800    0.000    0.000    0.000    0.000 
#    0.000    0.000    0.000    0.000    0.000    0.000 
#
# Total GULP energy -278499.803672 kJ/mol
# GULP energy per Si atom -5569.996073 kJ/mol
# Density = 2.074090 g / cm^3
# Si number density = 20.788219 Si / 1000 Ang^3
#
#
#
# Elastic Constant Matrix: (Units=GPa)
#
#
# Indices 1 2 3 4 5 6 
#
# 1 124.3821 35.4637 46.3609 0.0000 0.0000 0.0000
# 2 35.4637 90.0772 57.9499 0.0000 0.0000 0.0000
# 3 46.3609 57.9499 129.5566 0.0000 0.0000 0.0000
# 4 0.0000 0.0000 0.0000 47.3665 0.0000 0.0000
# 5 0.0000 0.0000 0.0000 0.0000 20.4719 0.0000
# 6 0.0000 0.0000 0.0000 0.0000 0.0000 26.0846
#
#
#
# Elastic Compliance Matrix: (Units=1/GPa)
#
#
# Indices 1 2 3 4 5 6 
#
# 1 0.009577 -0.002198 -0.002444 0.000000 0.000000 0.000000
# 2 -0.002198 0.016092 -0.006411 0.000000 0.000000 0.000000
# 3 -0.002444 -0.006411 0.011461 0.000000 0.000000 0.000000
# 4 0.000000 0.000000 0.000000 0.021112 0.000000 0.000000
# 5 0.000000 0.000000 0.000000 0.000000 0.048848 0.000000
# 6 0.000000 0.000000 0.000000 0.000000 0.000000 0.038337
#
#
# Mechanical properties :
#
#
# Convention : Reuss Voigt Hill
#
# Bulk Modulus (GPa) = 66.56376 69.28497 67.92437
# Shear Modulus (GPa) = 28.97874 32.40069 30.68971
#
# Velocity S-wave (km/s) = 3.73768 3.95220 3.84644
# Velocity P-wave (km/s) = 7.12155 7.36396 7.24377
#
# Compressibility (1/GPa) = 0.01502319
#
# Stress axis : x y z
#
# Youngs Moduli (GPa) = 104.41173 62.14459 87.25449
#
# Poissons Ratio (x) = 0.13662 0.21324
# Poissons Ratio (y) = 0.22954 0.55938
# Poissons Ratio (z) = 0.25517 0.39840
#
# Static dielectric constant tensor:
#      x y z
#    x 1.759900 0.000000 0.000000 
#    y 0.000000 1.912820 0.000000 
#    z 0.000000 0.000000 1.658980 
# 
# From -- ./inp_files/22563.got.cif
#   From: 2010.05.17/outbox.cif.g08.bks.cpg/sg68_12_cif.got.tgz:22563.got - 2010.06.03 18:57:09.
