data_PCOD9507874
_publ_section_title
;
Structure prediction by ZEFSAII (Michael W. Deem and Ramdas Pophale) SiO2 
 PCOD9507874
Probable space group: C C C A
;
_chemical_formula_sum "Si O2"
_cell_formula_units_Z 60
_cell_length_a 24.553146
_cell_length_b 4.956138
_cell_length_c 24.739036
_cell_angle_alpha 90.000000
_cell_angle_beta 90.000000
_cell_angle_gamma 90.000000
_cell_volume 3010.463107
_symmetry_space_group_name_H-M "C C C A"
_symmetry_group_IT_number 68
_space_group.IT_coordinate_system_code '2'
_symmetry_cell_setting 'orthorhombic'
loop_
_space_group_symop_operation_xyz
x,y,z
-x,1/2-y,z
x,1/2-y,1/2-z
-x,y,1/2-z
-x,-y,-z
x,1/2+y,-z
-x,1/2+y,1/2+z
x,-y,1/2+z
1/2+x,1/2+y,z
1/2-x,-y,z
1/2+x,-y,1/2-z
1/2-x,1/2+y,1/2-z
1/2-x,1/2-y,-z
1/2+x,y,-z
1/2-x,y,1/2+z
1/2+x,1/2-y,1/2+z
loop_
_atom_site_type_symbol
_atom_site_label
_atom_site_fract_x
_atom_site_fract_y
_atom_site_fract_z
Si Si1 0.601690 0.679922 0.879280
Si Si2 0.500000 0.750000 0.540049
Si Si3 0.185292 0.024342 0.464574
Si Si4 0.500000 0.250000 0.250000
Si Si5 0.442103 0.673065 0.331719
O O1 0.551997 0.710458 0.921638
O O2 0.652250 0.568129 0.912505
O O3 0.585434 0.468066 0.831791
O O4 0.603595 0.983849 0.858057
O O5 0.500000 0.500000 0.500000
O O6 0.171627 0.821290 0.514005
O O7 0.250000 0.000000 0.455382
O O8 0.465203 0.468984 0.285365
O O9 0.500000 0.750000 0.360720
#
# Coordination Sequence:
#
# PCOD9507874 Si02
#       5
#    16   8  16   4  16
#     4  12  22  36  54  85 119 152 194 244 284 346
#     4  12  21  30  48  73 116 157 184 218 283 346
#     4  10  21  39  60  83 117 162 208 247 281 330
#     4  12  24  40  62  84 122 152 190 232 308 382
#     4  12  22  38  57  82 121 147 186 240 294 367
#
# _framework density 19.930488
#
# number of rings (size 3 to 8) (size 9 to 14) (size 15 to 20)
#    0.000    0.533    5.333    5.200    0.000    0.000 
#    0.000    0.000    0.000    0.000    0.000    3.733 
#    0.000    0.000    0.000    0.000    0.000    0.000 
#
# Total GULP energy -167059.842872 kJ/mol
# GULP energy per Si atom -5568.661429 kJ/mol
# Density = 1.988513 g / cm^3
# Si number density = 19.930488 Si / 1000 Ang^3
#
#
#
# Elastic Constant Matrix: (Units=GPa)
#
#
# Indices 1 2 3 4 5 6 
#
# 1 54.9906 19.3894 21.3608 0.0000 0.0000 0.0000
# 2 19.3894 154.9763 31.0333 0.0000 0.0000 0.0000
# 3 21.3608 31.0333 60.3531 0.0000 0.0000 0.0000
# 4 0.0000 0.0000 0.0000 -7.9302 0.0000 0.0000
# 5 0.0000 0.0000 0.0000 0.0000 20.8418 0.0000
# 6 0.0000 0.0000 0.0000 0.0000 0.0000 25.1113
#
#
#
# Elastic Compliance Matrix: (Units=1/GPa)
#
#
# Indices 1 2 3 4 5 6 
#
# 1 0.021312 -0.001289 -0.006880 0.000000 0.000000 0.000000
# 2 -0.001289 0.007271 -0.003283 0.000000 0.000000 0.000000
# 3 -0.006880 -0.003283 0.020692 0.000000 0.000000 0.000000
# 4 0.000000 0.000000 0.000000 -0.126101 0.000000 0.000000
# 5 0.000000 0.000000 0.000000 0.000000 0.047980 0.000000
# 6 0.000000 0.000000 0.000000 0.000000 0.000000 0.039823
#
#
# Mechanical properties :
#
#
# Convention : Reuss Voigt Hill
#
# Bulk Modulus (GPa) = 37.91900 45.98745 41.95322
# Shear Modulus (GPa) = 117.17326 20.84035 69.00680
#
# Velocity S-wave (km/s) = 7.67584 3.23716 5.89058
# Velocity P-wave (km/s) = 9.88054 6.09067 8.20736
#
# Compressibility (1/GPa) = 0.02637200
#
# Stress axis : x y z
#
# Youngs Moduli (GPa) = 46.92207 137.52948 48.32722
#
# Poissons Ratio (x) = 0.17722 0.33251
# Poissons Ratio (y) = 0.06046 0.15864
# Poissons Ratio (z) = 0.32284 0.45147
#
# Static dielectric constant tensor:
#      x y z
#    x 1.685010 0.000000 0.000000 
#    y 0.000000 1.703440 0.000000 
#    z 0.000000 0.000000 1.672610 
# 
# From -- ./inp_files/46838.got.cif
#   From: 2010.05.17/outbox.cif.g08.bks.cpg/sg68_24_cif.got.tgz:46838.got - 2010.06.03 18:57:09.
