data_PCOD9507515
_publ_section_title
;
Structure prediction by ZEFSAII (Michael W. Deem and Ramdas Pophale) SiO2 
 PCOD9507515
Probable space group: C C C A
;
_chemical_formula_sum "Si O2"
_cell_formula_units_Z 56
_cell_length_a 5.261948
_cell_length_b 35.466738
_cell_length_c 14.124056
_cell_angle_alpha 90.000000
_cell_angle_beta 90.000000
_cell_angle_gamma 90.000000
_cell_volume 2635.889678
_symmetry_space_group_name_H-M "C C C A"
_symmetry_group_IT_number 68
_space_group.IT_coordinate_system_code '2'
_symmetry_cell_setting 'orthorhombic'
loop_
_space_group_symop_operation_xyz
x,y,z
-x,1/2-y,z
x,1/2-y,1/2-z
-x,y,1/2-z
-x,-y,-z
x,1/2+y,-z
-x,1/2+y,1/2+z
x,-y,1/2+z
1/2+x,1/2+y,z
1/2-x,-y,z
1/2+x,-y,1/2-z
1/2-x,1/2+y,1/2-z
1/2-x,1/2-y,-z
1/2+x,y,-z
1/2-x,y,1/2+z
1/2+x,1/2-y,1/2+z
loop_
_atom_site_type_symbol
_atom_site_label
_atom_site_fract_x
_atom_site_fract_y
_atom_site_fract_z
Si Si1 0.500000 0.475879 0.250000
Si Si2 0.366780 0.658841 0.940861
Si Si3 0.642645 0.430112 0.061923
Si Si4 0.252479 0.766960 0.644629
O O1 0.750000 0.500000 0.276589
O O2 0.587043 0.451868 0.158754
O O3 0.353790 0.614752 0.916259
O O4 0.284207 0.688212 0.860193
O O5 0.652801 0.665572 0.978032
O O6 0.412504 0.438471 0.988341
O O7 0.500000 0.750000 0.597340
O O8 0.251946 0.750000 0.750000
O O9 0.000000 0.750000 0.601294
#
# Coordination Sequence:
#
# PCOD9507515 Si02
#       4
#     8  16  16  16
#     4  12  26  42  68 104 133 168 213 260 326 400
#     4  10  21  38  60  84 114 157 206 254 307 368
#     4  10  23  44  67  94 130 171 214 264 319 380
#     4  10  21  35  52  80 114 151 196 244 303 358
#
# _framework density 21.245200000000001
#
# number of rings (size 3 to 8) (size 9 to 14) (size 15 to 20)
#    0.000    1.714    0.000    3.429    0.000    9.143 
#    0.000    8.571    0.000    0.000    0.000    0.000 
#    0.000    0.000    0.000    0.000    0.000    0.000 
#
# Total GULP energy -156288.654377 kJ/mol
# GULP energy per Si atom -5581.737656 kJ/mol
# Density = 2.119685 g / cm^3
# Si number density = 21.245200 Si / 1000 Ang^3
#
#
#
# Elastic Constant Matrix: (Units=GPa)
#
#
# Indices 1 2 3 4 5 6 
#
# 1 177.4133 41.6229 19.2042 0.0000 0.0000 0.0000
# 2 41.6229 105.1049 64.9222 0.0000 0.0000 0.0000
# 3 19.2042 64.9222 119.7893 0.0000 0.0000 0.0000
# 4 0.0000 0.0000 0.0000 31.9576 0.0000 0.0000
# 5 0.0000 0.0000 0.0000 0.0000 5.6839 0.0000
# 6 0.0000 0.0000 0.0000 0.0000 0.0000 29.4080
#
#
#
# Elastic Compliance Matrix: (Units=1/GPa)
#
#
# Indices 1 2 3 4 5 6 
#
# 1 0.006234 -0.002783 0.000509 0.000000 0.000000 0.000000
# 2 -0.002783 0.015545 -0.007979 0.000000 0.000000 0.000000
# 3 0.000509 -0.007979 0.012591 0.000000 0.000000 0.000000
# 4 0.000000 0.000000 0.000000 0.031291 0.000000 0.000000
# 5 0.000000 0.000000 0.000000 0.000000 0.175935 0.000000
# 6 0.000000 0.000000 0.000000 0.000000 0.000000 0.034004
#
#
# Mechanical properties :
#
#
# Convention : Reuss Voigt Hill
#
# Bulk Modulus (GPa) = 72.12950 72.64511 72.38731
# Shear Modulus (GPa) = 16.62633 31.84712 24.23673
#
# Velocity S-wave (km/s) = 2.80052 3.87593 3.38125
# Velocity P-wave (km/s) = 6.66947 7.36874 7.02781
#
# Compressibility (1/GPa) = 0.01386395
#
# Stress axis : x y z
#
# Youngs Moduli (GPa) = 160.39895 64.32995 79.42455
#
# Poissons Ratio (x) = 0.17905 -0.04043
# Poissons Ratio (y) = 0.44644 0.63370
# Poissons Ratio (z) = -0.08164 0.51326
#
# Static dielectric constant tensor:
#      x y z
#    x 1.759090 0.000000 0.000000 
#    y 0.000000 1.787810 0.000000 
#    z 0.000000 0.000000 1.723450 
# 
# From -- ./inp_files/18322.got.cif
#   From: 2010.05.17/outbox.cif.g08.bks.cpg/sg68_10_cif.got.tgz:18322.got - 2010.06.03 18:57:09.
