data_PCOD9507363
_publ_section_title
;
Structure prediction by ZEFSAII (Michael W. Deem and Ramdas Pophale) SiO2 
 PCOD9507363
Probable space group: C C C A
;
_chemical_formula_sum "Si O2"
_cell_formula_units_Z 64
_cell_length_a 16.289927
_cell_length_b 10.505849
_cell_length_c 16.592214
_cell_angle_alpha 90.000000
_cell_angle_beta 90.000000
_cell_angle_gamma 90.000000
_cell_volume 2839.583428
_symmetry_space_group_name_H-M "C C C A"
_symmetry_group_IT_number 68
_space_group.IT_coordinate_system_code '2'
_symmetry_cell_setting 'orthorhombic'
loop_
_space_group_symop_operation_xyz
x,y,z
-x,1/2-y,z
x,1/2-y,1/2-z
-x,y,1/2-z
-x,-y,-z
x,1/2+y,-z
-x,1/2+y,1/2+z
x,-y,1/2+z
1/2+x,1/2+y,z
1/2-x,-y,z
1/2+x,-y,1/2-z
1/2-x,1/2+y,1/2-z
1/2-x,1/2-y,-z
1/2+x,y,-z
1/2-x,y,1/2+z
1/2+x,1/2-y,1/2+z
loop_
_atom_site_type_symbol
_atom_site_label
_atom_site_fract_x
_atom_site_fract_y
_atom_site_fract_z
Si Si1 0.528143 0.050993 0.588976
Si Si2 0.090442 0.300384 0.613291
Si Si3 0.267319 0.354843 0.313261
Si Si4 0.371274 0.302546 0.931826
O O1 0.441913 0.114577 0.613556
O O2 0.596149 0.159258 0.577634
O O3 0.500000 0.000000 0.500000
O O4 0.568300 0.941795 0.644396
O O5 0.141708 0.198063 0.664018
O O6 0.132906 0.325008 0.527426
O O7 0.000000 0.250000 0.594725
O O8 0.235908 0.250000 0.250000
O O9 0.250000 0.500000 0.286331
O O10 0.214159 0.336385 0.393121
#
# Coordination Sequence:
#
# PCOD9507363 Si02
#       4
#    16  16  16  16
#     4   9  17  35  70 104 134 161 219 278 351 400
#     4  11  21  41  74 100 132 170 227 289 341 407
#     4  12  30  47  64  96 143 189 234 279 341 413
#     4  10  20  41  70 103 132 169 223 290 342 401
#
# _framework density 22.538518
#
# number of rings (size 3 to 8) (size 9 to 14) (size 15 to 20)
#    0.000    1.500    5.000    2.250    7.000    0.500 
#    0.000    2.500    0.000    0.000    0.000    0.000 
#    0.000    0.000    0.000    0.000    0.000    0.000 
#
# Total GULP energy -178335.038606 kJ/mol
# GULP energy per Si atom -5572.969956 kJ/mol
# Density = 2.248722 g / cm^3
# Si number density = 22.538518 Si / 1000 Ang^3
#
#
#
# Elastic Constant Matrix: (Units=GPa)
#
#
# Indices 1 2 3 4 5 6 
#
# 1 57.3455 30.8177 11.6894 0.0000 0.0000 0.0000
# 2 30.8177 177.7146 18.2246 0.0000 0.0000 0.0000
# 3 11.6894 18.2246 39.4385 0.0000 0.0000 0.0000
# 4 0.0000 0.0000 0.0000 23.5148 0.0000 0.0000
# 5 0.0000 0.0000 0.0000 0.0000 -36.3981 0.0000
# 6 0.0000 0.0000 0.0000 0.0000 0.0000 30.2980
#
#
#
# Elastic Compliance Matrix: (Units=1/GPa)
#
#
# Indices 1 2 3 4 5 6 
#
# 1 0.019974 -0.002999 -0.004535 0.000000 0.000000 0.000000
# 2 -0.002999 0.006357 -0.002049 0.000000 0.000000 0.000000
# 3 -0.004535 -0.002049 0.027647 0.000000 0.000000 0.000000
# 4 0.000000 0.000000 0.000000 0.042526 0.000000 0.000000
# 5 0.000000 0.000000 0.000000 0.000000 -0.027474 0.000000
# 6 0.000000 0.000000 0.000000 0.000000 0.000000 0.033006
#
#
# Mechanical properties :
#
#
# Convention : Reuss Voigt Hill
#
# Bulk Modulus (GPa) = 28.72431 43.99578 36.36005
# Shear Modulus (GPa) = 37.64932 17.73405 27.69168
#
# Velocity S-wave (km/s) = 4.09154 2.80810 3.50900
# Velocity P-wave (km/s) = 5.92395 5.48421 5.70831
#
# Compressibility (1/GPa) = 0.03481372
#
# Stress axis : x y z
#
# Youngs Moduli (GPa) = 50.06511 157.30405 36.17069
#
# Poissons Ratio (x) = 0.47171 0.16402
# Poissons Ratio (y) = 0.15013 0.07411
# Poissons Ratio (z) = 0.22702 0.32229
#
# Static dielectric constant tensor:
#      x y z
#    x 1.850950 0.000000 0.000000 
#    y 0.000000 1.997320 0.000000 
#    z 0.000000 0.000000 1.880640 
# 
# From -- ./inp_files/30475.got.cif
#   From: 2010.05.17/outbox.cif.g08.bks.cpg/sg68_16_cif.got.tgz:30475.got - 2010.06.03 18:57:09.
