data_PCOD9507472
_publ_section_title
;
Structure prediction by ZEFSAII (Michael W. Deem and Ramdas Pophale) SiO2 
 PCOD9507472
Probable space group: C C C A
;
_chemical_formula_sum "Si O2"
_cell_formula_units_Z 84
_cell_length_a 19.437534
_cell_length_b 20.409681
_cell_length_c 11.510668
_cell_angle_alpha 90.000000
_cell_angle_beta 90.000000
_cell_angle_gamma 90.000000
_cell_volume 4566.441630
_symmetry_space_group_name_H-M "C C C A"
_symmetry_group_IT_number 68
_space_group.IT_coordinate_system_code '2'
_symmetry_cell_setting 'orthorhombic'
loop_
_space_group_symop_operation_xyz
x,y,z
-x,1/2-y,z
x,1/2-y,1/2-z
-x,y,1/2-z
-x,-y,-z
x,1/2+y,-z
-x,1/2+y,1/2+z
x,-y,1/2+z
1/2+x,1/2+y,z
1/2-x,-y,z
1/2+x,-y,1/2-z
1/2-x,1/2+y,1/2-z
1/2-x,1/2-y,-z
1/2+x,y,-z
1/2-x,y,1/2+z
1/2+x,1/2-y,1/2+z
loop_
_atom_site_type_symbol
_atom_site_label
_atom_site_fract_x
_atom_site_fract_y
_atom_site_fract_z
Si Si1 0.830346 0.079907 0.846959
Si Si2 0.095390 0.563729 0.586810
Si Si3 0.500000 0.750000 0.250000
Si Si4 0.562077 0.584940 0.841455
Si Si5 0.822840 0.423744 0.186465
Si Si6 0.044852 0.140398 0.080215
O O1 0.872479 0.104504 0.735844
O O2 0.751819 0.104170 0.845779
O O3 0.823620 0.001472 0.833939
O O4 0.875360 0.086577 0.963020
O O5 0.079075 0.485780 0.598494
O O6 0.153336 0.583010 0.680310
O O7 0.023526 0.599437 0.613580
O O8 0.542087 0.704853 0.159749
O O9 0.500000 0.574484 0.750000
O O10 0.543778 0.637942 0.939889
O O11 0.884184 0.394241 0.112184
#
# Coordination Sequence:
#
# PCOD9507472 Si02
#       6
#    16  16   4  16  16  16
#     4  10  21  32  55  97 131 162 185 242 337 387
#     4  11  19  35  60  91 130 161 197 253 318 384
#     4  12  28  44  66  88 108 180 234 256 296 356
#     4  11  21  34  61  97 126 159 195 261 327 373
#     4  10  21  33  55  89 133 162 197 241 310 387
#     4  12  22  41  61  84 118 161 220 260 291 367
#
# _framework density 18.395067000000001
#
# number of rings (size 3 to 8) (size 9 to 14) (size 15 to 20)
#    0.000    1.143    5.714    2.857    2.667    1.524 
#    0.000    0.476    0.000    4.571    0.000    0.000 
#    0.000    0.000    0.000    0.000    0.000    0.000 
#
# Total GULP energy -234103.848699 kJ/mol
# GULP energy per Si atom -5573.901159 kJ/mol
# Density = 1.835320 g / cm^3
# Si number density = 18.395067 Si / 1000 Ang^3
#
#
#
# Elastic Constant Matrix: (Units=GPa)
#
#
# Indices 1 2 3 4 5 6 
#
# 1 140.8652 29.5139 43.5269 0.0000 0.0000 0.0000
# 2 29.5139 25.6350 37.9672 0.0000 0.0000 0.0000
# 3 43.5269 37.9672 118.4984 0.0000 0.0000 0.0000
# 4 0.0000 0.0000 0.0000 40.9107 0.0000 0.0000
# 5 0.0000 0.0000 0.0000 0.0000 4.1428 0.0000
# 6 0.0000 0.0000 0.0000 0.0000 0.0000 4.1148
#
#
#
# Elastic Compliance Matrix: (Units=1/GPa)
#
#
# Indices 1 2 3 4 5 6 
#
# 1 0.009356 -0.010813 0.000028 0.000000 0.000000 0.000000
# 2 -0.010813 0.086734 -0.023818 0.000000 0.000000 0.000000
# 3 0.000028 -0.023818 0.016060 0.000000 0.000000 0.000000
# 4 0.000000 0.000000 0.000000 0.024443 0.000000 0.000000
# 5 0.000000 0.000000 0.000000 0.000000 0.241382 0.000000
# 6 0.000000 0.000000 0.000000 0.000000 0.000000 0.243026
#
#
# Mechanical properties :
#
#
# Convention : Reuss Voigt Hill
#
# Bulk Modulus (GPa) = 23.28605 56.33495 39.81050
# Shear Modulus (GPa) = 7.09700 21.43304 14.26502
#
# Velocity S-wave (km/s) = 1.96634 3.41713 2.78777
# Velocity P-wave (km/s) = 4.22394 6.80151 5.66137
#
# Compressibility (1/GPa) = 0.04294418
#
# Stress axis : x y z
#
# Youngs Moduli (GPa) = 106.88486 11.52945 62.26605
#
# Poissons Ratio (x) = 0.12467 -0.00173
# Poissons Ratio (y) = 1.15572 1.48306
# Poissons Ratio (z) = -0.00297 0.27461
#
# Static dielectric constant tensor:
#      x y z
#    x 1.666500 0.000000 0.000000 
#    y 0.000000 1.625290 0.000000 
#    z 0.000000 0.000000 1.698060 
# 
# From -- ./inp_files/14360.got.cif
#   From: 2010.05.17/outbox.cif.g08.bks.cpg/sg68_8_cif.got.tgz:14360.got - 2010.06.03 18:57:09.
