data_PCOD9507125
_publ_section_title
;
Structure prediction by ZEFSAII (Michael W. Deem and Ramdas Pophale) SiO2 
 PCOD9507125
Probable space group: C C C A
;
_chemical_formula_sum "Si O2"
_cell_formula_units_Z 64
_cell_length_a 8.660146
_cell_length_b 24.059444
_cell_length_c 13.024743
_cell_angle_alpha 90.000000
_cell_angle_beta 90.000000
_cell_angle_gamma 90.000000
_cell_volume 2713.813280
_symmetry_space_group_name_H-M "C C C A"
_symmetry_group_IT_number 68
_space_group.IT_coordinate_system_code '2'
_symmetry_cell_setting 'orthorhombic'
loop_
_space_group_symop_operation_xyz
x,y,z
-x,1/2-y,z
x,1/2-y,1/2-z
-x,y,1/2-z
-x,-y,-z
x,1/2+y,-z
-x,1/2+y,1/2+z
x,-y,1/2+z
1/2+x,1/2+y,z
1/2-x,-y,z
1/2+x,-y,1/2-z
1/2-x,1/2+y,1/2-z
1/2-x,1/2-y,-z
1/2+x,y,-z
1/2-x,y,1/2+z
1/2+x,1/2-y,1/2+z
loop_
_atom_site_type_symbol
_atom_site_label
_atom_site_fract_x
_atom_site_fract_y
_atom_site_fract_z
Si Si1 0.250000 0.500000 0.402358
Si Si2 0.723273 0.876862 0.694529
Si Si3 0.914945 0.107982 0.919607
Si Si4 0.000000 0.549947 0.750000
Si Si5 0.141068 0.211877 0.431886
O O1 0.177615 0.553484 0.458662
O O2 0.392710 0.516249 0.327954
O O3 0.671296 0.877233 0.812788
O O4 0.589312 0.900939 0.621000
O O5 0.879593 0.911902 0.689592
O O6 0.761779 0.815024 0.659178
O O7 0.911692 0.159316 0.997865
O O8 0.250000 0.250000 0.500000
O O9 0.000000 0.250000 0.397472
#
# Coordination Sequence:
#
# PCOD9507125 Si02
#       5
#     8  16  16   8  16
#     4  10  20  38  68  98 138 170 222 280 334 408
#     4  10  23  43  68  97 136 173 229 271 338 400
#     4  10  23  45  66 100 135 178 221 279 346 392
#     4  10  20  38  67 100 131 178 218 272 330 402
#     4  12  26  46  68  97 137 177 228 280 328 402
#
# _framework density 23.583051999999999
#
# number of rings (size 3 to 8) (size 9 to 14) (size 15 to 20)
#    0.000    1.500    2.500    3.000    7.000    1.000 
#    0.000   10.000    0.000    0.000    0.000    0.000 
#    0.000    0.000    0.000    0.000    0.000    0.000 
#
# Total GULP energy -179097.314184 kJ/mol
# GULP energy per Si atom -5596.791068 kJ/mol
# Density = 2.352938 g / cm^3
# Si number density = 23.583052 Si / 1000 Ang^3
#
#
#
# Elastic Constant Matrix: (Units=GPa)
#
#
# Indices 1 2 3 4 5 6 
#
# 1 152.9454 58.1692 32.8622 0.0000 0.0000 0.0000
# 2 58.1692 136.3926 40.6349 0.0000 0.0000 0.0000
# 3 32.8622 40.6349 70.7718 0.0000 0.0000 0.0000
# 4 0.0000 0.0000 0.0000 55.8519 0.0000 0.0000
# 5 0.0000 0.0000 0.0000 0.0000 27.1714 0.0000
# 6 0.0000 0.0000 0.0000 0.0000 0.0000 60.9477
#
#
#
# Elastic Compliance Matrix: (Units=1/GPa)
#
#
# Indices 1 2 3 4 5 6 
#
# 1 0.008063 -0.002803 -0.002135 0.000000 0.000000 0.000000
# 2 -0.002803 0.009819 -0.004336 0.000000 0.000000 0.000000
# 3 -0.002135 -0.004336 0.017611 0.000000 0.000000 0.000000
# 4 0.000000 0.000000 0.000000 0.017904 0.000000 0.000000
# 5 0.000000 0.000000 0.000000 0.000000 0.036803 0.000000
# 6 0.000000 0.000000 0.000000 0.000000 0.000000 0.016408
#
#
# Mechanical properties :
#
#
# Convention : Reuss Voigt Hill
#
# Bulk Modulus (GPa) = 59.01334 69.27140 64.14237
# Shear Modulus (GPa) = 38.22506 44.02376 41.12441
#
# Velocity S-wave (km/s) = 4.03037 4.32528 4.18043
# Velocity P-wave (km/s) = 6.83641 7.37436 7.11047
#
# Compressibility (1/GPa) = 0.01694532
#
# Stress axis : x y z
#
# Youngs Moduli (GPa) = 124.02495 101.84342 56.78285
#
# Poissons Ratio (x) = 0.28544 0.12121
# Poissons Ratio (y) = 0.34761 0.24623
# Poissons Ratio (z) = 0.26476 0.44163
#
# Static dielectric constant tensor:
#      x y z
#    x 1.890490 0.000000 0.000000 
#    y 0.000000 1.916560 0.000000 
#    z 0.000000 0.000000 1.888990 
# 
# From -- ./inp_files/19299.got.cif
#   From: 2010.05.17/outbox.cif.g08.bks.cpg/sg68_10_cif.got.tgz:19299.got - 2010.06.03 18:57:09.
