data_PCOD9507208
_publ_section_title
;
Structure prediction by ZEFSAII (Michael W. Deem and Ramdas Pophale) SiO2 
 PCOD9507208
Probable space group: C C C A
;
_chemical_formula_sum "Si O2"
_cell_formula_units_Z 96
_cell_length_a 25.218584
_cell_length_b 11.696011
_cell_length_c 15.308015
_cell_angle_alpha 90.000000
_cell_angle_beta 90.000000
_cell_angle_gamma 90.000000
_cell_volume 4515.203668
_symmetry_space_group_name_H-M "C C C A"
_symmetry_group_IT_number 68
_space_group.IT_coordinate_system_code '2'
_symmetry_cell_setting 'orthorhombic'
loop_
_space_group_symop_operation_xyz
x,y,z
-x,1/2-y,z
x,1/2-y,1/2-z
-x,y,1/2-z
-x,-y,-z
x,1/2+y,-z
-x,1/2+y,1/2+z
x,-y,1/2+z
1/2+x,1/2+y,z
1/2-x,-y,z
1/2+x,-y,1/2-z
1/2-x,1/2+y,1/2-z
1/2-x,1/2-y,-z
1/2+x,y,-z
1/2-x,y,1/2+z
1/2+x,1/2-y,1/2+z
loop_
_atom_site_type_symbol
_atom_site_label
_atom_site_fract_x
_atom_site_fract_y
_atom_site_fract_z
Si Si1 0.140211 0.683380 0.582066
Si Si2 0.563502 0.500001 0.506117
Si Si3 0.920277 0.500000 0.712906
Si Si4 0.082080 0.250000 0.750000
Si Si5 0.859788 0.183377 0.582066
Si Si6 0.917921 0.250000 0.250000
Si Si7 0.307732 0.500001 0.194245
O O1 0.092357 0.606774 0.541179
O O2 0.162663 0.750003 0.500001
O O3 0.115370 0.756390 0.660493
O O4 0.183314 0.606634 0.630273
O O5 0.500000 0.500000 0.500000
O O6 0.574617 0.500000 0.609173
O O7 0.592357 0.393228 0.458819
O O8 0.942388 0.378886 0.751598
O O9 0.942389 0.621113 0.751599
O O10 0.858397 0.500001 0.742267
O O11 0.115372 0.243611 0.660493
O O12 0.816686 0.106631 0.630272
O O13 0.250000 0.500000 0.235806
#
# Coordination Sequence:
#
# PCOD9507208 Si02
#       7
#    16  16  16   8  16   8  16
#     4  10  20  39  66  88 133 173 215 284 331 391
#     4  11  23  41  65  94 130 175 225 276 340 404
#     4  10  20  40  65  90 135 174 217 285 329 388
#     4  10  20  40  66  90 128 176 214 266 342 384
#     4  10  20  39  66  88 133 173 215 284 331 391
#     4  10  20  40  66  90 128 176 214 266 342 384
#     4   9  21  39  61  96 131 172 227 274 332 406
#
# _framework density 21.261498
#
# number of rings (size 3 to 8) (size 9 to 14) (size 15 to 20)
#    0.000    2.000    3.333    1.000    0.000    1.333 
#    0.000   31.667    0.000    0.000    0.000    0.000 
#    0.000    0.000    0.000    0.000    0.000    0.000 
#
# Total GULP energy -267403.797788 kJ/mol
# GULP energy per Si atom -5570.912454 kJ/mol
# Density = 2.121311 g / cm^3
# Si number density = 21.261498 Si / 1000 Ang^3
#
#
#
# Elastic Constant Matrix: (Units=GPa)
#
#
# Indices 1 2 3 4 5 6 
#
# 1 129.3963 13.6733 21.7046 0.0000 0.0000 0.0000
# 2 13.6733 127.2568 18.7460 0.0000 0.0000 0.0000
# 3 21.7046 18.7460 148.0430 0.0000 0.0000 0.0000
# 4 0.0000 0.0000 0.0000 45.7918 0.0000 0.0000
# 5 0.0000 0.0000 0.0000 0.0000 9.7281 0.0000
# 6 0.0000 0.0000 0.0000 0.0000 0.0000 -16.4991
#
#
#
# Elastic Compliance Matrix: (Units=1/GPa)
#
#
# Indices 1 2 3 4 5 6 
#
# 1 0.007983 -0.000698 -0.001082 0.000000 0.000000 0.000000
# 2 -0.000698 0.008069 -0.000919 0.000000 0.000000 0.000000
# 3 -0.001082 -0.000919 0.007030 0.000000 0.000000 0.000000
# 4 0.000000 0.000000 0.000000 0.021838 0.000000 0.000000
# 5 0.000000 0.000000 0.000000 0.000000 0.102795 0.000000
# 6 0.000000 0.000000 0.000000 0.000000 0.000000 -0.060609
#
#
# Mechanical properties :
#
#
# Convention : Reuss Voigt Hill
#
# Bulk Modulus (GPa) = 56.55319 56.99375 56.77347
# Shear Modulus (GPa) = 50.81331 31.17562 40.99446
#
# Velocity S-wave (km/s) = 4.89399 3.83338 4.39579
# Velocity P-wave (km/s) = 7.65450 6.81596 7.24737
#
# Compressibility (1/GPa) = 0.01768247
#
# Stress axis : x y z
#
# Youngs Moduli (GPa) = 125.25843 123.93738 142.25081
#
# Poissons Ratio (x) = 0.08656 0.15392
# Poissons Ratio (y) = 0.08748 0.13077
# Poissons Ratio (z) = 0.13553 0.11394
#
# Static dielectric constant tensor:
#      x y z
#    x 1.711830 0.000000 0.000000 
#    y 0.000000 1.912320 0.000000 
#    z 0.000000 0.000000 1.706740 
# 
# From -- ./inp_files/26360.got.cif
#   From: 2010.05.17/outbox.cif.g08.bks.cpg/sg68_14_cif.got.tgz:26360.got - 2010.06.03 18:57:09.
