data_PCOD9507506
_publ_section_title
;
Structure prediction by ZEFSAII (Michael W. Deem and Ramdas Pophale) SiO2 
 PCOD9507506
Probable space group: C C C A
;
_chemical_formula_sum "Si O2"
_cell_formula_units_Z 68
_cell_length_a 24.213980
_cell_length_b 16.080082
_cell_length_c 8.073702
_cell_angle_alpha 90.000000
_cell_angle_beta 90.000000
_cell_angle_gamma 90.000000
_cell_volume 3143.599087
_symmetry_space_group_name_H-M "C C C A"
_symmetry_group_IT_number 68
_space_group.IT_coordinate_system_code '2'
_symmetry_cell_setting 'orthorhombic'
loop_
_space_group_symop_operation_xyz
x,y,z
-x,1/2-y,z
x,1/2-y,1/2-z
-x,y,1/2-z
-x,-y,-z
x,1/2+y,-z
-x,1/2+y,1/2+z
x,-y,1/2+z
1/2+x,1/2+y,z
1/2-x,-y,z
1/2+x,-y,1/2-z
1/2-x,1/2+y,1/2-z
1/2-x,1/2-y,-z
1/2+x,y,-z
1/2-x,y,1/2+z
1/2+x,1/2-y,1/2+z
loop_
_atom_site_type_symbol
_atom_site_label
_atom_site_fract_x
_atom_site_fract_y
_atom_site_fract_z
Si Si1 0.292064 0.836895 0.326155
Si Si2 0.117579 0.541292 0.039541
Si Si3 0.500000 0.250000 0.750000
Si Si4 0.083917 0.117992 0.269582
Si Si5 0.691481 0.914879 0.831451
O O1 0.272281 0.750000 0.250000
O O2 0.353768 0.848748 0.261770
O O3 0.300452 0.847158 0.522833
O O4 0.249809 0.907845 0.264248
O O5 0.085423 0.464887 0.122604
O O6 0.146755 0.594478 0.183974
O O7 0.076524 0.591134 0.920931
O O8 0.166659 0.494711 0.932674
O O9 0.457811 0.313536 0.663404
#
# Coordination Sequence:
#
# PCOD9507506 Si02
#       5
#    16  16   4  16  16
#     4  11  21  36  56  94 131 173 199 252 309 382
#     4   9  21  41  61  96 123 168 204 259 296 391
#     4  12  24  44  68  90 116 170 202 280 316 370
#     4  10  22  40  67  87 126 160 219 251 323 354
#     4  10  21  34  60  89 131 164 202 240 309 372
#
# _framework density 21.631256
#
# number of rings (size 3 to 8) (size 9 to 14) (size 15 to 20)
#    0.000    1.882    1.176    2.118    0.000   16.941 
#    0.000    0.000    0.000   12.706    0.000    0.000 
#    0.000    0.000    0.000    0.000    0.000    0.000 
#
# Total GULP energy -189317.046666 kJ/mol
# GULP energy per Si atom -5568.148431 kJ/mol
# Density = 2.158202 g / cm^3
# Si number density = 21.631256 Si / 1000 Ang^3
#
#
#
# Elastic Constant Matrix: (Units=GPa)
#
#
# Indices 1 2 3 4 5 6 
#
# 1 75.4087 42.4956 16.9398 0.0000 0.0000 0.0000
# 2 42.4956 87.4931 45.9482 0.0000 0.0000 0.0000
# 3 16.9398 45.9482 107.6626 0.0000 0.0000 0.0000
# 4 0.0000 0.0000 0.0000 9.4070 0.0000 0.0000
# 5 0.0000 0.0000 0.0000 0.0000 2.4003 0.0000
# 6 0.0000 0.0000 0.0000 0.0000 0.0000 20.2990
#
#
#
# Elastic Compliance Matrix: (Units=1/GPa)
#
#
# Indices 1 2 3 4 5 6 
#
# 1 0.018375 -0.009546 0.001183 0.000000 0.000000 0.000000
# 2 -0.009546 0.019690 -0.006901 0.000000 0.000000 0.000000
# 3 0.001183 -0.006901 0.012048 0.000000 0.000000 0.000000
# 4 0.000000 0.000000 0.000000 0.106304 0.000000 0.000000
# 5 0.000000 0.000000 0.000000 0.000000 0.416618 0.000000
# 6 0.000000 0.000000 0.000000 0.000000 0.000000 0.049264
#
#
# Mechanical properties :
#
#
# Convention : Reuss Voigt Hill
#
# Bulk Modulus (GPa) = 51.06278 53.48130 52.27204
# Shear Modulus (GPa) = 7.58317 17.43330 12.50824
#
# Velocity S-wave (km/s) = 1.87437 2.84197 2.40729
# Velocity P-wave (km/s) = 5.32368 5.96212 5.65192
#
# Compressibility (1/GPa) = 0.01958373
#
# Stress axis : x y z
#
# Youngs Moduli (GPa) = 54.42239 50.78641 83.00434
#
# Poissons Ratio (x) = 0.48480 -0.09818
# Poissons Ratio (y) = 0.51951 0.57285
# Poissons Ratio (z) = -0.06437 0.35050
#
# Static dielectric constant tensor:
#      x y z
#    x 1.792240 0.000000 0.000000 
#    y 0.000000 1.892260 0.000000 
#    z 0.000000 0.000000 1.838680 
# 
# From -- ./inp_files/6844.got.cif
#   From: 2010.05.17/outbox.cif.g08.bks.cpg/sg68_4_cif.got.tgz:6844.got - 2010.06.03 18:57:09.
