data_PCOD9507671
_publ_section_title
;
Structure prediction by ZEFSAII (Michael W. Deem and Ramdas Pophale) SiO2 
 PCOD9507671
Probable space group: C C C A
;
_chemical_formula_sum "Si O2"
_cell_formula_units_Z 92
_cell_length_a 18.730142
_cell_length_b 20.347952
_cell_length_c 9.483942
_cell_angle_alpha 90.000000
_cell_angle_beta 90.000000
_cell_angle_gamma 90.000000
_cell_volume 3614.520263
_symmetry_space_group_name_H-M "C C C A"
_symmetry_group_IT_number 68
_space_group.IT_coordinate_system_code '2'
_symmetry_cell_setting 'orthorhombic'
loop_
_space_group_symop_operation_xyz
x,y,z
-x,1/2-y,z
x,1/2-y,1/2-z
-x,y,1/2-z
-x,-y,-z
x,1/2+y,-z
-x,1/2+y,1/2+z
x,-y,1/2+z
1/2+x,1/2+y,z
1/2-x,-y,z
1/2+x,-y,1/2-z
1/2-x,1/2+y,1/2-z
1/2-x,1/2-y,-z
1/2+x,y,-z
1/2-x,y,1/2+z
1/2+x,1/2-y,1/2+z
loop_
_atom_site_type_symbol
_atom_site_label
_atom_site_fract_x
_atom_site_fract_y
_atom_site_fract_z
Si Si1 0.500000 0.656584 0.250000
Si Si2 0.624279 0.838024 0.617147
Si Si3 0.179759 0.453567 0.165491
Si Si4 0.994877 0.076505 0.518397
Si Si5 0.367649 0.929918 0.656613
Si Si6 0.500000 0.250000 0.250000
Si Si7 0.160301 0.184808 0.178271
O O1 0.522869 0.611843 0.379570
O O2 0.572866 0.689306 0.195044
O O3 0.584509 0.901056 0.549057
O O4 0.663449 0.869074 0.752447
O O5 0.557795 0.790058 0.654495
O O6 0.673088 0.813394 0.489963
O O7 0.250000 0.500000 0.172570
O O8 0.129134 0.501593 0.258267
O O9 0.180836 0.383777 0.246467
O O10 0.163955 0.441933 0.999346
O O11 0.051785 0.094797 0.635769
O O12 0.000000 0.000000 0.500000
O O13 0.190947 0.250000 0.250000
#
# Coordination Sequence:
#
# PCOD9507671 Si02
#       7
#     8  16  16  16  16   4  16
#     4  10  21  37  62 111 156 199 234 288 383 470
#     4  11  26  39  67 108 159 208 237 298 377 472
#     4  12  27  48  77 104 141 196 263 338 384 439
#     4  11  21  35  60 100 148 192 237 300 367 459
#     4  12  23  45  69 102 140 191 259 311 385 442
#     4  12  24  42  62 106 176 212 236 288 384 482
#     4  11  25  44  74 113 158 202 249 308 381 468
#
# _framework density 25.452893
#
# number of rings (size 3 to 8) (size 9 to 14) (size 15 to 20)
#    0.000    0.696    3.478    4.957    9.739    0.000 
#    0.000    0.870    1.913    3.130    0.000    0.000 
#    0.000    0.000    0.000    0.000    0.000    0.000 
#
# Total GULP energy -257119.453557 kJ/mol
# GULP energy per Si atom -5589.553338 kJ/mol
# Density = 2.539496 g / cm^3
# Si number density = 25.452893 Si / 1000 Ang^3
#
#
#
# Elastic Constant Matrix: (Units=GPa)
#
#
# Indices 1 2 3 4 5 6 
#
# 1 58.1178 6.3024 20.1523 0.0000 0.0000 0.0000
# 2 6.3024 150.6571 87.8152 0.0000 0.0000 0.0000
# 3 20.1523 87.8152 201.9398 0.0000 0.0000 0.0000
# 4 0.0000 0.0000 0.0000 33.4832 0.0000 0.0000
# 5 0.0000 0.0000 0.0000 0.0000 11.8345 0.0000
# 6 0.0000 0.0000 0.0000 0.0000 0.0000 29.0021
#
#
#
# Elastic Compliance Matrix: (Units=1/GPa)
#
#
# Indices 1 2 3 4 5 6 
#
# 1 0.017840 0.000390 -0.001950 0.000000 0.000000 0.000000
# 2 0.000390 0.008900 -0.003909 0.000000 0.000000 0.000000
# 3 -0.001950 -0.003909 0.006846 0.000000 0.000000 0.000000
# 4 0.000000 0.000000 0.000000 0.029866 0.000000 0.000000
# 5 0.000000 0.000000 0.000000 0.000000 0.084499 0.000000
# 6 0.000000 0.000000 0.000000 0.000000 0.000000 0.034480
#
#
# Mechanical properties :
#
#
# Convention : Reuss Voigt Hill
#
# Bulk Modulus (GPa) = 44.15224 71.02828 57.59026
# Shear Modulus (GPa) = 24.88570 34.62693 29.75632
#
# Velocity S-wave (km/s) = 3.13024 3.69241 3.42288
# Velocity P-wave (km/s) = 5.51804 6.79300 6.18844
#
# Compressibility (1/GPa) = 0.02264891
#
# Stress axis : x y z
#
# Youngs Moduli (GPa) = 56.05283 112.36197 146.06023
#
# Poissons Ratio (x) = -0.04386 0.28483
# Poissons Ratio (y) = -0.02188 0.57097
# Poissons Ratio (z) = 0.10931 0.43924
#
# Static dielectric constant tensor:
#      x y z
#    x 2.131720 0.000000 0.000000 
#    y 0.000000 2.031850 0.000000 
#    z 0.000000 0.000000 2.086890 
# 
# From -- ./inp_files/8035.got.cif
#   From: 2010.05.17/outbox.cif.g08.bks.cpg/sg68_5_cif.got.tgz:8035.got - 2010.06.03 18:57:09.
