data_PCOD9507037
_publ_section_title
;
Structure prediction by ZEFSAII (Michael W. Deem and Ramdas Pophale) SiO2 
 PCOD9507037
Probable space group: C C C A
;
_chemical_formula_sum "Si O2"
_cell_formula_units_Z 84
_cell_length_a 13.965611
_cell_length_b 23.623551
_cell_length_c 12.791049
_cell_angle_alpha 90.000000
_cell_angle_beta 90.000000
_cell_angle_gamma 90.000000
_cell_volume 4219.988653
_symmetry_space_group_name_H-M "C C C A"
_symmetry_group_IT_number 68
_space_group.IT_coordinate_system_code '2'
_symmetry_cell_setting 'orthorhombic'
loop_
_space_group_symop_operation_xyz
x,y,z
-x,1/2-y,z
x,1/2-y,1/2-z
-x,y,1/2-z
-x,-y,-z
x,1/2+y,-z
-x,1/2+y,1/2+z
x,-y,1/2+z
1/2+x,1/2+y,z
1/2-x,-y,z
1/2+x,-y,1/2-z
1/2-x,1/2+y,1/2-z
1/2-x,1/2-y,-z
1/2+x,y,-z
1/2-x,y,1/2+z
1/2+x,1/2-y,1/2+z
loop_
_atom_site_type_symbol
_atom_site_label
_atom_site_fract_x
_atom_site_fract_y
_atom_site_fract_z
Si Si1 0.485523 0.671645 0.370175
Si Si2 0.000000 0.250000 0.750000
Si Si3 0.816644 0.338018 0.490634
Si Si4 0.158939 0.533869 0.493916
Si Si5 0.968186 0.042775 0.364433
Si Si6 0.629629 0.780847 0.567467
O O1 0.500000 0.690509 0.250000
O O2 0.591884 0.664603 0.415450
O O3 0.440066 0.608907 0.367349
O O4 0.425073 0.706704 0.456942
O O5 0.062705 0.286661 0.668497
O O6 0.814066 0.401580 0.534044
O O7 0.719339 0.322548 0.431109
O O8 0.833421 0.284360 0.567347
O O9 0.250000 0.500000 0.539336
O O10 0.118912 0.496119 0.399799
O O11 0.064827 0.536348 0.567106
O O12 0.000000 0.027013 0.250000
#
# Coordination Sequence:
#
# PCOD9507037 Si02
#       6
#    16   4  16  16  16  16
#     4  10  20  40  67  92 123 166 212 269 323 384
#     4  12  24  44  62  88 138 172 208 274 336 394
#     4  10  22  39  62  91 122 166 213 261 321 387
#     4  10  20  38  61  86 123 162 204 260 310 378
#     4   9  20  38  62  92 122 158 209 262 316 376
#     4  11  23  41  61  92 130 164 213 265 328 394
#
# _framework density 19.905266000000001
#
# number of rings (size 3 to 8) (size 9 to 14) (size 15 to 20)
#    0.000    1.905    1.905    1.143    0.000    5.333 
#    1.714    3.810    0.000    0.000    0.000    0.000 
#    0.000    0.000    0.000    0.000    0.000    0.000 
#
# Total GULP energy -234044.575081 kJ/mol
# GULP energy per Si atom -5572.489883 kJ/mol
# Density = 1.985996 g / cm^3
# Si number density = 19.905266 Si / 1000 Ang^3
#
#
#
# Elastic Constant Matrix: (Units=GPa)
#
#
# Indices 1 2 3 4 5 6 
#
# 1 86.9239 47.8869 4.3721 0.0000 0.0000 0.0000
# 2 47.8869 160.6117 34.7005 0.0000 0.0000 0.0000
# 3 4.3721 34.7005 66.8675 0.0000 0.0000 0.0000
# 4 0.0000 0.0000 0.0000 18.1483 0.0000 0.0000
# 5 0.0000 0.0000 0.0000 0.0000 14.8668 0.0000
# 6 0.0000 0.0000 0.0000 0.0000 0.0000 39.8348
#
#
#
# Elastic Compliance Matrix: (Units=1/GPa)
#
#
# Indices 1 2 3 4 5 6 
#
# 1 0.013880 -0.004440 0.001397 0.000000 0.000000 0.000000
# 2 -0.004440 0.008433 -0.004086 0.000000 0.000000 0.000000
# 3 0.001397 -0.004086 0.016984 0.000000 0.000000 0.000000
# 4 0.000000 0.000000 0.000000 0.055102 0.000000 0.000000
# 5 0.000000 0.000000 0.000000 0.000000 0.067264 0.000000
# 6 0.000000 0.000000 0.000000 0.000000 0.000000 0.025104
#
#
# Mechanical properties :
#
#
# Convention : Reuss Voigt Hill
#
# Bulk Modulus (GPa) = 39.93893 54.25802 47.09848
# Shear Modulus (GPa) = 23.88105 29.73287 26.80696
#
# Velocity S-wave (km/s) = 3.46748 3.86906 3.67376
# Velocity P-wave (km/s) = 6.01159 6.87581 6.45818
#
# Compressibility (1/GPa) = 0.02503823
#
# Stress axis : x y z
#
# Youngs Moduli (GPa) = 72.04514 118.58444 58.87913
#
# Poissons Ratio (x) = 0.52654 -0.08223
# Poissons Ratio (y) = 0.31989 0.24057
# Poissons Ratio (z) = -0.10062 0.48452
#
# Static dielectric constant tensor:
#      x y z
#    x 1.716180 0.000000 0.000000 
#    y 0.000000 1.766060 0.000000 
#    z 0.000000 0.000000 1.691260 
# 
# From -- ./inp_files/13304.got.cif
#   From: 2010.05.17/outbox.cif.g08.bks.cpg/sg68_7_cif.got.tgz:13304.got - 2010.06.03 18:57:09.
