data_PCOD9507859
_publ_section_title
;
Structure prediction by ZEFSAII (Michael W. Deem and Ramdas Pophale) SiO2 
 PCOD9507859
Probable space group: C C C A
;
_chemical_formula_sum "Si O2"
_cell_formula_units_Z 120
_cell_length_a 22.857581
_cell_length_b 24.465777
_cell_length_c 11.346365
_cell_angle_alpha 90.000000
_cell_angle_beta 90.000000
_cell_angle_gamma 90.000000
_cell_volume 6345.210447
_symmetry_space_group_name_H-M "C C C A"
_symmetry_group_IT_number 68
_space_group.IT_coordinate_system_code '2'
_symmetry_cell_setting 'orthorhombic'
loop_
_space_group_symop_operation_xyz
x,y,z
-x,1/2-y,z
x,1/2-y,1/2-z
-x,y,1/2-z
-x,-y,-z
x,1/2+y,-z
-x,1/2+y,1/2+z
x,-y,1/2+z
1/2+x,1/2+y,z
1/2-x,-y,z
1/2+x,-y,1/2-z
1/2-x,1/2+y,1/2-z
1/2-x,1/2-y,-z
1/2+x,y,-z
1/2-x,y,1/2+z
1/2+x,1/2-y,1/2+z
loop_
_atom_site_type_symbol
_atom_site_label
_atom_site_fract_x
_atom_site_fract_y
_atom_site_fract_z
Si Si1 0.056014 0.074549 0.552889
Si Si2 0.811528 0.685596 0.284756
Si Si3 0.500000 0.651392 0.750000
Si Si4 0.316598 0.806838 0.316060
Si Si5 0.435533 0.843254 0.191129
Si Si6 0.128829 0.327465 0.952172
Si Si7 0.082986 0.209557 0.936842
Si Si8 0.039735 0.537889 0.861650
O O1 0.033877 0.110839 0.661934
O O2 0.101261 0.116971 0.496250
O O3 0.003578 0.059812 0.464110
O O4 0.075628 0.014797 0.596331
O O5 0.811111 0.750000 0.250000
O O6 0.745684 0.663773 0.296346
O O7 0.843365 0.658607 0.173488
O O8 0.853092 0.685596 0.399559
O O9 0.541054 0.687585 0.833931
O O10 0.308439 0.750000 0.250000
O O11 0.379838 0.824683 0.266642
O O12 0.324126 0.804119 0.456270
O O13 0.500000 0.835195 0.250000
O O14 0.426366 0.907953 0.173738
O O15 0.434657 0.812509 0.065149
O O16 0.085305 0.275675 0.937452
O O17 0.000000 0.520725 0.750000
#
# Coordination Sequence:
#
# PCOD9507859 Si02
#       8
#    16  16   8  16  16  16  16  16
#     4  11  22  37  60  86 117 161 201 253 296 364
#     4   9  22  38  60  87 117 166 209 242 295 367
#     4  12  22  39  56  92 122 160 191 244 320 354
#     4  11  23  39  62  88 125 165 201 253 297 374
#     4  11  23  40  59  92 124 164 200 251 323 369
#     4  11  22  40  58  92 122 158 208 248 307 367
#     4  11  23  39  59  90 131 160 196 253 309 379
#     4  10  21  39  58  84 119 158 210 244 300 366
#
# _framework density 18.911902999999999
#
# number of rings (size 3 to 8) (size 9 to 14) (size 15 to 20)
#    0.000    1.333    4.667    1.600    1.867    2.933 
#    2.400    0.000    0.000    0.800    0.000    0.000 
#    0.000    0.000    0.000    0.000    0.000    0.000 
#
# Total GULP energy -334535.400622 kJ/mol
# GULP energy per Si atom -5575.590010 kJ/mol
# Density = 1.886886 g / cm^3
# Si number density = 18.911903 Si / 1000 Ang^3
#
#
#
# Elastic Constant Matrix: (Units=GPa)
#
#
# Indices 1 2 3 4 5 6 
#
# 1 103.6881 37.8906 38.2858 0.0000 0.0000 0.0000
# 2 37.8906 86.8101 25.2611 0.0000 0.0000 0.0000
# 3 38.2858 25.2611 102.0492 0.0000 0.0000 0.0000
# 4 0.0000 0.0000 0.0000 19.5399 0.0000 0.0000
# 5 0.0000 0.0000 0.0000 0.0000 -11.3803 0.0000
# 6 0.0000 0.0000 0.0000 0.0000 0.0000 5.9606
#
#
#
# Elastic Compliance Matrix: (Units=1/GPa)
#
#
# Indices 1 2 3 4 5 6 
#
# 1 0.012610 -0.004448 -0.003630 0.000000 0.000000 0.000000
# 2 -0.004448 0.013982 -0.001793 0.000000 0.000000 0.000000
# 3 -0.003630 -0.001793 0.011605 0.000000 0.000000 0.000000
# 4 0.000000 0.000000 0.000000 0.051177 0.000000 0.000000
# 5 0.000000 0.000000 0.000000 0.000000 -0.087871 0.000000
# 6 0.000000 0.000000 0.000000 0.000000 0.000000 0.167767
#
#
# Mechanical properties :
#
#
# Convention : Reuss Voigt Hill
#
# Bulk Modulus (GPa) = 54.18059 55.04693 54.61376
# Shear Modulus (GPa) = 25.61964 15.56472 20.59218
#
# Velocity S-wave (km/s) = 3.68460 2.87193 3.30335
# Velocity P-wave (km/s) = 6.84199 6.33779 6.59471
#
# Compressibility (1/GPa) = 0.01845679
#
# Stress axis : x y z
#
# Youngs Moduli (GPa) = 79.30270 71.51897 86.17168
#
# Poissons Ratio (x) = 0.31809 0.31279
# Poissons Ratio (y) = 0.35271 0.15447
# Poissons Ratio (z) = 0.28786 0.12820
#
# Static dielectric constant tensor:
#      x y z
#    x 1.725830 0.000000 0.000000 
#    y 0.000000 1.698490 0.000000 
#    z 0.000000 0.000000 1.805770 
# 
# From -- ./inp_files/15801.got.cif
#   From: 2010.05.17/outbox.cif.g08.bks.cpg/sg68_8_cif.got.tgz:15801.got - 2010.06.03 18:57:09.
