data_PCOD9507570
_publ_section_title
;
Structure prediction by ZEFSAII (Michael W. Deem and Ramdas Pophale) SiO2 
 PCOD9507570
Probable space group: C C C A
;
_chemical_formula_sum "Si O2"
_cell_formula_units_Z 116
_cell_length_a 24.580270
_cell_length_b 26.055051
_cell_length_c 8.651182
_cell_angle_alpha 90.000000
_cell_angle_beta 90.000000
_cell_angle_gamma 90.000000
_cell_volume 5540.564630
_symmetry_space_group_name_H-M "C C C A"
_symmetry_group_IT_number 68
_space_group.IT_coordinate_system_code '2'
_symmetry_cell_setting 'orthorhombic'
loop_
_space_group_symop_operation_xyz
x,y,z
-x,1/2-y,z
x,1/2-y,1/2-z
-x,y,1/2-z
-x,-y,-z
x,1/2+y,-z
-x,1/2+y,1/2+z
x,-y,1/2+z
1/2+x,1/2+y,z
1/2-x,-y,z
1/2+x,-y,1/2-z
1/2-x,1/2+y,1/2-z
1/2-x,1/2-y,-z
1/2+x,y,-z
1/2-x,y,1/2+z
1/2+x,1/2-y,1/2+z
loop_
_atom_site_type_symbol
_atom_site_label
_atom_site_fract_x
_atom_site_fract_y
_atom_site_fract_z
Si Si1 0.288900 0.298888 0.013180
Si Si2 0.560732 0.179989 0.702371
Si Si3 0.719109 0.869846 0.231816
Si Si4 0.130344 0.519630 0.983430
Si Si5 0.104549 0.574588 0.686626
Si Si6 0.500000 0.250000 0.250000
Si Si7 0.293814 0.959604 0.754645
Si Si8 0.908075 0.774402 0.012572
O O1 0.255809 0.341604 0.106171
O O2 0.250000 0.250000 0.000000
O O3 0.297369 0.324845 0.847154
O O4 0.347646 0.282181 0.079542
O O5 0.500000 0.194055 0.750000
O O6 0.565705 0.121726 0.647629
O O7 0.588436 0.186245 0.869662
O O8 0.584301 0.219330 0.575141
O O9 0.665568 0.900662 0.176692
O O10 0.759682 0.911822 0.305180
O O11 0.099711 0.474870 0.077051
O O12 0.163608 0.552584 0.109275
O O13 0.098040 0.554476 0.862439
O O14 0.173435 0.489094 0.877047
O O15 0.457437 0.220781 0.364566
O O16 0.250000 0.000000 0.820131
#
# Coordination Sequence:
#
# PCOD9507570 Si02
#       8
#    16  16  16  16  16   4  16  16
#     4  12  27  41  57  95 141 181 208 265 327 404
#     4  11  22  47  72  93 117 181 220 271 332 414
#     4  12  23  37  59  90 130 180 217 246 325 395
#     4  10  21  36  56  91 125 169 208 268 315 372
#     4  11  22  39  65  91 130 169 224 264 321 400
#     4  12  24  46  72 104 116 162 224 310 332 342
#     4  11  20  32  57  83 127 164 215 258 298 371
#     4  11  24  45  71  96 136 165 231 277 331 393
#
# _framework density 20.936492999999999
#
# number of rings (size 3 to 8) (size 9 to 14) (size 15 to 20)
#    0.000    0.828    5.517    3.724    3.862    0.000 
#    0.000    0.690    0.000    0.000    0.000    0.000 
#    0.000    0.000    0.000    0.000    0.000    0.000 
#
# Total GULP energy -323726.851198 kJ/mol
# GULP energy per Si atom -5581.497434 kJ/mol
# Density = 2.088884 g / cm^3
# Si number density = 20.936493 Si / 1000 Ang^3
#
#
#
# Elastic Constant Matrix: (Units=GPa)
#
#
# Indices 1 2 3 4 5 6 
#
# 1 63.8468 11.5039 14.2274 0.0000 0.0000 0.0000
# 2 11.5039 92.8586 2.6255 0.0000 0.0000 0.0000
# 3 14.2274 2.6255 69.3677 0.0000 0.0000 0.0000
# 4 0.0000 0.0000 0.0000 27.2913 0.0000 0.0000
# 5 0.0000 0.0000 0.0000 0.0000 14.8028 0.0000
# 6 0.0000 0.0000 0.0000 0.0000 0.0000 21.4781
#
#
#
# Elastic Compliance Matrix: (Units=1/GPa)
#
#
# Indices 1 2 3 4 5 6 
#
# 1 0.016769 -0.001982 -0.003364 0.000000 0.000000 0.000000
# 2 -0.001982 0.011015 -0.000010 0.000000 0.000000 0.000000
# 3 -0.003364 -0.000010 0.015106 0.000000 0.000000 0.000000
# 4 0.000000 0.000000 0.000000 0.036642 0.000000 0.000000
# 5 0.000000 0.000000 0.000000 0.000000 0.067555 0.000000
# 6 0.000000 0.000000 0.000000 0.000000 0.000000 0.046559
#
#
# Mechanical properties :
#
#
# Convention : Reuss Voigt Hill
#
# Bulk Modulus (GPa) = 31.07854 31.42073 31.24964
# Shear Modulus (GPa) = 23.24655 25.89555 24.57105
#
# Velocity S-wave (km/s) = 3.33579 3.52072 3.42950
# Velocity P-wave (km/s) = 5.45097 5.61850 5.53537
#
# Compressibility (1/GPa) = 0.03217654
#
# Stress axis : x y z
#
# Youngs Moduli (GPa) = 59.63253 90.78574 66.19730
#
# Poissons Ratio (x) = 0.17997 0.22271
# Poissons Ratio (y) = 0.11821 0.00068
# Poissons Ratio (z) = 0.20063 0.00094
#
# Static dielectric constant tensor:
#      x y z
#    x 1.678420 0.000000 0.000000 
#    y 0.000000 1.785620 0.000000 
#    z 0.000000 0.000000 1.788140 
# 
# From -- ./inp_files/8339.got.cif
#   From: 2010.05.17/outbox.cif.g08.bks.cpg/sg68_5_cif.got.tgz:8339.got - 2010.06.03 18:57:09.
