data_PCOD9507566
_publ_section_title
;
Structure prediction by ZEFSAII (Michael W. Deem and Ramdas Pophale) SiO2 
 PCOD9507566
Probable space group: C C C A
;
_chemical_formula_sum "Si O2"
_cell_formula_units_Z 72
_cell_length_a 27.119001
_cell_length_b 5.358598
_cell_length_c 22.339755
_cell_angle_alpha 90.000000
_cell_angle_beta 90.000000
_cell_angle_gamma 90.000000
_cell_volume 3246.409276
_symmetry_space_group_name_H-M "C C C A"
_symmetry_group_IT_number 68
_space_group.IT_coordinate_system_code '2'
_symmetry_cell_setting 'orthorhombic'
loop_
_space_group_symop_operation_xyz
x,y,z
-x,1/2-y,z
x,1/2-y,1/2-z
-x,y,1/2-z
-x,-y,-z
x,1/2+y,-z
-x,1/2+y,1/2+z
x,-y,1/2+z
1/2+x,1/2+y,z
1/2-x,-y,z
1/2+x,-y,1/2-z
1/2-x,1/2+y,1/2-z
1/2-x,1/2-y,-z
1/2+x,y,-z
1/2-x,y,1/2+z
1/2+x,1/2-y,1/2+z
loop_
_atom_site_type_symbol
_atom_site_label
_atom_site_fract_x
_atom_site_fract_y
_atom_site_fract_z
Si Si1 0.372522 0.250000 0.250000
Si Si2 0.441077 0.742882 0.037068
Si Si3 0.807571 0.962915 0.463302
Si Si4 0.875584 0.471851 0.136010
Si Si5 0.795404 0.621240 0.809040
O O1 0.398168 0.397866 0.304791
O O2 0.336113 0.432011 0.214729
O O3 0.500000 0.750000 0.046644
O O4 0.413677 0.803528 0.099122
O O5 0.429396 0.474981 0.007659
O O6 0.815844 0.746265 0.512898
O O7 0.750000 0.000000 0.444679
O O8 0.846500 0.868163 0.413457
O O9 0.828051 0.318587 0.157449
O O10 0.772264 0.750000 0.750000
O O11 0.750000 0.500000 0.843595
#
# Coordination Sequence:
#
# PCOD9507566 Si02
#       5
#     8  16  16  16  16
#     4  10  24  38  58  93 130 182 223 264 334 396
#     4  10  23  45  75 106 129 169 224 286 355 414
#     4  10  23  38  56  86 125 171 217 266 328 382
#     4  11  24  37  65  93 133 171 224 278 333 402
#     4  10  21  36  56  84 126 178 229 269 315 385
#
# _framework density 22.178346999999999
#
# number of rings (size 3 to 8) (size 9 to 14) (size 15 to 20)
#    0.000    1.778    1.111    1.333    9.333    0.889 
#    0.000    0.000    0.000    7.333    0.000    0.000 
#    0.000    0.000    0.000    0.000    0.000    0.000 
#
# Total GULP energy -200726.852979 kJ/mol
# GULP energy per Si atom -5575.745916 kJ/mol
# Density = 2.212787 g / cm^3
# Si number density = 22.178347 Si / 1000 Ang^3
#
#
#
# Elastic Constant Matrix: (Units=GPa)
#
#
# Indices 1 2 3 4 5 6 
#
# 1 68.0395 18.9360 48.8776 0.0000 0.0000 0.0000
# 2 18.9360 85.6717 34.2465 0.0000 0.0000 0.0000
# 3 48.8776 34.2465 112.3753 0.0000 0.0000 0.0000
# 4 0.0000 0.0000 0.0000 39.5832 0.0000 0.0000
# 5 0.0000 0.0000 0.0000 0.0000 7.8818 0.0000
# 6 0.0000 0.0000 0.0000 0.0000 0.0000 26.4418
#
#
#
# Elastic Compliance Matrix: (Units=1/GPa)
#
#
# Indices 1 2 3 4 5 6 
#
# 1 0.021476 -0.001153 -0.008990 0.000000 0.000000 0.000000
# 2 -0.001153 0.013354 -0.003568 0.000000 0.000000 0.000000
# 3 -0.008990 -0.003568 0.013896 0.000000 0.000000 0.000000
# 4 0.000000 0.000000 0.000000 0.025263 0.000000 0.000000
# 5 0.000000 0.000000 0.000000 0.000000 0.126875 0.000000
# 6 0.000000 0.000000 0.000000 0.000000 0.000000 0.037819
#
#
# Mechanical properties :
#
#
# Convention : Reuss Voigt Hill
#
# Bulk Modulus (GPa) = 46.93897 52.24518 49.59208
# Shear Modulus (GPa) = 18.30119 25.71643 22.00881
#
# Velocity S-wave (km/s) = 2.87572 3.40888 3.15359
# Velocity P-wave (km/s) = 5.67773 6.25315 5.97237
#
# Compressibility (1/GPa) = 0.02130426
#
# Stress axis : x y z
#
# Youngs Moduli (GPa) = 46.56322 74.88599 71.96274
#
# Poissons Ratio (x) = 0.08637 0.64691
# Poissons Ratio (y) = 0.05370 0.25675
# Poissons Ratio (z) = 0.41858 0.26718
#
# Static dielectric constant tensor:
#      x y z
#    x 1.800890 0.000000 0.000000 
#    y 0.000000 1.485860 0.000000 
#    z 0.000000 0.000000 2.264610 
# 
# From -- ./inp_files/41091.got.cif
#   From: 2010.05.17/outbox.cif.g08.bks.cpg/sg68_21_cif.got.tgz:41091.got - 2010.06.03 18:57:09.
