data_PCOD9507599
_publ_section_title
;
Structure prediction by ZEFSAII (Michael W. Deem and Ramdas Pophale) SiO2 
 PCOD9507599
Probable space group: C C C A
;
_chemical_formula_sum "Si O2"
_cell_formula_units_Z 88
_cell_length_a 15.354785
_cell_length_b 26.679439
_cell_length_c 9.185476
_cell_angle_alpha 90.000000
_cell_angle_beta 90.000000
_cell_angle_gamma 90.000000
_cell_volume 3762.894999
_symmetry_space_group_name_H-M "C C C A"
_symmetry_group_IT_number 68
_space_group.IT_coordinate_system_code '2'
_symmetry_cell_setting 'orthorhombic'
loop_
_space_group_symop_operation_xyz
x,y,z
-x,1/2-y,z
x,1/2-y,1/2-z
-x,y,1/2-z
-x,-y,-z
x,1/2+y,-z
-x,1/2+y,1/2+z
x,-y,1/2+z
1/2+x,1/2+y,z
1/2-x,-y,z
1/2+x,-y,1/2-z
1/2-x,1/2+y,1/2-z
1/2-x,1/2-y,-z
1/2+x,y,-z
1/2-x,y,1/2+z
1/2+x,1/2-y,1/2+z
loop_
_atom_site_type_symbol
_atom_site_label
_atom_site_fract_x
_atom_site_fract_y
_atom_site_fract_z
Si Si1 0.094765 0.566118 0.812771
Si Si2 0.137223 0.889904 0.079256
Si Si3 0.948218 0.706697 0.095761
Si Si4 0.214959 0.750000 0.250000
Si Si5 0.146491 0.505127 0.540041
Si Si6 0.267441 0.141018 0.804207
O O1 0.131248 0.521752 0.705994
O O2 0.100281 0.543465 0.974012
O O3 0.156749 0.613472 0.786362
O O4 0.000000 0.576809 0.750000
O O5 0.215206 0.877434 0.966691
O O6 0.064239 0.849082 0.038930
O O7 0.113196 0.946549 0.050330
O O8 0.176157 0.878185 0.237543
O O9 0.852449 0.729348 0.127957
O O10 0.000000 0.750000 0.011658
O O11 0.000000 0.700891 0.250000
O O12 0.267835 0.701074 0.203914
O O13 0.250000 0.500000 0.516692
#
# Coordination Sequence:
#
# PCOD9507599 Si02
#       6
#    16  16  16   8  16  16
#     4  11  24  41  60  90 128 159 204 266 315 365
#     4  10  21  36  62  92 117 160 206 254 304 374
#     4   8  16  34  58  88 123 150 201 258 301 359
#     4   8  17  36  61  86 114 162 200 246 297 372
#     4  11  22  40  66  90 119 166 213 250 311 379
#     4  10  21  38  58  88 122 155 209 245 308 368
#
# _framework density 23.38625
#
# number of rings (size 3 to 8) (size 9 to 14) (size 15 to 20)
#    0.000    2.364    1.818    1.091    2.545    3.636 
#    0.000   15.000    0.000    0.000    0.000   11.455 
#    0.000    0.000    0.000    0.000    0.000    0.000 
#
# Total GULP energy -245688.849256 kJ/mol
# GULP energy per Si atom -5583.837483 kJ/mol
# Density = 2.333302 g / cm^3
# Si number density = 23.386250 Si / 1000 Ang^3
#
#
#
# Elastic Constant Matrix: (Units=GPa)
#
#
# Indices 1 2 3 4 5 6 
#
# 1 85.1854 41.2526 -0.0434 0.0000 0.0000 0.0000
# 2 41.2526 134.9869 20.9104 0.0000 0.0000 0.0000
# 3 -0.0434 20.9104 43.6688 0.0000 0.0000 0.0000
# 4 0.0000 0.0000 0.0000 20.8415 0.0000 0.0000
# 5 0.0000 0.0000 0.0000 0.0000 14.8727 0.0000
# 6 0.0000 0.0000 0.0000 0.0000 0.0000 39.4218
#
#
#
# Elastic Compliance Matrix: (Units=1/GPa)
#
#
# Indices 1 2 3 4 5 6 
#
# 1 0.013975 -0.004615 0.002224 0.000000 0.000000 0.000000
# 2 -0.004615 0.009526 -0.004566 0.000000 0.000000 0.000000
# 3 0.002224 -0.004566 0.025088 0.000000 0.000000 0.000000
# 4 0.000000 0.000000 0.000000 0.047981 0.000000 0.000000
# 5 0.000000 0.000000 0.000000 0.000000 0.067237 0.000000
# 6 0.000000 0.000000 0.000000 0.000000 0.000000 0.025367
#
#
# Mechanical properties :
#
#
# Convention : Reuss Voigt Hill
#
# Bulk Modulus (GPa) = 28.83956 43.12002 35.97979
# Shear Modulus (GPa) = 23.29395 28.47528 25.88462
#
# Velocity S-wave (km/s) = 3.15945 3.49321 3.33052
# Velocity P-wave (km/s) = 5.06638 5.89476 5.49620
#
# Compressibility (1/GPa) = 0.03467459
#
# Stress axis : x y z
#
# Youngs Moduli (GPa) = 71.55463 104.97666 39.85927
#
# Poissons Ratio (x) = 0.48451 -0.08865
# Poissons Ratio (y) = 0.33026 0.18200
# Poissons Ratio (z) = -0.15913 0.47932
#
# Static dielectric constant tensor:
#      x y z
#    x 1.899360 0.000000 0.000000 
#    y 0.000000 1.920250 0.000000 
#    z 0.000000 0.000000 1.925430 
# 
# From -- ./inp_files/13464.got.cif
#   From: 2010.05.17/outbox.cif.g08.bks.cpg/sg68_7_cif.got.tgz:13464.got - 2010.06.03 18:57:09.
