data_PCOD9507697
_publ_section_title
;
Structure prediction by ZEFSAII (Michael W. Deem and Ramdas Pophale) SiO2 
 PCOD9507697
Probable space group: C C C A
;
_chemical_formula_sum "Si O2"
_cell_formula_units_Z 52
_cell_length_a 12.880829
_cell_length_b 8.908405
_cell_length_c 21.592284
_cell_angle_alpha 90.000000
_cell_angle_beta 90.000000
_cell_angle_gamma 90.000000
_cell_volume 2477.663663
_symmetry_space_group_name_H-M "C C C A"
_symmetry_group_IT_number 68
_space_group.IT_coordinate_system_code '2'
_symmetry_cell_setting 'orthorhombic'
loop_
_space_group_symop_operation_xyz
x,y,z
-x,1/2-y,z
x,1/2-y,1/2-z
-x,y,1/2-z
-x,-y,-z
x,1/2+y,-z
-x,1/2+y,1/2+z
x,-y,1/2+z
1/2+x,1/2+y,z
1/2-x,-y,z
1/2+x,-y,1/2-z
1/2-x,1/2+y,1/2-z
1/2-x,1/2-y,-z
1/2+x,y,-z
1/2-x,y,1/2+z
1/2+x,1/2-y,1/2+z
loop_
_atom_site_type_symbol
_atom_site_label
_atom_site_fract_x
_atom_site_fract_y
_atom_site_fract_z
Si Si1 0.136081 0.922536 0.651907
Si Si2 0.793192 0.142001 0.079577
Si Si3 0.000000 0.750000 0.750000
Si Si4 0.100096 0.650292 0.456590
O O1 0.144325 0.763258 0.617157
O O2 0.070954 0.868017 0.710828
O O3 0.250000 0.000000 0.665282
O O4 0.087465 0.035332 0.600423
O O5 0.693852 0.238169 0.059360
O O6 0.750000 0.000000 0.116405
O O7 0.859298 0.080457 0.021157
O O8 0.000000 0.750000 0.467285
#
# Coordination Sequence:
#
# PCOD9507697 Si02
#       4
#    16  16   4  16
#     4  10  25  48  66  99 136 172 234 283 332 413
#     4  10  21  37  66 100 137 167 204 278 349 403
#     4  12  28  48  74  90 128 204 234 278 336 386
#     4  10  21  38  64 102 135 166 210 272 348 418
#
# _framework density 20.987514000000001
#
# number of rings (size 3 to 8) (size 9 to 14) (size 15 to 20)
#    0.000    1.846    0.000    4.615    6.462    3.692 
#    5.538    0.000    0.000    0.000    0.000    0.000 
#    0.000    0.000    0.000    0.000    0.000    0.000 
#
# Total GULP energy -144962.461473 kJ/mol
# GULP energy per Si atom -5575.479287 kJ/mol
# Density = 2.093975 g / cm^3
# Si number density = 20.987514 Si / 1000 Ang^3
#
#
#
# Elastic Constant Matrix: (Units=GPa)
#
#
# Indices 1 2 3 4 5 6 
#
# 1 75.1029 18.8353 56.2390 0.0000 0.0000 0.0000
# 2 18.8353 131.8401 56.0284 0.0000 0.0000 0.0000
# 3 56.2390 56.0284 88.8503 0.0000 0.0000 0.0000
# 4 0.0000 0.0000 0.0000 28.2390 0.0000 0.0000
# 5 0.0000 0.0000 0.0000 0.0000 33.3829 0.0000
# 6 0.0000 0.0000 0.0000 0.0000 0.0000 31.0456
#
#
#
# Elastic Compliance Matrix: (Units=1/GPa)
#
#
# Indices 1 2 3 4 5 6 
#
# 1 0.027292 0.004703 -0.020240 0.000000 0.000000 0.000000
# 2 0.004703 0.011172 -0.010021 0.000000 0.000000 0.000000
# 3 -0.020240 -0.010021 0.030386 0.000000 0.000000 0.000000
# 4 0.000000 0.000000 0.000000 0.035412 0.000000 0.000000
# 5 0.000000 0.000000 0.000000 0.000000 0.029955 0.000000
# 6 0.000000 0.000000 0.000000 0.000000 0.000000 0.032211
#
#
# Mechanical properties :
#
#
# Convention : Reuss Voigt Hill
#
# Bulk Modulus (GPa) = 56.39745 61.99985 59.19865
# Shear Modulus (GPa) = 22.37565 29.51288 25.94426
#
# Velocity S-wave (km/s) = 3.26872 3.75402 3.51974
# Velocity P-wave (km/s) = 6.41688 6.95670 6.69223
#
# Compressibility (1/GPa) = 0.01773130
#
# Stress axis : x y z
#
# Youngs Moduli (GPa) = 36.64049 89.50958 32.91011
#
# Poissons Ratio (x) = -0.42092 0.66611
# Poissons Ratio (y) = -0.17230 0.32981
# Poissons Ratio (z) = 0.74162 0.89702
#
# Static dielectric constant tensor:
#      x y z
#    x 1.799410 0.000000 0.000000 
#    y 0.000000 1.718150 0.000000 
#    z 0.000000 0.000000 1.832180 
# 
# From -- ./inp_files/35488.got.cif
#   From: 2010.05.17/outbox.cif.g08.bks.cpg/sg68_18_cif.got.tgz:35488.got - 2010.06.03 18:57:09.
