data_PCOD9507922
_publ_section_title
;
Structure prediction by ZEFSAII (Michael W. Deem and Ramdas Pophale) SiO2 
 PCOD9507922
Probable space group: C C C A
;
_chemical_formula_sum "Si O2"
_cell_formula_units_Z 96
_cell_length_a 18.297330
_cell_length_b 14.628408
_cell_length_c 15.413603
_cell_angle_alpha 90.000000
_cell_angle_beta 90.000000
_cell_angle_gamma 90.000000
_cell_volume 4125.617442
_symmetry_space_group_name_H-M "C C C A"
_symmetry_group_IT_number 68
_space_group.IT_coordinate_system_code '2'
_symmetry_cell_setting 'orthorhombic'
loop_
_space_group_symop_operation_xyz
x,y,z
-x,1/2-y,z
x,1/2-y,1/2-z
-x,y,1/2-z
-x,-y,-z
x,1/2+y,-z
-x,1/2+y,1/2+z
x,-y,1/2+z
1/2+x,1/2+y,z
1/2-x,-y,z
1/2+x,-y,1/2-z
1/2-x,1/2+y,1/2-z
1/2-x,1/2-y,-z
1/2+x,y,-z
1/2-x,y,1/2+z
1/2+x,1/2-y,1/2+z
loop_
_atom_site_type_symbol
_atom_site_label
_atom_site_fract_x
_atom_site_fract_y
_atom_site_fract_z
Si Si1 0.221274 0.360602 0.254654
Si Si2 0.438074 0.593971 0.312024
Si Si3 0.284036 0.120550 0.430064
Si Si4 0.029104 0.379289 0.841819
Si Si5 0.061480 0.417590 0.504971
Si Si6 0.185041 0.163359 0.580806
O O1 0.217526 0.250000 0.250000
O O2 0.139630 0.396441 0.266311
O O3 0.261718 0.397642 0.169239
O O4 0.265409 0.378072 0.342418
O O5 0.500000 0.634568 0.250000
O O6 0.456602 0.487289 0.325398
O O7 0.437004 0.630110 0.410906
O O8 0.353889 0.066094 0.468124
O O9 0.213689 0.116427 0.492992
O O10 0.304037 0.228270 0.430841
O O11 0.103743 0.347756 0.884911
O O12 0.000000 0.344548 0.750000
O O13 0.967930 0.361594 0.913566
O O14 0.000000 0.500000 0.500000
#
# Coordination Sequence:
#
# PCOD9507922 Si02
#       6
#    16  16  16  16  16  16
#     4  10  21  39  63  92 128 167 214 266 322 383
#     4  10  22  40  61  89 130 167 210 266 317 393
#     4  10  21  39  64  94 129 164 213 270 323 381
#     4  10  22  40  64  90 126 168 212 260 325 385
#     4  10  21  41  62  89 130 165 204 263 319 385
#     4  10  21  39  63  95 127 165 214 269 321 387
#
# _framework density 23.269244
#
# number of rings (size 3 to 8) (size 9 to 14) (size 15 to 20)
#    0.000    2.000    1.667    1.000    2.333    1.667 
#    0.000    2.500    0.000    0.000    0.000    0.000 
#    0.000    0.000    0.000    0.000    0.000    0.000 
#
# Total GULP energy -268068.753689 kJ/mol
# GULP energy per Si atom -5584.765702 kJ/mol
# Density = 2.321628 g / cm^3
# Si number density = 23.269244 Si / 1000 Ang^3
#
#
#
# Elastic Constant Matrix: (Units=GPa)
#
#
# Indices 1 2 3 4 5 6 
#
# 1 136.5740 30.3866 54.7481 0.0000 0.0000 0.0000
# 2 30.3866 51.9433 27.7717 0.0000 0.0000 0.0000
# 3 54.7481 27.7717 158.0796 0.0000 0.0000 0.0000
# 4 0.0000 0.0000 0.0000 -151.1428 0.0000 0.0000
# 5 0.0000 0.0000 0.0000 0.0000 51.0739 0.0000
# 6 0.0000 0.0000 0.0000 0.0000 0.0000 -13.4089
#
#
#
# Elastic Compliance Matrix: (Units=1/GPa)
#
#
# Indices 1 2 3 4 5 6 
#
# 1 0.009221 -0.004069 -0.002479 0.000000 0.000000 0.000000
# 2 -0.004069 0.023043 -0.002639 0.000000 0.000000 0.000000
# 3 -0.002479 -0.002639 0.007648 0.000000 0.000000 0.000000
# 4 0.000000 0.000000 0.000000 -0.006616 0.000000 0.000000
# 5 0.000000 0.000000 0.000000 0.000000 0.019579 0.000000
# 6 0.000000 0.000000 0.000000 0.000000 0.000000 -0.074577
#
#
# Mechanical properties :
#
#
# Convention : Reuss Voigt Hill
#
# Bulk Modulus (GPa) = 46.42812 63.60107 55.01459
# Shear Modulus (GPa) = 1298.41624 -7.11619 645.65002
#
# Velocity S-wave (km/s) = 23.64758 -1.75067 16.67548
# Velocity P-wave (km/s) = 27.66960 4.82758 19.86092
#
# Compressibility (1/GPa) = 0.02153867
#
# Stress axis : x y z
#
# Youngs Moduli (GPa) = 108.44839 43.39699 130.75311
#
# Poissons Ratio (x) = 0.17658 0.32409
# Poissons Ratio (y) = 0.44128 0.34506
# Poissons Ratio (z) = 0.26881 0.11453
#
# Static dielectric constant tensor:
#      x y z
#    x 1.939940 0.000000 0.000000 
#    y 0.000000 1.931030 0.000000 
#    z 0.000000 0.000000 1.881130 
# 
# From -- ./inp_files/22328.got.cif
#   From: 2010.05.17/outbox.cif.g08.bks.cpg/sg68_12_cif.got.tgz:22328.got - 2010.06.03 18:57:09.
