data_PCOD9507200
_publ_section_title
;
Structure prediction by ZEFSAII (Michael W. Deem and Ramdas Pophale) SiO2 
 PCOD9507200
Probable space group: C C C A
;
_chemical_formula_sum "Si O2"
_cell_formula_units_Z 108
_cell_length_a 28.938706
_cell_length_b 14.519326
_cell_length_c 11.778006
_cell_angle_alpha 90.000000
_cell_angle_beta 90.000000
_cell_angle_gamma 90.000000
_cell_volume 4948.770746
_symmetry_space_group_name_H-M "C C C A"
_symmetry_group_IT_number 68
_space_group.IT_coordinate_system_code '2'
_symmetry_cell_setting 'orthorhombic'
loop_
_space_group_symop_operation_xyz
x,y,z
-x,1/2-y,z
x,1/2-y,1/2-z
-x,y,1/2-z
-x,-y,-z
x,1/2+y,-z
-x,1/2+y,1/2+z
x,-y,1/2+z
1/2+x,1/2+y,z
1/2-x,-y,z
1/2+x,-y,1/2-z
1/2-x,1/2+y,1/2-z
1/2-x,1/2-y,-z
1/2+x,y,-z
1/2-x,y,1/2+z
1/2+x,1/2-y,1/2+z
loop_
_atom_site_type_symbol
_atom_site_label
_atom_site_fract_x
_atom_site_fract_y
_atom_site_fract_z
Si Si1 0.699540 0.883764 0.416272
Si Si2 0.194536 0.103288 0.624571
Si Si3 0.623943 0.887490 0.064401
Si Si4 0.647809 0.750000 0.250000
Si Si5 0.000000 0.250000 0.250000
Si Si6 0.641995 0.595416 0.857765
Si Si7 0.032085 0.397760 0.644242
Si Si8 0.975070 0.892136 0.568381
O O1 0.754284 0.864496 0.409683
O O2 0.677807 0.822526 0.319044
O O3 0.670453 0.869203 0.532200
O O4 0.694549 0.992079 0.387812
O O5 0.160472 0.140251 0.529241
O O6 0.172702 0.121446 0.748183
O O7 0.621129 0.809941 0.158763
O O8 0.574228 0.899113 0.006267
O O9 0.638666 0.984276 0.122151
O O10 0.973679 0.318444 0.332844
O O11 0.587257 0.621203 0.844905
O O12 0.021115 0.507371 0.626489
O O13 0.000000 0.366586 0.750000
O O14 0.013944 0.363724 0.521749
#
# Coordination Sequence:
#
# PCOD9507200 Si02
#       8
#    16  16  16   8   4  16  16  16
#     4  10  24  38  67  92 128 169 211 263 319 377
#     4  10  21  42  65  91 124 172 217 257 313 382
#     4  10  22  38  62  92 128 164 212 261 319 374
#     4  12  23  42  62  99 132 164 207 268 317 380
#     4  12  22  40  62  92 132 174 204 254 334 380
#     4  10  21  40  65  93 122 170 215 261 310 382
#     4  10  20  39  65  93 125 162 219 263 309 373
#     4  10  22  37  61  93 127 168 207 261 318 383
#
# _framework density 21.823601
#
# number of rings (size 3 to 8) (size 9 to 14) (size 15 to 20)
#    0.000    1.778    2.222    1.333    2.074    5.333 
#    0.000    0.370    0.000    3.556    0.000    0.000 
#    0.000    0.000    0.000    0.000    0.000    0.000 
#
# Total GULP energy -301317.063457 kJ/mol
# GULP energy per Si atom -5579.945620 kJ/mol
# Density = 2.177393 g / cm^3
# Si number density = 21.823601 Si / 1000 Ang^3
#
#
#
# Elastic Constant Matrix: (Units=GPa)
#
#
# Indices 1 2 3 4 5 6 
#
# 1 161.8355 8.3477 86.7893 0.0000 0.0000 0.0000
# 2 8.3477 43.3360 6.1192 0.0000 0.0000 0.0000
# 3 86.7893 6.1192 132.5147 0.0000 0.0000 0.0000
# 4 0.0000 0.0000 0.0000 33.3793 0.0000 0.0000
# 5 0.0000 0.0000 0.0000 0.0000 196.1381 0.0000
# 6 0.0000 0.0000 0.0000 0.0000 0.0000 221.3448
#
#
#
# Elastic Compliance Matrix: (Units=1/GPa)
#
#
# Indices 1 2 3 4 5 6 
#
# 1 0.009564 -0.000964 -0.006219 0.000000 0.000000 0.000000
# 2 -0.000964 0.023324 -0.000446 0.000000 0.000000 0.000000
# 3 -0.006219 -0.000446 0.011640 0.000000 0.000000 0.000000
# 4 0.000000 0.000000 0.000000 0.029959 0.000000 0.000000
# 5 0.000000 0.000000 0.000000 0.000000 0.005098 0.000000
# 6 0.000000 0.000000 0.000000 0.000000 0.000000 0.004518
#
#
# Mechanical properties :
#
#
# Convention : Reuss Voigt Hill
#
# Bulk Modulus (GPa) = 34.16437 60.02205 47.09321
# Shear Modulus (GPa) = 45.82160 105.93443 75.87801
#
# Velocity S-wave (km/s) = 4.58715 6.97471 5.90290
# Velocity P-wave (km/s) = 6.61398 9.61380 8.25136
#
# Compressibility (1/GPa) = 0.02927026
#
# Stress axis : x y z
#
# Youngs Moduli (GPa) = 104.55618 42.87402 85.90837
#
# Poissons Ratio (x) = 0.04134 0.53431
# Poissons Ratio (y) = 0.10081 0.03828
# Poissons Ratio (z) = 0.65029 0.01910
#
# Static dielectric constant tensor:
#      x y z
#    x 1.851980 0.000000 0.000000 
#    y 0.000000 1.808020 0.000000 
#    z 0.000000 0.000000 1.779410 
# 
# From -- ./inp_files/17835.got.cif
#   From: 2010.05.17/outbox.cif.g08.bks.cpg/sg68_9_cif.got.tgz:17835.got - 2010.06.03 18:57:09.
