data_PCOD9507236
_publ_section_title
;
Structure prediction by ZEFSAII (Michael W. Deem and Ramdas Pophale) SiO2 
 PCOD9507236
Probable space group: C C C A
;
_chemical_formula_sum "Si O2"
_cell_formula_units_Z 64
_cell_length_a 13.746394
_cell_length_b 20.196724
_cell_length_c 9.143852
_cell_angle_alpha 90.000000
_cell_angle_beta 90.000000
_cell_angle_gamma 90.000000
_cell_volume 2538.627067
_symmetry_space_group_name_H-M "C C C A"
_symmetry_group_IT_number 68
_space_group.IT_coordinate_system_code '2'
_symmetry_cell_setting 'orthorhombic'
loop_
_space_group_symop_operation_xyz
x,y,z
-x,1/2-y,z
x,1/2-y,1/2-z
-x,y,1/2-z
-x,-y,-z
x,1/2+y,-z
-x,1/2+y,1/2+z
x,-y,1/2+z
1/2+x,1/2+y,z
1/2-x,-y,z
1/2+x,-y,1/2-z
1/2-x,1/2+y,1/2-z
1/2-x,1/2-y,-z
1/2+x,y,-z
1/2-x,y,1/2+z
1/2+x,1/2-y,1/2+z
loop_
_atom_site_type_symbol
_atom_site_label
_atom_site_fract_x
_atom_site_fract_y
_atom_site_fract_z
Si Si1 0.750000 0.000000 0.180744
Si Si2 0.000000 0.250000 0.250000
Si Si3 0.457653 0.399795 0.405971
Si Si4 0.000000 0.250000 0.750000
Si Si5 0.857184 0.278797 0.506925
Si Si6 0.619583 0.452407 0.578693
O O1 0.807875 0.051490 0.284602
O O2 0.678115 0.038147 0.072053
O O3 0.921094 0.281856 0.360276
O O4 0.500000 0.375639 0.250000
O O5 0.365375 0.354363 0.437070
O O6 0.536015 0.400494 0.538501
O O7 0.429337 0.476164 0.390013
O O8 0.917649 0.235572 0.623406
O O9 0.750000 0.250000 0.500000
#
# Coordination Sequence:
#
# PCOD9507236 Si02
#       6
#     8   4  16   4  16  16
#     4  10  20  40  58 106 154 200 252 308 364 484
#     4  10  26  50  68 114 140 198 266 338 392 470
#     4  11  22  44  73 105 151 214 246 324 398 459
#     4  10  22  46  72  98 156 198 258 334 384 466
#     4  11  24  48  76 108 149 202 271 331 399 472
#     4  10  22  40  67 105 157 196 254 309 389 485
#
# _framework density 25.210477000000001
#
# number of rings (size 3 to 8) (size 9 to 14) (size 15 to 20)
#    0.000    1.500    3.750    0.750    0.000    2.000 
#   27.000    0.000    0.000    0.000    0.000    0.000 
#    0.000    0.000    0.000    0.000    0.000    0.000 
#
# Total GULP energy -178545.094486 kJ/mol
# GULP energy per Si atom -5579.534203 kJ/mol
# Density = 2.515310 g / cm^3
# Si number density = 25.210477 Si / 1000 Ang^3
#
#
#
# Elastic Constant Matrix: (Units=GPa)
#
#
# Indices 1 2 3 4 5 6 
#
# 1 202.4947 51.7005 68.7448 0.0000 0.0000 0.0000
# 2 51.7005 80.9526 27.4518 0.0000 0.0000 0.0000
# 3 68.7448 27.4518 146.7297 0.0000 0.0000 0.0000
# 4 0.0000 0.0000 0.0000 6.5108 0.0000 0.0000
# 5 0.0000 0.0000 0.0000 0.0000 65.5793 0.0000
# 6 0.0000 0.0000 0.0000 0.0000 0.0000 49.7422
#
#
#
# Elastic Compliance Matrix: (Units=1/GPa)
#
#
# Indices 1 2 3 4 5 6 
#
# 1 0.006649 -0.003406 -0.002478 0.000000 0.000000 0.000000
# 2 -0.003406 0.014935 -0.001198 0.000000 0.000000 0.000000
# 3 -0.002478 -0.001198 0.008200 0.000000 0.000000 0.000000
# 4 0.000000 0.000000 0.000000 0.153591 0.000000 0.000000
# 5 0.000000 0.000000 0.000000 0.000000 0.015249 0.000000
# 6 0.000000 0.000000 0.000000 0.000000 0.000000 0.020104
#
#
# Mechanical properties :
#
#
# Convention : Reuss Voigt Hill
#
# Bulk Modulus (GPa) = 64.02331 80.66347 72.34339
# Shear Modulus (GPa) = 20.99967 43.18511 32.09239
#
# Velocity S-wave (km/s) = 2.88926 4.14331 3.57175
# Velocity P-wave (km/s) = 6.04823 7.41315 6.76520
#
# Compressibility (1/GPa) = 0.01561931
#
# Stress axis : x y z
#
# Youngs Moduli (GPa) = 150.39067 66.95827 121.94498
#
# Poissons Ratio (x) = 0.22808 0.30218
# Poissons Ratio (y) = 0.51227 0.14612
# Poissons Ratio (z) = 0.37267 0.08023
#
# Static dielectric constant tensor:
#      x y z
#    x 2.151530 0.000000 0.000000 
#    y 0.000000 1.385150 0.000000 
#    z 0.000000 0.000000 1.989700 
# 
# From -- ./inp_files/5069.got.cif
#   From: 2010.05.17/outbox.cif.g08.bks.cpg/sg68_3_cif.got.tgz:5069.got - 2010.06.03 18:57:09.
