data_PCOD9507554
_publ_section_title
;
Structure prediction by ZEFSAII (Michael W. Deem and Ramdas Pophale) SiO2 
 PCOD9507554
Probable space group: C C C A
;
_chemical_formula_sum "Si O2"
_cell_formula_units_Z 64
_cell_length_a 5.251075
_cell_length_b 14.623366
_cell_length_c 34.045741
_cell_angle_alpha 90.000000
_cell_angle_beta 90.000000
_cell_angle_gamma 90.000000
_cell_volume 2614.317693
_symmetry_space_group_name_H-M "C C C A"
_symmetry_group_IT_number 68
_space_group.IT_coordinate_system_code '2'
_symmetry_cell_setting 'orthorhombic'
loop_
_space_group_symop_operation_xyz
x,y,z
-x,1/2-y,z
x,1/2-y,1/2-z
-x,y,1/2-z
-x,-y,-z
x,1/2+y,-z
-x,1/2+y,1/2+z
x,-y,1/2+z
1/2+x,1/2+y,z
1/2-x,-y,z
1/2+x,-y,1/2-z
1/2-x,1/2+y,1/2-z
1/2-x,1/2-y,-z
1/2+x,y,-z
1/2-x,y,1/2+z
1/2+x,1/2-y,1/2+z
loop_
_atom_site_type_symbol
_atom_site_label
_atom_site_fract_x
_atom_site_fract_y
_atom_site_fract_z
Si Si1 0.574424 0.146436 0.139544
Si Si2 0.251780 0.889348 0.773885
Si Si3 0.071281 0.853811 0.608942
Si Si4 0.741845 0.610654 0.522535
O O1 0.500000 0.250000 0.128000
O O2 0.703907 0.145344 0.182145
O O3 0.291509 0.103974 0.136559
O O4 0.789582 0.103220 0.111670
O O5 0.500000 0.861030 0.750000
O O6 0.000000 0.861295 0.750000
O O7 0.250000 0.000000 0.776409
O O8 0.183483 0.854913 0.565433
O O9 0.000000 0.750000 0.620722
O O10 0.750000 0.500000 0.524514
O O11 0.463749 0.638926 0.507738
#
# Coordination Sequence:
#
# PCOD9507554 Si02
#       4
#    16  16  16  16
#     4  10  21  37  55  80 111 142 181 227 273 326
#     4  10  21  37  57  82 111 144 184 228 275 331
#     4  10  21  36  55  79 108 142 181 224 271 326
#     4  10  21  36  54  79 109 140 179 225 271 324
#
# _framework density 24.480575999999999
#
# number of rings (size 3 to 8) (size 9 to 14) (size 15 to 20)
#    0.000    2.000    0.000    3.000    0.000    3.500 
#    0.000    1.250    0.000    0.000    0.000    0.000 
#    0.000    0.000    0.000    0.000    0.000    0.000 
#
# Total GULP energy -178832.631526 kJ/mol
# GULP energy per Si atom -5588.519735 kJ/mol
# Density = 2.442486 g / cm^3
# Si number density = 24.480576 Si / 1000 Ang^3
#
#
#
# Elastic Constant Matrix: (Units=GPa)
#
#
# Indices 1 2 3 4 5 6 
#
# 1 243.7171 23.7087 72.0875 0.0000 0.0000 0.0000
# 2 23.7087 80.7447 3.4889 0.0000 0.0000 0.0000
# 3 72.0875 3.4889 137.8222 0.0000 0.0000 0.0000
# 4 0.0000 0.0000 0.0000 40.2800 0.0000 0.0000
# 5 0.0000 0.0000 0.0000 0.0000 63.4255 0.0000
# 6 0.0000 0.0000 0.0000 0.0000 0.0000 -23.8769
#
#
#
# Elastic Compliance Matrix: (Units=1/GPa)
#
#
# Indices 1 2 3 4 5 6 
#
# 1 0.004998 -0.001356 -0.002580 0.000000 0.000000 0.000000
# 2 -0.001356 0.012766 0.000386 0.000000 0.000000 0.000000
# 3 -0.002580 0.000386 0.008595 0.000000 0.000000 0.000000
# 4 0.000000 0.000000 0.000000 0.024826 0.000000 0.000000
# 5 0.000000 0.000000 0.000000 0.000000 0.015767 0.000000
# 6 0.000000 0.000000 0.000000 0.000000 0.000000 -0.041881
#
#
# Mechanical properties :
#
#
# Convention : Reuss Voigt Hill
#
# Bulk Modulus (GPa) = 51.92128 73.42824 62.67476
# Shear Modulus (GPa) = 129.56448 40.16563 84.86505
#
# Velocity S-wave (km/s) = 7.28288 4.05497 5.89420
# Velocity P-wave (km/s) = 9.59039 7.20994 8.48407
#
# Compressibility (1/GPa) = 0.01925992
#
# Stress axis : x y z
#
# Youngs Moduli (GPa) = 200.07447 78.33178 116.34162
#
# Poissons Ratio (x) = 0.10623 0.30015
# Poissons Ratio (y) = 0.27132 -0.04492
# Poissons Ratio (z) = 0.51618 -0.03025
#
# Static dielectric constant tensor:
#      x y z
#    x 2.096270 0.000000 0.000000 
#    y 0.000000 1.993390 0.000000 
#    z 0.000000 0.000000 1.943660 
# 
# From -- ./inp_files/42039.got.cif
#   From: 2010.05.17/outbox.cif.g08.bks.cpg/sg68_22_cif.got.tgz:42039.got - 2010.06.03 18:57:09.
