data_PCOD9507696
_publ_section_title
;
Structure prediction by ZEFSAII (Michael W. Deem and Ramdas Pophale) SiO2 
 PCOD9507696
Probable space group: C C C A
;
_chemical_formula_sum "Si O2"
_cell_formula_units_Z 104
_cell_length_a 18.843706
_cell_length_b 21.935752
_cell_length_c 12.990736
_cell_angle_alpha 90.000000
_cell_angle_beta 90.000000
_cell_angle_gamma 90.000000
_cell_volume 5369.731918
_symmetry_space_group_name_H-M "C C C A"
_symmetry_group_IT_number 68
_space_group.IT_coordinate_system_code '2'
_symmetry_cell_setting 'orthorhombic'
loop_
_space_group_symop_operation_xyz
x,y,z
-x,1/2-y,z
x,1/2-y,1/2-z
-x,y,1/2-z
-x,-y,-z
x,1/2+y,-z
-x,1/2+y,1/2+z
x,-y,1/2+z
1/2+x,1/2+y,z
1/2-x,-y,z
1/2+x,-y,1/2-z
1/2-x,1/2+y,1/2-z
1/2-x,1/2-y,-z
1/2+x,y,-z
1/2-x,y,1/2+z
1/2+x,1/2-y,1/2+z
loop_
_atom_site_type_symbol
_atom_site_label
_atom_site_fract_x
_atom_site_fract_y
_atom_site_fract_z
Si Si1 0.000000 0.652359 0.250000
Si Si2 0.208378 0.435847 0.440718
Si Si3 0.323991 0.036971 0.787293
Si Si4 0.179716 0.357085 0.045825
Si Si5 0.698622 0.298269 0.340353
Si Si6 0.880427 0.083038 0.644953
Si Si7 0.926297 0.777765 0.428570
O O1 0.955922 0.613051 0.332033
O O2 0.947170 0.693080 0.181784
O O3 0.250000 0.500000 0.453631
O O4 0.177351 0.435477 0.326524
O O5 0.268240 0.384734 0.458774
O O6 0.148767 0.427470 0.529115
O O7 0.333046 0.088495 0.873159
O O8 0.250000 0.000000 0.803343
O O9 0.379051 0.981947 0.799466
O O10 0.227511 0.305835 0.100798
O O11 0.109267 0.329014 0.998606
O O12 0.706096 0.250000 0.250000
O O13 0.675529 0.367119 0.309603
O O14 0.633943 0.273282 0.410387
O O15 0.000000 0.750000 0.468968
#
# Coordination Sequence:
#
# PCOD9507696 Si02
#       7
#     8  16  16  16  16  16  16
#     4  12  25  40  70  92 132 182 219 274 320 400
#     4  10  21  37  66 100 133 167 211 284 335 395
#     4  11  21  40  65 100 136 168 218 275 345 399
#     4  11  24  40  67 102 129 170 229 279 340 391
#     4  11  21  39  66 100 129 163 223 283 334 393
#     4  11  21  41  63  98 132 172 222 270 333 391
#     4  12  24  43  63  96 132 176 225 277 329 396
#
# _framework density 19.367819000000001
#
# number of rings (size 3 to 8) (size 9 to 14) (size 15 to 20)
#    0.000    0.923    7.692    0.692    6.462    0.000 
#    0.000    3.077    0.000    2.308    0.000    0.000 
#    0.000    0.000    0.000    0.000    0.000    0.000 
#
# Total GULP energy -290376.559891 kJ/mol
# GULP energy per Si atom -5584.164613 kJ/mol
# Density = 1.932374 g / cm^3
# Si number density = 19.367819 Si / 1000 Ang^3
#
#
#
# Elastic Constant Matrix: (Units=GPa)
#
#
# Indices 1 2 3 4 5 6 
#
# 1 83.4378 43.8435 43.0439 0.0000 0.0000 0.0000
# 2 43.8435 109.9238 67.7447 0.0000 0.0000 0.0000
# 3 43.0439 67.7447 121.5025 0.0000 0.0000 0.0000
# 4 0.0000 0.0000 0.0000 30.9047 0.0000 0.0000
# 5 0.0000 0.0000 0.0000 0.0000 29.3631 0.0000
# 6 0.0000 0.0000 0.0000 0.0000 0.0000 30.9658
#
#
#
# Elastic Compliance Matrix: (Units=1/GPa)
#
#
# Indices 1 2 3 4 5 6 
#
# 1 0.015941 -0.004384 -0.003203 0.000000 0.000000 0.000000
# 2 -0.004384 0.015065 -0.006847 0.000000 0.000000 0.000000
# 3 -0.003203 -0.006847 0.013182 0.000000 0.000000 0.000000
# 4 0.000000 0.000000 0.000000 0.032358 0.000000 0.000000
# 5 0.000000 0.000000 0.000000 0.000000 0.034056 0.000000
# 6 0.000000 0.000000 0.000000 0.000000 0.000000 0.032294
#
#
# Mechanical properties :
#
#
# Convention : Reuss Voigt Hill
#
# Bulk Modulus (GPa) = 65.26882 69.34759 67.30820
# Shear Modulus (GPa) = 28.26921 28.92886 28.59903
#
# Velocity S-wave (km/s) = 3.82461 3.86898 3.84686
# Velocity P-wave (km/s) = 7.29906 7.47275 7.38642
#
# Compressibility (1/GPa) = 0.01532125
#
# Stress axis : x y z
#
# Youngs Moduli (GPa) = 62.73119 66.37731 75.85905
#
# Poissons Ratio (x) = 0.29102 0.24297
# Poissons Ratio (y) = 0.27503 0.51938
# Poissons Ratio (z) = 0.20092 0.45446
#
# Static dielectric constant tensor:
#      x y z
#    x 1.690840 0.000000 0.000000 
#    y 0.000000 1.720370 0.000000 
#    z 0.000000 0.000000 1.700880 
# 
# From -- ./inp_files/23804.got.cif
#   From: 2010.05.17/outbox.cif.g08.bks.cpg/sg68_12_cif.got.tgz:23804.got - 2010.06.03 18:57:09.
