data_PCOD9507089
_publ_section_title
;
Structure prediction by ZEFSAII (Michael W. Deem and Ramdas Pophale) SiO2 
 PCOD9507089
Probable space group: C C C A
;
_chemical_formula_sum "Si O2"
_cell_formula_units_Z 96
_cell_length_a 14.602031
_cell_length_b 15.310078
_cell_length_c 21.513038
_cell_angle_alpha 90.000000
_cell_angle_beta 90.000000
_cell_angle_gamma 90.000000
_cell_volume 4809.416774
_symmetry_space_group_name_H-M "C C C A"
_symmetry_group_IT_number 68
_space_group.IT_coordinate_system_code '2'
_symmetry_cell_setting 'orthorhombic'
loop_
_space_group_symop_operation_xyz
x,y,z
-x,1/2-y,z
x,1/2-y,1/2-z
-x,y,1/2-z
-x,-y,-z
x,1/2+y,-z
-x,1/2+y,1/2+z
x,-y,1/2+z
1/2+x,1/2+y,z
1/2-x,-y,z
1/2+x,-y,1/2-z
1/2-x,1/2+y,1/2-z
1/2-x,1/2-y,-z
1/2+x,y,-z
1/2-x,y,1/2+z
1/2+x,1/2-y,1/2+z
loop_
_atom_site_type_symbol
_atom_site_label
_atom_site_fract_x
_atom_site_fract_y
_atom_site_fract_z
Si Si1 0.454551 0.904696 0.506241
Si Si2 0.648539 0.849489 0.535445
Si Si3 0.898174 0.123961 0.135421
Si Si4 0.175132 0.702535 0.806675
Si Si5 0.783324 0.335583 0.578812
Si Si6 0.750000 0.000000 0.605799
Si Si7 0.500000 0.895667 0.250000
O O1 0.540000 0.847067 0.528637
O O2 0.423488 0.878253 0.436991
O O3 0.367603 0.893525 0.552245
O O4 0.500000 0.000000 0.500000
O O5 0.699503 0.845656 0.469274
O O6 0.683735 0.765300 0.573235
O O7 0.681374 0.940705 0.565374
O O8 0.878429 0.224051 0.152969
O O9 0.805677 0.070034 0.144150
O O10 0.968410 0.074018 0.181320
O O11 0.227545 0.750000 0.750000
O O12 0.241936 0.650669 0.852669
O O13 0.093517 0.652146 0.771700
#
# Coordination Sequence:
#
# PCOD9507089 Si02
#       7
#    16  16  16  16  16   8   8
#     4  12  23  37  61  91 130 167 204 270 330 395
#     4  11  21  36  57  89 121 163 206 258 328 391
#     4  11  20  38  60  88 125 167 205 261 329 385
#     4  10  20  38  64  91 122 158 218 272 317 386
#     4  11  21  37  60  92 122 160 216 266 326 392
#     4  12  20  38  60  82 132 170 196 262 340 392
#     4  10  23  40  68 100 120 167 228 275 320 388
#
# _framework density 19.960840999999999
#
# number of rings (size 3 to 8) (size 9 to 14) (size 15 to 20)
#    0.000    1.000    5.000    4.750    0.000    1.333 
#    0.000    3.333    0.000    3.000    0.000    0.000 
#    0.000    0.000    0.000    0.000    0.000    0.000 
#
# Total GULP energy -267452.587289 kJ/mol
# GULP energy per Si atom -5571.928902 kJ/mol
# Density = 1.991541 g / cm^3
# Si number density = 19.960841 Si / 1000 Ang^3
#
#
#
# Elastic Constant Matrix: (Units=GPa)
#
#
# Indices 1 2 3 4 5 6 
#
# 1 103.7856 0.7111 45.1926 0.0000 0.0000 0.0000
# 2 0.7111 41.0362 0.2717 0.0000 0.0000 0.0000
# 3 45.1926 0.2717 93.6301 0.0000 0.0000 0.0000
# 4 0.0000 0.0000 0.0000 -1.2750 0.0000 0.0000
# 5 0.0000 0.0000 0.0000 0.0000 43.5710 0.0000
# 6 0.0000 0.0000 0.0000 0.0000 0.0000 30.3422
#
#
#
# Elastic Compliance Matrix: (Units=1/GPa)
#
#
# Indices 1 2 3 4 5 6 
#
# 1 0.012200 -0.000172 -0.005888 0.000000 0.000000 0.000000
# 2 -0.000172 0.024372 0.000013 0.000000 0.000000 0.000000
# 3 -0.005888 0.000013 0.013522 0.000000 0.000000 0.000000
# 4 0.000000 0.000000 0.000000 -0.784323 0.000000 0.000000
# 5 0.000000 0.000000 0.000000 0.000000 0.022951 0.000000
# 6 0.000000 0.000000 0.000000 0.000000 0.000000 0.032957
#
#
# Mechanical properties :
#
#
# Convention : Reuss Voigt Hill
#
# Bulk Modulus (GPa) = 26.31717 36.75586 31.53651
# Shear Modulus (GPa) = -7.65044 27.34607 9.84782
#
# Velocity S-wave (km/s) = -1.95986 3.70535 2.22357
# Velocity P-wave (km/s) = 2.84458 6.06301 4.73560
#
# Compressibility (1/GPa) = 0.03799801
#
# Stress axis : x y z
#
# Youngs Moduli (GPa) = 81.96420 41.03132 73.95133
#
# Poissons Ratio (x) = 0.00708 0.43545
# Poissons Ratio (y) = 0.01413 -0.00093
# Poissons Ratio (z) = 0.48263 -0.00051
#
# Static dielectric constant tensor:
#      x y z
#    x 1.737950 0.000000 0.000000 
#    y 0.000000 1.765950 0.000000 
#    z 0.000000 0.000000 1.763960 
# 
# From -- ./inp_files/38599.got.cif
#   From: 2010.05.17/outbox.cif.g08.bks.cpg/sg68_20_cif.got.tgz:38599.got - 2010.06.03 18:57:09.
