data_PCOD9507565
_publ_section_title
;
Structure prediction by ZEFSAII (Michael W. Deem and Ramdas Pophale) SiO2 
 PCOD9507565
Probable space group: C C C A
;
_chemical_formula_sum "Si O2"
_cell_formula_units_Z 56
_cell_length_a 33.594362
_cell_length_b 5.083699
_cell_length_c 15.687436
_cell_angle_alpha 90.000000
_cell_angle_beta 90.000000
_cell_angle_gamma 90.000000
_cell_volume 2679.157179
_symmetry_space_group_name_H-M "C C C A"
_symmetry_group_IT_number 68
_space_group.IT_coordinate_system_code '2'
_symmetry_cell_setting 'orthorhombic'
loop_
_space_group_symop_operation_xyz
x,y,z
-x,1/2-y,z
x,1/2-y,1/2-z
-x,y,1/2-z
-x,-y,-z
x,1/2+y,-z
-x,1/2+y,1/2+z
x,-y,1/2+z
1/2+x,1/2+y,z
1/2-x,-y,z
1/2+x,-y,1/2-z
1/2-x,1/2+y,1/2-z
1/2-x,1/2-y,-z
1/2+x,y,-z
1/2-x,y,1/2+z
1/2+x,1/2-y,1/2+z
loop_
_atom_site_type_symbol
_atom_site_label
_atom_site_fract_x
_atom_site_fract_y
_atom_site_fract_z
Si Si1 0.874463 0.234748 0.147402
Si Si2 0.955713 0.770031 0.942489
Si Si3 0.250000 0.500000 0.937655
Si Si4 0.671944 0.774150 0.852393
O O1 0.873007 0.250000 0.250000
O O2 0.919236 0.191480 0.117471
O O3 0.861159 0.520979 0.116435
O O4 0.842585 0.013733 0.117258
O O5 0.000000 0.750000 0.903630
O O6 0.953106 0.564762 0.020915
O O7 0.287332 0.583618 0.879482
O O8 0.250000 0.750000 0.000000
O O9 0.672647 0.750000 0.750000
#
# Coordination Sequence:
#
# PCOD9507565 Si02
#       4
#    16  16   8  16
#     4  10  21  38  60  85 112 150 198 240 285 347
#     4  10  21  36  56  84 117 153 190 233 292 352
#     4  12  26  40  60  92 120 148 198 250 294 350
#     4  10  23  41  60  83 116 156 193 236 298 359
#
# _framework density 20.902094000000002
#
# number of rings (size 3 to 8) (size 9 to 14) (size 15 to 20)
#    0.000    1.714    0.000    3.429    0.000   12.000 
#    0.000    0.000    0.000   10.286    0.000    0.000 
#    0.000    0.000    0.000    0.000    0.000    0.000 
#
# Total GULP energy -156094.348867 kJ/mol
# GULP energy per Si atom -5574.798174 kJ/mol
# Density = 2.085452 g / cm^3
# Si number density = 20.902094 Si / 1000 Ang^3
#
#
#
# Elastic Constant Matrix: (Units=GPa)
#
#
# Indices 1 2 3 4 5 6 
#
# 1 154.7556 39.8453 29.2174 0.0000 0.0000 0.0000
# 2 39.8453 136.2240 25.4053 0.0000 0.0000 0.0000
# 3 29.2174 25.4053 17.3474 0.0000 0.0000 0.0000
# 4 0.0000 0.0000 0.0000 16.5077 0.0000 0.0000
# 5 0.0000 0.0000 0.0000 0.0000 34.9176 0.0000
# 6 0.0000 0.0000 0.0000 0.0000 0.0000 32.6265
#
#
#
# Elastic Compliance Matrix: (Units=1/GPa)
#
#
# Indices 1 2 3 4 5 6 
#
# 1 0.009482 0.000282 -0.016384 0.000000 0.000000 0.000000
# 2 0.000282 0.010108 -0.015277 0.000000 0.000000 0.000000
# 3 -0.016384 -0.015277 0.107613 0.000000 0.000000 0.000000
# 4 0.000000 0.000000 0.000000 0.060578 0.000000 0.000000
# 5 0.000000 0.000000 0.000000 0.000000 0.028639 0.000000
# 6 0.000000 0.000000 0.000000 0.000000 0.000000 0.030650
#
#
# Mechanical properties :
#
#
# Convention : Reuss Voigt Hill
#
# Bulk Modulus (GPa) = 15.51709 55.25146 35.38427
# Shear Modulus (GPa) = 15.09165 31.06762 23.07963
#
# Velocity S-wave (km/s) = 2.68995 3.85949 3.32652
# Velocity P-wave (km/s) = 4.13371 6.80821 5.63202
#
# Compressibility (1/GPa) = 0.06444509
#
# Stress axis : x y z
#
# Youngs Moduli (GPa) = 105.45861 98.93596 9.29256
#
# Poissons Ratio (x) = -0.02789 0.15225
# Poissons Ratio (y) = -0.02973 0.14196
# Poissons Ratio (z) = 1.72779 1.51147
#
# Static dielectric constant tensor:
#      x y z
#    x 1.803010 0.000000 0.000000 
#    y 0.000000 1.746400 0.000000 
#    z 0.000000 0.000000 1.749430 
# 
# From -- ./inp_files/18325.got.cif
#   From: 2010.05.17/outbox.cif.g08.bks.cpg/sg68_10_cif.got.tgz:18325.got - 2010.06.03 18:57:09.
