data_PCOD9507401
_publ_section_title
;
Structure prediction by ZEFSAII (Michael W. Deem and Ramdas Pophale) SiO2 
 PCOD9507401
Probable space group: C C C A
;
_chemical_formula_sum "Si O2"
_cell_formula_units_Z 72
_cell_length_a 9.213010
_cell_length_b 17.651926
_cell_length_c 19.567363
_cell_angle_alpha 90.000000
_cell_angle_beta 90.000000
_cell_angle_gamma 90.000000
_cell_volume 3182.188797
_symmetry_space_group_name_H-M "C C C A"
_symmetry_group_IT_number 68
_space_group.IT_coordinate_system_code '2'
_symmetry_cell_setting 'orthorhombic'
loop_
_space_group_symop_operation_xyz
x,y,z
-x,1/2-y,z
x,1/2-y,1/2-z
-x,y,1/2-z
-x,-y,-z
x,1/2+y,-z
-x,1/2+y,1/2+z
x,-y,1/2+z
1/2+x,1/2+y,z
1/2-x,-y,z
1/2+x,-y,1/2-z
1/2-x,1/2+y,1/2-z
1/2-x,1/2-y,-z
1/2+x,y,-z
1/2-x,y,1/2+z
1/2+x,1/2-y,1/2+z
loop_
_atom_site_type_symbol
_atom_site_label
_atom_site_fract_x
_atom_site_fract_y
_atom_site_fract_z
Si Si1 0.448952 0.929096 0.544836
Si Si2 0.287579 0.335522 0.018660
Si Si3 0.000000 0.750000 0.250000
Si Si4 0.000000 0.750000 0.750000
Si Si5 0.764462 0.814478 0.175374
Si Si6 0.592416 0.036964 0.188638
O O1 0.543840 0.856763 0.520513
O O2 0.288955 0.899109 0.528276
O O3 0.493032 0.951618 0.621847
O O4 0.500000 0.000000 0.500000
O O5 0.244710 0.341632 0.098204
O O6 0.250000 0.250000 0.000000
O O7 0.869880 0.743394 0.189903
O O8 0.892670 0.699750 0.794841
O O9 0.860030 0.878983 0.212273
O O10 0.500000 0.000460 0.250000
O O11 0.750000 0.000000 0.173922
#
# Coordination Sequence:
#
# PCOD9507401 Si02
#       6
#    16  16   4   4  16  16
#     4  11  24  46  66  97 141 180 219 285 351 411
#     4  11  25  40  69 100 133 175 236 277 333 411
#     4  10  20  42  68  86 140 174 216 282 356 390
#     4  10  24  38  68  94 140 166 218 276 344 394
#     4  10  23  42  64  97 132 175 219 278 343 401
#     4  11  25  45  69  98 132 177 233 283 336 417
#
# _framework density 22.625934999999998
#
# number of rings (size 3 to 8) (size 9 to 14) (size 15 to 20)
#    0.000    1.333    1.111    4.000   10.889    1.778 
#    0.000    0.000    0.000    0.000    0.000    0.000 
#    0.000    0.000    0.000    0.000    0.000    0.000 
#
# Total GULP energy -200444.429115 kJ/mol
# GULP energy per Si atom -5567.900809 kJ/mol
# Density = 2.257444 g / cm^3
# Si number density = 22.625935 Si / 1000 Ang^3
#
#
#
# Elastic Constant Matrix: (Units=GPa)
#
#
# Indices 1 2 3 4 5 6 
#
# 1 117.5161 -13.5191 54.1904 0.0000 0.0000 0.0000
# 2 -13.5191 61.7901 21.6769 0.0000 0.0000 0.0000
# 3 54.1904 21.6769 92.3092 0.0000 0.0000 0.0000
# 4 0.0000 0.0000 0.0000 -4.9081 0.0000 0.0000
# 5 0.0000 0.0000 0.0000 0.0000 32.7003 0.0000
# 6 0.0000 0.0000 0.0000 0.0000 0.0000 39.6595
#
#
#
# Elastic Compliance Matrix: (Units=1/GPa)
#
#
# Indices 1 2 3 4 5 6 
#
# 1 0.013595 0.006293 -0.009459 0.000000 0.000000 0.000000
# 2 0.006293 0.020549 -0.008520 0.000000 0.000000 0.000000
# 3 -0.009459 -0.008520 0.018387 0.000000 0.000000 0.000000
# 4 0.000000 0.000000 0.000000 -0.203746 0.000000 0.000000
# 5 0.000000 0.000000 0.000000 0.000000 0.030581 0.000000
# 6 0.000000 0.000000 0.000000 0.000000 0.000000 0.025215
#
#
# Mechanical properties :
#
#
# Convention : Reuss Voigt Hill
#
# Bulk Modulus (GPa) = 34.29398 44.03464 39.16431
# Shear Modulus (GPa) = -80.22121 27.44151 -26.38985
#
# Velocity S-wave (km/s) = -5.96091 3.48636 -3.41890
# Velocity P-wave (km/s) = 5.67333 5.97583 1.32737
#
# Compressibility (1/GPa) = 0.02915964
#
# Stress axis : x y z
#
# Youngs Moduli (GPa) = 73.55574 48.66300 54.38727
#
# Poissons Ratio (x) = -0.30622 0.51444
# Poissons Ratio (y) = -0.46287 0.46337
# Poissons Ratio (z) = 0.69575 0.41460
#
# Static dielectric constant tensor:
#      x y z
#    x 1.776460 0.000000 0.000000 
#    y 0.000000 2.691410 0.000000 
#    z 0.000000 0.000000 1.887120 
# 
# From -- ./inp_files/36087.got.cif
#   From: 2010.05.17/outbox.cif.g08.bks.cpg/sg68_19_cif.got.tgz:36087.got - 2010.06.03 18:57:09.
