data_PCOD9507139
_publ_section_title
;
Structure prediction by ZEFSAII (Michael W. Deem and Ramdas Pophale) SiO2 
 PCOD9507139
Probable space group: C C C A
;
_chemical_formula_sum "Si O2"
_cell_formula_units_Z 104
_cell_length_a 8.967411
_cell_length_b 30.653510
_cell_length_c 18.407085
_cell_angle_alpha 90.000000
_cell_angle_beta 90.000000
_cell_angle_gamma 90.000000
_cell_volume 5059.787802
_symmetry_space_group_name_H-M "C C C A"
_symmetry_group_IT_number 68
_space_group.IT_coordinate_system_code '2'
_symmetry_cell_setting 'orthorhombic'
loop_
_space_group_symop_operation_xyz
x,y,z
-x,1/2-y,z
x,1/2-y,1/2-z
-x,y,1/2-z
-x,-y,-z
x,1/2+y,-z
-x,1/2+y,1/2+z
x,-y,1/2+z
1/2+x,1/2+y,z
1/2-x,-y,z
1/2+x,-y,1/2-z
1/2-x,1/2+y,1/2-z
1/2-x,1/2-y,-z
1/2+x,y,-z
1/2-x,y,1/2+z
1/2+x,1/2-y,1/2+z
loop_
_atom_site_type_symbol
_atom_site_label
_atom_site_fract_x
_atom_site_fract_y
_atom_site_fract_z
Si Si1 0.500000 0.250000 0.491508
Si Si2 0.527593 0.073983 0.338742
Si Si3 0.733653 0.621657 0.076849
Si Si4 0.911704 0.616932 0.872725
Si Si5 0.268194 0.552241 0.545525
Si Si6 0.250000 0.000000 0.175745
Si Si7 0.000000 0.440312 0.250000
Si Si8 0.748510 0.809877 0.052841
O O1 0.380418 0.274475 0.541637
O O2 0.405497 0.214934 0.445163
O O3 0.500000 0.074843 0.250000
O O4 0.623990 0.114151 0.371203
O O5 0.383822 0.064618 0.389321
O O6 0.638844 0.034321 0.359342
O O7 0.581419 0.632142 0.118523
O O8 0.697670 0.578260 0.028412
O O9 0.757706 0.660063 0.019227
O O10 0.880204 0.577875 0.929865
O O11 0.903322 0.592052 0.798285
O O12 0.796892 0.656041 0.885026
O O13 0.250000 0.500000 0.539330
O O14 0.127550 0.029220 0.217001
#
# Coordination Sequence:
#
# PCOD9507139 Si02
#       8
#     8  16  16  16  16   8   8  16
#     4  10  20  38  72  99 127 156 204 266 338 420
#     4  12  26  41  62  89 127 182 228 292 327 393
#     4  11  24  42  62  93 136 166 218 285 333 401
#     4  11  23  39  61  90 130 168 220 276 328 393
#     4  11  25  39  59  87 126 178 228 277 341 384
#     4  12  24  40  58  86 128 170 260 272 324 378
#     4  12  24  40  60  87 124 188 222 297 312 392
#     4  10  21  41  65 103 129 162 207 274 344 412
#
# _framework density 20.554223
#
# number of rings (size 3 to 8) (size 9 to 14) (size 15 to 20)
#    0.000    0.923    3.846    3.692    5.385    1.231 
#    0.000    0.000    0.000    0.462    0.000    3.769 
#    0.000    0.000    0.000    0.000    0.000    0.000 
#
# Total GULP energy -289844.952235 kJ/mol
# GULP energy per Si atom -5573.941389 kJ/mol
# Density = 2.050744 g / cm^3
# Si number density = 20.554223 Si / 1000 Ang^3
#
#
#
# Elastic Constant Matrix: (Units=GPa)
#
#
# Indices 1 2 3 4 5 6 
#
# 1 105.7698 31.3449 25.9291 0.0000 0.0000 0.0000
# 2 31.3449 101.7560 23.7763 0.0000 0.0000 0.0000
# 3 25.9291 23.7763 62.3298 0.0000 0.0000 0.0000
# 4 0.0000 0.0000 0.0000 37.2393 0.0000 0.0000
# 5 0.0000 0.0000 0.0000 0.0000 28.9096 0.0000
# 6 0.0000 0.0000 0.0000 0.0000 0.0000 87.4170
#
#
#
# Elastic Compliance Matrix: (Units=1/GPa)
#
#
# Indices 1 2 3 4 5 6 
#
# 1 0.011109 -0.002571 -0.003640 0.000000 0.000000 0.000000
# 2 -0.002571 0.011384 -0.003273 0.000000 0.000000 0.000000
# 3 -0.003640 -0.003273 0.018807 0.000000 0.000000 0.000000
# 4 0.000000 0.000000 0.000000 0.026853 0.000000 0.000000
# 5 0.000000 0.000000 0.000000 0.000000 0.034591 0.000000
# 6 0.000000 0.000000 0.000000 0.000000 0.000000 0.011439
#
#
# Mechanical properties :
#
#
# Convention : Reuss Voigt Hill
#
# Bulk Modulus (GPa) = 44.78217 47.99513 46.38865
# Shear Modulus (GPa) = 35.56285 43.30021 39.43153
#
# Velocity S-wave (km/s) = 4.16408 4.59479 4.38472
# Velocity P-wave (km/s) = 6.70477 7.17988 6.94639
#
# Compressibility (1/GPa) = 0.02233032
#
# Stress axis : x y z
#
# Youngs Moduli (GPa) = 90.01737 87.84041 53.17277
#
# Poissons Ratio (x) = 0.22587 0.19357
# Poissons Ratio (y) = 0.23147 0.17403
# Poissons Ratio (z) = 0.32770 0.28750
#
# Static dielectric constant tensor:
#      x y z
#    x 1.831540 0.000000 0.000000 
#    y 0.000000 1.763510 0.000000 
#    z 0.000000 0.000000 1.695600 
# 
# From -- ./inp_files/36752.got.cif
#   From: 2010.05.17/outbox.cif.g08.bks.cpg/sg68_19_cif.got.tgz:36752.got - 2010.06.03 18:57:09.
