data_PCOD9507641
_publ_section_title
;
Structure prediction by ZEFSAII (Michael W. Deem and Ramdas Pophale) SiO2 
 PCOD9507641
Probable space group: C C C A
;
_chemical_formula_sum "Si O2"
_cell_formula_units_Z 80
_cell_length_a 21.420854
_cell_length_b 12.710800
_cell_length_c 13.364437
_cell_angle_alpha 90.000000
_cell_angle_beta 90.000000
_cell_angle_gamma 90.000000
_cell_volume 3638.818002
_symmetry_space_group_name_H-M "C C C A"
_symmetry_group_IT_number 68
_space_group.IT_coordinate_system_code '2'
_symmetry_cell_setting 'orthorhombic'
loop_
_space_group_symop_operation_xyz
x,y,z
-x,1/2-y,z
x,1/2-y,1/2-z
-x,y,1/2-z
-x,-y,-z
x,1/2+y,-z
-x,1/2+y,1/2+z
x,-y,1/2+z
1/2+x,1/2+y,z
1/2-x,-y,z
1/2+x,-y,1/2-z
1/2-x,1/2+y,1/2-z
1/2-x,1/2-y,-z
1/2+x,y,-z
1/2-x,y,1/2+z
1/2+x,1/2-y,1/2+z
loop_
_atom_site_type_symbol
_atom_site_label
_atom_site_fract_x
_atom_site_fract_y
_atom_site_fract_z
Si Si1 0.174775 0.604482 0.603922
Si Si2 0.534269 0.585807 0.353555
Si Si3 0.992661 0.129822 0.922459
Si Si4 0.851325 0.347907 0.615849
Si Si5 0.306220 0.125258 0.326459
O O1 0.104921 0.628849 0.641957
O O2 0.181769 0.637198 0.489318
O O3 0.233175 0.652488 0.662640
O O4 0.181086 0.478487 0.610514
O O5 0.500000 0.612174 0.250000
O O6 0.500149 0.622359 0.456602
O O7 0.533548 0.458282 0.367664
O O8 0.920377 0.106233 0.898588
O O9 0.000000 0.250000 0.890158
O O10 0.848149 0.223373 0.639830
O O11 0.820301 0.400728 0.711496
#
# Coordination Sequence:
#
# PCOD9507641 Si02
#       5
#    16  16  16  16  16
#     4  10  21  37  59  85 118 154 192 246 300 350
#     4  10  21  38  58  87 120 151 192 240 294 355
#     4  10  21  37  60  86 116 154 195 241 293 350
#     4  10  21  39  59  86 119 153 201 248 291 354
#     4  10  21  37  59  87 115 156 202 240 296 355
#
# _framework density 21.98516
#
# number of rings (size 3 to 8) (size 9 to 14) (size 15 to 20)
#    0.000    2.000    0.000    3.000    0.000    5.600 
#    0.000   10.000    0.000    0.000    0.000    0.000 
#    0.000    0.000    0.000    0.000    0.000    0.000 
#
# Total GULP energy -223451.037570 kJ/mol
# GULP energy per Si atom -5586.275939 kJ/mol
# Density = 2.193512 g / cm^3
# Si number density = 21.985160 Si / 1000 Ang^3
#
#
#
# Elastic Constant Matrix: (Units=GPa)
#
#
# Indices 1 2 3 4 5 6 
#
# 1 75.3929 -18.4756 50.3152 0.0000 0.0000 0.0000
# 2 -18.4756 54.3541 1.4703 0.0000 0.0000 0.0000
# 3 50.3152 1.4703 162.8728 0.0000 0.0000 0.0000
# 4 0.0000 0.0000 0.0000 -204.5456 0.0000 0.0000
# 5 0.0000 0.0000 0.0000 0.0000 22.0257 0.0000
# 6 0.0000 0.0000 0.0000 0.0000 0.0000 18.5892
#
#
#
# Elastic Compliance Matrix: (Units=1/GPa)
#
#
# Indices 1 2 3 4 5 6 
#
# 1 0.018778 0.006541 -0.005860 0.000000 0.000000 0.000000
# 2 0.006541 0.020681 -0.002207 0.000000 0.000000 0.000000
# 3 -0.005860 -0.002207 0.007970 0.000000 0.000000 0.000000
# 4 0.000000 0.000000 0.000000 -0.004889 0.000000 0.000000
# 5 0.000000 0.000000 0.000000 0.000000 0.045402 0.000000
# 6 0.000000 0.000000 0.000000 0.000000 0.000000 0.053795
#
#
# Mechanical properties :
#
#
# Convention : Reuss Voigt Hill
#
# Bulk Modulus (GPa) = 22.53452 39.91551 31.22502
# Shear Modulus (GPa) = 31.33222 -15.49881 7.91670
#
# Velocity S-wave (km/s) = 3.77922 -2.65800 1.89967
# Velocity P-wave (km/s) = 5.41437 2.96228 4.36409
#
# Compressibility (1/GPa) = 0.04437636
#
# Stress axis : x y z
#
# Youngs Moduli (GPa) = 53.25507 48.35352 125.47152
#
# Poissons Ratio (x) = -0.31629 0.73525
# Poissons Ratio (y) = -0.34835 0.27697
# Poissons Ratio (z) = 0.31207 0.10674
#
# Static dielectric constant tensor:
#      x y z
#    x 1.841160 0.000000 0.000000 
#    y 0.000000 1.852480 0.000000 
#    z 0.000000 0.000000 1.790300 
# 
# From -- ./inp_files/16199.got.cif
#   From: 2010.05.17/outbox.cif.g08.bks.cpg/sg68_9_cif.got.tgz:16199.got - 2010.06.03 18:57:09.
