data_PCOD9507399
_publ_section_title
;
Structure prediction by ZEFSAII (Michael W. Deem and Ramdas Pophale) SiO2 
 PCOD9507399
Probable space group: C C C A
;
_chemical_formula_sum "Si O2"
_cell_formula_units_Z 80
_cell_length_a 15.717589
_cell_length_b 10.006969
_cell_length_c 24.610616
_cell_angle_alpha 90.000000
_cell_angle_beta 90.000000
_cell_angle_gamma 90.000000
_cell_volume 3870.891219
_symmetry_space_group_name_H-M "C C C A"
_symmetry_group_IT_number 68
_space_group.IT_coordinate_system_code '2'
_symmetry_cell_setting 'orthorhombic'
loop_
_space_group_symop_operation_xyz
x,y,z
-x,1/2-y,z
x,1/2-y,1/2-z
-x,y,1/2-z
-x,-y,-z
x,1/2+y,-z
-x,1/2+y,1/2+z
x,-y,1/2+z
1/2+x,1/2+y,z
1/2-x,-y,z
1/2+x,-y,1/2-z
1/2-x,1/2+y,1/2-z
1/2-x,1/2-y,-z
1/2+x,y,-z
1/2-x,y,1/2+z
1/2+x,1/2-y,1/2+z
loop_
_atom_site_type_symbol
_atom_site_label
_atom_site_fract_x
_atom_site_fract_y
_atom_site_fract_z
Si Si1 0.265606 0.841256 0.340981
Si Si2 0.421736 0.156799 0.356534
Si Si3 0.325330 0.698512 0.037827
Si Si4 0.415806 0.924105 0.981608
Si Si5 0.053626 0.366819 0.194277
O O1 0.168906 0.790130 0.333089
O O2 0.297620 0.795910 0.399903
O O3 0.347300 0.821403 0.302296
O O4 0.250000 0.000000 0.343276
O O5 0.500000 0.250000 0.341181
O O6 0.417066 0.143785 0.422030
O O7 0.441443 0.007463 0.335950
O O8 0.349114 0.546550 0.023077
O O9 0.250000 0.750000 0.000000
O O10 0.397226 0.806811 0.024141
O O11 0.500000 0.000000 0.000000
O O12 0.000000 0.250000 0.164790
O O13 0.000000 0.386162 0.250000
#
# Coordination Sequence:
#
# PCOD9507399 Si02
#       5
#    16  16  16  16  16
#     4  10  20  42  67  93 139 186 215 285 344 401
#     4  11  23  44  65  99 141 180 229 281 346 409
#     4  12  21  39  60  93 137 184 231 261 337 409
#     4  12  25  37  59  98 139 185 231 277 323 413
#     4  10  23  45  72  99 125 172 233 292 358 412
#
# _framework density 20.667074
#
# number of rings (size 3 to 8) (size 9 to 14) (size 15 to 20)
#    0.000    1.000    6.000    2.400    2.800    0.400 
#    0.000   13.000    0.000    0.000    0.000    0.000 
#    0.000    0.000    0.000    0.000    0.000    0.000 
#
# Total GULP energy -223141.112814 kJ/mol
# GULP energy per Si atom -5578.527820 kJ/mol
# Density = 2.062003 g / cm^3
# Si number density = 20.667074 Si / 1000 Ang^3
#
#
#
# Elastic Constant Matrix: (Units=GPa)
#
#
# Indices 1 2 3 4 5 6 
#
# 1 194.9245 56.5414 45.0557 0.0000 0.0000 0.0000
# 2 56.5414 90.1110 13.0107 0.0000 0.0000 0.0000
# 3 45.0557 13.0107 77.1443 0.0000 0.0000 0.0000
# 4 0.0000 0.0000 0.0000 -813.8712 0.0000 0.0000
# 5 0.0000 0.0000 0.0000 0.0000 31.9833 0.0000
# 6 0.0000 0.0000 0.0000 0.0000 0.0000 54.5616
#
#
#
# Elastic Compliance Matrix: (Units=1/GPa)
#
#
# Indices 1 2 3 4 5 6 
#
# 1 0.007074 -0.003938 -0.003467 0.000000 0.000000 0.000000
# 2 -0.003938 0.013567 0.000012 0.000000 0.000000 0.000000
# 3 -0.003467 0.000012 0.014986 0.000000 0.000000 0.000000
# 4 0.000000 0.000000 0.000000 -0.001229 0.000000 0.000000
# 5 0.000000 0.000000 0.000000 0.000000 0.031266 0.000000
# 6 0.000000 0.000000 0.000000 0.000000 0.000000 0.018328
#
#
# Mechanical properties :
#
#
# Convention : Reuss Voigt Hill
#
# Bulk Modulus (GPa) = 47.98579 65.71060 56.84819
# Shear Modulus (GPa) = 47.29236 -128.96047 -40.83405
#
# Velocity S-wave (km/s) = 4.78880 -7.90787 -4.44982
# Velocity P-wave (km/s) = 7.33796 7.17743 1.07942
#
# Compressibility (1/GPa) = 0.02083950
#
# Stress axis : x y z
#
# Youngs Moduli (GPa) = 141.36399 73.71013 66.72992
#
# Poissons Ratio (x) = 0.29027 0.23137
# Poissons Ratio (y) = 0.55669 -0.00079
# Poissons Ratio (z) = 0.49016 -0.00088
#
# Static dielectric constant tensor:
#      x y z
#    x 1.932230 0.000000 0.000000 
#    y 0.000000 0.306420 0.000000 
#    z 0.000000 0.000000 1.747470 
# 
# From -- ./inp_files/51259.got.cif
#   From: 2010.05.17/outbox.cif.g08.bks.cpg/sg68_26_cif.got.tgz:51259.got - 2010.06.03 18:57:09.
