data_PCOD9507156
_publ_section_title
;
Structure prediction by ZEFSAII (Michael W. Deem and Ramdas Pophale) SiO2 
 PCOD9507156
Probable space group: C C C A
;
_chemical_formula_sum "Si O2"
_cell_formula_units_Z 68
_cell_length_a 8.610244
_cell_length_b 28.601570
_cell_length_c 13.575029
_cell_angle_alpha 90.000000
_cell_angle_beta 90.000000
_cell_angle_gamma 90.000000
_cell_volume 3343.074831
_symmetry_space_group_name_H-M "C C C A"
_symmetry_group_IT_number 68
_space_group.IT_coordinate_system_code '2'
_symmetry_cell_setting 'orthorhombic'
loop_
_space_group_symop_operation_xyz
x,y,z
-x,1/2-y,z
x,1/2-y,1/2-z
-x,y,1/2-z
-x,-y,-z
x,1/2+y,-z
-x,1/2+y,1/2+z
x,-y,1/2+z
1/2+x,1/2+y,z
1/2-x,-y,z
1/2+x,-y,1/2-z
1/2-x,1/2+y,1/2-z
1/2-x,1/2-y,-z
1/2+x,y,-z
1/2-x,y,1/2+z
1/2+x,1/2-y,1/2+z
loop_
_atom_site_type_symbol
_atom_site_label
_atom_site_fract_x
_atom_site_fract_y
_atom_site_fract_z
Si Si1 0.219464 0.416291 0.094756
Si Si2 0.000000 0.472559 0.250000
Si Si3 0.293300 0.194786 0.898684
Si Si4 0.549410 0.538241 0.580404
Si Si5 0.500000 0.750000 0.944134
Si Si6 0.500000 0.250000 0.750000
O O1 0.111201 0.441609 0.177951
O O2 0.204309 0.360806 0.101134
O O3 0.397310 0.431867 0.107417
O O4 0.171361 0.431782 0.983015
O O5 0.911124 0.507890 0.176094
O O6 0.391129 0.216169 0.811060
O O7 0.119916 0.215497 0.891387
O O8 0.385548 0.216477 0.992325
O O9 0.500000 0.500000 0.500000
#
# Coordination Sequence:
#
# PCOD9507156 Si02
#       6
#    16   8  16  16   8   4
#     4  11  22  38  63  87 117 158 208 240 289 365
#     4  10  21  36  54  85 124 157 194 248 299 340
#     4  10  20  39  61  90 115 157 195 242 296 358
#     4  10  22  38  58  84 118 159 195 246 298 339
#     4   9  20  38  62  83 124 154 190 241 302 352
#     4  10  22  38  64  90 124 148 188 250 314 346
#
# _framework density 20.340555999999999
#
# number of rings (size 3 to 8) (size 9 to 14) (size 15 to 20)
#    0.000    1.882    0.000    4.941    0.000    8.000 
#    0.000    9.412    0.000    0.000    0.000    0.000 
#    0.000    0.000    0.000    0.000    0.000    0.000 
#
# Total GULP energy -189649.813934 kJ/mol
# GULP energy per Si atom -5577.935704 kJ/mol
# Density = 2.029426 g / cm^3
# Si number density = 20.340556 Si / 1000 Ang^3
#
#
#
# Elastic Constant Matrix: (Units=GPa)
#
#
# Indices 1 2 3 4 5 6 
#
# 1 131.1622 60.7303 35.3376 0.0000 0.0000 0.0000
# 2 60.7303 191.9927 56.6097 0.0000 0.0000 0.0000
# 3 35.3376 56.6097 95.7381 0.0000 0.0000 0.0000
# 4 0.0000 0.0000 0.0000 27.6976 0.0000 0.0000
# 5 0.0000 0.0000 0.0000 0.0000 28.8470 0.0000
# 6 0.0000 0.0000 0.0000 0.0000 0.0000 78.5053
#
#
#
# Elastic Compliance Matrix: (Units=1/GPa)
#
#
# Indices 1 2 3 4 5 6 
#
# 1 0.009250 -0.002324 -0.002040 0.000000 0.000000 0.000000
# 2 -0.002324 0.006893 -0.003218 0.000000 0.000000 0.000000
# 3 -0.002040 -0.003218 0.013101 0.000000 0.000000 0.000000
# 4 0.000000 0.000000 0.000000 0.036104 0.000000 0.000000
# 5 0.000000 0.000000 0.000000 0.000000 0.034666 0.000000
# 6 0.000000 0.000000 0.000000 0.000000 0.000000 0.012738
#
#
# Mechanical properties :
#
#
# Convention : Reuss Voigt Hill
#
# Bulk Modulus (GPa) = 71.02539 80.47205 75.74872
# Shear Modulus (GPa) = 37.70524 44.75768 41.23146
#
# Velocity S-wave (km/s) = 4.31013 4.69595 4.50717
# Velocity P-wave (km/s) = 7.73069 8.30968 8.02541
#
# Compressibility (1/GPa) = 0.01407947
#
# Stress axis : x y z
#
# Youngs Moduli (GPa) = 108.10842 145.08520 76.33251
#
# Poissons Ratio (x) = 0.33725 0.15570
# Poissons Ratio (y) = 0.25130 0.24560
# Poissons Ratio (z) = 0.22052 0.46682
#
# Static dielectric constant tensor:
#      x y z
#    x 1.823490 0.000000 0.000000 
#    y 0.000000 1.673780 0.000000 
#    z 0.000000 0.000000 1.825260 
# 
# From -- ./inp_files/19421.got.cif
#   From: 2010.05.17/outbox.cif.g08.bks.cpg/sg68_10_cif.got.tgz:19421.got - 2010.06.03 18:57:09.
