data_PCOD9507205
_publ_section_title
;
Structure prediction by ZEFSAII (Michael W. Deem and Ramdas Pophale) SiO2 
 PCOD9507205
Probable space group: C C C A
;
_chemical_formula_sum "Si O2"
_cell_formula_units_Z 104
_cell_length_a 27.908677
_cell_length_b 7.700415
_cell_length_c 23.013152
_cell_angle_alpha 90.000000
_cell_angle_beta 90.000000
_cell_angle_gamma 90.000000
_cell_volume 4945.719560
_symmetry_space_group_name_H-M "C C C A"
_symmetry_group_IT_number 68
_space_group.IT_coordinate_system_code '2'
_symmetry_cell_setting 'orthorhombic'
loop_
_space_group_symop_operation_xyz
x,y,z
-x,1/2-y,z
x,1/2-y,1/2-z
-x,y,1/2-z
-x,-y,-z
x,1/2+y,-z
-x,1/2+y,1/2+z
x,-y,1/2+z
1/2+x,1/2+y,z
1/2-x,-y,z
1/2+x,-y,1/2-z
1/2-x,1/2+y,1/2-z
1/2-x,1/2-y,-z
1/2+x,y,-z
1/2-x,y,1/2+z
1/2+x,1/2-y,1/2+z
loop_
_atom_site_type_symbol
_atom_site_label
_atom_site_fract_x
_atom_site_fract_y
_atom_site_fract_z
Si Si1 0.118888 0.234938 0.999747
Si Si2 0.500000 0.250000 0.612969
Si Si3 0.694862 0.250000 0.250000
Si Si4 0.566543 0.960505 0.923483
Si Si5 0.384508 0.993531 0.197142
Si Si6 0.591945 0.386028 0.819093
Si Si7 0.841828 0.513994 0.410480
Si Si8 0.750000 0.000000 0.162892
O O1 0.071089 0.290878 0.963561
O O2 0.157010 0.186559 0.949607
O O3 0.104773 0.080207 0.042652
O O4 0.139248 0.373722 0.044127
O O5 0.519531 0.419109 0.579031
O O6 0.543696 0.182294 0.652018
O O7 0.660487 0.388269 0.216089
O O8 0.728331 0.351205 0.295615
O O9 0.585815 0.935538 0.857798
O O10 0.374571 0.788314 0.183813
O O11 0.415274 0.969521 0.256186
O O12 0.618845 0.521983 0.859709
O O13 0.793480 0.457145 0.380052
#
# Coordination Sequence:
#
# PCOD9507205 Si02
#       8
#    16   8   8  16  16  16  16   8
#     4  10  22  41  66  84 135 177 223 263 339 389
#     4  10  20  39  66 102 124 178 231 268 332 400
#     4  12  26  40  68 103 130 165 218 276 338 410
#     4  10  21  37  62  95 124 177 215 270 322 395
#     4  10  21  40  66  91 128 172 205 268 333 394
#     4  10  21  40  68  92 136 170 218 269 337 391
#     4  11  22  45  62  95 126 177 217 281 328 397
#     4  12  28  40  68  98 130 162 228 276 336 406
#
# _framework density 21.028285
#
# number of rings (size 3 to 8) (size 9 to 14) (size 15 to 20)
#    0.000    1.538    4.615    0.923    2.154    6.154 
#    0.000    0.000    0.000    3.692    0.000    0.000 
#    0.000    0.000    0.000    0.000    0.000    0.000 
#
# Total GULP energy -289805.402172 kJ/mol
# GULP energy per Si atom -5573.180811 kJ/mol
# Density = 2.098042 g / cm^3
# Si number density = 21.028285 Si / 1000 Ang^3
#
#
#
# Elastic Constant Matrix: (Units=GPa)
#
#
# Indices 1 2 3 4 5 6 
#
# 1 79.9873 7.6596 24.7975 0.0000 0.0000 0.0000
# 2 7.6596 25.7692 11.6713 0.0000 0.0000 0.0000
# 3 24.7975 11.6713 103.2033 0.0000 0.0000 0.0000
# 4 0.0000 0.0000 0.0000 -6.9680 0.0000 0.0000
# 5 0.0000 0.0000 0.0000 0.0000 28.8704 0.0000
# 6 0.0000 0.0000 0.0000 0.0000 0.0000 17.9382
#
#
#
# Elastic Compliance Matrix: (Units=1/GPa)
#
#
# Indices 1 2 3 4 5 6 
#
# 1 0.013686 -0.002718 -0.002981 0.000000 0.000000 0.000000
# 2 -0.002718 0.041441 -0.004033 0.000000 0.000000 0.000000
# 3 -0.002981 -0.004033 0.010862 0.000000 0.000000 0.000000
# 4 0.000000 0.000000 0.000000 -0.143513 0.000000 0.000000
# 5 0.000000 0.000000 0.000000 0.000000 0.034638 0.000000
# 6 0.000000 0.000000 0.000000 0.000000 0.000000 0.055747
#
#
# Mechanical properties :
#
#
# Convention : Reuss Voigt Hill
#
# Bulk Modulus (GPa) = 21.49425 33.02408 27.25917
# Shear Modulus (GPa) = 104.52899 18.95688 61.74294
#
# Velocity S-wave (km/s) = 7.05809 3.00575 5.42454
# Velocity P-wave (km/s) = 8.75591 5.27112 7.22671
#
# Compressibility (1/GPa) = 0.04652406
#
# Stress axis : x y z
#
# Youngs Moduli (GPa) = 73.06484 24.13085 92.06346
#
# Poissons Ratio (x) = 0.06559 0.27446
# Poissons Ratio (y) = 0.19859 0.37134
# Poissons Ratio (z) = 0.21782 0.09733
#
# Static dielectric constant tensor:
#      x y z
#    x 1.758350 0.000000 0.000000 
#    y 0.000000 1.999630 0.000000 
#    z 0.000000 0.000000 1.780520 
# 
# From -- ./inp_files/41367.got.cif
#   From: 2010.05.17/outbox.cif.g08.bks.cpg/sg68_21_cif.got.tgz:41367.got - 2010.06.03 18:57:09.
