data_PCOD9507764
_publ_section_title
;
Structure prediction by ZEFSAII (Michael W. Deem and Ramdas Pophale) SiO2 
 PCOD9507764
Probable space group: C C C A
;
_chemical_formula_sum "Si O2"
_cell_formula_units_Z 56
_cell_length_a 22.341789
_cell_length_b 4.993085
_cell_length_c 25.131628
_cell_angle_alpha 90.000000
_cell_angle_beta 90.000000
_cell_angle_gamma 90.000000
_cell_volume 2803.544978
_symmetry_space_group_name_H-M "C C C A"
_symmetry_group_IT_number 68
_space_group.IT_coordinate_system_code '2'
_symmetry_cell_setting 'orthorhombic'
loop_
_space_group_symop_operation_xyz
x,y,z
-x,1/2-y,z
x,1/2-y,1/2-z
-x,y,1/2-z
-x,-y,-z
x,1/2+y,-z
-x,1/2+y,1/2+z
x,-y,1/2+z
1/2+x,1/2+y,z
1/2-x,-y,z
1/2+x,-y,1/2-z
1/2-x,1/2+y,1/2-z
1/2-x,1/2-y,-z
1/2+x,y,-z
1/2-x,y,1/2+z
1/2+x,1/2-y,1/2+z
loop_
_atom_site_type_symbol
_atom_site_label
_atom_site_fract_x
_atom_site_fract_y
_atom_site_fract_z
Si Si1 0.822065 0.457096 0.031011
Si Si2 0.750000 0.500000 0.716093
Si Si3 0.861491 0.834725 0.853152
Si Si4 0.069404 0.321422 0.687922
O O1 0.750000 0.500000 0.034030
O O2 0.843671 0.319958 0.085280
O O3 0.841866 0.755833 0.015936
O O4 0.775679 0.250000 0.750000
O O5 0.800979 0.642281 0.681202
O O6 0.906302 0.614067 0.828225
O O7 0.892499 0.119727 0.846881
O O8 0.079818 0.250000 0.750000
O O9 0.000000 0.250000 0.678301
#
# Coordination Sequence:
#
# PCOD9507764 Si02
#       4
#    16   8  16  16
#     4  10  21  38  61  90 122 159 207 252 306 378
#     4  12  24  36  56  94 132 160 192 250 330 390
#     4  12  22  40  63  90 125 162 203 259 317 370
#     4  11  24  41  63  88 121 168 216 252 297 373
#
# _framework density 19.974710000000002
#
# number of rings (size 3 to 8) (size 9 to 14) (size 15 to 20)
#    0.000    0.857    1.429    7.714    0.000    2.286 
#    0.000    0.000    0.000   17.143    0.000    0.000 
#    0.000    0.000    0.000    0.000    0.000    0.000 
#
# Total GULP energy -156231.425161 kJ/mol
# GULP energy per Si atom -5579.693756 kJ/mol
# Density = 1.992925 g / cm^3
# Si number density = 19.974710 Si / 1000 Ang^3
#
#
#
# Elastic Constant Matrix: (Units=GPa)
#
#
# Indices 1 2 3 4 5 6 
#
# 1 71.1183 -16.1682 16.0973 0.0000 0.0000 0.0000
# 2 -16.1682 45.4598 13.7781 0.0000 0.0000 0.0000
# 3 16.0973 13.7781 92.0643 0.0000 0.0000 0.0000
# 4 0.0000 0.0000 0.0000 30.0818 0.0000 0.0000
# 5 0.0000 0.0000 0.0000 0.0000 20.6590 0.0000
# 6 0.0000 0.0000 0.0000 0.0000 0.0000 43.8711
#
#
#
# Elastic Compliance Matrix: (Units=1/GPa)
#
#
# Indices 1 2 3 4 5 6 
#
# 1 0.016570 0.007093 -0.003959 0.000000 0.000000 0.000000
# 2 0.007093 0.026079 -0.005143 0.000000 0.000000 0.000000
# 3 -0.003959 -0.005143 0.012324 0.000000 0.000000 0.000000
# 4 0.000000 0.000000 0.000000 0.033243 0.000000 0.000000
# 5 0.000000 0.000000 0.000000 0.000000 0.048405 0.000000
# 6 0.000000 0.000000 0.000000 0.000000 0.000000 0.022794
#
#
# Mechanical properties :
#
#
# Convention : Reuss Voigt Hill
#
# Bulk Modulus (GPa) = 19.62524 26.22853 22.92688
# Shear Modulus (GPa) = 27.71357 31.91804 29.81581
#
# Velocity S-wave (km/s) = 3.72887 4.00174 3.86771
# Velocity P-wave (km/s) = 5.32782 5.87463 5.60789
#
# Compressibility (1/GPa) = 0.05095479
#
# Stress axis : x y z
#
# Youngs Moduli (GPa) = 60.35126 38.34511 81.14339
#
# Poissons Ratio (x) = -0.27198 0.32122
# Poissons Ratio (y) = -0.42807 0.41733
# Poissons Ratio (z) = 0.23891 0.19721
#
# Static dielectric constant tensor:
#      x y z
#    x 1.754650 0.000000 0.000000 
#    y 0.000000 1.668970 0.000000 
#    z 0.000000 0.000000 1.802100 
# 
# From -- ./inp_files/46286.got.cif
#   From: 2010.05.17/outbox.cif.g08.bks.cpg/sg68_24_cif.got.tgz:46286.got - 2010.06.03 18:57:09.
