data_PCOD9507356
_publ_section_title
;
Structure prediction by ZEFSAII (Michael W. Deem and Ramdas Pophale) SiO2 
 PCOD9507356
Probable space group: C C C A
;
_chemical_formula_sum "Si O2"
_cell_formula_units_Z 112
_cell_length_a 14.902004
_cell_length_b 24.794366
_cell_length_c 14.133647
_cell_angle_alpha 90.000000
_cell_angle_beta 90.000000
_cell_angle_gamma 90.000000
_cell_volume 5222.181039
_symmetry_space_group_name_H-M "C C C A"
_symmetry_group_IT_number 68
_space_group.IT_coordinate_system_code '2'
_symmetry_cell_setting 'orthorhombic'
loop_
_space_group_symop_operation_xyz
x,y,z
-x,1/2-y,z
x,1/2-y,1/2-z
-x,y,1/2-z
-x,-y,-z
x,1/2+y,-z
-x,1/2+y,1/2+z
x,-y,1/2+z
1/2+x,1/2+y,z
1/2-x,-y,z
1/2+x,-y,1/2-z
1/2-x,1/2+y,1/2-z
1/2-x,1/2-y,-z
1/2+x,y,-z
1/2-x,y,1/2+z
1/2+x,1/2-y,1/2+z
loop_
_atom_site_type_symbol
_atom_site_label
_atom_site_fract_x
_atom_site_fract_y
_atom_site_fract_z
Si Si1 0.062516 0.115667 0.164182
Si Si2 0.463146 0.807671 0.466945
Si Si3 0.310421 0.113619 0.933196
Si Si4 0.181293 0.950945 0.310347
Si Si5 0.577835 0.694470 0.690639
Si Si6 0.231205 0.115388 0.651875
Si Si7 0.038920 0.520305 0.598075
O O1 0.166692 0.120543 0.184329
O O2 0.000000 0.135871 0.250000
O O3 0.034588 0.148271 0.070237
O O4 0.039058 0.052749 0.151361
O O5 0.500000 0.750000 0.432722
O O6 0.367534 0.830560 0.427653
O O7 0.453345 0.803315 0.580867
O O8 0.226960 0.099458 0.865598
O O9 0.385254 0.066839 0.917643
O O10 0.274037 0.110431 0.039621
O O11 0.184247 0.935563 0.200993
O O12 0.250000 0.000000 0.325814
O O13 0.086781 0.971186 0.348757
O O14 0.588374 0.750000 0.750000
O O15 0.500000 0.664189 0.750000
O O16 0.672202 0.665401 0.685281
O O17 0.000000 0.500000 0.500000
#
# Coordination Sequence:
#
# PCOD9507356 Si02
#       7
#    16  16  16  16  16  16  16
#     4  11  24  43  60  92 142 177 219 279 338 411
#     4  10  20  41  67  88 123 181 219 274 353 402
#     4   9  21  38  57  90 127 158 221 281 323 400
#     4  10  21  39  59  88 129 171 214 272 331 394
#     4  10  21  43  68  94 130 164 225 294 345 400
#     4  11  23  39  64  97 128 173 223 276 339 409
#     4  10  21  38  63  88 124 175 217 272 343 394
#
# _framework density 21.446978000000001
#
# number of rings (size 3 to 8) (size 9 to 14) (size 15 to 20)
#    0.000    1.857    1.429    3.429    0.000    8.857 
#    5.143    1.429    0.000    0.000    0.000    0.000 
#    0.000    0.000    0.000    0.000    0.000    0.000 
#
# Total GULP energy -312532.974129 kJ/mol
# GULP energy per Si atom -5580.945967 kJ/mol
# Density = 2.139816 g / cm^3
# Si number density = 21.446978 Si / 1000 Ang^3
#
#
#
# Elastic Constant Matrix: (Units=GPa)
#
#
# Indices 1 2 3 4 5 6 
#
# 1 121.6578 46.5475 35.4694 0.0000 0.0000 0.0000
# 2 46.5475 79.7614 39.5149 0.0000 0.0000 0.0000
# 3 35.4694 39.5149 84.7612 0.0000 0.0000 0.0000
# 4 0.0000 0.0000 0.0000 25.8615 0.0000 0.0000
# 5 0.0000 0.0000 0.0000 0.0000 31.4611 0.0000
# 6 0.0000 0.0000 0.0000 0.0000 0.0000 5.4881
#
#
#
# Elastic Compliance Matrix: (Units=1/GPa)
#
#
# Indices 1 2 3 4 5 6 
#
# 1 0.010854 -0.005311 -0.002066 0.000000 0.000000 0.000000
# 2 -0.005311 0.018901 -0.006589 0.000000 0.000000 0.000000
# 3 -0.002066 -0.006589 0.015734 0.000000 0.000000 0.000000
# 4 0.000000 0.000000 0.000000 0.038668 0.000000 0.000000
# 5 0.000000 0.000000 0.000000 0.000000 0.031785 0.000000
# 6 0.000000 0.000000 0.000000 0.000000 0.000000 0.182213
#
#
# Mechanical properties :
#
#
# Convention : Reuss Voigt Hill
#
# Bulk Modulus (GPa) = 56.95649 58.80490 57.88070
# Shear Modulus (GPa) = 15.06297 23.53871 19.30084
#
# Velocity S-wave (km/s) = 2.65304 3.31649 3.00314
# Velocity P-wave (km/s) = 5.99994 6.49182 6.25072
#
# Compressibility (1/GPa) = 0.01755726
#
# Stress axis : x y z
#
# Youngs Moduli (GPa) = 92.13109 52.90737 63.55540
#
# Poissons Ratio (x) = 0.28097 0.13132
# Poissons Ratio (y) = 0.48927 0.41878
# Poissons Ratio (z) = 0.19037 0.34861
#
# Static dielectric constant tensor:
#      x y z
#    x 1.783520 0.000000 0.000000 
#    y 0.000000 1.810290 0.000000 
#    z 0.000000 0.000000 1.863910 
# 
# From -- ./inp_files/22582.got.cif
#   From: 2010.05.17/outbox.cif.g08.bks.cpg/sg68_12_cif.got.tgz:22582.got - 2010.06.03 18:57:09.
