data_PCOD9507074
_publ_section_title
;
Structure prediction by ZEFSAII (Michael W. Deem and Ramdas Pophale) SiO2 
 PCOD9507074
Probable space group: C C C A
;
_chemical_formula_sum "Si O2"
_cell_formula_units_Z 80
_cell_length_a 8.820695
_cell_length_b 27.319506
_cell_length_c 16.339414
_cell_angle_alpha 90.000000
_cell_angle_beta 90.000000
_cell_angle_gamma 90.000000
_cell_volume 3937.423457
_symmetry_space_group_name_H-M "C C C A"
_symmetry_group_IT_number 68
_space_group.IT_coordinate_system_code '2'
_symmetry_cell_setting 'orthorhombic'
loop_
_space_group_symop_operation_xyz
x,y,z
-x,1/2-y,z
x,1/2-y,1/2-z
-x,y,1/2-z
-x,-y,-z
x,1/2+y,-z
-x,1/2+y,1/2+z
x,-y,1/2+z
1/2+x,1/2+y,z
1/2-x,-y,z
1/2+x,-y,1/2-z
1/2-x,1/2+y,1/2-z
1/2-x,1/2-y,-z
1/2+x,y,-z
1/2-x,y,1/2+z
1/2+x,1/2-y,1/2+z
loop_
_atom_site_type_symbol
_atom_site_label
_atom_site_fract_x
_atom_site_fract_y
_atom_site_fract_z
Si Si1 0.773952 0.557598 0.895213
Si Si2 0.678134 0.362414 0.773903
Si Si3 0.828244 0.764047 0.653223
Si Si4 0.212953 0.331192 0.898876
Si Si5 0.529758 0.612399 0.004127
O O1 0.750000 0.500000 0.889364
O O2 0.783497 0.584653 0.808147
O O3 0.635846 0.580119 0.946360
O O4 0.924985 0.576204 0.942197
O O5 0.500000 0.358273 0.750000
O O6 0.702093 0.321803 0.845700
O O7 0.778107 0.348936 0.695307
O O8 0.817094 0.750000 0.750000
O O9 0.720801 0.727653 0.603932
O O10 0.000000 0.750000 0.629649
O O11 0.074874 0.353084 0.948728
O O12 0.363463 0.354154 0.939539
#
# Coordination Sequence:
#
# PCOD9507074 Si02
#       5
#    16  16  16  16  16
#     4  11  23  42  63  89 120 166 209 257 314 367
#     4  11  19  38  64  89 119 157 212 251 304 371
#     4   9  14  30  60  86 110 155 196 234 301 373
#     4  10  20  38  63  91 121 163 199 252 311 370
#     4  10  22  41  61  89 129 159 202 259 309 374
#
# _framework density 20.317855000000002
#
# number of rings (size 3 to 8) (size 9 to 14) (size 15 to 20)
#    0.000    1.800    6.000    0.600    0.000    0.800 
#    3.600   13.000    0.000    3.600    0.000    0.000 
#    0.000    0.000    0.000    0.000    0.000    0.000 
#
# Total GULP energy -223527.325152 kJ/mol
# GULP energy per Si atom -5588.183129 kJ/mol
# Density = 2.027161 g / cm^3
# Si number density = 20.317855 Si / 1000 Ang^3
#
#
#
# Elastic Constant Matrix: (Units=GPa)
#
#
# Indices 1 2 3 4 5 6 
#
# 1 63.2633 43.1551 21.6489 0.0000 0.0000 0.0000
# 2 43.1551 168.6307 47.9035 0.0000 0.0000 0.0000
# 3 21.6489 47.9035 58.9584 0.0000 0.0000 0.0000
# 4 0.0000 0.0000 0.0000 27.8382 0.0000 0.0000
# 5 0.0000 0.0000 0.0000 0.0000 -5.4413 0.0000
# 6 0.0000 0.0000 0.0000 0.0000 0.0000 1.6155
#
#
#
# Elastic Compliance Matrix: (Units=1/GPa)
#
#
# Indices 1 2 3 4 5 6 
#
# 1 0.019891 -0.003920 -0.004118 0.000000 0.000000 0.000000
# 2 -0.003920 0.008482 -0.005452 0.000000 0.000000 0.000000
# 3 -0.004118 -0.005452 0.022903 0.000000 0.000000 0.000000
# 4 0.000000 0.000000 0.000000 0.035922 0.000000 0.000000
# 5 0.000000 0.000000 0.000000 0.000000 -0.183781 0.000000
# 6 0.000000 0.000000 0.000000 0.000000 0.000000 0.619012
#
#
# Mechanical properties :
#
#
# Convention : Reuss Voigt Hill
#
# Bulk Modulus (GPa) = 41.16214 57.36304 49.26259
# Shear Modulus (GPa) = 8.96848 16.67881 12.82364
#
# Velocity S-wave (km/s) = 2.10325 2.86823 2.51500
# Velocity P-wave (km/s) = 5.11872 6.26603 5.72121
#
# Compressibility (1/GPa) = 0.02429417
#
# Stress axis : x y z
#
# Youngs Moduli (GPa) = 50.27513 117.89320 43.66188
#
# Poissons Ratio (x) = 0.46219 0.17981
# Poissons Ratio (y) = 0.19710 0.23806
# Poissons Ratio (z) = 0.20705 0.64279
#
# Static dielectric constant tensor:
#      x y z
#    x 1.719240 0.000000 0.000000 
#    y 0.000000 1.718090 0.000000 
#    z 0.000000 0.000000 1.741320 
# 
# From -- ./inp_files/28327.got.cif
#   From: 2010.05.17/outbox.cif.g08.bks.cpg/sg68_15_cif.got.tgz:28327.got - 2010.06.03 18:57:09.
