data_PCOD9507847
_publ_section_title
;
Structure prediction by ZEFSAII (Michael W. Deem and Ramdas Pophale) SiO2 
 PCOD9507847
Probable space group: C C C A
;
_chemical_formula_sum "Si O2"
_cell_formula_units_Z 72
_cell_length_a 9.663009
_cell_length_b 22.574519
_cell_length_c 14.370497
_cell_angle_alpha 90.000000
_cell_angle_beta 90.000000
_cell_angle_gamma 90.000000
_cell_volume 3134.748317
_symmetry_space_group_name_H-M "C C C A"
_symmetry_group_IT_number 68
_space_group.IT_coordinate_system_code '2'
_symmetry_cell_setting 'orthorhombic'
loop_
_space_group_symop_operation_xyz
x,y,z
-x,1/2-y,z
x,1/2-y,1/2-z
-x,y,1/2-z
-x,-y,-z
x,1/2+y,-z
-x,1/2+y,1/2+z
x,-y,1/2+z
1/2+x,1/2+y,z
1/2-x,-y,z
1/2+x,-y,1/2-z
1/2-x,1/2+y,1/2-z
1/2-x,1/2-y,-z
1/2+x,y,-z
1/2-x,y,1/2+z
1/2+x,1/2-y,1/2+z
loop_
_atom_site_type_symbol
_atom_site_label
_atom_site_fract_x
_atom_site_fract_y
_atom_site_fract_z
Si Si1 0.480077 0.643687 0.858760
Si Si2 0.216783 0.813057 0.709412
Si Si3 0.780977 0.652709 0.914629
Si Si4 0.879929 0.459022 0.538859
Si Si5 0.000000 0.250000 0.406406
O O1 0.500000 0.657139 0.750000
O O2 0.326275 0.669364 0.868739
O O3 0.613035 0.662638 0.919730
O O4 0.452700 0.574997 0.876366
O O5 0.264303 0.750000 0.750000
O O6 0.203828 0.853646 0.801093
O O7 0.075962 0.798895 0.657342
O O8 0.830340 0.593249 0.967337
O O9 0.874110 0.709446 0.944696
O O10 0.750000 0.500000 0.563152
O O11 0.000000 0.500000 0.500000
#
# Coordination Sequence:
#
# PCOD9507847 Si02
#       5
#    16  16  16  16   8
#     4  10  23  44  67  98 132 178 230 272 341 409
#     4   9  19  39  67 100 138 172 219 278 336 403
#     4  10  21  41  65  96 134 173 220 275 342 400
#     4  12  26  48  69  91 136 178 227 289 337 399
#     4  10  21  38  68 110 141 176 223 286 344 406
#
# _framework density 22.968351999999999
#
# number of rings (size 3 to 8) (size 9 to 14) (size 15 to 20)
#    0.000    1.778    2.222    3.000    3.111   10.222 
#    8.000   12.222    0.000    0.000    0.000    0.000 
#    0.000    0.000    0.000    0.000    0.000    0.000 
#
# Total GULP energy -200588.891653 kJ/mol
# GULP energy per Si atom -5571.913657 kJ/mol
# Density = 2.291608 g / cm^3
# Si number density = 22.968352 Si / 1000 Ang^3
#
#
#
# Elastic Constant Matrix: (Units=GPa)
#
#
# Indices 1 2 3 4 5 6 
#
# 1 159.3875 30.8374 8.1705 0.0000 0.0000 0.0000
# 2 30.8374 67.4873 7.0564 0.0000 0.0000 0.0000
# 3 8.1705 7.0564 67.9168 0.0000 0.0000 0.0000
# 4 0.0000 0.0000 0.0000 46.1291 0.0000 0.0000
# 5 0.0000 0.0000 0.0000 0.0000 25.4710 0.0000
# 6 0.0000 0.0000 0.0000 0.0000 0.0000 59.2859
#
#
#
# Elastic Compliance Matrix: (Units=1/GPa)
#
#
# Indices 1 2 3 4 5 6 
#
# 1 0.006900 -0.003100 -0.000508 0.000000 0.000000 0.000000
# 2 -0.003100 0.016373 -0.001328 0.000000 0.000000 0.000000
# 3 -0.000508 -0.001328 0.014923 0.000000 0.000000 0.000000
# 4 0.000000 0.000000 0.000000 0.021678 0.000000 0.000000
# 5 0.000000 0.000000 0.000000 0.000000 0.039260 0.000000
# 6 0.000000 0.000000 0.000000 0.000000 0.000000 0.016867
#
#
# Mechanical properties :
#
#
# Convention : Reuss Voigt Hill
#
# Bulk Modulus (GPa) = 35.30590 42.99114 39.14852
# Shear Modulus (GPa) = 36.95092 42.75901 39.85496
#
# Velocity S-wave (km/s) = 4.01531 4.31936 4.17011
# Velocity P-wave (km/s) = 6.07469 6.60561 6.34570
#
# Compressibility (1/GPa) = 0.02832388
#
# Stress axis : x y z
#
# Youngs Moduli (GPa) = 144.93257 61.07684 67.01065
#
# Poissons Ratio (x) = 0.18932 0.03404
# Poissons Ratio (y) = 0.44924 0.08900
# Poissons Ratio (z) = 0.07363 0.08112
#
# Static dielectric constant tensor:
#      x y z
#    x 2.044620 0.000000 0.000000 
#    y 0.000000 1.910210 0.000000 
#    z 0.000000 0.000000 1.887160 
# 
# From -- ./inp_files/19462.got.cif
#   From: 2010.05.17/outbox.cif.g08.bks.cpg/sg68_10_cif.got.tgz:19462.got - 2010.06.03 18:57:09.
