data_PCOD9507093
_publ_section_title
;
Structure prediction by ZEFSAII (Michael W. Deem and Ramdas Pophale) SiO2 
 PCOD9507093
Probable space group: C C C A
;
_chemical_formula_sum "Si O2"
_cell_formula_units_Z 88
_cell_length_a 17.781191
_cell_length_b 19.056720
_cell_length_c 10.641400
_cell_angle_alpha 90.000000
_cell_angle_beta 90.000000
_cell_angle_gamma 90.000000
_cell_volume 3605.850927
_symmetry_space_group_name_H-M "C C C A"
_symmetry_group_IT_number 68
_space_group.IT_coordinate_system_code '2'
_symmetry_cell_setting 'orthorhombic'
loop_
_space_group_symop_operation_xyz
x,y,z
-x,1/2-y,z
x,1/2-y,1/2-z
-x,y,1/2-z
-x,-y,-z
x,1/2+y,-z
-x,1/2+y,1/2+z
x,-y,1/2+z
1/2+x,1/2+y,z
1/2-x,-y,z
1/2+x,-y,1/2-z
1/2-x,1/2+y,1/2-z
1/2-x,1/2-y,-z
1/2+x,y,-z
1/2-x,y,1/2+z
1/2+x,1/2-y,1/2+z
loop_
_atom_site_type_symbol
_atom_site_label
_atom_site_fract_x
_atom_site_fract_y
_atom_site_fract_z
Si Si1 0.876100 0.843712 0.631149
Si Si2 0.512033 0.675919 0.963991
Si Si3 0.560505 0.538577 0.655604
Si Si4 0.801955 0.611083 0.119588
Si Si5 0.746592 0.250000 0.750000
Si Si6 0.129550 0.905035 0.592966
O O1 0.957084 0.817819 0.585346
O O2 0.843930 0.887038 0.513942
O O3 0.811688 0.785492 0.652723
O O4 0.883921 0.883934 0.761829
O O5 0.500000 0.750000 0.897253
O O6 0.595927 0.656391 0.006390
O O7 0.479801 0.609559 0.889739
O O8 0.500000 0.506920 0.750000
O O9 0.642797 0.563810 0.704952
O O10 0.582931 0.475257 0.563220
O O11 0.792894 0.687839 0.183351
O O12 0.718504 0.585054 0.089736
#
# Coordination Sequence:
#
# PCOD9507093 Si02
#       6
#    16  16  16  16   8  16
#     4  10  21  38  63  93 126 165 213 263 321 385
#     4  11  23  39  64  95 127 166 213 268 330 392
#     4  11  25  43  63  92 129 171 217 267 325 392
#     4  10  23  40  63  94 129 169 215 264 323 384
#     4  10  20  38  64  94 134 172 210 266 323 384
#     4  11  23  43  67  93 126 170 219 272 325 389
#
# _framework density 24.404779999999999
#
# number of rings (size 3 to 8) (size 9 to 14) (size 15 to 20)
#    0.000    1.455    0.000    5.455    0.000    9.818 
#    0.000    7.273    0.000    0.000    0.000    0.000 
#    0.000    0.000    0.000    0.000    0.000    0.000 
#
# Total GULP energy -245819.660444 kJ/mol
# GULP energy per Si atom -5586.810465 kJ/mol
# Density = 2.434923 g / cm^3
# Si number density = 24.404780 Si / 1000 Ang^3
#
#
#
# Elastic Constant Matrix: (Units=GPa)
#
#
# Indices 1 2 3 4 5 6 
#
# 1 149.0642 31.6371 16.9208 0.0000 0.0000 0.0000
# 2 31.6371 121.1641 3.9322 0.0000 0.0000 0.0000
# 3 16.9208 3.9322 39.1644 0.0000 0.0000 0.0000
# 4 0.0000 0.0000 0.0000 30.0454 0.0000 0.0000
# 5 0.0000 0.0000 0.0000 0.0000 14.5119 0.0000
# 6 0.0000 0.0000 0.0000 0.0000 0.0000 43.2582
#
#
#
# Elastic Compliance Matrix: (Units=1/GPa)
#
#
# Indices 1 2 3 4 5 6 
#
# 1 0.007444 -0.001845 -0.003031 0.000000 0.000000 0.000000
# 2 -0.001845 0.008738 -0.000080 0.000000 0.000000 0.000000
# 3 -0.003031 -0.000080 0.026851 0.000000 0.000000 0.000000
# 4 0.000000 0.000000 0.000000 0.033283 0.000000 0.000000
# 5 0.000000 0.000000 0.000000 0.000000 0.068909 0.000000
# 6 0.000000 0.000000 0.000000 0.000000 0.000000 0.023117
#
#
# Mechanical properties :
#
#
# Convention : Reuss Voigt Hill
#
# Bulk Modulus (GPa) = 30.19304 46.04142 38.11723
# Shear Modulus (GPa) = 26.41387 34.68996 30.55191
#
# Velocity S-wave (km/s) = 3.29344 3.77429 3.54203
# Velocity P-wave (km/s) = 5.18275 6.15633 5.69040
#
# Compressibility (1/GPa) = 0.03312021
#
# Stress axis : x y z
#
# Youngs Moduli (GPa) = 134.33214 114.44644 37.24260
#
# Poissons Ratio (x) = 0.21120 0.11288
# Poissons Ratio (y) = 0.24790 0.00298
# Poissons Ratio (z) = 0.40716 0.00916
#
# Static dielectric constant tensor:
#      x y z
#    x 1.945880 0.000000 0.000000 
#    y 0.000000 2.061590 0.000000 
#    z 0.000000 0.000000 2.034060 
# 
# From -- ./inp_files/23615.got.cif
#   From: 2010.05.17/outbox.cif.g08.bks.cpg/sg68_12_cif.got.tgz:23615.got - 2010.06.03 18:57:09.
