data_PCOD9507439
_publ_section_title
;
Structure prediction by ZEFSAII (Michael W. Deem and Ramdas Pophale) SiO2 
 PCOD9507439
Probable space group: C C C A
;
_chemical_formula_sum "Si O2"
_cell_formula_units_Z 112
_cell_length_a 10.355744
_cell_length_b 28.001468
_cell_length_c 13.903560
_cell_angle_alpha 90.000000
_cell_angle_beta 90.000000
_cell_angle_gamma 90.000000
_cell_volume 4031.699191
_symmetry_space_group_name_H-M "C C C A"
_symmetry_group_IT_number 68
_space_group.IT_coordinate_system_code '2'
_symmetry_cell_setting 'orthorhombic'
loop_
_space_group_symop_operation_xyz
x,y,z
-x,1/2-y,z
x,1/2-y,1/2-z
-x,y,1/2-z
-x,-y,-z
x,1/2+y,-z
-x,1/2+y,1/2+z
x,-y,1/2+z
1/2+x,1/2+y,z
1/2-x,-y,z
1/2+x,-y,1/2-z
1/2-x,1/2+y,1/2-z
1/2-x,1/2-y,-z
1/2+x,y,-z
1/2-x,y,1/2+z
1/2+x,1/2-y,1/2+z
loop_
_atom_site_type_symbol
_atom_site_label
_atom_site_fract_x
_atom_site_fract_y
_atom_site_fract_z
Si Si1 0.113879 0.523896 0.610590
Si Si2 0.444259 0.572970 0.619387
Si Si3 0.770527 0.926481 0.952885
Si Si4 0.309467 0.393610 0.734115
Si Si5 0.617249 0.346620 0.039124
Si Si6 0.591031 0.797569 0.140957
Si Si7 0.148679 0.754416 0.136117
O O1 0.250000 0.500000 0.646327
O O2 0.160929 0.539663 0.501819
O O3 0.098854 0.572416 0.669680
O O4 0.981550 0.518437 0.355393
O O5 0.397494 0.560295 0.510285
O O6 0.333276 0.595918 0.687481
O O7 0.544472 0.615128 0.604624
O O8 0.796580 0.914993 0.842147
O O9 0.734604 0.876219 0.003103
O O10 0.365674 0.338936 0.718946
O O11 0.677873 0.307717 0.107121
O O12 0.536192 0.325579 0.951333
O O13 0.500000 0.750000 0.157779
O O14 0.731043 0.777706 0.105275
O O15 0.144895 0.750000 0.250000
O O16 0.000000 0.750000 0.100883
#
# Coordination Sequence:
#
# PCOD9507439 Si02
#       7
#    16  16  16  16  16  16  16
#     4   8  18  39  68 106 144 190 245 317 387 468
#     4  10  23  41  70 109 148 190 252 320 386 477
#     4  10  21  40  72 100 144 195 247 309 392 455
#     4  10  20  44  72 102 151 194 261 319 388 459
#     4  12  24  43  70 101 148 200 253 319 395 466
#     4  12  26  45  72 109 155 210 258 326 398 469
#     4  11  26  47  73 105 144 199 271 332 383 457
#
# _framework density 27.77985
#
# number of rings (size 3 to 8) (size 9 to 14) (size 15 to 20)
#    0.000    1.857    2.857    2.571    2.000    7.714 
#    2.571    0.000    0.000    5.143    0.000    0.000 
#    0.000    0.000    0.000    0.000    0.000    0.000 
#
# Total GULP energy -312101.107590 kJ/mol
# GULP energy per Si atom -5573.234064 kJ/mol
# Density = 2.771662 g / cm^3
# Si number density = 27.779850 Si / 1000 Ang^3
#
#
#
# Elastic Constant Matrix: (Units=GPa)
#
#
# Indices 1 2 3 4 5 6 
#
# 1 120.2996 39.4940 29.1743 0.0000 0.0000 0.0000
# 2 39.4940 198.2908 64.9784 0.0000 0.0000 0.0000
# 3 29.1743 64.9784 202.0176 0.0000 0.0000 0.0000
# 4 0.0000 0.0000 0.0000 144.3532 0.0000 0.0000
# 5 0.0000 0.0000 0.0000 0.0000 13.8178 0.0000
# 6 0.0000 0.0000 0.0000 0.0000 0.0000 47.8842
#
#
#
# Elastic Compliance Matrix: (Units=1/GPa)
#
#
# Indices 1 2 3 4 5 6 
#
# 1 0.009011 -0.001530 -0.000809 0.000000 0.000000 0.000000
# 2 -0.001530 0.005897 -0.001676 0.000000 0.000000 0.000000
# 3 -0.000809 -0.001676 0.005606 0.000000 0.000000 0.000000
# 4 0.000000 0.000000 0.000000 0.006927 0.000000 0.000000
# 5 0.000000 0.000000 0.000000 0.000000 0.072370 0.000000
# 6 0.000000 0.000000 0.000000 0.000000 0.000000 0.020884
#
#
# Mechanical properties :
#
#
# Convention : Reuss Voigt Hill
#
# Bulk Modulus (GPa) = 80.09966 87.54460 83.82213
# Shear Modulus (GPa) = 37.62621 67.00847 52.31734
#
# Velocity S-wave (km/s) = 3.68427 4.91667 4.34439
# Velocity P-wave (km/s) = 6.85527 7.98834 7.44340
#
# Compressibility (1/GPa) = 0.01248445
#
# Stress axis : x y z
#
# Youngs Moduli (GPa) = 110.97553 169.58082 178.38116
#
# Poissons Ratio (x) = 0.25938 0.14437
# Poissons Ratio (y) = 0.16974 0.29894
# Poissons Ratio (z) = 0.08982 0.28419
#
# Static dielectric constant tensor:
#      x y z
#    x 2.415840 0.000000 0.000000 
#    y 0.000000 2.376350 0.000000 
#    z 0.000000 0.000000 2.195480 
# 
# From -- ./inp_files/21265.got.cif
#   From: 2010.05.17/outbox.cif.g08.bks.cpg/sg68_11_cif.got.tgz:21265.got - 2010.06.03 18:57:09.
