data_PCOD9507721
_publ_section_title
;
Structure prediction by ZEFSAII (Michael W. Deem and Ramdas Pophale) SiO2 
 PCOD9507721
Probable space group: C C C A
;
_chemical_formula_sum "Si O2"
_cell_formula_units_Z 64
_cell_length_a 5.316039
_cell_length_b 34.588058
_cell_length_c 14.432379
_cell_angle_alpha 90.000000
_cell_angle_beta 90.000000
_cell_angle_gamma 90.000000
_cell_volume 2653.702674
_symmetry_space_group_name_H-M "C C C A"
_symmetry_group_IT_number 68
_space_group.IT_coordinate_system_code '2'
_symmetry_cell_setting 'orthorhombic'
loop_
_space_group_symop_operation_xyz
x,y,z
-x,1/2-y,z
x,1/2-y,1/2-z
-x,y,1/2-z
-x,-y,-z
x,1/2+y,-z
-x,1/2+y,1/2+z
x,-y,1/2+z
1/2+x,1/2+y,z
1/2-x,-y,z
1/2+x,-y,1/2-z
1/2-x,1/2+y,1/2-z
1/2-x,1/2-y,-z
1/2+x,y,-z
1/2-x,y,1/2+z
1/2+x,1/2-y,1/2+z
loop_
_atom_site_type_symbol
_atom_site_label
_atom_site_fract_x
_atom_site_fract_y
_atom_site_fract_z
Si Si1 0.495501 0.983142 0.896044
Si Si2 0.506365 0.393958 0.362395
Si Si3 0.482733 0.149657 0.638017
Si Si4 0.742720 0.732673 0.103958
O O1 0.460374 0.937274 0.897262
O O2 0.750000 0.000000 0.853889
O O3 0.250000 0.000000 0.848753
O O4 0.500000 0.000000 0.000000
O O5 0.500000 0.394275 0.250000
O O6 0.222974 0.382208 0.388598
O O7 0.735010 0.364427 0.389911
O O8 0.500000 0.154188 0.750000
O O9 0.338210 0.187962 0.600904
O O10 0.500000 0.750000 0.152358
O O11 0.000000 0.750000 0.145135
O O12 0.750000 0.750000 0.000000
#
# Coordination Sequence:
#
# PCOD9507721 Si02
#       4
#    16  16  16  16
#     4  10  21  38  56  84 120 153 195 244 301 362
#     4  10  21  38  61  86 115 155 201 248 300 359
#     4  10  21  39  61  87 118 155 200 249 300 360
#     4  10  21  39  59  87 122 157 200 246 303 367
#
# _framework density 24.117245
#
# number of rings (size 3 to 8) (size 9 to 14) (size 15 to 20)
#    0.000    2.000    0.000    3.000    0.000    1.500 
#    0.000   31.250    0.000    0.000    0.000    0.000 
#    0.000    0.000    0.000    0.000    0.000    0.000 
#
# Total GULP energy -178428.972744 kJ/mol
# GULP energy per Si atom -5575.905398 kJ/mol
# Density = 2.406235 g / cm^3
# Si number density = 24.117245 Si / 1000 Ang^3
#
#
#
# Elastic Constant Matrix: (Units=GPa)
#
#
# Indices 1 2 3 4 5 6 
#
# 1 248.8841 57.3062 21.5269 0.0000 0.0000 0.0000
# 2 57.3062 159.7856 20.1357 0.0000 0.0000 0.0000
# 3 21.5269 20.1357 117.6483 0.0000 0.0000 0.0000
# 4 0.0000 0.0000 0.0000 45.6427 0.0000 0.0000
# 5 0.0000 0.0000 0.0000 0.0000 -41.5561 0.0000
# 6 0.0000 0.0000 0.0000 0.0000 0.0000 55.3385
#
#
#
# Elastic Compliance Matrix: (Units=1/GPa)
#
#
# Indices 1 2 3 4 5 6 
#
# 1 0.004414 -0.001514 -0.000549 0.000000 0.000000 0.000000
# 2 -0.001514 0.006916 -0.000907 0.000000 0.000000 0.000000
# 3 -0.000549 -0.000907 0.008755 0.000000 0.000000 0.000000
# 4 0.000000 0.000000 0.000000 0.021909 0.000000 0.000000
# 5 0.000000 0.000000 0.000000 0.000000 -0.024064 0.000000
# 6 0.000000 0.000000 0.000000 0.000000 0.000000 0.018071
#
#
# Mechanical properties :
#
#
# Convention : Reuss Voigt Hill
#
# Bulk Modulus (GPa) = 70.68699 80.47286 75.57993
# Shear Modulus (GPa) = 107.17002 40.37495 73.77249
#
# Velocity S-wave (km/s) = 6.67335 4.09603 5.53674
# Velocity P-wave (km/s) = 9.42080 7.47059 8.50180
#
# Compressibility (1/GPa) = 0.01414687
#
# Stress axis : x y z
#
# Youngs Moduli (GPa) = 226.55372 144.60073 114.21456
#
# Poissons Ratio (x) = 0.21891 0.06265
# Poissons Ratio (y) = 0.34298 0.10355
# Poissons Ratio (z) = 0.12427 0.13110
#
# Static dielectric constant tensor:
#      x y z
#    x 1.969100 0.000000 0.000000 
#    y 0.000000 2.125630 0.000000 
#    z 0.000000 0.000000 1.875900 
# 
# From -- ./inp_files/27132.got.cif
#   From: 2010.05.17/outbox.cif.g08.bks.cpg/sg68_14_cif.got.tgz:27132.got - 2010.06.03 18:57:09.
