data_PCOD9507560
_publ_section_title
;
Structure prediction by ZEFSAII (Michael W. Deem and Ramdas Pophale) SiO2 
 PCOD9507560
Probable space group: C C C A
;
_chemical_formula_sum "Si O2"
_cell_formula_units_Z 88
_cell_length_a 23.579588
_cell_length_b 10.767201
_cell_length_c 16.999642
_cell_angle_alpha 90.000000
_cell_angle_beta 90.000000
_cell_angle_gamma 90.000000
_cell_volume 4315.973888
_symmetry_space_group_name_H-M "C C C A"
_symmetry_group_IT_number 68
_space_group.IT_coordinate_system_code '2'
_symmetry_cell_setting 'orthorhombic'
loop_
_space_group_symop_operation_xyz
x,y,z
-x,1/2-y,z
x,1/2-y,1/2-z
-x,y,1/2-z
-x,-y,-z
x,1/2+y,-z
-x,1/2+y,1/2+z
x,-y,1/2+z
1/2+x,1/2+y,z
1/2-x,-y,z
1/2+x,-y,1/2-z
1/2-x,1/2+y,1/2-z
1/2-x,1/2-y,-z
1/2+x,y,-z
1/2-x,y,1/2+z
1/2+x,1/2-y,1/2+z
loop_
_atom_site_type_symbol
_atom_site_label
_atom_site_fract_x
_atom_site_fract_y
_atom_site_fract_z
Si Si1 0.000000 0.750000 0.468267
Si Si2 0.328910 0.723193 0.159140
Si Si3 0.005834 0.934256 0.159562
Si Si4 0.269662 0.144604 0.436727
Si Si5 0.587269 0.598309 0.076303
Si Si6 0.883571 0.518887 0.416978
O O1 0.969957 0.838532 0.404509
O O2 0.045891 0.813206 0.524870
O O3 0.338101 0.750000 0.250000
O O4 0.263766 0.693198 0.139732
O O5 0.357502 0.834162 0.109689
O O6 0.359398 0.600008 0.127106
O O7 0.943063 0.955601 0.125169
O O8 0.000000 0.898019 0.250000
O O9 0.048120 0.049451 0.147224
O O10 0.250000 0.250000 0.500000
O O11 0.336265 0.127854 0.418617
O O12 0.250000 0.000000 0.456197
O O13 0.605451 0.499164 0.009785
#
# Coordination Sequence:
#
# PCOD9507560 Si02
#       6
#     8  16  16  16  16  16
#     4  10  21  36  55  82 118 168 212 252 315 400
#     4  11  22  38  63  94 128 158 215 280 337 383
#     4  11  22  37  57  89 129 161 210 266 334 388
#     4  10  21  42  66  91 125 168 220 270 322 396
#     4  11  20  36  62  87 123 166 219 252 332 395
#     4  10  21  39  62  87 126 170 215 267 325 406
#
# _framework density 20.389374
#
# number of rings (size 3 to 8) (size 9 to 14) (size 15 to 20)
#    0.000    1.455    1.818    5.727    0.000    0.000 
#    0.000    8.182    0.000    0.000    0.000    0.000 
#    0.000    0.000    0.000    0.000    0.000    0.000 
#
# Total GULP energy -245069.918325 kJ/mol
# GULP energy per Si atom -5569.770871 kJ/mol
# Density = 2.034297 g / cm^3
# Si number density = 20.389374 Si / 1000 Ang^3
#
#
#
# Elastic Constant Matrix: (Units=GPa)
#
#
# Indices 1 2 3 4 5 6 
#
# 1 90.5010 26.9734 21.2092 0.0000 0.0000 0.0000
# 2 26.9734 69.0691 42.4627 0.0000 0.0000 0.0000
# 3 21.2092 42.4627 133.5444 0.0000 0.0000 0.0000
# 4 0.0000 0.0000 0.0000 16.5137 0.0000 0.0000
# 5 0.0000 0.0000 0.0000 0.0000 18.0112 0.0000
# 6 0.0000 0.0000 0.0000 0.0000 0.0000 13.7731
#
#
#
# Elastic Compliance Matrix: (Units=1/GPa)
#
#
# Indices 1 2 3 4 5 6 
#
# 1 0.012536 -0.004564 -0.000540 0.000000 0.000000 0.000000
# 2 -0.004564 0.019658 -0.005526 0.000000 0.000000 0.000000
# 3 -0.000540 -0.005526 0.009331 0.000000 0.000000 0.000000
# 4 0.000000 0.000000 0.000000 0.060556 0.000000 0.000000
# 5 0.000000 0.000000 0.000000 0.000000 0.055521 0.000000
# 6 0.000000 0.000000 0.000000 0.000000 0.000000 0.072605
#
#
# Mechanical properties :
#
#
# Convention : Reuss Voigt Hill
#
# Bulk Modulus (GPa) = 49.34350 52.71170 51.02760
# Shear Modulus (GPa) = 19.36325 23.15755 21.26040
#
# Velocity S-wave (km/s) = 3.08502 3.37377 3.23262
# Velocity P-wave (km/s) = 6.07807 6.40976 6.24612
#
# Compressibility (1/GPa) = 0.02026609
#
# Stress axis : x y z
#
# Youngs Moduli (GPa) = 79.76792 50.87062 107.17128
#
# Poissons Ratio (x) = 0.23217 0.05785
# Poissons Ratio (y) = 0.36406 0.59219
# Poissons Ratio (z) = 0.04306 0.28109
#
# Static dielectric constant tensor:
#      x y z
#    x 1.678980 0.000000 0.000000 
#    y 0.000000 2.121510 0.000000 
#    z 0.000000 0.000000 1.687000 
# 
# From -- ./inp_files/25257.got.cif
#   From: 2010.05.17/outbox.cif.g08.bks.cpg/sg68_13_cif.got.tgz:25257.got - 2010.06.03 18:57:09.
