data_PCOD9507646
_publ_section_title
;
Structure prediction by ZEFSAII (Michael W. Deem and Ramdas Pophale) SiO2 
 PCOD9507646
Probable space group: C C C A
;
_chemical_formula_sum "Si O2"
_cell_formula_units_Z 56
_cell_length_a 23.891966
_cell_length_b 5.026918
_cell_length_c 19.024533
_cell_angle_alpha 90.000000
_cell_angle_beta 90.000000
_cell_angle_gamma 90.000000
_cell_volume 2284.902611
_symmetry_space_group_name_H-M "C C C A"
_symmetry_group_IT_number 68
_space_group.IT_coordinate_system_code '2'
_symmetry_cell_setting 'orthorhombic'
loop_
_space_group_symop_operation_xyz
x,y,z
-x,1/2-y,z
x,1/2-y,1/2-z
-x,y,1/2-z
-x,-y,-z
x,1/2+y,-z
-x,1/2+y,1/2+z
x,-y,1/2+z
1/2+x,1/2+y,z
1/2-x,-y,z
1/2+x,-y,1/2-z
1/2-x,1/2+y,1/2-z
1/2-x,1/2-y,-z
1/2+x,y,-z
1/2-x,y,1/2+z
1/2+x,1/2-y,1/2+z
loop_
_atom_site_type_symbol
_atom_site_label
_atom_site_fract_x
_atom_site_fract_y
_atom_site_fract_z
Si Si1 0.902088 0.218899 0.327640
Si Si2 0.938362 0.571053 0.970248
Si Si3 0.250000 0.000000 0.054358
Si Si4 0.670910 0.726624 0.829105
O O1 0.926457 0.250000 0.250000
O O2 0.938657 0.315742 0.392633
O O3 0.848256 0.418776 0.335771
O O4 0.884422 0.912592 0.329926
O O5 0.908737 0.290015 0.981280
O O6 0.000000 0.500000 0.000000
O O7 0.292836 0.134328 0.111151
O O8 0.250000 0.250000 0.000000
O O9 0.695593 0.750000 0.750000
#
# Coordination Sequence:
#
# PCOD9507646 Si02
#       4
#    16  16   8  16
#     4  10  21  39  63  89 120 165 218 263 311 385
#     4  10  21  37  59  89 122 159 201 255 326 389
#     4  12  26  40  60  96 132 164 214 278 336 394
#     4  10  23  41  62  88 123 171 216 261 322 390
#
# _framework density 24.508703000000001
#
# number of rings (size 3 to 8) (size 9 to 14) (size 15 to 20)
#    0.000    1.714    0.000    3.429    0.000   11.429 
#    0.000    2.857    0.000    6.857    0.000    0.000 
#    0.000    0.000    0.000    0.000    0.000    0.000 
#
# Total GULP energy -155962.018837 kJ/mol
# GULP energy per Si atom -5570.072101 kJ/mol
# Density = 2.445292 g / cm^3
# Si number density = 24.508703 Si / 1000 Ang^3
#
#
#
# Elastic Constant Matrix: (Units=GPa)
#
#
# Indices 1 2 3 4 5 6 
#
# 1 37.3347 -1.2220 50.9975 0.0000 0.0000 0.0000
# 2 -1.2220 179.9339 51.4406 0.0000 0.0000 0.0000
# 3 50.9975 51.4406 262.2756 0.0000 0.0000 0.0000
# 4 0.0000 0.0000 0.0000 50.5582 0.0000 0.0000
# 5 0.0000 0.0000 0.0000 0.0000 72.3218 0.0000
# 6 0.0000 0.0000 0.0000 0.0000 0.0000 24.6300
#
#
#
# Elastic Compliance Matrix: (Units=1/GPa)
#
#
# Indices 1 2 3 4 5 6 
#
# 1 0.037486 0.002477 -0.007775 0.000000 0.000000 0.000000
# 2 0.002477 0.006051 -0.001669 0.000000 0.000000 0.000000
# 3 -0.007775 -0.001669 0.005652 0.000000 0.000000 0.000000
# 4 0.000000 0.000000 0.000000 0.019779 0.000000 0.000000
# 5 0.000000 0.000000 0.000000 0.000000 0.013827 0.000000
# 6 0.000000 0.000000 0.000000 0.000000 0.000000 0.040601
#
#
# Mechanical properties :
#
#
# Convention : Reuss Voigt Hill
#
# Bulk Modulus (GPa) = 28.36324 75.77516 52.06920
# Shear Modulus (GPa) = 33.53900 54.72388 44.13144
#
# Velocity S-wave (km/s) = 3.70327 4.73041 4.24800
# Velocity P-wave (km/s) = 5.46658 7.79875 6.73439
#
# Compressibility (1/GPa) = 0.03525690
#
# Stress axis : x y z
#
# Youngs Moduli (GPa) = 26.67688 165.24991 176.93590
#
# Poissons Ratio (x) = -0.40937 1.37562
# Poissons Ratio (y) = -0.06609 0.29523
# Poissons Ratio (z) = 0.20740 0.27573
#
# Static dielectric constant tensor:
#      x y z
#    x 2.534320 0.000000 0.000000 
#    y 0.000000 2.293530 0.000000 
#    z 0.000000 0.000000 2.029740 
# 
# From -- ./inp_files/26227.got.cif
#   From: 2010.05.17/outbox.cif.g08.bks.cpg/sg68_14_cif.got.tgz:26227.got - 2010.06.03 18:57:09.
