data_PCOD9507864
_publ_section_title
;
Structure prediction by ZEFSAII (Michael W. Deem and Ramdas Pophale) SiO2 
 PCOD9507864
Probable space group: C C C A
;
_chemical_formula_sum "Si O2"
_cell_formula_units_Z 96
_cell_length_a 14.853144
_cell_length_b 22.793937
_cell_length_c 12.286182
_cell_angle_alpha 90.000000
_cell_angle_beta 90.000000
_cell_angle_gamma 90.000000
_cell_volume 4159.629787
_symmetry_space_group_name_H-M "C C C A"
_symmetry_group_IT_number 68
_space_group.IT_coordinate_system_code '2'
_symmetry_cell_setting 'orthorhombic'
loop_
_space_group_symop_operation_xyz
x,y,z
-x,1/2-y,z
x,1/2-y,1/2-z
-x,y,1/2-z
-x,-y,-z
x,1/2+y,-z
-x,1/2+y,1/2+z
x,-y,1/2+z
1/2+x,1/2+y,z
1/2-x,-y,z
1/2+x,-y,1/2-z
1/2-x,1/2+y,1/2-z
1/2-x,1/2-y,-z
1/2+x,y,-z
1/2-x,y,1/2+z
1/2+x,1/2-y,1/2+z
loop_
_atom_site_type_symbol
_atom_site_label
_atom_site_fract_x
_atom_site_fract_y
_atom_site_fract_z
Si Si1 0.871095 0.477358 0.652154
Si Si2 0.833224 0.369270 0.509559
Si Si3 0.856208 0.396356 0.083594
Si Si4 0.069908 0.572321 0.141211
Si Si5 0.370406 0.317091 0.265780
Si Si6 0.846132 0.682022 0.774112
O O1 0.843273 0.436817 0.549079
O O2 0.832963 0.542147 0.641655
O O3 0.855737 0.456322 0.777525
O O4 0.979232 0.466131 0.647600
O O5 0.725851 0.361800 0.525964
O O6 0.880526 0.335029 0.608234
O O7 0.863944 0.345556 0.393172
O O8 0.892329 0.355405 0.178712
O O9 0.915851 0.418786 0.985460
O O10 0.075767 0.638310 0.189503
O O11 0.394407 0.250000 0.250000
O O12 0.262953 0.323868 0.240912
O O13 0.867476 0.750000 0.750000
#
# Coordination Sequence:
#
# PCOD9507864 Si02
#       6
#    16  16  16  16  16  16
#     4  10  23  40  60  90 123 166 208 263 315 380
#     4  10  21  39  58  94 128 155 213 262 310 382
#     4  11  22  38  65  88 121 166 203 259 325 368
#     4  10  21  41  61  91 121 162 217 253 316 390
#     4   9  19  35  65  92 123 164 208 262 314 368
#     4  10  22  37  63  97 127 165 209 266 322 374
#
# _framework density 23.078977999999999
#
# number of rings (size 3 to 8) (size 9 to 14) (size 15 to 20)
#    0.000    2.000    1.667    1.000    4.667    2.000 
#    0.000    6.667    0.000    1.000    0.000    0.000 
#    0.000    0.000    0.000    0.000    0.000    0.000 
#
# Total GULP energy -267476.182657 kJ/mol
# GULP energy per Si atom -5572.420472 kJ/mol
# Density = 2.302645 g / cm^3
# Si number density = 23.078978 Si / 1000 Ang^3
#
#
#
# Elastic Constant Matrix: (Units=GPa)
#
#
# Indices 1 2 3 4 5 6 
#
# 1 39.5858 -13.3767 11.3049 0.0000 0.0000 0.0000
# 2 -13.3767 124.7452 53.4960 0.0000 0.0000 0.0000
# 3 11.3049 53.4960 177.1834 0.0000 0.0000 0.0000
# 4 0.0000 0.0000 0.0000 11.0033 0.0000 0.0000
# 5 0.0000 0.0000 0.0000 0.0000 18.0509 0.0000
# 6 0.0000 0.0000 0.0000 0.0000 0.0000 -0.8878
#
#
#
# Elastic Compliance Matrix: (Units=1/GPa)
#
#
# Indices 1 2 3 4 5 6 
#
# 1 0.027572 0.004263 -0.003046 0.000000 0.000000 0.000000
# 2 0.004263 0.009868 -0.003251 0.000000 0.000000 0.000000
# 3 -0.003046 -0.003251 0.006820 0.000000 0.000000 0.000000
# 4 0.000000 0.000000 0.000000 0.090881 0.000000 0.000000
# 5 0.000000 0.000000 0.000000 0.000000 0.055399 0.000000
# 6 0.000000 0.000000 0.000000 0.000000 0.000000 -1.126345
#
#
# Mechanical properties :
#
#
# Convention : Reuss Voigt Hill
#
# Bulk Modulus (GPa) = 24.88153 49.37366 37.12760
# Shear Modulus (GPa) = -5.44461 24.97263 9.76401
#
# Velocity S-wave (km/s) = -1.53761 3.29302 2.05910
# Velocity P-wave (km/s) = 2.76625 5.99153 4.66640
#
# Compressibility (1/GPa) = 0.04019045
#
# Stress axis : x y z
#
# Youngs Moduli (GPa) = 36.26861 101.34005 146.63002
#
# Poissons Ratio (x) = -0.43201 0.44668
# Poissons Ratio (y) = -0.15461 0.47674
# Poissons Ratio (z) = 0.11048 0.32949
#
# Static dielectric constant tensor:
#      x y z
#    x 2.007380 0.000000 0.000000 
#    y 0.000000 1.861400 0.000000 
#    z 0.000000 0.000000 1.912620 
# 
# From -- ./inp_files/14616.got.cif
#   From: 2010.05.17/outbox.cif.g08.bks.cpg/sg68_8_cif.got.tgz:14616.got - 2010.06.03 18:57:09.
