data_PCOD9507907
_publ_section_title
;
Structure prediction by ZEFSAII (Michael W. Deem and Ramdas Pophale) SiO2 
 PCOD9507907
Probable space group: C C C A
;
_chemical_formula_sum "Si O2"
_cell_formula_units_Z 104
_cell_length_a 20.468210
_cell_length_b 26.799234
_cell_length_c 9.905561
_cell_angle_alpha 90.000000
_cell_angle_beta 90.000000
_cell_angle_gamma 90.000000
_cell_volume 5433.520647
_symmetry_space_group_name_H-M "C C C A"
_symmetry_group_IT_number 68
_space_group.IT_coordinate_system_code '2'
_symmetry_cell_setting 'orthorhombic'
loop_
_space_group_symop_operation_xyz
x,y,z
-x,1/2-y,z
x,1/2-y,1/2-z
-x,y,1/2-z
-x,-y,-z
x,1/2+y,-z
-x,1/2+y,1/2+z
x,-y,1/2+z
1/2+x,1/2+y,z
1/2-x,-y,z
1/2+x,-y,1/2-z
1/2-x,1/2+y,1/2-z
1/2-x,1/2-y,-z
1/2+x,y,-z
1/2-x,y,1/2+z
1/2+x,1/2-y,1/2+z
loop_
_atom_site_type_symbol
_atom_site_label
_atom_site_fract_x
_atom_site_fract_y
_atom_site_fract_z
Si Si1 0.628839 0.943838 0.773608
Si Si2 0.321801 0.520050 0.050904
Si Si3 0.068367 0.705030 0.669442
Si Si4 0.423846 0.791470 0.637001
Si Si5 0.316244 0.132119 0.846818
Si Si6 0.000000 0.381611 0.750000
Si Si7 0.709587 0.847126 0.855598
O O1 0.561200 0.918093 0.729128
O O2 0.679390 0.898966 0.800296
O O3 0.651257 0.979845 0.655296
O O4 0.632475 0.971604 0.919311
O O5 0.250000 0.500000 0.006509
O O6 0.317167 0.572463 0.132712
O O7 0.102630 0.750000 0.750000
O O8 0.065218 0.725007 0.516142
O O9 0.111309 0.655135 0.659924
O O10 0.000000 0.696824 0.750000
O O11 0.436616 0.750000 0.750000
O O12 0.469182 0.841211 0.646323
O O13 0.348880 0.807966 0.663312
O O14 0.276733 0.155523 0.723296
O O15 0.281589 0.150161 0.984339
#
# Coordination Sequence:
#
# PCOD9507907 Si02
#       7
#    16  16  16  16  16   8  16
#     4  10  22  39  58  90 122 162 201 253 302 364
#     4  11  21  38  65  89 123 161 209 252 309 367
#     4  10  24  44  61  90 131 161 204 261 315 376
#     4  10  22  41  67  89 114 165 210 251 309 384
#     4  10  21  39  62  90 126 161 202 259 313 371
#     4  10  23  42  62  84 130 156 205 252 306 370
#     4   9  20  38  60  90 124 153 203 258 311 365
#
# _framework density 19.140443999999999
#
# number of rings (size 3 to 8) (size 9 to 14) (size 15 to 20)
#    0.000    2.000    1.538    1.615    6.462    2.462 
#    6.923    3.077    0.000    0.000    0.000    0.000 
#    0.000    0.000    0.000    0.000    0.000    0.000 
#
# Total GULP energy -289516.994334 kJ/mol
# GULP energy per Si atom -5567.634506 kJ/mol
# Density = 1.909688 g / cm^3
# Si number density = 19.140444 Si / 1000 Ang^3
#
#
#
# Elastic Constant Matrix: (Units=GPa)
#
#
# Indices 1 2 3 4 5 6 
#
# 1 52.2739 21.0890 34.4283 0.0000 0.0000 0.0000
# 2 21.0890 74.4234 38.5354 0.0000 0.0000 0.0000
# 3 34.4283 38.5354 105.0352 0.0000 0.0000 0.0000
# 4 0.0000 0.0000 0.0000 -217.6312 0.0000 0.0000
# 5 0.0000 0.0000 0.0000 0.0000 13.6554 0.0000
# 6 0.0000 0.0000 0.0000 0.0000 0.0000 18.2937
#
#
#
# Elastic Compliance Matrix: (Units=1/GPa)
#
#
# Indices 1 2 3 4 5 6 
#
# 1 0.025124 -0.003525 -0.006942 0.000000 0.000000 0.000000
# 2 -0.003525 0.017082 -0.005112 0.000000 0.000000 0.000000
# 3 -0.006942 -0.005112 0.013671 0.000000 0.000000 0.000000
# 4 0.000000 0.000000 0.000000 -0.004595 0.000000 0.000000
# 5 0.000000 0.000000 0.000000 0.000000 0.073231 0.000000
# 6 0.000000 0.000000 0.000000 0.000000 0.000000 0.054664
#
#
# Mechanical properties :
#
#
# Convention : Reuss Voigt Hill
#
# Bulk Modulus (GPa) = 40.45202 46.64868 43.55035
# Shear Modulus (GPa) = 22.87546 -27.95775 -2.54114
#
# Velocity S-wave (km/s) = 3.46083 -3.82601 -1.15348
# Velocity P-wave (km/s) = 6.09508 2.21515 4.58568
#
# Compressibility (1/GPa) = 0.02472064
#
# Stress axis : x y z
#
# Youngs Moduli (GPa) = 39.80241 58.54020 73.14511
#
# Poissons Ratio (x) = 0.20635 0.50777
# Poissons Ratio (y) = 0.14030 0.37390
# Poissons Ratio (z) = 0.27631 0.29924
#
# Static dielectric constant tensor:
#      x y z
#    x 1.703000 0.000000 0.000000 
#    y 0.000000 1.630980 0.000000 
#    z 0.000000 0.000000 1.674780 
# 
# From -- ./inp_files/7392.got.cif
#   From: 2010.05.17/outbox.cif.g08.bks.cpg/sg68_4_cif.got.tgz:7392.got - 2010.06.03 18:57:09.
