data_PCOD9507595
_publ_section_title
;
Structure prediction by ZEFSAII (Michael W. Deem and Ramdas Pophale) SiO2 
 PCOD9507595
Probable space group: C C C A
;
_chemical_formula_sum "Si O2"
_cell_formula_units_Z 72
_cell_length_a 14.211441
_cell_length_b 13.276831
_cell_length_c 20.122160
_cell_angle_alpha 90.000000
_cell_angle_beta 90.000000
_cell_angle_gamma 90.000000
_cell_volume 3796.707512
_symmetry_space_group_name_H-M "C C C A"
_symmetry_group_IT_number 68
_space_group.IT_coordinate_system_code '2'
_symmetry_cell_setting 'orthorhombic'
loop_
_space_group_symop_operation_xyz
x,y,z
-x,1/2-y,z
x,1/2-y,1/2-z
-x,y,1/2-z
-x,-y,-z
x,1/2+y,-z
-x,1/2+y,1/2+z
x,-y,1/2+z
1/2+x,1/2+y,z
1/2-x,-y,z
1/2+x,-y,1/2-z
1/2-x,1/2+y,1/2-z
1/2-x,1/2-y,-z
1/2+x,y,-z
1/2-x,y,1/2+z
1/2+x,1/2-y,1/2+z
loop_
_atom_site_type_symbol
_atom_site_label
_atom_site_fract_x
_atom_site_fract_y
_atom_site_fract_z
Si Si1 0.242200 0.750000 0.250000
Si Si2 0.342689 0.568156 0.305591
Si Si3 0.021468 0.867680 0.441219
Si Si4 0.361545 0.022910 0.547413
Si Si5 0.086440 0.093106 0.793734
O O1 0.309318 0.681344 0.294564
O O2 0.174335 0.669234 0.213891
O O3 0.250000 0.500000 0.312552
O O4 0.387941 0.558128 0.377818
O O5 0.391706 0.514143 0.242423
O O6 0.101306 0.896077 0.494552
O O7 0.055660 0.909023 0.369761
O O8 0.000000 0.750000 0.435136
O O9 0.925324 0.923702 0.462633
O O10 0.250000 0.000000 0.541561
O O11 0.000000 0.134317 0.750000
#
# Coordination Sequence:
#
# PCOD9507595 Si02
#       5
#     8  16  16  16  16
#     4  10  21  36  61  92 120 158 208 252 313 369
#     4   9  20  39  59  89 122 160 200 257 313 358
#     4  11  24  41  65  96 120 169 214 251 314 376
#     4  10  23  44  61  88 133 164 203 264 313 367
#     4  11  20  37  63  90 120 154 207 258 296 366
#
# _framework density 18.963801
#
# number of rings (size 3 to 8) (size 9 to 14) (size 15 to 20)
#    0.000    1.778    2.222    1.667    6.222    3.556 
#    8.000    0.556    0.000    0.000    0.000    0.000 
#    0.000    0.000    0.000    0.000    0.000    0.000 
#
# Total GULP energy -200597.313361 kJ/mol
# GULP energy per Si atom -5572.147593 kJ/mol
# Density = 1.892064 g / cm^3
# Si number density = 18.963801 Si / 1000 Ang^3
#
#
#
# Elastic Constant Matrix: (Units=GPa)
#
#
# Indices 1 2 3 4 5 6 
#
# 1 88.9259 42.1104 37.2088 0.0000 0.0000 0.0000
# 2 42.1104 63.4999 54.0863 0.0000 0.0000 0.0000
# 3 37.2088 54.0863 128.9626 0.0000 0.0000 0.0000
# 4 0.0000 0.0000 0.0000 31.5606 0.0000 0.0000
# 5 0.0000 0.0000 0.0000 0.0000 12.7796 0.0000
# 6 0.0000 0.0000 0.0000 0.0000 0.0000 19.7559
#
#
#
# Elastic Compliance Matrix: (Units=1/GPa)
#
#
# Indices 1 2 3 4 5 6 
#
# 1 0.016399 -0.010649 -0.000265 0.000000 0.000000 0.000000
# 2 -0.010649 0.031415 -0.010103 0.000000 0.000000 0.000000
# 3 -0.000265 -0.010103 0.012068 0.000000 0.000000 0.000000
# 4 0.000000 0.000000 0.000000 0.031685 0.000000 0.000000
# 5 0.000000 0.000000 0.000000 0.000000 0.078250 0.000000
# 6 0.000000 0.000000 0.000000 0.000000 0.000000 0.050618
#
#
# Mechanical properties :
#
#
# Convention : Reuss Voigt Hill
#
# Bulk Modulus (GPa) = 56.03030 60.91105 58.47068
# Shear Modulus (GPa) = 18.62760 22.68476 20.65618
#
# Velocity S-wave (km/s) = 3.13752 3.46238 3.30395
# Velocity P-wave (km/s) = 6.53724 6.94071 6.74199
#
# Compressibility (1/GPa) = 0.01784749
#
# Stress axis : x y z
#
# Youngs Moduli (GPa) = 60.97846 31.83158 82.86491
#
# Poissons Ratio (x) = 0.33898 0.02199
# Poissons Ratio (y) = 0.64938 0.83717
# Poissons Ratio (z) = 0.01618 0.32159
#
# Static dielectric constant tensor:
#      x y z
#    x 1.693200 0.000000 0.000000 
#    y 0.000000 1.718860 0.000000 
#    z 0.000000 0.000000 1.713230 
# 
# From -- ./inp_files/30646.got.cif
#   From: 2010.05.17/outbox.cif.g08.bks.cpg/sg68_16_cif.got.tgz:30646.got - 2010.06.03 18:57:09.
