data_PCOD9507165
_publ_section_title
;
Structure prediction by ZEFSAII (Michael W. Deem and Ramdas Pophale) SiO2 
 PCOD9507165
Probable space group: C C C A
;
_chemical_formula_sum "Si O2"
_cell_formula_units_Z 88
_cell_length_a 23.404492
_cell_length_b 29.140674
_cell_length_c 5.786563
_cell_angle_alpha 90.000000
_cell_angle_beta 90.000000
_cell_angle_gamma 90.000000
_cell_volume 3946.567156
_symmetry_space_group_name_H-M "C C C A"
_symmetry_group_IT_number 68
_space_group.IT_coordinate_system_code '2'
_symmetry_cell_setting 'orthorhombic'
loop_
_space_group_symop_operation_xyz
x,y,z
-x,1/2-y,z
x,1/2-y,1/2-z
-x,y,1/2-z
-x,-y,-z
x,1/2+y,-z
-x,1/2+y,1/2+z
x,-y,1/2+z
1/2+x,1/2+y,z
1/2-x,-y,z
1/2+x,-y,1/2-z
1/2-x,1/2+y,1/2-z
1/2-x,1/2-y,-z
1/2+x,y,-z
1/2-x,y,1/2+z
1/2+x,1/2-y,1/2+z
loop_
_atom_site_type_symbol
_atom_site_label
_atom_site_fract_x
_atom_site_fract_y
_atom_site_fract_z
Si Si1 0.653284 0.336005 0.493933
Si Si2 0.560178 0.690005 0.622499
Si Si3 0.389212 0.391879 0.627539
Si Si4 0.386632 0.250000 0.750000
Si Si5 0.979621 0.447545 0.500090
Si Si6 0.239648 0.601614 0.529615
O O1 0.614553 0.317008 0.289250
O O2 0.619863 0.379933 0.604008
O O3 0.650704 0.293941 0.675786
O O4 0.716686 0.355095 0.454628
O O5 0.500000 0.692475 0.750000
O O6 0.564941 0.644701 0.464960
O O7 0.573323 0.732911 0.458183
O O8 0.412068 0.440102 0.534471
O O9 0.326327 0.384072 0.525436
O O10 0.000000 0.428728 0.750000
O O11 0.000000 0.500000 0.500000
O O12 0.000000 0.428284 0.250000
O O13 0.252685 0.577979 0.282294
#
# Coordination Sequence:
#
# PCOD9507165 Si02
#       6
#    16  16  16   8  16  16
#     4  10  22  39  60  91 126 174 231 283 338 394
#     4  11  23  39  62  89 129 173 230 285 347 407
#     4  10  22  37  65  95 131 168 223 274 336 401
#     4  10  24  41  58  88 126 182 223 286 348 400
#     4  10  23  41  66 104 144 173 208 267 338 413
#     4  10  20  39  62  91 125 165 223 280 323 389
#
# _framework density 22.29786
#
# number of rings (size 3 to 8) (size 9 to 14) (size 15 to 20)
#    0.000    1.818    1.818    1.091    5.091    4.364 
#    0.000    8.182    0.000    0.000    0.000   61.091 
#    0.000    0.000    0.000    0.000    0.000    0.000 
#
# Total GULP energy -245108.297017 kJ/mol
# GULP energy per Si atom -5570.643114 kJ/mol
# Density = 2.224711 g / cm^3
# Si number density = 22.297860 Si / 1000 Ang^3
#
#
#
# Elastic Constant Matrix: (Units=GPa)
#
#
# Indices 1 2 3 4 5 6 
#
# 1 150.2473 41.6091 56.7463 0.0000 0.0000 0.0000
# 2 41.6091 60.2112 19.1096 0.0000 0.0000 0.0000
# 3 56.7463 19.1096 156.7176 0.0000 0.0000 0.0000
# 4 0.0000 0.0000 0.0000 19.5496 0.0000 0.0000
# 5 0.0000 0.0000 0.0000 0.0000 33.3521 0.0000
# 6 0.0000 0.0000 0.0000 0.0000 0.0000 19.4245
#
#
#
# Elastic Compliance Matrix: (Units=1/GPa)
#
#
# Indices 1 2 3 4 5 6 
#
# 1 0.009182 -0.005503 -0.002654 0.000000 0.000000 0.000000
# 2 -0.005503 0.020575 -0.000516 0.000000 0.000000 0.000000
# 3 -0.002654 -0.000516 0.007405 0.000000 0.000000 0.000000
# 4 0.000000 0.000000 0.000000 0.051152 0.000000 0.000000
# 5 0.000000 0.000000 0.000000 0.000000 0.029983 0.000000
# 6 0.000000 0.000000 0.000000 0.000000 0.000000 0.051481
#
#
# Mechanical properties :
#
#
# Convention : Reuss Voigt Hill
#
# Bulk Modulus (GPa) = 50.46494 66.90068 58.68281
# Shear Modulus (GPa) = 25.80922 31.11263 28.46092
#
# Velocity S-wave (km/s) = 3.40586 3.73945 3.57655
# Velocity P-wave (km/s) = 6.17639 6.97947 6.59017
#
# Compressibility (1/GPa) = 0.01981574
#
# Stress axis : x y z
#
# Youngs Moduli (GPa) = 108.90944 48.60286 135.04862
#
# Poissons Ratio (x) = 0.26746 0.35838
# Poissons Ratio (y) = 0.59933 0.06972
# Poissons Ratio (z) = 0.28901 0.02509
#
# Static dielectric constant tensor:
#      x y z
#    x 1.863780 0.000000 0.000000 
#    y 0.000000 1.903000 0.000000 
#    z 0.000000 0.000000 1.986370 
# 
# From -- ./inp_files/2090.got.cif
#   From: 2010.05.17/outbox.cif.g08.bks.cpg/sg68_2_cif.got.tgz:2090.got - 2010.06.03 18:57:09.
