data_PCOD9507656
_publ_section_title
;
Structure prediction by ZEFSAII (Michael W. Deem and Ramdas Pophale) SiO2 
 PCOD9507656
Probable space group: C C C A
;
_chemical_formula_sum "Si O2"
_cell_formula_units_Z 112
_cell_length_a 19.827729
_cell_length_b 14.357503
_cell_length_c 17.204964
_cell_angle_alpha 90.000000
_cell_angle_beta 90.000000
_cell_angle_gamma 90.000000
_cell_volume 4897.852007
_symmetry_space_group_name_H-M "C C C A"
_symmetry_group_IT_number 68
_space_group.IT_coordinate_system_code '2'
_symmetry_cell_setting 'orthorhombic'
loop_
_space_group_symop_operation_xyz
x,y,z
-x,1/2-y,z
x,1/2-y,1/2-z
-x,y,1/2-z
-x,-y,-z
x,1/2+y,-z
-x,1/2+y,1/2+z
x,-y,1/2+z
1/2+x,1/2+y,z
1/2-x,-y,z
1/2+x,-y,1/2-z
1/2-x,1/2+y,1/2-z
1/2-x,1/2-y,-z
1/2+x,y,-z
1/2-x,y,1/2+z
1/2+x,1/2-y,1/2+z
loop_
_atom_site_type_symbol
_atom_site_label
_atom_site_fract_x
_atom_site_fract_y
_atom_site_fract_z
Si Si1 0.626320 0.499999 0.000000
Si Si2 0.082309 0.006692 0.250000
Si Si3 0.794770 0.649498 0.420724
Si Si4 0.078874 0.853592 0.886931
Si Si5 0.714971 0.099330 0.250000
Si Si6 0.078874 0.146408 0.113070
Si Si7 0.205230 0.350501 0.920723
O O1 0.587530 0.587919 0.034665
O O2 0.668584 0.449078 0.067028
O O3 0.668585 0.550921 0.932973
O O4 0.587530 0.412080 0.965336
O O5 0.100240 0.074489 0.321223
O O6 0.100240 0.074489 0.178778
O O7 0.000000 0.986398 0.250000
O O8 0.133009 0.918756 0.250000
O O9 0.765923 0.645254 0.332999
O O10 0.832171 0.749999 0.423455
O O11 0.750000 0.650978 0.500001
O O12 0.110181 0.750000 0.887675
O O13 1.000000 0.841520 0.872662
O O14 0.734077 0.145255 0.332998
O O15 0.750000 0.000000 0.250000
#
# Coordination Sequence:
#
# PCOD9507656 Si02
#       7
#    16  16  16  16  16  16  16
#     4  12  20  38  62  90 128 172 224 280 332 410
#     4  10  21  41  67  96 134 174 224 283 342 406
#     4  11  25  43  65  95 133 175 223 284 346 409
#     4  10  21  37  60  92 130 174 224 279 337 400
#     4  12  23  44  71  99 135 180 231 284 343 412
#     4  10  21  37  60  92 130 174 224 279 337 400
#     4  11  25  43  65  95 133 175 223 284 346 409
#
# _framework density 22.867167999999999
#
# number of rings (size 3 to 8) (size 9 to 14) (size 15 to 20)
#    0.000    1.143    2.857    4.286    0.000    1.714 
#    0.000    1.429    0.000    3.429    0.000    0.000 
#    0.000    0.000    0.000    0.000    0.000    0.000 
#
# Total GULP energy -311766.210329 kJ/mol
# GULP energy per Si atom -5567.253756 kJ/mol
# Density = 2.281512 g / cm^3
# Si number density = 22.867168 Si / 1000 Ang^3
#
#
#
# Elastic Constant Matrix: (Units=GPa)
#
#
# Indices 1 2 3 4 5 6 
#
# 1 49.6831 25.5336 12.7394 0.0000 0.0000 0.0000
# 2 25.5336 126.4712 28.8173 0.0000 0.0000 0.0000
# 3 12.7394 28.8173 160.1182 0.0000 0.0000 0.0000
# 4 0.0000 0.0000 0.0000 -4.5858 0.0000 0.0000
# 5 0.0000 0.0000 0.0000 0.0000 19.8651 0.0000
# 6 0.0000 0.0000 0.0000 0.0000 0.0000 27.5491
#
#
#
# Elastic Compliance Matrix: (Units=1/GPa)
#
#
# Indices 1 2 3 4 5 6 
#
# 1 0.022616 -0.004334 -0.001019 0.000000 0.000000 0.000000
# 2 -0.004334 0.009075 -0.001289 0.000000 0.000000 0.000000
# 3 -0.001019 -0.001289 0.006558 0.000000 0.000000 0.000000
# 4 0.000000 0.000000 0.000000 -0.218066 0.000000 0.000000
# 5 0.000000 0.000000 0.000000 0.000000 0.050340 0.000000
# 6 0.000000 0.000000 0.000000 0.000000 0.000000 0.036299
#
#
# Mechanical properties :
#
#
# Convention : Reuss Voigt Hill
#
# Bulk Modulus (GPa) = 40.05351 52.27257 46.16304
# Shear Modulus (GPa) = -69.85982 26.51117 -21.67432
#
# Velocity S-wave (km/s) = -5.53323 3.40862 -3.08203
# Velocity P-wave (km/s) = 4.82373 6.19681 2.75065
#
# Compressibility (1/GPa) = 0.02496660
#
# Stress axis : x y z
#
# Youngs Moduli (GPa) = 44.21609 110.18678 152.47616
#
# Poissons Ratio (x) = 0.47752 0.15544
# Poissons Ratio (y) = 0.19162 0.19647
# Poissons Ratio (z) = 0.04507 0.14198
#
# Static dielectric constant tensor:
#      x y z
#    x 1.960820 0.000000 0.000000 
#    y 0.000000 1.924440 0.000000 
#    z 0.000000 0.000000 2.035750 
# 
# From -- ./inp_files/25460.got.cif
#   From: 2010.05.17/outbox.cif.g08.bks.cpg/sg68_13_cif.got.tgz:25460.got - 2010.06.03 18:57:09.
