data_PCOD9507425
_publ_section_title
;
Structure prediction by ZEFSAII (Michael W. Deem and Ramdas Pophale) SiO2 
 PCOD9507425
Probable space group: C C C A
;
_chemical_formula_sum "Si O2"
_cell_formula_units_Z 108
_cell_length_a 13.215562
_cell_length_b 31.163850
_cell_length_c 13.149533
_cell_angle_alpha 90.000000
_cell_angle_beta 90.000000
_cell_angle_gamma 90.000000
_cell_volume 5415.606130
_symmetry_space_group_name_H-M "C C C A"
_symmetry_group_IT_number 68
_space_group.IT_coordinate_system_code '2'
_symmetry_cell_setting 'orthorhombic'
loop_
_space_group_symop_operation_xyz
x,y,z
-x,1/2-y,z
x,1/2-y,1/2-z
-x,y,1/2-z
-x,-y,-z
x,1/2+y,-z
-x,1/2+y,1/2+z
x,-y,1/2+z
1/2+x,1/2+y,z
1/2-x,-y,z
1/2+x,-y,1/2-z
1/2-x,1/2+y,1/2-z
1/2-x,1/2-y,-z
1/2+x,y,-z
1/2-x,y,1/2+z
1/2+x,1/2-y,1/2+z
loop_
_atom_site_type_symbol
_atom_site_label
_atom_site_fract_x
_atom_site_fract_y
_atom_site_fract_z
Si Si1 0.470162 0.466712 0.366159
Si Si2 0.562711 0.290734 0.925371
Si Si3 0.000000 0.750000 0.250000
Si Si4 0.830319 0.303218 0.622625
Si Si5 0.672976 0.602322 0.539853
Si Si6 0.019100 0.879247 0.871278
Si Si7 0.327841 0.750000 0.250000
Si Si8 0.622887 0.047332 0.960751
O O1 0.500000 0.466289 0.250000
O O2 0.413688 0.424146 0.402563
O O3 0.572577 0.468826 0.433747
O O4 0.393458 0.505879 0.389786
O O5 0.500000 0.250000 0.956156
O O6 0.495111 0.333156 0.921300
O O7 0.605472 0.282580 0.814230
O O8 0.653011 0.292592 0.004854
O O9 0.927919 0.782418 0.316843
O O10 0.813565 0.354711 0.609503
O O11 0.738760 0.278565 0.674558
O O12 0.629575 0.612748 0.425445
O O13 0.769505 0.570855 0.530858
O O14 0.000000 0.877784 0.750000
O O15 0.949268 0.916521 0.913444
#
# Coordination Sequence:
#
# PCOD9507425 Si02
#       8
#    16  16   4  16  16  16   8  16
#     4  10  22  43  65  97 126 167 207 256 326 384
#     4  11  22  39  61  86 127 167 208 263 315 372
#     4  10  20  44  66  86 126 184 202 280 316 396
#     4  10  23  41  62  92 125 167 220 258 324 371
#     4  10  23  40  63  97 127 164 215 266 311 382
#     4  10  22  39  61  93 125 169 211 255 325 375
#     4  11  23  39  59  94 122 166 213 269 305 385
#     4  10  22  42  66  91 133 162 208 266 313 388
#
# _framework density 19.942364999999999
#
# number of rings (size 3 to 8) (size 9 to 14) (size 15 to 20)
#    0.000    1.778    0.741    2.444    5.185    1.185 
#    2.667    4.444    0.000    0.000    0.000    0.000 
#    0.000    0.000    0.000    0.000    0.000    0.000 
#
# Total GULP energy -300762.453614 kJ/mol
# GULP energy per Si atom -5569.675067 kJ/mol
# Density = 1.989698 g / cm^3
# Si number density = 19.942365 Si / 1000 Ang^3
#
#
#
# Elastic Constant Matrix: (Units=GPa)
#
#
# Indices 1 2 3 4 5 6 
#
# 1 49.3107 20.3598 11.6410 0.0000 0.0000 0.0000
# 2 20.3598 124.1536 32.4609 0.0000 0.0000 0.0000
# 3 11.6410 32.4609 101.4921 0.0000 0.0000 0.0000
# 4 0.0000 0.0000 0.0000 24.6489 0.0000 0.0000
# 5 0.0000 0.0000 0.0000 0.0000 20.4673 0.0000
# 6 0.0000 0.0000 0.0000 0.0000 0.0000 52.9335
#
#
#
# Elastic Compliance Matrix: (Units=1/GPa)
#
#
# Indices 1 2 3 4 5 6 
#
# 1 0.021957 -0.003211 -0.001492 0.000000 0.000000 0.000000
# 2 -0.003211 0.009259 -0.002593 0.000000 0.000000 0.000000
# 3 -0.001492 -0.002593 0.010853 0.000000 0.000000 0.000000
# 4 0.000000 0.000000 0.000000 0.040570 0.000000 0.000000
# 5 0.000000 0.000000 0.000000 0.000000 0.048858 0.000000
# 6 0.000000 0.000000 0.000000 0.000000 0.000000 0.018892
#
#
# Mechanical properties :
#
#
# Convention : Reuss Voigt Hill
#
# Bulk Modulus (GPa) = 36.39149 44.87555 40.63352
# Shear Modulus (GPa) = 28.71252 33.64293 31.17772
#
# Velocity S-wave (km/s) = 3.79855 4.11178 3.95826
# Velocity P-wave (km/s) = 6.12590 6.71519 6.42730
#
# Compressibility (1/GPa) = 0.02747895
#
# Stress axis : x y z
#
# Youngs Moduli (GPa) = 45.54280 108.00230 92.13675
#
# Poissons Ratio (x) = 0.34677 0.13743
# Poissons Ratio (y) = 0.14623 0.23892
# Poissons Ratio (z) = 0.06793 0.28006
#
# Static dielectric constant tensor:
#      x y z
#    x 1.716700 0.000000 0.000000 
#    y 0.000000 1.722920 0.000000 
#    z 0.000000 0.000000 1.634120 
# 
# From -- ./inp_files/13620.got.cif
#   From: 2010.05.17/outbox.cif.g08.bks.cpg/sg68_7_cif.got.tgz:13620.got - 2010.06.03 18:57:09.
