data_PCOD9507069
_publ_section_title
;
Structure prediction by ZEFSAII (Michael W. Deem and Ramdas Pophale) SiO2 
 PCOD9507069
Probable space group: C C C A
;
_chemical_formula_sum "Si O2"
_cell_formula_units_Z 64
_cell_length_a 8.957505
_cell_length_b 25.562678
_cell_length_c 13.421530
_cell_angle_alpha 90.000000
_cell_angle_beta 90.000000
_cell_angle_gamma 90.000000
_cell_volume 3073.232627
_symmetry_space_group_name_H-M "C C C A"
_symmetry_group_IT_number 68
_space_group.IT_coordinate_system_code '2'
_symmetry_cell_setting 'orthorhombic'
loop_
_space_group_symop_operation_xyz
x,y,z
-x,1/2-y,z
x,1/2-y,1/2-z
-x,y,1/2-z
-x,-y,-z
x,1/2+y,-z
-x,1/2+y,1/2+z
x,-y,1/2+z
1/2+x,1/2+y,z
1/2-x,-y,z
1/2+x,-y,1/2-z
1/2-x,1/2+y,1/2-z
1/2-x,1/2-y,-z
1/2+x,y,-z
1/2-x,y,1/2+z
1/2+x,1/2-y,1/2+z
loop_
_atom_site_type_symbol
_atom_site_label
_atom_site_fract_x
_atom_site_fract_y
_atom_site_fract_z
Si Si1 0.627356 0.461232 0.038468
Si Si2 0.785331 0.129633 0.109572
Si Si3 0.858753 0.868438 0.312783
Si Si4 0.011336 0.311678 0.976619
O O1 0.750000 0.500000 0.079794
O O2 0.594662 0.420554 0.126771
O O3 0.500000 0.500000 0.000000
O O4 0.693058 0.425572 0.948249
O O5 0.765264 0.123923 0.228461
O O6 0.638808 0.159745 0.064206
O O7 0.931814 0.162226 0.078520
O O8 0.000000 0.850498 0.250000
O O9 0.852518 0.825493 0.399374
O O10 0.000000 0.250000 0.983619
#
# Coordination Sequence:
#
# PCOD9507069 Si02
#       4
#    16  16  16  16
#     4  11  22  38  59  82 114 157 199 248 305 359
#     4  10  21  39  59  88 122 154 203 259 305 366
#     4   9  20  36  57  86 116 149 197 248 297 362
#     4  10  20  38  63  88 119 160 200 248 310 372
#
# _framework density 20.824977000000001
#
# number of rings (size 3 to 8) (size 9 to 14) (size 15 to 20)
#    0.000    2.000    0.000    5.250    0.000    7.500 
#    0.000   10.000    0.000    6.000    0.000    0.000 
#    0.000    0.000    0.000    0.000    0.000    0.000 
#
# Total GULP energy -178167.466281 kJ/mol
# GULP energy per Si atom -5567.733321 kJ/mol
# Density = 2.077758 g / cm^3
# Si number density = 20.824977 Si / 1000 Ang^3
#
#
#
# Elastic Constant Matrix: (Units=GPa)
#
#
# Indices 1 2 3 4 5 6 
#
# 1 47.5098 20.8456 13.6927 0.0000 0.0000 0.0000
# 2 20.8456 120.5992 25.5282 0.0000 0.0000 0.0000
# 3 13.6927 25.5282 114.1555 0.0000 0.0000 0.0000
# 4 0.0000 0.0000 0.0000 2.9524 0.0000 0.0000
# 5 0.0000 0.0000 0.0000 0.0000 35.1470 0.0000
# 6 0.0000 0.0000 0.0000 0.0000 0.0000 34.4175
#
#
#
# Elastic Compliance Matrix: (Units=1/GPa)
#
#
# Indices 1 2 3 4 5 6 
#
# 1 0.023194 -0.003590 -0.001979 0.000000 0.000000 0.000000
# 2 -0.003590 0.009260 -0.001640 0.000000 0.000000 0.000000
# 3 -0.001979 -0.001640 0.009364 0.000000 0.000000 0.000000
# 4 0.000000 0.000000 0.000000 0.338710 0.000000 0.000000
# 5 0.000000 0.000000 0.000000 0.000000 0.028452 0.000000
# 6 0.000000 0.000000 0.000000 0.000000 0.000000 0.029055
#
#
# Mechanical properties :
#
#
# Convention : Reuss Voigt Hill
#
# Bulk Modulus (GPa) = 36.49782 44.71084 40.60433
# Shear Modulus (GPa) = 10.83220 29.31657 20.07438
#
# Velocity S-wave (km/s) = 2.28316 3.75608 3.10813
# Velocity P-wave (km/s) = 4.95121 6.35038 5.69393
#
# Compressibility (1/GPa) = 0.02739890
#
# Stress axis : x y z
#
# Youngs Moduli (GPa) = 43.11473 107.99545 106.79032
#
# Poissons Ratio (x) = 0.38772 0.21136
# Poissons Ratio (y) = 0.15479 0.17514
# Poissons Ratio (z) = 0.08533 0.17712
#
# Static dielectric constant tensor:
#      x y z
#    x 1.757410 0.000000 0.000000 
#    y 0.000000 1.705380 0.000000 
#    z 0.000000 0.000000 1.816740 
# 
# From -- ./inp_files/11679.got.cif
#   From: 2010.05.17/outbox.cif.g08.bks.cpg/sg68_6_cif.got.tgz:11679.got - 2010.06.03 18:57:09.
