data_PCOD9507343
_publ_section_title
;
Structure prediction by ZEFSAII (Michael W. Deem and Ramdas Pophale) SiO2 
 PCOD9507343
Probable space group: C C C A
;
_chemical_formula_sum "Si O2"
_cell_formula_units_Z 96
_cell_length_a 21.061462
_cell_length_b 9.703952
_cell_length_c 24.348754
_cell_angle_alpha 90.000000
_cell_angle_beta 90.000000
_cell_angle_gamma 90.000000
_cell_volume 4976.384130
_symmetry_space_group_name_H-M "C C C A"
_symmetry_group_IT_number 68
_space_group.IT_coordinate_system_code '2'
_symmetry_cell_setting 'orthorhombic'
loop_
_space_group_symop_operation_xyz
x,y,z
-x,1/2-y,z
x,1/2-y,1/2-z
-x,y,1/2-z
-x,-y,-z
x,1/2+y,-z
-x,1/2+y,1/2+z
x,-y,1/2+z
1/2+x,1/2+y,z
1/2-x,-y,z
1/2+x,-y,1/2-z
1/2-x,1/2+y,1/2-z
1/2-x,1/2-y,-z
1/2+x,y,-z
1/2-x,y,1/2+z
1/2+x,1/2-y,1/2+z
loop_
_atom_site_type_symbol
_atom_site_label
_atom_site_fract_x
_atom_site_fract_y
_atom_site_fract_z
Si Si1 0.414066 0.025437 0.874348
Si Si2 0.611436 0.762231 0.036260
Si Si3 0.614732 0.770685 0.911050
Si Si4 0.259864 0.162233 0.584669
Si Si5 0.658127 0.256700 0.687261
Si Si6 0.061144 0.060490 0.128973
O O1 0.399879 0.091109 0.934487
O O2 0.367299 0.109278 0.834409
O O3 0.486789 0.056591 0.860044
O O4 0.404558 0.863440 0.877419
O O5 0.685882 0.722772 0.044551
O O6 0.574770 0.652321 0.074468
O O7 0.590310 0.762299 0.973720
O O8 0.690736 0.772649 0.917091
O O9 0.589517 0.910094 0.883284
O O10 0.288585 0.189749 0.645226
O O11 0.250000 0.000000 0.574399
O O12 0.677636 0.250000 0.750000
O O13 0.599890 0.362429 0.676764
#
# Coordination Sequence:
#
# PCOD9507343 Si02
#       6
#    16  16  16  16  16  16
#     4  10  23  36  57  93 116 148 203 241 275 346
#     4  10  21  35  59  83 120 169 197 220 278 349
#     4  12  21  36  57  88 125 157 187 238 289 338
#     4  10  20  41  59  85 119 154 196 244 290 342
#     4  10  22  44  67  81 104 154 199 243 301 358
#     4  10  21  39  58  85 124 153 191 240 286 341
#
# _framework density 19.291115000000001
#
# number of rings (size 3 to 8) (size 9 to 14) (size 15 to 20)
#    0.000    2.000    3.333    4.000    0.000    8.000 
#    3.000    0.833    0.000    2.000    0.000    0.000 
#    0.000    0.000    0.000    0.000    0.000    0.000 
#
# Total GULP energy -268071.822917 kJ/mol
# GULP energy per Si atom -5584.829644 kJ/mol
# Density = 1.924721 g / cm^3
# Si number density = 19.291115 Si / 1000 Ang^3
#
#
#
# Elastic Constant Matrix: (Units=GPa)
#
#
# Indices 1 2 3 4 5 6 
#
# 1 41.9441 -12.4694 -12.9955 0.0000 0.0000 0.0000
# 2 -12.4694 83.9231 -0.5093 0.0000 0.0000 0.0000
# 3 -12.9955 -0.5093 41.5187 0.0000 0.0000 0.0000
# 4 0.0000 0.0000 0.0000 2.7691 0.0000 0.0000
# 5 0.0000 0.0000 0.0000 0.0000 -129.6809 0.0000
# 6 0.0000 0.0000 0.0000 0.0000 0.0000 31.0636
#
#
#
# Elastic Compliance Matrix: (Units=1/GPa)
#
#
# Indices 1 2 3 4 5 6 
#
# 1 0.027796 0.004183 0.008752 0.000000 0.000000 0.000000
# 2 0.004183 0.012546 0.001463 0.000000 0.000000 0.000000
# 3 0.008752 0.001463 0.026843 0.000000 0.000000 0.000000
# 4 0.000000 0.000000 0.000000 0.361132 0.000000 0.000000
# 5 0.000000 0.000000 0.000000 0.000000 -0.007711 0.000000
# 6 0.000000 0.000000 0.000000 0.000000 0.000000 0.032192
#
#
# Mechanical properties :
#
#
# Convention : Reuss Voigt Hill
#
# Bulk Modulus (GPa) = 10.41870 12.82638 11.62254
# Shear Modulus (GPa) = 10.96501 -6.27897 2.34302
#
# Velocity S-wave (km/s) = 2.38669 -1.80608 1.10327
# Velocity P-wave (km/s) = 3.60660 1.52121 2.76782
#
# Compressibility (1/GPa) = 0.09598129
#
# Stress axis : x y z
#
# Youngs Moduli (GPa) = 35.97595 79.70611 37.25396
#
# Poissons Ratio (x) = -0.33342 -0.32603
# Poissons Ratio (y) = -0.15049 -0.05451
# Poissons Ratio (z) = -0.31485 -0.11663
#
# Static dielectric constant tensor:
#      x y z
#    x 1.687530 0.000000 0.000000 
#    y 0.000000 1.672090 0.000000 
#    z 0.000000 0.000000 1.646920 
# 
# From -- ./inp_files/49300.got.cif
#   From: 2010.05.17/outbox.cif.g08.bks.cpg/sg68_25_cif.got.tgz:49300.got - 2010.06.03 18:57:09.
