data_PCOD9507402
_publ_section_title
;
Structure prediction by ZEFSAII (Michael W. Deem and Ramdas Pophale) SiO2 
 PCOD9507402
Probable space group: C C C A
;
_chemical_formula_sum "Si O2"
_cell_formula_units_Z 64
_cell_length_a 24.278035
_cell_length_b 11.775093
_cell_length_c 9.106942
_cell_angle_alpha 90.000000
_cell_angle_beta 90.000000
_cell_angle_gamma 90.000000
_cell_volume 2603.457244
_symmetry_space_group_name_H-M "C C C A"
_symmetry_group_IT_number 68
_space_group.IT_coordinate_system_code '2'
_symmetry_cell_setting 'orthorhombic'
loop_
_space_group_symop_operation_xyz
x,y,z
-x,1/2-y,z
x,1/2-y,1/2-z
-x,y,1/2-z
-x,-y,-z
x,1/2+y,-z
-x,1/2+y,1/2+z
x,-y,1/2+z
1/2+x,1/2+y,z
1/2-x,-y,z
1/2+x,-y,1/2-z
1/2-x,1/2+y,1/2-z
1/2-x,1/2-y,-z
1/2+x,y,-z
1/2-x,y,1/2+z
1/2+x,1/2-y,1/2+z
loop_
_atom_site_type_symbol
_atom_site_label
_atom_site_fract_x
_atom_site_fract_y
_atom_site_fract_z
Si Si1 0.500000 0.506438 0.750000
Si Si2 0.062449 0.806564 0.410008
Si Si3 0.828040 0.556933 0.436449
Si Si4 0.404483 0.147080 0.841950
Si Si5 0.250000 0.500000 0.806992
O O1 0.479682 0.588472 0.617106
O O2 0.554041 0.426508 0.737986
O O3 0.062284 0.750000 0.250000
O O4 0.122621 0.856466 0.434822
O O5 0.058666 0.710789 0.535022
O O6 0.858648 0.435185 0.411035
O O7 0.793430 0.558514 0.584955
O O8 0.786086 0.576201 0.302553
O O9 0.379311 0.250000 0.750000
#
# Coordination Sequence:
#
# PCOD9507402 Si02
#       5
#     8  16  16  16   8
#     4  10  26  44  68  98 136 176 226 282 330 400
#     4  11  24  43  67  97 133 177 223 276 339 401
#     4  10  22  42  66  95 133 170 219 278 332 397
#     4  11  24  43  67  97 133 177 223 276 339 401
#     4  10  20  42  68  92 130 174 214 278 340 388
#
# _framework density 24.582695999999999
#
# number of rings (size 3 to 8) (size 9 to 14) (size 15 to 20)
#    0.000    1.500    0.000    3.750    0.000   12.000 
#    0.000   25.000    0.000    0.000    0.000    0.000 
#    0.000    0.000    0.000    0.000    0.000    0.000 
#
# Total GULP energy -178930.450824 kJ/mol
# GULP energy per Si atom -5591.576588 kJ/mol
# Density = 2.452674 g / cm^3
# Si number density = 24.582696 Si / 1000 Ang^3
#
#
#
# Elastic Constant Matrix: (Units=GPa)
#
#
# Indices 1 2 3 4 5 6 
#
# 1 157.3602 51.9817 47.1926 0.0000 0.0000 0.0000
# 2 51.9817 104.3825 37.4628 0.0000 0.0000 0.0000
# 3 47.1926 37.4628 129.6276 0.0000 0.0000 0.0000
# 4 0.0000 0.0000 0.0000 23.9142 0.0000 0.0000
# 5 0.0000 0.0000 0.0000 0.0000 34.4027 0.0000
# 6 0.0000 0.0000 0.0000 0.0000 0.0000 29.8836
#
#
#
# Elastic Compliance Matrix: (Units=1/GPa)
#
#
# Indices 1 2 3 4 5 6 
#
# 1 0.008034 -0.003293 -0.001973 0.000000 0.000000 0.000000
# 2 -0.003293 0.012038 -0.002280 0.000000 0.000000 0.000000
# 3 -0.001973 -0.002280 0.009092 0.000000 0.000000 0.000000
# 4 0.000000 0.000000 0.000000 0.041816 0.000000 0.000000
# 5 0.000000 0.000000 0.000000 0.000000 0.029067 0.000000
# 6 0.000000 0.000000 0.000000 0.000000 0.000000 0.033463
#
#
# Mechanical properties :
#
#
# Convention : Reuss Voigt Hill
#
# Bulk Modulus (GPa) = 71.06543 73.84940 72.45742
# Shear Modulus (GPa) = 32.61684 34.62232 33.61958
#
# Velocity S-wave (km/s) = 3.64651 3.75694 3.70214
# Velocity P-wave (km/s) = 6.83380 6.99470 6.91472
#
# Compressibility (1/GPa) = 0.01407154
#
# Stress axis : x y z
#
# Youngs Moduli (GPa) = 124.46471 83.06777 109.98843
#
# Poissons Ratio (x) = 0.27353 0.21705
# Poissons Ratio (y) = 0.40984 0.25081
# Poissons Ratio (z) = 0.24562 0.18942
#
# Static dielectric constant tensor:
#      x y z
#    x 1.920760 0.000000 0.000000 
#    y 0.000000 1.964080 0.000000 
#    z 0.000000 0.000000 1.985140 
# 
# From -- ./inp_files/9385.got.cif
#   From: 2010.05.17/outbox.cif.g08.bks.cpg/sg68_5_cif.got.tgz:9385.got - 2010.06.03 18:57:09.
