data_PCOD9507848
_publ_section_title
;
Structure prediction by ZEFSAII (Michael W. Deem and Ramdas Pophale) SiO2 
 PCOD9507848
Probable space group: C C C A
;
_chemical_formula_sum "Si O2"
_cell_formula_units_Z 56
_cell_length_a 34.583819
_cell_length_b 13.903626
_cell_length_c 5.197569
_cell_angle_alpha 90.000000
_cell_angle_beta 90.000000
_cell_angle_gamma 90.000000
_cell_volume 2499.201599
_symmetry_space_group_name_H-M "C C C A"
_symmetry_group_IT_number 68
_space_group.IT_coordinate_system_code '2'
_symmetry_cell_setting 'orthorhombic'
loop_
_space_group_symop_operation_xyz
x,y,z
-x,1/2-y,z
x,1/2-y,1/2-z
-x,y,1/2-z
-x,-y,-z
x,1/2+y,-z
-x,1/2+y,1/2+z
x,-y,1/2+z
1/2+x,1/2+y,z
1/2-x,-y,z
1/2+x,-y,1/2-z
1/2-x,1/2+y,1/2-z
1/2-x,1/2-y,-z
1/2+x,y,-z
1/2-x,y,1/2+z
1/2+x,1/2-y,1/2+z
loop_
_atom_site_type_symbol
_atom_site_label
_atom_site_fract_x
_atom_site_fract_y
_atom_site_fract_z
Si Si1 0.915539 0.066812 0.787287
Si Si2 0.500000 0.567961 0.750000
Si Si3 0.844298 0.688521 0.010221
Si Si4 0.266352 0.392289 0.637804
O O1 0.958086 0.116515 0.776798
O O2 0.882290 0.139324 0.871650
O O3 0.912405 0.016118 0.508083
O O4 0.500000 0.500000 0.500000
O O5 0.828738 0.750000 0.250000
O O6 0.851942 0.750000 0.750000
O O7 0.811018 0.612289 0.937426
O O8 0.250000 0.500000 0.674403
O O9 0.240555 0.346937 0.414240
#
# Coordination Sequence:
#
# PCOD9507848 Si02
#       4
#    16   8  16  16
#     4  10  21  38  68  91 125 167 213 256 309 376
#     4   8  16  34  59  96 117 154 210 254 286 356
#     4  12  26  41  62  96 132 162 207 270 332 382
#     4  10  23  40  63  86 118 164 222 257 312 381
#
# _framework density 22.407156000000001
#
# number of rings (size 3 to 8) (size 9 to 14) (size 15 to 20)
#    0.000    1.714    0.000    3.429    8.000    3.429 
#    0.000    0.714    0.000    1.714    0.000    0.000 
#    0.000    0.000    0.000    0.000    0.000    0.000 
#
# Total GULP energy -156207.835914 kJ/mol
# GULP energy per Si atom -5578.851283 kJ/mol
# Density = 2.235616 g / cm^3
# Si number density = 22.407156 Si / 1000 Ang^3
#
#
#
# Elastic Constant Matrix: (Units=GPa)
#
#
# Indices 1 2 3 4 5 6 
#
# 1 182.5269 44.9303 8.4480 0.0000 0.0000 0.0000
# 2 44.9303 68.0014 15.1517 0.0000 0.0000 0.0000
# 3 8.4480 15.1517 146.9189 0.0000 0.0000 0.0000
# 4 0.0000 0.0000 0.0000 21.2991 0.0000 0.0000
# 5 0.0000 0.0000 0.0000 0.0000 37.9146 0.0000
# 6 0.0000 0.0000 0.0000 0.0000 0.0000 4.7302
#
#
#
# Elastic Compliance Matrix: (Units=1/GPa)
#
#
# Indices 1 2 3 4 5 6 
#
# 1 0.006544 -0.004339 0.000071 0.000000 0.000000 0.000000
# 2 -0.004339 0.017929 -0.001600 0.000000 0.000000 0.000000
# 3 0.000071 -0.001600 0.006967 0.000000 0.000000 0.000000
# 4 0.000000 0.000000 0.000000 0.046950 0.000000 0.000000
# 5 0.000000 0.000000 0.000000 0.000000 0.026375 0.000000
# 6 0.000000 0.000000 0.000000 0.000000 0.000000 0.211406
#
#
# Mechanical properties :
#
#
# Convention : Reuss Voigt Hill
#
# Bulk Modulus (GPa) = 50.74920 59.38969 55.06944
# Shear Modulus (GPa) = 14.94880 34.71660 24.83270
#
# Velocity S-wave (km/s) = 2.58572 3.94045 3.33265
# Velocity P-wave (km/s) = 5.62249 6.87497 6.28003
#
# Compressibility (1/GPa) = 0.01970475
#
# Stress axis : x y z
#
# Youngs Moduli (GPa) = 152.82324 55.77527 143.52686
#
# Poissons Ratio (x) = 0.24203 -0.01023
# Poissons Ratio (y) = 0.66315 0.22957
# Poissons Ratio (z) = -0.01089 0.08921
#
# Static dielectric constant tensor:
#      x y z
#    x 1.867070 0.000000 0.000000 
#    y 0.000000 1.797660 0.000000 
#    z 0.000000 0.000000 1.872080 
# 
# From -- ./inp_files/666.got.cif
#   From: 2010.05.17/outbox.cif.g08.bks.cpg/sg68_1_cif.got.tgz:666.got - 2010.06.03 18:57:09.
