data_PCOD9507130
_publ_section_title
;
Structure prediction by ZEFSAII (Michael W. Deem and Ramdas Pophale) SiO2 
 PCOD9507130
Probable space group: C C C A
;
_chemical_formula_sum "Si O2"
_cell_formula_units_Z 88
_cell_length_a 16.718859
_cell_length_b 16.410583
_cell_length_c 12.536428
_cell_angle_alpha 90.000000
_cell_angle_beta 90.000000
_cell_angle_gamma 90.000000
_cell_volume 3439.572404
_symmetry_space_group_name_H-M "C C C A"
_symmetry_group_IT_number 68
_space_group.IT_coordinate_system_code '2'
_symmetry_cell_setting 'orthorhombic'
loop_
_space_group_symop_operation_xyz
x,y,z
-x,1/2-y,z
x,1/2-y,1/2-z
-x,y,1/2-z
-x,-y,-z
x,1/2+y,-z
-x,1/2+y,1/2+z
x,-y,1/2+z
1/2+x,1/2+y,z
1/2-x,-y,z
1/2+x,-y,1/2-z
1/2-x,1/2+y,1/2-z
1/2-x,1/2-y,-z
1/2+x,y,-z
1/2-x,y,1/2+z
1/2+x,1/2-y,1/2+z
loop_
_atom_site_type_symbol
_atom_site_label
_atom_site_fract_x
_atom_site_fract_y
_atom_site_fract_z
Si Si1 0.250000 0.500000 0.771612
Si Si2 0.500000 0.623616 0.250000
Si Si3 0.658795 0.210156 0.482785
Si Si4 0.000000 0.250000 0.422468
Si Si5 0.298035 0.610958 0.460482
Si Si6 0.500000 0.617764 0.750000
Si Si7 0.099308 0.011264 0.873548
Si Si8 0.635457 0.250000 0.250000
O O1 0.175187 0.471280 0.702803
O O2 0.279223 0.428222 0.848060
O O3 0.464363 0.682800 0.340942
O O4 0.434641 0.572806 0.180594
O O5 0.564240 0.204718 0.502654
O O6 0.676006 0.295283 0.541378
O O7 0.708818 0.129171 0.513497
O O8 0.678302 0.236084 0.360991
O O9 0.360785 0.550018 0.518826
O O10 0.517226 0.562038 0.852295
O O11 0.423112 0.673333 0.747664
#
# Coordination Sequence:
#
# PCOD9507130 Si02
#       8
#     8   8  16   8  16   8  16   8
#     4  12  26  42  70 102 142 194 236 304 370 438
#     4  10  26  48  76 106 146 206 238 322 380 448
#     4  11  25  44  72 107 147 196 245 314 371 452
#     4  11  24  47  74 108 148 191 264 309 382 456
#     4  11  26  46  67 109 144 194 248 302 376 447
#     4  10  20  38  68  98 132 188 236 294 356 426
#     4  11  24  47  69 103 147 190 247 300 373 448
#     4  11  20  42  70 102 144 185 246 299 376 436
#
# _framework density 25.584575999999998
#
# number of rings (size 3 to 8) (size 9 to 14) (size 15 to 20)
#    0.000    1.091    1.818    3.818    5.091    0.000 
#    0.000    2.727    0.000    0.000    0.000    0.000 
#    0.000    0.000    0.000    0.000    0.000    0.000 
#
# Total GULP energy -244994.328277 kJ/mol
# GULP energy per Si atom -5568.052915 kJ/mol
# Density = 2.552634 g / cm^3
# Si number density = 25.584576 Si / 1000 Ang^3
#
#
#
# Elastic Constant Matrix: (Units=GPa)
#
#
# Indices 1 2 3 4 5 6 
#
# 1 76.1567 19.0326 30.1120 0.0000 0.0000 0.0000
# 2 19.0326 87.8899 20.4164 0.0000 0.0000 0.0000
# 3 30.1120 20.4164 85.6941 0.0000 0.0000 0.0000
# 4 0.0000 0.0000 0.0000 -530.8398 0.0000 0.0000
# 5 0.0000 0.0000 0.0000 0.0000 41.7555 0.0000
# 6 0.0000 0.0000 0.0000 0.0000 0.0000 35.8547
#
#
#
# Elastic Compliance Matrix: (Units=1/GPa)
#
#
# Indices 1 2 3 4 5 6 
#
# 1 0.015654 -0.002236 -0.004968 0.000000 0.000000 0.000000
# 2 -0.002236 0.012364 -0.002160 0.000000 0.000000 0.000000
# 3 -0.004968 -0.002160 0.013930 0.000000 0.000000 0.000000
# 4 0.000000 0.000000 0.000000 -0.001884 0.000000 0.000000
# 5 0.000000 0.000000 0.000000 0.000000 0.023949 0.000000
# 6 0.000000 0.000000 0.000000 0.000000 0.000000 0.027890
#
#
# Mechanical properties :
#
#
# Convention : Reuss Voigt Hill
#
# Bulk Modulus (GPa) = 43.06656 43.20698 43.13677
# Shear Modulus (GPa) = 42.24031 -78.63393 -18.19681
#
# Velocity S-wave (km/s) = 4.06767 -5.54992 -2.66980
# Velocity P-wave (km/s) = 6.23945 4.91368 2.71905
#
# Compressibility (1/GPa) = 0.02321987
#
# Stress axis : x y z
#
# Youngs Moduli (GPa) = 63.88187 80.88127 71.78899
#
# Poissons Ratio (x) = 0.18084 0.35664
# Poissons Ratio (y) = 0.14283 0.15506
# Poissons Ratio (z) = 0.31736 0.17470
#
# Static dielectric constant tensor:
#      x y z
#    x 2.198700 0.000000 0.000000 
#    y 0.000000 2.170560 0.000000 
#    z 0.000000 0.000000 2.035300 
# 
# From -- ./inp_files/23656.got.cif
#   From: 2010.05.17/outbox.cif.g08.bks.cpg/sg68_12_cif.got.tgz:23656.got - 2010.06.03 18:57:09.
