data_PCOD9507970
_publ_section_title
;
Structure prediction by ZEFSAII (Michael W. Deem and Ramdas Pophale) SiO2 
 PCOD9507970
Probable space group: C C C A
;
_chemical_formula_sum "Si O2"
_cell_formula_units_Z 80
_cell_length_a 21.146094
_cell_length_b 7.723092
_cell_length_c 21.459673
_cell_angle_alpha 90.000000
_cell_angle_beta 90.000000
_cell_angle_gamma 90.000000
_cell_volume 3504.648500
_symmetry_space_group_name_H-M "C C C A"
_symmetry_group_IT_number 68
_space_group.IT_coordinate_system_code '2'
_symmetry_cell_setting 'orthorhombic'
loop_
_space_group_symop_operation_xyz
x,y,z
-x,1/2-y,z
x,1/2-y,1/2-z
-x,y,1/2-z
-x,-y,-z
x,1/2+y,-z
-x,1/2+y,1/2+z
x,-y,1/2+z
1/2+x,1/2+y,z
1/2-x,-y,z
1/2+x,-y,1/2-z
1/2-x,1/2+y,1/2-z
1/2-x,1/2-y,-z
1/2+x,y,-z
1/2-x,y,1/2+z
1/2+x,1/2-y,1/2+z
loop_
_atom_site_type_symbol
_atom_site_label
_atom_site_fract_x
_atom_site_fract_y
_atom_site_fract_z
Si Si1 0.554810 0.602261 0.175967
Si Si2 0.632851 0.279630 0.563923
Si Si3 0.000000 0.750000 0.151594
Si Si4 0.750052 0.195386 0.127323
Si Si5 0.169526 0.250000 0.250000
Si Si6 0.878159 0.867897 0.080279
O O1 0.500000 0.750000 0.183679
O O2 0.581730 0.619340 0.105358
O O3 0.525312 0.416514 0.187257
O O4 0.618013 0.623282 0.218087
O O5 0.704515 0.316155 0.586657
O O6 0.627936 0.310833 0.491146
O O7 0.623974 0.077227 0.581575
O O8 0.055821 0.683656 0.108288
O O9 0.783959 0.188596 0.194728
O O10 0.675878 0.228666 0.121497
O O11 0.750000 0.000000 0.100222
#
# Coordination Sequence:
#
# PCOD9507970 Si02
#       6
#    16  16   8  16   8  16
#     4  11  23  45  68 103 141 180 230 282 348 416
#     4  10  21  39  67  96 142 182 228 288 346 413
#     4  12  26  40  71 106 142 179 230 282 348 438
#     4   9  21  41  65  93 133 180 236 293 346 404
#     4  10  23  44  74  91 130 194 232 296 352 403
#     4  11  22  39  64 105 141 184 231 285 353 422
#
# _framework density 22.826823999999998
#
# number of rings (size 3 to 8) (size 9 to 14) (size 15 to 20)
#    0.000    1.600    2.000    2.100    1.400    3.200 
#    0.000    9.000    0.000    0.000    0.000    0.000 
#    0.000    0.000    0.000    0.000    0.000    0.000 
#
# Total GULP energy -223390.698293 kJ/mol
# GULP energy per Si atom -5584.767457 kJ/mol
# Density = 2.277487 g / cm^3
# Si number density = 22.826824 Si / 1000 Ang^3
#
#
#
# Elastic Constant Matrix: (Units=GPa)
#
#
# Indices 1 2 3 4 5 6 
#
# 1 165.4778 38.1403 57.5939 0.0000 0.0000 0.0000
# 2 38.1403 112.4304 14.0710 0.0000 0.0000 0.0000
# 3 57.5939 14.0710 107.8529 0.0000 0.0000 0.0000
# 4 0.0000 0.0000 0.0000 -6.7446 0.0000 0.0000
# 5 0.0000 0.0000 0.0000 0.0000 31.7262 0.0000
# 6 0.0000 0.0000 0.0000 0.0000 0.0000 28.2610
#
#
#
# Elastic Compliance Matrix: (Units=1/GPa)
#
#
# Indices 1 2 3 4 5 6 
#
# 1 0.007921 -0.002194 -0.003944 0.000000 0.000000 0.000000
# 2 -0.002194 0.009649 -0.000088 0.000000 0.000000 0.000000
# 3 -0.003944 -0.000088 0.011389 0.000000 0.000000 0.000000
# 4 0.000000 0.000000 0.000000 -0.148267 0.000000 0.000000
# 5 0.000000 0.000000 0.000000 0.000000 0.031520 0.000000
# 6 0.000000 0.000000 0.000000 0.000000 0.000000 0.035384
#
#
# Mechanical properties :
#
#
# Convention : Reuss Voigt Hill
#
# Bulk Modulus (GPa) = 60.56853 67.26351 63.91602
# Shear Modulus (GPa) = -145.14224 29.04558 -58.04833
#
# Velocity S-wave (km/s) = -7.98261 3.57099 -5.04828
# Velocity P-wave (km/s) = 7.64011 6.82154 2.43288
#
# Compressibility (1/GPa) = 0.01651022
#
# Stress axis : x y z
#
# Youngs Moduli (GPa) = 126.24125 103.63240 87.80141
#
# Poissons Ratio (x) = 0.22733 0.34627
# Poissons Ratio (y) = 0.27692 0.00768
# Poissons Ratio (z) = 0.49788 0.00907
#
# Static dielectric constant tensor:
#      x y z
#    x 1.872310 0.000000 0.000000 
#    y 0.000000 1.873280 0.000000 
#    z 0.000000 0.000000 1.845120 
# 
# From -- ./inp_files/46408.got.cif
#   From: 2010.05.17/outbox.cif.g08.bks.cpg/sg68_24_cif.got.tgz:46408.got - 2010.06.03 18:57:09.
