data_PCOD9507940
_publ_section_title
;
Structure prediction by ZEFSAII (Michael W. Deem and Ramdas Pophale) SiO2 
 PCOD9507940
Probable space group: C C C A
;
_chemical_formula_sum "Si O2"
_cell_formula_units_Z 96
_cell_length_a 13.313474
_cell_length_b 25.112401
_cell_length_c 14.562442
_cell_angle_alpha 90.000000
_cell_angle_beta 90.000000
_cell_angle_gamma 90.000000
_cell_volume 4868.709258
_symmetry_space_group_name_H-M "C C C A"
_symmetry_group_IT_number 68
_space_group.IT_coordinate_system_code '2'
_symmetry_cell_setting 'orthorhombic'
loop_
_space_group_symop_operation_xyz
x,y,z
-x,1/2-y,z
x,1/2-y,1/2-z
-x,y,1/2-z
-x,-y,-z
x,1/2+y,-z
-x,1/2+y,1/2+z
x,-y,1/2+z
1/2+x,1/2+y,z
1/2-x,-y,z
1/2+x,-y,1/2-z
1/2-x,1/2+y,1/2-z
1/2-x,1/2-y,-z
1/2+x,y,-z
1/2-x,y,1/2+z
1/2+x,1/2-y,1/2+z
loop_
_atom_site_type_symbol
_atom_site_label
_atom_site_fract_x
_atom_site_fract_y
_atom_site_fract_z
Si Si1 0.000000 0.335569 0.750000
Si Si2 0.750000 0.500000 0.830643
Si Si3 0.884092 0.008464 0.995011
Si Si4 0.265137 0.091816 0.564005
Si Si5 0.249004 0.322312 0.073441
Si Si6 0.784949 0.884314 0.240925
Si Si7 0.901905 0.274857 0.571573
O O1 0.902116 0.370108 0.777050
O O2 0.950426 0.302408 0.663674
O O3 0.765615 0.446616 0.774431
O O4 0.841378 0.505480 0.901915
O O5 0.842993 0.064417 0.956745
O O6 0.836319 0.959894 0.936635
O O7 0.000000 0.000000 0.000000
O O8 0.302476 0.130016 0.482879
O O9 0.251300 0.125342 0.655810
O O10 0.222272 0.348844 0.169856
O O11 0.321430 0.272135 0.093030
O O12 0.157770 0.308659 0.004768
O O13 0.000000 0.250000 0.524936
#
# Coordination Sequence:
#
# PCOD9507940 Si02
#       7
#     8   8  16  16  16  16  16
#     4  12  25  40  78 104 126 182 246 279 330 418
#     4  10  22  40  60  96 130 172 216 280 338 392
#     4  10  21  39  65  90 136 182 228 270 336 423
#     4  10  22  41  61  97 131 178 222 280 344 399
#     4  11  23  41  66  95 140 172 208 306 346 383
#     4  12  23  42  67  99 137 171 229 282 340 407
#     4  11  24  42  66 102 128 168 234 285 340 407
#
# _framework density 19.717752999999998
#
# number of rings (size 3 to 8) (size 9 to 14) (size 15 to 20)
#    0.000    1.333    6.667    1.250    2.333    1.333 
#    0.000    0.000    0.000    1.000    0.000    0.000 
#    0.000    0.000    0.000    0.000    0.000    0.000 
#
# Total GULP energy -267479.871576 kJ/mol
# GULP energy per Si atom -5572.497325 kJ/mol
# Density = 1.967287 g / cm^3
# Si number density = 19.717753 Si / 1000 Ang^3
#
#
#
# Elastic Constant Matrix: (Units=GPa)
#
#
# Indices 1 2 3 4 5 6 
#
# 1 112.6120 33.8888 31.0511 0.0000 0.0000 0.0000
# 2 33.8888 86.9582 29.6774 0.0000 0.0000 0.0000
# 3 31.0511 29.6774 107.1363 0.0000 0.0000 0.0000
# 4 0.0000 0.0000 0.0000 27.6399 0.0000 0.0000
# 5 0.0000 0.0000 0.0000 0.0000 -11.9100 0.0000
# 6 0.0000 0.0000 0.0000 0.0000 0.0000 15.4014
#
#
#
# Elastic Compliance Matrix: (Units=1/GPa)
#
#
# Indices 1 2 3 4 5 6 
#
# 1 0.010472 -0.003363 -0.002103 0.000000 0.000000 0.000000
# 2 -0.003363 0.013781 -0.002843 0.000000 0.000000 0.000000
# 3 -0.002103 -0.002843 0.010731 0.000000 0.000000 0.000000
# 4 0.000000 0.000000 0.000000 0.036180 0.000000 0.000000
# 5 0.000000 0.000000 0.000000 0.000000 -0.083963 0.000000
# 6 0.000000 0.000000 0.000000 0.000000 0.000000 0.064929
#
#
# Mechanical properties :
#
#
# Convention : Reuss Voigt Hill
#
# Bulk Modulus (GPa) = 54.45096 55.10456 54.77776
# Shear Modulus (GPa) = 66.78241 20.36553 43.57397
#
# Velocity S-wave (km/s) = 5.82604 3.21729 4.70604
# Velocity P-wave (km/s) = 8.54003 6.46596 7.57432
#
# Compressibility (1/GPa) = 0.01836515
#
# Stress axis : x y z
#
# Youngs Moduli (GPa) = 95.49116 72.56582 93.18832
#
# Poissons Ratio (x) = 0.24406 0.19602
# Poissons Ratio (y) = 0.32116 0.26489
# Poissons Ratio (z) = 0.20086 0.20627
#
# Static dielectric constant tensor:
#      x y z
#    x 1.675320 0.000000 0.000000 
#    y 0.000000 1.776380 0.000000 
#    z 0.000000 0.000000 1.726730 
# 
# From -- ./inp_files/22520.got.cif
#   From: 2010.05.17/outbox.cif.g08.bks.cpg/sg68_12_cif.got.tgz:22520.got - 2010.06.03 18:57:09.
