data_PCOD9507835
_publ_section_title
;
Structure prediction by ZEFSAII (Michael W. Deem and Ramdas Pophale) SiO2 
 PCOD9507835
Probable space group: C C C A
;
_chemical_formula_sum "Si O2"
_cell_formula_units_Z 96
_cell_length_a 16.325737
_cell_length_b 20.061338
_cell_length_c 13.730082
_cell_angle_alpha 90.000000
_cell_angle_beta 90.000000
_cell_angle_gamma 90.000000
_cell_volume 4496.823295
_symmetry_space_group_name_H-M "C C C A"
_symmetry_group_IT_number 68
_space_group.IT_coordinate_system_code '2'
_symmetry_cell_setting 'orthorhombic'
loop_
_space_group_symop_operation_xyz
x,y,z
-x,1/2-y,z
x,1/2-y,1/2-z
-x,y,1/2-z
-x,-y,-z
x,1/2+y,-z
-x,1/2+y,1/2+z
x,-y,1/2+z
1/2+x,1/2+y,z
1/2-x,-y,z
1/2+x,-y,1/2-z
1/2-x,1/2+y,1/2-z
1/2-x,1/2-y,-z
1/2+x,y,-z
1/2-x,y,1/2+z
1/2+x,1/2-y,1/2+z
loop_
_atom_site_type_symbol
_atom_site_label
_atom_site_fract_x
_atom_site_fract_y
_atom_site_fract_z
Si Si1 0.927624 0.698255 0.053760
Si Si2 0.618182 0.891347 0.777690
Si Si3 0.729024 0.577773 0.094270
Si Si4 0.593480 0.950824 0.265735
Si Si5 0.188863 0.791821 0.347889
Si Si6 0.174079 0.623782 0.591321
O O1 0.938136 0.653715 0.151788
O O2 0.848118 0.745714 0.068806
O O3 0.000000 0.750000 0.037898
O O4 0.905226 0.647198 0.968564
O O5 0.707017 0.888779 0.831215
O O6 0.633710 0.857312 0.673836
O O7 0.594187 0.968604 0.774334
O O8 0.750000 0.500000 0.097059
O O9 0.638240 0.581407 0.139570
O O10 0.757239 0.601114 0.987673
O O11 0.500000 0.929005 0.250000
O O12 0.648116 0.929441 0.172367
O O13 0.178366 0.750000 0.250000
O O14 0.281819 0.813526 0.359705
#
# Coordination Sequence:
#
# PCOD9507835 Si02
#       6
#    16  16  16  16  16  16
#     4  10  23  41  62  98 133 166 225 286 332 393
#     4   9  20  40  64  94 130 173 225 270 328 416
#     4   9  20  39  63  95 129 171 224 260 329 421
#     4  11  24  41  67 103 140 169 220 290 350 399
#     4  10  21  38  67  90 121 175 229 265 315 408
#     4  11  23  42  67  94 131 182 226 267 345 411
#
# _framework density 21.348403000000001
#
# number of rings (size 3 to 8) (size 9 to 14) (size 15 to 20)
#    0.000    2.000    1.667    0.500    4.667    3.667 
#    3.000    7.500    0.000    0.000    0.000    0.000 
#    0.000    0.000    0.000    0.000    0.000    0.000 
#
# Total GULP energy -267708.809167 kJ/mol
# GULP energy per Si atom -5577.266858 kJ/mol
# Density = 2.129981 g / cm^3
# Si number density = 21.348403 Si / 1000 Ang^3
#
#
#
# Elastic Constant Matrix: (Units=GPa)
#
#
# Indices 1 2 3 4 5 6 
#
# 1 104.6289 18.8716 31.8189 0.0000 0.0000 0.0000
# 2 18.8716 64.2440 16.8724 0.0000 0.0000 0.0000
# 3 31.8189 16.8724 71.8276 0.0000 0.0000 0.0000
# 4 0.0000 0.0000 0.0000 10.9344 0.0000 0.0000
# 5 0.0000 0.0000 0.0000 0.0000 20.0233 0.0000
# 6 0.0000 0.0000 0.0000 0.0000 0.0000 28.4760
#
#
#
# Elastic Compliance Matrix: (Units=1/GPa)
#
#
# Indices 1 2 3 4 5 6 
#
# 1 0.011315 -0.002139 -0.004510 0.000000 0.000000 0.000000
# 2 -0.002139 0.016994 -0.003044 0.000000 0.000000 0.000000
# 3 -0.004510 -0.003044 0.016635 0.000000 0.000000 0.000000
# 4 0.000000 0.000000 0.000000 0.091455 0.000000 0.000000
# 5 0.000000 0.000000 0.000000 0.000000 0.049942 0.000000
# 6 0.000000 0.000000 0.000000 0.000000 0.000000 0.035117
#
#
# Mechanical properties :
#
#
# Convention : Reuss Voigt Hill
#
# Bulk Modulus (GPa) = 39.12821 41.75848 40.44334
# Shear Modulus (GPa) = 20.05107 23.42923 21.74015
#
# Velocity S-wave (km/s) = 3.06801 3.31640 3.19462
# Velocity P-wave (km/s) = 5.56044 5.85386 5.70903
#
# Compressibility (1/GPa) = 0.02555701
#
# Stress axis : x y z
#
# Youngs Moduli (GPa) = 88.37851 58.84580 60.11371
#
# Poissons Ratio (x) = 0.12589 0.27111
# Poissons Ratio (y) = 0.18907 0.18299
# Poissons Ratio (z) = 0.39858 0.17913
#
# Static dielectric constant tensor:
#      x y z
#    x 1.814280 0.000000 0.000000 
#    y 0.000000 1.780630 0.000000 
#    z 0.000000 0.000000 1.836970 
# 
# From -- ./inp_files/22396.got.cif
#   From: 2010.05.17/outbox.cif.g08.bks.cpg/sg68_12_cif.got.tgz:22396.got - 2010.06.03 18:57:09.
