data_PCOD9507429
_publ_section_title
;
Structure prediction by ZEFSAII (Michael W. Deem and Ramdas Pophale) SiO2 
 PCOD9507429
Probable space group: C C C A
;
_chemical_formula_sum "Si O2"
_cell_formula_units_Z 84
_cell_length_a 8.735182
_cell_length_b 18.243904
_cell_length_c 25.014915
_cell_angle_alpha 90.000000
_cell_angle_beta 90.000000
_cell_angle_gamma 90.000000
_cell_volume 3986.472457
_symmetry_space_group_name_H-M "C C C A"
_symmetry_group_IT_number 68
_space_group.IT_coordinate_system_code '2'
_symmetry_cell_setting 'orthorhombic'
loop_
_space_group_symop_operation_xyz
x,y,z
-x,1/2-y,z
x,1/2-y,1/2-z
-x,y,1/2-z
-x,-y,-z
x,1/2+y,-z
-x,1/2+y,1/2+z
x,-y,1/2+z
1/2+x,1/2+y,z
1/2-x,-y,z
1/2+x,-y,1/2-z
1/2-x,1/2+y,1/2-z
1/2-x,1/2-y,-z
1/2+x,y,-z
1/2-x,y,1/2+z
1/2+x,1/2-y,1/2+z
loop_
_atom_site_type_symbol
_atom_site_label
_atom_site_fract_x
_atom_site_fract_y
_atom_site_fract_z
Si Si1 0.308377 0.846258 0.551458
Si Si2 0.030643 0.343914 0.063282
Si Si3 0.500000 0.750000 0.250000
Si Si4 0.000000 0.250000 0.634409
Si Si5 0.750000 0.500000 0.862908
Si Si6 0.525817 0.509034 0.563303
Si Si7 0.787249 0.838214 0.669271
O O1 0.137304 0.813924 0.549897
O O2 0.374351 0.844434 0.491336
O O3 0.403450 0.801167 0.594517
O O4 0.341012 0.931390 0.568303
O O5 0.975690 0.425275 0.081604
O O6 0.130346 0.318685 0.112962
O O7 0.609110 0.698820 0.285736
O O8 0.880507 0.199624 0.667462
O O9 0.623319 0.534631 0.903714
O O10 0.787531 0.572577 0.828310
O O11 0.500000 0.500000 0.500000
#
# Coordination Sequence:
#
# PCOD9507429 Si02
#       7
#    16  16   4   8   8  16  16
#     4  11  21  34  56  99 137 186 215 260 319 417
#     4  10  22  36  61  90 140 177 226 265 328 395
#     4  12  28  52  76  92 128 170 232 296 380 400
#     4  12  24  40  68  96 136 164 222 268 346 412
#     4  10  20  44  68 100 138 182 228 284 334 412
#     4   9  19  30  59  92 135 179 220 259 311 396
#     4  11  25  47  71 100 131 178 227 295 350 413
#
# _framework density 21.071259999999999
#
# number of rings (size 3 to 8) (size 9 to 14) (size 15 to 20)
#    0.000    1.524    1.905    2.857   13.333    4.190 
#    0.000    1.905    4.190    0.000    0.000    0.000 
#    0.000    0.000    0.000    0.000    0.000    0.000 
#
# Total GULP energy -234119.429491 kJ/mol
# GULP energy per Si atom -5574.272131 kJ/mol
# Density = 2.102330 g / cm^3
# Si number density = 21.071260 Si / 1000 Ang^3
#
#
#
# Elastic Constant Matrix: (Units=GPa)
#
#
# Indices 1 2 3 4 5 6 
#
# 1 117.2296 23.6482 42.1052 0.0000 0.0000 0.0000
# 2 23.6482 133.3996 45.3693 0.0000 0.0000 0.0000
# 3 42.1052 45.3693 75.9517 0.0000 0.0000 0.0000
# 4 0.0000 0.0000 0.0000 41.0412 0.0000 0.0000
# 5 0.0000 0.0000 0.0000 0.0000 153.2119 0.0000
# 6 0.0000 0.0000 0.0000 0.0000 0.0000 30.6003
#
#
#
# Elastic Compliance Matrix: (Units=1/GPa)
#
#
# Indices 1 2 3 4 5 6 
#
# 1 0.010653 0.000151 -0.005996 0.000000 0.000000 0.000000
# 2 0.000151 0.009410 -0.005704 0.000000 0.000000 0.000000
# 3 -0.005996 -0.005704 0.019898 0.000000 0.000000 0.000000
# 4 0.000000 0.000000 0.000000 0.024366 0.000000 0.000000
# 5 0.000000 0.000000 0.000000 0.000000 0.006527 0.000000
# 6 0.000000 0.000000 0.000000 0.000000 0.000000 0.032679
#
#
# Mechanical properties :
#
#
# Convention : Reuss Voigt Hill
#
# Bulk Modulus (GPa) = 59.30652 60.98072 60.14362
# Shear Modulus (GPa) = 37.80648 59.33454 48.57051
#
# Velocity S-wave (km/s) = 4.24042 5.31226 4.80631
# Velocity P-wave (km/s) = 7.22369 8.16271 7.70751
#
# Compressibility (1/GPa) = 0.01686155
#
# Stress axis : x y z
#
# Youngs Moduli (GPa) = 93.86646 106.27439 50.25722
#
# Poissons Ratio (x) = -0.01601 0.30134
# Poissons Ratio (y) = -0.01414 0.28668
# Poissons Ratio (z) = 0.56282 0.60622
#
# Static dielectric constant tensor:
#      x y z
#    x 1.859540 0.000000 0.000000 
#    y 0.000000 1.936840 0.000000 
#    z 0.000000 0.000000 1.693830 
# 
# From -- ./inp_files/43085.got.cif
#   From: 2010.05.17/outbox.cif.g08.bks.cpg/sg68_22_cif.got.tgz:43085.got - 2010.06.03 18:57:09.
