data_PCOD9507883
_publ_section_title
;
Structure prediction by ZEFSAII (Michael W. Deem and Ramdas Pophale) SiO2 
 PCOD9507883
Probable space group: C C C A
;
_chemical_formula_sum "Si O2"
_cell_formula_units_Z 60
_cell_length_a 31.129671
_cell_length_b 14.673458
_cell_length_c 5.257565
_cell_angle_alpha 90.000000
_cell_angle_beta 90.000000
_cell_angle_gamma 90.000000
_cell_volume 2401.550120
_symmetry_space_group_name_H-M "C C C A"
_symmetry_group_IT_number 68
_space_group.IT_coordinate_system_code '2'
_symmetry_cell_setting 'orthorhombic'
loop_
_space_group_symop_operation_xyz
x,y,z
-x,1/2-y,z
x,1/2-y,1/2-z
-x,y,1/2-z
-x,-y,-z
x,1/2+y,-z
-x,1/2+y,1/2+z
x,-y,1/2+z
1/2+x,1/2+y,z
1/2-x,-y,z
1/2+x,-y,1/2-z
1/2-x,1/2+y,1/2-z
1/2-x,1/2-y,-z
1/2+x,y,-z
1/2-x,y,1/2+z
1/2+x,1/2-y,1/2+z
loop_
_atom_site_type_symbol
_atom_site_label
_atom_site_fract_x
_atom_site_fract_y
_atom_site_fract_z
Si Si1 0.500000 0.250000 0.250000
Si Si2 0.128689 0.107724 0.895641
Si Si3 0.773520 0.360147 0.752689
Si Si4 0.000000 0.372594 0.250000
Si Si5 0.406813 0.095487 0.896499
O O1 0.485855 0.179076 0.482892
O O2 0.178239 0.114560 0.825122
O O3 0.100673 0.145288 0.662564
O O4 0.115772 0.001939 0.929978
O O5 0.116353 0.147602 0.167568
O O6 0.771904 0.250000 0.750000
O O7 0.758627 0.391924 0.475120
O O8 0.956365 0.420845 0.333317
#
# Coordination Sequence:
#
# PCOD9507883 Si02
#       5
#     4  16  16   8  16
#     4  10  24  42  62  90 126 158 230 254 312 370
#     4  10  21  39  60  99 126 162 217 261 311 380
#     4  10  21  40  64  88 126 173 212 256 320 382
#     4  11  22  44  65  90 130 178 210 262 309 390
#     4  10  22  39  63  89 133 165 213 257 320 368
#
# _framework density 24.983864000000001
#
# number of rings (size 3 to 8) (size 9 to 14) (size 15 to 20)
#    0.000    1.867    0.000    3.200    0.000    4.267 
#   14.400   16.000    0.000    0.000    0.000    0.000 
#    0.000    0.000    0.000    0.000    0.000    0.000 
#
# Total GULP energy -167299.350385 kJ/mol
# GULP energy per Si atom -5576.645013 kJ/mol
# Density = 2.492700 g / cm^3
# Si number density = 24.983864 Si / 1000 Ang^3
#
#
#
# Elastic Constant Matrix: (Units=GPa)
#
#
# Indices 1 2 3 4 5 6 
#
# 1 122.4960 13.4560 14.0811 0.0000 0.0000 0.0000
# 2 13.4560 70.5523 33.4120 0.0000 0.0000 0.0000
# 3 14.0811 33.4120 197.0674 0.0000 0.0000 0.0000
# 4 0.0000 0.0000 0.0000 10.4408 0.0000 0.0000
# 5 0.0000 0.0000 0.0000 0.0000 49.9854 0.0000
# 6 0.0000 0.0000 0.0000 0.0000 0.0000 -29.3295
#
#
#
# Elastic Compliance Matrix: (Units=1/GPa)
#
#
# Indices 1 2 3 4 5 6 
#
# 1 0.008361 -0.001426 -0.000356 0.000000 0.000000 0.000000
# 2 -0.001426 0.015655 -0.002552 0.000000 0.000000 0.000000
# 3 -0.000356 -0.002552 0.005533 0.000000 0.000000 0.000000
# 4 0.000000 0.000000 0.000000 0.095778 0.000000 0.000000
# 5 0.000000 0.000000 0.000000 0.000000 0.020006 0.000000
# 6 0.000000 0.000000 0.000000 0.000000 0.000000 -0.034095
#
#
# Mechanical properties :
#
#
# Convention : Reuss Voigt Hill
#
# Bulk Modulus (GPa) = 47.89279 56.89043 52.39161
# Shear Modulus (GPa) = 39.41207 28.16379 33.78793
#
# Velocity S-wave (km/s) = 3.97609 3.36114 3.68148
# Velocity P-wave (km/s) = 6.34745 6.15494 6.25194
#
# Compressibility (1/GPa) = 0.02087997
#
# Stress axis : x y z
#
# Youngs Moduli (GPa) = 119.60179 63.87899 180.74873
#
# Poissons Ratio (x) = 0.09111 0.06428
# Poissons Ratio (y) = 0.17058 0.46132
# Poissons Ratio (z) = 0.04253 0.16304
#
# Static dielectric constant tensor:
#      x y z
#    x 1.919380 0.000000 0.000000 
#    y 0.000000 1.985410 0.000000 
#    z 0.000000 0.000000 2.198940 
# 
# From -- ./inp_files/2231.got.cif
#   From: 2010.05.17/outbox.cif.g08.bks.cpg/sg68_2_cif.got.tgz:2231.got - 2010.06.03 18:57:09.
