data_PCOD9507202
_publ_section_title
;
Structure prediction by ZEFSAII (Michael W. Deem and Ramdas Pophale) SiO2 
 PCOD9507202
Probable space group: C C C A
;
_chemical_formula_sum "Si O2"
_cell_formula_units_Z 112
_cell_length_a 16.395026
_cell_length_b 24.279310
_cell_length_c 13.445244
_cell_angle_alpha 90.000000
_cell_angle_beta 90.000000
_cell_angle_gamma 90.000000
_cell_volume 5352.012734
_symmetry_space_group_name_H-M "C C C A"
_symmetry_group_IT_number 68
_space_group.IT_coordinate_system_code '2'
_symmetry_cell_setting 'orthorhombic'
loop_
_space_group_symop_operation_xyz
x,y,z
-x,1/2-y,z
x,1/2-y,1/2-z
-x,y,1/2-z
-x,-y,-z
x,1/2+y,-z
-x,1/2+y,1/2+z
x,-y,1/2+z
1/2+x,1/2+y,z
1/2-x,-y,z
1/2+x,-y,1/2-z
1/2-x,1/2+y,1/2-z
1/2-x,1/2-y,-z
1/2+x,y,-z
1/2-x,y,1/2+z
1/2+x,1/2-y,1/2+z
loop_
_atom_site_type_symbol
_atom_site_label
_atom_site_fract_x
_atom_site_fract_y
_atom_site_fract_z
Si Si1 0.825366 0.695665 0.891550
Si Si2 0.914207 0.076610 0.470345
Si Si3 0.939659 0.602298 0.838365
Si Si4 0.191922 0.315960 0.451662
Si Si5 0.415721 0.407072 0.205622
Si Si6 0.156272 0.984988 0.705113
Si Si7 0.794706 0.311465 0.732370
O O1 0.893970 0.649976 0.898872
O O2 0.847222 0.756611 0.927901
O O3 0.796540 0.691589 0.777965
O O4 0.737778 0.684508 0.943155
O O5 0.872869 0.135680 0.445229
O O6 0.918490 0.075335 0.589553
O O7 0.858659 0.033783 0.408641
O O8 0.001934 0.071704 0.417051
O O9 0.876253 0.562617 0.780230
O O10 0.000000 0.623027 0.750000
O O11 0.271539 0.322422 0.381387
O O12 0.500000 0.384810 0.250000
O O13 0.395077 0.461161 0.268928
O O14 0.348500 0.360457 0.225699
O O15 0.250000 0.000000 0.722548
O O16 0.830091 0.250000 0.750000
#
# Coordination Sequence:
#
# PCOD9507202 Si02
#       7
#    16  16  16  16  16  16  16
#     4  10  20  39  65  97 131 174 221 267 325 389
#     4  11  24  44  65  97 134 169 221 274 329 400
#     4  10  22  41  67  97 133 169 218 281 335 397
#     4  10  21  38  66  95 132 176 218 268 321 391
#     4  12  26  43  65  93 132 173 214 267 338 393
#     4  11  25  46  70  95 124 170 222 278 333 401
#     4  10  21  41  66  95 130 171 221 270 323 396
#
# _framework density 20.926705999999999
#
# number of rings (size 3 to 8) (size 9 to 14) (size 15 to 20)
#    0.000    1.429    1.429    4.714    2.000    3.714 
#    0.000    3.571    0.000    0.000    0.000    0.000 
#    0.000    0.000    0.000    0.000    0.000    0.000 
#
# Total GULP energy -312451.858902 kJ/mol
# GULP energy per Si atom -5579.497480 kJ/mol
# Density = 2.087908 g / cm^3
# Si number density = 20.926706 Si / 1000 Ang^3
#
#
#
# Elastic Constant Matrix: (Units=GPa)
#
#
# Indices 1 2 3 4 5 6 
#
# 1 70.1246 30.3139 5.3341 0.0000 0.0000 0.0000
# 2 30.3139 87.9205 29.6328 0.0000 0.0000 0.0000
# 3 5.3341 29.6328 58.5979 0.0000 0.0000 0.0000
# 4 0.0000 0.0000 0.0000 14.1651 0.0000 0.0000
# 5 0.0000 0.0000 0.0000 0.0000 15.8104 0.0000
# 6 0.0000 0.0000 0.0000 0.0000 0.0000 -21.1488
#
#
#
# Elastic Compliance Matrix: (Units=1/GPa)
#
#
# Indices 1 2 3 4 5 6 
#
# 1 0.016897 -0.006398 0.001697 0.000000 0.000000 0.000000
# 2 -0.006398 0.016133 -0.007576 0.000000 0.000000 0.000000
# 3 0.001697 -0.007576 0.020742 0.000000 0.000000 0.000000
# 4 0.000000 0.000000 0.000000 0.070596 0.000000 0.000000
# 5 0.000000 0.000000 0.000000 0.000000 0.063249 0.000000
# 6 0.000000 0.000000 0.000000 0.000000 0.000000 -0.047284
#
#
# Mechanical properties :
#
#
# Convention : Reuss Voigt Hill
#
# Bulk Modulus (GPa) = 34.22446 38.57830 36.40138
# Shear Modulus (GPa) = 28.63241 11.85615 20.24428
#
# Velocity S-wave (km/s) = 3.70296 2.38283 3.11366
# Velocity P-wave (km/s) = 5.88834 5.10348 5.50990
#
# Compressibility (1/GPa) = 0.02921887
#
# Stress axis : x y z
#
# Youngs Moduli (GPa) = 59.18232 61.98357 48.21088
#
# Poissons Ratio (x) = 0.39657 -0.08183
# Poissons Ratio (y) = 0.37864 0.36525
# Poissons Ratio (z) = -0.10045 0.46960
#
# Static dielectric constant tensor:
#      x y z
#    x 1.749750 0.000000 0.000000 
#    y 0.000000 1.766060 0.000000 
#    z 0.000000 0.000000 1.674870 
# 
# From -- ./inp_files/22609.got.cif
#   From: 2010.05.17/outbox.cif.g08.bks.cpg/sg68_12_cif.got.tgz:22609.got - 2010.06.03 18:57:09.
