data_PCOD9507338
_publ_section_title
;
Structure prediction by ZEFSAII (Michael W. Deem and Ramdas Pophale) SiO2 
 PCOD9507338
Probable space group: C C C A
;
_chemical_formula_sum "Si O2"
_cell_formula_units_Z 36
_cell_length_a 9.190252
_cell_length_b 11.447607
_cell_length_c 12.405593
_cell_angle_alpha 90.000000
_cell_angle_beta 90.000000
_cell_angle_gamma 90.000000
_cell_volume 1305.147694
_symmetry_space_group_name_H-M "C C C A"
_symmetry_group_IT_number 68
_space_group.IT_coordinate_system_code '2'
_symmetry_cell_setting 'orthorhombic'
loop_
_space_group_symop_operation_xyz
x,y,z
-x,1/2-y,z
x,1/2-y,1/2-z
-x,y,1/2-z
-x,-y,-z
x,1/2+y,-z
-x,1/2+y,1/2+z
x,-y,1/2+z
1/2+x,1/2+y,z
1/2-x,-y,z
1/2+x,-y,1/2-z
1/2-x,1/2+y,1/2-z
1/2-x,1/2-y,-z
1/2+x,y,-z
1/2-x,y,1/2+z
1/2+x,1/2-y,1/2+z
loop_
_atom_site_type_symbol
_atom_site_label
_atom_site_fract_x
_atom_site_fract_y
_atom_site_fract_z
Si Si1 0.500000 0.250000 0.250000
Si Si2 0.128788 0.101551 0.570380
Si Si3 0.607979 0.929883 0.156397
O O1 0.382659 0.306039 0.333850
O O2 0.134312 0.151052 0.448178
O O3 0.250000 0.000000 0.574218
O O4 0.979745 0.035339 0.600017
O O5 0.500000 0.886615 0.250000
O O6 0.750000 0.000000 0.195979
#
# Coordination Sequence:
#
# PCOD9507338 Si02
#       3
#     4  16  16
#     4  12  24  44  82 116 148 204 258 314 380 470
#     4  10  23  43  72 107 151 199 249 318 386 446
#     4  10  20  40  73 100 145 204 238 310 397 436
#
# _framework density 27.583086000000002
#
# number of rings (size 3 to 8) (size 9 to 14) (size 15 to 20)
#    0.000    1.778    2.222    1.333    0.000    1.778 
#    0.000   21.111    0.000    6.667    0.000    0.000 
#    0.000    0.000    0.000    0.000    0.000    0.000 
#
# Total GULP energy -100359.707501 kJ/mol
# GULP energy per Si atom -5575.539306 kJ/mol
# Density = 2.752031 g / cm^3
# Si number density = 27.583086 Si / 1000 Ang^3
#
#
#
# Elastic Constant Matrix: (Units=GPa)
#
#
# Indices 1 2 3 4 5 6 
#
# 1 184.1394 26.9813 68.6418 0.0000 0.0000 0.0000
# 2 26.9813 56.5961 77.6538 0.0000 0.0000 0.0000
# 3 68.6418 77.6538 344.7207 0.0000 0.0000 0.0000
# 4 0.0000 0.0000 0.0000 -144.6647 0.0000 0.0000
# 5 0.0000 0.0000 0.0000 0.0000 47.1878 0.0000
# 6 0.0000 0.0000 0.0000 0.0000 0.0000 40.8464
#
#
#
# Elastic Compliance Matrix: (Units=1/GPa)
#
#
# Indices 1 2 3 4 5 6 
#
# 1 0.005985 -0.001763 -0.000795 0.000000 0.000000 0.000000
# 2 -0.001763 0.026093 -0.005527 0.000000 0.000000 0.000000
# 3 -0.000795 -0.005527 0.004304 0.000000 0.000000 0.000000
# 4 0.000000 0.000000 0.000000 -0.006913 0.000000 0.000000
# 5 0.000000 0.000000 0.000000 0.000000 0.021192 0.000000
# 6 0.000000 0.000000 0.000000 0.000000 0.000000 0.024482
#
#
# Mechanical properties :
#
#
# Convention : Reuss Voigt Hill
#
# Bulk Modulus (GPa) = 49.47285 103.55666 76.51476
# Shear Modulus (GPa) = 50.99453 16.15252 33.57352
#
# Velocity S-wave (km/s) = 4.30439 2.42253 3.49259
# Velocity P-wave (km/s) = 6.53288 6.74166 6.63809
#
# Compressibility (1/GPa) = 0.02021311
#
# Stress axis : x y z
#
# Youngs Moduli (GPa) = 167.07822 38.32510 232.33626
#
# Poissons Ratio (x) = 0.06757 0.18462
# Poissons Ratio (y) = 0.29457 1.28405
# Poissons Ratio (z) = 0.13277 0.21181
#
# Static dielectric constant tensor:
#      x y z
#    x 2.368990 0.000000 0.000000 
#    y 0.000000 0.890690 0.000000 
#    z 0.000000 0.000000 2.682420 
# 
# From -- ./inp_files/11047.got.cif
#   From: 2010.05.17/outbox.cif.g08.bks.cpg/sg68_6_cif.got.tgz:11047.got - 2010.06.03 18:57:09.
