data_PCOD9507865
_publ_section_title
;
Structure prediction by ZEFSAII (Michael W. Deem and Ramdas Pophale) SiO2 
 PCOD9507865
Probable space group: C C C A
;
_chemical_formula_sum "Si O2"
_cell_formula_units_Z 80
_cell_length_a 22.605817
_cell_length_b 4.952105
_cell_length_c 34.695886
_cell_angle_alpha 90.000000
_cell_angle_beta 90.000000
_cell_angle_gamma 90.000000
_cell_volume 3884.078818
_symmetry_space_group_name_H-M "C C C A"
_symmetry_group_IT_number 68
_space_group.IT_coordinate_system_code '2'
_symmetry_cell_setting 'orthorhombic'
loop_
_space_group_symop_operation_xyz
x,y,z
-x,1/2-y,z
x,1/2-y,1/2-z
-x,y,1/2-z
-x,-y,-z
x,1/2+y,-z
-x,1/2+y,1/2+z
x,-y,1/2+z
1/2+x,1/2+y,z
1/2-x,-y,z
1/2+x,-y,1/2-z
1/2-x,1/2+y,1/2-z
1/2-x,1/2-y,-z
1/2+x,y,-z
1/2-x,y,1/2+z
1/2+x,1/2-y,1/2+z
loop_
_atom_site_type_symbol
_atom_site_label
_atom_site_fract_x
_atom_site_fract_y
_atom_site_fract_z
Si Si1 0.250000 0.000000 0.276621
Si Si2 0.807866 0.706154 0.656577
Si Si3 0.564326 0.835556 0.374597
Si Si4 0.250000 0.500000 0.087864
Si Si5 0.938112 0.670455 0.430052
Si Si6 0.321747 0.810901 0.525648
O O1 0.268795 0.250000 0.250000
O O2 0.200396 0.108762 0.305869
O O3 0.750000 0.500000 0.658787
O O4 0.877444 0.642855 0.652304
O O5 0.795832 0.862849 0.616802
O O6 0.500000 0.750000 0.357235
O O7 0.569583 0.624858 0.410993
O O8 0.562330 0.128598 0.393671
O O9 0.281941 0.283635 0.061172
O O10 0.886860 0.749131 0.459096
O O11 0.000000 0.750000 0.449520
O O12 0.312477 0.611405 0.489434
#
# Coordination Sequence:
#
# PCOD9507865 Si02
#       6
#     8  16  16   8  16  16
#     4  11  24  44  64 105 140 164 194 241 302 372
#     4  11  23  39  73  99 125 168 209 259 306 366
#     4  10  21  39  64  94 125 159 208 267 317 365
#     4  11  24  38  58  87 122 156 220 261 318 378
#     4  10  21  39  59  81 117 161 210 269 321 380
#     4  12  25  38  54  79 118 165 207 269 333 374
#
# _framework density 20.596903000000001
#
# number of rings (size 3 to 8) (size 9 to 14) (size 15 to 20)
#    0.000    1.200    3.000    3.000    5.600    0.800 
#    0.000    0.000    0.000    0.600    5.200    0.000 
#    0.000    0.000    0.000    0.000    0.000    0.000 
#
# Total GULP energy -223200.237173 kJ/mol
# GULP energy per Si atom -5580.005929 kJ/mol
# Density = 2.055002 g / cm^3
# Si number density = 20.596903 Si / 1000 Ang^3
#
#
#
# Elastic Constant Matrix: (Units=GPa)
#
#
# Indices 1 2 3 4 5 6 
#
# 1 146.5723 18.5212 48.0743 0.0000 0.0000 0.0000
# 2 18.5212 78.8382 21.7219 0.0000 0.0000 0.0000
# 3 48.0743 21.7219 90.8761 0.0000 0.0000 0.0000
# 4 0.0000 0.0000 0.0000 50.7647 0.0000 0.0000
# 5 0.0000 0.0000 0.0000 0.0000 349.0672 0.0000
# 6 0.0000 0.0000 0.0000 0.0000 0.0000 21.6350
#
#
#
# Elastic Compliance Matrix: (Units=1/GPa)
#
#
# Indices 1 2 3 4 5 6 
#
# 1 0.008301 -0.000792 -0.004202 0.000000 0.000000 0.000000
# 2 -0.000792 0.013654 -0.002845 0.000000 0.000000 0.000000
# 3 -0.004202 -0.002845 0.013907 0.000000 0.000000 0.000000
# 4 0.000000 0.000000 0.000000 0.019699 0.000000 0.000000
# 5 0.000000 0.000000 0.000000 0.000000 0.002865 0.000000
# 6 0.000000 0.000000 0.000000 0.000000 0.000000 0.046221
#
#
# Mechanical properties :
#
#
# Convention : Reuss Voigt Hill
#
# Bulk Modulus (GPa) = 49.54371 54.76904 52.15638
# Shear Modulus (GPa) = 39.35393 99.49132 69.42262
#
# Velocity S-wave (km/s) = 4.37587 6.95765 5.81193
# Velocity P-wave (km/s) = 7.04536 9.54955 8.39139
#
# Compressibility (1/GPa) = 0.02018420
#
# Stress axis : x y z
#
# Youngs Moduli (GPa) = 120.46944 73.23806 71.90769
#
# Poissons Ratio (x) = 0.05803 0.30214
# Poissons Ratio (y) = 0.09546 0.20454
# Poissons Ratio (z) = 0.50619 0.20833
#
# Static dielectric constant tensor:
#      x y z
#    x 1.894430 0.000000 0.000000 
#    y 0.000000 1.775410 0.000000 
#    z 0.000000 0.000000 1.689030 
# 
# From -- ./inp_files/55939.got.cif
#   From: 2010.05.17/outbox.cif.g08.bks.cpg/sg68_28_cif.got.tgz:55939.got - 2010.06.03 18:57:09.
