data_PCOD9507896
_publ_section_title
;
Structure prediction by ZEFSAII (Michael W. Deem and Ramdas Pophale) SiO2 
 PCOD9507896
Probable space group: C C C A
;
_chemical_formula_sum "Si O2"
_cell_formula_units_Z 56
_cell_length_a 24.793601
_cell_length_b 5.387250
_cell_length_c 17.925625
_cell_angle_alpha 90.000000
_cell_angle_beta 90.000000
_cell_angle_gamma 90.000000
_cell_volume 2394.313667
_symmetry_space_group_name_H-M "C C C A"
_symmetry_group_IT_number 68
_space_group.IT_coordinate_system_code '2'
_symmetry_cell_setting 'orthorhombic'
loop_
_space_group_symop_operation_xyz
x,y,z
-x,1/2-y,z
x,1/2-y,1/2-z
-x,y,1/2-z
-x,-y,-z
x,1/2+y,-z
-x,1/2+y,1/2+z
x,-y,1/2+z
1/2+x,1/2+y,z
1/2-x,-y,z
1/2+x,-y,1/2-z
1/2-x,1/2+y,1/2-z
1/2-x,1/2-y,-z
1/2+x,y,-z
1/2-x,y,1/2+z
1/2+x,1/2-y,1/2+z
loop_
_atom_site_type_symbol
_atom_site_label
_atom_site_fract_x
_atom_site_fract_y
_atom_site_fract_z
Si Si1 0.813800 0.999377 0.046893
Si Si2 0.977251 0.501180 0.163150
Si Si3 0.640462 0.676845 0.163784
Si Si4 0.250000 0.000000 0.200839
O O1 0.851828 0.573049 0.883912
O O2 0.750000 0.000000 0.068609
O O3 0.823562 0.737411 0.007197
O O4 0.913356 0.479994 0.154319
O O5 0.000000 0.250000 0.129005
O O6 0.000000 0.500744 0.250000
O O7 0.000000 0.750000 0.128790
O O8 0.639051 0.750000 0.250000
O O9 0.696076 0.528148 0.152997
O O10 0.255274 0.250000 0.250000
#
# Coordination Sequence:
#
# PCOD9507896 Si02
#       4
#    16  16  16   8
#     4  10  25  46  66  95 143 190 224 272 354 433
#     4  10  21  39  61  95 131 176 217 281 342 402
#     4  11  24  42  71 103 138 173 238 292 343 413
#     4  10  26  36  56 102 142 162 204 292 352 388
#
# _framework density 23.388748
#
# number of rings (size 3 to 8) (size 9 to 14) (size 15 to 20)
#    0.000    1.714    2.857    0.000   18.000    2.286 
#    0.000    0.000    0.000    5.143    0.000    0.000 
#    0.000    0.000    0.000    0.000    0.000    0.000 
#
# Total GULP energy -156535.981126 kJ/mol
# GULP energy per Si atom -5590.570755 kJ/mol
# Density = 2.333551 g / cm^3
# Si number density = 23.388748 Si / 1000 Ang^3
#
#
#
# Elastic Constant Matrix: (Units=GPa)
#
#
# Indices 1 2 3 4 5 6 
#
# 1 197.8597 70.9544 15.4340 0.0000 0.0000 0.0000
# 2 70.9544 199.1582 46.7219 0.0000 0.0000 0.0000
# 3 15.4340 46.7219 89.7552 0.0000 0.0000 0.0000
# 4 0.0000 0.0000 0.0000 17.1399 0.0000 0.0000
# 5 0.0000 0.0000 0.0000 0.0000 -9.6142 0.0000
# 6 0.0000 0.0000 0.0000 0.0000 0.0000 44.3023
#
#
#
# Elastic Compliance Matrix: (Units=1/GPa)
#
#
# Indices 1 2 3 4 5 6 
#
# 1 0.005795 -0.002086 0.000089 0.000000 0.000000 0.000000
# 2 -0.002086 0.006470 -0.003009 0.000000 0.000000 0.000000
# 3 0.000089 -0.003009 0.012693 0.000000 0.000000 0.000000
# 4 0.000000 0.000000 0.000000 0.058343 0.000000 0.000000
# 5 0.000000 0.000000 0.000000 0.000000 -0.104012 0.000000
# 6 0.000000 0.000000 0.000000 0.000000 0.000000 0.022572
#
#
# Mechanical properties :
#
#
# Convention : Reuss Voigt Hill
#
# Bulk Modulus (GPa) = 66.90663 83.66596 75.28630
# Shear Modulus (GPa) = 296.65237 33.94310 165.29774
#
# Velocity S-wave (km/s) = 11.27435 3.81367 8.41591
# Velocity P-wave (km/s) = 14.07656 7.43247 11.25591
#
# Compressibility (1/GPa) = 0.01494620
#
# Stress axis : x y z
#
# Youngs Moduli (GPa) = 172.56199 154.55624 78.78586
#
# Poissons Ratio (x) = 0.32233 -0.00702
# Poissons Ratio (y) = 0.35988 0.23710
# Poissons Ratio (z) = -0.01538 0.46512
#
# Static dielectric constant tensor:
#      x y z
#    x 1.932610 0.000000 0.000000 
#    y 0.000000 1.939710 0.000000 
#    z 0.000000 0.000000 1.928820 
# 
# From -- ./inp_files/35026.got.cif
#   From: 2010.05.17/outbox.cif.g08.bks.cpg/sg68_18_cif.got.tgz:35026.got - 2010.06.03 18:57:09.
