data_PCOD9507947
_publ_section_title
;
Structure prediction by ZEFSAII (Michael W. Deem and Ramdas Pophale) SiO2 
 PCOD9507947
Probable space group: C C C A
;
_chemical_formula_sum "Si O2"
_cell_formula_units_Z 52
_cell_length_a 17.245379
_cell_length_b 4.838851
_cell_length_c 27.099798
_cell_angle_alpha 90.000000
_cell_angle_beta 90.000000
_cell_angle_gamma 90.000000
_cell_volume 2261.419050
_symmetry_space_group_name_H-M "C C C A"
_symmetry_group_IT_number 68
_space_group.IT_coordinate_system_code '2'
_symmetry_cell_setting 'orthorhombic'
loop_
_space_group_symop_operation_xyz
x,y,z
-x,1/2-y,z
x,1/2-y,1/2-z
-x,y,1/2-z
-x,-y,-z
x,1/2+y,-z
-x,1/2+y,1/2+z
x,-y,1/2+z
1/2+x,1/2+y,z
1/2-x,-y,z
1/2+x,-y,1/2-z
1/2-x,1/2+y,1/2-z
1/2-x,1/2-y,-z
1/2+x,y,-z
1/2-x,y,1/2+z
1/2+x,1/2-y,1/2+z
loop_
_atom_site_type_symbol
_atom_site_label
_atom_site_fract_x
_atom_site_fract_y
_atom_site_fract_z
Si Si1 0.500000 0.750000 0.250000
Si Si2 0.079888 0.645700 0.329330
Si Si3 0.164627 0.624769 0.634003
Si Si4 0.906792 0.726554 0.969532
O O1 0.451590 0.538020 0.284368
O O2 0.142396 0.442322 0.354523
O O3 0.000000 0.750000 0.356261
O O4 0.123261 0.935762 0.324364
O O5 0.250000 0.500000 0.631717
O O6 0.126808 0.598485 0.580033
O O7 0.000000 0.750000 0.964767
O O8 0.882846 0.533399 0.015332
#
# Coordination Sequence:
#
# PCOD9507947 Si02
#       4
#     4  16  16  16
#     4  12  26  48  82 104 118 180 248 292 346 412
#     4  12  24  46  76 100 133 179 244 288 344 429
#     4  12  26  43  69 108 149 187 223 288 372 422
#     4  10  21  39  65  99 139 187 245 287 327 404
#
# _framework density 22.994413000000002
#
# number of rings (size 3 to 8) (size 9 to 14) (size 15 to 20)
#    0.000    0.615    3.077    5.077    0.000    3.692 
#    0.000    3.077    0.000    0.000    0.000    0.000 
#    0.000    0.000    0.000    0.000    0.000    0.000 
#
# Total GULP energy -144893.845592 kJ/mol
# GULP energy per Si atom -5572.840215 kJ/mol
# Density = 2.294208 g / cm^3
# Si number density = 22.994413 Si / 1000 Ang^3
#
#
#
# Elastic Constant Matrix: (Units=GPa)
#
#
# Indices 1 2 3 4 5 6 
#
# 1 107.8241 49.6962 30.4812 0.0000 0.0000 0.0000
# 2 49.6962 162.8432 27.3555 0.0000 0.0000 0.0000
# 3 30.4812 27.3555 79.7718 0.0000 0.0000 0.0000
# 4 0.0000 0.0000 0.0000 19.6537 0.0000 0.0000
# 5 0.0000 0.0000 0.0000 0.0000 -1.9807 0.0000
# 6 0.0000 0.0000 0.0000 0.0000 0.0000 44.3336
#
#
#
# Elastic Compliance Matrix: (Units=1/GPa)
#
#
# Indices 1 2 3 4 5 6 
#
# 1 0.011609 -0.002969 -0.003418 0.000000 0.000000 0.000000
# 2 -0.002969 0.007275 -0.001361 0.000000 0.000000 0.000000
# 3 -0.003418 -0.001361 0.014308 0.000000 0.000000 0.000000
# 4 0.000000 0.000000 0.000000 0.050881 0.000000 0.000000
# 5 0.000000 0.000000 0.000000 0.000000 -0.504882 0.000000
# 6 0.000000 0.000000 0.000000 0.000000 0.000000 0.022556
#
#
# Mechanical properties :
#
#
# Convention : Reuss Voigt Hill
#
# Bulk Modulus (GPa) = 56.50182 62.83389 59.66785
# Shear Modulus (GPa) = -13.26756 28.59508 7.66376
#
# Velocity S-wave (km/s) = -2.40467 3.53025 1.82760
# Velocity P-wave (km/s) = 4.11284 6.63339 5.51894
#
# Compressibility (1/GPa) = 0.01769854
#
# Stress axis : x y z
#
# Youngs Moduli (GPa) = 86.14176 137.44969 69.88966
#
# Poissons Ratio (x) = 0.40803 0.23887
# Poissons Ratio (y) = 0.25572 0.09509
# Poissons Ratio (z) = 0.29441 0.18701
#
# Static dielectric constant tensor:
#      x y z
#    x 1.895340 0.000000 0.000000 
#    y 0.000000 1.868450 0.000000 
#    z 0.000000 0.000000 1.868510 
# 
# From -- ./inp_files/51107.got.cif
#   From: 2010.05.17/outbox.cif.g08.bks.cpg/sg68_26_cif.got.tgz:51107.got - 2010.06.03 18:57:09.
